data_functionalizedCrystal
_audit_creation_method	'MofGen! by Chris Wilmer'
_symmetry_space_group_name_H-M	'P1'
_symmetry_Int_Tables_number	1
_symmetry_cell_setting	triclinic
loop_
_symmetry_equiv_pos_as_xyz
  x,y,z
_cell_length_a	19.188930
_cell_length_b	23.532407
_cell_length_c	17.666332
_cell_angle_alpha	89.988854
_cell_angle_beta	89.976766
_cell_angle_gamma	82.996728
loop_
_atom_site_label
_atom_site_type_symbol
_atom_site_fract_x
_atom_site_fract_y
_atom_site_fract_z
O1	O	0.925923	0.071102	-0.063199
O2	O	1.425923	0.571102	0.436801
O3	O	0.722581	0.080673	-0.063148
O4	O	1.222581	0.580673	0.436852
O5	O	0.830384	-0.007031	-0.063161
O6	O	1.330384	0.492969	0.436839
O7	O	0.818120	0.158806	-0.063186
O8	O	1.318120	0.658806	0.436814
O9	O	0.830365	-0.007036	0.062735
O10	O	1.330365	0.492964	0.562735
O11	O	0.722562	0.080669	0.062748
O12	O	1.222562	0.580669	0.562748
O13	O	0.925904	0.071097	0.062697
O14	O	1.425904	0.571097	0.562697
Cu15	Cu	0.824231	0.075883	0.074218
Cu16	Cu	1.324231	0.575883	0.574218
Cu17	Cu	0.824253	0.075888	-0.074669
Cu18	Cu	1.324253	0.575888	0.425331
O19	O	0.818101	0.158802	0.062711
O20	O	1.318101	0.658802	0.562711
C21	C	0.696561	0.080361	-0.000193
C22	C	1.196561	0.580361	0.499807
C23	C	0.619060	0.079431	-0.000173
C24	C	1.119060	0.579431	0.499827
C25	C	0.573972	0.130893	-0.000193
C26	C	1.073972	0.630893	0.499807
C27	C	0.501151	0.130019	-0.000201
C28	C	1.001151	0.630019	0.499799
C29	C	0.473421	0.077680	-0.000205
C30	C	0.973421	0.577680	0.499795
C31	C	0.518519	0.026211	-0.000181
C32	C	1.018519	0.526211	0.499819
C33	C	0.591339	0.027086	-0.000165
C34	C	1.091339	0.527086	0.499835
N35	N	0.365575	0.037674	-0.043078
N36	N	0.865575	0.537674	0.456922
N37	N	0.296399	0.036846	-0.043094
N38	N	0.796399	0.536846	0.456906
C39	C	0.254021	0.075038	-0.000251
C40	C	0.754021	0.575038	0.499749
N41	N	0.283431	0.114099	0.042600
N42	N	0.783431	0.614099	0.542600
N43	N	0.352613	0.114929	0.042614
N44	N	0.852613	0.614929	0.542614
C45	C	0.394462	0.076724	-0.000222
C46	C	0.894462	0.576724	0.499778
C47	C	0.129971	0.125556	-0.000278
C48	C	0.629971	0.625556	0.499722
C49	C	0.057149	0.124680	-0.000282
C50	C	0.557149	0.624680	0.499718
C51	C	0.074520	0.020870	-0.000269
C52	C	0.574520	0.520870	0.499731
C53	C	0.147340	0.021748	-0.000258
C54	C	0.647340	0.521748	0.499742
C55	C	0.175061	0.074092	-0.000266
C56	C	0.675061	0.574092	0.499734
C57	C	0.830062	-0.028250	-0.000211
C58	C	1.330062	0.471750	0.499789
C59	C	0.829123	-0.091469	-0.000205
C60	C	1.329123	0.408531	0.499795
C61	C	0.887029	-0.490449	-0.000261
C62	C	1.387029	0.009551	0.499739
C63	C	0.886157	-0.549851	-0.000267
C64	C	1.386157	-0.049851	0.499733
O65	O	0.939837	-0.586482	-0.000308
O66	O	1.439837	-0.086482	0.499692
N67	N	0.822068	-0.572613	-0.000250
N68	N	1.322068	-0.072613	0.499750
C69	C	0.758848	-0.535970	-0.000236
C70	C	1.258848	-0.035970	0.499764
O71	O	0.704255	-0.560786	-0.000223
O72	O	1.204255	-0.060786	0.499777
C73	C	0.759721	-0.476569	-0.000235
C74	C	1.259721	0.023431	0.499765
C75	C	0.823814	-0.453810	-0.000244
C76	C	1.323814	0.046190	0.499756
C77	C	0.951117	-0.467690	-0.000271
C78	C	1.451117	0.032310	0.499729
C79	C	0.951989	-0.408292	-0.000264
C80	C	1.451989	0.091708	0.499736
C81	C	0.888773	-0.371653	-0.000247
C82	C	1.388773	0.128347	0.499753
C83	C	0.824685	-0.394412	-0.000237
C84	C	1.324685	0.105588	0.499763
C85	C	0.696501	-0.439927	-0.000226
C86	C	1.196501	0.060073	0.499774
C87	C	0.697379	-0.380523	-0.000227
C88	C	1.197379	0.119477	0.499773
C89	C	0.761472	-0.357764	-0.000236
C90	C	1.261472	0.142236	0.499764
C91	C	0.762342	-0.298376	-0.000214
C92	C	1.262342	0.201624	0.499786
N93	N	0.826430	-0.275614	-0.000230
N94	N	1.326430	0.224386	0.499770
C95	C	0.889646	-0.312252	-0.000247
C96	C	1.389646	0.187748	0.499753
C97	C	0.757019	-0.660717	-0.000237
C98	C	1.257019	-0.160717	0.499763
C99	C	0.756146	-0.720116	-0.000232
C100	C	1.256146	-0.220116	0.499768
C101	C	0.883455	-0.733993	-0.000264
C102	C	1.383455	-0.233993	0.499736
C103	C	0.884328	-0.674592	-0.000264
C104	C	1.384328	-0.174592	0.499736
C105	C	0.821108	-0.637954	-0.000254
C106	C	1.321108	-0.137954	0.499746
C107	C	0.891472	-0.187512	-0.000232
C108	C	1.391472	0.312488	0.499768
C109	C	0.892339	-0.128108	-0.000222
C110	C	1.392339	0.371892	0.499778
C111	C	0.765029	-0.114236	-0.000193
C112	C	1.265029	0.385764	0.499807
C113	C	0.764163	-0.173634	-0.000199
C114	C	1.264163	0.326366	0.499801
C115	C	0.827390	-0.210272	-0.000221
C116	C	1.327390	0.289728	0.499779
O117	O	0.708690	-0.261710	-0.000176
O118	O	1.208690	0.238290	0.499824
O119	O	0.944230	-0.287428	-0.000270
O120	O	1.444230	0.212572	0.499730
C121	C	0.951923	0.071410	-0.000259
C122	C	1.451923	0.571410	0.499741
C123	C	1.029425	0.072340	-0.000284
C124	C	1.529425	0.572340	0.499716
C125	C	0.818423	0.180021	-0.000241
C126	C	1.318423	0.680021	0.499759
C127	C	0.819362	0.243240	-0.000252
C128	C	1.319362	0.743240	0.499748
N129	N	0.824221	0.075878	0.178938
N130	N	1.324221	0.575878	0.678938
N131	N	0.824270	0.075888	-0.179389
N132	N	1.324270	0.575888	0.320611
C133	C	0.871971	0.037062	0.218542
C134	C	1.371971	0.537062	0.718542
C135	C	0.871975	0.037059	0.297789
C136	C	1.371975	0.537059	0.797789
C137	C	0.824236	0.075883	0.337430
C138	C	1.324236	0.575883	0.837430
C139	C	0.776476	0.114702	0.297816
C140	C	1.276476	0.614702	0.797816
C141	C	0.776469	0.114700	0.218570
C142	C	1.276469	0.614700	0.718570
N143	N	0.814998	0.126298	0.461842
N144	N	1.314998	0.626298	0.961842
N145	N	0.815010	0.126298	0.537123
N146	N	1.315010	0.626298	1.037123
C147	C	0.824254	0.075891	0.576194
C148	C	1.324254	0.575891	1.076194
N149	N	0.833500	0.025481	0.537141
N150	N	1.333500	0.525481	1.037141
N151	N	0.833493	0.025482	0.461853
N152	N	1.333493	0.525482	0.961853
C153	C	0.824238	0.075889	0.423359
C154	C	1.324238	0.575889	0.923359
C155	C	0.872011	0.037068	0.701727
C156	C	1.372011	0.537068	1.201727
C157	C	0.872010	0.037064	0.780976
C158	C	1.372010	0.537064	1.280976
C159	C	0.776515	0.114713	0.781002
C160	C	1.276515	0.614713	1.281002
C161	C	0.776512	0.114711	0.701754
C162	C	1.276512	0.614711	1.201754
C163	C	0.824264	0.075889	0.662122
C164	C	1.324264	0.575889	1.162122
H165	H	0.184052	-0.020158	-0.000246
H166	H	0.684052	0.479842	0.499754
H167	H	0.644310	-0.458446	-0.000224
H168	H	1.144310	0.041554	0.499776
H169	H	0.942958	-0.217335	-0.000252
H170	H	1.442958	0.282665	0.499748
C171	C	0.008228	0.180575	-0.000458
C172	C	0.508228	0.680575	0.499542
C173	C	0.020724	0.212092	-0.065245
C174	C	0.520724	0.712092	0.434755
C175	C	-0.024335	0.263583	-0.065439
C176	C	0.475665	0.763583	0.434561
H177	H	0.016531	0.202115	0.043389
H178	H	0.516531	0.702115	0.543389
H179	H	-0.039123	0.172584	-0.000504
H180	H	0.460877	0.672584	0.499496
H181	H	0.068064	0.220085	-0.065192
H182	H	0.568064	0.720085	0.434808
H183	H	0.012417	0.190570	-0.109103
H184	H	0.512417	0.690570	0.390897
H185	H	-0.071686	0.255592	-0.065485
H186	H	0.428314	0.755592	0.434515
H187	H	-0.016028	0.285117	-0.021589
H188	H	0.483972	0.785117	0.478411
H189	H	-0.015867	0.284971	-0.109399
H190	H	0.484133	0.784971	0.390601
H191	H	0.495937	-0.016404	-0.000195
H192	H	0.995937	0.483596	0.499805
H193	H	0.645897	-0.350694	-0.000220
H194	H	1.145897	0.149306	0.499780
C195	C	0.686537	-0.744789	-0.000370
C196	C	1.186537	-0.244789	0.499630
C197	C	0.648367	-0.726148	-0.065140
C198	C	1.148367	-0.226148	0.434860
C199	C	0.584243	-0.748868	-0.065304
C200	C	1.084243	-0.248868	0.434696
H201	H	0.660436	-0.732224	0.043489
H202	H	1.160436	-0.232224	0.543489
H203	H	0.695034	-0.785416	-0.000417
H204	H	1.195034	-0.285416	0.499583
H205	H	0.639868	-0.685530	-0.065086
H206	H	1.139868	-0.185530	0.434914
H207	H	0.674447	-0.738712	-0.109009
H208	H	1.174447	-0.238712	0.390991
H209	H	0.592740	-0.789495	-0.065351
H210	H	1.092740	-0.289495	0.434649
H211	H	0.558148	-0.736302	-0.021442
H212	H	1.058148	-0.236302	0.478558
H213	H	0.558339	-0.736228	-0.109252
H214	H	1.058339	-0.236228	0.390748
C215	C	1.021599	-0.383621	-0.000439
C216	C	1.521599	0.116379	0.499561
C217	C	1.059783	-0.402243	-0.065232
C218	C	1.559783	0.097757	0.434768
C219	C	1.123911	-0.379527	-0.065426
C220	C	1.623911	0.120473	0.434574
H221	H	1.047688	-0.396203	0.043404
H222	H	1.547688	0.103797	0.543404
H223	H	1.013106	-0.342994	-0.000476
H224	H	1.513106	0.157006	0.499524
H225	H	1.068278	-0.442861	-0.065188
H226	H	1.568278	0.057139	0.434812
H227	H	1.033715	-0.389662	-0.109085
H228	H	1.533715	0.110338	0.390915
H229	H	1.115418	-0.338900	-0.065464
H230	H	1.615418	0.161100	0.434536
H231	H	1.149994	-0.392111	-0.021581
H232	H	1.649994	0.107889	0.478419
H233	H	1.149824	-0.392154	-0.109391
H234	H	1.649824	0.107846	0.390609
H235	H	1.002598	-0.497516	-0.000287
H236	H	1.502598	0.002484	0.499713
C237	C	0.724569	0.156800	0.823989
C238	C	1.224569	0.656800	1.323989
C239	C	0.656026	0.147691	0.804766
C240	C	1.156026	0.647691	1.304766
C241	C	0.608152	0.186445	0.844361
C242	C	1.108152	0.686445	1.344361
H243	H	0.731789	0.194819	0.811019
H244	H	1.231789	0.694819	1.311019
H245	H	0.731362	0.151239	0.876866
H246	H	1.231362	0.651239	1.376866
H247	H	0.649235	0.153256	0.751901
H248	H	1.149235	0.653256	1.251901
H249	H	0.648784	0.109679	0.817738
H250	H	1.148784	0.609679	1.317738
H251	H	0.614945	0.180885	0.897238
H252	H	1.114945	0.680885	1.397238
H253	H	0.615378	0.224462	0.831388
H254	H	1.115378	0.724462	1.331388
H255	H	0.561640	0.180266	0.831329
H256	H	1.061640	0.680266	1.331329
C257	C	0.694506	-0.198237	-0.000227
C258	C	1.194506	0.301763	0.499773
C259	C	0.639332	-0.153433	-0.000227
C260	C	1.139332	0.346567	0.499773
C261	C	0.575153	-0.176071	-0.000273
C262	C	1.075153	0.323929	0.499727
H263	H	0.691408	-0.221125	0.043658
H264	H	1.191408	0.278875	0.543658
H265	H	0.691491	-0.221092	-0.044154
H266	H	1.191491	0.278908	0.455846
H267	H	0.642345	-0.130589	0.043695
H268	H	1.142345	0.369411	0.543695
H269	H	0.642407	-0.130542	-0.044109
H270	H	1.142407	0.369458	0.455891
H271	H	0.572138	-0.198925	-0.044200
H272	H	1.072138	0.301075	0.455800
H273	H	0.572062	-0.198958	0.043613
H274	H	1.072062	0.301042	0.543613
H275	H	0.537710	-0.145675	-0.000280
H276	H	1.037710	0.354325	0.499720
H277	H	0.737584	0.146310	0.186324
H278	H	1.237584	0.646310	0.686324
C279	C	0.688396	-0.620913	-0.000370
C280	C	1.188396	-0.120913	0.499630
C281	C	0.685170	-0.586405	-0.065148
C282	C	1.185170	-0.086405	0.434852
C283	C	0.621962	-0.549739	-0.065303
C284	C	1.121962	-0.049739	0.434697
H285	H	0.686014	-0.597404	0.043483
H286	H	1.186014	-0.097404	0.543483
H287	H	0.650087	-0.642961	-0.000400
H288	H	1.150087	-0.142961	0.499600
H289	H	0.723468	-0.564358	-0.065111
H290	H	1.223468	-0.064358	0.434889
H291	H	0.687540	-0.609897	-0.109012
H292	H	1.187540	-0.109897	0.390988
H293	H	0.583652	-0.571788	-0.065333
H294	H	1.083652	-0.071788	0.434667
H295	H	0.619585	-0.526235	-0.021447
H296	H	1.119585	-0.026235	0.478553
H297	H	0.619761	-0.526325	-0.109257
H298	H	1.119761	-0.026325	0.390743
H299	H	0.713561	-0.084394	-0.000177
H300	H	1.213561	0.415606	0.499823
H301	H	0.737605	0.146312	0.330096
H302	H	1.237605	0.646312	0.830096
C303	C	0.923840	-0.005155	0.175650
C304	C	1.423840	0.494845	0.675650
C305	C	0.965647	-0.039160	0.227302
C306	C	1.465647	0.460840	0.727302
C307	C	1.013428	-0.078063	0.187816
C308	C	1.513428	0.421937	0.687816
H309	H	0.952824	0.015205	0.144708
H310	H	1.452824	0.515205	0.644708
H311	H	0.898906	-0.028846	0.144776
H312	H	1.398906	0.471154	0.644776
H313	H	0.990579	-0.015472	0.258163
H314	H	1.490579	0.484528	0.758163
H315	H	0.936683	-0.059533	0.258245
H316	H	1.436683	0.440467	0.758245
H317	H	0.988494	-0.101753	0.156942
H318	H	1.488494	0.398247	0.656942
H319	H	1.042407	-0.057698	0.156876
H320	H	1.542407	0.442302	0.656876
H321	H	1.041795	-0.101143	0.222856
H322	H	1.541795	0.398857	0.722856
H323	H	0.628050	-0.014822	-0.000150
H324	H	1.128050	0.485178	0.499850
H325	H	0.910892	0.005455	0.669457
H326	H	1.410892	0.505455	1.169457
C327	C	0.923746	-0.005058	0.340937
C328	C	1.423746	0.494942	0.840937
C329	C	0.913521	0.003246	0.418820
C330	C	1.413521	0.503246	0.918820
C331	C	0.961194	-0.035546	0.458588
C332	C	1.461194	0.464454	0.958588
H333	H	0.970327	0.001000	0.328013
H334	H	1.470327	0.501000	0.828013
H335	H	0.916430	-0.043068	0.328014
H336	H	1.416430	0.456932	0.828014
H337	H	0.920843	0.041247	0.431738
H338	H	1.420843	0.541247	0.931738
H339	H	0.866950	-0.002817	0.431766
H340	H	1.366950	0.497183	0.931766
H341	H	0.953878	-0.073555	0.445665
H342	H	1.453878	0.426445	0.945665
H343	H	1.007772	-0.029484	0.445658
H344	H	1.507772	0.470516	0.945658
H345	H	0.954258	-0.029920	0.511436
H346	H	1.454258	0.470080	1.011436
C347	C	0.923937	-0.005107	0.823841
C348	C	1.423937	0.494893	1.323841
C349	C	0.965765	-0.039091	0.772167
C350	C	1.465765	0.460909	1.272167
C351	C	1.013615	-0.077940	0.811627
C352	C	1.513615	0.422060	1.311627
H353	H	0.899078	-0.028822	0.854778
H354	H	1.399078	0.471178	1.354778
H355	H	0.952893	0.015312	0.854717
H356	H	1.452893	0.515312	1.354717
H357	H	0.936813	-0.059509	0.741304
H358	H	1.436813	0.440491	1.241304
H359	H	0.990640	-0.015392	0.741228
H360	H	1.490640	0.484608	1.241228
H361	H	1.042571	-0.057521	0.842503
H362	H	1.542571	0.442479	1.342503
H363	H	0.988750	-0.101651	0.842563
H364	H	1.488750	0.398349	1.342563
H365	H	1.042005	-0.101000	0.776572
H366	H	1.542005	0.399000	1.276572
C367	C	0.724754	0.156954	0.658793
C368	C	1.224754	0.656954	1.158793
C369	C	0.735701	0.212896	0.678033
C370	C	1.235701	0.712896	1.178033
C371	C	0.688036	0.251826	0.638466
C372	C	1.188036	0.751826	1.138466
H373	H	0.678171	0.150941	0.671775
H374	H	1.178171	0.650941	1.171775
H375	H	0.731588	0.151433	0.605912
H376	H	1.231588	0.651433	1.105912
H377	H	0.728861	0.218414	0.730902
H378	H	1.228861	0.718414	1.230902
H379	H	0.782274	0.218927	0.665049
H380	H	1.282274	0.718927	1.165049
H381	H	0.694871	0.246305	0.585586
H382	H	1.194871	0.746305	1.085586
H383	H	0.641457	0.245808	0.651451
H384	H	1.141457	0.745808	1.151451
H385	H	0.695461	0.289786	0.651510
H386	H	1.195461	0.789786	1.151510
H387	H	0.596537	0.173516	-0.000201
H388	H	1.096537	0.673516	0.499799
H389	H	0.464433	0.171927	-0.000215
H390	H	0.964433	0.671927	0.499785
H391	H	0.152543	0.168178	-0.000274
H392	H	0.652543	0.668178	0.499726
H393	H	0.944533	-0.109581	-0.000227
H394	H	1.444533	0.390419	0.499773
C395	C	0.044558	-0.036015	-0.000233
C396	C	0.544558	0.463985	0.499767
C397	C	0.099636	-0.080898	-0.000198
C398	C	0.599636	0.419102	0.499802
C399	C	0.072060	-0.133310	-0.000151
C400	C	0.572060	0.366690	0.499849
H401	H	0.016546	-0.038595	-0.044129
H402	H	0.516546	0.461405	0.455871
H403	H	0.016510	-0.038546	0.043683
H404	H	0.516510	0.461454	0.543683
H405	H	0.127672	-0.078367	-0.044110
H406	H	0.627672	0.421633	0.455890
H407	H	0.127653	-0.078336	0.043694
H408	H	0.627653	0.421664	0.543694
H409	H	0.044012	-0.135841	0.043765
H410	H	0.544012	0.364159	0.543765
H411	H	0.044047	-0.135884	-0.044048
H412	H	0.544047	0.364116	0.455952
H413	H	0.109425	-0.163769	-0.000121
H414	H	0.609425	0.336231	0.499879
H415	H	0.934929	-0.763836	-0.000281
H416	H	1.434929	-0.263836	0.499719
H417	H	0.936518	-0.656067	-0.000272
H418	H	1.436518	-0.156067	0.499728
