data_functionalizedCrystal
_audit_creation_method	'MofGen! by Chris Wilmer'
_symmetry_space_group_name_H-M	'P1'
_symmetry_Int_Tables_number	1
_symmetry_cell_setting	triclinic
loop_
_symmetry_equiv_pos_as_xyz
  x,y,z
_cell_length_a	19.188931
_cell_length_b	16.109301
_cell_length_c	14.586319
_cell_angle_alpha	90.005214
_cell_angle_beta	89.998028
_cell_angle_gamma	96.696869
loop_
_atom_site_label
_atom_site_type_symbol
_atom_site_fract_x
_atom_site_fract_y
_atom_site_fract_z
O1	O	0.926386	-0.103796	-0.076210
O2	O	0.723108	-0.117769	-0.076220
O3	O	0.830331	0.010267	-0.076205
O4	O	0.819163	-0.231832	-0.076225
O5	O	0.830324	0.010268	0.076275
O6	O	0.723100	-0.117767	0.076261
O7	O	0.926379	-0.103795	0.076271
Cu8	Cu	0.824739	-0.110781	0.090189
Cu9	Cu	0.824748	-0.110783	-0.090138
O10	O	0.819155	-0.231830	0.076256
C11	C	0.829875	0.041241	0.000035
C12	C	0.828519	0.133532	0.000037
C13	C	0.697092	-0.117316	0.000020
C14	C	0.619584	-0.115958	0.000016
C15	C	0.952395	-0.104248	0.000029
C16	C	1.029902	-0.105606	0.000027
C17	C	1.074651	-0.030479	0.000025
C18	C	1.147478	-0.031755	0.000030
C19	C	1.175553	-0.108163	0.000019
C20	C	1.130795	-0.183300	0.000026
C21	C	1.057969	-0.182022	0.000030
N22	N	1.283686	-0.166568	-0.051893
N23	N	1.352868	-0.167777	-0.051899
C24	C	1.394970	-0.112019	0.000010
N25	N	1.365279	-0.054993	0.051912
N26	N	1.296092	-0.053781	0.051913
C27	C	1.254519	-0.109557	0.000015
C28	C	1.518686	-0.038270	0.000015
C29	C	1.591514	-0.039549	0.000026
C30	C	1.574830	-0.191096	0.000013
C31	C	1.502003	-0.189815	0.000011
C32	C	1.473936	-0.113399	0.000007
C33	C	0.819612	-0.262805	0.000013
C34	C	0.820968	-0.355096	0.000006
N35	N	0.824738	-0.110779	0.217020
C36	C	0.888989	0.356005	0.000025
C37	C	0.887710	0.442721	0.000017
C38	C	0.760492	0.422425	0.000015
C39	C	0.761773	0.335710	0.000016
C40	C	0.826024	0.302503	0.000026
C41	C	0.823463	0.475933	0.000017
C42	C	0.822075	0.569955	0.000009
C43	C	0.827412	0.208475	0.000032
N44	N	0.824754	-0.110778	-0.216969
C45	C	0.872232	-0.054103	0.452033
C46	C	0.872234	-0.054101	0.548014
C47	C	0.777255	-0.167457	0.548011
C48	C	0.777250	-0.167454	0.452032
C49	C	0.824743	-0.110778	0.404045
C50	C	0.824750	-0.110779	0.596006
C51	C	0.824751	-0.110777	0.700073
C52	C	0.824740	-0.110779	0.299971
H53	H	1.051804	0.031744	0.000025
H54	H	1.021534	-0.243201	0.000032
N55	N	0.691198	0.458245	0.000023
H56	H	0.651503	0.411191	0.000023
H57	H	0.687894	0.493779	-0.056501
H58	H	0.941306	0.328970	0.000031
N59	N	1.453736	-0.270847	-0.000008
H60	H	1.403342	-0.258444	-0.000005
H61	H	1.462821	-0.304161	0.056513
H62	H	0.910903	-0.007950	0.587084
H63	H	1.495833	0.023952	0.000016
N64	N	0.923452	0.007023	0.400274
H65	H	0.953536	0.042928	0.445242
H66	H	0.896731	0.043700	0.360459
H67	H	0.938983	0.486279	0.000015
H68	H	0.710495	0.292146	0.000014
N69	N	1.639783	0.041485	0.000038
H70	H	1.610949	0.090084	0.000037
H71	H	1.670367	0.044254	-0.056485
N72	N	0.726037	-0.228582	0.599776
H73	H	0.752711	-0.265316	0.639587
H74	H	0.695961	-0.264428	0.554754
N75	N	1.195754	0.049277	0.000029
H76	H	1.166923	0.097879	0.000029
H77	H	1.226331	0.052039	-0.056500
N78	N	1.161070	-0.265712	0.000019
H79	H	1.213995	-0.255123	0.000013
H80	H	1.144696	-0.298579	-0.056508
N81	N	1.605099	-0.273510	0.000011
H82	H	1.658025	-0.262921	0.000011
H83	H	1.588729	-0.306377	-0.056517
H84	H	0.738575	-0.213606	0.412957
