data_functionalizedCrystal
_audit_creation_method	'MofGen! by Chris Wilmer'
_symmetry_space_group_name_H-M	'P1'
_symmetry_Int_Tables_number	1
_symmetry_cell_setting	triclinic
loop_
_symmetry_equiv_pos_as_xyz
  x,y,z
_cell_length_a	15.995350
_cell_length_b	17.038272
_cell_length_c	14.472310
_cell_angle_alpha	89.999298
_cell_angle_beta	89.990621
_cell_angle_gamma	87.301966
loop_
_atom_site_label
_atom_site_type_symbol
_atom_site_fract_x
_atom_site_fract_y
_atom_site_fract_z
O1	O	1.118175	0.100774	-0.076763
O2	O	0.875286	0.113219	-0.076782
O3	O	0.995287	-0.006819	-0.076766
O4	O	0.998174	0.220812	-0.076780
O5	O	0.995254	-0.006812	0.076916
O6	O	0.875253	0.113226	0.076900
O7	O	1.118142	0.100781	0.076919
Cu8	Cu	0.996695	0.107004	0.090942
Cu9	Cu	0.996733	0.106996	-0.090805
O10	O	0.998141	0.220819	0.076902
C11	C	0.844038	0.112708	0.000056
C12	C	0.750978	0.111165	0.000049
C13	C	0.412836	0.105626	0.000069
C14	C	0.454180	0.020137	0.000417
C15	C	0.550981	0.021680	0.000064
C16	C	0.580592	0.108374	0.000060
C17	C	0.542527	0.150536	-0.087699
C18	C	0.445739	0.148388	-0.087766
C19	C	0.445488	0.150162	0.086999
C20	C	0.542432	0.150142	0.088152
C21	C	0.675401	0.109931	0.000051
C22	C	0.318027	0.104071	0.000071
C23	C	0.992645	-0.035945	0.000075
C24	C	0.984810	-0.122740	0.000074
C25	C	1.056739	-0.172836	0.000081
C26	C	1.049373	-0.254389	0.000072
C27	C	0.970077	-0.285843	0.000062
C28	C	0.898143	-0.235740	0.000053
C29	C	0.905510	-0.154189	0.000056
C30	C	0.944051	-0.531607	0.000047
C31	C	0.936689	-0.613164	0.000048
C32	C	1.087920	-0.631807	0.000065
C33	C	1.095280	-0.550254	0.000073
C34	C	1.023346	-0.500158	0.000059
C35	C	0.962546	-0.369202	0.000056
C36	C	1.030878	-0.416801	0.000059
C37	C	1.149390	0.101292	0.000078
C38	C	1.242450	0.102834	0.000079
C39	C	1.000784	0.249944	0.000059
C40	C	1.008618	0.336739	0.000054
N41	N	0.996674	0.107009	0.218773
N42	N	0.996761	0.106984	-0.218636
C43	C	0.996732	0.106993	0.592864
C44	C	0.932276	0.171007	0.553689
C45	C	0.932452	0.171241	0.446601
C46	C	0.996702	0.107001	0.407273
C47	C	1.085336	0.124819	0.446115
C48	C	1.084981	0.125274	0.553237
C49	C	0.973320	0.024970	0.553397
C50	C	0.971356	0.025517	0.446269
C51	C	0.996691	0.107004	0.302385
C52	C	0.996749	0.106991	0.697752
H53	H	0.567542	0.119364	0.153076
Cl54	Cl	0.875197	-0.001468	0.595148
H55	H	0.561190	0.214227	-0.090966
Cl56	Cl	1.139802	-0.317364	0.000083
Cl57	Cl	0.862863	-0.408752	0.000039
H58	H	1.146484	-0.672604	0.000074
Cl59	Cl	0.403384	0.247476	0.087912
Cl60	Cl	0.830533	0.154877	0.593474
Cl61	Cl	0.956024	0.264458	0.595209
H62	H	0.576475	-0.011692	-0.062951
H63	H	0.866756	0.160625	0.420341
Cl64	Cl	1.161535	0.054749	0.406787
Cl65	Cl	0.410694	0.107014	0.189700
Cl66	Cl	1.115461	0.217629	0.591798
H67	H	1.095440	-0.391187	0.000046
H68	H	0.846938	-0.113400	0.000050
H69	H	1.014806	-0.024352	0.419501
H70	H	1.134751	0.080487	0.579149
Cl71	Cl	0.402849	0.245288	-0.093922
H72	H	0.872114	-0.638770	0.000055
H73	H	1.105401	0.183955	0.419276
H74	H	0.948007	0.232108	0.420964
H75	H	0.885477	-0.490828	0.000036
Cl76	Cl	0.573098	0.247754	0.096330
H77	H	0.568829	0.121246	-0.153008
H78	H	0.906126	0.011995	0.420882
H79	H	0.833579	-0.261356	0.000039
H80	H	0.433211	-0.014032	0.063353
Cl81	Cl	0.591211	-0.029491	0.097190
Cl82	Cl	0.420205	-0.032390	-0.096202
H83	H	1.020257	-0.022668	0.578729
H84	H	1.121310	-0.147233	0.000094
H85	H	1.159850	-0.524651	0.000081
Cl86	Cl	0.414108	0.100908	-0.189044
