data_functionalizedCrystal
_audit_creation_method	'MofGen! by Chris Wilmer'
_symmetry_space_group_name_H-M	'P1'
_symmetry_Int_Tables_number	1
_symmetry_cell_setting	triclinic
loop_
_symmetry_equiv_pos_as_xyz
  x,y,z
_cell_length_a	12.759401
_cell_length_b	12.759399
_cell_length_c	12.759393
_cell_angle_alpha	89.969094
_cell_angle_beta	89.979062
_cell_angle_gamma	90.016641
loop_
_atom_site_label
_atom_site_type_symbol
_atom_site_fract_x
_atom_site_fract_y
_atom_site_fract_z
Zn1	Zn	1.606263	-0.418173	-0.594017
Zn2	Zn	1.606153	-0.593888	-0.418336
Zn3	Zn	1.430562	-0.418229	-0.418352
Zn4	Zn	1.430553	-0.593815	-0.593973
O5	O	1.518383	-0.506026	-0.506170
O6	O	1.753270	-0.441489	-0.570724
O7	O	1.582818	-0.570641	-0.271317
O8	O	1.453919	-0.271200	-0.441680
O9	O	1.753189	-0.570587	-0.441652
O10	O	1.583006	-0.271159	-0.570740
O11	O	1.453812	-0.441584	-0.271329
O12	O	1.283540	-0.441513	-0.441637
O13	O	1.453903	-0.570461	-0.741000
O14	O	1.283533	-0.570516	-0.570665
O15	O	1.582997	-0.441418	-0.741032
O16	O	1.582809	-0.740900	-0.441609
O17	O	1.453796	-0.740846	-0.570649
C18	C	1.245415	-0.506013	-0.506149
C19	C	1.128639	-0.506033	-0.506165
C20	C	1.518318	-0.778994	-0.506146
C21	C	1.518387	-0.895770	-0.506171
C22	C	1.073801	-0.573307	-0.573244
C23	C	0.964077	-0.573311	-0.573265
C24	C	0.964038	-0.438764	-0.439118
C25	C	1.073760	-0.438756	-0.439104
C26	C	1.585641	-0.950625	-0.439056
C27	C	1.585708	-1.060349	-0.439091
C28	C	1.451259	-1.060353	-0.573359
C29	C	1.451198	-0.950631	-0.573328
C30	C	1.709717	-1.210225	-0.401704
C31	C	1.776961	-1.265084	-0.334573
C32	C	1.793124	-1.229543	-0.232062
C33	C	1.742027	-1.139145	-0.196662
C34	C	1.674775	-1.084292	-0.263788
C35	C	1.658632	-1.119831	-0.366313
C36	C	1.327188	-0.800754	-0.610705
C37	C	1.259930	-0.745899	-0.677826
C38	C	1.243756	-0.781437	-0.780338
C39	C	1.294835	-0.871838	-0.815734
C40	C	1.362093	-0.926694	-0.748613
C41	C	1.378268	-0.891147	-0.646102
C42	C	1.792416	-0.506040	-0.506191
C43	C	1.909193	-0.506046	-0.506200
C44	C	1.518461	-0.505925	-0.780203
C45	C	1.518495	-0.505882	-0.896980
C46	C	1.518476	-0.231993	-0.506217
C47	C	1.518516	-0.115216	-0.506237
C48	C	1.585719	-0.438679	-0.951860
C49	C	1.585737	-0.438633	-1.061584
C50	C	1.451303	-0.573004	-1.061538
C51	C	1.451281	-0.573044	-0.951816
C52	C	1.518365	-0.506051	-0.233202
C53	C	1.518535	-0.505798	-0.116426
H54	H	1.118479	-0.628086	-0.627852
O55	O	0.904995	-0.645930	-0.645610
H56	H	0.855039	-0.599039	-0.699205
H57	H	1.188985	-0.736765	-0.834986
H58	H	1.696573	-1.239164	-0.485179
O59	O	1.619689	-0.986775	-0.225643
H60	H	1.533613	-0.998361	-0.230557
H61	H	1.640446	-0.383989	-0.907216
H62	H	1.640476	-0.383908	-1.106263
H63	H	1.640352	-0.905960	-0.384374
O64	O	1.204890	-0.648367	-0.639637
H65	H	1.228040	-0.580772	-0.689313
H66	H	1.340359	-0.771804	-0.527233
H67	H	0.919343	-0.383991	-0.384518
H68	H	1.118411	-0.383967	-0.384480
H69	H	1.755184	-1.110222	-0.113184
O70	O	1.378811	-0.645443	-1.120681
H71	H	1.390125	-0.634133	-1.206198
O72	O	1.378777	-1.119533	-0.645768
H73	H	1.425792	-1.169453	-0.699270
H74	H	1.403688	-1.000300	-0.777443
O75	O	1.378742	-0.645500	-0.892611
H76	H	1.332007	-0.692195	-0.949173
O77	O	1.865665	-1.288696	-0.159658
H78	H	1.898485	-1.357517	-0.201496
H79	H	1.818565	-1.338685	-0.363405
O80	O	1.277403	-0.910178	-0.926303
H81	H	1.222064	-0.856841	-0.967034
