data_functionalizedCrystal
_audit_creation_method	'MofGen! by Chris Wilmer'
_symmetry_space_group_name_H-M	'P1'
_symmetry_Int_Tables_number	1
_symmetry_cell_setting	triclinic
loop_
_symmetry_equiv_pos_as_xyz
  x,y,z
_cell_length_a	21.295420
_cell_length_b	21.295417
_cell_length_c	21.295411
_cell_angle_alpha	89.978356
_cell_angle_beta	90.024693
_cell_angle_gamma	89.971243
loop_
_atom_site_label
_atom_site_type_symbol
_atom_site_fract_x
_atom_site_fract_y
_atom_site_fract_z
Zn1	Zn	0.962355	0.250710	0.355914
Zn2	Zn	1.295689	0.584044	0.689247
Zn3	Zn	1.629022	0.917377	1.022580
Zn4	Zn	0.962258	0.355962	0.250639
Zn5	Zn	1.295591	0.689295	0.583972
Zn6	Zn	1.628924	1.022629	0.917306
Zn7	Zn	0.857079	0.250708	0.250658
Zn8	Zn	1.190412	0.584041	0.583992
Zn9	Zn	1.523745	0.917374	0.917325
Zn10	Zn	0.857048	0.355942	0.355870
Zn11	Zn	1.190381	0.689276	0.689204
Zn12	Zn	1.523715	1.022609	1.022537
O13	O	0.909685	0.303331	0.303270
O14	O	1.243018	0.636664	0.636604
O15	O	1.576352	0.969997	0.969937
O16	O	1.050432	0.264682	0.341959
O17	O	1.383765	0.598015	0.675292
O18	O	1.717098	0.931348	1.008625
O19	O	0.948277	0.342007	0.162552
O20	O	1.281611	0.675340	0.495886
O21	O	1.614944	1.008674	0.829219
O22	O	0.871097	0.162619	0.264647
O23	O	1.204431	0.495952	0.597980
O24	O	1.537764	0.829285	0.931314
O25	O	1.050360	0.342010	0.264614
O26	O	1.383693	0.675343	0.597947
O27	O	1.717027	1.008676	0.931281
O28	O	0.948444	0.162621	0.341977
O29	O	1.281777	0.495954	0.675311
O30	O	1.615110	0.829287	1.008644
O31	O	0.871003	0.264677	0.162566
O32	O	1.204336	0.598010	0.495900
O33	O	1.537669	0.931344	0.829233
O34	O	0.768985	0.264658	0.264605
O35	O	1.102318	0.597991	0.597938
O36	O	1.435652	0.931324	0.931272
O37	O	0.871045	0.341976	0.443966
O38	O	1.204379	0.675309	0.777299
O39	O	1.537712	1.008643	1.110632
O40	O	0.768963	0.341973	0.341904
O41	O	1.102296	0.675307	0.675237
O42	O	1.435629	1.008640	1.008571
O43	O	0.948414	0.264662	0.443997
O44	O	1.281747	0.597996	0.777331
O45	O	1.615081	0.931329	1.110664
O46	O	0.948248	0.444049	0.264572
O47	O	1.281581	0.777382	0.597905
O48	O	1.614914	1.110716	0.931239
O49	O	0.870951	0.444034	0.341885
O50	O	1.204284	0.777368	0.675218
O51	O	1.537617	1.110701	1.008552
C52	C	0.746133	0.303314	0.303252
C53	C	1.079467	0.636647	0.636586
C54	C	1.412800	0.969980	0.969919
C55	C	0.676165	0.303321	0.303260
C56	C	1.009499	0.636655	0.636593
C57	C	1.342832	0.969988	0.969926
C58	C	0.176712	0.343663	0.343481
C59	C	0.510045	0.676996	0.676814
C60	C	0.843379	1.010330	1.010148
C61	C	0.242454	0.343663	0.343474
C62	C	0.575788	0.676996	0.676808
C63	C	0.909121	1.010330	1.010141
C64	C	0.275326	0.303345	0.303290
C65	C	0.608659	0.636678	0.636623
C66	C	0.941992	0.970012	0.969957
C67	C	0.242449	0.263035	0.263098
C68	C	0.575782	0.596368	0.596432
C69	C	0.909116	0.929701	0.929765
C70	C	0.176708	0.263040	0.263102
C71	C	0.510041	0.596374	0.596435
C72	C	0.843374	0.929707	0.929768
N73	N	0.378566	0.248227	0.298558
N74	N	0.711900	0.581561	0.631891
N75	N	1.045233	0.914894	0.965224
N76	N	0.441018	0.248224	0.298558
N77	N	0.774351	0.581557	0.631891
N78	N	1.107685	0.914891	0.965225
C79	C	0.473400	0.303327	0.303277
C80	C	0.806734	0.636660	0.636610
C81	C	1.140067	0.969994	0.969943
N82	N	0.440972	0.358435	0.308007
N83	N	0.774306	0.691768	0.641341
N84	N	1.107639	1.025102	0.974674
N85	N	0.378515	0.358438	0.308010
N86	N	0.711848	0.691771	0.641343
N87	N	1.045182	1.025104	0.974677
C88	C	0.346611	0.303335	0.303282
C89	C	0.679944	0.636668	0.636615
C90	C	1.013278	0.970001	0.969948
C91	C	0.577555	0.343638	0.343456
C92	C	0.910888	0.676971	0.676789
C93	C	1.244221	1.010305	1.010122
C94	C	0.643298	0.343639	0.343445
C95	C	0.976632	0.676973	0.676778
C96	C	1.309965	1.010306	1.010111
C97	C	0.643292	0.263005	0.263072
C98	C	0.976625	0.596339	0.596405
C99	C	1.309958	0.929672	0.929739
C100	C	0.577549	0.263010	0.263080
C101	C	0.910883	0.596343	0.596413
C102	C	1.244216	0.929676	0.929747
C103	C	0.544685	0.303325	0.303275
C104	C	0.878018	0.636659	0.636608
C105	C	1.211351	0.969992	0.969942
C106	C	0.909602	0.466882	0.303236
C107	C	1.242936	0.800216	0.636569
C108	C	1.576269	1.133549	0.969902
C109	C	0.909625	0.536850	0.303242
C110	C	1.242958	0.870184	0.636575
C111	C	1.576291	1.203517	0.969908
C112	C	0.909737	0.303317	0.467461
C113	C	1.243070	0.636651	0.800794
C114	C	1.576404	0.969984	1.134127
C115	C	0.909759	0.303312	0.537429
C116	C	1.243093	0.636645	0.870762
C117	C	1.576426	0.969978	1.204096
C118	C	1.073875	0.303348	0.303289
C119	C	1.407208	0.636681	0.636622
C120	C	1.740542	0.970015	0.969956
C121	C	1.143843	0.303356	0.303297
C122	C	1.477177	0.636689	0.636630
C123	C	1.810510	0.970022	0.969963
C124	C	0.909785	0.139140	0.303319
C125	C	1.243118	0.472474	0.636652
C126	C	1.576452	0.805807	0.969986
C127	C	0.909827	0.069172	0.303340
C128	C	1.243161	0.402506	0.636673
C129	C	1.576494	0.735839	0.970007
C130	C	0.949909	0.569704	0.263026
C131	C	1.283242	0.903037	0.596359
C132	C	1.616576	1.236370	0.929693
C133	C	0.949939	0.635446	0.263040
C134	C	1.283272	0.968779	0.596373
C135	C	1.616605	1.302113	0.929707
C136	C	0.909672	0.668333	0.303263
C137	C	1.243006	1.001666	0.636597
C138	C	1.576339	1.334999	0.969930
C139	C	0.869385	0.635472	0.343487
C140	C	1.202719	0.968805	0.676820
C141	C	1.536052	1.302138	1.010154
C142	C	0.869361	0.569730	0.343476
C143	C	1.202695	0.903064	0.676809
C144	C	1.536028	1.236397	1.010143
N145	N	0.854605	0.771598	0.308056
N146	N	1.187939	1.104931	0.641390
N147	N	1.521272	1.438264	0.974723
N148	N	0.854630	0.834049	0.308063
N149	N	1.187963	1.167383	0.641396
N150	N	1.521297	1.500716	0.974730
C151	C	0.909743	0.866407	0.303299
C152	C	1.243076	1.199741	0.636633
C153	C	1.576410	1.533074	0.969966
N154	N	0.964832	0.833955	0.298517
N155	N	1.298165	1.167288	0.631850
N156	N	1.631498	1.500622	0.965184
N157	N	0.964807	0.771498	0.298507
N158	N	1.298140	1.104831	0.631840
N159	N	1.631473	1.438165	0.965174
C160	C	0.909694	0.739618	0.303280
C161	C	1.243027	1.072952	0.636613
C162	C	1.576361	1.406285	0.969947
C163	C	0.950063	0.970546	0.263097
C164	C	1.283396	1.303880	0.596430
C165	C	1.616729	1.637213	0.929764
C166	C	0.950093	1.036290	0.263116
C167	C	1.283427	1.369623	0.596449
C168	C	1.616760	1.702957	0.929782
C169	C	0.869534	1.036314	0.343559
C170	C	1.202868	1.369648	0.676892
C171	C	1.536201	1.702981	1.010226
C172	C	0.869509	0.970572	0.343544
C173	C	1.202843	1.303905	0.676877
C174	C	1.536176	1.637238	1.010210
C175	C	0.909773	0.937692	0.303309
C176	C	1.243106	1.271025	0.636643
C177	C	1.576439	1.604358	0.969976
C178	C	0.909669	0.303298	0.139719
C179	C	1.243002	0.636632	0.473052
C180	C	1.576336	0.969965	0.806385
C181	C	0.909769	0.303127	0.069751
C182	C	1.243102	0.636460	0.403084
C183	C	1.576435	0.969793	0.736418
C184	C	0.950044	0.263053	0.570313
C185	C	1.283377	0.596386	0.903646
C186	C	1.616710	0.929719	1.236980
C187	C	0.950043	0.263025	0.636056
C188	C	1.283376	0.596359	0.969389
C189	C	1.616709	0.929692	1.302722
C190	C	0.909764	0.303268	0.668911
C191	C	1.243098	0.636602	1.002245
C192	C	1.576431	0.969935	1.335578
C193	C	0.869472	0.343530	0.636019
C194	C	1.202806	0.676863	0.969353
C195	C	1.536139	1.010197	1.302686
C196	C	0.869470	0.343552	0.570278
C197	C	1.202803	0.676885	0.903611
C198	C	1.536136	1.010218	1.236945
N199	N	0.904908	0.358336	0.772127
N200	N	1.238241	0.691669	1.105460
N201	N	1.571574	1.025003	1.438793
N202	N	0.904914	0.358314	0.834578
N203	N	1.238247	0.691647	1.167912
N204	N	1.571580	1.024980	1.501245
C205	C	0.909768	0.303204	0.866986
C206	C	1.243102	0.636538	1.200320
C207	C	1.576435	0.969871	1.533653
N208	N	0.914629	0.248117	0.834584
N209	N	1.247962	0.581451	1.167917
N210	N	1.581296	0.914784	1.501250
N211	N	0.914626	0.248141	0.772126
N212	N	1.247960	0.581474	1.105460
N213	N	1.581293	0.914807	1.438793
C214	C	0.909762	0.303249	0.740197
C215	C	1.243095	0.636582	1.073530
C216	C	1.576429	0.969916	1.406864
C217	C	0.950054	0.262913	0.971156
C218	C	1.283387	0.596246	1.304489
C219	C	1.616720	0.929579	1.637823
C220	C	0.950048	0.262884	1.036900
C221	C	1.283382	0.596218	1.370233
C222	C	1.616715	0.929551	1.703566
C223	C	0.869481	0.343395	1.036862
C224	C	1.202815	0.676728	1.370196
C225	C	1.536148	1.010061	1.703529
C226	C	0.869483	0.343417	0.971120
C227	C	1.202816	0.676751	1.304453
C228	C	1.536150	1.010084	1.637786
C229	C	0.909773	0.303177	0.938271
C230	C	1.243106	0.636510	1.271604
C231	C	1.576439	0.969844	1.604937
H232	H	0.269221	0.376486	0.376199
H233	H	0.602555	0.709819	0.709532
H234	H	0.935888	1.043153	1.042866
C235	C	0.825090	0.671648	0.387730
C236	C	1.158423	1.004982	0.721064
C237	C	1.491757	1.338315	1.054397
N238	N	0.791726	0.698896	0.421056
N239	N	1.125059	1.032230	0.754390
N240	N	1.458393	1.365563	1.087723
H241	H	0.982695	0.542935	0.230266
H242	H	1.316029	0.876268	0.563600
H243	H	1.649362	1.209601	0.896933
H244	H	0.982745	0.662201	0.230292
H245	H	1.316079	0.995534	0.563625
H246	H	1.649412	1.328867	0.896959
H247	H	0.982902	1.063038	0.230368
H248	H	1.316235	1.396371	0.563702
H249	H	1.649568	1.729705	0.897035
C250	C	0.825163	0.387795	0.672162
C251	C	1.158496	0.721128	1.005495
C252	C	1.491830	1.054461	1.338829
N253	N	0.791785	0.421134	0.699385
N254	N	1.125119	0.754467	1.032718
N255	N	1.458452	1.087800	1.366051
H256	H	0.836556	0.542981	0.376225
H257	H	1.169890	0.876314	0.709559
H258	H	1.503223	1.209647	1.042892
C259	C	0.994366	0.218592	1.073072
C260	C	1.327699	0.551926	1.406406
C261	C	1.661032	0.885259	1.739739
N262	N	1.027747	0.185232	1.100318
N263	N	1.361080	0.518565	1.433651
N264	N	1.694413	0.851898	1.766984
C265	C	0.825169	0.387709	0.934946
C266	C	1.158503	0.721042	1.268279
C267	C	1.491836	1.054375	1.601612
N268	N	0.791788	0.421069	0.907700
N269	N	1.125122	0.754403	1.241033
N270	N	1.458455	1.087736	1.574366
H271	H	0.982850	0.943774	0.230338
H272	H	1.316183	1.277108	0.563671
H273	H	1.649516	1.610441	0.897004
C274	C	0.825242	1.072486	0.387806
C275	C	1.158575	1.405819	0.721140
C276	C	1.491909	1.739152	1.054473
N277	N	0.791881	1.099733	0.421136
N278	N	1.125214	1.433067	0.754469
N279	N	1.458547	1.766400	1.087803
C280	C	0.825205	0.934432	0.387798
C281	C	1.158539	1.267765	0.721131
C282	C	1.491872	1.601098	1.054464
N283	N	0.791841	0.907211	0.421139
N284	N	1.125174	1.240545	0.754472
N285	N	1.458508	1.573878	1.087806
C286	C	0.825175	0.387663	1.073000
C287	C	1.158508	0.720996	1.406333
C288	C	1.491841	1.054330	1.739667
N289	N	0.791801	0.421007	1.100222
N290	N	1.125135	0.754340	1.433555
N291	N	1.458468	1.087673	1.766889
H292	H	0.550787	0.230185	0.230360
H293	H	0.884121	0.563518	0.563693
H294	H	1.217454	0.896852	0.897026
H295	H	0.982850	0.230285	0.543571
H296	H	1.316183	0.563619	0.876905
H297	H	1.649517	0.896952	1.210238
C298	C	0.278609	0.218681	0.218900
C299	C	0.611942	0.552014	0.552233
C300	C	0.945275	0.885347	0.885566
N301	N	0.305844	0.185272	0.185608
N302	N	0.639177	0.518605	0.518941
N303	N	0.972511	0.851938	0.852274
C304	C	0.679446	0.218656	0.218867
C305	C	1.012780	0.551990	0.552200
C306	C	1.346113	0.885323	0.885534
N307	N	0.706681	0.185253	0.185570
N308	N	1.040014	0.518586	0.518903
N309	N	1.373348	0.851919	0.852236
H310	H	0.982846	0.230238	0.662835
H311	H	1.316179	0.563572	0.996168
H312	H	1.649512	0.896905	1.329502
H313	H	0.550795	0.376466	0.376184
H314	H	0.884128	0.709799	0.709518
H315	H	1.217462	1.043133	1.042851
H316	H	0.149958	0.376493	0.376209
H317	H	0.483291	0.709826	0.709542
H318	H	0.816624	1.043160	1.042875
C319	C	0.825153	0.387843	0.534104
C320	C	1.158487	0.721177	0.867438
C321	C	1.491820	1.054510	1.200771
N322	N	0.791775	0.421205	0.506857
N323	N	1.125108	0.754539	0.840191
N324	N	1.458441	1.087872	1.173524
H325	H	0.982856	0.230143	0.944409
H326	H	1.316190	0.563476	1.277742
H327	H	1.649523	0.896810	1.611075
C328	C	0.679454	0.387986	0.387650
C329	C	1.012787	0.721319	0.720983
C330	C	1.346121	1.054653	1.054316
N331	N	0.706687	0.421389	0.420946
N332	N	1.040020	0.754722	0.754279
N333	N	1.373353	1.088056	1.087612
H334	H	0.149946	0.230215	0.230379
H335	H	0.483280	0.563549	0.563712
H336	H	0.816613	0.896882	0.897045
