data_functionalizedCrystal
_audit_creation_method	'MofGen! by Chris Wilmer'
_symmetry_space_group_name_H-M	'P1'
_symmetry_Int_Tables_number	1
_symmetry_cell_setting	triclinic
loop_
_symmetry_equiv_pos_as_xyz
  x,y,z
_cell_length_a	21.295417
_cell_length_b	18.101398
_cell_length_c	18.101389
_cell_angle_alpha	90.008593
_cell_angle_beta	89.977434
_cell_angle_gamma	89.974687
loop_
_atom_site_label
_atom_site_type_symbol
_atom_site_fract_x
_atom_site_fract_y
_atom_site_fract_z
Zn1	Zn	-0.250763	-1.132124	-0.418506
Zn2	Zn	-0.356016	-1.132021	-0.294656
Zn3	Zn	-0.250755	-1.008283	-0.294702
Zn4	Zn	-0.355988	-1.008235	-0.418479
O5	O	-0.303380	-1.070166	-0.356586
O6	O	-0.264739	-1.235743	-0.402070
O7	O	-0.342061	-1.115584	-0.191029
O8	O	-0.162667	-1.024774	-0.311155
O9	O	-0.342069	-1.235668	-0.311078
O10	O	-0.162672	-1.115759	-0.402114
O11	O	-0.264727	-1.024674	-0.191063
O12	O	-0.264700	-0.904644	-0.311128
O13	O	-0.342021	-1.024692	-0.522115
O14	O	-0.342014	-0.904608	-0.402067
O15	O	-0.264712	-1.115713	-0.522136
O16	O	-0.444102	-1.115537	-0.311051
O17	O	-0.444081	-1.024592	-0.402022
C18	C	-0.303354	-0.877755	-0.356600
C19	C	-0.303357	-0.795441	-0.356624
C20	C	-0.303391	-0.496350	-0.356599
C21	C	-0.352270	-0.527678	-0.413531
C22	C	-0.352118	-0.613296	-0.413764
C23	C	-0.303375	-0.644733	-0.356611
C24	C	-0.237075	-0.613677	-0.377945
C25	C	-0.237367	-0.528032	-0.378352
C26	C	-0.320227	-0.527898	-0.278194
C27	C	-0.321683	-0.613548	-0.278611
C28	C	-0.303362	-0.728592	-0.356617
C29	C	-0.303400	-0.412491	-0.356595
C30	C	-0.466932	-1.070069	-0.356545
C31	C	-0.536900	-1.070095	-0.356552
C32	C	-0.569757	-1.117492	-0.309231
C33	C	-0.635499	-1.117527	-0.309248
C34	C	-0.668383	-1.070151	-0.356577
C35	C	-0.635518	-1.022750	-0.403907
C36	C	-0.569777	-1.022722	-0.403894
N37	N	-0.771644	-1.005367	-0.362228
N38	N	-0.834096	-1.005396	-0.362236
C39	C	-0.866457	-1.070234	-0.356620
N40	N	-0.834008	-1.135044	-0.350981
N41	N	-0.771551	-1.135014	-0.350970
C42	C	-0.739668	-1.070177	-0.356597
C43	C	-0.970599	-1.117673	-0.309315
C44	C	-1.036343	-1.117709	-0.309337
C45	C	-1.036361	-1.022926	-0.403992
C46	C	-0.970619	-1.022897	-0.403974
C47	C	-0.937742	-1.070269	-0.356632
C48	C	-0.139190	-1.070283	-0.356643
C49	C	-0.069222	-1.070333	-0.356667
C50	C	-0.303365	-1.070209	-0.549748
C51	C	-0.303358	-1.070227	-0.632062
C52	C	-0.303405	-0.263328	-0.356577
C53	C	-0.303408	-0.345642	-0.356586
C54	C	-0.303240	-1.070270	-0.931153
C55	C	-0.351726	-1.012805	-0.899815
C56	C	-0.351951	-1.012960	-0.814196
C57	C	-0.303298	-1.070248	-0.782770
C58	C	-0.321311	-1.148273	-0.813853
C59	C	-0.321629	-1.147953	-0.899498
C60	C	-0.236633	-1.050388	-0.899588
C61	C	-0.237018	-1.048652	-0.813938
C62	C	-0.303330	-1.070240	-0.698911
C63	C	-0.303209	-1.070283	-1.015012
C64	C	-0.303351	-1.070166	-0.164175
C65	C	-0.303180	-1.070291	-0.081861
H66	H	-0.340980	-0.633799	-0.471856
H67	H	-0.199644	-0.507310	-0.338786
H68	H	-0.223434	-0.991232	-0.793623
O69	O	-0.218453	-0.501581	-0.454273
H70	H	-0.209187	-0.549961	-0.490353
O71	O	-0.417243	-0.641116	-0.396056
H72	H	-0.450746	-0.620551	-0.438277
H73	H	-0.401596	-0.507063	-0.400310
O74	O	-0.187519	-0.640654	-0.324741
H75	H	-0.209672	-0.676570	-0.282429
H76	H	-0.542990	-1.156067	-0.270684
H77	H	-0.370470	-0.633852	-0.262521
H78	H	-0.367745	-0.506285	-0.258808
H79	H	-0.662296	-0.984178	-0.442444
H80	H	-0.341273	-0.506167	-0.471288
O81	O	-0.385123	-1.170985	-0.785441
H82	H	-0.380701	-1.223052	-0.753481
H83	H	-0.222535	-0.635142	-0.434639
H84	H	-0.943830	-1.156249	-0.270768
H85	H	-0.943865	-0.984298	-0.442504
O86	O	-0.277950	-0.641888	-0.219396
H87	H	-0.229173	-0.624511	-0.232229
H88	H	-0.284624	-0.507639	-0.235773
O89	O	-0.670950	-1.168643	-0.258202
H90	H	-0.637043	-1.201575	-0.225276
H91	H	-0.543025	-0.984125	-0.442429
O92	O	-1.071824	-0.971826	-0.455038
H93	H	-1.059174	-0.984491	-0.513168
H94	H	-0.340678	-0.955101	-0.793181
O95	O	-0.214892	-0.976331	-0.928194
H96	H	-0.207011	-0.938334	-0.880970
O97	O	-1.071786	-1.168831	-0.258295
H98	H	-1.037877	-1.201759	-0.225369
H99	H	-0.340569	-0.954772	-0.920418
H100	H	-0.400795	-1.025801	-0.921333
O101	O	-0.186620	-1.100049	-0.785615
H102	H	-0.208123	-1.141979	-0.748721
O103	O	-0.417364	-1.030252	-0.787044
H104	H	-0.448956	-1.038559	-0.835086
O105	O	-0.386126	-1.170274	-0.925960
H106	H	-0.386992	-1.170270	-0.987269
O107	O	-0.188776	-1.105821	-0.926435
H108	H	-0.212275	-1.147334	-0.962086
H109	H	-0.287848	-1.192220	-0.920229
O110	O	-0.276012	-1.206516	-0.786880
H111	H	-0.227825	-1.192551	-0.805621
