data_functionalizedCrystal
_audit_creation_method	'MofGen! by Chris Wilmer'
_symmetry_space_group_name_H-M	'P1'
_symmetry_Int_Tables_number	1
_symmetry_cell_setting	triclinic
loop_
_symmetry_equiv_pos_as_xyz
  x,y,z
_cell_length_a	14.519709
_cell_length_b	14.853567
_cell_length_c	13.596369
_cell_angle_alpha	89.996212
_cell_angle_beta	89.999340
_cell_angle_gamma	96.342463
loop_
_atom_site_label
_atom_site_type_symbol
_atom_site_fract_x
_atom_site_fract_y
_atom_site_fract_z
O1	O	1.223823	-0.118173	-0.081655
O2	O	1.723823	0.381827	0.418345
O3	O	0.955340	-0.132090	-0.081684
O4	O	1.455340	0.367910	0.418316
O5	O	1.096753	0.006096	-0.081672
O6	O	1.596753	0.506096	0.418328
O7	O	1.082410	-0.256358	-0.081667
O8	O	1.582410	0.243642	0.418333
O9	O	1.096734	0.006087	0.081911
O10	O	1.596734	0.506087	0.581911
O11	O	0.955322	-0.132099	0.081899
O12	O	1.455322	0.367901	0.581899
O13	O	1.223804	-0.118181	0.081928
O14	O	1.723804	0.381819	0.581928
Zn15	Zn	1.089560	-0.125141	0.107886
Zn16	Zn	1.589560	0.374859	0.607886
Zn17	Zn	1.089584	-0.125130	-0.107642
Zn18	Zn	1.589584	0.374870	0.392358
O19	O	1.082391	-0.256367	0.081916
O20	O	1.582391	0.243633	0.581916
C21	C	0.920971	-0.131446	0.000104
C22	C	1.420971	0.368554	0.500104
C23	C	0.818591	-0.129502	0.000092
C24	C	1.318591	0.370498	0.500092
N25	N	1.089550	-0.125149	0.254978
N26	N	1.589550	0.374851	0.754978
C27	C	1.096094	0.039680	0.000117
C28	C	1.596094	0.539680	0.500117
C29	C	1.094146	0.139765	0.000108
C30	C	1.594146	0.639765	0.500108
C31	C	0.443698	-0.122347	0.000137
C32	C	0.943698	0.377653	0.500137
C33	C	0.548005	-0.124334	0.000124
C34	C	1.048005	0.375666	0.500124
C35	C	0.631141	-0.125924	0.000114
C36	C	1.131141	0.374076	0.500114
C37	C	0.735455	-0.127912	0.000103
C38	C	1.235455	0.372088	0.500103
C39	C	1.258173	-0.118826	0.000138
C40	C	1.758173	0.381174	0.500138
C41	C	1.360553	-0.120769	0.000143
C42	C	1.860553	0.379231	0.500143
C43	C	1.083050	-0.289952	0.000125
C44	C	1.583050	0.210048	0.500125
C45	C	1.084998	-0.390036	0.000127
C46	C	1.584998	0.109964	0.500127
C47	C	1.001911	0.552334	0.000117
C48	C	1.501911	1.052334	0.500117
C49	C	1.169913	0.573550	0.000135
C50	C	1.669913	1.073550	0.500135
C51	C	1.171744	0.479516	0.000130
C52	C	1.671744	0.979516	0.500130
C53	C	1.088658	0.421886	0.000119
C54	C	1.588658	0.921886	0.500119
C55	C	1.003740	0.458291	0.000114
C56	C	1.503740	0.958291	0.500114
C57	C	1.256661	0.443104	0.000144
C58	C	1.756661	0.943104	0.500144
C59	C	1.258495	0.349064	0.000140
C60	C	1.758495	0.849064	0.500140
C61	C	1.175408	0.291432	0.000122
C62	C	1.675408	0.791432	0.500122
C63	C	1.090486	0.327843	0.000116
C64	C	1.590486	0.827843	0.500116
C65	C	1.007400	0.270213	0.000106
C66	C	1.507400	0.770213	0.500106
C67	C	0.922478	0.306621	0.000093
C68	C	1.422478	0.806621	0.500093
C69	C	0.920653	0.400660	0.000097
C70	C	1.420653	0.900660	0.500097
C71	C	1.177233	0.197394	0.000119
C72	C	1.677233	0.697394	0.500119
C73	C	1.009229	0.176170	0.000103
C74	C	1.509229	0.676170	0.500103
C75	C	1.089554	-0.125151	0.343976
C76	C	1.589554	0.374849	0.843976
C77	C	1.089562	-0.125146	0.455627
C78	C	1.589562	0.374854	0.955627
C79	C	1.089574	-0.125136	0.544618
C80	C	1.589574	0.374864	1.044618
C81	C	1.089584	-0.125132	0.656276
C82	C	1.589584	0.374868	1.156276
N83	N	1.089595	-0.125122	0.745267
N84	N	1.589595	0.374878	1.245267
H85	H	0.941568	0.129253	0.000091
H86	H	1.441568	0.629253	0.500091
H87	H	1.327644	0.319429	0.000149
H88	H	1.827644	0.819429	0.500149
N89	N	0.915161	0.589504	0.000123
N90	N	1.415161	1.089504	0.500123
N91	N	0.840987	0.538035	0.000123
N92	N	1.340987	1.038035	0.500123
H93	H	0.779718	0.564285	0.000131
H94	H	1.279718	1.064285	0.500131
N95	N	1.263975	0.160218	0.000147
N96	N	1.763975	0.660218	0.500147
N97	N	1.338152	0.211683	0.000170
N98	N	1.838152	0.711683	0.500170
H99	H	1.399419	0.185429	0.000191
H100	H	1.899419	0.685429	0.500191
N101	N	0.837618	0.247737	0.000095
N102	N	1.337618	0.747737	0.500095
N103	N	0.839272	0.163778	0.000104
N104	N	1.339272	0.663778	0.500104
H105	H	0.779342	0.122187	0.000107
H106	H	1.279342	0.622187	0.500107
H107	H	0.851513	0.430312	0.000087
H108	H	1.351513	0.930312	0.500087
N109	N	1.254771	0.632426	0.000157
N110	N	1.754771	1.132426	0.500157
N111	N	1.253125	0.716386	0.000166
N112	N	1.753125	1.216386	0.500166
H113	H	1.313059	0.757972	0.000180
H114	H	1.813059	1.257972	0.500180
N115	N	1.341517	0.501981	0.000163
N116	N	1.841517	1.001981	0.500163
N117	N	1.339868	0.585941	0.000160
N118	N	1.839868	1.085941	0.500160
H119	H	1.399801	0.627529	0.000172
H120	H	1.899801	1.127529	0.500172
