data_functionalizedCrystal
_audit_creation_method	'MofGen! by Chris Wilmer'
_symmetry_space_group_name_H-M	'P1'
_symmetry_Int_Tables_number	1
_symmetry_cell_setting	triclinic
loop_
_symmetry_equiv_pos_as_xyz
  x,y,z
_cell_length_a	14.853567
_cell_length_b	16.109301
_cell_length_c	14.586319
_cell_angle_alpha	90.001610
_cell_angle_beta	90.002887
_cell_angle_gamma	83.548206
loop_
_atom_site_label
_atom_site_type_symbol
_atom_site_fract_x
_atom_site_fract_y
_atom_site_fract_z
O1	O	-1.196188	-0.108542	-0.076180
O2	O	-0.862855	0.224792	0.257153
O3	O	-0.529521	0.558125	0.590487
O4	O	-0.933707	-0.121472	-0.076196
O5	O	-0.600374	0.211861	0.257137
O6	O	-0.267040	0.545194	0.590470
O7	O	-1.072158	0.006014	-0.076178
O8	O	-0.738825	0.339347	0.257155
O9	O	-0.405491	0.672680	0.590488
O10	O	-1.057737	-0.236028	-0.076198
O11	O	-0.724404	0.097305	0.257135
O12	O	-0.391070	0.430639	0.590469
O13	O	-1.072141	0.006006	0.076302
O14	O	-0.738808	0.339340	0.409636
O15	O	-0.405475	0.672673	0.742969
O16	O	-0.933690	-0.121480	0.076285
O17	O	-0.600357	0.211853	0.409618
O18	O	-0.267023	0.545187	0.742951
O19	O	-1.196171	-0.108549	0.076301
O20	O	-0.862838	0.224784	0.409634
O21	O	-0.529504	0.558117	0.742967
Cu22	Cu	-1.064929	-0.115015	0.090215
Cu23	Cu	-0.731596	0.218318	0.423549
Cu24	Cu	-0.398262	0.551651	0.756882
Cu25	Cu	-1.064949	-0.115006	-0.090111
Cu26	Cu	-0.731616	0.218327	0.243222
Cu27	Cu	-0.398282	0.551660	0.576556
O28	O	-1.057720	-0.236035	0.076283
O29	O	-0.724387	0.097298	0.409616
O30	O	-0.391053	0.430631	0.742950
C31	C	-0.900111	-0.120890	0.000042
C32	C	-0.566778	0.212443	0.333376
C33	C	-0.233444	0.545776	0.666709
C34	C	-0.800030	-0.119135	0.000036
C35	C	-0.466697	0.214199	0.333370
C36	C	-0.133363	0.547532	0.666703
C37	C	-1.071566	0.036986	0.000062
C38	C	-0.738232	0.370319	0.333396
C39	C	-0.404899	0.703652	0.666729
C40	C	-1.069814	0.129284	0.000064
C41	C	-0.736481	0.462617	0.333397
C42	C	-0.403147	0.795950	0.666730
C43	C	-1.229767	-0.109131	0.000060
C44	C	-0.896434	0.224202	0.333394
C45	C	-0.563101	0.557535	0.666727
C46	C	-1.329848	-0.110887	0.000060
C47	C	-0.996515	0.222446	0.333393
C48	C	-0.663181	0.555780	0.666727
C49	C	-0.387634	-0.035983	0.000064
C50	C	-0.054300	0.297350	0.333397
C51	C	0.279033	0.630683	0.666730
C52	C	-0.366102	-0.187440	0.000051
C53	C	-0.032769	0.145894	0.333384
C54	C	0.300564	0.479227	0.666717
C55	C	-0.460133	-0.189090	0.000047
C56	C	-0.126800	0.144243	0.333381
C57	C	0.206533	0.477576	0.666714
C58	C	-0.517919	-0.114187	0.000051
C59	C	-0.184586	0.219147	0.333384
C60	C	0.148748	0.552480	0.666718
C61	C	-0.481674	-0.037632	0.000058
C62	C	-0.148340	0.295702	0.333391
C63	C	0.184993	0.629035	0.666725
C64	C	-0.496386	-0.265644	0.000031
C65	C	-0.163053	0.067689	0.333365
C66	C	0.170281	0.401023	0.666698
C67	C	-0.590422	-0.267298	0.000027
C68	C	-0.257089	0.066035	0.333361
C69	C	0.076244	0.399369	0.666694
C70	C	-0.648210	-0.192393	0.000038
C71	C	-0.314876	0.140940	0.333371
C72	C	0.018457	0.474274	0.666704
C73	C	-0.611959	-0.115835	0.000045
C74	C	-0.278626	0.217498	0.333379
C75	C	0.054708	0.550832	0.666712
C76	C	-0.669745	-0.040931	0.000049
C77	C	-0.336411	0.292402	0.333382
C78	C	-0.003078	0.625736	0.666716
C79	C	-0.633496	0.035628	0.000063
C80	C	-0.300162	0.368961	0.333397
C81	C	0.033171	0.702294	0.666730
C82	C	-0.539461	0.037273	0.000068
C83	C	-0.206128	0.370606	0.333401
C84	C	0.127206	0.703940	0.666735
C85	C	-0.742245	-0.194038	0.000033
C86	C	-0.408911	0.139295	0.333366
C87	C	-0.075578	0.472628	0.666699
C88	C	-0.763785	-0.042580	0.000043
C89	C	-0.430451	0.290754	0.333377
C90	C	-0.097118	0.624087	0.666710
C91	C	-1.058313	-0.267007	0.000040
C92	C	-0.724979	0.066326	0.333373
C93	C	-0.391646	0.399659	0.666707
C94	C	-1.060064	-0.359305	0.000033
C95	C	-0.726731	-0.025972	0.333366
C96	C	-0.393397	0.307362	0.666699
N97	N	-1.064922	-0.115021	0.217047
N98	N	-0.731588	0.218312	0.550380
N99	N	-0.398255	0.551646	0.883714
C100	C	-1.147896	0.351446	0.000054
C101	C	-0.814563	0.684780	0.333387
C102	C	-0.481229	1.018113	0.666721
C103	C	-1.146243	0.438169	0.000046
C104	C	-0.812910	0.771502	0.333380
C105	C	-0.479577	1.104836	0.666713
C106	C	-0.981976	0.418525	0.000040
C107	C	-0.648643	0.751859	0.333373
C108	C	-0.315309	1.085192	0.666706
C109	C	-0.983629	0.331804	0.000041
C110	C	-0.650296	0.665138	0.333374
C111	C	-0.316963	0.998471	0.666708
C112	C	-1.066592	0.298267	0.000053
C113	C	-0.733259	0.631601	0.333386
C114	C	-0.399925	0.964934	0.666719
C115	C	-1.063286	0.471711	0.000044
C116	C	-0.729953	0.805044	0.333377
C117	C	-0.396619	1.138378	0.666711
C118	C	-1.061494	0.565740	0.000036
C119	C	-0.728160	0.899073	0.333369
C120	C	-0.394827	1.232406	0.666702
C121	C	-1.068385	0.204233	0.000059
C122	C	-0.735052	0.537566	0.333392
C123	C	-0.401718	0.870899	0.666726
N124	N	-1.064964	-0.114994	-0.216943
N125	N	-0.731630	0.218339	0.116391
N126	N	-0.398297	0.551673	0.449724
C127	C	-1.119598	-0.165526	0.452053
C128	C	-0.786264	0.167807	0.785386
C129	C	-0.452931	0.501140	1.118719
C130	C	-1.119607	-0.165521	0.548034
C131	C	-0.786274	0.167813	0.881367
C132	C	-0.452941	0.501146	1.214701
C133	C	-1.010285	-0.064483	0.548045
C134	C	-0.676952	0.268850	0.881378
C135	C	-0.343619	0.602184	1.214712
C136	C	-1.010281	-0.064485	0.452066
C137	C	-0.676948	0.268849	0.785399
C138	C	-0.343615	0.602182	1.118732
C139	C	-1.064936	-0.115011	0.404072
C140	C	-0.731603	0.218322	0.737405
C141	C	-0.398269	0.551655	1.070739
C142	C	-1.064949	-0.115004	0.596033
C143	C	-0.731616	0.218330	0.929366
C144	C	-0.398283	0.551663	1.262699
C145	C	-1.064959	-0.114997	0.700100
C146	C	-0.731626	0.218336	1.033433
C147	C	-0.398292	0.551670	1.366766
C148	C	-1.064928	-0.115017	0.299998
C149	C	-0.731594	0.218316	0.633331
C150	C	-0.398261	0.551650	0.966665
H151	H	-0.810829	0.018417	0.000050
H152	H	-0.477495	0.351751	0.333383
H153	H	-0.144162	0.685084	0.666716
H154	H	-1.215449	0.324144	0.000061
H155	H	-0.882116	0.657477	0.333395
H156	H	-0.548783	0.990810	0.666728
C157	C	-0.950145	-0.008912	0.399284
C158	C	-0.616812	0.324421	0.732617
C159	C	-0.283478	0.657754	1.065950
N160	N	-0.904853	0.032944	0.359528
N161	N	-0.571520	0.366278	0.692861
N162	N	-0.238186	0.699611	1.026195
H163	H	-0.319048	-0.248423	0.000040
H164	H	0.014285	0.084910	0.333373
H165	H	0.347618	0.418244	0.666706
H166	H	-1.164119	-0.206654	0.587096
H167	H	-0.830786	0.126679	0.920429
H168	H	-0.497453	0.460013	1.253762
C169	C	-0.950159	-0.008915	0.600847
C170	C	-0.616826	0.324418	0.934180
C171	C	-0.283492	0.657751	1.267514
N172	N	-0.904867	0.032936	0.640617
N173	N	-0.571533	0.366269	0.973950
N174	N	-0.238200	0.699602	1.307283
H175	H	-0.680557	0.096614	0.000060
H176	H	-0.347224	0.429947	0.333393
H177	H	-0.013890	0.763281	0.666727
H178	H	-0.509938	0.099603	0.000102
H179	H	-0.176605	0.432937	0.333435
H180	H	0.156728	0.766270	0.666768
H181	H	-0.358115	0.026349	0.000079
H182	H	-0.024782	0.359683	0.333412
H183	H	0.308551	0.693016	0.666746
C184	C	-0.894184	0.273303	0.000035
C185	C	-0.560851	0.606637	0.333368
C186	C	-0.227518	0.939970	0.666702
N187	N	-0.826817	0.229241	0.000027
N188	N	-0.493484	0.562574	0.333360
N189	N	-0.160150	0.895907	0.666694
H190	H	-1.164101	-0.206668	0.412979
H191	H	-0.830768	0.126665	0.746312
H192	H	-0.497435	0.459998	1.079646
H193	H	-0.449331	-0.326626	0.000019
H194	H	-0.115997	0.006707	0.333352
H195	H	0.217336	0.340040	0.666686
H196	H	-0.619928	-0.329636	0.000016
H197	H	-0.286594	0.003697	0.333349
H198	H	0.046739	0.337030	0.666682
C199	C	-1.235684	0.496663	0.000056
C200	C	-0.902351	0.829996	0.333389
C201	C	-0.569018	1.163329	0.666722
N202	N	-1.303055	0.540720	0.000065
N203	N	-0.969722	0.874053	0.333398
N204	N	-0.636389	1.207387	0.666732
C205	C	-0.782115	-0.278248	0.000016
C206	C	-0.448781	0.055086	0.333349
C207	C	-0.115448	0.388419	0.666682
N208	N	-0.812143	-0.341679	0.000005
N209	N	-0.478810	-0.008345	0.333339
N210	N	-0.145477	0.324988	0.666672
H211	H	-0.914430	0.445842	0.000032
H212	H	-0.581097	0.779175	0.333365
H213	H	-0.247764	1.112509	0.666699
