data_functionalizedCrystal
_audit_creation_method	'MofGen! by Chris Wilmer'
_symmetry_space_group_name_H-M	'P1'
_symmetry_Int_Tables_number	1
_symmetry_cell_setting	triclinic
loop_
_symmetry_equiv_pos_as_xyz
  x,y,z
_cell_length_a	29.839125
_cell_length_b	12.594517
_cell_length_c	12.594516
_cell_angle_alpha	90.009410
_cell_angle_beta	89.986421
_cell_angle_gamma	89.997285
loop_
_atom_site_label
_atom_site_type_symbol
_atom_site_fract_x
_atom_site_fract_y
_atom_site_fract_z
Zn1	Zn	-0.253907	1.627194	-0.424008
Zn2	Zn	-0.178782	1.627119	-0.601965
Zn3	Zn	-0.178802	1.449225	-0.423988
Zn4	Zn	-0.253896	1.449188	-0.601932
O5	O	-0.216347	1.538181	-0.512973
O6	O	-0.243938	1.776130	-0.447637
O7	O	-0.115918	1.603506	-0.578361
O8	O	-0.188777	1.472879	-0.275045
O9	O	-0.188744	1.776075	-0.578381
O10	O	-0.243957	1.603632	-0.275060
O11	O	-0.115932	1.472807	-0.447602
O12	O	-0.188767	1.300274	-0.447571
O13	O	-0.316765	1.472816	-0.578325
O14	O	-0.243938	1.300247	-0.578306
O15	O	-0.316773	1.603596	-0.447605
O16	O	-0.188734	1.603470	-0.750906
O17	O	-0.243919	1.472744	-0.750882
C18	C	-0.216354	1.261640	-0.512933
C19	C	-0.216367	1.143335	-0.512942
C20	C	-0.246317	1.074098	-0.584187
C21	C	-0.257368	1.003281	-0.487149
C22	C	-0.205306	1.003353	-0.610060
C23	C	-0.227440	1.074076	-0.415852
C24	C	-0.175359	1.074154	-0.538828
C25	C	-0.186394	1.003369	-0.441723
C26	C	-0.333525	1.538210	-0.512964
C27	C	-0.383460	1.538222	-0.512960
C28	C	-0.693110	1.606391	-0.444716
C29	C	-0.880783	1.606444	-0.444625
O30	O	-0.905054	1.664324	-0.386702
N31	N	-0.904245	1.538363	-0.512675
C32	C	-0.880785	1.470260	-0.580747
O33	O	-0.905047	1.412347	-0.638618
C34	C	-0.693113	1.470203	-0.580832
C35	C	-0.669654	1.538295	-0.512785
C36	C	-0.669651	1.674478	-0.376674
C37	C	-0.622736	1.674468	-0.376701
C38	C	-0.599279	1.606372	-0.444770
C39	C	-0.622738	1.538285	-0.512813
C40	C	-0.669654	1.402094	-0.648898
C41	C	-0.622733	1.402084	-0.648911
C42	C	-0.599274	1.470177	-0.580865
C43	C	-0.552367	1.470180	-0.580909
N44	N	-0.528905	1.538260	-0.512860
C45	C	-0.552362	1.606356	-0.444790
C46	C	-0.979316	1.470296	-0.580699
C47	C	-1.026234	1.470312	-0.580680
C48	C	-1.026229	1.606495	-0.444556
C49	C	-0.979310	1.606484	-0.444582
C50	C	-0.955854	1.538377	-0.512650
C51	C	-0.453836	1.606331	-0.444854
C52	C	-0.406916	1.606318	-0.444890
C53	C	-0.406925	1.470132	-0.581010
C54	C	-0.453841	1.470148	-0.580978
C55	C	-0.477295	1.538251	-0.512891
O56	O	-0.528067	1.412321	-0.638794
O57	O	-0.528092	1.664244	-0.386911
C58	C	-0.740026	1.606401	-0.444688
C59	C	-0.763485	1.538315	-0.512730
C60	C	-0.740028	1.470219	-0.580800
C61	C	-0.810403	1.538330	-0.512710
C62	C	-0.833859	1.606426	-0.444641
C63	C	-0.810398	1.674507	-0.376591
C64	C	-0.763482	1.674497	-0.376619
C65	C	-0.763490	1.402138	-0.648849
C66	C	-0.810405	1.402154	-0.648817
C67	C	-0.833862	1.470250	-0.580748
C68	C	-0.099624	1.538214	-0.512906
C69	C	-0.049690	1.538408	-0.512610
C70	C	-0.216333	1.538124	-0.789514
C71	C	-0.216342	1.538197	-0.907820
C72	C	-0.216340	1.815802	-0.513015
C73	C	-0.216337	1.934108	-0.513032
C74	C	-0.186379	1.609429	-1.047811
C75	C	-0.175345	1.512303	-0.977112
C76	C	-0.227356	1.635311	-0.976947
C77	C	-0.205326	1.441129	-1.047906
C78	C	-0.257356	1.564202	-1.047748
C79	C	-0.246337	1.467009	-0.977081
C80	C	-0.216371	1.538268	-0.235353
C81	C	-0.216381	1.538305	-0.117047
H82	H	-0.271677	1.105156	-0.644322
H83	H	-0.292014	1.586188	-1.078801
O84	O	-0.239676	1.744029	-0.935649
H85	H	-0.273467	1.766074	-0.965146
H86	H	-0.195988	1.359023	-1.078942
H87	H	-0.195964	0.972281	-0.692153
O88	O	-1.051536	1.679922	-0.371121
H89	H	-1.072916	1.734061	-0.418746
H90	H	-0.161054	0.972510	-0.381442
O91	O	-0.381613	1.679762	-0.371493
H92	H	-0.405809	1.727106	-0.324150
H93	H	-0.236822	1.105013	-0.333734
H94	H	-1.045330	1.414875	-0.636102
O95	O	-0.129425	1.483220	-0.935990
H96	H	-0.106481	1.469531	-1.004008
H97	H	-0.472926	1.661784	-0.389407
H98	H	-0.603638	1.346611	-0.704330
H99	H	-0.271693	1.406747	-0.946221
H100	H	-0.140702	1.105308	-0.560719
O101	O	-0.152769	1.689063	-1.088952
H102	H	-0.170340	1.749800	-1.137359
H103	H	-0.960223	1.414836	-0.636136
O104	O	-0.479143	1.396706	-0.654373
H105	H	-0.500518	1.342576	-0.606704
H106	H	-0.292035	0.972151	-0.465287
O107	O	-0.738182	1.747940	-0.303225
H108	H	-0.747189	1.729707	-0.219683
H109	H	-0.688745	1.729930	-0.321237
O110	O	-0.597436	1.747905	-0.303302
H111	H	-0.621635	1.795245	-0.255965
H112	H	-0.960213	1.661929	-0.389170
O113	O	-0.694950	1.328637	-0.722278
H114	H	-0.670750	1.281278	-0.769593
H115	H	-0.387818	1.414693	-0.636434
H116	H	-0.829504	1.729957	-0.321170
H117	H	-0.829502	1.346707	-0.704239
O118	O	-0.738193	1.328653	-0.722235
H119	H	-0.762393	1.281311	-0.769535
