data_functionalizedCrystal
_audit_creation_method	'MofGen! by Chris Wilmer'
_symmetry_space_group_name_H-M	'P1'
_symmetry_Int_Tables_number	1
_symmetry_cell_setting	triclinic
loop_
_symmetry_equiv_pos_as_xyz
  x,y,z
_cell_length_a	16.120484
_cell_length_b	19.805407
_cell_length_c	19.805399
_cell_angle_alpha	89.982197
_cell_angle_beta	92.871043
_cell_angle_gamma	92.922838
loop_
_atom_site_label
_atom_site_type_symbol
_atom_site_fract_x
_atom_site_fract_y
_atom_site_fract_z
Zn1	Zn	-0.331986	1.021073	-0.396348
Zn2	Zn	0.168014	1.521073	0.103652
Zn3	Zn	-0.471404	1.015250	-0.288896
Zn4	Zn	0.028596	1.515250	0.211104
Zn5	Zn	-0.332003	0.907887	-0.283177
Zn6	Zn	0.167997	1.407887	0.216823
Zn7	Zn	-0.471354	0.902115	-0.402044
Zn8	Zn	0.028646	1.402115	0.097956
O9	O	-0.401687	0.961581	-0.342616
O10	O	0.098313	1.461581	0.157384
O11	O	-0.350495	1.115016	-0.382104
O12	O	0.149505	1.615016	0.117896
O13	O	-0.452941	1.000986	-0.193422
O14	O	0.047059	1.500986	0.306578
O15	O	-0.215335	0.927753	-0.293411
O16	O	0.284665	1.427753	0.206589
O17	O	-0.452925	1.110738	-0.303160
O18	O	0.047075	1.610738	0.196840
O19	O	-0.215323	1.010911	-0.376558
O20	O	0.284677	1.510911	0.123442
O21	O	-0.350523	0.922107	-0.189220
O22	O	0.149477	1.422107	0.310780
O23	O	-0.350474	0.812405	-0.298935
O24	O	0.149526	1.312405	0.201065
O25	O	-0.452838	0.917917	-0.496004
O26	O	0.047162	1.417917	0.003996
O27	O	-0.452854	0.808165	-0.386267
O28	O	0.047146	1.308165	0.113733
O29	O	-0.350446	1.005314	-0.491819
O30	O	0.149554	1.505314	0.008181
O31	O	-0.588064	0.995390	-0.308683
O32	O	-0.088064	1.495390	0.191317
O33	O	-0.588026	0.912271	-0.391813
O34	O	-0.088026	1.412271	0.108187
C35	C	-0.401661	0.785726	-0.342599
C36	C	0.098339	1.285726	0.157401
C37	C	-0.401670	0.710494	-0.342608
C38	C	0.098330	1.210494	0.157392
C39	C	-0.348429	0.677374	-0.383784
C40	C	0.151571	1.177374	0.116216
C41	C	-0.348433	0.606685	-0.383787
C42	C	0.151567	1.106685	0.116213
C43	C	-0.401683	0.569118	-0.342617
C44	C	0.098317	1.069118	0.157383
C45	C	-0.454926	0.602242	-0.301436
C46	C	0.045074	1.102242	0.198564
C47	C	-0.454917	0.672930	-0.301430
C48	C	0.045083	1.172930	0.198570
C49	C	-0.454964	0.317168	-0.301459
C50	C	0.045036	0.817168	0.198541
C51	C	-0.454971	0.246475	-0.301469
C52	C	0.045029	0.746475	0.198531
C53	C	-0.348480	0.250923	-0.383815
C54	C	0.151520	0.750923	0.116185
C55	C	-0.348471	0.321611	-0.383809
C56	C	0.151529	0.821611	0.116191
C57	C	-0.401710	0.354729	-0.342626
C58	C	0.098290	0.854729	0.157374
C59	C	-0.401704	0.431378	-0.342623
C60	C	0.098296	0.931378	0.157377
C61	C	-0.401695	0.492470	-0.342624
C62	C	0.098305	0.992470	0.157376
C63	C	-0.618295	0.952591	-0.351502
C64	C	-0.118295	1.452591	0.148498
C65	C	-0.710961	0.948806	-0.355325
C66	C	-0.210961	1.448806	0.144675
C67	C	-0.880622	0.941901	-0.362321
C68	C	-0.380622	1.441901	0.137679
C69	C	-0.921911	0.981383	-0.322923
C70	C	-0.421911	1.481383	0.177077
C71	C	-1.016316	0.977541	-0.326815
C72	C	-0.516316	1.477541	0.173185
C73	C	-0.786208	0.945742	-0.358429
C74	C	-0.286208	1.445742	0.141571
C75	C	-0.184233	0.970625	-0.333711
C76	C	0.315767	1.470625	0.166289
C77	C	-0.091567	0.974479	-0.329916
C78	C	0.408433	1.474479	0.170084
C79	C	-0.401634	0.961621	-0.519157
C80	C	0.098366	1.461621	-0.019157
C81	C	-0.401612	0.961638	-0.594388
C82	C	0.098388	1.461638	-0.094388
C83	C	-0.401714	1.138123	-0.342634
C84	C	0.098286	1.638123	0.157366
C85	C	-0.401725	1.213354	-0.342642
C86	C	0.098275	1.713354	0.157358
C87	C	-0.348294	1.007147	-0.627554
C88	C	0.151706	1.507147	-0.127554
C89	C	-0.348269	1.007155	-0.698241
C90	C	0.151731	1.507155	-0.198241
C91	C	-0.401568	0.961657	-0.735762
C92	C	0.098432	1.461657	-0.235762
C93	C	-0.454889	0.916143	-0.702591
C94	C	0.045111	1.416143	-0.202591
C95	C	-0.454909	0.916133	-0.631905
C96	C	0.045091	1.416133	-0.131905
C97	C	-0.454811	0.916185	-0.987661
C98	C	0.045189	1.416185	-0.487661
C99	C	-0.454790	0.916200	-1.058353
C100	C	0.045210	1.416200	-0.558353
C101	C	-0.348172	1.007207	-1.053998
C102	C	0.151828	1.507207	-0.553998
C103	C	-0.348192	1.007197	-0.983312
C104	C	0.151808	1.507197	-0.483312
C105	C	-0.401509	0.961681	-0.950147
C106	C	0.098491	1.461681	-0.450147
C107	C	-0.401533	0.961672	-0.873500
C108	C	0.098467	1.461672	-0.373500
C109	C	-0.401549	0.961669	-0.812408
C110	C	0.098451	1.461669	-0.312408
C111	C	-0.401679	0.961583	-0.166760
C112	C	0.098321	1.461583	0.333240
C113	C	-0.401467	0.961706	-0.091520
C114	C	0.098533	1.461706	0.408480
H115	H	-0.498316	0.344124	-0.267925
H116	H	0.001684	0.844124	0.232075
H117	H	-0.498280	0.571649	-0.267911
H118	H	0.001720	1.071649	0.232089
H119	H	-0.498271	0.699895	-0.267900
H120	H	0.001729	1.199895	0.232100
H121	H	-0.304793	1.044248	-0.952766
H122	H	0.195207	1.544248	-0.452766
O123	O	-0.879375	1.025088	-0.279207
O124	O	-0.379375	1.525088	0.220793
C125	C	-0.793219	1.019248	-0.285008
C126	C	-0.293219	1.519248	0.214992
H127	H	-0.781467	0.967472	-0.306660
H128	H	-0.281467	1.467472	0.193340
H129	H	-0.760093	1.025182	-0.232972
H130	H	-0.260093	1.525182	0.267028
H131	H	-0.768428	1.060367	-0.320079
H132	H	-0.268428	1.560367	0.179921
O133	O	-0.922936	0.898042	-0.406005
O134	O	-0.422936	1.398042	0.093995
C135	C	-0.901834	0.831433	-0.390282
C136	C	-0.401834	1.331433	0.109718
H137	H	-0.838605	0.832569	-0.361709
H138	H	-0.338605	1.332569	0.138291
H139	H	-0.898960	0.801164	-0.438984
H140	H	-0.398960	1.301164	0.061016
H141	H	-0.950872	0.806705	-0.357440
H142	H	-0.450872	1.306705	0.142560
H143	H	-0.304894	1.044199	-0.597010
H144	H	0.195106	1.544199	-0.097010
O145	O	-0.296452	1.051430	-0.730353
O146	O	0.203548	1.551430	-0.230353
C147	C	-0.249404	1.091578	-0.682079
C148	C	0.250596	1.591578	-0.182079
H149	H	-0.283569	1.092491	-0.633090
H150	H	0.216431	1.592491	-0.133090
H151	H	-0.240518	1.145279	-0.702147
H152	H	0.259482	1.645279	-0.202147
H153	H	-0.186082	1.069429	-0.671962
H154	H	0.313918	1.569429	-0.171962
O155	O	-0.296632	0.574484	-0.423689
O156	O	0.203368	1.074484	0.076311
C157	C	-0.242737	0.535800	-0.383023
C158	C	0.257263	1.035800	0.116977
H159	H	-0.237488	0.557300	-0.329505
H160	H	0.262512	1.057300	0.170495
H161	H	-0.178621	0.537660	-0.404965
H162	H	0.321379	1.037660	0.095035
H163	H	-0.268518	0.481159	-0.381714
H164	H	0.231482	0.981159	0.118286
H165	H	-0.304756	1.044266	-1.081009
H166	H	0.195244	1.544266	-0.581009
H167	H	-0.498194	0.879147	-1.088900
H168	H	0.001806	1.379147	-0.588900
O169	O	-0.506719	0.872032	-0.955493
O170	O	-0.006719	1.372032	-0.455493
C171	C	-0.589810	0.883350	-0.976183
C172	C	-0.089810	1.383350	-0.476183
H173	H	-0.594036	0.937254	-0.995780
H174	H	-0.094036	1.437254	-0.495780
H175	H	-0.631012	0.875777	-0.931386
H176	H	-0.131012	1.375777	-0.431386
H177	H	-0.611572	0.846170	-1.018111
H178	H	-0.111572	1.346170	-0.518111
O179	O	-0.506636	0.872009	-0.739140
O180	O	-0.006636	1.372009	-0.239140
C181	C	-0.495174	0.881765	-0.808641
C182	C	0.004826	1.381765	-0.308641
H183	H	-0.467877	0.935137	-0.817187
H184	H	0.032123	1.435137	-0.317187
H185	H	-0.557613	0.874579	-0.838061
H186	H	-0.057613	1.374579	-0.338061
H187	H	-0.450763	0.843469	-0.826877
H188	H	0.049237	1.343469	-0.326877
H189	H	-0.498318	0.879068	-0.604902
H190	H	0.001682	1.379068	-0.104902
H191	H	-0.305112	0.352195	-0.417337
H192	H	0.194888	0.852195	0.082663
O193	O	-0.296744	0.713789	-0.423874
O194	O	0.203256	1.213789	0.076126
C195	C	-0.315089	0.695794	-0.492064
C196	C	0.184911	1.195794	0.007936
H197	H	-0.347146	0.643143	-0.494742
H198	H	0.152854	1.143143	0.005258
H199	H	-0.254970	0.695877	-0.520028
H200	H	0.245030	1.195877	-0.020028
H201	H	-0.357984	0.733810	-0.516561
H202	H	0.142016	1.233810	-0.016561
O203	O	-0.296871	0.218671	-0.423854
O204	O	0.203129	0.718671	0.076146
C205	C	-0.344413	0.175843	-0.469471
C206	C	0.155587	0.675843	0.030529
H207	H	-0.407554	0.162626	-0.448103
H208	H	0.092446	0.662626	0.051897
H209	H	-0.310473	0.127546	-0.477200
H210	H	0.189527	0.627546	0.022800
H211	H	-0.353656	0.202722	-0.519994
H212	H	0.146344	0.702722	-0.019994
H213	H	-0.498336	0.215889	-0.267941
H214	H	0.001664	0.715889	0.232059
