data_functionalizedCrystal
_audit_creation_method	'MofGen! by Chris Wilmer'
_symmetry_space_group_name_H-M	'P1'
_symmetry_Int_Tables_number	1
_symmetry_cell_setting	triclinic
loop_
_symmetry_equiv_pos_as_xyz
  x,y,z
_cell_length_a	19.188930
_cell_length_b	18.266242
_cell_length_c	9.065218
_cell_angle_alpha	89.996786
_cell_angle_beta	95.919667
_cell_angle_gamma	90.022820
loop_
_atom_site_label
_atom_site_type_symbol
_atom_site_fract_x
_atom_site_fract_y
_atom_site_fract_z
O1	O	0.927580	0.061114	-0.184176
O2	O	0.724462	0.061063	-0.208969
O3	O	0.830219	0.061088	0.018215
O4	O	0.821822	0.061089	-0.411361
O5	O	0.830201	-0.060674	0.018222
O6	O	0.724443	-0.060699	-0.208963
O7	O	0.927562	-0.060648	-0.184170
Zn8	Zn	0.826000	-0.080006	-0.196565
Zn9	Zn	0.826024	0.080421	-0.196574
O10	O	0.821804	-0.060673	-0.411354
C11	C	0.698435	0.000176	-0.208163
C12	C	0.620912	0.000157	-0.205753
C13	C	0.577024	0.000168	-0.339058
C14	C	0.504182	0.000176	-0.336793
C15	C	0.475232	0.000187	-0.201217
C16	C	0.519130	0.000172	-0.067895
C17	C	0.591970	0.000156	-0.070163
N18	N	0.366453	0.041658	-0.097588
N19	N	0.297258	0.041674	-0.095442
C20	C	0.255771	0.000232	-0.194375
N21	N	0.286091	-0.041217	-0.295557
N22	N	0.355293	-0.041230	-0.297707
C23	C	0.396251	0.000204	-0.198742
C24	C	0.132899	0.000252	-0.325234
C25	C	0.060056	0.000255	-0.322964
C26	C	0.075006	0.000258	-0.054061
C27	C	0.147847	0.000247	-0.056335
C28	C	0.176789	0.000247	-0.191925
N29	N	0.825988	-0.189493	-0.196559
C30	C	0.868891	-0.227784	-0.285819
C31	C	0.868902	-0.304429	-0.285815
C32	C	0.825998	-0.342780	-0.196568
C33	C	0.783093	-0.304479	-0.107289
C34	C	0.783088	-0.227836	-0.107285
N35	N	0.764823	-0.463147	-0.192933
N36	N	0.764829	-0.535955	-0.192946
C37	C	0.826012	-0.573702	-0.196573
N38	N	0.887189	-0.535890	-0.200216
N39	N	0.887182	-0.463075	-0.200211
C40	C	0.826000	-0.425887	-0.196562
C41	C	0.868931	-0.695101	-0.285834
C42	C	0.868944	-0.771747	-0.285819
C43	C	0.783128	-0.771795	-0.107301
C44	C	0.783122	-0.695150	-0.107308
C45	C	0.826022	-0.656808	-0.196582
C46	C	0.953588	0.000241	-0.184976
C47	C	1.031112	0.000265	-0.187386
C48	C	0.829403	0.000208	0.073177
C49	C	0.826990	0.000211	0.236936
N50	N	0.826041	0.189908	-0.196569
C51	C	0.822620	0.000209	-0.466316
C52	C	0.825033	0.000211	-0.630075
H53	H	0.468442	0.000184	-0.445349
O54	O	0.910602	-0.190455	-0.372321
C55	C	0.957683	-0.146115	-0.282121
H56	H	0.935273	-0.134651	-0.172765
H57	H	0.965824	-0.092211	-0.341384
H58	H	1.010024	-0.175625	-0.259279
H59	H	0.600583	0.000170	-0.449466
H60	H	0.156464	0.000241	-0.435639
O61	O	0.017521	0.000297	-0.452599
C62	C	0.058690	0.000277	-0.572751
H63	H	0.112815	0.023320	-0.534951
H64	H	0.032435	0.035633	-0.666123
H65	H	0.064108	-0.058139	-0.614338
H66	H	0.495555	0.000190	0.042493
H67	H	0.627705	0.000147	0.038393
O68	O	0.046778	0.000302	0.077510
C69	C	-0.026924	0.000298	0.050931
H70	H	-0.043283	0.023349	-0.064307
H71	H	-0.049814	0.035656	0.137653
H72	H	-0.047273	-0.058114	0.057955
H73	H	0.748183	-0.663973	-0.034628
O74	O	0.741507	-0.190600	-0.020422
C75	C	0.783431	-0.146227	0.080435
H76	H	0.838886	-0.169295	0.096586
H77	H	0.760414	-0.145364	0.191440
H78	H	0.784894	-0.088141	0.034837
O79	O	0.910648	-0.657770	-0.372325
C80	C	0.957725	-0.613428	-0.282117
H81	H	0.935305	-0.601959	-0.172772
H82	H	0.965872	-0.559527	-0.341382
H83	H	1.010063	-0.642940	-0.259252
O84	O	0.741471	-0.809153	-0.020740
C85	C	0.750648	-0.885013	-0.039942
H86	H	0.771225	-0.895450	-0.151612
H87	H	0.698289	-0.914144	-0.036481
H88	H	0.789847	-0.906787	0.052737
H89	H	0.183582	0.000241	0.052216
O90	O	0.910598	-0.341522	-0.372667
C91	C	0.948476	-0.291245	-0.451427
H92	H	0.919629	-0.236623	-0.460180
H93	H	0.953532	-0.313384	-0.567414
H94	H	1.002895	-0.283072	-0.390377
O95	O	0.910642	-0.808832	-0.372668
C96	C	0.948515	-0.758551	-0.451430
H97	H	0.919663	-0.703931	-0.460185
H98	H	0.953572	-0.780690	-0.567416
H99	H	1.002933	-0.750372	-0.390381
H100	H	0.748161	-0.335709	-0.034622
