data_functionalizedCrystal
_audit_creation_method	'MofGen! by Chris Wilmer'
_symmetry_space_group_name_H-M	'P1'
_symmetry_Int_Tables_number	1
_symmetry_cell_setting	triclinic
loop_
_symmetry_equiv_pos_as_xyz
  x,y,z
_cell_length_a	8.597187
_cell_length_b	15.538191
_cell_length_c	7.088929
_cell_angle_alpha	86.254841
_cell_angle_beta	88.663715
_cell_angle_gamma	66.484793
loop_
_atom_site_label
_atom_site_type_symbol
_atom_site_fract_x
_atom_site_fract_y
_atom_site_fract_z
O1	O	1.938079	0.168407	-0.478209
O2	O	1.485122	0.174683	-0.403599
O3	O	1.799771	0.036114	-0.455436
O4	O	1.623430	0.306977	-0.426372
O5	O	1.841845	0.017552	-0.144392
O6	O	1.527196	0.156122	-0.092555
O7	O	1.980153	0.149846	-0.167165
Cu8	Cu	1.757516	0.151289	-0.101459
Cu9	Cu	1.707759	0.173240	-0.469304
O10	O	1.665504	0.288416	-0.115328
C11	C	1.449603	0.163694	-0.238762
C12	C	1.281092	0.158593	-0.211006
C13	C	1.839257	-0.007907	-0.302959
C14	C	1.894212	-0.111422	-0.312030
C15	C	1.348233	-0.409724	-0.222058
C16	C	1.399913	-0.506995	-0.230566
C17	C	1.690595	-0.523843	-0.278447
C18	C	1.638939	-0.426571	-0.269952
C19	C	1.467756	-0.369518	-0.241755
C20	C	1.758462	-0.386365	-0.289649
C21	C	1.706810	-0.289102	-0.281145
C22	C	1.535635	-0.232044	-0.252943
C23	C	1.416104	-0.272255	-0.233250
C24	C	1.929645	-0.443420	-0.317833
C25	C	2.049168	-0.403215	-0.337530
C26	C	1.997515	-0.305949	-0.329039
C27	C	1.826341	-0.248891	-0.300838
C28	C	2.117046	-0.265738	-0.348732
C29	C	2.065395	-0.168474	-0.340227
C30	C	1.774689	-0.151627	-0.292333
C31	C	2.015671	0.160835	-0.332006
C32	C	2.184180	0.165938	-0.359774
C33	C	1.626017	0.332437	-0.267809
C34	C	1.571061	0.435952	-0.258750
N35	N	1.792524	0.135849	0.157261
N36	N	1.672767	0.188673	-0.728028
H37	H	1.635293	-0.105171	-0.269386
H38	H	1.276708	-0.225798	-0.210303
H39	H	1.916651	0.081112	0.218468
H40	H	2.256426	-0.312205	-0.371671
F41	F	1.984616	-0.546938	-0.326871
F42	F	1.510541	0.260224	0.191982
H43	H	1.235137	0.148412	-0.062415
H44	H	1.208838	-0.363267	-0.199111
F45	F	1.244237	0.179259	-0.554007
F46	F	1.480664	-0.128527	-0.243876
H47	H	2.188546	-0.449680	-0.360480
F48	F	1.272687	-0.549781	-0.209589
F49	F	2.192607	-0.125684	-0.361164
F50	F	1.872777	-0.584572	-0.308441
