data_functionalizedCrystal
_audit_creation_method	'MofGen! by Chris Wilmer'
_symmetry_space_group_name_H-M	'P1'
_symmetry_Int_Tables_number	1
_symmetry_cell_setting	triclinic
loop_
_symmetry_equiv_pos_as_xyz
  x,y,z
_cell_length_a	13.635800
_cell_length_b	27.923327
_cell_length_c	27.924317
_cell_angle_alpha	97.596810
_cell_angle_beta	98.979858
_cell_angle_gamma	98.960721
loop_
_atom_site_label
_atom_site_type_symbol
_atom_site_fract_x
_atom_site_fract_y
_atom_site_fract_z
V1	V	-1.977252	-0.067875	-0.151587
O2	O	-1.983135	0.002491	-0.148388
O3	O	-1.942257	-0.133844	-0.150851
O4	O	-1.942314	-0.067170	-0.217562
O5	O	-1.983078	-0.064645	-0.081216
V6	V	-2.221857	-0.059419	-0.143133
O7	O	-2.101646	-0.086426	-0.170130
O8	O	-2.322562	-0.040869	-0.124590
O9	O	-2.145249	0.006550	-0.143869
O10	O	-2.274672	-0.129785	-0.146332
O11	O	-2.274730	-0.062649	-0.213505
O12	O	-2.145192	-0.060125	-0.077158
C13	C	-1.862479	-0.149915	-0.148537
C14	C	-1.874437	-0.203848	-0.148376
C15	C	-1.869775	-0.586520	-0.144865
C16	C	-1.824731	-0.383812	-0.145434
O17	O	-1.742162	-0.355495	-0.143458
N18	N	-1.909346	-0.360945	-0.147938
C19	C	-2.005230	-0.388759	-0.150302
O20	O	-2.076168	-0.364660	-0.152450
C21	C	-2.050274	-0.591467	-0.149737
C22	C	-1.965651	-0.614330	-0.147228
C23	C	-1.785160	-0.609383	-0.142357
C24	C	-1.796420	-0.660056	-0.142212
C25	C	-1.892296	-0.687867	-0.144575
C26	C	-1.976912	-0.665003	-0.147083
C27	C	-2.146158	-0.619281	-0.152105
C28	C	-2.157413	-0.669961	-0.151965
C29	C	-2.072789	-0.692824	-0.149456
C30	C	-2.084049	-0.743487	-0.149302
N31	N	-1.999434	-0.766353	-0.146798
C32	C	-1.903557	-0.738543	-0.144435
C33	C	-1.981575	-0.282335	-0.150598
C34	C	-1.970314	-0.231658	-0.150739
C35	C	-1.789815	-0.226714	-0.145871
C36	C	-1.801076	-0.277391	-0.145727
C37	C	-1.896959	-0.305201	-0.148095
C38	C	-1.927212	-0.844961	-0.144130
C39	C	-1.938482	-0.895639	-0.143984
C40	C	-2.118980	-0.900579	-0.148854
C41	C	-2.107711	-0.849905	-0.148998
C42	C	-2.011820	-0.822098	-0.146638
O43	O	-2.166586	-0.771834	-0.151282
O44	O	-1.832635	-0.762654	-0.142298
C45	C	-1.858514	-0.535846	-0.145010
C46	C	-1.943130	-0.512983	-0.147518
C47	C	-2.039006	-0.540793	-0.149881
C48	C	-1.931869	-0.462306	-0.147658
C49	C	-1.835993	-0.434496	-0.145295
C50	C	-1.751377	-0.457362	-0.142792
C51	C	-1.762638	-0.508036	-0.142647
C52	C	-2.123621	-0.517926	-0.152385
C53	C	-2.112353	-0.467253	-0.152529
C54	C	-2.016477	-0.439442	-0.150166
C55	C	-1.862551	-0.064865	-0.233633
C56	C	-1.874556	-0.064724	-0.287570
C57	C	-1.971608	-0.108041	-0.679848
C58	C	-1.926631	-0.108645	-0.477147
O59	O	-1.930640	-0.146537	-0.457009
N60	N	-1.909407	-0.064256	-0.444662
C61	C	-1.903421	-0.019712	-0.462853
O62	O	-1.887729	0.018030	-0.430571
C63	C	-1.948391	-0.019108	-0.665553
C64	C	-1.965625	-0.063500	-0.698037
C65	C	-1.988840	-0.152430	-0.712332
C66	C	-2.000089	-0.152278	-0.763004
C67	C	-1.994106	-0.107738	-0.781193
C68	C	-1.976874	-0.063349	-0.748709
C69	C	-1.942398	0.025436	-0.683744
C70	C	-1.953640	0.025583	-0.734422
C71	C	-1.970874	-0.018809	-0.766906
C72	C	-1.982140	-0.018657	-0.817570
N73	N	-1.999364	-0.063046	-0.850056
C74	C	-2.005347	-0.107587	-0.831868
C75	C	-1.879814	-0.020033	-0.356433
C76	C	-1.868573	-0.020184	-0.305759
C77	C	-1.891782	-0.109117	-0.320057
C78	C	-1.903030	-0.108966	-0.370732
C79	C	-1.897038	-0.064422	-0.388919
C80	C	-2.028971	-0.107265	-0.938282
C81	C	-2.040224	-0.107110	-0.988959
C82	C	-2.017009	-0.018176	-0.974656
C83	C	-2.005762	-0.018332	-0.923985
C84	C	-2.011741	-0.062880	-0.905799
O85	O	-1.978132	0.019215	-0.837743
O86	O	-2.021017	-0.145323	-0.864157
C87	C	-1.960359	-0.108192	-0.629176
C88	C	-1.943127	-0.063803	-0.596693
C89	C	-1.937145	-0.019263	-0.614881
C90	C	-1.931887	-0.063954	-0.546018
C91	C	-1.937869	-0.108495	-0.527829
C92	C	-1.955093	-0.152884	-0.560315
C93	C	-1.966342	-0.152733	-0.610987
C94	C	-1.919921	0.025127	-0.582395
C95	C	-1.908674	0.024972	-0.531724
C96	C	-1.914657	-0.019569	-0.513535
V97	V	-1.477252	-0.067875	-0.151587
O98	O	-1.483135	0.002491	-0.148388
O99	O	-1.442257	-0.133844	-0.150851
O100	O	-1.442314	-0.067170	-0.217562
O101	O	-1.483078	-0.064645	-0.081216
V102	V	-1.721857	-0.059419	-0.143133
O103	O	-1.601646	-0.086426	-0.170130
O104	O	-1.822562	-0.040869	-0.124590
O105	O	-1.645249	0.006550	-0.143869
O106	O	-1.774672	-0.129785	-0.146332
O107	O	-1.774730	-0.062649	-0.213505
O108	O	-1.645192	-0.060125	-0.077158
C109	C	-2.056698	0.022619	-0.146182
C110	C	-2.034358	0.076551	-0.146347
C111	C	-1.362479	-0.149915	-0.148537
C112	C	-1.374437	-0.203848	-0.148376
C113	C	-1.368429	-0.222029	-0.103831
C114	C	-1.379679	-0.272704	-0.103672
C115	C	-1.396929	-0.305196	-0.148058
C116	C	-1.402940	-0.287012	-0.192607
C117	C	-1.391698	-0.236338	-0.192765
C118	C	-2.056626	-0.062431	-0.061085
C119	C	-2.034241	-0.062569	-0.007147
C120	C	-1.362551	-0.064865	-0.233633
C121	C	-1.374556	-0.064724	-0.287570
C122	C	-1.556698	0.022619	-0.146182
C123	C	-1.534358	0.076551	-0.146347
C124	C	-1.556626	-0.062431	-0.061085
C125	C	-1.534241	-0.062569	-0.007147
C126	C	-1.470448	-0.067089	-0.315383
C127	C	-1.481740	-0.066951	-0.366062
C128	C	-1.397140	-0.064451	-0.388927
C129	C	-1.301240	-0.062084	-0.361110
C130	C	-1.289948	-0.062219	-0.310431
C131	C	-1.610980	0.104363	-0.143989
C132	C	-1.589998	0.155040	-0.144136
C133	C	-1.492396	0.177902	-0.146644
C134	C	-1.415769	0.150086	-0.149001
C135	C	-1.436749	0.099411	-0.148851
C136	C	-1.436610	-0.065064	0.015705
C137	C	-1.415560	-0.065188	0.066386
C138	C	-1.492145	-0.062821	0.094212
C139	C	-1.589783	-0.060324	0.071357
C140	C	-1.610830	-0.060197	0.020678
H141	H	-2.201695	-0.540565	-0.154310
C142	C	-1.352453	0.068821	-0.151452
N143	N	-1.288955	0.045783	-0.153412
H144	H	-1.232363	-0.060049	-0.379734
H145	H	-1.374238	-0.066991	-0.006945
C146	C	-1.718350	0.079226	-0.141225
N147	N	-1.799224	0.060296	-0.139140
H148	H	-1.869567	-0.914252	-0.141941
H149	H	-1.406348	-0.064341	-0.430193
H150	H	-1.336053	-0.067221	0.084987
C151	C	-1.184457	-0.059626	-0.279843
N152	N	-1.104997	-0.057675	-0.256807
H153	H	-1.894649	0.061124	-0.505278
C154	C	-1.468979	-0.062965	0.149960
N155	N	-1.451525	-0.063076	0.191949
C156	C	-2.010420	0.030816	-0.994674
N157	N	-2.005447	0.067718	-1.009752
C158	C	-2.200797	-0.824753	-0.151743
N159	N	-2.270911	-0.805812	-0.153812
C160	C	-1.873227	0.028972	-0.376432
N161	N	-1.868269	0.065883	-0.391493
C162	C	-1.674019	-0.057723	0.101973
N163	N	-1.737465	-0.055766	0.125035
C164	C	-1.947051	0.074586	-0.754424
N165	N	-1.942092	0.111495	-0.769489
C166	C	-1.718237	-0.057457	-0.004455
N167	N	-1.799140	-0.055393	-0.023382
C168	C	-1.373052	-0.292695	-0.054663
N169	N	-1.368056	-0.307751	-0.017749
C170	C	-1.821728	-0.814380	-0.141530
N171	N	-1.742277	-0.791345	-0.139567
H172	H	-1.406081	-0.346456	-0.147922
H173	H	-1.475326	0.219165	-0.146766
C174	C	-1.703327	-0.685200	-0.139458
N175	N	-1.633203	-0.704135	-0.137386
H176	H	-1.416989	-0.313475	-0.228745
H177	H	-1.539346	-0.069127	-0.296774
H178	H	-1.917059	-0.145114	-0.397178
H179	H	-1.693728	-0.526646	-0.140605
H180	H	-1.707084	-0.586745	-0.140434
H181	H	-1.732168	-0.296003	-0.143688
C182	C	-1.398291	-0.216345	-0.241771
N183	N	-1.403254	-0.201289	-0.278684
H184	H	-1.711747	-0.204062	-0.143947
H185	H	-1.673309	-0.434710	-0.140865
C186	C	-2.063408	-0.206515	-0.153503
N187	N	-2.133533	-0.187581	-0.155592
C188	C	-2.087058	-0.312919	-0.153198
N189	N	-2.166507	-0.335953	-0.155154
C190	C	-1.587240	-0.069558	-0.396653
N191	N	-1.666702	-0.071522	-0.419692
H192	H	-1.652405	0.177681	-0.142217
C193	C	-1.913341	0.074128	-0.602395
N194	N	-1.908389	0.111038	-0.617457
H195	H	-2.181270	-0.448642	-0.154568
H196	H	-2.215071	-0.600675	-0.154150
H197	H	-2.235493	-0.692602	-0.153894
H198	H	-2.197042	-0.923231	-0.150777
C199	C	-2.059169	-0.155947	-1.024689
N200	N	-2.073431	-0.192730	-1.051598
H201	H	-2.033837	-0.143540	-0.923483
H202	H	-2.014119	-0.188427	-0.789449
C203	C	-1.995433	-0.201432	-0.692334
N204	N	-2.000409	-0.238345	-0.677275
H205	H	-1.896652	-0.145384	-0.305239
C206	C	-1.986815	0.030502	-0.888251
N207	N	-1.972534	0.067285	-0.861340
H208	H	-1.336301	0.168708	-0.151043
H209	H	-1.854557	0.015965	-0.279314
H210	H	-1.928367	0.061586	-0.657303
C211	C	-1.961674	-0.201879	-0.540298
N212	N	-1.966624	-0.238780	-0.525218
H213	H	-1.980373	-0.188882	-0.637432
C214	C	-1.349462	-0.186296	-0.054998
N215	N	-1.335183	-0.159385	-0.018216
