data_functionalizedCrystal
_audit_creation_method	'MofGen! by Chris Wilmer'
_symmetry_space_group_name_H-M	'P1'
_symmetry_Int_Tables_number	1
_symmetry_cell_setting	triclinic
loop_
_symmetry_equiv_pos_as_xyz
  x,y,z
_cell_length_a	15.455322
_cell_length_b	16.992694
_cell_length_c	16.992698
_cell_angle_alpha	89.332416
_cell_angle_beta	87.161534
_cell_angle_gamma	87.141817
loop_
_atom_site_label
_atom_site_type_symbol
_atom_site_fract_x
_atom_site_fract_y
_atom_site_fract_z
O1	O	-0.072052	1.054080	-0.163693
O2	O	0.261282	1.387414	0.169641
O3	O	0.594615	1.720747	0.502974
O4	O	-0.072077	0.825681	-0.161860
O5	O	0.261257	1.159015	0.171473
O6	O	0.594590	1.492348	0.504806
O7	O	-0.072037	0.938965	-0.048578
O8	O	0.261296	1.272299	0.284756
O9	O	0.594630	1.605632	0.618089
O10	O	-0.072091	0.940796	-0.276975
O11	O	0.261242	1.274130	0.056358
O12	O	0.594576	1.607463	0.389691
O13	O	0.072223	0.932484	-0.055028
O14	O	0.405556	1.265818	0.278305
O15	O	0.738889	1.599151	0.611639
O16	O	0.072183	0.819201	-0.168311
O17	O	0.405516	1.152534	0.165023
O18	O	0.738850	1.485867	0.498356
O19	O	0.072208	1.047600	-0.170143
O20	O	0.405542	1.380933	0.163190
O21	O	0.738875	1.714266	0.496524
Cu22	Cu	0.085368	0.932808	-0.169816
Cu23	Cu	0.418701	1.266142	0.163518
Cu24	Cu	0.752034	1.599475	0.496851
Cu25	Cu	-0.085236	0.940473	-0.162188
Cu26	Cu	0.248097	1.273806	0.171146
Cu27	Cu	0.581430	1.607139	0.504479
O28	O	0.072169	0.934316	-0.283426
O29	O	0.405502	1.267649	0.049908
O30	O	0.738835	1.600982	0.383241
C31	C	0.000050	0.793081	-0.162730
C32	C	0.333384	1.126414	0.170604
C33	C	0.666717	1.459748	0.503937
C34	C	0.000042	0.705597	-0.155701
C35	C	0.333375	1.038930	0.177633
C36	C	0.666709	1.372263	0.510966
N37	N	0.205361	0.927423	-0.175181
N38	N	0.538695	1.260757	0.158153
N39	N	0.872028	1.594090	0.491486
C40	C	0.000027	0.659606	-0.223518
C41	C	0.333360	0.992939	0.109816
C42	C	0.666693	1.326273	0.443149
C43	C	0.000040	0.577405	-0.216909
C44	C	0.333374	0.910738	0.116424
C45	C	0.666707	1.244071	0.449757
C46	C	0.000063	0.541196	-0.142483
C47	C	0.333396	0.874529	0.190850
C48	C	0.666730	1.207863	0.524184
C49	C	0.000081	0.587193	-0.074661
C50	C	0.333414	0.920526	0.258673
C51	C	0.666748	1.253860	0.592006
C52	C	0.000074	0.669393	-0.081270
C53	C	0.333407	1.002726	0.252063
C54	C	0.666740	1.336059	0.585397
C55	C	0.000093	0.295881	-0.115090
C56	C	0.333426	0.629214	0.218244
C57	C	0.666759	0.962547	0.551577
C58	C	0.000097	0.213675	-0.108485
C59	C	0.333431	0.547009	0.224848
C60	C	0.666764	0.880342	0.558181
C61	C	0.000058	0.203892	-0.250735
C62	C	0.333392	0.537226	0.082598
C63	C	0.666725	0.870559	0.415932
C64	C	0.000046	0.286094	-0.257337
C65	C	0.333379	0.619427	0.075996
C66	C	0.666712	0.952761	0.409329
C67	C	0.000068	0.332084	-0.189515
C68	C	0.333402	0.665417	0.143818
C69	C	0.666735	0.998750	0.477151
N70	N	0.000074	0.457173	-0.135726
N71	N	0.333407	0.790507	0.197607
N72	N	0.666741	1.123840	0.530940
N73	N	0.000063	0.416105	-0.196273
N74	N	0.333397	0.749438	0.137060
N75	N	0.666730	1.082771	0.470394
C76	C	0.250772	0.975569	-0.127074
C77	C	0.584106	1.308902	0.206259
C78	C	0.917439	1.642236	0.539592
C79	C	0.341579	0.971504	-0.131140
C80	C	0.674912	1.304838	0.202194
C81	C	1.008246	1.638171	0.535527
C82	C	0.386973	0.919298	-0.183315
C83	C	0.720306	1.252631	0.150018
C84	C	1.053639	1.585964	0.483351
C85	C	0.341555	0.871147	-0.231424
C86	C	0.674889	1.204480	0.101910
C87	C	1.008222	1.537813	0.435243
C88	C	0.250751	0.875208	-0.227354
C89	C	0.584084	1.208541	0.105979
C90	C	0.917417	1.541874	0.439313
C91	C	0.658548	0.901767	-0.200859
C92	C	0.991881	1.235101	0.132474
C93	C	1.325215	1.568434	0.465807
C94	C	0.749359	0.897711	-0.204927
C95	C	1.082693	1.231045	0.128406
C96	C	1.416026	1.564378	0.461740
C97	C	0.749376	0.998069	-0.104642
C98	C	1.082710	1.331402	0.228692
C99	C	1.416043	1.664735	0.562025
C100	C	0.658570	1.002129	-0.100580
C101	C	0.991903	1.335462	0.232753
C102	C	1.325236	1.668795	0.566087
C103	C	0.613160	0.953975	-0.148685
C104	C	0.946494	1.287308	0.184648
C105	C	1.279827	1.620641	0.517981
N106	N	0.479792	0.915143	-0.187473
N107	N	0.813125	1.248477	0.145860
N108	N	1.146458	1.581810	0.479193
N109	N	0.520343	0.958126	-0.144523
N110	N	0.853677	1.291459	0.188811
N111	N	1.187010	1.624792	0.522144
N112	N	0.794770	0.945857	-0.156821
N113	N	1.128103	1.279190	0.176512
N114	N	1.461437	1.612524	0.509846
C115	C	0.000098	0.933369	-0.022443
C116	C	0.333431	1.266703	0.310890
C117	C	0.666764	1.600036	0.644224
C118	C	0.000112	0.926341	0.065041
C119	C	0.333445	1.259674	0.398374
C120	C	0.666779	1.593007	0.731708
C121	C	0.000079	1.080200	-0.169274
C122	C	0.333413	1.413533	0.164060
C123	C	0.666746	1.746867	0.497393
C124	C	0.000082	1.167684	-0.176303
C125	C	0.333415	1.501018	0.157031
C126	C	0.666749	1.834351	0.490364
C127	C	0.000050	0.879123	0.556962
C128	C	0.333383	1.212456	0.890296
C129	C	0.666716	1.545790	1.223629
C130	C	0.000055	0.885732	0.474762
C131	C	0.333388	1.219066	0.808095
C132	C	0.666722	1.552399	1.141428
C133	C	0.000074	0.960159	0.438554
C134	C	0.333407	1.293493	0.771887
C135	C	0.666740	1.626826	1.105220
C136	C	0.000078	1.027982	0.484552
C137	C	0.333411	1.361315	0.817885
C138	C	0.666744	1.694648	1.151218
C139	C	0.000066	1.021372	0.566751
C140	C	0.333399	1.354705	0.900085
C141	C	0.666733	1.688039	1.233418
C142	C	0.000104	0.987554	0.193239
C143	C	0.333438	1.320887	0.526572
C144	C	0.666771	1.654220	0.859905
C145	C	0.000119	0.994158	0.111033
C146	C	0.333452	1.327492	0.444366
C147	C	0.666785	1.660825	0.777699
C148	C	0.000095	0.851908	0.101248
C149	C	0.333428	1.185241	0.434582
C150	C	0.666761	1.518575	0.767915
C151	C	0.000088	0.845305	0.183450
C152	C	0.333421	1.178638	0.516783
C153	C	0.666755	1.511971	0.850116
C154	C	0.000088	0.913127	0.229441
C155	C	0.333421	1.246461	0.562774
C156	C	0.666754	1.579794	0.896107
N157	N	0.000082	0.966916	0.354531
N158	N	0.333415	1.300250	0.687865
N159	N	0.666749	1.633583	1.021198
N160	N	0.000073	0.906370	0.313462
N161	N	0.333406	1.239703	0.646795
N162	N	0.666740	1.573036	0.980129
C163	C	0.000043	0.939912	0.690439
C164	C	0.333377	1.273245	1.023773
C165	C	0.666710	1.606578	1.357106
C166	C	0.000056	0.946940	0.602954
C167	C	0.333390	1.280274	0.936287
C168	C	0.666723	1.613607	1.269621
H169	H	0.000008	0.689080	-0.284124
H170	H	0.333341	1.022414	0.049209
H171	H	0.666674	1.355747	0.382543
H172	H	0.000115	0.184197	-0.047875
H173	H	0.333448	0.517531	0.285458
H174	H	0.666782	0.850864	0.618791
H175	H	0.000086	0.706838	-0.026046
H176	H	0.333419	1.040171	0.307288
H177	H	0.666752	1.373504	0.640621
N178	N	0.798332	0.841406	-0.261205
N179	N	1.131666	1.174739	0.072129
N180	N	1.464999	1.508072	0.405462
H181	H	0.782507	0.854674	-0.316940
H182	H	1.115840	1.188007	0.016394
H183	H	1.449174	1.521340	0.349727
H184	H	0.782536	0.785694	-0.247832
H185	H	1.115869	1.119027	0.085502
H186	H	1.449202	1.452361	0.418835
N187	N	0.000031	0.325155	-0.337608
N188	N	0.333364	0.658488	-0.004275
N189	N	0.666697	0.991821	0.329059
H190	H	-0.053451	0.361436	-0.341124
H191	H	0.279882	0.694769	-0.007790
H192	H	0.613216	1.028102	0.325543
H193	H	0.000057	0.283505	-0.379528
H194	H	0.333391	0.616838	-0.046194
H195	H	0.666724	0.950171	0.287139
H196	H	0.000112	0.333316	-0.059864
H197	H	0.333445	0.666649	0.273470
H198	H	0.666778	0.999983	0.606803
H199	H	0.000045	0.818516	0.586436
H200	H	0.333378	1.151849	0.919769
H201	H	0.666711	1.485183	1.253103
N202	N	0.000151	1.074435	0.071975
N203	N	0.333485	1.407769	0.405308
N204	N	0.666818	1.741102	0.738642
H205	H	-0.053311	1.082755	0.040452
H206	H	0.280022	1.416089	0.373785
H207	H	0.613355	1.749422	0.707119
H208	H	0.053678	1.077874	0.035762
H209	H	0.387012	1.411207	0.369096
H210	H	0.720345	1.744540	0.702429
N211	N	0.201767	0.823275	-0.279235
N212	N	0.535100	1.156609	0.054098
N213	N	0.868434	1.489942	0.387432
H214	H	0.244301	0.789586	-0.312906
H215	H	0.577634	1.122919	0.020427
H216	H	0.910968	1.456253	0.353760
H217	H	0.164071	0.857272	-0.314254
H218	H	0.497404	1.190605	0.019080
H219	H	0.830738	1.523939	0.352413
H220	H	0.000042	0.166439	-0.305952
H221	H	0.333375	0.499772	0.027382
H222	H	0.666708	0.833106	0.360715
N223	N	0.201815	1.031883	-0.070804
N224	N	0.535148	1.365217	0.262530
N225	N	0.868482	1.698550	0.595863
H226	H	0.244365	1.061765	-0.040945
H227	H	0.577699	1.395098	0.292388
H228	H	0.911032	1.728432	0.625722
H229	H	0.164156	1.001254	-0.032408
H230	H	0.497489	1.334588	0.300925
H231	H	0.830822	1.667921	0.634258
N232	N	0.000101	0.548150	0.005618
N233	N	0.333434	0.881483	0.338951
N234	N	0.666768	1.214817	0.672285
H235	H	0.053586	0.562200	0.033169
H236	H	0.386919	0.895534	0.366502
H237	H	0.720252	1.228867	0.699835
H238	H	0.000067	0.489109	-0.000543
H239	H	0.333400	0.822442	0.332790
H240	H	0.666734	1.155775	0.666123
N241	N	0.000119	1.060702	0.242836
N242	N	0.333453	1.394035	0.576169
N243	N	0.666786	1.727368	0.909502
H244	H	-0.053363	1.063545	0.279532
H245	H	0.279971	1.396878	0.612866
H246	H	0.613304	1.730211	0.946199
H247	H	0.000171	1.108808	0.207367
H248	H	0.333505	1.442141	0.540700
H249	H	0.666838	1.775475	0.874034
H250	H	0.621583	0.862560	-0.240030
H251	H	0.954916	1.195893	0.093303
H252	H	1.288250	1.529227	0.426636
H253	H	0.000094	1.088582	0.455065
H254	H	0.333428	1.421915	0.788398
H255	H	0.666761	1.755249	1.121731
H256	H	0.621612	1.044640	-0.058094
H257	H	0.954945	1.377973	0.275239
H258	H	1.288279	1.711306	0.608572
H259	H	0.378552	1.010708	-0.091967
H260	H	0.711885	1.344041	0.241366
H261	H	1.045219	1.677375	0.574700
H262	H	0.000047	0.830508	0.437318
H263	H	0.333380	1.163841	0.770652
H264	H	0.666714	1.497175	1.103985
H265	H	0.000063	0.784699	0.212924
H266	H	0.333396	1.118032	0.546258
H267	H	0.666730	1.451366	0.879591
N268	N	0.798357	1.050001	-0.052760
N269	N	1.131690	1.383334	0.280573
N270	N	1.465024	1.716667	0.613907
H271	H	0.836049	1.016054	-0.017690
H272	H	1.169382	1.349388	0.315643
H273	H	1.502716	1.682721	0.648976
H274	H	0.755767	1.083681	-0.019140
H275	H	1.089100	1.417015	0.314193
H276	H	1.422433	1.750348	0.647526
N277	N	0.000122	0.527795	-0.290059
N278	N	0.333455	0.861128	0.043274
N279	N	0.666788	1.194461	0.376608
H280	H	0.000133	0.563205	-0.338212
H281	H	0.333466	0.896538	-0.004878
H282	H	0.666799	1.229871	0.328455
H283	H	-0.053322	0.495828	-0.288081
H284	H	0.280012	0.829161	0.045253
H285	H	0.613345	1.162495	0.378586
N286	N	0.390511	0.814831	-0.287694
N287	N	0.723844	1.148164	0.045639
N288	N	1.057178	1.481497	0.378973
H289	H	0.454927	0.819564	-0.282975
H290	H	0.788260	1.152897	0.050358
H291	H	1.121593	1.486230	0.383692
H292	H	0.374616	0.828128	-0.343402
H293	H	0.707949	1.161461	-0.010069
H294	H	1.041282	1.494795	0.323265
H295	H	0.000094	0.796691	0.063794
H296	H	0.333427	1.130024	0.397127
H297	H	0.666761	1.463357	0.730461
H298	H	0.000068	1.076597	0.604197
H299	H	0.333401	1.409930	0.937531
H300	H	0.666734	1.743263	1.270864
