data_functionalizedCrystal
_audit_creation_method	'MofGen! by Chris Wilmer'
_symmetry_space_group_name_H-M	'P1'
_symmetry_Int_Tables_number	1
_symmetry_cell_setting	triclinic
loop_
_symmetry_equiv_pos_as_xyz
  x,y,z
_cell_length_a	14.908571
_cell_length_b	16.625545
_cell_length_c	14.908308
_cell_angle_alpha	86.733861
_cell_angle_beta	90.175053
_cell_angle_gamma	93.279815
loop_
_atom_site_label
_atom_site_type_symbol
_atom_site_fract_x
_atom_site_fract_y
_atom_site_fract_z
Zn1	Zn	1.345266	0.420778	-0.587574
Zn2	Zn	1.353838	0.548312	-0.437211
Zn3	Zn	1.203583	0.405291	-0.428572
Zn4	Zn	1.194866	0.547354	-0.578863
O5	O	1.274388	0.480434	-0.508055
O6	O	1.472229	0.444578	-0.574889
O7	O	1.341141	0.523260	-0.310241
O8	O	1.222438	0.294518	-0.449693
O9	O	1.478526	0.538277	-0.464418
O10	O	1.326533	0.305896	-0.566511
O11	O	1.230750	0.418183	-0.303893
O12	O	1.076601	0.417254	-0.441247
O13	O	1.207581	0.536644	-0.705843
O14	O	1.070196	0.521627	-0.551665
O15	O	1.318080	0.443649	-0.712243
O16	O	1.332689	0.661013	-0.455972
O17	O	1.215893	0.660309	-0.560043
C18	C	1.040773	0.467657	-0.494574
C19	C	0.940831	0.462211	-0.488828
C20	C	0.746416	0.560814	-0.592855
C21	C	0.652511	0.555700	-0.587460
C22	C	0.659113	0.446865	-0.472647
C23	C	0.753018	0.451979	-0.478042
C24	C	0.796667	0.508957	-0.538148
C25	C	0.890574	0.514074	-0.543538
C26	C	0.897174	0.405236	-0.428730
C27	C	0.803269	0.400122	-0.423334
C28	C	1.274298	0.689918	-0.508021
C29	C	1.274340	0.779543	-0.508041
C30	C	1.274481	1.107732	-0.508157
C31	C	1.274439	1.016419	-0.508127
C32	C	1.274410	0.943640	-0.508099
C33	C	1.274369	0.852322	-0.508070
C34	C	1.508915	0.493262	-0.521589
C35	C	1.608856	0.498728	-0.527356
C36	C	1.260902	0.491767	-0.742580
C37	C	1.255155	0.496597	-0.842521
C38	C	1.274493	1.270134	-0.508120
C39	C	1.274517	1.180517	-0.508174
C40	C	1.359416	0.408817	-1.036985
C41	C	1.354019	0.413353	-1.130888
C42	C	1.238961	0.510198	-1.124232
C43	C	1.244358	0.505663	-1.030329
C44	C	1.304588	0.454972	-0.986709
C45	C	1.309989	0.450441	-0.892804
C46	C	1.194927	0.547282	-0.886149
C47	C	1.189530	0.551817	-0.980052
C48	C	1.287873	0.469089	-0.274445
C49	C	1.293794	0.464042	-0.174515
H50	H	0.938098	0.363011	-0.384181
C51	C	0.938591	0.576747	-0.609645
H52	H	1.001715	0.572374	-0.605018
H53	H	0.919747	0.567114	-0.669198
H54	H	0.923942	0.629425	-0.595489
C55	C	0.611090	0.384205	-0.406529
H56	H	0.547967	0.388595	-0.411148
H57	H	0.625731	0.331523	-0.420661
H58	H	0.629936	0.393857	-0.346976
C59	C	1.376232	0.394678	-0.844822
H60	H	1.408104	0.367833	-0.888217
H61	H	1.417504	0.425885	-0.810441
H62	H	1.343947	0.355898	-0.806218
C63	C	1.414334	0.362591	-1.186194
H64	H	1.402492	0.372548	-1.248367
H65	H	1.475625	0.376951	-1.174284
H66	H	1.402082	0.306951	-1.170060
C67	C	1.425663	0.353060	-0.989000
H68	H	1.457542	0.326218	-1.032393
H69	H	1.466929	0.384272	-0.954617
H70	H	1.393381	0.314277	-0.950397
C71	C	1.172706	0.565943	-1.172224
H72	H	1.177347	0.562031	-1.235350
H73	H	1.113184	0.550096	-1.153349
H74	H	1.186723	0.620099	-1.157592
H75	H	1.140490	0.593086	-1.015580
C76	C	1.134604	0.598048	-0.830847
H77	H	1.097965	0.628888	-0.870278
H78	H	1.097550	0.563293	-0.791962
H79	H	1.171090	0.633295	-0.796193
C80	C	0.794433	0.623487	-0.658963
H81	H	0.751055	0.653639	-0.690775
H82	H	0.833030	0.658898	-0.626603
H83	H	0.828824	0.596584	-0.700310
H84	H	0.611601	0.597927	-0.632010
H85	H	0.767717	0.353730	-0.374401
