data_functionalizedCrystal
_audit_creation_method	'MofGen! by Chris Wilmer'
_symmetry_space_group_name_H-M	'P1'
_symmetry_Int_Tables_number	1
_symmetry_cell_setting	triclinic
loop_
_symmetry_equiv_pos_as_xyz
  x,y,z
_cell_length_a	10.654541
_cell_length_b	22.610064
_cell_length_c	10.654545
_cell_angle_alpha	89.993535
_cell_angle_beta	84.484678
_cell_angle_gamma	90.006960
loop_
_atom_site_label
_atom_site_type_symbol
_atom_site_fract_x
_atom_site_fract_y
_atom_site_fract_z
O1	O	1.667853	0.049163	0.176367
O2	O	1.302374	0.049168	0.193177
O3	O	1.493516	0.049165	0.002033
O4	O	1.476712	0.049166	0.367511
O5	O	1.493482	-0.049204	0.002061
O6	O	1.302340	-0.049201	0.193205
O7	O	1.667819	-0.049206	0.176395
Zn8	Zn	1.485075	-0.064822	0.184804
Zn9	Zn	1.485119	0.064784	0.184768
O10	O	1.476678	-0.049203	0.367539
C11	C	1.255559	-0.000016	0.191957
C12	C	1.116116	-0.000014	0.188266
N13	N	1.485053	-0.153274	0.184829
C14	C	1.088146	-0.000006	0.416831
C15	C	1.008652	0.000000	0.529374
C16	C	0.877634	0.000001	0.525898
C17	C	0.826108	-0.000007	0.409867
C18	C	0.905602	-0.000013	0.297324
C19	C	1.036622	-0.000012	0.300812
C20	C	0.933572	-0.000025	0.068763
C21	C	1.064590	-0.000022	0.072235
C22	C	0.882046	-0.000033	-0.047269
C23	C	0.961540	-0.000035	-0.159814
C24	C	1.092565	-0.000035	-0.156334
C25	C	1.144084	-0.000028	-0.040308
C26	C	1.569761	-0.561917	0.100142
C27	C	1.569767	-0.623837	0.100133
O28	O	1.641735	-0.655857	0.028148
N29	N	1.485118	-0.654812	0.184742
C30	C	1.400448	-0.623863	0.269356
O31	O	1.328447	-0.655895	0.341320
C32	C	1.400437	-0.561944	0.269358
C33	C	1.485100	-0.530973	0.184753
C34	C	1.654416	-0.530946	0.015543
C35	C	1.654411	-0.469030	0.015554
C36	C	1.569751	-0.438086	0.100164
C37	C	1.485095	-0.469057	0.184764
C38	C	1.315762	-0.530997	0.353965
C39	C	1.315758	-0.469074	0.353959
C40	C	1.400421	-0.438102	0.269354
C41	C	1.400430	-0.376197	0.269385
N42	N	1.485079	-0.345223	0.184776
C43	C	1.569739	-0.376167	0.100166
C44	C	1.400477	-0.753897	0.269344
C45	C	1.400494	-0.815814	0.269349
C46	C	1.569811	-0.815784	0.100124
C47	C	1.569800	-0.753865	0.100126
C48	C	1.485126	-0.722922	0.184735
C49	C	1.569723	-0.246140	0.100196
C50	C	1.569714	-0.184219	0.100218
C51	C	1.400392	-0.184254	0.269438
C52	C	1.400405	-0.246170	0.269421
C53	C	1.485075	-0.277111	0.184790
O54	O	1.328495	-0.344138	0.341330
O55	O	1.641717	-0.344127	0.028203
C56	C	1.714634	-0.000021	0.177615
C57	C	1.854078	-0.000019	0.181306
C58	C	1.492265	-0.000018	-0.044751
C59	C	1.488572	-0.000015	-0.184195
N60	N	1.485150	0.153236	0.184733
C61	C	1.488624	0.107230	-0.184233
C62	C	1.486920	0.160852	-0.249763
C63	C	1.483451	0.160853	-0.380781
C64	C	1.481682	0.107226	-0.446273
C65	C	1.483386	0.053604	-0.380744
C66	C	1.486859	0.053609	-0.249723
C67	C	1.483325	-0.053640	-0.380704
C68	C	1.486803	-0.053642	-0.249686
C69	C	1.481556	-0.107268	-0.446196
C70	C	1.483270	-0.160891	-0.380668
C71	C	1.486740	-0.160890	-0.249641
C72	C	1.488507	-0.107265	-0.184157
C73	C	1.477929	-0.000018	0.414323
C74	C	1.481621	-0.000018	0.553766
H75	H	1.194826	0.000007	0.419672
N76	N	0.748216	-0.000044	-0.050822
N77	N	0.683477	-0.041506	-0.001334
H78	H	0.588958	-0.041513	-0.003846
N79	N	1.488743	0.215623	-0.182844
N80	N	1.579060	0.227580	-0.120544
H81	H	1.580346	0.266261	-0.073283
N82	N	1.173780	-0.000035	-0.271285
N83	N	1.290759	-0.000032	-0.268171
H84	H	1.348116	-0.000032	-0.349357
N85	N	1.277911	-0.000023	-0.036729
N86	N	1.323894	-0.000016	0.066874
H87	H	1.418411	-0.000013	0.069408
N88	N	1.061266	0.000002	0.647902
N89	N	1.037253	-0.041460	0.724052
H90	H	1.074407	-0.041461	0.807764
H91	H	1.482052	0.204517	-0.434134
H92	H	1.246802	-0.443883	0.422857
H93	H	0.812909	0.000002	0.617541
H94	H	1.478842	0.107231	-0.552954
N95	N	1.313995	-0.722281	0.355774
N96	N	1.235683	-0.687734	0.315218
H97	H	1.174605	-0.665408	0.376257
N98	N	1.481433	-0.215664	-0.447562
N99	N	1.391106	-0.227621	-0.509848
H100	H	1.389806	-0.266305	-0.557097
H101	H	1.478725	-0.107263	-0.552878
H102	H	1.491339	-0.107258	-0.077476
H103	H	1.723347	-0.443817	-0.053342
H104	H	1.488108	-0.204556	-0.196293
H105	H	1.638667	-0.271325	0.031280
H106	H	0.719425	-0.000013	0.407048
N107	N	0.908930	-0.000050	-0.278335
N108	N	0.932921	-0.041518	-0.354447
H109	H	0.895763	-0.041529	-0.438157
H110	H	1.638661	-0.159004	0.031322
H111	H	1.723357	-0.556135	-0.053363
H112	H	1.638739	-0.728652	0.031233
H113	H	1.638745	-0.840990	0.031228
N114	N	1.229279	-0.562614	0.440406
N115	N	1.153702	-0.534966	0.515934
H116	H	1.092618	-0.557294	0.576991
H117	H	1.331477	-0.271387	0.338326
N118	N	1.314022	-0.847438	0.355798
N119	N	1.238447	-0.819794	0.431337
H120	H	1.177370	-0.842125	0.492392
N121	N	1.313932	-0.152630	0.355859
N122	N	1.313946	-0.097346	0.355841
H123	H	1.252878	-0.075008	0.416871
H124	H	1.491463	0.107235	-0.077553
