data_functionalizedCrystal
_audit_creation_method	'MofGen! by Chris Wilmer'
_symmetry_space_group_name_H-M	'P1'
_symmetry_Int_Tables_number	1
_symmetry_cell_setting	triclinic
loop_
_symmetry_equiv_pos_as_xyz
  x,y,z
_cell_length_a	18.215407
_cell_length_b	18.215405
_cell_length_c	18.215399
_cell_angle_alpha	89.967040
_cell_angle_beta	89.985195
_cell_angle_gamma	90.019398
loop_
_atom_site_label
_atom_site_type_symbol
_atom_site_fract_x
_atom_site_fract_y
_atom_site_fract_z
Zn1	Zn	1.125050	-0.293082	-0.416063
Zn2	Zn	1.124965	-0.416159	-0.292991
Zn3	Zn	1.001989	-0.293099	-0.293015
Zn4	Zn	1.001949	-0.416100	-0.416020
O5	O	1.063488	-0.354610	-0.354522
O6	O	1.228023	-0.309426	-0.399745
O7	O	1.108633	-0.399866	-0.190010
O8	O	1.018366	-0.190112	-0.309365
O9	O	1.227960	-0.399850	-0.309325
O10	O	1.108778	-0.190100	-0.399768
O11	O	1.018283	-0.309454	-0.190027
O12	O	0.898999	-0.309397	-0.309324
O13	O	1.018297	-0.399750	-0.519010
O14	O	0.898970	-0.399766	-0.399695
O15	O	1.108739	-0.309369	-0.519042
O16	O	1.108594	-0.519135	-0.309283
O17	O	1.018214	-0.519092	-0.399672
C18	C	0.872282	-0.354577	-0.354508
C19	C	0.790483	-0.354581	-0.354519
C20	C	0.525452	-0.307617	-0.401679
C21	C	0.602311	-0.307605	-0.401677
C22	C	0.602265	-0.401627	-0.307381
C23	C	0.525408	-0.401642	-0.307388
C24	C	0.487003	-0.354633	-0.354536
C25	C	0.640719	-0.354606	-0.354527
C26	C	0.724053	-0.354593	-0.354524
C27	C	0.403664	-0.354646	-0.354540
C28	C	1.063410	-0.545816	-0.354487
C29	C	1.063445	-0.627615	-0.354496
C30	C	1.110616	-0.815807	-0.307517
C31	C	1.110649	-0.892666	-0.307535
C32	C	1.016455	-0.892661	-0.401580
C33	C	1.016426	-0.815803	-0.401565
C34	C	1.063505	-0.777378	-0.354530
C35	C	1.063567	-0.931094	-0.354562
C36	C	1.063602	-1.014428	-0.354582
C37	C	1.063471	-0.694039	-0.354511
C38	C	1.255441	-0.354643	-0.354537
C39	C	1.337240	-0.354657	-0.354543
C40	C	1.063523	-0.354551	-0.546475
C41	C	1.063538	-0.354526	-0.628274
C42	C	1.063586	-0.162657	-0.354574
C43	C	1.063628	-0.080858	-0.354596
C44	C	1.016532	-0.307417	-0.816478
C45	C	1.016545	-0.307402	-0.893337
C46	C	1.110631	-0.401547	-0.893308
C47	C	1.110614	-0.401565	-0.816451
C48	C	1.063566	-0.354496	-0.778038
C49	C	1.063596	-0.354463	-0.931754
C50	C	1.063610	-0.354447	-1.015088
C51	C	1.063550	-0.354512	-0.694699
C52	C	1.063496	-0.354615	-0.163316
C53	C	1.063624	-0.354433	-0.081517
H54	H	0.633613	-0.269321	-0.440066
H55	H	0.978222	-0.269090	-0.785204
Br56	Br	1.174480	-0.465423	-0.945445
H57	H	1.149011	-0.923951	-0.269254
Br58	Br	0.952698	-0.243519	-0.945503
H59	H	0.978123	-0.923955	-0.439874
H60	H	1.148916	-0.439905	-0.785152
Br61	Br	0.654390	-0.465419	-0.243396
H62	H	0.494186	-0.269339	-0.440070
H63	H	0.494102	-0.439932	-0.268998
Br64	Br	0.952492	-0.763645	-0.465379
H65	H	1.148952	-0.784523	-0.269219
