data_functionalizedCrystal
_audit_creation_method	'MofGen! by Chris Wilmer'
_symmetry_space_group_name_H-M	'P1'
_symmetry_Int_Tables_number	1
_symmetry_cell_setting	triclinic
loop_
_symmetry_equiv_pos_as_xyz
  x,y,z
_cell_length_a	17.699083
_cell_length_b	7.681481
_cell_length_c	17.699083
_cell_angle_alpha	95.731310
_cell_angle_beta	83.283015
_cell_angle_gamma	84.282230
loop_
_atom_site_label
_atom_site_type_symbol
_atom_site_fract_x
_atom_site_fract_y
_atom_site_fract_z
O1	O	0.996918	0.146188	0.102878
O2	O	1.330251	0.479522	0.436212
O3	O	1.663585	0.812855	0.769545
O4	O	0.776537	0.146246	0.115334
O5	O	1.109870	0.479580	0.448667
O6	O	1.443204	0.812913	0.782000
O7	O	0.892955	0.146200	-0.001084
O8	O	1.226288	0.479533	0.332249
O9	O	1.559621	0.812867	0.665582
O10	O	0.880500	0.146234	0.219296
O11	O	1.213834	0.479568	0.552629
O12	O	1.547167	0.812901	0.885963
O13	O	0.907284	-0.146663	-0.015446
O14	O	1.240617	0.186670	0.317888
O15	O	1.573950	0.520003	0.651221
O16	O	0.790866	-0.146617	0.100972
O17	O	1.124199	0.186716	0.434305
O18	O	1.457533	0.520050	0.767639
O19	O	1.011247	-0.146675	0.088517
O20	O	1.344581	0.186658	0.421850
O21	O	1.677914	0.519991	0.755183
Zn22	Zn	0.903332	-0.193144	0.092464
Zn23	Zn	1.236665	0.140189	0.425798
Zn24	Zn	1.569998	0.473522	0.759131
Zn25	Zn	0.884452	0.192716	0.111386
Zn26	Zn	1.217786	0.526049	0.444719
Zn27	Zn	1.551119	0.859382	0.778053
O28	O	0.894830	-0.146629	0.204934
O29	O	1.228163	0.186704	0.538268
O30	O	1.561496	0.520038	0.871601
C31	C	0.755504	-0.000178	0.107707
C32	C	1.088837	0.333155	0.441040
C33	C	1.422171	0.666489	0.774374
C34	C	0.671485	-0.000156	0.106369
C35	C	1.004818	0.333177	0.439703
C36	C	1.338152	0.666510	0.773036
C37	C	0.622864	-0.000146	0.174703
C38	C	0.956197	0.333187	0.508037
C39	C	1.289530	0.666520	0.841370
C40	C	0.543921	-0.000169	0.173440
C41	C	0.877255	0.333164	0.506773
C42	C	1.210588	0.666497	0.840107
C43	C	0.513602	-0.000190	0.103842
C44	C	0.846935	0.333144	0.437176
C45	C	1.180268	0.666477	0.770509
C46	C	0.562229	-0.000205	0.035503
C47	C	0.895563	0.333128	0.368836
C48	C	1.228896	0.666462	0.702170
C49	C	0.641171	-0.000195	0.036767
C50	C	0.974504	0.333139	0.370100
C51	C	1.307837	0.666472	0.703433
C52	C	0.243869	-0.000249	0.030406
C53	C	0.577202	0.333084	0.363739
C54	C	0.910535	0.666417	0.697072
C55	C	0.164921	-0.000255	0.029148
C56	C	0.498254	0.333079	0.362481
C57	C	0.831588	0.666412	0.695814
C58	C	0.146619	-0.000224	0.167079
C59	C	0.479953	0.333109	0.500412
C60	C	0.813286	0.666443	0.833746
C61	C	0.225560	-0.000214	0.168342
C62	C	0.558894	0.333120	0.501676
C63	C	0.892227	0.666453	0.835009
C64	C	0.274182	-0.000238	0.100003
C65	C	0.607515	0.333095	0.433336
C66	C	0.940849	0.666428	0.766670
C67	C	0.359780	-0.000217	0.101374
C68	C	0.693113	0.333117	0.434707
C69	C	1.026447	0.666450	0.768040
C70	C	0.428004	-0.000199	0.102472
C71	C	0.761338	0.333135	0.435805
C72	C	1.094671	0.666468	0.769138
N73	N	0.916222	-0.456484	0.079550
N74	N	1.249555	-0.123151	0.412883
N75	N	1.582889	0.210183	0.746217
C76	C	1.032280	-0.000247	0.096144
C77	C	1.365613	0.333086	0.429477
C78	C	1.698947	0.666420	0.762810
C79	C	1.116298	-0.000257	0.097482
C80	C	1.449632	0.333076	0.430815
C81	C	1.782965	0.666410	0.764148
C82	C	0.899673	-0.000232	-0.036462
C83	C	1.233006	0.333102	0.296871
C84	C	1.566340	0.666435	0.630205
C85	C	0.898334	-0.000232	-0.120480
C86	C	1.231668	0.333101	0.212853
C87	C	1.565001	0.666435	0.546187
N88	N	0.871568	0.456055	0.124294
N89	N	1.204902	0.789388	0.457627
N90	N	1.538235	1.122722	0.790961
C91	C	0.966669	-0.000253	-0.169102
C92	C	1.300002	0.333081	0.164231
C93	C	1.633335	0.666414	0.497565
C94	C	0.965406	-0.000237	-0.248045
C95	C	1.298739	0.333097	0.085289
C96	C	1.632072	0.666430	0.418622
C97	C	0.895808	-0.000213	-0.278364
C98	C	1.229141	0.333120	0.054969
C99	C	1.562475	0.666454	0.388303
C100	C	0.827468	-0.000187	-0.229736
C101	C	1.160802	0.333146	0.103598
C102	C	1.494135	0.666480	0.436931
C103	C	0.828731	-0.000190	-0.150794
C104	C	1.162065	0.333143	0.182539
C105	C	1.495398	0.666476	0.515873
C106	C	0.822372	-0.000171	-0.548098
C107	C	1.155706	0.333162	-0.214765
C108	C	1.489039	0.666495	0.118569
C109	C	0.821114	-0.000173	-0.627046
C110	C	1.154448	0.333160	-0.293713
C111	C	1.487781	0.666493	0.039621
C112	C	0.959046	-0.000218	-0.645348
C113	C	1.292380	0.333116	-0.312015
C114	C	1.625713	0.666449	0.021318
C115	C	0.960310	-0.000221	-0.566407
C116	C	1.293643	0.333112	-0.233073
C117	C	1.626976	0.666446	0.100260
C118	C	0.891970	-0.000186	-0.517785
C119	C	1.225303	0.333147	-0.184452
C120	C	1.558636	0.666481	0.148882
C121	C	0.893340	-0.000200	-0.432186
C122	C	1.226673	0.333134	-0.098853
C123	C	1.560007	0.666467	0.234480
C124	C	0.894438	-0.000212	-0.363962
C125	C	1.227771	0.333122	-0.030628
C126	C	1.561104	0.666455	0.302705
C127	C	0.888111	-0.000193	0.240312
C128	C	1.221444	0.333140	0.573646
C129	C	1.554778	0.666473	0.906979
C130	C	0.889449	-0.000181	0.324331
C131	C	1.222782	0.333152	0.657664
C132	C	1.556116	0.666485	0.990998
H133	H	0.537538	-0.000247	-0.021166
H134	H	0.870872	0.333086	0.312168
H135	H	1.204205	0.666420	0.645501
F136	F	1.040746	-0.000295	-0.136842
F137	F	1.374080	0.333038	0.196491
F138	F	1.707413	0.666372	0.529825
H139	H	0.764437	-0.000157	-0.651729
H140	H	1.097770	0.333176	-0.318395
H141	H	1.431103	0.666509	0.014938
F142	F	0.811988	-0.445635	0.183990
F143	F	1.145321	-0.112302	0.517323
F144	F	1.478655	0.221032	0.850656
F145	F	1.038137	-0.000262	-0.299789
F146	F	1.371470	0.333072	0.033544
F147	F	1.704804	0.666405	0.366878
F148	F	0.975813	-0.554802	0.019859
F149	F	1.309146	-0.221468	0.353192
F150	F	1.642479	0.111865	0.686525
H151	H	1.016984	-0.000249	-0.541726
H152	H	1.350317	0.333084	-0.208392
H153	H	1.683650	0.666418	0.124941
H154	H	1.014692	-0.000237	-0.684946
H155	H	1.348025	0.333096	-0.351613
H156	H	1.681358	0.666429	-0.018279
H157	H	0.766725	-0.000143	-0.508519
H158	H	1.100059	0.333190	-0.175186
H159	H	1.433392	0.666523	0.158148
H160	H	0.504336	-0.000159	0.229084
H161	H	0.837670	0.333174	0.562418
H162	H	1.171003	0.666508	0.895751
F163	F	0.295605	-0.000275	-0.042328
F164	F	0.628939	0.333058	0.291006
F165	F	0.962272	0.666391	0.624339
F166	F	0.257824	-0.000181	0.242418
F167	F	0.591157	0.333152	0.575751
F168	F	0.924490	0.666486	0.909084
H169	H	0.770800	-0.000157	-0.254428
H170	H	1.104133	0.333177	0.078906
H171	H	1.437467	0.666510	0.412239
H172	H	0.107022	-0.000213	0.222724
H173	H	0.440355	0.333120	0.556057
H174	H	0.773689	0.666453	0.889390
H175	H	0.647543	-0.000128	0.231378
H176	H	0.980876	0.333205	0.564711
H177	H	1.314210	0.666538	0.898044
F178	F	0.132655	-0.000277	-0.044931
F179	F	0.465988	0.333056	0.288402
F180	F	0.799322	0.666390	0.621735
F181	F	0.692918	-0.000212	-0.035964
F182	F	1.026251	0.333122	0.297369
F183	F	1.359584	0.666455	0.630703
H184	H	0.773086	-0.000173	-0.111206
H185	H	1.106420	0.333160	0.222127
H186	H	1.439753	0.666493	0.555461
