data_functionalizedCrystal
_audit_creation_method	'MofGen! by Chris Wilmer'
_symmetry_space_group_name_H-M	'P1'
_symmetry_Int_Tables_number	1
_symmetry_cell_setting	triclinic
loop_
_symmetry_equiv_pos_as_xyz
  x,y,z
_cell_length_a	33.428889
_cell_length_b	33.428139
_cell_length_c	33.424847
_cell_angle_alpha	60.004234
_cell_angle_beta	60.008465
_cell_angle_gamma	59.994972
loop_
_atom_site_label
_atom_site_type_symbol
_atom_site_fract_x
_atom_site_fract_y
_atom_site_fract_z
O1	O	0.055565	-0.584504	0.488714
O2	O	0.555565	-0.084504	0.988714
O3	O	0.020982	-0.455083	0.393778
O4	O	0.520982	0.044917	0.893778
O5	O	0.102943	-0.536959	0.393689
O6	O	0.602943	-0.036959	0.893689
O7	O	-0.026396	-0.502628	0.488803
O8	O	0.473604	-0.002628	0.988803
O9	O	0.130140	-0.509767	0.420792
O10	O	0.630140	-0.009767	0.920792
O11	O	0.048179	-0.427891	0.420881
O12	O	0.548179	0.072109	0.920881
O13	O	0.082762	-0.557312	0.515817
O14	O	0.582762	-0.057312	1.015817
Cu15	Cu	0.067954	-0.490119	0.470823
Cu16	Cu	0.567954	0.009881	0.970823
Cu17	Cu	0.035790	-0.522276	0.438771
Cu18	Cu	0.535790	-0.022276	0.938771
O19	O	0.000801	-0.475436	0.515906
O20	O	0.500801	0.024564	1.015906
N21	N	0.090577	-0.467504	0.493370
N22	N	0.590577	0.032496	0.993370
N23	N	0.013171	-0.544895	0.416225
N24	N	0.513171	-0.044895	0.916225
C25	C	0.143377	-0.280390	0.546067
C26	C	0.643377	0.219610	1.046067
C27	C	0.143515	-0.414755	0.680369
C28	C	0.643515	0.085245	1.180369
C29	C	0.143392	-0.414735	0.546069
C30	C	0.643392	0.085265	1.046069
C31	C	0.277766	-0.414702	0.545966
C32	C	0.777766	0.085298	1.045966
C33	C	0.158177	-0.324719	0.560828
C34	C	0.658177	0.175281	1.060828
C35	C	0.158255	-0.399967	0.636038
C36	C	0.658255	0.100033	1.136038
C37	C	0.233434	-0.399936	0.560773
C38	C	0.733434	0.100064	1.060773
C39	C	0.158186	-0.399955	0.560829
C40	C	0.658186	0.100045	1.060829
C41	C	0.124540	-0.223964	0.527278
C42	C	0.624540	0.276036	1.027278
C43	C	0.124565	-0.433545	0.527281
C44	C	0.624565	0.066455	1.027281
C45	C	0.177014	-0.381145	0.579617
C46	C	0.677014	0.118855	1.079617
C47	C	0.359814	-0.400540	0.502735
C48	C	0.859814	0.099460	1.002735
C49	C	0.411105	-0.417624	0.485606
C50	C	0.911105	0.082376	0.985606
C51	C	0.411136	-0.500620	0.517255
C52	C	0.911136	-0.000620	1.017255
C53	C	0.359845	-0.483534	0.534385
C54	C	0.859845	0.016466	1.034385
C55	C	0.136887	-0.198305	0.476855
C56	C	0.636887	0.301695	0.976855
C57	C	0.119761	-0.147011	0.459777
C58	C	0.619761	0.352989	0.959777
C59	C	0.077945	-0.147038	0.543547
C60	C	0.577945	0.352962	1.043547
C61	C	0.095072	-0.198332	0.560625
C62	C	0.595072	0.301668	1.060625
C63	C	0.074134	-0.421169	0.539710
C64	C	0.574134	0.078831	1.039710
C65	C	0.057023	-0.438269	0.522625
C66	C	0.557023	0.061731	1.022625
C67	C	0.140770	-0.480120	0.480694
C68	C	0.640770	0.019880	0.980694
C69	C	0.157883	-0.463020	0.497773
C70	C	0.657883	0.036980	0.997773
C71	C	0.074339	-0.421208	0.762475
C72	C	0.574339	0.078792	1.262475
C73	C	0.057288	-0.438323	0.813768
C74	C	0.557288	0.061677	1.313768
C75	C	0.141075	-0.480183	0.813699
C76	C	0.641075	0.019817	1.313699
C77	C	0.158125	-0.463069	0.762404
C78	C	0.658125	0.036931	1.262404
C79	C	0.124756	-0.433580	0.736794
C80	C	0.624756	0.066420	1.236794
C81	C	0.334186	-0.433494	0.527123
C82	C	0.834186	0.066506	1.027123
C83	C	-0.173769	-0.597444	0.363037
C84	C	0.326231	-0.097444	0.863037
C85	C	-0.039302	-0.597595	0.228856
C86	C	0.460698	-0.097595	0.728856
C87	C	-0.039496	-0.597587	0.363300
C88	C	0.460504	-0.097587	0.863300
C89	C	-0.039512	-0.731889	0.363237
C90	C	0.460488	-0.231889	0.863237
C91	C	-0.129442	-0.612265	0.348329
C92	C	0.370558	-0.112265	0.848329
C93	C	-0.054138	-0.612351	0.273187
C94	C	0.445862	-0.112351	0.773187
C95	C	-0.054257	-0.687554	0.348440
C96	C	0.445743	-0.187554	0.848440
C97	C	-0.054247	-0.612346	0.348477
C98	C	0.445753	-0.112346	0.848477
C99	C	-0.230191	-0.578579	0.381758
C100	C	0.269809	-0.078579	0.881758
C101	C	-0.020722	-0.578803	0.382168
C102	C	0.479278	-0.078803	0.882168
C103	C	-0.073020	-0.631130	0.329609
C104	C	0.426980	-0.131130	0.829609
C105	C	-0.053713	-0.813916	0.406386
C106	C	0.446287	-0.313916	0.906386
C107	C	-0.036654	-0.865210	0.423504
C108	C	0.463346	-0.365210	0.923504
C109	C	0.046338	-0.865293	0.391984
C110	C	0.546338	-0.365293	0.891984
C111	C	0.029278	-0.813999	0.374865
C112	C	0.529278	-0.313999	0.874865
C113	C	-0.255900	-0.590938	0.432169
C114	C	0.244100	-0.090938	0.932169
C115	C	-0.307191	-0.573786	0.449185
C116	C	0.192809	-0.073786	0.949185
C117	C	-0.307060	-0.531922	0.365377
C118	C	0.192940	-0.031922	0.865377
C119	C	-0.255769	-0.549074	0.348360
C120	C	0.244231	-0.049074	0.848360
C121	C	-0.033081	-0.528377	0.369764
C122	C	0.466919	-0.028377	0.869764
C123	C	-0.016014	-0.511306	0.386922
C124	C	0.483986	-0.011306	0.886922
C125	C	0.025770	-0.595083	0.428877
C126	C	0.525770	-0.095083	0.928877
C127	C	0.008703	-0.612156	0.411725
C128	C	0.508703	-0.112156	0.911725
C129	C	-0.032755	-0.528393	0.146761
C130	C	0.467245	-0.028393	0.646761
C131	C	-0.015585	-0.511324	0.095468
C132	C	0.484415	-0.011324	0.595468
C133	C	0.026262	-0.595106	0.095516
C134	C	0.526262	-0.095106	0.595516
C135	C	0.009094	-0.612174	0.146811
C136	C	0.509094	-0.112174	0.646811
C137	C	-0.020417	-0.578816	0.172432
C138	C	0.479583	-0.078816	0.672432
C139	C	-0.020748	-0.788312	0.382068
C140	C	0.479252	-0.288312	0.882068
N141	N	0.436037	-0.467415	0.493101
N142	N	0.936037	0.032585	0.993101
O143	O	0.592642	-0.471896	0.376066
O144	O	1.092642	0.028104	0.876066
O145	O	0.592838	-0.567146	0.505347
O146	O	1.092838	-0.067146	1.005347
O147	O	0.592754	-0.566928	0.423360
O148	O	1.092754	-0.066928	0.923360
O149	O	0.592727	-0.472113	0.458053
O150	O	1.092727	0.027887	0.958053
O151	O	0.511269	-0.539835	0.450606
O152	O	1.011269	-0.039835	0.950606
O153	O	0.511353	-0.540052	0.532594
O154	O	1.011353	-0.040052	1.032594
O155	O	0.511157	-0.444802	0.403312
O156	O	1.011157	0.055198	0.903312
Cu157	Cu	0.503815	-0.489954	0.470441
Cu158	Cu	1.003815	0.010046	0.970441
Cu159	Cu	0.600180	-0.521995	0.438219
Cu160	Cu	1.100180	-0.021995	0.938219
O161	O	0.511242	-0.445020	0.485300
O162	O	1.011242	0.054980	0.985300
N163	N	0.667959	-0.544533	0.415554
N164	N	1.167959	-0.044533	0.915554
N165	N	0.090544	-0.122107	0.493359
N166	N	0.590544	0.377893	0.993359
O167	O	-0.026406	0.034587	0.488773
O168	O	0.473594	0.534587	0.988773
O169	O	0.102877	0.034627	0.393499
O170	O	0.602877	0.534627	0.893499
O171	O	0.020848	0.034591	0.393771
O172	O	0.520848	0.534591	0.893771
O173	O	0.055623	0.034623	0.488500
O174	O	0.555623	0.534623	0.988500
O175	O	0.048051	-0.046899	0.420925
O176	O	0.548051	0.453101	0.920925
O177	O	0.130080	-0.046864	0.420653
O178	O	0.630080	0.453136	0.920653
O179	O	0.000796	-0.046903	0.515927
O180	O	0.500796	0.453097	1.015927
Cu181	Cu	0.067922	-0.054324	0.470769
Cu182	Cu	0.567922	0.445676	0.970769
Cu183	Cu	0.035752	0.042048	0.438656
Cu184	Cu	0.535752	0.542048	0.938656
O185	O	0.082825	-0.046867	0.515655
O186	O	0.582825	0.453133	1.015655
N187	N	0.013123	0.109830	0.416068
N188	N	0.513123	0.609830	0.916068
N189	N	0.090892	-0.467554	0.838649
N190	N	0.590892	0.032446	1.338649
O191	O	0.086330	-0.584488	0.995334
O192	O	0.586330	-0.084488	1.495334
O193	O	-0.008902	-0.455160	0.995379
O194	O	0.491098	0.044840	1.495379
O195	O	-0.008679	-0.537172	0.995355
O196	O	0.491321	-0.037172	1.495355
O197	O	0.086107	-0.502475	0.995358
O198	O	0.586107	-0.002475	1.495358
O199	O	0.018452	-0.509990	0.913868
O200	O	0.518452	-0.009990	1.413868
O201	O	0.018230	-0.427978	0.913891
O202	O	0.518230	0.072022	1.413891
O203	O	0.113461	-0.557306	0.913847
O204	O	0.613461	-0.057306	1.413847
Cu205	Cu	0.068323	-0.490160	0.906429
Cu206	Cu	0.568323	0.009840	1.406429
Cu207	Cu	0.036237	-0.522306	1.002797
Cu208	Cu	0.536237	-0.022306	1.502797
O209	O	0.113239	-0.475293	0.913870
O210	O	0.613239	0.024707	1.413870
N211	N	0.013667	-0.544916	1.070577
N212	N	0.513667	-0.044916	1.570577
C213	C	0.031339	-0.425179	0.394250
C214	C	0.531339	0.074821	0.894250
C215	C	0.132837	-0.526572	0.394139
C216	C	0.632837	-0.026572	0.894139
C217	C	0.072405	-0.587216	0.515344
C218	C	0.572405	-0.087216	1.015344
C219	C	-0.029093	-0.485823	0.515455
C220	C	0.470907	0.014177	1.015455
C221	C	0.552119	-0.566716	0.535258
C222	C	1.052119	-0.066716	1.035258
C223	C	0.552016	-0.566447	0.433726
C224	C	1.052016	-0.066447	0.933726
C225	C	0.551873	-0.445232	0.373402
C226	C	1.051873	0.054768	0.873402
C227	C	0.551980	-0.445502	0.474933
C228	C	1.051980	0.054498	0.974933
C229	C	0.132731	-0.006013	0.393923
C230	C	0.632731	0.493987	0.893923
C231	C	0.031182	-0.006158	0.394293
C232	C	0.531182	0.493842	0.894293
C233	C	-0.029092	-0.006163	0.515469
C234	C	0.470908	0.493837	1.015469
C235	C	0.072491	-0.006119	0.515133
C236	C	0.572491	0.493881	1.015133
C237	C	-0.008451	-0.425276	0.954641
C238	C	0.491549	0.074724	1.454641
C239	C	-0.008170	-0.526833	0.954596
C240	C	0.491830	-0.026833	1.454596
C241	C	0.113010	-0.587190	0.954585
C242	C	0.613010	-0.087190	1.454585
C243	C	0.112735	-0.485627	0.954611
C244	C	0.612735	0.014373	1.454611
H245	H	0.047163	-0.397193	0.741627
H246	H	0.547163	0.102807	1.241627
O247	O	0.176957	-0.005821	0.358167
O248	O	0.676957	0.494179	0.858167
C249	C	0.198804	-0.047929	0.344817
C250	C	0.698804	0.452071	0.844817
H251	H	0.182808	-0.077591	0.376234
H252	H	0.682808	0.422409	0.876234
H253	H	0.191228	-0.038346	0.310832
H254	H	0.691228	0.461654	0.810832
C255	C	0.274155	-0.030374	0.295116
C256	C	0.774155	0.469626	0.795116
C257	C	0.254512	-0.066806	0.333704
C258	C	0.754512	0.433194	0.833704
H259	H	0.308518	-0.042018	0.288259
H260	H	0.808518	0.457982	0.788259
H261	H	0.259436	-0.002004	0.304108
H262	H	0.759436	0.497996	0.804108
H263	H	0.267837	-0.022392	0.266800
H264	H	0.767837	0.477608	0.766800
H265	H	0.260825	-0.074784	0.362021
H266	H	0.760825	0.425216	0.862021
H267	H	0.269233	-0.095179	0.324716
H268	H	0.769233	0.404821	0.824716
O269	O	-0.044061	-0.380925	0.954591
O270	O	0.455939	0.119075	1.454591
C271	C	-0.027329	-0.343984	0.912387
C272	C	0.472671	0.156016	1.412387
H273	H	0.014433	-0.357459	0.898309
H274	H	0.514433	0.142541	1.398309
H275	H	-0.041237	-0.334821	0.882838
H276	H	0.458763	0.165179	1.382838
C277	C	-0.097974	-0.281254	0.942514
C278	C	0.402026	0.218746	1.442514
C279	C	-0.046680	-0.297803	0.925224
C280	C	0.453320	0.202197	1.425224
H281	H	-0.109912	-0.252767	0.950431
H282	H	0.390088	0.247233	1.450431
H283	H	-0.109247	-0.306142	0.970946
H284	H	0.390753	0.193858	1.470946
H285	H	-0.109557	-0.273622	0.917886
H286	H	0.390443	0.226378	1.417886
H287	H	-0.035098	-0.305440	0.949854
H288	H	0.464902	0.194560	1.449854
H289	H	-0.035405	-0.272915	0.896796
H290	H	0.464595	0.227085	1.396796
O291	O	-0.043621	-0.535745	0.954532
O292	O	0.456379	-0.035745	1.454532
C293	C	-0.025771	-0.583909	0.954516
C294	C	0.474229	-0.083909	1.454516
H295	H	0.015963	-0.596807	0.939106
H296	H	0.515963	-0.096807	1.439106
H297	H	-0.038170	-0.609266	0.993599
H298	H	0.461830	-0.109266	1.493599
C299	C	-0.097157	-0.569003	0.941446
C300	C	0.402843	-0.069003	1.441446
C301	C	-0.045899	-0.584843	0.922516
C302	C	0.454101	-0.084843	1.422516
H303	H	-0.109575	-0.569580	0.921709
H304	H	0.390425	-0.069580	1.421709
H305	H	-0.109184	-0.536555	0.941459
H306	H	0.390816	-0.036555	1.441459
H307	H	-0.107483	-0.590135	0.974015
H308	H	0.392517	-0.090135	1.474015
H309	H	-0.035575	-0.563707	0.889951
H310	H	0.464425	-0.063707	1.389951
H311	H	-0.033871	-0.617288	0.922497
H312	H	0.466129	-0.117288	1.422497
O313	O	0.081290	-0.631603	0.550857
O314	O	0.581290	-0.131603	1.050857
C315	C	0.129445	-0.661983	0.533073
C316	C	0.629445	-0.161983	1.033073
H317	H	0.142359	-0.648627	0.491340
H318	H	0.642359	-0.148627	0.991340
H319	H	0.154799	-0.660628	0.545459
H320	H	0.654799	-0.160628	1.045459
C321	C	0.114492	-0.731442	0.604549
C322	C	0.614492	-0.231442	1.104549
C323	C	0.130352	-0.715041	0.553291
C324	C	0.630352	-0.215041	1.053291
H325	H	0.115053	-0.764172	0.617022
H326	H	0.615053	-0.264172	1.117022
H327	H	0.082050	-0.710975	0.616532
H328	H	0.582050	-0.210975	1.116532
H329	H	0.135623	-0.730309	0.614864
H330	H	0.635623	-0.230309	1.114864
H331	H	0.109218	-0.716168	0.542977
H332	H	0.609218	-0.216168	1.042977
H333	H	0.162791	-0.735510	0.541307
H334	H	0.662791	-0.235510	1.041307
H335	H	-0.066242	-0.478508	0.545321
H336	H	0.433758	0.021492	1.045321
H337	H	0.169984	-0.533889	0.364272
H338	H	0.669984	-0.033889	0.864272
H339	H	-0.066220	-0.006175	0.545378
H340	H	0.433780	0.493825	1.045378
O341	O	0.148620	-0.631533	0.954588
O342	O	0.648620	-0.131533	1.454588
C343	C	0.130990	-0.662020	0.954566
C344	C	0.630990	-0.162020	1.454566
H345	H	0.089256	-0.648755	0.970004
H346	H	0.589256	-0.148755	1.470004
H347	H	0.143430	-0.660685	0.915468
H348	H	0.643430	-0.160685	1.415468
C349	C	0.202558	-0.731337	0.967544
C350	C	0.702558	-0.231337	1.467544
C351	C	0.151300	-0.715047	0.986508
C352	C	0.651300	-0.215047	1.486508
H353	H	0.215088	-0.764047	0.987245
H354	H	0.715088	-0.264047	1.487245
H355	H	0.214437	-0.710797	0.967557
H356	H	0.714437	-0.210797	1.467557
H357	H	0.212919	-0.730221	0.934962
H358	H	0.712919	-0.230221	1.434962
H359	H	0.140940	-0.716158	1.019086
H360	H	0.640940	-0.216158	1.519086
H361	H	0.139420	-0.735588	0.986501
H362	H	0.639420	-0.235588	1.486501
H363	H	0.551974	-0.415718	0.482355
H364	H	1.051974	0.084282	0.982355
H365	H	0.079939	-0.006110	0.544893
H366	H	0.579939	0.493890	1.044893
H367	H	0.142514	-0.478200	0.954606
H368	H	0.642514	0.021800	1.454606
H369	H	0.016234	-0.428240	0.834672
H370	H	0.516234	0.071760	1.334672
O371	O	0.022316	-0.006265	0.358830
O372	O	0.522316	0.493735	0.858830
C373	C	0.010791	-0.048479	0.375734
C374	C	0.510791	0.451521	0.875734
H375	H	0.026624	-0.077962	0.406153
H376	H	0.526624	0.422038	0.906153
H377	H	-0.030700	-0.038953	0.390527
H378	H	0.469300	0.461047	0.890527
C379	C	0.013414	-0.031422	0.295766
C380	C	0.513414	0.468578	0.795766
C381	C	0.032864	-0.067635	0.333124
C382	C	0.532864	0.432365	0.833124
H383	H	0.027027	-0.043238	0.269482
H384	H	0.527027	0.456762	0.769482
H385	H	0.021177	-0.002981	0.284377
H386	H	0.521177	0.497019	0.784377
H387	H	-0.021161	-0.023487	0.308100
H388	H	0.478839	0.476513	0.808100
H389	H	0.067437	-0.075565	0.320791
H390	H	0.567437	0.424435	0.820791
H391	H	0.025107	-0.096079	0.344509
H392	H	0.525107	0.403921	0.844509
O393	O	0.173557	-0.508839	0.838501
O394	O	0.673557	-0.008839	1.338501
C395	C	0.221713	-0.516079	0.804836
C396	C	0.721713	-0.016079	1.304836
H397	H	0.221587	-0.510335	0.768281
H398	H	0.721587	-0.010335	1.268281
H399	H	0.236406	-0.488776	0.799375
H400	H	0.736406	0.011224	1.299375
C401	C	0.254795	-0.575683	0.869715
C402	C	0.754795	-0.075683	1.369715
C403	C	0.254640	-0.568632	0.824819
C404	C	0.754640	-0.068632	1.324819
H405	H	0.275107	-0.608099	0.882042
H406	H	0.775107	-0.108099	1.382042
H407	H	0.222351	-0.570804	0.892397
H408	H	0.722351	-0.070804	1.392397
H409	H	0.267038	-0.552927	0.865158
H410	H	0.767038	-0.052927	1.365158
H411	H	0.242392	-0.591383	0.829378
H412	H	0.742392	-0.091383	1.329378
H413	H	0.287082	-0.573516	0.802138
H414	H	0.787082	-0.073516	1.302138
O415	O	0.552271	-0.602405	0.579532
O416	O	1.052271	-0.102405	1.079532
C417	C	0.594487	-0.613742	0.588288
C418	C	1.094487	-0.113742	1.088288
H419	H	0.623945	-0.602867	0.551904
H420	H	1.123945	-0.102867	1.051904
H421	H	0.584953	-0.592755	0.611970
H422	H	1.084953	-0.092755	1.111970
C423	C	0.577505	-0.682520	0.659699
C424	C	1.077505	-0.182520	1.159699
C425	C	0.613688	-0.669168	0.615011
C426	C	1.113688	-0.169168	1.115011
H427	H	0.589348	-0.716709	0.676185
H428	H	1.089348	-0.216709	1.176185
H429	H	0.549063	-0.674881	0.653801
H430	H	1.049063	-0.174881	1.153801
H431	H	0.569564	-0.665028	0.679428
H432	H	1.069564	-0.165028	1.179428
H433	H	0.621624	-0.686656	0.595281
H434	H	1.121624	-0.186656	1.095281
H435	H	0.642132	-0.676811	0.620906
H436	H	1.142132	-0.176811	1.120906
O437	O	0.207087	-0.475061	0.737383
O438	O	0.707087	0.024939	1.237383
C439	C	0.214983	-0.453625	0.686619
C440	C	0.714983	0.046375	1.186619
H441	H	0.181311	-0.445898	0.679642
H442	H	0.681311	0.054102	1.179642
H443	H	0.221804	-0.417838	0.672061
H444	H	0.721804	0.082162	1.172061
C445	C	0.301239	-0.498479	0.668825
C446	C	0.801239	0.001521	1.168825
C447	C	0.259883	-0.488993	0.660256
C448	C	0.759883	0.011007	1.160256
H449	H	0.328936	-0.520294	0.652562
H450	H	0.828936	-0.020294	1.152562
H451	H	0.295920	-0.512919	0.703026
H452	H	0.795920	-0.012919	1.203026
H453	H	0.306916	-0.468654	0.656694
H454	H	0.806916	0.031346	1.156694
H455	H	0.254203	-0.518816	0.672393
H456	H	0.754203	-0.018816	1.172393
H457	H	0.265203	-0.474558	0.626057
H458	H	0.765203	0.025442	1.126057
O459	O	0.041703	-0.392521	0.568347
O460	O	0.541703	0.107479	1.068347
C461	C	-0.006478	-0.385273	0.575657
C462	C	0.493522	0.114727	1.075657
H463	H	-0.006412	-0.390999	0.544741
H464	H	0.493588	0.109001	1.044741
H465	H	-0.021143	-0.412583	0.612199
H466	H	0.478857	0.087417	1.112199
C467	C	-0.039465	-0.325696	0.614015
C468	C	0.460535	0.174304	1.114015
C469	C	-0.039385	-0.332725	0.576041
C470	C	0.460615	0.167275	1.076041
H471	H	-0.059765	-0.293283	0.614254
H472	H	0.440235	0.206717	1.114254
H473	H	-0.007005	-0.330581	0.609092
H474	H	0.492995	0.169419	1.109092
H475	H	-0.051685	-0.348458	0.644462
H476	H	0.448315	0.151542	1.144462
H477	H	-0.027159	-0.309967	0.545594
H478	H	0.472841	0.190033	1.045594
H479	H	-0.071843	-0.327835	0.580959
H480	H	0.428157	0.172165	1.080959
O481	O	0.551942	-0.601939	0.424880
O482	O	1.051942	-0.101939	0.924880
C483	C	0.509719	-0.585086	0.413382
C484	C	1.009719	-0.085086	0.913382
H485	H	0.480215	-0.554679	0.429221
H486	H	0.980215	-0.054679	0.929221
H487	H	0.519209	-0.570292	0.371893
H488	H	1.019209	-0.070292	0.871893
C489	C	0.526865	-0.665082	0.416018
C490	C	1.026865	-0.165082	0.916018
C491	C	0.490628	-0.627739	0.435476
C492	C	0.990628	-0.127739	0.935476
H493	H	0.515090	-0.691393	0.429644
H494	H	1.015090	-0.191393	0.929644
H495	H	0.555314	-0.676436	0.423763
H496	H	1.055314	-0.176436	0.923763
H497	H	0.534771	-0.652748	0.381445
H498	H	1.034771	-0.152748	0.881445
H499	H	0.482727	-0.640072	0.470048
H500	H	0.982727	-0.140072	0.970048
H501	H	0.462178	-0.616388	0.427738
H502	H	0.962178	-0.116388	0.927738
O503	O	0.008039	-0.426192	0.534613
O504	O	0.508039	0.073808	1.034613
C505	C	-0.004402	-0.400370	0.491539
C506	C	0.495598	0.099630	0.991539
H507	H	0.024490	-0.382998	0.460711
H508	H	0.524490	0.117002	0.960711
H509	H	-0.006114	-0.426742	0.480745
H510	H	0.493886	0.073258	0.980745
C511	C	-0.090196	-0.381344	0.538573
C512	C	0.409804	0.118656	1.038573
C513	C	-0.054712	-0.360003	0.500711
C514	C	0.445288	0.139997	1.000711
H515	H	-0.121230	-0.356445	0.544231
H516	H	0.378770	0.143555	1.044231
H517	H	-0.081815	-0.398742	0.567594
H518	H	0.418185	0.101258	1.067594
H519	H	-0.091616	-0.403320	0.529574
H520	H	0.408384	0.096680	1.029574
H521	H	-0.053288	-0.338033	0.509714
H522	H	0.446712	0.161967	1.009714
H523	H	-0.063094	-0.342600	0.471693
H524	H	0.436906	0.157400	0.971693
H525	H	0.431972	-0.390789	0.465748
H526	H	0.931972	0.109211	0.965748
H527	H	0.167905	-0.504126	0.456671
H528	H	0.667905	-0.004126	0.956671
H529	H	0.338981	-0.510371	0.554246
H530	H	0.838981	-0.010371	1.054246
O531	O	0.206888	-0.475097	0.485667
O532	O	0.706888	0.024903	0.985667
C533	C	0.232625	-0.504765	0.455945
C534	C	0.732625	-0.004765	0.955945
H535	H	0.208168	-0.523428	0.462513
H536	H	0.708168	-0.023428	0.962513
H537	H	0.243636	-0.481084	0.415771
H538	H	0.743636	0.018916	0.915771
C539	C	0.308939	-0.521029	0.460808
C540	C	0.808939	-0.021029	0.960808
C541	C	0.278902	-0.543954	0.468878
C542	C	0.778902	-0.043954	0.968878
H543	H	0.337486	-0.545201	0.468784
H544	H	0.837486	-0.045201	0.968784
H545	H	0.291600	-0.501039	0.480830
H546	H	0.791600	-0.001039	0.980830
H547	H	0.318110	-0.501295	0.427330
H548	H	0.818110	-0.001295	0.927330
H549	H	0.269727	-0.563682	0.502357
H550	H	0.769727	-0.063682	1.002357
H551	H	0.296241	-0.563948	0.448862
H552	H	0.796241	-0.063948	0.948862
H553	H	0.338923	-0.359792	0.496821
H554	H	0.838923	0.140208	0.996821
O555	O	0.435986	-0.549246	0.524366
O556	O	0.935986	-0.049246	1.024366
C557	C	0.402367	-0.574669	0.549554
C558	C	0.902367	-0.074669	1.049554
H559	H	0.365812	-0.552302	0.570590
H560	H	0.865812	-0.052302	1.070590
H561	H	0.396887	-0.580605	0.522125
H562	H	0.896887	-0.080605	1.022125
C563	C	0.467324	-0.652107	0.559867
C564	C	0.967324	-0.152107	1.059867
C565	C	0.422428	-0.624637	0.585708
C566	C	0.922428	-0.124637	1.085708
H567	H	0.479699	-0.682931	0.582167
H568	H	0.979699	-0.182931	1.082167
H569	H	0.489974	-0.634980	0.542896
H570	H	0.989974	-0.134980	1.042896
H571	H	0.462751	-0.657049	0.537011
H572	H	0.962751	-0.157049	1.037011
H573	H	0.427003	-0.619691	0.608560
H574	H	0.927003	-0.119691	1.108560
H575	H	0.399779	-0.641765	0.602684
H576	H	0.899779	-0.141765	1.102684
O577	O	-0.331834	-0.503252	0.332869
O578	O	0.168166	-0.003252	0.832869
C579	C	-0.298142	-0.496040	0.284725
C580	C	0.201858	0.003960	0.784725
H581	H	-0.261596	-0.501808	0.284882
H582	H	0.238404	-0.001808	0.784882
H583	H	-0.292675	-0.523342	0.270022
H584	H	0.207325	-0.023342	0.770022
C585	C	-0.362978	-0.436406	0.251590
C586	C	0.137022	0.063594	0.751590
C587	C	-0.318092	-0.443486	0.251783
C588	C	0.181908	0.056514	0.751783
H589	H	-0.375285	-0.403989	0.231268
H590	H	0.124715	0.096011	0.731268
H591	H	-0.385677	-0.441266	0.284025
H592	H	0.114323	0.058734	0.784025
H593	H	-0.358416	-0.459161	0.239338
H594	H	0.141584	0.040839	0.739338
H595	H	-0.322656	-0.420736	0.264040
H596	H	0.177344	0.079264	0.764040
H597	H	-0.295394	-0.438621	0.219348
H598	H	0.204606	0.061379	0.719348
O599	O	0.551735	-0.409569	0.329113
O600	O	1.051735	0.090431	0.829113
C601	C	0.509504	-0.398215	0.320374
C602	C	1.009504	0.101785	0.820374
H603	H	0.495479	-0.430625	0.343238
H604	H	0.995479	0.069375	0.843238
H605	H	0.479937	-0.364638	0.330956
H606	H	0.979937	0.135362	0.830956
C607	C	0.539481	-0.347582	0.237567
C608	C	1.039481	0.152418	0.737567
C609	C	0.522259	-0.387390	0.265646
C610	C	1.022259	0.112610	0.765646
H611	H	0.547348	-0.340902	0.203808
H612	H	1.047348	0.159098	0.703808
H613	H	0.567933	-0.355229	0.243455
H614	H	1.067933	0.144771	0.743455
H615	H	0.514839	-0.319606	0.246391
H616	H	1.014839	0.180394	0.746391
H617	H	0.546902	-0.415367	0.256827
H618	H	1.046902	0.084633	0.756827
H619	H	0.493811	-0.379747	0.259756
H620	H	0.993811	0.120253	0.759756
H621	H	0.129813	-0.126117	0.418717
H622	H	0.629813	0.373883	0.918717
O623	O	0.165488	-0.223126	0.444394
O624	O	0.665488	0.276874	0.944394
C625	C	0.172718	-0.189478	0.396226
C626	C	0.672718	0.310522	0.896226
H627	H	0.141783	-0.152922	0.396341
H628	H	0.641783	0.347078	0.896341
H629	H	0.209252	-0.184007	0.381503
H630	H	0.709252	0.315993	0.881503
C631	C	0.211049	-0.254392	0.363201
C632	C	0.711049	0.245608	0.863201
C633	C	0.173051	-0.209494	0.363341
C634	C	0.673051	0.290506	0.863341
H635	H	0.211257	-0.266739	0.342915
H636	H	0.711257	0.233261	0.842915
H637	H	0.206180	-0.277062	0.395652
H638	H	0.706180	0.222938	0.895652
H639	H	0.241490	-0.249827	0.350932
H640	H	0.741490	0.250173	0.850932
H641	H	0.142611	-0.214061	0.375615
H642	H	0.642611	0.285939	0.875615
H643	H	0.177915	-0.186825	0.330891
H644	H	0.677915	0.313175	0.830891
H645	H	0.085016	-0.219221	0.601683
H646	H	0.585016	0.280779	1.101683
O647	O	0.049311	-0.122213	0.576006
O648	O	0.549311	0.377787	1.076006
C649	C	0.042104	-0.155861	0.624174
C650	C	0.542104	0.344139	1.124174
H651	H	0.047840	-0.192427	0.624082
H652	H	0.547840	0.307573	1.124082
H653	H	0.069427	-0.161309	0.638839
H654	H	0.569427	0.338691	1.138839
C655	C	-0.017473	-0.090955	0.657220
C656	C	0.482527	0.409045	1.157220
C657	C	-0.010431	-0.135864	0.657107
C658	C	0.489569	0.364136	1.157107
H659	H	-0.049878	-0.078619	0.677535
H660	H	0.450122	0.421381	1.177535
H661	H	-0.012616	-0.068285	0.624768
H662	H	0.487384	0.431715	1.124768
H663	H	0.005300	-0.095501	0.669439
H664	H	0.505300	0.404499	1.169439
H665	H	-0.033200	-0.131316	0.644882
H666	H	0.466800	0.368684	1.144882
H667	H	-0.015293	-0.158533	0.689558
H668	H	0.484707	0.341467	1.189558
H669	H	-0.025639	-0.470264	0.074572
H670	H	0.474361	0.029736	0.574572
H671	H	-0.056788	-0.501226	0.167618
H672	H	0.443212	-0.001226	0.667618
H673	H	0.050281	-0.622271	0.074658
H674	H	0.550281	-0.122271	0.574658
H675	H	-0.026079	-0.470245	0.376824
H676	H	0.473921	0.029755	0.876824
H677	H	0.019144	-0.653235	0.167709
H678	H	0.519144	-0.153235	0.667709
H679	H	-0.057039	-0.501216	0.345698
H680	H	0.442961	-0.001216	0.845698
H681	H	0.049734	-0.622248	0.452940
H682	H	0.549734	-0.122248	0.952940
H683	H	0.018765	-0.653217	0.421828
H684	H	0.518765	-0.153217	0.921828
H685	H	0.087072	-0.886205	0.386121
H686	H	0.587072	-0.386205	0.886121
O687	O	0.061358	-0.789185	0.351193
O688	O	0.561358	-0.289185	0.851193
C689	C	0.096212	-0.801745	0.308926
C690	C	0.596212	-0.301745	0.808926
H691	H	0.098612	-0.838977	0.313548
H692	H	0.598612	-0.338977	0.813548
H693	H	0.084676	-0.772874	0.275665
H694	H	0.584676	-0.272874	0.775665
C695	C	0.143677	-0.758442	0.295765
C696	C	0.643677	-0.258442	0.795765
C697	C	0.146628	-0.804173	0.301444
C698	C	0.646628	-0.304173	0.801444
H699	H	0.174776	-0.759938	0.291148
H700	H	0.674776	-0.259938	0.791148
H701	H	0.120195	-0.749979	0.324240
H702	H	0.620195	-0.249979	0.824240
H703	H	0.134062	-0.734388	0.268048
H704	H	0.634062	-0.234388	0.768048
H705	H	0.156238	-0.828225	0.329164
H706	H	0.656238	-0.328225	0.829164
H707	H	0.170114	-0.812641	0.272973
H708	H	0.670114	-0.312641	0.772973
O709	O	-0.068744	-0.890009	0.447136
O710	O	0.431256	-0.390009	0.947136
C711	C	-0.116556	-0.856339	0.449812
C712	C	0.383444	-0.356339	0.949812
H713	H	-0.118547	-0.819783	0.446462
H714	H	0.381453	-0.319783	0.946462
H715	H	-0.126084	-0.850880	0.418696
H716	H	0.373916	-0.350880	0.918696
C717	C	-0.150779	-0.921215	0.503408
C718	C	0.349221	-0.421215	1.003408
C719	C	-0.153225	-0.876318	0.499297
C720	C	0.346775	-0.376318	0.999297
H721	H	-0.173399	-0.933539	0.533931
H722	H	0.326601	-0.433539	1.033931
H723	H	-0.118567	-0.943900	0.501603
H724	H	0.381433	-0.443900	1.001603
H725	H	-0.158718	-0.916660	0.477475
H726	H	0.341282	-0.416660	0.977475
H727	H	-0.145280	-0.880875	0.525226
H728	H	0.354720	-0.380875	1.025226
H729	H	-0.185437	-0.853634	0.501107
H730	H	0.314563	-0.353634	1.001107
O731	O	-0.102288	-0.788902	0.413287
O732	O	0.397712	-0.288902	0.913287
C733	C	-0.109183	-0.759245	0.367465
C734	C	0.390817	-0.259245	0.867465
H735	H	-0.073890	-0.751606	0.338935
H736	H	0.426110	-0.251606	0.838935
H737	H	-0.119272	-0.778994	0.356027
H738	H	0.380728	-0.278994	0.856027
C739	C	-0.194109	-0.719872	0.406444
C740	C	0.305891	-0.219872	0.906444
C741	C	-0.150763	-0.710487	0.371403
C742	C	0.349237	-0.210487	0.871403
H743	H	-0.219759	-0.689796	0.408873
H744	H	0.280241	-0.189796	0.908873
H745	H	-0.189465	-0.739853	0.437315
H746	H	0.310535	-0.239853	0.937315
H747	H	-0.202510	-0.736331	0.396908
H748	H	0.297490	-0.236331	0.896908
H749	H	-0.142360	-0.694033	0.380943
H750	H	0.357640	-0.194033	0.880943
H751	H	-0.155407	-0.690501	0.340534
H752	H	0.344593	-0.190501	0.840534
H753	H	-0.328125	-0.583847	0.490235
H754	H	0.171875	-0.083847	0.990235
O755	O	-0.231130	-0.619575	0.464677
O756	O	0.268870	-0.119575	0.964677
C757	C	-0.264822	-0.626810	0.512822
C758	C	0.235178	-0.126810	1.012822
H759	H	-0.301362	-0.595856	0.512673
H760	H	0.198638	-0.095856	1.012673
H761	H	-0.270304	-0.663332	0.527505
H762	H	0.229696	-0.163332	1.027505
C763	C	-0.199980	-0.665211	0.545964
C764	C	0.300020	-0.165211	1.045964
C765	C	-0.244858	-0.627190	0.545781
C766	C	0.255142	-0.127190	1.045781
H767	H	-0.187666	-0.665447	0.566295
H768	H	0.312334	-0.165447	1.066295
H769	H	-0.177281	-0.660338	0.513528
H770	H	0.322719	-0.160338	1.013528
H771	H	-0.204555	-0.695641	0.558198
H772	H	0.295445	-0.195641	1.058198
H773	H	-0.240282	-0.596760	0.533541
H774	H	0.259718	-0.096760	1.033541
H775	H	-0.267557	-0.632057	0.578215
H776	H	0.232443	-0.132057	1.078215
O777	O	0.022578	-0.380807	0.358688
O778	O	0.522578	0.119193	0.858688
C779	C	0.056201	-0.359040	0.345467
C780	C	0.556201	0.140960	0.845467
H781	H	0.070549	-0.375264	0.376864
H782	H	0.570549	0.124736	0.876864
H783	H	0.088102	-0.366428	0.311377
H784	H	0.588102	0.133572	0.811377
C785	C	0.012831	-0.283440	0.296098
C786	C	0.512831	0.216560	0.796098
C787	C	0.030451	-0.303364	0.334663
C788	C	0.530451	0.196636	0.834663
H789	H	-0.003052	-0.249097	0.289431
H790	H	0.496948	0.250903	0.789431
H791	H	-0.009821	-0.298105	0.305003
H792	H	0.490179	0.201895	0.805003
H793	H	0.039418	-0.289602	0.267694
H794	H	0.539418	0.210398	0.767694
H795	H	0.003863	-0.297208	0.363067
H796	H	0.503863	0.202792	0.863067
H797	H	0.053097	-0.288697	0.325762
H798	H	0.553097	0.211303	0.825762
H799	H	-0.234840	-0.539009	0.307312
H800	H	0.265160	-0.039009	0.807312
