data_functionalizedCrystal
_audit_creation_method	'MofGen! by Chris Wilmer'
_symmetry_space_group_name_H-M	'P1'
_symmetry_Int_Tables_number	1
_symmetry_cell_setting	triclinic
loop_
_symmetry_equiv_pos_as_xyz
  x,y,z
_cell_length_a	13.897449
_cell_length_b	13.897448
_cell_length_c	13.897441
_cell_angle_alpha	90.029627
_cell_angle_beta	90.021257
_cell_angle_gamma	90.018519
loop_
_atom_site_label
_atom_site_type_symbol
_atom_site_fract_x
_atom_site_fract_y
_atom_site_fract_z
Zn1	Zn	1.474682	-0.383972	0.545450
Zn2	Zn	1.724682	-0.133972	0.795450
Zn3	Zn	1.974682	0.116028	1.045450
Zn4	Zn	2.224682	0.366028	1.295450
Zn5	Zn	1.474582	-0.545291	0.384151
Zn6	Zn	1.724582	-0.295291	0.634151
Zn7	Zn	1.974582	-0.045291	0.884151
Zn8	Zn	2.224582	0.204709	1.134151
Zn9	Zn	1.313377	-0.384014	0.384161
Zn10	Zn	1.563377	-0.134014	0.634161
Zn11	Zn	1.813377	0.115986	0.884161
Zn12	Zn	2.063377	0.365986	1.134161
Zn13	Zn	1.313353	-0.545229	0.545396
Zn14	Zn	1.563353	-0.295229	0.795396
Zn15	Zn	1.813353	-0.045229	1.045396
Zn16	Zn	2.063353	0.204771	1.295396
O17	O	1.393999	-0.464627	0.464789
O18	O	1.643999	-0.214627	0.714789
O19	O	1.893999	0.035373	0.964789
O20	O	2.143999	0.285373	1.214789
O21	O	1.609651	-0.405380	0.524071
O22	O	1.859651	-0.155380	0.774071
O23	O	2.109651	0.094620	1.024071
O24	O	2.359651	0.344620	1.274071
O25	O	1.453166	-0.523941	0.249171
O26	O	1.703166	-0.273941	0.499171
O27	O	1.953166	-0.023941	0.749171
O28	O	2.203166	0.226059	0.999171
O29	O	1.334827	-0.249027	0.405582
O30	O	1.584827	0.000973	0.655582
O31	O	1.834827	0.250973	0.905582
O32	O	2.084827	0.500973	1.155582
O33	O	1.609577	-0.523900	0.405566
O34	O	1.859577	-0.273900	0.655566
O35	O	2.109577	-0.023900	0.905566
O36	O	2.359577	0.226100	1.155566
O37	O	1.453337	-0.248996	0.524081
O38	O	1.703337	0.001004	0.774081
O39	O	1.953337	0.251004	1.024081
O40	O	2.203337	0.501004	1.274081
O41	O	1.334730	-0.405451	0.249178
O42	O	1.584730	-0.155451	0.499178
O43	O	1.834730	0.094549	0.749178
O44	O	2.084730	0.344549	0.999178
O45	O	1.178393	-0.405391	0.405530
O46	O	1.428393	-0.155391	0.655530
O47	O	1.678393	0.094609	0.905530
O48	O	1.928393	0.344609	1.155530
O49	O	1.334785	-0.523795	0.680385
O50	O	1.584785	-0.273795	0.930385
O51	O	1.834785	-0.023795	1.180385
O52	O	2.084785	0.226205	1.430385
O53	O	1.178375	-0.523835	0.523990
O54	O	1.428375	-0.273835	0.773990
O55	O	1.678375	-0.023835	1.023990
O56	O	1.928375	0.226165	1.273990
O57	O	1.453313	-0.405320	0.680424
O58	O	1.703313	-0.155320	0.930424
O59	O	1.953313	0.094680	1.180424
O60	O	2.203313	0.344680	1.430424
O61	O	1.453143	-0.680264	0.405514
O62	O	1.703143	-0.430264	0.655514
O63	O	1.953143	-0.180264	0.905514
O64	O	2.203143	0.069736	1.155514
O65	O	1.334689	-0.680219	0.523980
O66	O	1.584689	-0.430219	0.773980
O67	O	1.834689	-0.180219	1.023980
O68	O	2.084689	0.069781	1.273980
C69	C	1.143384	-0.464612	0.464756
C70	C	1.393384	-0.214612	0.714756
C71	C	1.643384	0.035388	0.964756
C72	C	1.893384	0.285388	1.214756
C73	C	1.036171	-0.464629	0.464764
C74	C	1.286171	-0.214629	0.714764
C75	C	1.536171	0.035371	0.964764
C76	C	1.786171	0.285371	1.214764
C77	C	0.949101	-0.464632	0.464780
C78	C	1.199101	-0.214632	0.714780
C79	C	1.449101	0.035368	0.964780
C80	C	1.699101	0.285368	1.214780
C81	C	0.839868	-0.464639	0.464810
C82	C	1.089868	-0.214639	0.714810
C83	C	1.339868	0.035361	0.964810
C84	C	1.589868	0.285361	1.214810
C85	C	1.393928	-0.715241	0.464761
C86	C	1.643928	-0.465241	0.714761
C87	C	1.893928	-0.215241	0.964761
C88	C	2.143928	0.034759	1.214761
C89	C	1.393987	-0.822455	0.464782
C90	C	1.643987	-0.572455	0.714782
C91	C	1.893987	-0.322455	0.964782
C92	C	2.143987	-0.072455	1.214782
C93	C	1.394088	-1.018750	0.464842
C94	C	1.644088	-0.768750	0.714842
C95	C	1.894088	-0.518750	0.964842
C96	C	2.144088	-0.268750	1.214842
C97	C	1.394029	-0.909517	0.464812
C98	C	1.644029	-0.659517	0.714812
C99	C	1.894029	-0.409517	0.964812
C100	C	2.144029	-0.159517	1.214812
C101	C	1.645592	-0.464642	0.464824
C102	C	1.895592	-0.214642	0.714824
C103	C	2.145592	0.035358	0.964824
C104	C	2.395592	0.285358	1.214824
C105	C	1.752806	-0.464649	0.464838
C106	C	2.002806	-0.214649	0.714838
C107	C	2.252806	0.035351	0.964838
C108	C	2.502806	0.285351	1.214838
C109	C	1.394058	-0.464546	0.716382
C110	C	1.644058	-0.214546	0.966382
C111	C	1.894058	0.035454	1.216382
C112	C	2.144058	0.285454	1.466382
C113	C	1.394083	-0.464511	0.823596
C114	C	1.644083	-0.214511	1.073596
C115	C	1.894083	0.035489	1.323596
C116	C	2.144083	0.285489	1.573596
C117	C	1.394096	-0.213034	0.464838
C118	C	1.644096	0.036966	0.714838
C119	C	1.894096	0.286966	0.964838
C120	C	2.144096	0.536966	1.214838
C121	C	1.394137	-0.105820	0.464859
C122	C	1.644137	0.144180	0.714859
C123	C	1.894137	0.394180	0.964859
C124	C	2.144137	0.644180	1.214859
C125	C	1.393995	-0.464638	0.214175
C126	C	1.643995	-0.214638	0.464175
C127	C	1.893995	0.035362	0.714175
C128	C	2.143995	0.285362	0.964175
C129	C	1.394157	-0.464400	0.106962
C130	C	1.644157	-0.214400	0.356962
C131	C	1.894157	0.035600	0.606962
C132	C	2.144157	0.285600	0.856962
C133	C	1.394103	-0.464484	0.910666
C134	C	1.644103	-0.214484	1.160666
C135	C	1.894103	0.035516	1.410666
C136	C	2.144103	0.285516	1.660666
C137	C	1.394130	-0.464440	1.019899
C138	C	1.644130	-0.214440	1.269899
C139	C	1.894130	0.035560	1.519899
C140	C	2.144130	0.285560	1.769899
