data_functionalizedCrystal
_audit_creation_method	'MofGen! by Chris Wilmer'
_symmetry_space_group_name_H-M	'P1'
_symmetry_Int_Tables_number	1
_symmetry_cell_setting	triclinic
loop_
_symmetry_equiv_pos_as_xyz
  x,y,z
_cell_length_a	13.897449
_cell_length_b	18.050590
_cell_length_c	13.897441
_cell_angle_alpha	89.966994
_cell_angle_beta	89.976606
_cell_angle_gamma	90.019379
loop_
_atom_site_label
_atom_site_type_symbol
_atom_site_fract_x
_atom_site_fract_y
_atom_site_fract_z
Zn1	Zn	1.474697	-0.295619	-0.545434
Zn2	Zn	1.974697	0.204381	-0.045434
Zn3	Zn	1.474588	-0.419824	-0.384128
Zn4	Zn	1.974588	0.080176	0.115872
Zn5	Zn	1.313386	-0.295654	-0.384144
Zn6	Zn	1.813386	0.204346	0.115856
Zn7	Zn	1.313365	-0.419774	-0.545373
Zn8	Zn	1.813365	0.080226	-0.045373
O9	O	1.394009	-0.357718	-0.464770
O10	O	1.894009	0.142282	0.035230
O11	O	1.609664	-0.312102	-0.524054
O12	O	2.109664	0.187898	-0.024054
O13	O	1.453168	-0.403387	-0.249149
O14	O	1.953168	0.096613	0.250851
O15	O	1.334838	-0.191725	-0.405572
O16	O	1.834838	0.308275	0.094428
O17	O	1.609584	-0.403354	-0.405544
O18	O	2.109584	0.096646	0.094456
O19	O	1.453353	-0.191699	-0.524070
O20	O	1.953353	0.308301	-0.024070
O21	O	1.334733	-0.312160	-0.249161
O22	O	1.834733	0.187840	0.250839
O23	O	1.178402	-0.312112	-0.405513
O24	O	1.678402	0.187888	0.094487
O25	O	1.334803	-0.403269	-0.680363
O26	O	1.834803	0.096731	-0.180363
O27	O	1.178386	-0.403303	-0.523967
O28	O	1.678386	0.096697	-0.023967
O29	O	1.453333	-0.312053	-0.680407
O30	O	1.953333	0.187947	-0.180407
O31	O	1.453148	-0.523742	-0.405486
O32	O	1.953148	-0.023742	0.094514
O33	O	1.334698	-0.523705	-0.523952
O34	O	1.834698	-0.023705	-0.023952
C35	C	1.143395	-0.357706	-0.464736
C36	C	1.643395	0.142294	0.035264
C37	C	1.036181	-0.357719	-0.464745
C38	C	1.536181	0.142281	0.035255
C39	C	0.949111	-0.357722	-0.464761
C40	C	1.449111	0.142278	0.035239
C41	C	0.839879	-0.357727	-0.464790
C42	C	1.339879	0.142273	0.035210
C43	C	1.393935	-0.550670	-0.464731
C44	C	1.893935	-0.050670	0.035269
C45	C	1.393992	-0.633216	-0.464747
C46	C	1.893992	-0.133216	0.035253
C47	C	1.458539	-0.832659	-0.400415
C48	C	1.958539	-0.332659	0.099585
C49	C	1.482104	-0.881986	-0.488452
C50	C	1.982104	-0.381986	0.011548
C51	C	1.394046	-0.784346	-0.464786
C52	C	1.894046	-0.284346	0.035214
C53	C	1.370579	-0.882101	-0.376789
C54	C	1.870579	-0.382101	0.123211
C55	C	1.394101	-0.930331	-0.464815
C56	C	1.894101	-0.430331	0.035185
C57	C	1.417657	-0.832585	-0.552868
C58	C	1.917657	-0.332585	-0.052868
C59	C	1.306091	-0.832696	-0.441146
C60	C	1.806091	-0.332696	0.058854
C61	C	1.329623	-0.882000	-0.529243
C62	C	1.829623	-0.382000	-0.029243
C63	C	1.394017	-0.700248	-0.464767
C64	C	1.894017	-0.200248	0.035233
C65	C	1.394130	-1.014427	-0.464843
C66	C	1.894130	-0.514427	0.035157
C67	C	1.645602	-0.357730	-0.464804
C68	C	2.145602	0.142270	0.035196
C69	C	1.752816	-0.357735	-0.464819
C70	C	2.252816	0.142265	0.035181
C71	C	1.394078	-0.357652	-0.716363
C72	C	1.894078	0.142348	-0.216363
C73	C	1.394107	-0.357624	-0.823577
C74	C	1.894107	0.142376	-0.323577
C75	C	1.394110	-0.164012	-0.464830
C76	C	1.894110	0.335988	0.035170
C77	C	1.394153	-0.081466	-0.464855
C78	C	1.894153	0.418534	0.035145
C79	C	1.394133	-0.357574	-1.019872
C80	C	1.894133	0.142426	-0.519872
C81	C	1.394115	-0.357604	-0.910640
C82	C	1.894115	0.142396	-0.410640
C83	C	1.393996	-0.357729	-0.214156
C84	C	1.893996	0.142271	0.285844
C85	C	1.394154	-0.357548	-0.106942
C86	C	1.894154	0.142452	0.393058
H87	H	1.556510	-0.903639	-0.508465
H88	H	2.056510	-0.403639	-0.008465
O89	O	1.441499	-0.806631	-0.641621
O90	O	1.941499	-0.306631	-0.141621
C91	C	1.468159	-0.699229	-0.741191
C92	C	1.968159	-0.199229	-0.241191
C93	C	1.441164	-0.728523	-0.640632
C94	C	1.941164	-0.228523	-0.140632
H95	H	1.467877	-0.636076	-0.740430
H96	H	1.967877	-0.136076	-0.240430
H97	H	1.542952	-0.719917	-0.761502
H98	H	2.042952	-0.219917	-0.261502
H99	H	1.413562	-0.720016	-0.796109
H100	H	1.913562	-0.220016	-0.296109
H101	H	1.495696	-0.707748	-0.585647
H102	H	1.995696	-0.207748	-0.085647
H103	H	1.366347	-0.707841	-0.620403
H104	H	1.866347	-0.207841	-0.120403
H105	H	1.513096	-0.810993	-0.346035
H106	H	2.013096	-0.310993	0.153965
H107	H	1.275107	-0.903529	-0.583755
H108	H	1.775107	-0.403529	-0.083755
O109	O	1.217381	-0.806872	-0.417074
O110	O	1.717381	-0.306872	0.082926
C111	C	1.092290	-0.802797	-0.297077
C112	C	1.592290	-0.302797	0.202923
C113	C	1.192770	-0.832079	-0.324221
C114	C	1.692770	-0.332079	0.175779
H115	H	1.072352	-0.823178	-0.222013
H116	H	1.572352	-0.323178	0.277987
H117	H	1.092931	-0.739644	-0.297926
H118	H	1.592931	-0.239644	0.202074
H119	H	1.037166	-0.823936	-0.351239
H120	H	1.537166	-0.323936	0.148761
H121	H	1.247950	-0.810996	-0.270086
H122	H	1.747950	-0.310996	0.229914
H123	H	1.192049	-0.895231	-0.323403
H124	H	1.692049	-0.395231	0.176597
O125	O	1.346977	-0.907958	-0.287924
O126	O	1.846977	-0.407958	0.212076
C127	C	1.388325	-0.912247	-0.119643
C128	C	1.888325	-0.412247	0.380357
C129	C	1.415141	-0.882903	-0.220225
C130	C	1.915141	-0.382903	0.279775
H131	H	1.443432	-0.892014	-0.064884
H132	H	1.943432	-0.392014	0.435116
H133	H	1.313874	-0.891105	-0.098872
H134	H	1.813874	-0.391105	0.401128
H135	H	1.387850	-0.975397	-0.120727
H136	H	1.887850	-0.475397	0.379273
H137	H	1.415672	-0.819755	-0.219217
H138	H	1.915672	-0.319755	0.280783
H139	H	1.489575	-0.904101	-0.240956
H140	H	1.989575	-0.404101	0.259044
