data_functionalizedCrystal
_audit_creation_method	'MofGen! by Chris Wilmer'
_symmetry_space_group_name_H-M	'P1'
_symmetry_Int_Tables_number	1
_symmetry_cell_setting	triclinic
loop_
_symmetry_equiv_pos_as_xyz
  x,y,z
_cell_length_a	17.077404
_cell_length_b	12.594516
_cell_length_c	17.077396
_cell_angle_alpha	90.024821
_cell_angle_beta	90.018362
_cell_angle_gamma	90.009786
loop_
_atom_site_label
_atom_site_type_symbol
_atom_site_fract_x
_atom_site_fract_y
_atom_site_fract_z
Zn1	Zn	1.200115	-0.423800	0.443839
Zn2	Zn	1.200047	-0.601800	0.312581
Zn3	Zn	1.068847	-0.423830	0.312589
Zn4	Zn	1.068840	-0.601730	0.443807
O5	O	1.134462	-0.512790	0.378204
O6	O	1.309953	-0.447429	0.426437
O7	O	1.182618	-0.578234	0.202735
O8	O	1.086291	-0.274880	0.330016
O9	O	1.309903	-0.578205	0.330003
O10	O	1.182733	-0.274858	0.426445
O11	O	1.086225	-0.447480	0.202741
O12	O	0.958999	-0.447412	0.329986
O13	O	1.086280	-0.578085	0.553659
O14	O	0.958994	-0.578115	0.426391
O15	O	1.182727	-0.447361	0.553682
O16	O	1.182611	-0.750737	0.329972
O17	O	1.086214	-0.750685	0.426383
C18	C	0.930514	-0.512760	0.378187
C19	C	0.843265	-0.512773	0.378198
C20	C	0.802301	-0.444799	0.428488
C21	C	0.720321	-0.444805	0.428491
C22	C	0.679305	-0.512793	0.378208
C23	C	0.720275	-0.580770	0.327913
C24	C	0.802254	-0.580757	0.327906
C25	C	0.549405	-0.580794	0.327932
C26	C	0.467420	-0.580809	0.327940
C27	C	0.467472	-0.444843	0.428518
C28	C	0.549451	-0.444830	0.428511
C29	C	0.590414	-0.512808	0.378216
C30	C	1.134426	-0.789331	0.378191
C31	C	1.134482	-0.907637	0.378211
C32	C	1.186974	-0.976879	0.325829
C33	C	1.206155	-1.047582	0.397476
C34	C	1.115399	-1.047733	0.306610
C35	C	1.153700	-0.976781	0.449895
C36	C	1.062911	-0.976926	0.358981
C37	C	1.082065	-1.047597	0.430677
C38	C	1.339207	-0.512821	0.378222
C39	C	1.426456	-0.512834	0.378230
C40	C	1.134510	-0.512712	0.582949
C41	C	1.134530	-0.512678	0.670198
C42	C	1.134520	-0.235169	0.378235
C43	C	1.134545	-0.116864	0.378248
C44	C	1.134460	-0.512791	0.174256
C45	C	1.134592	-0.512525	0.087007
C46	C	1.184752	-0.444604	0.711202
C47	C	1.184761	-0.444569	0.793182
C48	C	1.134552	-0.512614	0.834158
C49	C	1.084325	-0.580691	0.793149
C50	C	1.084312	-0.580720	0.711170
C51	C	1.084357	-0.580627	0.964019
C52	C	1.084370	-0.580599	1.046004
C53	C	1.184806	-0.444476	1.046032
C54	C	1.184793	-0.444505	0.964053
C55	C	1.134566	-0.512584	0.923049
H56	H	0.582755	-0.636147	0.286975
N57	N	1.238960	-0.371022	1.090254
H58	H	1.270765	-0.327921	1.051856
H59	H	1.275285	-0.414326	1.124277
H60	H	0.434027	-0.636171	0.286996
H61	H	1.169806	-0.945748	0.510515
H62	H	1.225640	-0.389197	0.677845
N63	N	0.982732	-0.935760	0.337378
H64	H	0.961310	-0.891609	0.381865
H65	H	0.946518	-0.997612	0.327056
H66	H	0.434115	-0.389490	0.469468
H67	H	0.686873	-0.636121	0.286968
N68	N	1.286361	-1.088706	0.419045
H69	H	1.285657	-1.168892	0.419397
H70	H	1.301164	-1.061712	0.472744
N71	N	1.023288	-1.088456	0.489434
H72	H	1.037823	-1.062497	0.543485
H73	H	1.023321	-1.168641	0.488748
N74	N	1.093980	-1.089020	0.226386
H75	H	1.133647	-1.063296	0.186850
H76	H	1.040268	-1.062206	0.211508
H77	H	1.225682	-0.389103	0.930692
H78	H	0.835605	-0.636108	0.286954
H79	H	1.043484	-0.636005	1.079364
H80	H	1.225659	-0.389139	0.826564
N81	N	1.030181	-0.654047	0.919791
H82	H	0.998377	-0.697152	0.958187
H83	H	1.062119	-0.703320	0.885776
H84	H	1.043408	-0.636142	0.677786
N85	N	0.846536	-0.371476	0.482727
H86	H	0.808143	-0.328415	0.514585
H87	H	0.880540	-0.322158	0.450835
N88	N	0.676138	-0.371470	0.482717
H89	H	0.714560	-0.328397	0.514569
H90	H	0.642127	-0.414846	0.518995
N91	N	0.593692	-0.371511	0.482749
H92	H	0.555304	-0.328448	0.514611
H93	H	0.627696	-0.322196	0.450855
N94	N	1.030174	-0.654074	0.837354
H95	H	1.042342	-0.730133	0.823083
H96	H	0.974109	-0.637446	0.823068
H97	H	1.231371	-0.945827	0.281571
