data_functionalizedCrystal
_audit_creation_method	'MofGen! by Chris Wilmer'
_symmetry_space_group_name_H-M	'P1'
_symmetry_Int_Tables_number	1
_symmetry_cell_setting	triclinic
loop_
_symmetry_equiv_pos_as_xyz
  x,y,z
_cell_length_a	26.809956
_cell_length_b	17.699083
_cell_length_c	17.699105
_cell_angle_alpha	83.287442
_cell_angle_beta	89.998339
_cell_angle_gamma	89.997218
loop_
_atom_site_label
_atom_site_type_symbol
_atom_site_fract_x
_atom_site_fract_y
_atom_site_fract_z
O1	O	0.041416	-1.004089	-0.095700
O2	O	0.041433	-0.783712	-0.108152
O3	O	0.041414	-0.900118	0.008262
O4	O	0.041436	-0.887683	-0.212114
O5	O	-0.041546	-0.900096	0.008245
O6	O	-0.041526	-0.783690	-0.108170
O7	O	-0.041543	-1.004067	-0.095717
Zn8	Zn	-0.054706	-0.893875	-0.101946
Zn9	Zn	0.054596	-0.893904	-0.101923
O10	O	-0.041523	-0.887661	-0.212132
C11	C	-0.000044	-0.755504	-0.107715
C12	C	-0.000038	-0.671486	-0.106376
N13	N	-0.129302	-0.893861	-0.101962
C14	C	-0.000068	-0.899659	0.036450
C15	C	-0.000073	-0.898314	0.120467
C16	C	-0.473937	-0.945442	-0.050387
C17	C	-0.682814	-0.945460	-0.050376
O18	O	-0.709826	-0.989286	-0.006530
N19	N	-0.708929	-0.893908	-0.101906
C20	C	-0.682821	-0.842345	-0.153440
O21	O	-0.709826	-0.798492	-0.197264
C22	C	-0.473944	-0.842324	-0.153447
C23	C	-0.447832	-0.893884	-0.101919
C24	C	-0.447825	-0.996998	0.001138
C25	C	-0.395609	-0.996996	0.001131
C26	C	-0.369504	-0.945438	-0.050400
C27	C	-0.395616	-0.893882	-0.101925
C28	C	-0.447837	-0.790757	-0.204977
C29	C	-0.395615	-0.790755	-0.204973
C30	C	-0.369503	-0.842316	-0.153444
C31	C	-0.317295	-0.842322	-0.153462
N32	N	-0.291181	-0.893874	-0.101932
C33	C	-0.317285	-0.945432	-0.050401
C34	C	-0.792484	-0.842360	-0.153433
C35	C	-0.844703	-0.842366	-0.153433
C36	C	-0.844693	-0.945481	-0.050367
C37	C	-0.792473	-0.945478	-0.050372
C38	C	-0.766370	-0.893912	-0.101903
C39	C	-0.207627	-0.945423	-0.050418
C40	C	-0.155406	-0.945419	-0.050431
C41	C	-0.155421	-0.842302	-0.153493
C42	C	-0.207637	-0.842309	-0.153483
C43	C	-0.233739	-0.893873	-0.101939
O44	O	-0.290252	-0.798514	-0.197279
O45	O	-0.290271	-0.989267	-0.006572
C46	C	-0.526153	-0.945444	-0.050381
C47	C	-0.552265	-0.893889	-0.101906
C48	C	-0.526161	-0.842331	-0.153437
C49	C	-0.604484	-0.893895	-0.101905
C50	C	-0.630588	-0.945453	-0.050374
C51	C	-0.604474	-0.997005	0.001156
C52	C	-0.552258	-0.997002	0.001150
C53	C	-0.552275	-0.790779	-0.204968
C54	C	-0.604491	-0.790786	-0.204958
C55	C	-0.630596	-0.842344	-0.153427
N56	N	0.129192	-0.893924	-0.101901
C57	C	-0.000064	-1.032275	-0.096155
C58	C	-0.000067	-1.116293	-0.097493
C59	C	-0.000031	-0.622870	-0.174709
C60	C	-0.000038	-0.543927	-0.173446
C61	C	-0.000048	-0.513600	-0.103851
C62	C	-0.000056	-0.562222	-0.035513
C63	C	-0.000053	-0.641164	-0.036776
C64	C	-0.000069	-0.243859	-0.030418
C65	C	-0.000070	-0.164911	-0.029160
C66	C	-0.000054	-0.146621	-0.167088
C67	C	-0.000051	-0.225563	-0.168351
C68	C	-0.000062	-0.274178	-0.100014
C69	C	-0.000055	-0.359777	-0.101383
C70	C	-0.000050	-0.428003	-0.102480
C71	C	0.045175	-0.890098	0.636188
C72	C	0.045172	-0.891361	0.557245
C73	C	-0.000052	-0.891979	0.517777
C74	C	-0.045275	-0.891341	0.557257
C75	C	-0.045271	-0.890084	0.636200
C76	C	-0.045292	-0.896413	0.238891
C77	C	-0.045293	-0.897669	0.159943
C78	C	0.045150	-0.897690	0.159936
C79	C	0.045154	-0.896433	0.238879
C80	C	-0.000068	-0.895800	0.278353
C81	C	-0.000064	-0.894432	0.363952
C82	C	-0.000057	-0.893341	0.432178
C83	C	-0.000044	-0.888118	0.759680
C84	C	-0.000044	-0.889458	0.675662
H85	H	-0.134148	-0.987408	-0.008470
H86	H	-0.082093	-0.889563	0.668339
Br87	Br	-0.880135	-0.772401	-0.223379
Br88	Br	-0.639923	-0.720809	-0.274901
Br89	Br	-0.483264	-0.720779	-0.274911
Br90	Br	-0.360177	-1.066969	0.071069
H91	H	0.081994	-0.891883	0.525108
H92	H	-0.771234	-0.800368	-0.195398
Br93	Br	-0.000085	-0.309826	0.062327
H94	H	-0.531025	-0.748793	-0.246930
Br95	Br	0.106525	-0.898559	0.106362
Br96	Br	-0.000082	-0.123754	0.065298
H97	H	-0.865956	-0.987463	-0.008410
Br98	Br	-0.106672	-0.898505	0.106378
Br99	Br	-0.000013	-0.664019	-0.269165
Br100	Br	0.106554	-0.889251	0.689743
H101	H	0.081980	-0.895926	0.271009
Br102	Br	-0.106666	-0.895548	0.292452
Br103	Br	-0.106651	-0.892187	0.503695
Br104	Br	-0.000027	-0.477950	-0.266188
Br105	Br	-0.639911	-1.066979	0.071087
H106	H	-0.228874	-0.987410	-0.008445
H107	H	-0.469075	-1.038982	0.043104
Br108	Br	-0.516827	-1.066981	0.071084
Br109	Br	-0.119985	-0.772335	-0.223428
Br110	Br	-0.000039	-0.080640	-0.259834
Br111	Br	-0.757042	-1.015455	0.019562
Br112	Br	-0.360192	-0.720766	-0.274908
H113	H	-0.228898	-0.800331	-0.195449
H114	H	-0.000071	-0.537524	0.021153
H115	H	-0.000040	-0.250250	-0.225023
H116	H	-0.000058	-0.680747	0.018868
