data_functionalizedCrystal
_audit_creation_method	'MofGen! by Chris Wilmer'
_symmetry_space_group_name_H-M	'P1'
_symmetry_Int_Tables_number	1
_symmetry_cell_setting	triclinic
loop_
_symmetry_equiv_pos_as_xyz
  x,y,z
_cell_length_a	16.625546
_cell_length_b	16.625548
_cell_length_c	12.759387
_cell_angle_alpha	89.975346
_cell_angle_beta	90.035560
_cell_angle_gamma	89.977673
loop_
_atom_site_label
_atom_site_type_symbol
_atom_site_fract_x
_atom_site_fract_y
_atom_site_fract_z
Zn1	Zn	-0.320962	-1.232699	0.594087
Zn2	Zn	0.179038	-0.732699	1.094087
Zn3	Zn	-0.455817	-1.232597	0.418392
Zn4	Zn	0.044183	-0.732597	0.918392
Zn5	Zn	-0.321002	-1.097855	0.418411
Zn6	Zn	0.178998	-0.597855	0.918411
Zn7	Zn	-0.455756	-1.097831	0.594019
Zn8	Zn	0.044244	-0.597831	1.094019
O9	O	-0.388384	-1.165245	0.506227
O10	O	0.111616	-0.665245	1.006227
O11	O	-0.338860	-1.345518	0.570801
O12	O	0.161140	-0.845518	1.070801
O13	O	-0.437976	-1.214690	0.271374
O14	O	0.062024	-0.714690	0.771374
O15	O	-0.208164	-1.115795	0.441750
O16	O	0.291836	-0.615795	0.941750
O17	O	-0.437937	-1.345443	0.441719
O18	O	0.062063	-0.845443	0.941719
O19	O	-0.208135	-1.214864	0.570819
O20	O	0.291865	-0.714864	1.070819
O21	O	-0.338928	-1.115696	0.271387
O22	O	0.161072	-0.615696	0.771387
O23	O	-0.338869	-0.985020	0.441685
O24	O	0.161131	-0.485020	0.941685
O25	O	-0.437833	-1.115754	0.741049
O26	O	0.062167	-0.615754	1.241049
O27	O	-0.437872	-0.985002	0.570703
O28	O	0.062128	-0.485002	1.070703
O29	O	-0.338800	-1.214841	0.741099
O30	O	0.161200	-0.714841	1.241099
O31	O	-0.568642	-1.214667	0.441654
O32	O	-0.068642	-0.714667	0.941654
O33	O	-0.568597	-1.115655	0.570685
O34	O	-0.068597	-0.615655	1.070685
C35	C	-0.388368	-0.955755	0.506189
C36	C	0.111632	-0.455755	1.006189
C37	C	-0.388381	-0.866133	0.506198
C38	C	0.111619	-0.366133	1.006198
C39	C	-0.388379	-0.537958	0.506230
C40	C	0.111621	-0.037958	1.006230
C41	C	-0.388378	-0.629266	0.506217
C42	C	0.111622	-0.129266	1.006217
C43	C	-0.388381	-0.702043	0.506213
C44	C	0.111619	-0.202043	1.006213
C45	C	-0.388378	-0.793357	0.506202
C46	C	0.111622	-0.293357	1.006202
C47	C	-0.597875	-1.165169	0.506183
C48	C	-0.097875	-0.665169	1.006183
C49	C	-0.687496	-1.165210	0.506199
C50	C	-0.187496	-0.665210	1.006199
C51	C	-1.015672	-1.165351	0.506309
C52	C	-0.515672	-0.665351	1.006309
C53	C	-0.924364	-1.165309	0.506281
C54	C	-0.424364	-0.665309	1.006281
C55	C	-0.851587	-1.165280	0.506254
C56	C	-0.351587	-0.665280	1.006254
C57	C	-0.760273	-1.165240	0.506227
C58	C	-0.260273	-0.665240	1.006227
C59	C	-0.178075	-1.165344	0.506294
C60	C	0.321925	-0.665344	1.006294
C61	C	-0.088454	-1.165386	0.506323
C62	C	0.411546	-0.665386	1.006323
C63	C	-0.388305	-1.165306	0.780261
C64	C	0.111695	-0.665306	1.280261
C65	C	-0.388272	-1.165332	0.897037
C66	C	0.111728	-0.665332	1.397037
C67	C	-0.388396	-0.375554	0.506256
C68	C	0.111604	0.124446	1.006256
C69	C	-0.388387	-0.465175	0.506242
C70	C	0.111613	0.034825	1.006242
C71	C	-0.388405	-1.165231	0.233260
C72	C	0.111595	-0.665231	0.733260
C73	C	-0.388211	-1.165361	0.116483
C74	C	0.111789	-0.665361	0.616483
C75	C	-0.285156	-1.268518	0.897109
C76	C	0.214844	-0.768518	1.397109
C77	C	-0.233586	-1.320123	0.952006
C78	C	0.266414	-0.820123	1.452006
C79	C	-0.233557	-1.320142	1.061727
C80	C	0.266443	-0.820142	1.561727
C81	C	-0.285101	-1.268550	1.116555
C82	C	0.214899	-0.768550	1.616555
C83	C	-0.336671	-1.216946	1.061658
C84	C	0.163329	-0.716946	1.561658
C85	C	-0.336696	-1.216934	0.951934
C86	C	0.163304	-0.716934	1.451934
C87	C	-0.439781	-1.113757	1.061587
C88	C	0.060219	-0.613757	1.561587
C89	C	-0.439816	-1.113740	0.951865
C90	C	0.060184	-0.613740	1.451865
C91	C	-0.491326	-1.062165	1.116414
C92	C	0.008674	-0.562165	1.616414
C93	C	-0.542901	-1.010564	1.061518
C94	C	-0.042901	-0.510564	1.561518
C95	C	-0.542929	-1.010547	0.951789
C96	C	-0.042929	-0.510547	1.451789
C97	C	-0.491386	-1.062136	0.896968
C98	C	0.008614	-0.562136	1.396968
H99	H	-0.285182	-1.268515	0.807768
H100	H	0.214818	-0.768515	1.307768
O101	O	-0.183598	-1.370216	0.898584
O102	O	0.316402	-0.870216	1.398584
C103	C	-0.194667	-1.359125	0.789968
C104	C	0.305333	-0.859125	1.289968
H105	H	-0.256889	-1.332674	0.774952
H106	H	0.243111	-0.832674	1.274952
H107	H	-0.146837	-1.316215	0.758832
H108	H	0.353163	-0.816215	1.258832
C109	C	-0.110894	-1.473193	0.752111
C110	C	0.389106	-0.973193	1.252111
C111	C	-0.187319	-1.440712	0.733667
C112	C	0.312681	-0.940712	1.233667
H113	H	-0.106359	-1.523518	0.717380
H114	H	0.393641	-1.023518	1.217380
H115	H	-0.103434	-1.480664	0.825287
H116	H	0.396566	-0.980664	1.325287
H117	H	-0.071045	-1.437427	0.726164
H118	H	0.428955	-0.937427	1.226164
H119	H	-0.227167	-1.476473	0.759625
H120	H	0.272833	-0.976473	1.259625
H121	H	-0.194786	-1.433249	0.660493
H122	H	0.305214	-0.933249	1.160493
H123	H	-0.191559	-1.362158	1.106424
H124	H	0.308441	-0.862158	1.606424
H125	H	-0.584860	-0.968558	1.106167
H126	H	-0.084860	-0.468558	1.606167
H127	H	-0.584915	-0.968516	0.907099
H128	H	-0.084915	-0.468516	1.407099
H129	H	-0.285066	-1.268564	1.205896
H130	H	0.214934	-0.768564	1.705896
H131	H	-0.491295	-1.062182	1.205756
H132	H	0.008705	-0.562182	1.705756
H133	H	-0.491407	-1.062131	0.807627
H134	H	0.008593	-0.562131	1.307627
