data_functionalizedCrystal
_audit_creation_method	'MofGen! by Chris Wilmer'
_symmetry_space_group_name_H-M	'P1'
_symmetry_Int_Tables_number	1
_symmetry_cell_setting	triclinic
loop_
_symmetry_equiv_pos_as_xyz
  x,y,z
_cell_length_a	9.065218
_cell_length_b	9.198806
_cell_length_c	9.065218
_cell_angle_alpha	90.001601
_cell_angle_beta	85.015885
_cell_angle_gamma	90.004041
loop_
_atom_site_label
_atom_site_type_symbol
_atom_site_fract_x
_atom_site_fract_y
_atom_site_fract_z
O1	O	1.960401	0.120890	0.216354
O2	O	2.293734	0.454223	0.549687
O3	O	2.627067	0.787556	0.883021
O4	O	1.531116	0.120891	0.234101
O5	O	1.864449	0.454225	0.567434
O6	O	2.197782	0.787558	0.900767
O7	O	1.754631	0.120887	0.010585
O8	O	2.087965	0.454221	0.343918
O9	O	2.421298	0.787554	0.677252
O10	O	1.736885	0.120893	0.439870
O11	O	2.070218	0.454227	0.773203
O12	O	2.403552	0.787560	1.106536
O13	O	1.754614	-0.120898	0.010583
O14	O	2.087947	0.212436	0.343916
O15	O	2.421280	0.545769	0.677250
O16	O	1.531098	-0.120894	0.234099
O17	O	1.864431	0.212439	0.567432
O18	O	2.197765	0.545773	0.900765
O19	O	1.960383	-0.120895	0.216352
O20	O	2.293716	0.212438	0.549686
O21	O	2.627049	0.545771	0.883019
Cu22	Cu	1.745739	-0.142971	0.225225
Cu23	Cu	2.079072	0.190362	0.558559
Cu24	Cu	2.412405	0.523695	0.891892
Cu25	Cu	1.745760	0.142967	0.225228
Cu26	Cu	2.079093	0.476301	0.558561
Cu27	Cu	2.412427	0.809634	0.891894
O28	O	1.736867	-0.120892	0.439868
O29	O	2.070200	0.212442	0.773201
O30	O	2.403534	0.545775	1.106535
C31	C	1.476120	-0.000001	0.232394
C32	C	1.809454	0.333332	0.565727
C33	C	2.142787	0.666666	0.899061
C34	C	1.312277	-0.000000	0.227294
C35	C	1.645611	0.333333	0.560628
C36	C	1.978944	0.666666	0.893961
N37	N	1.745735	-0.344085	0.225223
N38	N	2.079068	-0.010752	0.558556
N39	N	2.412401	0.322581	0.891890
C40	C	1.832180	-0.416282	0.311194
C41	C	2.165514	-0.082949	0.644527
C42	C	2.498847	0.250384	0.977860
C43	C	1.832203	-0.583695	0.311192
C44	C	2.165536	-0.250361	0.644525
C45	C	2.498870	0.082972	0.977859
C46	C	2.015378	0.000000	0.218059
C47	C	2.348712	0.333333	0.551392
C48	C	2.682045	0.666667	0.884725
C49	C	2.179221	0.000009	0.223158
C50	C	2.512555	0.333342	0.556492
C51	C	2.845888	0.666676	0.889825
C52	C	1.752917	-0.000003	-0.044403
C53	C	2.086250	0.333331	0.288931
C54	C	2.419584	0.666664	0.622264
C55	C	1.747817	0.000004	-0.208245
C56	C	2.081151	0.333338	0.125088
C57	C	2.414484	0.666671	0.458421
N58	N	1.745776	0.344081	0.225218
N59	N	2.079109	0.677415	0.558552
N60	N	2.412442	1.010748	0.891885
C61	C	1.738582	0.000002	0.494855
C62	C	2.071915	0.333335	0.828189
C63	C	2.405248	0.666668	1.161522
C64	C	1.743681	0.000004	0.658698
C65	C	2.077015	0.333338	0.992032
C66	C	2.410348	0.666671	1.325365
H67	H	1.906179	-0.354153	0.384792
H68	H	2.239512	-0.020819	0.718125
H69	H	2.572845	0.312514	1.051458
H70	H	1.671755	-0.593840	0.151619
H71	H	2.005089	-0.260507	0.484952
H72	H	2.338422	0.072826	0.818285
O73	O	1.647717	-0.426345	0.127701
O74	O	1.981050	-0.093012	0.461035
O75	O	2.314384	0.240321	0.794368
H76	H	1.569588	-0.495701	0.197584
H77	H	1.902921	-0.162367	0.530917
H78	H	2.236254	0.170966	0.864250
H79	H	1.906204	-0.645782	0.384803
H80	H	2.239538	-0.312449	0.718136
H81	H	2.572871	0.020884	1.051469
