data_functionalizedCrystal
_audit_creation_method	'MofGen! by Chris Wilmer'
_symmetry_space_group_name_H-M	'P1'
_symmetry_Int_Tables_number	1
_symmetry_cell_setting	triclinic
loop_
_symmetry_equiv_pos_as_xyz
  x,y,z
_cell_length_a	17.640112
_cell_length_b	18.050589
_cell_length_c	17.640968
_cell_angle_alpha	78.773118
_cell_angle_beta	92.139080
_cell_angle_gamma	101.252307
loop_
_atom_site_label
_atom_site_type_symbol
_atom_site_fract_x
_atom_site_fract_y
_atom_site_fract_z
Zn1	Zn	1.247776	-0.021338	-0.195082
Zn2	Zn	1.221993	-0.174558	-0.068112
Zn3	Zn	1.095104	-0.069647	-0.093732
Zn4	Zn	1.120735	-0.164782	-0.220693
O5	O	1.171402	-0.107581	-0.144405
O6	O	1.350627	-0.025537	-0.156798
O7	O	1.183644	-0.184950	0.034761
O8	O	1.115420	0.040699	-0.107180
O9	O	1.331684	-0.138107	-0.063514
O10	O	1.227588	0.076191	-0.181641
O11	O	1.090420	-0.107872	0.015938
O12	O	0.992234	-0.098393	-0.132014
O13	O	1.159104	-0.121445	-0.323567
O14	O	1.011064	-0.168289	-0.225292
O15	O	1.252441	-0.016058	-0.304750
O16	O	1.208498	-0.277199	-0.088349
O17	O	1.134104	-0.270016	-0.200449
C18	C	0.974094	-0.137523	-0.184213
C19	C	0.889689	-0.150346	-0.201261
C20	C	1.171308	-0.300550	-0.144411
C21	C	1.171342	-0.383087	-0.144424
C22	C	0.563038	-0.010153	-0.014899
C23	C	0.483728	-0.022215	-0.030928
C24	C	0.503357	-0.095166	-0.127891
C25	C	0.582671	-0.083107	-0.111873
C26	C	0.612505	-0.040601	-0.055375
C27	C	0.632138	-0.113555	-0.152349
C28	C	0.711444	-0.101501	-0.136328
C29	C	0.741283	-0.058998	-0.079832
C30	C	0.691811	-0.028547	-0.039354
C31	C	0.602302	-0.156066	-0.208842
C32	C	0.651768	-0.186514	-0.249318
C33	C	0.731077	-0.174455	-0.233302
C34	C	0.760916	-0.131952	-0.176805
C35	C	0.780549	-0.204906	-0.273779
C36	C	0.859855	-0.192852	-0.257758
C37	C	0.840222	-0.119898	-0.160785
C38	C	1.130933	-0.578655	-0.205357
C39	C	1.098407	-0.646737	-0.139793
C40	C	1.171419	-0.534204	-0.144419
C41	C	1.203984	-0.613197	-0.209983
C42	C	1.171493	-0.680174	-0.144421
C43	C	1.138849	-0.601212	-0.078826
C44	C	1.244468	-0.567652	-0.149057
C45	C	1.211958	-0.635718	-0.083440
C46	C	1.171375	-0.450114	-0.144420
C47	C	1.171536	-0.764264	-0.144412
C48	C	1.369481	-0.077524	-0.104442
C49	C	1.453890	-0.064715	-0.087412
C50	C	1.211508	-0.062272	-0.342484
C51	C	1.228598	-0.042964	-0.426893
C52	C	1.171521	0.086148	-0.144411
C53	C	1.171572	0.168704	-0.144414
C54	C	1.041859	-0.253814	-0.753484
C55	C	1.057934	-0.235659	-0.832796
C56	C	1.155117	-0.125928	-0.813194
C57	C	1.139048	-0.144071	-0.733879
C58	C	1.082418	-0.208016	-0.704030
C59	C	1.179607	-0.098273	-0.684425
C60	C	1.163541	-0.116418	-0.605116
C61	C	1.106916	-0.180360	-0.575261
C62	C	1.066352	-0.226160	-0.624721
C63	C	1.236240	-0.034333	-0.714274
C64	C	1.276799	0.011465	-0.664820
C65	C	1.260730	-0.006676	-0.585511
C66	C	1.204105	-0.070618	-0.555656
C67	C	1.301293	0.039124	-0.536051
C68	C	1.285228	0.020980	-0.456742
C69	C	1.188039	-0.088763	-0.476347
C70	C	1.131497	-0.152654	0.052913
C71	C	1.114553	-0.171730	0.137352
H72	H	0.864516	-0.085271	-0.114790
H73	H	1.096620	-0.553748	-0.256842
H74	H	0.443455	0.002589	0.002031
H75	H	1.036667	-0.681002	-0.135877
O76	O	1.018504	-0.280032	-0.880926
C77	C	0.978756	-0.234697	-0.936688
H78	H	1.007982	-0.171628	-0.943167
H79	H	0.916294	-0.242066	-0.917477
C80	C	0.944336	-0.337879	-1.006840
C81	C	0.980237	-0.260417	-1.014803
H82	H	0.945246	-0.353745	-1.055025
H83	H	0.971113	-0.368423	-0.969271
H84	H	0.892288	-0.344009	-0.990829
H85	H	1.032286	-0.254289	-1.030804
H86	H	0.953469	-0.229871	-1.052376
O87	O	1.324671	0.065568	-0.408811
C88	C	1.378110	0.125887	-0.452159
H89	H	1.358461	0.136676	-0.514973
H90	H	1.437478	0.109371	-0.448951
C91	C	1.406961	0.186262	-0.341846
C92	C	1.382824	0.199518	-0.418993
H93	H	1.409873	0.231681	-0.321386
H94	H	1.370961	0.145623	-0.312640
H95	H	1.456432	0.172497	-0.339182
H96	H	1.333350	0.213273	-0.421655
H97	H	1.418817	0.240161	-0.448199
H98	H	0.479055	-0.129777	-0.173889
H99	H	1.322909	0.063527	-0.689134
H100	H	1.111265	-0.595430	-0.023378
O101	O	1.252723	-0.665311	-0.021821
C102	C	1.218183	-0.659712	0.047123
H103	H	1.154868	-0.655892	0.035907
H104	H	1.249550	-0.605960	0.068109
C105	C	1.301372	-0.736060	0.123013
C106	C	1.223606	-0.731375	0.109239
H107	H	1.304720	-0.780263	0.161330
H108	H	1.324645	-0.739830	0.076564
H109	H	1.327503	-0.691262	0.140497
H110	H	1.197479	-0.776168	0.091746
H111	H	1.200329	-0.727614	0.155686
H112	H	0.805860	-0.049186	-0.066787
H113	H	1.306201	-0.533383	-0.153009
H114	H	0.716105	0.006080	0.006640
H115	H	0.537725	-0.165879	-0.221884
O116	O	0.591893	0.031124	0.040034
C117	C	0.531231	0.055434	0.072313
H118	H	0.474144	0.015819	0.063570
H119	H	0.528476	0.116903	0.042713
C120	C	0.615921	0.101123	0.170109
C121	C	0.545806	0.052463	0.159376
H122	H	0.624912	0.099295	0.223812
H123	H	0.656791	0.084748	0.148361
H124	H	0.613616	0.152343	0.145437
H125	H	0.548115	0.001244	0.184039
H126	H	0.504936	0.068830	0.181130
H127	H	0.627466	-0.221125	-0.295316
H128	H	0.756245	-0.239521	-0.319773
H129	H	0.900133	-0.217645	-0.290719
H130	H	1.231497	-0.619082	-0.265429
H131	H	1.141907	-0.140817	-0.452047
H132	H	1.347406	0.091183	-0.560365
O133	O	1.091445	-0.197971	-0.498193
C134	C	1.158841	-0.212084	-0.457002
H135	H	1.211851	-0.182299	-0.493873
H136	H	1.157563	-0.276687	-0.442607
C137	C	1.097471	-0.217049	-0.336362
C138	C	1.162579	-0.180461	-0.381644
H139	H	1.099776	-0.197546	-0.289876
H140	H	1.052064	-0.207543	-0.364112
H141	H	1.096413	-0.270882	-0.324374
H142	H	1.163630	-0.126630	-0.393639
H143	H	1.207986	-0.189957	-0.353894
H144	H	1.020221	-0.278215	-0.600421
O145	O	0.986861	-0.315987	-0.724602
C146	C	0.954494	-0.352516	-0.785258
H147	H	0.997038	-0.337418	-0.835524
H148	H	0.898529	-0.332163	-0.805320
C149	C	0.885014	-0.458852	-0.694776
C150	C	0.937270	-0.440313	-0.756511
H151	H	0.874385	-0.513010	-0.677044
H152	H	0.906817	-0.434241	-0.653911
H153	H	0.838382	-0.441885	-0.711503
H154	H	0.983904	-0.457272	-0.739781
H155	H	0.915474	-0.464929	-0.797373
H156	H	1.201227	-0.073867	-0.837507
O157	O	1.251852	-0.016840	-0.791314
C158	C	1.276694	-0.078995	-0.813873
H159	H	1.254430	-0.134204	-0.770791
H160	H	1.342554	-0.067794	-0.815222
C161	C	1.272282	-0.019637	-0.947801
C162	C	1.244932	-0.087446	-0.894891
H163	H	1.252694	-0.024849	-0.997778
H164	H	1.255549	0.022240	-0.932603
H165	H	1.327165	-0.010310	-0.948916
H166	H	1.190052	-0.096767	-0.893770
H167	H	1.261656	-0.129325	-0.910091
