data_functionalizedCrystal
_audit_creation_method	'MofGen! by Chris Wilmer'
_symmetry_space_group_name_H-M	'P1'
_symmetry_Int_Tables_number	1
_symmetry_cell_setting	triclinic
loop_
_symmetry_equiv_pos_as_xyz
  x,y,z
_cell_length_a	6.817900
_cell_length_b	11.353959
_cell_length_c	10.773894
_cell_angle_alpha	107.082425
_cell_angle_beta	96.645922
_cell_angle_gamma	107.526623
loop_
_atom_site_label
_atom_site_type_symbol
_atom_site_fract_x
_atom_site_fract_y
_atom_site_fract_z
V1	V	-3.980486	-0.175628	-0.427091
O2	O	-3.935538	0.013371	-0.378636
O3	O	-3.964386	-0.352984	-0.462954
O4	O	-3.897273	-0.170763	-0.595667
O5	O	-4.003116	-0.170112	-0.245004
V6	V	-4.464439	-0.153278	-0.400601
O7	O	-4.240800	-0.224657	-0.485200
O8	O	-4.654322	-0.104249	-0.342492
O9	O	-4.257332	0.024078	-0.364739
O10	O	-4.626784	-0.342277	-0.449056
O11	O	-4.559206	-0.158794	-0.582688
O12	O	-4.324446	-0.158143	-0.232026
C13	C	-3.818372	-0.396287	-0.466224
C14	C	-3.886263	-0.541264	-0.496669
C15	C	-3.897067	-0.589539	-0.398124
C16	C	-3.967236	-0.739380	-0.429589
C17	C	-3.732760	-0.163845	-0.635510
C18	C	-3.746222	-0.161040	-0.773576
C19	C	-3.925181	-0.165901	-0.842494
C20	C	-3.939098	-0.163002	-0.985193
C21	C	-4.066691	0.067374	-0.361467
C22	C	-3.978036	0.212350	-0.331030
C23	C	-4.152302	-0.165066	-0.192177
C24	C	-4.118079	-0.167863	-0.054108
H25	H	-3.928968	-0.610864	-0.604331
H26	H	-4.261007	-0.174175	-1.007476
C27	C	-3.494867	-0.038213	-0.869442
C28	C	-3.553285	-0.152526	-0.836528
H29	H	-3.375760	-0.032963	-0.908311
H30	H	-3.460254	0.036736	-0.791188
H31	H	-3.608965	-0.040900	-0.931170
H32	H	-3.439191	-0.149834	-0.774793
H33	H	-3.587888	-0.227494	-0.914794
H34	H	-3.935346	-0.718056	-0.223361
C35	C	-4.066990	-0.175641	-0.650367
C36	C	-4.118121	-0.174416	-0.779545
H37	H	-4.186114	-0.180906	-0.611514
H38	H	-3.952982	-0.097176	-0.598031
H39	H	-4.027229	-0.249688	-0.653956
H40	H	-4.157867	-0.100363	-0.775955
H41	H	-4.232165	-0.252890	-0.831894
H42	H	-4.009940	-0.808977	-0.537258
H43	H	-3.854380	-0.519939	-0.290463
C44	C	-3.687731	-0.040175	-1.081053
C45	C	-3.746148	-0.154487	-1.048139
H46	H	-3.568623	-0.034925	-1.119922
H47	H	-3.653117	0.034774	-1.002799
H48	H	-3.801829	-0.042862	-1.142781
H49	H	-3.632055	-0.151796	-0.986404
H50	H	-3.780752	-0.229455	-1.126405
