data_functionalizedCrystal
_audit_creation_method	'MofGen! by Chris Wilmer'
_symmetry_space_group_name_H-M	'P1'
_symmetry_Int_Tables_number	1
_symmetry_cell_setting	triclinic
loop_
_symmetry_equiv_pos_as_xyz
  x,y,z
_cell_length_a	18.215407
_cell_length_b	12.759394
_cell_length_c	18.215399
_cell_angle_alpha	89.974724
_cell_angle_beta	89.980167
_cell_angle_gamma	90.015285
loop_
_atom_site_label
_atom_site_type_symbol
_atom_site_fract_x
_atom_site_fract_y
_atom_site_fract_z
Zn1	Zn	1.125123	-0.418265	-0.416130
Zn2	Zn	1.125053	-0.593962	-0.293069
Zn3	Zn	1.002056	-0.418299	-0.293077
Zn4	Zn	1.002043	-0.593904	-0.416094
O5	O	1.063569	-0.506107	-0.354592
O6	O	1.228098	-0.441581	-0.399817
O7	O	1.108713	-0.570699	-0.190086
O8	O	1.018416	-0.271273	-0.309418
O9	O	1.228047	-0.570666	-0.309405
O10	O	1.108833	-0.271248	-0.399825
O11	O	1.018348	-0.441640	-0.190092
O12	O	0.899070	-0.441583	-0.309384
O13	O	1.018394	-0.570566	-0.519083
O14	O	0.899061	-0.570599	-0.399764
O15	O	1.108821	-0.441525	-0.519109
O16	O	1.108701	-0.740975	-0.309370
O17	O	1.018326	-0.740933	-0.399756
C18	C	0.872363	-0.506089	-0.354571
C19	C	0.790564	-0.506107	-0.354580
C20	C	0.602384	-0.573391	-0.401582
C21	C	0.525526	-0.573395	-0.401591
C22	C	0.525506	-0.438843	-0.307619
C23	C	0.602363	-0.438835	-0.307614
C24	C	0.640800	-0.506115	-0.354594
C25	C	0.487084	-0.506126	-0.354608
C26	C	0.403751	-0.506129	-0.354618
C27	C	0.724139	-0.506111	-0.354586
C28	C	1.063525	-0.779075	-0.354575
C29	C	1.063573	-0.895852	-0.354592
C30	C	1.157751	-0.895843	-0.260543
C31	C	1.204859	-0.950699	-0.213528
C32	C	1.204903	-1.060421	-0.213548
C33	C	1.157834	-1.115289	-0.260590
C34	C	1.110726	-1.060432	-0.307605
C35	C	1.110686	-0.950708	-0.307579
C36	C	1.016553	-1.060441	-0.401656
C37	C	1.016505	-0.950719	-0.401634
C38	C	0.969484	-1.115308	-0.448698
C39	C	0.922371	-1.060452	-0.495711
C40	C	0.922329	-0.950724	-0.495689
C41	C	0.969397	-0.895863	-0.448649
C42	C	1.255522	-0.506126	-0.354614
C43	C	1.337321	-0.506134	-0.354623
C44	C	1.063614	-0.506035	-0.546545
C45	C	1.063633	-0.506004	-0.628344
C46	C	1.063633	-0.232074	-0.354626
C47	C	1.063661	-0.115297	-0.354641
C48	C	1.110735	-0.438750	-0.816553
C49	C	1.110744	-0.438719	-0.893412
C50	C	1.016583	-0.573096	-0.893373
C51	C	1.016571	-0.573121	-0.816516
C52	C	1.063651	-0.505949	-0.778108
C53	C	1.063672	-0.505894	-0.931824
C54	C	1.063681	-0.505861	-1.015158
C55	C	1.063641	-0.505980	-0.694769
C56	C	1.063567	-0.506104	-0.163386
C57	C	1.063690	-0.505839	-0.081588
H58	H	0.494251	-0.628176	-0.439853
C59	C	1.161931	-0.365987	-0.774812
C60	C	1.209097	-0.425484	-0.730700
C61	C	1.256273	-0.358486	-0.692247
H62	H	1.133866	-0.320201	-0.744772
H63	H	1.190015	-0.325976	-0.808694
H64	H	1.181016	-0.465477	-0.696821
H65	H	1.237178	-0.471267	-0.760722
H66	H	1.284357	-0.318475	-0.726130
H67	H	1.228202	-0.312703	-0.662212
H68	H	1.288285	-0.398845	-0.662318
C69	C	0.483639	-0.365915	-0.256641
C70	C	0.408108	-0.380338	-0.266687
C71	C	0.369519	-0.313184	-0.219731
H72	H	0.496161	-0.295301	-0.267450
H73	H	0.496169	-0.381208	-0.207158
H74	H	0.395582	-0.365038	-0.316159
H75	H	0.395564	-0.450939	-0.255873
H76	H	0.382050	-0.328478	-0.170248
H77	H	0.382047	-0.242574	-0.230544
H78	H	0.318268	-0.322968	-0.226536
C79	C	1.255879	-0.890939	-0.162482
C80	C	1.245748	-0.783108	-0.172509
C81	C	1.292729	-0.728029	-0.125494
H82	H	1.305358	-0.908725	-0.173249
H83	H	1.245131	-0.908926	-0.113014
H84	H	1.256502	-0.765129	-0.221966
H85	H	1.196279	-0.765291	-0.161737
H86	H	1.281980	-0.746016	-0.076026
H87	H	1.342205	-0.745824	-0.136265
H88	H	1.285856	-0.654860	-0.132286
H89	H	0.633678	-0.628173	-0.439838
C90	C	0.643945	-0.365748	-0.256515
C91	C	0.593835	-0.306855	-0.215355
C92	C	0.632113	-0.239528	-0.168272
H93	H	0.673947	-0.319927	-0.284639
H94	H	0.673893	-0.405856	-0.224362
H95	H	0.563899	-0.266750	-0.247504
H96	H	0.563831	-0.352648	-0.187216
H97	H	0.662061	-0.279636	-0.136119
H98	H	0.662114	-0.193714	-0.196402
H99	H	0.598120	-0.199568	-0.140335
H100	H	1.157711	-0.806502	-0.260513
H101	H	1.243266	-1.105085	-0.175267
H102	H	1.149083	-0.383997	-0.924711
H103	H	1.157880	-1.204630	-0.260608
H104	H	0.978254	-0.627787	-0.924655
H105	H	0.969526	-1.204649	-0.448714
H106	H	0.884055	-1.105134	-0.534013
C107	C	0.969217	-0.776736	-0.448705
C108	C	0.917877	-0.740433	-0.499934
C109	C	0.917687	-0.630699	-0.499997
H110	H	1.016649	-0.751717	-0.461489
H111	H	0.956466	-0.751943	-0.401210
H112	H	0.930631	-0.765215	-0.547418
H113	H	0.870437	-0.765423	-0.487161
H114	H	0.904936	-0.605907	-0.452503
H115	H	0.965122	-0.605690	-0.512780
H116	H	0.882849	-0.606054	-0.534751
C117	C	0.965422	-0.646202	-0.774902
C118	C	0.924212	-0.705050	-0.824987
C119	C	0.877094	-0.772386	-0.786679
H120	H	0.933296	-0.606136	-0.744917
H121	H	0.993545	-0.692044	-0.744934
H122	H	0.896091	-0.659213	-0.854942
H123	H	0.956319	-0.745137	-0.854973
H124	H	0.905217	-0.818228	-0.756711
H125	H	0.844973	-0.732312	-0.756695
H126	H	0.849133	-0.812329	-0.820655
C127	C	0.871105	-0.891358	-0.546767
C128	C	0.829887	-0.962898	-0.587954
C129	C	0.782686	-0.908254	-0.635010
H130	H	0.899144	-0.848486	-0.578911
H131	H	0.838992	-0.848645	-0.518601
H132	H	0.861995	-1.005593	-0.616118
H133	H	0.801833	-1.005773	-0.555830
H134	H	0.750574	-0.865541	-0.606843
H135	H	0.810731	-0.865383	-0.667148
H136	H	0.754710	-0.956785	-0.662955
