data_functionalizedCrystal
_audit_creation_method	'MofGen! by Chris Wilmer'
_symmetry_space_group_name_H-M	'P1'
_symmetry_Int_Tables_number	1
_symmetry_cell_setting	triclinic
loop_
_symmetry_equiv_pos_as_xyz
  x,y,z
_cell_length_a	12.759401
_cell_length_b	12.759400
_cell_length_c	12.759393
_cell_angle_alpha	89.970195
_cell_angle_beta	89.979062
_cell_angle_gamma	90.016169
loop_
_atom_site_label
_atom_site_type_symbol
_atom_site_fract_x
_atom_site_fract_y
_atom_site_fract_z
Zn1	Zn	1.606267	-0.418173	-0.594025
Zn2	Zn	1.606158	-0.593888	-0.418347
Zn3	Zn	1.430565	-0.418229	-0.418360
Zn4	Zn	1.430558	-0.593815	-0.593985
O5	O	1.518387	-0.506026	-0.506179
O6	O	1.753273	-0.441489	-0.570733
O7	O	1.582823	-0.570641	-0.271328
O8	O	1.453921	-0.271200	-0.441685
O9	O	1.753193	-0.570587	-0.441663
O10	O	1.583008	-0.271159	-0.570745
O11	O	1.453816	-0.441584	-0.271337
O12	O	1.283543	-0.441513	-0.441646
O13	O	1.453908	-0.570461	-0.741011
O14	O	1.283538	-0.570516	-0.570676
O15	O	1.583001	-0.441418	-0.741041
O16	O	1.582815	-0.740900	-0.441624
O17	O	1.453803	-0.740846	-0.570664
C18	C	1.245420	-0.506013	-0.506159
C19	C	1.128643	-0.506033	-0.506175
C20	C	1.073805	-0.573307	-0.573255
C21	C	0.964081	-0.573311	-0.573276
C22	C	0.964042	-0.438764	-0.439127
C23	C	1.073764	-0.438756	-0.439112
C24	C	1.518325	-0.778994	-0.506161
C25	C	1.518394	-0.895770	-0.506188
C26	C	1.585581	-0.950521	-0.573447
C27	C	1.585640	-1.060245	-0.573475
C28	C	1.451323	-1.060458	-0.438977
C29	C	1.451260	-0.950736	-0.438955
C30	C	1.623201	-1.210073	-0.697444
C31	C	1.690404	-1.264827	-0.764694
C32	C	1.792889	-1.229117	-0.780907
C33	C	1.828193	-1.138653	-0.729855
C34	C	1.760996	-1.083904	-0.662597
C35	C	1.658496	-1.119613	-0.646404
C36	C	1.413709	-0.800906	-0.314984
C37	C	1.346516	-0.746155	-0.247721
C38	C	1.244029	-0.781864	-0.231497
C39	C	1.208729	-0.872331	-0.282531
C40	C	1.275922	-0.927081	-0.349794
C41	C	1.378408	-0.891365	-0.366019
C42	C	1.792420	-0.506040	-0.506201
C43	C	1.909197	-0.506046	-0.506210
C44	C	1.518466	-0.505925	-0.780213
C45	C	1.518499	-0.505882	-0.896990
C46	C	1.518478	-0.231993	-0.506221
C47	C	1.518517	-0.115216	-0.506239
C48	C	1.585723	-0.438679	-0.951869
C49	C	1.585740	-0.438633	-1.061593
C50	C	1.451308	-0.573004	-1.061549
C51	C	1.451286	-0.573044	-0.951827
C52	C	1.623352	-0.314677	-1.211570
C53	C	1.690592	-0.247482	-1.266452
C54	C	1.793105	-0.231372	-1.230861
C55	C	1.828399	-0.282471	-1.140388
C56	C	1.761164	-0.349673	-1.085511
C57	C	1.658637	-0.365764	-1.121101
C58	C	1.413685	-0.697002	-0.801848
C59	C	1.346455	-0.764210	-0.746969
C60	C	1.243940	-0.780331	-0.782559
C61	C	1.208650	-0.729251	-0.873035
C62	C	1.275880	-0.662042	-0.927914
C63	C	1.378394	-0.645919	-0.892317
C64	C	1.518369	-0.506051	-0.233212
C65	C	1.518539	-0.505798	-0.116436
H66	H	1.118485	-0.628086	-0.627864
F67	F	0.905724	-0.644911	-0.644674
H68	H	1.539876	-0.327780	-1.240552
F69	F	1.238318	-0.607676	-1.024207
F70	F	1.172397	-0.851880	-0.724159
H71	H	1.375269	-0.672495	-0.206161
F72	F	0.905627	-0.367169	-0.367757
H73	H	1.118414	-0.383967	-0.384487
H74	H	1.847852	-0.176660	-1.275554
F75	F	1.657029	-0.892026	-0.645005
H76	H	1.125276	-0.901407	-0.269319
F77	F	1.384021	-0.818584	-0.650681
F78	F	1.522784	-0.679820	-0.763945
F79	F	1.798563	-0.987634	-0.608264
H80	H	1.911652	-1.109591	-0.743052
F81	F	1.864410	-1.287395	-0.852478
F82	F	1.652829	-1.361104	-0.819023
H83	H	1.911879	-0.269355	-1.111422
F84	F	1.099543	-0.746410	-0.910917
H85	H	1.539746	-1.239151	-0.684260
H86	H	1.396666	-1.105224	-0.384236
H87	H	1.247172	-1.000745	-0.391348
F88	F	1.653027	-0.193101	-1.362738
H89	H	1.189323	-0.737276	-0.176722
F90	F	1.522791	-0.762896	-0.332245
F91	F	1.798720	-0.404056	-0.989230
H92	H	1.396588	-0.627687	-1.106211
H93	H	1.640449	-0.383989	-0.907223
