data_functionalizedCrystal
_audit_creation_method	'MofGen! by Chris Wilmer'
_symmetry_space_group_name_H-M	'P1'
_symmetry_Int_Tables_number	1
_symmetry_cell_setting	triclinic
loop_
_symmetry_equiv_pos_as_xyz
  x,y,z
_cell_length_a	14.395555
_cell_length_b	14.395555
_cell_length_c	20.016444
_cell_angle_alpha	59.999781
_cell_angle_beta	90.003415
_cell_angle_gamma	59.996935
loop_
_atom_site_label
_atom_site_type_symbol
_atom_site_fract_x
_atom_site_fract_y
_atom_site_fract_z
Zr1	Zr	0.894851	1.016798	-0.087648
O2	O	0.746502	1.210616	-0.194333
O3	O	0.940336	0.822991	-0.054943
O4	O	0.940315	1.016804	-0.194324
O5	O	0.746531	1.016796	0.054994
O6	O	1.093189	1.016797	-0.194318
O7	O	0.746523	1.016803	-0.054952
O8	O	1.093226	0.670101	0.055009
O9	O	0.746494	1.363492	-0.194334
O10	O	1.073813	0.902698	-0.040991
O11	O	0.959731	0.902698	0.041055
O12	O	0.959706	1.130887	-0.123048
O13	O	0.845624	1.130887	-0.041002
Zr14	Zr	1.138681	1.016776	0.087711
Zr15	Zr	1.138668	1.016787	-0.087639
Zr16	Zr	0.894864	1.016787	0.087702
Zr17	Zr	0.894838	1.260618	-0.087650
Zr18	Zr	1.138694	0.772957	0.087713
O19	O	1.093196	1.210584	0.055005
O20	O	1.093178	1.210600	-0.194319
O21	O	0.746521	1.210599	0.054992
O22	O	1.287030	0.822958	0.194395
O23	O	1.287011	0.822975	-0.054929
O24	O	0.940354	0.822974	0.194382
O25	O	1.287001	1.016779	-0.054931
O26	O	1.093217	1.016771	0.194386
O27	O	0.940343	1.016778	0.194381
O28	O	1.287009	1.016771	0.055014
O29	O	0.940295	1.363483	-0.194326
O30	O	1.093237	0.670091	0.194389
O31	O	1.287038	0.670083	0.194396
O32	O	1.287028	0.670092	0.055017
O33	O	0.746504	1.363482	-0.054954
O34	O	0.940306	1.363474	-0.054947
O35	O	1.073825	0.902687	0.123111
O36	O	1.187908	0.902687	0.041064
O37	O	1.073801	1.130877	-0.040993
O38	O	0.959719	1.130876	0.041054
C39	C	1.016783	0.711807	0.000034
C40	C	1.016789	0.608299	0.000034
C41	C	1.078981	0.547721	-0.044709
C42	C	1.124068	0.409605	0.032442
C43	C	0.971708	0.561980	-0.077108
C44	C	1.061939	0.471483	0.077231
C45	C	0.909519	0.623933	-0.032375
C46	C	0.954579	0.485826	0.044822
C47	C	0.711789	1.016801	0.000020
C48	C	0.608282	1.016806	0.000016
C49	C	0.485477	1.141225	-0.044718
C50	C	0.454643	1.079031	-0.077136
C51	C	0.454693	1.078994	0.032428
C52	C	0.578811	0.954611	-0.032448
C53	C	0.578858	0.954593	0.077159
C54	C	0.548097	0.892308	0.044761
C55	C	1.321743	1.016773	0.000043
C56	C	1.425250	1.016769	0.000047
C57	C	1.016750	1.016802	-0.219305
C58	C	1.016744	1.016807	-0.293745
C59	C	1.016749	1.321768	0.000029
C60	C	1.016743	1.425275	0.000028
C61	C	0.957202	1.135904	-0.507834
C62	C	0.957211	1.135899	-0.577775
C63	C	1.076338	0.897661	-0.492095
C64	C	1.076334	0.897668	-0.422156
C65	C	1.016760	1.016793	-0.430028
C66	C	1.016772	1.016781	-0.569909
C67	C	1.016783	1.016774	-0.645742
C68	C	1.016751	1.016801	-0.354191
C69	C	1.016782	1.016773	0.219367
C70	C	1.016788	1.016768	0.293808
C71	C	1.321760	0.711793	0.000045
C72	C	1.425273	0.608281	0.000050
C73	C	1.016799	0.711792	0.219369
C74	C	1.016810	0.608280	0.293811
C75	C	1.321776	0.711778	0.219381
C76	C	1.425294	0.608261	0.293826
C77	C	0.711756	1.321796	-0.219319
C78	C	0.608238	1.425313	-0.293764
C79	C	0.711772	1.321781	0.000017
C80	C	0.608259	1.425294	0.000013
C81	C	1.016733	1.321782	-0.219307
C82	C	1.016722	1.425295	-0.293748
C83	C	1.076372	0.559663	0.371609
C84	C	1.076378	0.462416	0.441561
C85	C	1.016829	0.413780	0.433713
C86	C	0.957260	0.462406	0.355908
C87	C	0.957248	0.559658	0.285957
C88	C	1.533467	0.559648	0.285959
C89	C	1.630742	0.462397	0.355902
C90	C	1.619842	0.413752	0.433711
C91	C	1.511658	0.462375	0.441576
C92	C	1.414385	0.559631	0.371634
C93	C	0.500065	1.473938	-0.285897
C94	C	0.402790	1.571220	-0.355839
C95	C	0.413690	1.619869	-0.433648
C96	C	0.521874	1.571240	-0.441514
C97	C	0.619147	1.473967	-0.371572
C98	C	1.076282	1.473900	-0.285875
C99	C	1.076294	1.571148	-0.355814
C100	C	1.016738	1.619796	-0.433625
C101	C	0.957175	1.571181	-0.441497
C102	C	0.957171	1.473928	-0.371559
C103	C	1.548074	0.547713	0.044769
C104	C	1.578945	0.409596	0.077173
C105	C	1.578835	0.562014	-0.032392
C106	C	1.454780	0.471463	0.032500
C107	C	1.454673	0.623955	-0.077108
C108	C	1.485471	0.485848	-0.044723
H109	H	1.100150	0.434087	0.142497
H110	H	0.401187	1.131600	0.059827
H111	H	0.908692	1.232904	-0.514249
H112	H	0.908665	1.434364	-0.377981
C113	C	0.891670	1.266930	-0.663362
N114	N	0.842295	1.365629	-0.727828
C115	C	0.891714	1.624661	-0.527098
N116	N	0.842422	1.664933	-0.591574
C117	C	1.141811	1.420399	-0.200288
N118	N	1.191177	1.380101	-0.135826
C119	C	1.450818	0.449342	-0.095840
N120	N	1.424722	0.421838	-0.134338
C121	C	1.141853	0.766630	-0.483444
N122	N	1.191196	0.667935	-0.476926
H123	H	0.901979	0.458799	0.082709
H124	H	0.632381	0.902050	0.142372
C125	C	1.651078	0.612317	-0.069420
N126	N	1.705493	0.650204	-0.097303
H127	H	1.401127	0.715628	-0.142314
C128	C	1.582438	0.584288	0.095960
N129	N	1.608317	0.611833	0.134520
H130	H	1.124840	0.800668	-0.358798
C131	C	0.650890	0.883635	-0.069570
N132	N	0.705179	0.830183	-0.097534
C133	C	1.141878	0.613152	0.380261
N134	N	1.191214	0.653441	0.386784
H135	H	0.908750	0.599228	0.222613
H136	H	0.491168	1.434333	-0.222547
C137	C	1.141923	0.408933	0.527139
N138	N	1.191296	0.368650	0.591595
C139	C	1.382738	0.420903	0.069633
N140	N	1.328477	0.382822	0.097605
H141	H	1.016848	0.334591	0.490678
C142	C	0.891766	0.408884	0.347289
N143	N	0.842443	0.368562	0.340800
H144	H	1.542364	0.599240	0.222610
C145	C	0.382291	1.150088	-0.165245
N146	N	0.327780	1.203622	-0.231607
C147	C	1.150142	0.584313	-0.095734
N148	N	1.203743	0.611871	-0.134162
H149	H	1.718822	0.422818	0.349483
H150	H	1.699057	0.334560	0.490655
H151	H	1.214767	0.317968	0.059856
H152	H	0.460025	1.246432	-0.082606
C153	C	0.533846	1.624757	-0.527111
N154	N	0.542859	1.665060	-0.591586
C155	C	1.499686	0.408841	0.527174
N156	N	1.490673	0.368509	0.591648
C157	C	0.283798	1.624691	-0.347169
N158	N	0.194176	1.664963	-0.340636
H159	H	0.818839	0.715592	-0.059807
H160	H	1.326309	0.599199	0.378051
C161	C	0.306675	1.726863	-0.510579
N162	N	0.226067	1.807445	-0.568520
H163	H	0.707224	1.434378	-0.377987
C164	C	1.016752	1.726780	-0.510552
N165	N	1.016764	1.807362	-0.568490
C166	C	0.920220	0.612254	-0.165240
N167	N	0.881447	0.650121	-0.231621
H168	H	1.632495	0.317947	0.142394
H169	H	0.573763	0.787014	0.082595
H170	H	1.124795	1.610720	-0.349388
