data_functionalizedCrystal
_audit_creation_method	'MofGen! by Chris Wilmer'
_symmetry_space_group_name_H-M	'P1'
_symmetry_Int_Tables_number	1
_symmetry_cell_setting	triclinic
loop_
_symmetry_equiv_pos_as_xyz
  x,y,z
_cell_length_a	16.120490
_cell_length_b	12.594516
_cell_length_c	12.594517
_cell_angle_alpha	90.001327
_cell_angle_beta	92.896298
_cell_angle_gamma	87.108688
loop_
_atom_site_label
_atom_site_type_symbol
_atom_site_fract_x
_atom_site_fract_y
_atom_site_fract_z
Zn1	Zn	1.274435	-0.506707	0.684237
Zn2	Zn	1.607769	-0.173374	1.017570
Zn3	Zn	1.941102	0.159960	1.350904
Zn4	Zn	1.274397	-0.684637	0.506262
Zn5	Zn	1.607730	-0.351304	0.839596
Zn6	Zn	1.941063	-0.017971	1.172929
Zn7	Zn	1.135063	-0.497628	0.497259
Zn8	Zn	1.468396	-0.164294	0.830592
Zn9	Zn	1.801729	0.169039	1.163926
Zn10	Zn	1.135002	-0.675592	0.675184
Zn11	Zn	1.468335	-0.342258	1.008517
Zn12	Zn	1.801669	-0.008925	1.341850
O13	O	1.204724	-0.591141	0.590736
O14	O	1.538057	-0.257808	0.924069
O15	O	1.871391	0.075526	1.257402
O16	O	1.391095	-0.537895	0.668185
O17	O	1.724429	-0.204562	1.001519
O18	O	2.057762	0.128772	1.334852
O19	O	1.255923	-0.659816	0.356123
O20	O	1.589256	-0.326483	0.689456
O21	O	1.922590	0.006851	1.022790
O22	O	1.153592	-0.349889	0.522083
O23	O	1.486926	-0.016556	0.855416
O24	O	1.820259	0.316778	1.188749
O25	O	1.391067	-0.668620	0.537428
O26	O	1.724400	-0.335286	0.870761
O27	O	2.057734	-0.001953	1.204095
O28	O	1.255989	-0.356559	0.659455
O29	O	1.589322	-0.023226	0.992788
O30	O	1.922656	0.310107	1.326121
O31	O	1.153555	-0.522421	0.349508
O32	O	1.486888	-0.189088	0.682841
O33	O	1.820222	0.144246	1.016175
O34	O	1.018389	-0.513650	0.513304
O35	O	1.351723	-0.180317	0.846637
O36	O	1.685056	0.153017	1.179971
O37	O	1.153489	-0.653203	0.825330
O38	O	1.486822	-0.319870	1.158663
O39	O	1.820155	0.013464	1.491997
O40	O	1.018345	-0.644399	0.644025
O41	O	1.351678	-0.311066	0.977358
O42	O	1.685011	0.022267	1.310691
O43	O	1.255930	-0.529124	0.831981
O44	O	1.589263	-0.195791	1.165315
O45	O	1.922597	0.137543	1.498648
O46	O	1.255864	-0.832380	0.528649
O47	O	1.589197	-0.499047	0.861983
O48	O	1.922531	-0.165714	1.195316
O49	O	1.153451	-0.825735	0.652755
O50	O	1.486785	-0.492401	0.986089
O51	O	1.820118	-0.159068	1.319422
C52	C	0.988117	-0.577059	0.576706
C53	C	1.321450	-0.243725	0.910039
C54	C	1.654784	0.089608	1.243372
C55	C	0.895452	-0.571060	0.570729
C56	C	1.228785	-0.237726	0.904062
C57	C	1.562118	0.095607	1.237395
C58	C	0.684503	-0.622250	0.621740
C59	C	1.017836	-0.288916	0.955073
C60	C	1.351170	0.044417	1.288407
C61	C	0.725796	-0.560117	0.559815
C62	C	1.059130	-0.226784	0.893149
C63	C	1.392463	0.106550	1.226482
C64	C	0.820201	-0.566207	0.565889
C65	C	1.153535	-0.232874	0.899223
C66	C	1.486868	0.100459	1.232556
C67	C	0.590090	-0.616161	0.615667
C68	C	0.923423	-0.282827	0.949001
C69	C	1.256756	0.050506	1.282334
C70	C	1.204670	-0.867678	0.590722
C71	C	1.538003	-0.534345	0.924055
C72	C	1.871336	-0.201012	1.257388
C73	C	1.204722	-0.985987	0.590756
C74	C	1.538056	-0.652654	0.924089
C75	C	1.871389	-0.319321	1.257423
C76	C	1.149015	-1.051664	0.658207
C77	C	1.482348	-0.718331	0.991540
C78	C	1.815681	-0.384997	1.324874
C79	C	1.128727	-1.121170	0.559773
C80	C	1.462061	-0.787837	0.893106
C81	C	1.795394	-0.454504	1.226439
C82	C	1.225086	-1.127285	0.689212
C83	C	1.558419	-0.793952	1.022545
C84	C	1.891752	-0.460618	1.355879
C85	C	1.184395	-1.053933	0.492268
C86	C	1.517728	-0.720599	0.825601
C87	C	1.851062	-0.387266	1.158935
C88	C	1.280789	-1.060043	0.621775
C89	C	1.614122	-0.726710	0.955108
C90	C	1.947455	-0.393377	1.288441
C91	C	1.260530	-1.129519	0.523276
C92	C	1.593863	-0.796186	0.856609
C93	C	1.927197	-0.462853	1.189942
C94	C	1.422177	-0.605279	0.604821
C95	C	1.755510	-0.271946	0.938154
C96	C	2.088844	0.061388	1.271488
C97	C	1.514842	-0.611304	0.610823
C98	C	1.848176	-0.277971	0.944157
C99	C	2.181509	0.055363	1.277490
C100	C	1.204707	-0.591167	0.868355
C101	C	1.538040	-0.257834	1.201689
C102	C	1.871374	0.075500	1.535022
C103	C	1.204700	-0.591178	0.986660
C104	C	1.538033	-0.257845	1.319994
C105	C	1.871366	0.075488	1.653327
C106	C	1.204802	-0.313525	0.590774
C107	C	1.538135	0.019808	0.924108
C108	C	1.871468	0.353142	1.257441
C109	C	1.204835	-0.195222	0.590791
C110	C	1.538168	0.138112	0.924124
C111	C	1.871501	0.471445	1.257458
C112	C	1.148981	-0.658655	1.052296
C113	C	1.482314	-0.325321	1.385629
C114	C	1.815648	0.008012	1.718962
C115	C	1.225034	-0.689629	1.128002
C116	C	1.558368	-0.356295	1.461335
C117	C	1.891701	-0.022962	1.794669
C118	C	1.128650	-0.560232	1.121753
C119	C	1.461983	-0.226898	1.455086
C120	C	1.795317	0.106435	1.788420
C121	C	1.280793	-0.622205	1.060811
C122	C	1.614126	-0.288872	1.394144
C123	C	1.947460	0.044461	1.727478
C124	C	1.184357	-0.492760	1.054552
C125	C	1.517691	-0.159427	1.387886
C126	C	1.851024	0.173907	1.721219
C127	C	1.260463	-0.523701	1.130230
C128	C	1.593797	-0.190367	1.463564
C129	C	1.927130	0.142966	1.796897
C130	C	1.204723	-0.591146	1.314195
C131	C	1.538056	-0.257813	1.647528
C132	C	1.871390	0.075521	1.980861
C133	C	1.204695	-0.591158	1.195887
C134	C	1.538028	-0.257824	1.529221
C135	C	1.871362	0.075509	1.862554
H136	H	0.720049	-0.680013	0.679312
H137	H	1.053383	-0.346680	1.012645
H138	H	1.386716	-0.013347	1.345979
H139	H	1.101922	-0.715775	1.018199
H140	H	1.435256	-0.382442	1.351532
H141	H	1.768589	-0.049109	1.684866
H142	H	1.242244	-0.772851	1.160222
H143	H	1.575577	-0.439518	1.493555
H144	H	1.908910	-0.106184	1.826889
H145	H	1.101820	-1.017592	0.715155
H146	H	1.435154	-0.684258	1.048488
H147	H	1.768487	-0.350925	1.381822
H148	H	1.242264	-1.159460	0.772461
H149	H	1.575597	-0.826126	1.105794
H150	H	1.908930	-0.492793	1.439128
H151	H	1.167126	-0.409560	1.022308
H152	H	1.500459	-0.076227	1.355641
H153	H	1.833793	0.257107	1.688974
H154	H	1.345124	-0.648466	1.034010
H155	H	1.678457	-0.315132	1.367344
H156	H	2.011790	0.018201	1.700677
H157	H	1.307635	-0.466633	1.164139
H158	H	1.640968	-0.133299	1.497472
H159	H	1.974302	0.200034	1.830806
H160	H	1.167143	-1.021881	0.408992
H161	H	1.500476	-0.688548	0.742325
H162	H	1.833809	-0.355215	1.075658
H163	H	1.064452	-1.148207	0.533563
H164	H	1.397785	-0.814874	0.866897
H165	H	1.731119	-0.481540	1.200230
H166	H	1.345049	-1.033009	0.648030
H167	H	1.678383	-0.699675	0.981363
H168	H	2.011716	-0.366342	1.314697
H169	H	0.690248	-0.502350	0.502238
H170	H	1.023581	-0.169016	0.835571
H171	H	1.356915	0.164317	1.168904
H172	H	1.307688	-1.163393	0.466180
H173	H	1.641022	-0.830059	0.799513
H174	H	1.974355	-0.496726	1.132847
H175	H	1.064338	-0.534066	1.148686
H176	H	1.397671	-0.200732	1.482019
H177	H	1.731005	0.132601	1.815353
