data_functionalizedCrystal
_audit_creation_method	'MofGen! by Chris Wilmer'
_symmetry_space_group_name_H-M	'P1'
_symmetry_Int_Tables_number	1
_symmetry_cell_setting	triclinic
loop_
_symmetry_equiv_pos_as_xyz
  x,y,z
_cell_length_a	15.538191
_cell_length_b	15.944493
_cell_length_c	14.185569
_cell_angle_alpha	76.852849
_cell_angle_beta	97.875798
_cell_angle_gamma	65.373569
loop_
_atom_site_label
_atom_site_type_symbol
_atom_site_fract_x
_atom_site_fract_y
_atom_site_fract_z
O1	O	1.228575	-0.247258	-0.083459
O2	O	0.954303	-0.150266	-0.083447
O3	O	1.098955	-0.323330	-0.083462
O4	O	1.083923	-0.074194	-0.083444
O5	O	1.141687	-0.374451	0.083368
O6	O	0.997034	-0.201387	0.083383
O7	O	1.271307	-0.298378	0.083371
Cu8	Cu	1.138072	-0.254550	0.098610
Cu9	Cu	1.087537	-0.194094	-0.098686
O10	O	1.126654	-0.125314	0.083386
C11	C	0.940572	-0.165679	-0.000031
C12	C	0.835994	-0.135452	-0.000027
C13	C	1.119705	-0.379997	-0.000051
C14	C	1.117859	-0.472679	-0.000064
C15	C	0.548245	-0.435750	-0.000063
C16	C	0.449975	-0.407325	-0.000062
C17	C	0.427508	-0.247444	-0.000050
C18	C	0.525779	-0.275857	-0.000047
C19	C	0.586140	-0.370011	-0.000054
C20	C	0.563675	-0.210117	-0.000038
C21	C	0.661936	-0.238527	-0.000040
C22	C	0.722303	-0.332675	-0.000050
C23	C	0.684402	-0.398420	-0.000056
C24	C	0.503310	-0.115961	-0.000038
C25	C	0.541205	-0.050222	-0.000029
C26	C	0.639470	-0.078633	-0.000023
C27	C	0.699837	-0.172782	-0.000034
C28	C	0.677371	-0.012888	-0.000017
C29	C	0.775633	-0.041298	-0.000019
C30	C	0.798099	-0.201191	-0.000035
C31	C	1.203011	-0.734409	-0.000048
C32	C	1.136026	-0.745771	-0.082302
C33	C	1.114449	-0.642363	-0.000051
C34	C	1.178135	-0.796141	0.082180
C35	C	1.111162	-0.806274	-0.000035
C36	C	1.047470	-0.652483	-0.082372
C37	C	1.089611	-0.702877	0.082183
C38	C	1.022556	-0.714180	-0.000091
C39	C	1.116344	-0.547939	-0.000061
C40	C	1.109257	-0.900691	-0.000032
C41	C	1.285037	-0.282965	-0.000048
C42	C	1.389613	-0.313190	-0.000058
C43	C	1.105904	-0.068647	-0.000027
C44	C	1.107748	0.024037	-0.000021
N45	N	1.173623	-0.297074	0.237377
N46	N	1.051994	-0.151579	-0.237453
C47	C	0.947547	-0.026680	0.605050
C48	C	0.974482	-0.058888	0.710069
C49	C	1.102598	-0.212101	0.710017
C50	C	1.075670	-0.179908	0.604996
C51	C	0.998145	-0.087197	0.552521
C52	C	1.126268	-0.240425	0.552467
C53	C	1.099345	-0.208232	0.447455
C54	C	1.021825	-0.115523	0.394973
C55	C	0.971222	-0.055004	0.447509
C56	C	1.203797	-0.333133	0.604944
C57	C	1.254395	-0.393650	0.552415
C58	C	1.227468	-0.361460	0.447401
C59	C	1.149948	-0.268751	0.394918
C60	C	1.278071	-0.421979	0.394864
C61	C	1.251148	-0.389786	0.289853
C62	C	1.123025	-0.236558	0.289907
H63	H	0.847250	-0.277863	-0.000036
F64	F	0.920622	0.005534	0.765968
H65	H	0.378348	-0.170782	-0.000049
F66	F	1.161628	-0.770661	-0.173199
F67	F	1.185107	-0.310768	0.765874
F68	F	0.975308	-0.572037	-0.173365
H69	H	0.423299	-0.092833	-0.000040
F70	F	1.064066	-0.677970	0.173086
H71	H	0.492045	0.026440	-0.000027
H72	H	0.802310	-0.355801	-0.000065
F73	F	0.613115	0.087318	-0.000025
H74	H	0.806489	0.012231	-0.000003
H75	H	0.946201	-0.706352	-0.000132
F76	F	1.302691	-0.744351	-0.000158
F77	F	1.250322	-0.876719	0.173068
H78	H	0.419126	-0.460865	-0.000071
F79	F	1.040504	-0.137887	0.234056
H80	H	0.999908	-0.089311	0.309465
H81	H	0.908086	0.020487	0.404782
F82	F	0.865026	0.071990	0.549200
F83	F	1.232451	-0.367389	0.716708
H84	H	1.317520	-0.469135	0.595152
F85	F	1.360585	-0.520642	0.450723
H86	H	1.292351	-0.439065	0.247083
F87	F	0.748652	-0.498634	-0.000052
H88	H	0.597397	-0.512422	-0.000063
