data_functionalizedCrystal
_audit_creation_method	'MofGen! by Chris Wilmer'
_symmetry_space_group_name_H-M	'P1'
_symmetry_Int_Tables_number	1
_symmetry_cell_setting	triclinic
loop_
_symmetry_equiv_pos_as_xyz
  x,y,z
_cell_length_a	19.288840
_cell_length_b	12.837942
_cell_length_c	18.366186
_cell_angle_alpha	89.994829
_cell_angle_beta	89.983729
_cell_angle_gamma	88.977478
loop_
_atom_site_label
_atom_site_type_symbol
_atom_site_fract_x
_atom_site_fract_y
_atom_site_fract_z
O1	O	0.930183	0.129151	-0.060672
O2	O	0.729113	0.146617	-0.060647
O3	O	0.825189	-0.012997	-0.060655
O4	O	0.834106	0.288766	-0.060665
O5	O	0.825171	-0.013005	0.060445
O6	O	0.729094	0.146609	0.060452
O7	O	0.930164	0.129143	0.060427
Zn8	Zn	0.829626	0.137875	0.079667
Zn9	Zn	0.829651	0.137885	-0.079887
O10	O	0.834088	0.288758	0.060435
C11	C	0.703188	0.146056	-0.000094
C12	C	0.625970	0.144382	-0.000084
C13	C	0.822168	-0.051607	-0.000105
C14	C	0.813183	-0.166641	-0.000105
C15	C	0.589721	0.143582	-0.066097
C16	C	0.517166	0.141997	-0.066106
C17	C	0.480863	0.141192	-0.000098
C18	C	0.517119	0.141998	0.065924
C19	C	0.589673	0.143593	0.065931
C20	C	0.367210	0.077963	0.050465
C21	C	0.294658	0.076362	0.050455
C22	C	0.257083	0.136277	-0.000117
C23	C	0.292070	0.197780	-0.050692
C24	C	0.364624	0.199375	-0.050685
C25	C	0.402190	0.139463	-0.000098
C26	C	0.142162	0.133761	-0.066144
C27	C	0.069606	0.132183	-0.066150
C28	C	0.069561	0.132173	0.065881
C29	C	0.142116	0.133761	0.065885
C30	C	0.178412	0.134550	-0.000129
C31	C	0.921189	-0.408118	-0.000134
C32	C	0.912751	-0.516204	-0.000134
C33	C	0.787870	-0.490899	-0.000111
C34	C	0.796308	-0.382814	-0.000110
C35	C	0.862970	-0.341428	-0.000121
C36	C	0.871407	-0.233340	-0.000115
C37	C	0.746526	-0.208038	-0.000098
C38	C	0.738088	-0.316123	-0.000098
C39	C	0.956088	0.129705	-0.000127
C40	C	1.033307	0.131379	-0.000142
C41	C	0.837109	0.327368	-0.000116
C42	C	0.846093	0.442402	-0.000121
N43	N	0.829614	0.137867	0.188558
N44	N	0.829667	0.137885	-0.188778
C45	C	0.872175	0.067225	0.226655
C46	C	0.872179	0.067220	0.302883
C47	C	0.829630	0.137876	0.341011
C48	C	0.787061	0.208524	0.302905
C49	C	0.787053	0.208520	0.226678
C50	C	0.826780	0.232299	0.461769
C51	C	0.826793	0.232305	0.537994
C52	C	0.829651	0.137889	0.576118
C53	C	0.832511	0.043464	0.538009
C54	C	0.832503	0.043459	0.461782
C55	C	0.829634	0.137888	0.423666
C56	C	0.872218	0.067235	0.696870
C57	C	0.872217	0.067229	0.773100
C58	C	0.787104	0.208542	0.773120
C59	C	0.787100	0.208539	0.696892
C60	C	0.829662	0.137887	0.658772
H61	H	0.619269	0.144224	-0.119852
H62	H	0.733596	-0.524615	-0.000110
C63	C	0.835635	-0.060401	0.419861
C64	C	0.838775	-0.164263	0.461786
C65	C	0.841901	-0.268124	0.419864
C66	C	0.841887	-0.268124	0.336018
C67	C	0.838747	-0.164259	0.294089
C68	C	0.835621	-0.060397	0.336010
H69	H	0.838785	-0.164266	0.523858
H70	H	0.844225	-0.345012	0.450904
H71	H	0.844201	-0.345009	0.304986
H72	H	0.838737	-0.164255	0.232017
H73	H	0.833297	0.016491	0.304971
C74	C	0.740298	0.286264	0.815052
C75	C	0.740355	0.286338	0.898898
C76	C	0.693545	0.364058	0.940835
C77	C	0.646679	0.441704	0.898927
C78	C	0.646621	0.441633	0.815076
C79	C	0.693430	0.363913	0.773139
H80	H	0.775049	0.228857	0.929926
H81	H	0.693589	0.364110	1.002907
H82	H	0.612028	0.499237	0.929971
H83	H	0.611926	0.499114	0.784048
H84	H	0.693386	0.363861	0.711067
H85	H	0.906829	0.009693	0.195620
H86	H	0.925687	-0.199646	-0.000121
H87	H	0.487556	0.141344	0.119668
C88	C	0.403113	0.267026	-0.106310
C89	C	0.451136	0.353729	-0.079792
C90	C	0.489627	0.421381	-0.135416
C91	C	0.480093	0.402331	-0.217557
C92	C	0.432067	0.315624	-0.244078
C93	C	0.393577	0.247971	-0.188455
H94	H	0.458196	0.367835	-0.018983
H95	H	0.525179	0.485568	-0.115782
H96	H	0.508586	0.452411	-0.258732
H97	H	0.425008	0.301518	-0.304888
H98	H	0.358025	0.183785	-0.208088
C99	C	0.740258	0.286249	0.344841
C100	C	0.740301	0.286308	0.428687
C101	C	0.693493	0.364033	0.470622
C102	C	0.646642	0.441697	0.428711
C103	C	0.646597	0.441640	0.344860
C104	C	0.693405	0.363916	0.302925
H105	H	0.774984	0.228814	0.459716
H106	H	0.693526	0.364074	0.532694
H107	H	0.611991	0.499233	0.459754
H108	H	0.611913	0.499135	0.313831
H109	H	0.693372	0.363874	0.240853
H110	H	0.824468	0.309191	0.569017
C111	C	0.629548	0.144457	0.138551
C112	C	0.617614	0.234196	0.193013
C113	C	0.657490	0.235054	0.265635
C114	C	0.709301	0.146173	0.283794
C115	C	0.721238	0.056428	0.229330
C116	C	0.681362	0.055570	0.156709
H117	H	0.579258	0.299997	0.179572
H118	H	0.648653	0.301490	0.305952
H119	H	0.738820	0.146808	0.337553
H120	H	0.759594	-0.009373	0.242772
H121	H	0.690199	-0.010867	0.116391
H122	H	0.960160	-0.570500	-0.000146
C123	C	0.664762	-0.361649	-0.000085
C124	C	0.614415	-0.336335	-0.062957
C125	C	0.541087	-0.381856	-0.062942
C126	C	0.518105	-0.452692	-0.000055
C127	C	0.568453	-0.478010	0.062821
C128	C	0.641782	-0.432489	0.062806
H129	H	0.631427	-0.283895	-0.109514
H130	H	0.503816	-0.363114	-0.109488
H131	H	0.463823	-0.486389	-0.000044
H132	H	0.551442	-0.530450	0.109378
H133	H	0.679052	-0.451231	0.109352
H134	H	0.699120	-0.153726	-0.000081
C135	C	0.256179	0.008704	0.106084
C136	C	0.265716	0.027764	0.188223
C137	C	0.227240	-0.039898	0.243852
C138	C	0.179228	-0.126621	0.217342
C139	C	0.169690	-0.145684	0.135198
C140	C	0.208165	-0.078022	0.079569
H141	H	0.301259	0.091964	0.207851
H142	H	0.234302	-0.025786	0.304661
H143	H	0.150747	-0.176708	0.258522
H144	H	0.134146	-0.209885	0.115570
H145	H	0.201103	-0.092135	0.018761
H146	H	0.906838	0.009692	0.333907
C147	C	0.919036	-0.010483	0.815012
C148	C	0.965866	-0.088172	0.773079
C149	C	1.012686	-0.165884	0.814993
C150	C	1.012675	-0.165907	0.898839
C151	C	0.965843	-0.088215	0.940776
C152	C	0.919024	-0.010503	0.898862
H153	H	0.965876	-0.088158	0.711007
H154	H	1.047354	-0.223397	0.783948
H155	H	1.047334	-0.223434	0.929866
H156	H	0.965834	-0.088229	1.002848
H157	H	0.884356	0.047010	0.929907
H158	H	0.975468	-0.374421	-0.000135
H159	H	0.834838	-0.033419	0.569048
H160	H	0.487647	0.141347	-0.119864
H161	H	0.906872	0.009703	0.665832
H162	H	0.261478	0.246573	-0.091871
H163	H	0.752447	0.266067	0.665871
H164	H	0.171716	0.134414	-0.119898
H165	H	0.040094	0.131538	-0.119908
H166	H	0.040003	0.131523	0.119626
H167	H	0.171630	0.134406	0.119641
H168	H	0.397797	0.029170	0.091651
H169	H	0.824440	0.309189	0.430734
H170	H	0.752395	0.266047	0.195659
