data_functionalizedCrystal
_audit_creation_method	'MofGen! by Chris Wilmer'
_symmetry_space_group_name_H-M	'P1'
_symmetry_Int_Tables_number	1
_symmetry_cell_setting	triclinic
loop_
_symmetry_equiv_pos_as_xyz
  x,y,z
_cell_length_a	15.297475
_cell_length_b	15.297327
_cell_length_c	15.296720
_cell_angle_alpha	107.319222
_cell_angle_beta	91.617114
_cell_angle_gamma	91.625546
loop_
_atom_site_label
_atom_site_type_symbol
_atom_site_fract_x
_atom_site_fract_y
_atom_site_fract_z
Zn1	Zn	1.116342	-0.695081	-0.823122
Zn2	Zn	1.116246	-0.823682	-0.694497
Zn3	Zn	1.005113	-0.644908	-0.644396
Zn4	Zn	0.946204	-0.814903	-0.814406
O5	O	1.045976	-0.744644	-0.744105
O6	O	1.234042	-0.736812	-0.830675
O7	O	1.126118	-0.782644	-0.562870
O8	O	1.044561	-0.526600	-0.650785
O9	O	1.233972	-0.831295	-0.736174
O10	O	1.126281	-0.563461	-0.782095
O11	O	1.044469	-0.651299	-0.526062
O12	O	0.879585	-0.642787	-0.642333
O13	O	0.944159	-0.816332	-0.940543
O14	O	0.836305	-0.767682	-0.767239
O15	O	1.069159	-0.728299	-0.946946
O16	O	1.068996	-0.947482	-0.727722
O17	O	0.944066	-0.941032	-0.815819
C18	C	0.827423	-0.698838	-0.698404
C19	C	0.733917	-0.679267	-0.678877
C20	C	1.000147	-0.976666	-0.776286
C21	C	0.980613	-1.075946	-0.790099
C22	C	0.380296	-0.884531	-0.883671
C23	C	0.468149	-0.902925	-0.902016
C24	C	0.534595	-0.847012	-0.846233
C25	C	0.513180	-0.772701	-0.772102
C26	C	0.425318	-0.754309	-0.753750
C27	C	0.579617	-0.716791	-0.716312
C28	C	0.558202	-0.642480	-0.642181
C29	C	0.470348	-0.624091	-0.623833
C30	C	0.403902	-0.680004	-0.679616
C31	C	0.667479	-0.735183	-0.734664
C32	C	0.712501	-0.604961	-0.604743
C33	C	0.624648	-0.586567	-0.586398
C34	C	1.185880	-1.369169	-0.645759
C35	C	1.204235	-1.275889	-0.632777
C36	C	1.148331	-1.225899	-0.672106
C37	C	1.074069	-1.269198	-0.724420
C38	C	1.055710	-1.362485	-0.737398
C39	C	1.018160	-1.219215	-0.763745
C40	C	0.943898	-1.262513	-0.816059
C41	C	0.925542	-1.355791	-0.829035
C42	C	0.981446	-1.405781	-0.789706
C43	C	1.036520	-1.125928	-0.750767
C44	C	0.906349	-1.119243	-0.842406
C45	C	0.887995	-1.212523	-0.855389
C46	C	1.265382	-0.790629	-0.789986
C47	C	1.358880	-0.810225	-0.809537
C48	C	1.000098	-0.776933	-0.977057
C49	C	0.980548	-0.790693	-1.076327
C50	C	1.092003	-0.511723	-0.711823
C51	C	1.111617	-0.412466	-0.698067
C52	C	1.185768	-0.646151	-1.369491
C53	C	1.204141	-0.633225	-1.276224
C54	C	1.148244	-0.672591	-1.226245
C55	C	1.073971	-0.724884	-1.269543
C56	C	1.055600	-0.737817	-1.362821
C57	C	1.018076	-0.764257	-1.219575
C58	C	0.943803	-0.816551	-1.262873
C59	C	0.925434	-0.829480	-1.356142
C60	C	0.981331	-0.790115	-1.406121
C61	C	1.036448	-0.751324	-1.126296
C62	C	0.906280	-0.842991	-1.119626
C63	C	0.887906	-0.855916	-1.212894
C64	C	1.091736	-0.712426	-0.512061
C65	C	1.111499	-0.698449	-0.412791
H66	H	0.684906	-0.795687	-0.795023
O67	O	1.166192	-1.135266	-0.659334
C68	C	1.167611	-1.087768	-0.564889
H69	H	1.181563	-1.137422	-0.523949
H70	H	1.220976	-1.031093	-0.548294
H71	H	1.101446	-1.056381	-0.546054
O72	O	0.963457	-0.802836	-1.496748
C73	C	0.962033	-0.897266	-1.544298
H74	H	0.948081	-0.938244	-1.494675
H75	H	0.908666	-0.913832	-1.600966
H76	H	1.028197	-0.916078	-1.575704
H77	H	0.865066	-1.391038	-0.871621
H78	H	0.452917	-0.563590	-0.563462
O79	O	0.851905	-0.881332	-1.071231
C80	C	0.782404	-0.930249	-1.129443
H81	H	0.803151	-0.949781	-1.203566
H82	H	0.764838	-0.994990	-1.110364
H83	H	0.723026	-0.885533	-1.121471
O84	O	1.108657	-0.700662	-1.084234
C85	C	1.163560	-0.755397	-1.048661
H86	H	1.149329	-0.830717	-1.087599
H87	H	1.234886	-0.736515	-1.056663
H88	H	1.150864	-0.743219	-0.972959
H89	H	1.264697	-1.240639	-0.590182
O90	O	0.619967	-0.864711	-0.864036
C91	C	0.661659	-0.788512	-0.881408
H92	H	0.624174	-0.724346	-0.848522
H93	H	0.731505	-0.779294	-0.851218
H94	H	0.663012	-0.800278	-0.958530
H95	H	0.864962	-0.872070	-1.391395
H96	H	1.264616	-0.590650	-1.240978
O97	O	0.488798	-0.975116	-0.974084
C98	C	0.411316	-1.020536	-1.019372
H99	H	0.355289	-0.971289	-1.004375
H100	H	0.420957	-1.045245	-1.096365
H101	H	0.395048	-1.081801	-0.993999
H102	H	1.231275	-0.614111	-1.410194
H103	H	0.827530	-1.247790	-0.897983
H104	H	0.860826	-1.078541	-0.874430
O105	O	0.963461	-1.496364	-0.802289
C106	C	0.881250	-1.507543	-0.766761
H107	H	0.840357	-1.445778	-0.764360
H108	H	0.846058	-1.572388	-0.812592
H109	H	0.890855	-1.513504	-0.694605
O110	O	0.815857	-0.906844	-1.255038
C111	C	0.841725	-0.982024	-1.327014
H112	H	0.912421	-0.997531	-1.313522
H113	H	0.797510	-1.044517	-1.331239
H114	H	0.836161	-0.964816	-1.394482
O115	O	1.165934	-0.660032	-1.135617
C116	C	1.096002	-0.615868	-1.084395
H117	H	1.033947	-0.628385	-1.130124
H118	H	1.085375	-0.644398	-1.024475
H119	H	1.112136	-0.539109	-1.057168
O120	O	0.318604	-0.661983	-0.661690
C121	C	0.313946	-0.584425	-0.584280
H122	H	0.377326	-0.541106	-0.575188
H123	H	0.256540	-0.542019	-0.594320
H124	H	0.304206	-0.607434	-0.520739
O125	O	1.240209	-1.417811	-0.607692
C126	C	1.273856	-1.490166	-0.677413
H127	H	1.270728	-1.472860	-0.744925
H128	H	1.344753	-1.500305	-0.658818
H129	H	1.233295	-1.555841	-0.684875
H130	H	0.326190	-0.930052	-0.929077
O131	O	0.603797	-0.514494	-0.514298
C132	C	0.554303	-0.546601	-0.452968
H133	H	0.568006	-0.621689	-0.462620
H134	H	0.573212	-0.504463	-0.379582
H135	H	0.481670	-0.539614	-0.467109
H136	H	0.766603	-0.559433	-0.559318
H137	H	1.096984	-1.090683	-0.708172
