data_functionalizedCrystal
_audit_creation_method	'MofGen! by Chris Wilmer'
_symmetry_space_group_name_H-M	'P1'
_symmetry_Int_Tables_number	1
_symmetry_cell_setting	triclinic
loop_
_symmetry_equiv_pos_as_xyz
  x,y,z
_cell_length_a	10.686220
_cell_length_b	16.625546
_cell_length_c	10.686551
_cell_angle_alpha	85.590142
_cell_angle_beta	90.308082
_cell_angle_gamma	94.404440
loop_
_atom_site_label
_atom_site_type_symbol
_atom_site_fract_x
_atom_site_fract_y
_atom_site_fract_z
Zn1	Zn	1.972246	-0.196578	-0.562364
Zn2	Zn	1.955985	-0.342520	-0.352588
Zn3	Zn	1.746360	-0.217205	-0.368679
Zn4	Zn	1.762416	-0.340886	-0.578366
O5	O	1.859251	-0.274297	-0.465499
O6	O	2.145632	-0.207989	-0.521106
O7	O	1.914653	-0.335213	-0.179176
O8	O	1.776409	-0.101630	-0.394408
O9	O	2.133686	-0.315212	-0.366985
O10	O	1.942367	-0.086476	-0.536708
O11	O	1.760642	-0.243144	-0.190998
O12	O	1.572946	-0.241560	-0.409925
O13	O	1.803775	-0.312427	-0.751790
O14	O	1.584742	-0.332428	-0.563982
O15	O	1.957936	-0.206405	-0.740033
O16	O	1.930222	-0.455142	-0.382502
O17	O	1.788007	-0.453942	-0.548380
C18	C	1.533328	-0.289055	-0.490437
C19	C	1.393898	-0.295387	-0.501135
C20	C	1.859129	-0.483797	-0.465456
C21	C	1.859194	-0.573414	-0.465470
C22	C	1.859423	-0.901572	-0.465584
C23	C	1.859356	-0.810269	-0.465556
C24	C	1.859308	-0.737496	-0.465527
C25	C	1.859242	-0.646186	-0.465500
C26	C	2.186448	-0.259482	-0.440465
C27	C	2.325880	-0.253169	-0.429797
C28	C	1.884460	-0.256933	-0.792702
C29	C	1.895202	-0.249534	-0.932136
C30	C	1.859411	-0.063977	-0.465568
C31	C	1.859479	0.025649	-0.465597
C32	C	1.834213	-0.291533	-0.139565
C33	C	1.823714	-0.298694	-0.000113
H34	H	1.345458	-0.336383	-0.570392
H35	H	1.964635	-0.201784	-0.980614
C36	C	1.390608	-0.198639	-0.337361
C37	C	1.459621	-0.245109	-0.251149
C38	C	1.519287	-0.194901	-0.165988
H39	H	1.329378	-0.172982	-0.293909
H40	H	1.445520	-0.158719	-0.381531
H41	H	1.404713	-0.285014	-0.206984
H42	H	1.520871	-0.270764	-0.294565
H43	H	1.574199	-0.154982	-0.210157
H44	H	1.458048	-0.169248	-0.122545
H45	H	1.566128	-0.226423	-0.107490
C46	C	1.731336	-0.362411	-0.935308
C47	C	1.796600	-0.414809	-0.854607
C48	C	1.711542	-0.473509	-0.794865
H49	H	1.687885	-0.392349	-0.996502
H50	H	1.672826	-0.336746	-0.888307
H51	H	1.855088	-0.440472	-0.901605
H52	H	1.840047	-0.384895	-0.793389
H53	H	1.653032	-0.447844	-0.747864
H54	H	1.668096	-0.503440	-0.856069
H55	H	1.755810	-0.509063	-0.740095
