data_functionalizedCrystal
_audit_creation_method	'MofGen! by Chris Wilmer'
_symmetry_space_group_name_H-M	'P1'
_symmetry_Int_Tables_number	1
_symmetry_cell_setting	triclinic
loop_
_symmetry_equiv_pos_as_xyz
  x,y,z
_cell_length_a	10.654558
_cell_length_b	19.188930
_cell_length_c	17.666332
_cell_angle_alpha	90.009680
_cell_angle_beta	90.005198
_cell_angle_gamma	83.816549
loop_
_atom_site_label
_atom_site_type_symbol
_atom_site_fract_x
_atom_site_fract_y
_atom_site_fract_z
O1	O	1.665762	0.098089	0.062947
O2	O	1.300087	0.107426	0.062952
O3	O	1.493477	0.001171	0.062935
O4	O	1.472372	0.204344	0.062965
O5	O	1.493456	0.001168	-0.062962
O6	O	1.300066	0.107423	-0.062945
O7	O	1.665740	0.098086	-0.062949
Cu8	Cu	1.482901	0.102755	-0.074442
Cu9	Cu	1.482927	0.102758	0.074445
O10	O	1.472350	0.204341	-0.062932
C11	C	1.253293	0.106738	0.000004
C12	C	1.113894	0.104683	0.000005
C13	C	0.917428	0.101796	0.068631
C14	C	1.048410	0.103721	0.068632
C15	C	1.048391	0.103714	-0.068627
C16	C	0.917412	0.101784	-0.068627
C17	C	0.851950	0.100841	0.137263
C18	C	0.917444	0.101809	0.205896
C19	C	1.048426	0.103733	0.205897
C20	C	1.113914	0.104690	0.137265
C21	C	1.492783	-0.024846	-0.000016
C22	C	1.490731	-0.102364	-0.000022
C23	C	1.604206	-0.146544	-0.000027
C24	C	1.602279	-0.219380	-0.000015
C25	C	1.486870	-0.248033	-0.000013
C26	C	1.373380	-0.203844	-0.000004
C27	C	1.375311	-0.131009	-0.000008
N28	N	1.398646	-0.356618	-0.042857
N29	N	1.396820	-0.425808	-0.042854
C30	C	1.481046	-0.467480	0.000002
N31	N	1.567186	-0.437349	0.042847
N32	N	1.569016	-0.368152	0.042840
C33	C	1.484764	-0.327010	-0.000008
C34	C	1.592439	-0.590638	0.000011
C35	C	1.590506	-0.663476	0.000028
C36	C	1.361604	-0.647938	0.000032
C37	C	1.363540	-0.575102	0.000023
C38	C	1.478960	-0.546457	0.000009
C39	C	1.712535	0.098775	0.000000
C40	C	1.851934	0.100829	0.000004
C41	C	1.473045	0.230358	0.000020
C42	C	1.475096	0.307876	0.000032
N43	N	1.482892	0.102752	-0.179162
C44	C	1.568581	0.055718	-0.781220
C45	C	1.568583	0.055720	-0.701972
C46	C	1.482928	0.102751	-0.662343
C47	C	1.397286	0.149797	-0.701969
C48	C	1.397295	0.149799	-0.781215
N49	N	1.371753	0.111071	-0.537929
N50	N	1.371749	0.111065	-0.462648
C51	C	1.482898	0.102750	-0.423579
N52	N	1.594056	0.094427	-0.462635
N53	N	1.594059	0.094430	-0.537922
C54	C	1.482909	0.102755	-0.576414
C55	C	1.568543	0.055713	-0.298034
C56	C	1.568547	0.055719	-0.218785
C57	C	1.397239	0.149793	-0.218783
C58	C	1.397246	0.149790	-0.298031
C59	C	1.482897	0.102746	-0.337652
N60	N	1.482945	0.102755	0.179164
H61	H	0.864117	0.101025	0.261773
Br62	Br	1.221297	-0.071046	0.000001
Br63	Br	1.749076	-0.551758	-0.000015
H64	H	1.682915	-0.699447	0.000028
H65	H	1.101750	0.104514	0.261781
H66	H	1.694687	-0.255358	-0.000016
Br67	Br	1.204975	-0.686816	0.000042
Br68	Br	1.291680	0.107288	0.137268
H69	H	0.864082	0.101010	-0.124510
Br70	Br	1.209529	-0.515139	0.000029
Br71	Br	1.137265	0.105015	-0.161764
H72	H	1.638320	0.017416	-0.669711
Br73	Br	1.760847	-0.107671	-0.000025
H74	H	1.638289	0.017409	-0.330295
H75	H	1.279413	-0.227178	-0.000000
Br76	Br	1.281068	0.213640	-0.834984
H77	H	1.327547	0.188092	-0.669699
H78	H	0.745297	0.099276	0.137270
H79	H	1.638325	0.017414	-0.813476
Br80	Br	1.684786	-0.008115	-0.165016
Br81	Br	1.281006	0.213629	-0.165008
Br82	Br	1.281018	0.213626	-0.351802
