data_functionalizedCrystal
_audit_creation_method	'MofGen! by Chris Wilmer'
_symmetry_space_group_name_H-M	'P1'
_symmetry_Int_Tables_number	1
_symmetry_cell_setting	triclinic
loop_
_symmetry_equiv_pos_as_xyz
  x,y,z
_cell_length_a	21.395362
_cell_length_b	16.959454
_cell_length_c	21.395355
_cell_angle_alpha	89.987004
_cell_angle_beta	89.956060
_cell_angle_gamma	90.035955
loop_
_atom_site_label
_atom_site_type_symbol
_atom_site_fract_x
_atom_site_fract_y
_atom_site_fract_z
Zn1	Zn	0.957906	-0.314438	-0.354610
Zn2	Zn	1.291239	0.018895	-0.021276
Zn3	Zn	1.624572	0.352229	0.312057
Zn4	Zn	0.957828	-0.446599	-0.249842
Zn5	Zn	1.291161	-0.113266	0.083491
Zn6	Zn	1.624494	0.220068	0.416824
Zn7	Zn	0.853121	-0.314475	-0.249811
Zn8	Zn	1.186454	0.018858	0.083522
Zn9	Zn	1.519787	0.352192	0.416856
Zn10	Zn	0.853109	-0.446615	-0.354547
Zn11	Zn	1.186443	-0.113282	-0.021214
Zn12	Zn	1.519776	0.220052	0.312120
O13	O	0.905491	-0.380532	-0.302202
O14	O	1.238824	-0.047198	0.031131
O15	O	1.572158	0.286135	0.364464
O16	O	1.045573	-0.331947	-0.340751
O17	O	1.378907	0.001386	-0.007418
O18	O	1.712240	0.334719	0.325915
O19	O	0.943910	-0.429081	-0.162160
O20	O	1.277244	-0.095748	0.171173
O21	O	1.610577	0.237586	0.504506
O22	O	0.867058	-0.203859	-0.263726
O23	O	1.200391	0.129474	0.069608
O24	O	1.533725	0.462808	0.402941
O25	O	1.045516	-0.429045	-0.263779
O26	O	1.378849	-0.095712	0.069554
O27	O	1.712183	0.237621	0.402887
O28	O	0.944043	-0.203832	-0.340721
O29	O	1.277377	0.129501	-0.007388
O30	O	1.610710	0.462835	0.325946
O31	O	0.866982	-0.332010	-0.162137
O32	O	1.200316	0.001323	0.171196
O33	O	1.533649	0.334657	0.504530
O34	O	0.765441	-0.332026	-0.263665
O35	O	1.098775	0.001308	0.069668
O36	O	1.432108	0.334641	0.403002
O37	O	0.867039	-0.429073	-0.442233
O38	O	1.200372	-0.095740	-0.108900
O39	O	1.533705	0.237594	0.224433
O40	O	0.765433	-0.429109	-0.340614
O41	O	1.098766	-0.095775	-0.007281
O42	O	1.432100	0.237558	0.326052
O43	O	0.944032	-0.331963	-0.442279
O44	O	1.277366	0.001370	-0.108946
O45	O	1.610699	0.334704	0.224387
O46	O	0.943899	-0.557212	-0.263718
O47	O	1.277232	-0.223879	0.069615
O48	O	1.610566	0.109455	0.402948
O49	O	0.866963	-0.557224	-0.340645
O50	O	1.200296	-0.223891	-0.007311
O51	O	1.533630	0.109443	0.326022
C52	C	0.742703	-0.380574	-0.302130
C53	C	1.076037	-0.047240	0.031204
C54	C	1.409370	0.286093	0.364537
C55	C	0.673062	-0.380610	-0.302114
C56	C	1.006395	-0.047277	0.031220
C57	C	1.339729	0.286056	0.364553
C58	C	0.905438	-0.585898	-0.302192
C59	C	1.238772	-0.252565	0.031142
C60	C	1.572105	0.080769	0.364475
C61	C	0.905473	-0.673755	-0.302208
C62	C	1.238807	-0.340421	0.031125
C63	C	1.572140	-0.007088	0.364458
C64	C	0.640361	-0.431228	-0.342121
C65	C	0.973694	-0.097895	-0.008788
C66	C	1.307028	0.235438	0.324546
C67	C	0.574925	-0.431209	-0.342149
C68	C	0.908259	-0.097876	-0.008816
C69	C	1.241592	0.235458	0.324518
C70	C	0.542194	-0.380580	-0.302158
C71	C	0.875527	-0.047247	0.031175
C72	C	1.208860	0.286087	0.364509
C73	C	0.574903	-0.329952	-0.262148
C74	C	0.908236	0.003381	0.071185
C75	C	1.241569	0.336715	0.404519
C76	C	0.640337	-0.329967	-0.262126
C77	C	0.973670	0.003366	0.071208
C78	C	1.307003	0.336699	0.404541
C79	C	0.438468	-0.374212	-0.245752
C80	C	0.771801	-0.040879	0.087581
C81	C	1.105135	0.292454	0.420914
C82	C	0.373035	-0.374203	-0.245774
C83	C	0.706368	-0.040869	0.087560
C84	C	1.039702	0.292464	0.420893
C85	C	0.340373	-0.380528	-0.302227
C86	C	0.673706	-0.047195	0.031106
C87	C	1.007040	0.286138	0.364439
C88	C	0.373152	-0.386881	-0.358661
C89	C	0.706485	-0.053547	-0.025328
C90	C	1.039819	0.279786	0.308005
C91	C	0.438586	-0.386896	-0.358639
C92	C	0.771919	-0.053562	-0.025306
C93	C	1.105253	0.279771	0.308028
C94	C	0.471241	-0.380557	-0.302178
C95	C	0.804575	-0.047224	0.031155
C96	C	1.137908	0.286109	0.364488
C97	C	0.236719	-0.431128	-0.342268
C98	C	0.570053	-0.097795	-0.008935
C99	C	0.903386	0.235539	0.324398
C100	C	0.171283	-0.431103	-0.342297
C101	C	0.504616	-0.097770	-0.008964
C102	C	0.837949	0.235563	0.324369
C103	C	0.171261	-0.329850	-0.262291
C104	C	0.504595	0.003483	0.071042
C105	C	0.837928	0.336816	0.404376
C106	C	0.236697	-0.329871	-0.262267
C107	C	0.570030	0.003462	0.071066
C108	C	0.903363	0.336795	0.404399
C109	C	0.269422	-0.380514	-0.302255
C110	C	0.602755	-0.047181	0.031078
C111	C	0.936088	0.286152	0.364411
C112	C	0.865488	-1.045266	-0.342254
C113	C	1.198822	-0.711933	-0.008920
C114	C	1.532155	-0.378600	0.324413
C115	C	0.945668	-1.045194	-0.262215
C116	C	1.279001	-0.711861	0.071118
C117	C	1.612335	-0.378527	0.404452
C118	C	0.945646	-0.962648	-0.262209
C119	C	1.278979	-0.629315	0.071124
C120	C	1.612313	-0.295981	0.404457
C121	C	0.905544	-0.921407	-0.302226
C122	C	1.238877	-0.588074	0.031108
C123	C	1.572211	-0.254741	0.364441
C124	C	0.865464	-0.962713	-0.342248
C125	C	1.198797	-0.629379	-0.008914
C126	C	1.532131	-0.296046	0.324419
C127	C	0.985721	-0.921337	-0.222184
C128	C	1.319054	-0.588003	0.111150
C129	C	1.652388	-0.254670	0.444483
C130	C	0.985700	-0.838786	-0.222176
C131	C	1.319033	-0.505452	0.111158
C132	C	1.652367	-0.172119	0.444491
C133	C	0.945601	-0.797544	-0.262196
C134	C	1.278934	-0.464210	0.071138
C135	C	1.612267	-0.130877	0.404471
C136	C	0.905520	-0.838854	-0.302220
C137	C	1.238853	-0.505521	0.031114
C138	C	1.572186	-0.172187	0.364447
C139	C	0.865418	-0.797613	-0.342236
C140	C	1.198751	-0.464280	-0.008903
C141	C	1.532084	-0.130947	0.324431
C142	C	0.825339	-0.838922	-0.382264
C143	C	1.158672	-0.505589	-0.048931
C144	C	1.492006	-0.172256	0.284403
C145	C	0.825365	-0.921471	-0.382268
C146	C	1.158698	-0.588137	-0.048934
C147	C	1.492031	-0.254804	0.284399
C148	C	0.945575	-0.714995	-0.262192
C149	C	1.278909	-0.381662	0.071141
C150	C	1.612242	-0.048328	0.404475
C151	C	0.865393	-0.715060	-0.342230
C152	C	1.198726	-0.381727	-0.008897
C153	C	1.532060	-0.048393	0.324436
C154	C	1.068914	-0.380490	-0.302276
C155	C	1.402248	-0.047157	0.031058
C156	C	1.735581	0.286176	0.364391
C157	C	1.138555	-0.380473	-0.302307
C158	C	1.471889	-0.047139	0.031026
C159	C	1.805222	0.286194	0.364360
C160	C	0.905543	-0.380516	-0.465626
C161	C	1.238876	-0.047182	-0.132292
C162	C	1.572210	0.286151	0.201041
C163	C	0.905565	-0.380509	-0.535267
C164	C	1.238898	-0.047176	-0.201934
C165	C	1.572232	0.286158	0.131400
C166	C	0.905561	-0.174363	-0.302227
C167	C	1.238894	0.158970	0.031106
C168	C	1.572227	0.492303	0.364440
C169	C	0.905590	-0.086507	-0.302237
C170	C	1.238924	0.246826	0.031096
C171	C	1.572257	0.580160	0.364429
C172	C	0.945654	-0.329942	-0.568005
C173	C	1.278987	0.003392	-0.234672
C174	C	1.612320	0.336725	0.098661
C175	C	0.945653	-0.329908	-0.633441
C176	C	1.278986	0.003426	-0.300107
C177	C	1.612320	0.336759	0.033226
C178	C	0.905570	-0.380455	-0.666135
C179	C	1.238903	-0.047122	-0.332802
C180	C	1.572237	0.286212	0.000531
C181	C	0.865473	-0.431026	-0.633389
C182	C	1.198807	-0.097692	-0.300056
C183	C	1.532140	0.235641	0.033277
C184	C	0.865471	-0.431053	-0.567955
C185	C	1.198804	-0.097719	-0.234622
C186	C	1.532138	0.235614	0.098711
C187	C	0.900604	-0.451628	-0.769805
C188	C	1.233938	-0.118295	-0.436471
C189	C	1.567271	0.215039	-0.103138
C190	C	0.900611	-0.451602	-0.835238
C191	C	1.233945	-0.118269	-0.501904
C192	C	1.567278	0.215064	-0.168571
C193	C	0.905574	-0.380371	-0.867956
C194	C	1.238907	-0.047038	-0.534623
C195	C	1.572240	0.286295	-0.201290
C196	C	0.910543	-0.309164	-0.835234
C197	C	1.243876	0.024169	-0.501901
C198	C	1.577209	0.357503	-0.168567
C199	C	0.910540	-0.309191	-0.769800
C200	C	1.243874	0.024142	-0.436466
C201	C	1.577207	0.357476	-0.103133
C202	C	0.905568	-0.380431	-0.737088
C203	C	1.238901	-0.047098	-0.403755
C204	C	1.572234	0.286236	-0.070421
C205	C	0.945664	-0.329763	-0.971647
C206	C	1.278997	0.003570	-0.638314
C207	C	1.612330	0.336904	-0.304980
C208	C	0.945659	-0.329728	-1.037084
C209	C	1.278992	0.003606	-0.703750
C210	C	1.612325	0.336939	-0.370417
C211	C	0.865482	-0.430853	-1.037031
C212	C	1.198816	-0.097520	-0.703698
C213	C	1.532149	0.235814	-0.370365
C214	C	0.865484	-0.430881	-0.971596
C215	C	1.198817	-0.097548	-0.638263
C216	C	1.532151	0.235785	-0.304929
C217	C	0.905578	-0.380337	-0.938908
C218	C	1.238912	-0.047004	-0.605574
C219	C	1.572245	0.286329	-0.272241
C220	C	0.905475	-0.380491	-0.139415
C221	C	1.238808	-0.047157	0.193918
C222	C	1.572142	0.286176	0.527252
C223	C	0.905574	-0.380275	-0.069774
C224	C	1.238908	-0.046941	0.263559
C225	C	1.572241	0.286392	0.596893
H226	H	0.667002	-0.472465	-0.374683
H227	H	1.000335	-0.139132	-0.041350
H228	H	1.333668	0.194202	0.291984
Cl229	Cl	0.916782	-0.219677	-0.728665
Cl230	Cl	1.250115	0.113656	-0.395332
Cl231	Cl	1.583448	0.446989	-0.061998
Cl232	Cl	0.814979	-0.663221	-0.392543
Cl233	Cl	1.148313	-0.329888	-0.059210
Cl234	Cl	1.481646	0.003445	0.274124
H235	H	0.792734	-0.955112	-0.414855
H236	H	1.126067	-0.621778	-0.081522
H237	H	1.459401	-0.288445	0.251811
Cl238	Cl	0.995949	-0.663068	-0.211869
Cl239	Cl	1.329282	-0.329734	0.121464
Cl240	Cl	1.662615	0.003599	0.454798
H241	H	0.832823	-0.472230	-0.541300
H242	H	1.166156	-0.138896	-0.207967
H243	H	1.499490	0.194437	0.125366
Cl244	Cl	1.036135	-0.973185	-0.171885
Cl245	Cl	1.369468	-0.639851	0.161448
Cl246	Cl	1.702802	-0.306518	0.494782
H247	H	0.346560	-0.392030	-0.404632
H248	H	0.679893	-0.058697	-0.071298
H249	H	1.013227	0.274636	0.262035
Cl250	Cl	0.815081	-0.494568	-0.674491
Cl251	Cl	1.148414	-0.161235	-0.341157
Cl252	Cl	1.481747	0.172099	-0.007824
Cl253	Cl	0.894371	-0.541120	-0.876368
Cl254	Cl	1.227704	-0.207786	-0.543035
Cl255	Cl	1.561037	0.125547	-0.209701
H256	H	0.978301	-0.288784	-0.541395
H257	H	1.311634	0.044549	-0.208061
H258	H	1.644968	0.377883	0.125272
Cl259	Cl	0.533807	-0.494848	-0.392448
Cl260	Cl	0.867140	-0.161515	-0.059114
Cl261	Cl	1.200473	0.171818	0.274219
H262	H	0.666962	-0.288746	-0.229547
H263	H	1.000295	0.044588	0.103787
H264	H	1.333628	0.377921	0.437120
Cl265	Cl	1.036089	-0.786862	-0.171862
Cl266	Cl	1.369422	-0.453529	0.161472
Cl267	Cl	1.702756	-0.120195	0.494805
Cl268	Cl	0.996079	-1.097040	-0.211912
Cl269	Cl	1.329413	-0.763707	0.121421
Cl270	Cl	1.662746	-0.430373	0.454754
Cl271	Cl	0.331834	-0.366216	-0.174829
Cl272	Cl	0.665167	-0.032883	0.158504
Cl273	Cl	0.998501	0.300450	0.491837
H274	H	0.978297	-0.288725	-0.660101
H275	H	1.311630	0.044608	-0.326768
H276	H	1.644963	0.377941	0.006565
Cl277	Cl	0.815086	-0.494392	-1.078127
Cl278	Cl	1.148419	-0.161059	-0.744794
Cl279	Cl	1.481752	0.172275	-0.411461
H280	H	0.832859	-1.078904	-0.374845
H281	H	1.166193	-0.745570	-0.041512
H282	H	1.499526	-0.412237	0.291822
H283	H	0.263366	-0.472361	-0.374832
H284	H	0.596699	-0.139027	-0.041499
H285	H	0.930032	0.194306	0.291835
Cl286	Cl	0.916784	-0.219610	-0.876358
Cl287	Cl	1.250118	0.113723	-0.543025
Cl288	Cl	1.583451	0.447056	-0.209691
H289	H	0.978307	-0.288603	-0.945031
H290	H	1.311641	0.044730	-0.611698
H291	H	1.644974	0.378064	-0.278364
H292	H	0.978303	-0.288545	-1.063738
H293	H	1.311636	0.044788	-0.730405
H294	H	1.644969	0.378121	-0.397071
H295	H	0.144659	-0.472321	-0.374880
H296	H	0.477992	-0.138988	-0.041547
H297	H	0.811325	0.194346	0.291787
H298	H	0.832843	-0.472063	-0.944940
H299	H	1.166177	-0.138730	-0.611607
H300	H	1.499510	0.194603	-0.278274
Cl301	Cl	0.130119	-0.266197	-0.212020
Cl302	Cl	0.463452	0.067137	0.121313
Cl303	Cl	0.796785	0.400470	0.454647
H304	H	0.896396	-0.509618	-0.743171
H305	H	1.229729	-0.176285	-0.409838
H306	H	1.563062	0.157049	-0.076504
H307	H	0.465272	-0.392066	-0.404590
H308	H	0.798605	-0.058732	-0.071256
H309	H	1.131939	0.274601	0.262077
H310	H	0.465056	-0.369058	-0.199778
H311	H	0.798389	-0.035724	0.133555
H312	H	1.131723	0.297609	0.466889
Cl313	Cl	0.277809	-0.266236	-0.211968
Cl314	Cl	0.611142	0.067098	0.121366
Cl315	Cl	0.944475	0.400431	0.454699
H316	H	0.548248	-0.288728	-0.229588
H317	H	0.881582	0.044605	0.103745
H318	H	1.214915	0.377939	0.437078
H319	H	0.792685	-0.805335	-0.414843
H320	H	1.126018	-0.472001	-0.081509
H321	H	1.459351	-0.138668	0.251824
