data_functionalizedCrystal
_audit_creation_method	'MofGen! by Chris Wilmer'
_symmetry_space_group_name_H-M	'P1'
_symmetry_Int_Tables_number	1
_symmetry_cell_setting	triclinic
loop_
_symmetry_equiv_pos_as_xyz
  x,y,z
_cell_length_a	14.853567
_cell_length_b	14.853566
_cell_length_c	9.730217
_cell_angle_alpha	90.001438
_cell_angle_beta	90.000542
_cell_angle_gamma	83.634672
loop_
_atom_site_label
_atom_site_type_symbol
_atom_site_fract_x
_atom_site_fract_y
_atom_site_fract_z
O1	O	0.117697	1.196362	-0.114187
O2	O	0.131720	0.933902	-0.114209
O3	O	-0.006521	1.072142	-0.114201
O4	O	0.255938	1.058121	-0.114194
O5	O	-0.006523	1.072138	0.114379
O6	O	0.131719	0.933898	0.114372
O7	O	0.117696	1.196357	0.114393
Zn8	Zn	0.124707	1.065127	0.150674
Zn9	Zn	0.124709	1.065132	-0.150490
O10	O	0.255937	1.058117	0.114386
C11	C	0.131084	0.900311	0.000079
C12	C	0.129181	0.800227	0.000070
C13	C	0.121131	0.377045	-0.124505
C14	C	0.121130	0.377062	0.124702
C15	C	0.122917	0.471096	0.124698
C16	C	0.123813	0.518108	0.000090
C17	C	0.122921	0.471087	-0.124513
C18	C	0.123818	0.518123	0.249298
C19	C	0.125607	0.612162	0.249299
C20	C	0.126496	0.659178	0.124690
C21	C	0.125603	0.612151	0.000082
C22	C	0.126499	0.659164	-0.124525
C23	C	0.125599	0.612139	-0.249135
C24	C	0.123810	0.518103	-0.249122
C25	C	0.128285	0.753215	0.124677
C26	C	0.128289	0.753206	-0.124533
C27	C	-0.040111	1.071505	0.000084
C28	C	-0.140194	1.069601	0.000072
C29	C	-0.552728	0.979435	0.000091
C30	C	-0.574009	1.143668	0.000104
C31	C	-0.479976	1.145458	0.000097
C32	C	-0.422313	1.064236	0.000088
C33	C	-0.458685	0.981223	0.000087
C34	C	-0.443597	1.228470	0.000111
C35	C	-0.349558	1.230263	0.000105
C36	C	-0.291894	1.149040	0.000086
C37	C	-0.328271	1.066023	0.000084
C38	C	-0.270608	0.984801	0.000076
C39	C	-0.306984	0.901784	0.000064
C40	C	-0.401021	0.899999	0.000069
C41	C	-0.197856	1.150824	0.000081
C42	C	-0.176566	0.986588	0.000072
C43	C	0.289526	1.058754	0.000097
C44	C	0.389610	1.060658	0.000100
C45	C	0.118332	1.229948	0.000103
C46	C	0.120235	1.330032	0.000102
N47	N	0.124705	1.065130	0.356211
N48	N	0.124703	1.065137	-0.356026
C49	C	0.002328	1.187591	0.356208
C50	C	-0.058858	1.248828	0.428146
C51	C	-0.058858	1.248838	0.572026
C52	C	0.002332	1.187601	0.643970
C53	C	0.063518	1.126364	0.572032
C54	C	0.063514	1.126364	0.428149
C55	C	0.185889	1.003900	0.572035
C56	C	0.185896	1.003893	0.428155
C57	C	0.247079	0.942664	0.643980
C58	C	0.308271	0.881430	0.572042
C59	C	0.308270	0.881424	0.428153
C60	C	0.247082	0.942657	0.356217
H61	H	0.129026	0.791496	0.226133
H62	H	-0.129622	0.920446	0.000059
H63	H	0.120407	0.338777	0.226151
H64	H	-0.108680	1.298685	0.369556
H65	H	0.247078	0.942660	0.239063
Cl66	Cl	0.126731	0.671251	-0.405778
H67	H	-0.260023	0.835653	0.000066
H68	H	0.120395	0.338754	-0.225959
H69	H	0.129015	0.791478	-0.226005
H70	H	0.002320	1.187605	0.761125
Cl71	Cl	0.247077	0.942669	0.824859
Cl72	Cl	0.122645	0.458986	-0.405759
H73	H	-0.168244	1.218415	0.000100
Cl74	Cl	0.385182	0.804450	0.662490
Cl75	Cl	-0.598454	0.875077	0.000063
Cl76	Cl	0.126735	0.671270	0.405948
Cl77	Cl	0.122704	0.459016	0.405936
Cl78	Cl	-0.446756	0.795645	0.000050
Cl79	Cl	-0.646499	1.245771	0.000138
Cl80	Cl	0.385190	0.804430	0.337729
Cl81	Cl	-0.516089	1.330571	0.000151
H82	H	-0.319950	1.297861	0.000113
H83	H	0.002330	1.187598	0.239053
H84	H	-0.108684	1.298699	0.630598
