data_functionalizedCrystal
_audit_creation_method	'MofGen! by Chris Wilmer'
_symmetry_space_group_name_H-M	'P1'
_symmetry_Int_Tables_number	1
_symmetry_cell_setting	triclinic
loop_
_symmetry_equiv_pos_as_xyz
  x,y,z
_cell_length_a	13.033293
_cell_length_b	13.897447
_cell_length_c	13.032268
_cell_angle_alpha	97.149071
_cell_angle_beta	89.079182
_cell_angle_gamma	97.189355
loop_
_atom_site_label
_atom_site_type_symbol
_atom_site_fract_x
_atom_site_fract_y
_atom_site_fract_z
Zn1	Zn	1.498451	-0.300099	-0.781486
Zn2	Zn	1.520188	-0.438718	-0.609515
Zn3	Zn	1.348311	-0.295006	-0.587662
Zn4	Zn	1.326438	-0.478928	-0.759555
O5	O	1.423347	-0.378188	-0.684554
O6	O	1.645254	-0.303791	-0.776997
O7	O	1.515640	-0.400694	-0.462707
O8	O	1.368285	-0.160697	-0.613405
O9	O	1.661224	-0.405633	-0.650651
O10	O	1.478591	-0.164439	-0.755807
O11	O	1.389363	-0.295109	-0.446652
O12	O	1.201490	-0.334100	-0.592140
O13	O	1.331004	-0.474167	-0.906373
O14	O	1.185420	-0.469227	-0.718429
O15	O	1.457382	-0.342782	-0.922486
O16	O	1.494430	-0.579036	-0.629385
O17	O	1.352082	-0.608579	-0.739619
C18	C	1.156139	-0.405475	-0.650534
C19	C	1.041822	-0.417175	-0.636005
C20	C	0.982942	-0.372106	-0.692137
C21	C	0.864790	-0.384197	-0.677122
C22	C	1.423267	-0.628808	-0.684520
C23	C	1.423322	-0.736019	-0.684552
C24	C	1.423368	-0.823086	-0.684581
C25	C	1.423437	-0.932315	-0.684617
C26	C	1.691599	-0.350795	-0.718708
C27	C	1.805912	-0.339121	-0.733262
C28	C	1.389328	-0.413528	-0.952787
C29	C	1.374831	-0.428587	-1.067091
C30	C	1.423453	-0.126590	-0.684615
C31	C	1.423498	-0.019373	-0.684641
C32	C	1.430897	-0.370295	-1.126024
C33	C	1.415915	-0.385859	-1.244164
C34	C	1.457293	-0.342910	-0.417373
C35	C	1.471989	-0.327558	-0.303095
H36	H	0.827733	-0.431735	-0.617942
H37	H	1.531079	-0.266120	-1.266092
H38	H	1.315733	-0.490010	-1.104098
C39	C	0.855968	-0.274896	-0.813212
N40	N	0.893672	-0.226525	-0.873431
C41	C	1.033006	-0.307879	-0.772077
N42	N	1.070713	-0.259502	-0.832290
C43	C	1.510726	-0.287303	-1.076033
N44	N	1.570856	-0.224791	-1.038381
H45	H	1.004761	-0.464710	-0.576829
C46	C	1.336075	-0.468849	-1.294149
N47	N	1.275941	-0.531356	-1.331801
