data_functionalizedCrystal
_audit_creation_method	'MofGen! by Chris Wilmer'
_symmetry_space_group_name_H-M	'P1'
_symmetry_Int_Tables_number	1
_symmetry_cell_setting	triclinic
loop_
_symmetry_equiv_pos_as_xyz
  x,y,z
_cell_length_a	10.723023
_cell_length_b	10.723023
_cell_length_c	13.448316
_cell_angle_alpha	89.994428
_cell_angle_beta	89.993401
_cell_angle_gamma	84.467548
loop_
_atom_site_label
_atom_site_type_symbol
_atom_site_fract_x
_atom_site_fract_y
_atom_site_fract_z
O1	O	1.657192	0.175026	-0.082687
O2	O	1.294040	0.191780	-0.082689
O3	O	1.483993	0.001826	-0.082684
O4	O	1.467239	0.364979	-0.082692
O5	O	1.483969	0.001815	0.082700
O6	O	1.294016	0.191768	0.082695
O7	O	1.657168	0.175014	0.082697
Cu8	Cu	1.475590	0.183390	0.097797
Cu9	Cu	1.475618	0.183404	-0.097789
O10	O	1.467215	0.364967	0.082692
C11	C	1.247528	0.190555	0.000002
C12	C	1.108974	0.186908	0.000002
C13	C	1.047215	0.185288	-0.085673
C14	C	0.904012	0.181518	-0.085675
C15	C	1.482762	-0.044679	0.000007
C16	C	1.479115	-0.183233	0.000004
C17	C	1.477501	-0.244993	-0.085671
C18	C	1.473732	-0.388196	-0.085677
C19	C	1.703680	0.176239	0.000003
C20	C	1.842234	0.179886	-0.000002
C21	C	1.468446	0.411473	-0.000001
C22	C	1.472093	0.550027	-0.000005
N23	N	1.475579	0.183379	0.235361
N24	N	1.475639	0.183405	-0.235353
C25	C	1.559717	0.099303	0.287404
C26	C	1.559725	0.099302	0.391507
C27	C	1.475599	0.183384	0.443566
C28	C	1.391452	0.267464	0.391516
C29	C	1.391440	0.267458	0.287414
C30	C	1.391487	0.267473	0.608496
C31	C	1.391501	0.267481	0.712604
C32	C	1.559772	0.099316	0.712588
C33	C	1.559759	0.099310	0.608487
C34	C	1.475613	0.183393	0.556444
H35	H	0.850901	0.180122	-0.159024
Cl36	Cl	1.285687	0.373164	0.456958
Cl37	Cl	1.026934	0.184750	0.113249
H38	H	0.895338	0.181273	0.073350
Cl39	Cl	1.665498	-0.006397	0.456934
H40	H	1.322924	0.335920	0.245042
H41	H	1.100357	0.186698	-0.159019
Cl42	Cl	1.479706	-0.162959	-0.198918
H43	H	1.472350	-0.441309	-0.159026
Cl44	Cl	1.474245	-0.367989	0.113252
Cl45	Cl	1.476929	-0.265270	0.113250
H46	H	1.628266	0.030851	0.566101
Cl47	Cl	1.665487	-0.006402	0.221970
H48	H	1.628286	0.030854	0.754968
Cl49	Cl	1.285736	0.373187	0.778041
H50	H	1.322962	0.335938	0.566126
