data_functionalizedCrystal
_audit_creation_method	'MofGen! by Chris Wilmer'
_symmetry_space_group_name_H-M	'P1'
_symmetry_Int_Tables_number	1
_symmetry_cell_setting	triclinic
loop_
_symmetry_equiv_pos_as_xyz
  x,y,z
_cell_length_a	10.489746
_cell_length_b	8.965430
_cell_length_c	11.792241
_cell_angle_alpha	90.001078
_cell_angle_beta	95.632642
_cell_angle_gamma	90.001189
loop_
_atom_site_label
_atom_site_type_symbol
_atom_site_fract_x
_atom_site_fract_y
_atom_site_fract_z
O1	O	1.693505	0.123940	-0.160155
O2	O	2.193505	0.623940	0.339845
O3	O	1.322258	0.123965	-0.175180
O4	O	1.822258	0.623965	0.324820
O5	O	1.516891	0.123941	-0.002521
O6	O	2.016891	0.623941	0.497479
O7	O	1.498872	0.123963	-0.332814
O8	O	1.998872	0.623963	0.167186
O9	O	1.516873	-0.124138	-0.002536
O10	O	2.016873	0.375862	0.497464
O11	O	1.322241	-0.124114	-0.175194
O12	O	1.822241	0.375886	0.324806
O13	O	1.693487	-0.124139	-0.160169
O14	O	2.193487	0.375861	0.339831
Cu15	Cu	1.507862	-0.146778	-0.167683
Cu16	Cu	2.007862	0.353222	0.332317
Cu17	Cu	1.507883	0.146604	-0.167666
Cu18	Cu	2.007883	0.646604	0.332334
O19	O	1.498855	-0.124116	-0.332828
O20	O	1.998855	0.375884	0.167172
C21	C	1.274722	-0.000072	-0.174051
C22	C	1.774722	0.499928	0.325949
C23	C	1.133104	-0.000062	-0.170652
C24	C	1.633104	0.499938	0.329348
N25	N	1.507857	-0.353127	-0.167694
N26	N	2.007857	0.146873	0.332306
C27	C	0.980628	-0.000091	-0.058783
C28	C	1.480628	0.499909	0.441217
C29	C	1.057822	-0.122399	-0.114720
C30	C	1.557822	0.377601	0.385280
C31	C	1.057795	0.122188	-0.114732
C32	C	1.557795	0.622188	0.385268
C33	C	0.957970	-0.122508	-0.220591
C34	C	1.457970	0.377492	0.279409
C35	C	0.957938	0.122188	-0.220587
C36	C	1.457938	0.622188	0.279413
C37	C	1.035083	-0.000149	-0.276602
C38	C	1.535083	0.499851	0.223398
C39	C	1.418590	-0.549826	-0.248166
C40	C	1.918590	-0.049826	0.251834
C41	C	1.392084	-0.450367	-0.145710
C42	C	1.892084	0.049633	0.354290
C43	C	1.534306	-0.450379	-0.270142
C44	C	2.034306	0.049621	0.229858
C45	C	1.481335	-0.549777	-0.065138
C46	C	1.981335	-0.049777	0.434862
C47	C	1.623608	-0.549797	-0.189637
C48	C	2.123608	-0.049797	0.310363
C49	C	1.597150	-0.450383	-0.087107
C50	C	2.097150	0.049617	0.412893
C51	C	1.741023	-0.000099	-0.161298
C52	C	2.241023	0.499901	0.338702
C53	C	1.882641	-0.000099	-0.164697
C54	C	2.382641	0.499901	0.335303
C55	C	1.515750	-0.000098	0.039765
C56	C	2.015750	0.499902	0.539765
C57	C	1.512362	-0.000096	0.165788
C58	C	2.012362	0.499904	0.665788
N59	N	1.507899	0.352953	-0.167646
N60	N	2.007899	0.852953	0.332354
C61	C	1.499995	-0.000073	-0.375115
C62	C	1.999995	0.499927	0.124885
C63	C	1.503383	-0.000065	-0.501138
C64	C	2.003383	0.499935	-0.001138
C65	C	1.506133	-0.000071	0.396517
C66	C	2.006133	0.499929	0.896517
C67	C	1.509594	-0.000084	0.268123
C68	C	2.009594	0.499916	0.768123
H69	H	0.956221	-0.000220	0.033314
H70	H	1.456221	0.499780	0.533314
H71	H	0.914531	-0.226030	-0.265277
H72	H	1.414531	0.273970	0.234723
H73	H	1.059245	-0.000210	-0.368768
H74	H	1.559245	0.499790	0.131232
H75	H	1.556676	-0.406745	-0.356805
H76	H	2.056676	0.093255	0.143195
H77	H	1.294214	-0.406681	-0.127127
H78	H	1.794214	0.093319	0.372873
H79	H	1.458867	-0.593256	0.021541
H80	H	1.958867	-0.093256	0.521541
H81	H	1.721447	-0.593509	-0.208258
H82	H	2.221447	-0.093509	0.291742
H83	H	1.101444	-0.225810	-0.070014
H84	H	1.601444	0.274190	0.429986
H85	H	0.914292	0.225604	-0.265253
H86	H	1.414292	0.725604	0.234747
H87	H	1.101398	0.225592	-0.069995
H88	H	1.601398	0.725592	0.430005
H89	H	1.672661	-0.406996	-0.018960
H90	H	2.172661	0.093004	0.481040
H91	H	1.343030	-0.593489	-0.316161
H92	H	1.843030	-0.093489	0.183839
