data_functionalizedCrystal
_audit_creation_method	'MofGen! by Chris Wilmer'
_symmetry_space_group_name_H-M	'P1'
_symmetry_Int_Tables_number	1
_symmetry_cell_setting	triclinic
loop_
_symmetry_equiv_pos_as_xyz
  x,y,z
_cell_length_a	17.699083
_cell_length_b	14.519709
_cell_length_c	16.776229
_cell_angle_alpha	89.992406
_cell_angle_beta	89.998886
_cell_angle_gamma	83.481580
loop_
_atom_site_label
_atom_site_type_symbol
_atom_site_fract_x
_atom_site_fract_y
_atom_site_fract_z
O1	O	1.004412	0.116624	-0.066178
O2	O	1.337746	0.449958	0.267155
O3	O	1.671079	0.783291	0.600489
O4	O	0.784077	0.131797	-0.066204
O5	O	1.117411	0.465131	0.267129
O6	O	1.450744	0.798464	0.600462
O7	O	0.900087	-0.010052	-0.066183
O8	O	1.233420	0.323281	0.267150
O9	O	1.566753	0.656614	0.600483
O10	O	0.888403	0.258474	-0.066199
O11	O	1.221736	0.591807	0.267134
O12	O	1.555070	0.925141	0.600468
O13	O	0.900071	-0.010061	0.066393
O14	O	1.233405	0.323272	0.399726
O15	O	1.566738	0.656606	0.733060
O16	O	0.784062	0.131789	0.066372
O17	O	1.117395	0.465122	0.399705
O18	O	1.450729	0.798455	0.733039
O19	O	1.004397	0.116616	0.066398
O20	O	1.337730	0.449949	0.399732
O21	O	1.671064	0.783282	0.733065
Zn22	Zn	0.894227	0.124201	0.087435
Zn23	Zn	1.227560	0.457534	0.420768
Zn24	Zn	1.560894	0.790867	0.754101
Zn25	Zn	0.894247	0.124212	-0.087241
Zn26	Zn	1.227581	0.457546	0.246093
Zn27	Zn	1.560914	0.790879	0.579426
O28	O	0.888388	0.258465	0.066377
O29	O	1.221721	0.591799	0.399711
O30	O	1.555054	0.925132	0.733044
C31	C	0.755871	0.131249	0.000080
C32	C	1.089204	0.464583	0.333414
C33	C	1.422538	0.797916	0.666747
C34	C	0.671848	0.129618	0.000071
C35	C	1.005182	0.462952	0.333404
C36	C	1.338515	0.796285	0.666737
C37	C	0.623466	0.212881	0.000066
C38	C	0.956799	0.546214	0.333399
C39	C	1.290132	0.879548	0.666733
C40	C	0.544518	0.211343	0.000076
C41	C	0.877851	0.544676	0.333410
C42	C	1.211185	0.878010	0.666743
C43	C	0.513954	0.126541	0.000086
C44	C	0.847288	0.459875	0.333419
C45	C	1.180621	0.793208	0.666752
C46	C	0.562343	0.043272	0.000093
C47	C	0.895677	0.376605	0.333426
C48	C	1.229010	0.709939	0.666759
C49	C	0.641289	0.044811	0.000088
C50	C	0.974623	0.378144	0.333421
C51	C	1.307956	0.711478	0.666755
C52	C	0.243962	0.037064	0.000113
C53	C	0.577296	0.370397	0.333446
C54	C	0.910629	0.703730	0.666780
C55	C	0.165010	0.035531	0.000115
C56	C	0.498343	0.368864	0.333449
C57	C	0.831677	0.702198	0.666782
C58	C	0.147191	0.203596	0.000101
C59	C	0.480524	0.536929	0.333435
C60	C	0.813858	0.870262	0.666768
C61	C	0.226137	0.205135	0.000097
C62	C	0.559471	0.538468	0.333430
C63	C	0.892804	0.871801	0.666763
C64	C	0.274519	0.121866	0.000108
C65	C	0.607852	0.455199	0.333441
C66	C	0.941186	0.788533	0.666774
C67	C	0.360123	0.123535	0.000098
C68	C	0.693456	0.456868	0.333431
C69	C	1.026790	0.790201	0.666765
C70	C	0.428352	0.124872	0.000090
C71	C	0.761685	0.458205	0.333423
C72	C	1.095019	0.791538	0.666757
C73	C	0.899534	-0.044414	0.000105
C74	C	1.232868	0.288919	0.333438
C75	C	1.566201	0.622252	0.666772
C76	C	0.897903	-0.146789	0.000105
C77	C	1.231236	0.186545	0.333438
C78	C	1.564569	0.519878	0.666772
C79	C	0.891896	-0.521659	0.000084
C80	C	1.225229	-0.188326	0.333417
C81	C	1.558563	0.145008	0.666750
C82	C	0.893564	-0.417358	0.000090
C83	C	1.226897	-0.084025	0.333423
C84	C	1.560231	0.249309	0.666757
C85	C	0.894899	-0.334227	0.000095
C86	C	1.228232	-0.000894	0.333429
C87	C	1.561566	0.332440	0.666762
C88	C	0.896568	-0.229920	0.000100
C89	C	1.229901	0.103414	0.333433
C90	C	1.563234	0.436747	0.666767
C91	C	1.032603	0.117164	0.000112
C92	C	1.365937	0.450497	0.333445
C93	C	1.699270	0.783830	0.666778
C94	C	1.116626	0.118795	0.000116
C95	C	1.449959	0.452128	0.333450
C96	C	1.783293	0.785461	0.666783
C97	C	0.888940	0.292827	0.000087
C98	C	1.222273	0.626161	0.333421
C99	C	1.555607	0.959494	0.666754
C100	C	0.890572	0.395202	0.000082
C101	C	1.223905	0.728535	0.333415
C102	C	1.557238	1.061868	0.666748
N103	N	0.894219	0.124192	0.206646
N104	N	1.227552	0.457526	0.539979
N105	N	1.560885	0.790859	0.873312
N106	N	0.894262	0.124213	-0.206452
N107	N	1.227595	0.457547	0.126881
N108	N	1.560928	0.790880	0.460215
C109	C	0.945603	0.061407	0.248372
C110	C	1.278937	0.394740	0.581706
C111	C	1.612270	0.728074	0.915039
C112	C	0.945607	0.061406	0.331824
C113	C	1.278941	0.394740	0.665158
C114	C	1.612274	0.728073	0.998491
C115	C	0.894230	0.124196	0.373549
C116	C	1.227563	0.457529	0.706882
C117	C	1.560897	0.790863	1.040215
C118	C	0.842840	0.186984	0.331816
C119	C	1.176173	0.520318	0.665150
C120	C	1.509507	0.853651	0.998483
C121	C	0.842833	0.186980	0.248366
C122	C	1.176166	0.520313	0.581699
C123	C	1.509499	0.853647	0.915032
C124	C	0.842867	0.187002	0.668364
C125	C	1.176201	0.520336	1.001697
C126	C	1.509534	0.853669	1.335030
C127	C	0.842880	0.187004	0.751820
C128	C	1.176213	0.520337	1.085154
C129	C	1.509547	0.853670	1.418487
C130	C	0.945642	0.061429	0.751822
C131	C	1.278975	0.394762	1.085156
C132	C	1.612309	0.728095	1.418489
C133	C	0.945635	0.061424	0.668372
C134	C	1.278968	0.394758	1.001705
C135	C	1.612302	0.728091	1.335038
C136	C	0.894242	0.124209	0.626647
C137	C	1.227576	0.457542	0.959980
C138	C	1.560909	0.790876	1.293313
C139	C	0.894238	0.124208	0.536158
C140	C	1.227571	0.457541	0.869492
C141	C	1.560904	0.790875	1.202825
C142	C	0.894238	0.124202	0.464036
C143	C	1.227571	0.457536	0.797369
C144	C	1.560905	0.790869	1.130702
H145	H	0.648344	0.281937	0.000058
H146	H	0.981677	0.615270	0.333391
H147	H	1.315011	0.948603	0.666724
H148	H	0.801040	0.238137	0.785791
H149	H	1.134373	0.571470	1.119124
H150	H	1.467706	0.904803	1.452457
F151	F	0.692782	-0.043809	0.000096
F152	F	1.026115	0.289525	0.333429
F153	F	1.359449	0.622858	0.666763
F154	F	0.258661	0.295392	0.000082
F155	F	0.591994	0.628725	0.333415
F156	F	0.925327	0.962059	0.666748
F157	F	1.000320	-0.005401	0.623969
F158	F	1.333653	0.327932	0.957302
F159	F	1.666986	0.661265	1.290636
F160	F	0.095693	0.292219	0.000092
F161	F	0.429026	0.625552	0.333426
F162	F	0.762360	0.958885	0.666759
H163	H	0.140129	-0.033529	0.000124
H164	H	0.473462	0.299804	0.333457
H165	H	0.806796	0.633138	0.666791
H166	H	0.800989	0.238105	0.214393
H167	H	1.134323	0.571438	0.547726
H168	H	1.467656	0.904772	0.881060
H169	H	0.283346	-0.030739	0.000123
H170	H	0.616679	0.302594	0.333456
H171	H	0.950013	0.635927	0.666789
H172	H	0.505128	0.279144	0.000072
H173	H	0.838461	0.612478	0.333405
H174	H	1.171794	0.945811	0.666738
H175	H	0.537452	-0.025775	0.000112
H176	H	0.870786	0.307558	0.333445
H177	H	1.204119	0.640891	0.666779
H178	H	0.987448	0.010281	0.365798
H179	H	1.320782	0.343614	0.699131
H180	H	1.654115	0.676948	1.032464
H181	H	0.987487	0.010303	0.785804
H182	H	1.320820	0.343636	1.119137
H183	H	1.654153	0.676970	1.452470
H184	H	0.987444	0.010280	0.214406
H185	H	1.320777	0.343614	0.547739
H186	H	1.654110	0.676947	0.881072
H187	H	0.801023	0.238126	0.634398
H188	H	1.134357	0.571459	0.967731
H189	H	1.467690	0.904792	1.301064
H190	H	0.801004	0.238106	0.365793
H191	H	1.134337	0.571439	0.699127
H192	H	1.467670	0.904773	1.032460
