data_functionalizedCrystal
_audit_creation_method	'MofGen! by Chris Wilmer'
_symmetry_space_group_name_H-M	'P1'
_symmetry_Int_Tables_number	1
_symmetry_cell_setting	triclinic
loop_
_symmetry_equiv_pos_as_xyz
  x,y,z
_cell_length_a	10.654538
_cell_length_b	9.730217
_cell_length_c	10.654550
_cell_angle_alpha	90.002102
_cell_angle_beta	95.517502
_cell_angle_gamma	89.996176
loop_
_atom_site_label
_atom_site_type_symbol
_atom_site_fract_x
_atom_site_fract_y
_atom_site_fract_z
O1	O	-1.667844	0.114364	0.176326
O2	O	-1.302364	0.114349	0.193148
O3	O	-1.493507	0.114352	0.001997
O4	O	-1.476701	0.114361	0.367477
O5	O	-1.493501	-0.114228	0.001996
O6	O	-1.302358	-0.114231	0.193146
O7	O	-1.667839	-0.114216	0.176324
Zn8	Zn	-1.485097	-0.150516	0.184735
Zn9	Zn	-1.485105	0.150648	0.184737
O10	O	-1.476695	-0.114219	0.367475
C11	C	-1.255563	0.000057	0.191915
C12	C	-1.116119	0.000052	0.188229
C13	C	-1.050627	0.124655	0.186485
C14	C	-0.919606	0.124662	0.183012
C15	C	-0.919580	-0.124548	0.183020
C16	C	-1.050598	-0.124554	0.186503
C17	C	-1.116148	0.249261	0.188212
C18	C	-1.050656	0.373874	0.186467
C19	C	-0.919635	0.373882	0.182993
C20	C	-0.854105	0.249275	0.181265
N21	N	-1.485101	-0.356052	0.184733
C22	C	-1.654428	-0.356041	0.015519
C23	C	-1.739100	-0.427975	-0.069085
C24	C	-1.739113	-0.571854	-0.069085
C25	C	-1.654442	-0.643803	0.015524
C26	C	-1.569770	-0.571869	0.100127
C27	C	-1.569769	-0.427986	0.100121
C28	C	-1.400439	-0.571881	0.269333
C29	C	-1.400430	-0.428001	0.269342
C30	C	-1.315768	-0.643830	0.353942
C31	C	-1.231100	-0.571896	0.438554
C32	C	-1.231092	-0.428007	0.438552
C33	C	-1.315758	-0.356067	0.353945
C34	C	-0.714639	0.000071	0.177565
C35	C	-0.854080	0.000065	0.181273
C36	C	-1.492270	0.000063	-0.044801
C37	C	-1.488578	0.000068	-0.184245
N38	N	-1.485111	0.356185	0.184730
C39	C	-1.601121	0.000068	-0.263735
C40	C	-1.597644	0.000078	-0.394756
C41	C	-1.369073	0.000081	-0.366783
C42	C	-1.372551	0.000081	-0.235764
C43	C	-1.717148	0.000055	-0.212215
C44	C	-1.829699	0.000054	-0.291707
C45	C	-1.826223	0.000063	-0.422728
C46	C	-1.710195	0.000074	-0.474256
C47	C	-1.477932	0.000073	0.414274
C48	C	-1.481624	0.000077	0.553717
H49	H	-1.654437	-0.238886	0.015521
H50	H	-1.924165	0.000080	-0.249743
C51	C	-1.260265	0.249258	0.192036
H52	H	-1.289909	0.341311	0.192824
H53	H	-1.298846	0.203226	0.119719
H54	H	-1.280949	0.203250	0.265946
H55	H	-1.654448	-0.760958	0.015508
H56	H	-1.162137	-0.369446	0.507441
C57	C	-1.248758	0.000078	-0.148320
H58	H	-1.179159	0.000067	-0.197766
H59	H	-1.245372	0.079790	-0.096627
H60	H	-1.245362	-0.079642	-0.096632
C61	C	-1.832231	-0.348830	-0.162148
H62	H	-1.820108	-0.252837	-0.150028
H63	H	-1.817878	-0.372418	-0.246097
H64	H	-1.916168	-0.372397	-0.147714
H65	H	-1.315777	-0.760984	0.353933
C66	C	-1.241452	0.000086	-0.423457
H67	H	-1.174922	0.000098	-0.357349
H68	H	-1.235339	-0.079623	-0.473990
H69	H	-1.235354	0.079809	-0.473981
H70	H	-1.104017	0.475324	0.187885
H71	H	-1.808056	-0.630423	-0.137981
C72	C	-1.137977	-0.651039	0.531611
H73	H	-1.150113	-0.747030	0.519494
H74	H	-1.054043	-0.627469	0.517196
H75	H	-1.152345	-0.627461	0.615566
H76	H	-1.315764	-0.238913	0.353941
H77	H	-0.866314	0.475348	0.181585
C78	C	-1.720977	0.000052	-0.068098
H79	H	-1.806194	0.000055	-0.048797
H80	H	-1.679545	-0.079655	-0.033296
H81	H	-1.679568	0.079777	-0.033294
H82	H	-1.917867	0.000076	-0.487447
C83	C	-1.706372	0.000092	-0.618377
H84	H	-1.790016	0.000087	-0.658342
H85	H	-1.663379	0.079802	-0.642844
H86	H	-1.663378	-0.079630	-0.642856
H87	H	-1.103922	-0.226017	0.187929
H88	H	-0.747417	0.249291	0.178450
H89	H	-0.866216	-0.225997	0.181611
