data_functionalizedCrystal
_audit_creation_method	'MofGen! by Chris Wilmer'
_symmetry_space_group_name_H-M	'P1'
_symmetry_Int_Tables_number	1
_symmetry_cell_setting	triclinic
loop_
_symmetry_equiv_pos_as_xyz
  x,y,z
_cell_length_a	13.448316
_cell_length_b	14.971486
_cell_length_c	14.971494
_cell_angle_alpha	83.615843
_cell_angle_beta	89.995115
_cell_angle_gamma	89.995036
loop_
_atom_site_label
_atom_site_type_symbol
_atom_site_fract_x
_atom_site_fract_y
_atom_site_fract_z
O1	O	-0.082647	1.186951	0.116564
O2	O	0.417353	1.686951	0.616564
O3	O	-0.082657	0.926551	0.130523
O4	O	0.417343	1.426551	0.630523
O5	O	-0.082649	1.063726	-0.006656
O6	O	0.417351	1.563726	0.493344
O7	O	-0.082654	1.049776	0.253743
O8	O	0.417346	1.549776	0.753743
O9	O	0.082734	1.063709	-0.006664
O10	O	0.582734	1.563709	0.493336
O11	O	0.082727	0.926534	0.130515
O12	O	0.582727	1.426534	0.630515
O13	O	0.082737	1.186934	0.116556
O14	O	0.582737	1.686934	0.616556
Cu15	Cu	0.097833	1.056732	0.123534
Cu16	Cu	0.597833	1.556732	0.623534
Cu17	Cu	-0.097753	1.056753	0.123544
Cu18	Cu	0.402247	1.556753	0.623544
O19	O	0.082729	1.049758	0.253735
O20	O	0.582729	1.549758	0.753735
C21	C	0.000033	0.893218	0.129895
C22	C	0.500033	1.393218	0.629895
C23	C	0.000029	0.793921	0.128024
C24	C	0.500029	1.293921	0.628024
N25	N	0.235397	1.056724	0.123527
N26	N	0.735397	1.556724	0.623527
C27	C	0.000041	1.063093	-0.039985
C28	C	0.500041	1.563093	0.460015
C29	C	0.000036	1.061219	-0.139281
C30	C	0.500036	1.561219	0.360719
N31	N	-0.235317	1.056768	0.123545
N32	N	0.264683	1.556768	0.623545
C33	C	0.287441	1.117484	0.062809
C34	C	0.787441	1.617484	0.562809
C35	C	0.391544	1.117490	0.062808
C36	C	0.891544	1.617490	0.562808
C37	C	0.443602	1.056739	0.123530
C38	C	0.943602	1.556739	0.623530
C39	C	0.391551	0.995973	0.184251
C40	C	0.891551	1.495973	0.684251
C41	C	0.287449	0.995963	0.184247
C42	C	0.787449	1.495963	0.684247
C43	C	0.608531	0.995997	0.184257
C44	C	1.108531	1.495997	0.684257
C45	C	0.712639	0.996007	0.184263
C46	C	1.212639	1.496007	0.684263
C47	C	0.712626	1.117524	0.062819
C48	C	1.212626	1.617524	0.562819
C49	C	0.608524	1.117515	0.062814
C50	C	1.108524	1.617515	0.562814
C51	C	0.556480	1.056749	0.123536
C52	C	1.056480	1.556749	0.623536
C53	C	0.000045	1.220267	0.117184
C54	C	0.500045	1.720267	0.617184
C55	C	0.000042	1.319564	0.119055
C56	C	0.500042	1.819564	0.619055
C57	C	0.000040	1.376787	0.038466
C58	C	0.500040	1.876787	0.538466
C59	C	0.000044	1.470087	0.040229
C60	C	0.500044	1.970087	0.540229
C61	C	0.000042	1.506161	0.122582
C62	C	0.500042	2.006161	0.622582
C63	C	0.000047	1.448931	0.203177
C64	C	0.500047	1.948931	0.703177
C65	C	0.000050	1.355633	0.201413
C66	C	0.500050	1.855633	0.701413
C67	C	0.000037	1.643394	0.206848
C68	C	0.500037	2.143394	0.706848
C69	C	0.000031	1.736698	0.208613
C70	C	0.500031	2.236698	0.708613
C71	C	0.000030	1.757847	0.045664
C72	C	0.500030	2.257847	0.545664
C73	C	0.000034	1.664549	0.043900
C74	C	0.500034	2.164549	0.543900
C75	C	0.000037	1.607325	0.124496
C76	C	0.500037	2.107325	0.624496
C77	C	-0.090116	1.060350	-0.185921
C78	C	0.409884	1.560350	0.314079
C79	C	-0.090117	1.058584	-0.279221
C80	C	0.409883	1.558584	0.220779
C81	C	0.000035	1.057693	-0.325879
C82	C	0.500035	1.557693	0.174121
C83	C	0.090194	1.058559	-0.279232
C84	C	0.590194	1.558559	0.220768
C85	C	0.090194	1.060319	-0.185933
C86	C	0.590194	1.560319	0.314067
C87	C	0.090187	1.054893	-0.473695
C88	C	0.590187	1.554893	0.026305
C89	C	0.090187	1.053135	-0.567000
C90	C	0.590187	1.553135	-0.067000
C91	C	-0.090124	1.053158	-0.566982
C92	C	0.409876	1.553158	-0.066982
C93	C	-0.090124	1.054918	-0.473684
C94	C	0.409876	1.554918	0.026316
C95	C	0.000036	1.055786	-0.427043
C96	C	0.500036	1.555786	0.072957
C97	C	0.000037	1.050392	0.287064
C98	C	0.500037	1.550392	0.787064
C99	C	0.000035	1.052266	0.386360
C100	C	0.500035	1.552266	0.886360
H101	H	0.433918	1.166965	0.013367
H102	H	0.933918	1.666965	0.513367
O103	O	0.187428	1.057594	-0.329556
O104	O	0.687428	1.557594	0.170444
H105	H	0.250117	1.058485	-0.281446
H106	H	0.750117	1.558485	0.218554
O107	O	0.000060	1.293914	0.288337
O108	O	0.500060	1.793914	0.788337
H109	H	0.000076	1.222978	0.273277
H110	H	0.500076	1.722978	0.773277
O111	O	0.231303	0.930420	0.249721
O112	O	0.731303	1.430420	0.749721
H113	H	0.183843	0.968101	0.293251
H114	H	0.683843	1.468101	0.793251
O115	O	0.552376	1.183039	-0.002678
O116	O	1.052376	1.683039	0.497322
H117	H	0.504958	1.145333	-0.046207
H118	H	1.004958	1.645333	0.453793
O119	O	0.000041	1.775614	0.297433
O120	O	0.500041	2.275614	0.797433
H121	H	0.000061	1.720150	0.353180
H122	H	0.500061	2.220150	0.853180
O123	O	0.231309	1.183003	-0.002703
O124	O	0.731309	1.683003	0.497297
H125	H	0.183901	1.145290	-0.046233
H126	H	0.683901	1.645290	0.453767
O127	O	-0.187351	1.061304	-0.135597
O128	O	0.312649	1.561304	0.364403
H129	H	-0.250039	1.060391	-0.183706
H130	H	0.249961	1.560391	0.316294
O131	O	0.447699	0.930455	0.249750
O132	O	0.947699	1.430455	0.749750
H133	H	0.394017	0.888200	0.291968
H134	H	0.894017	1.388200	0.791968
H135	H	0.755006	1.167001	0.013377
H136	H	1.255006	1.667001	0.513377
H137	H	0.755019	0.946537	0.233708
H138	H	1.255019	1.446537	0.733708
O139	O	0.000041	1.581678	0.293780
O140	O	0.500041	2.081678	0.793780
H141	H	0.067456	1.538670	0.296876
H142	H	0.567456	2.038670	0.796876
O143	O	0.187428	1.061266	-0.135623
O144	O	0.687428	1.561266	0.364377
H145	H	0.250117	1.060361	-0.183741
H146	H	0.750117	1.560361	0.316259
H147	H	-0.163528	1.057880	-0.317191
H148	H	0.336472	1.557880	0.182809
H149	H	0.000046	1.516674	-0.025394
H150	H	0.500046	2.016674	0.474606
H151	H	0.000036	1.347423	-0.028595
H152	H	0.500036	1.847423	0.471405
O153	O	-0.187355	1.055870	-0.423352
O154	O	0.312645	1.555870	0.076648
H155	H	-0.250049	1.054959	-0.471455
H156	H	0.249951	1.554959	0.028545
O157	O	0.552391	0.930463	0.249753
O158	O	1.052391	1.430463	0.749753
H159	H	0.606077	0.888228	0.291986
H160	H	1.106077	1.388228	0.791986
O161	O	-0.187372	1.052212	-0.617277
O162	O	0.312628	1.552212	-0.117277
H163	H	-0.172230	1.050826	-0.689990
H164	H	0.327770	1.550826	-0.189990
H165	H	0.000051	1.478310	0.270231
H166	H	0.500051	1.978310	0.770231
O167	O	0.187418	1.052159	-0.617328
O168	O	0.687418	1.552159	-0.117328
H169	H	0.250112	1.053042	-0.569222
H170	H	0.750112	1.553042	-0.069222
O171	O	0.187427	1.055838	-0.423385
O172	O	0.687427	1.555838	0.076615
H173	H	0.250116	1.054935	-0.471504
H174	H	0.750116	1.554935	0.028496
O175	O	0.000045	1.625633	-0.044920
O176	O	0.500045	2.125633	0.455080
H177	H	0.000055	1.681097	-0.100667
H178	H	0.500055	2.181097	0.399333
O179	O	0.000038	1.819559	-0.041268
O180	O	0.500038	2.319559	0.458732
H181	H	0.000049	1.890496	-0.026210
H182	H	0.500049	2.390496	0.473790
