data_functionalizedCrystal
_audit_creation_method	'MofGen! by Chris Wilmer'
_symmetry_space_group_name_H-M	'P1'
_symmetry_Int_Tables_number	1
_symmetry_cell_setting	triclinic
loop_
_symmetry_equiv_pos_as_xyz
  x,y,z
_cell_length_a	29.839134
_cell_length_b	29.839131
_cell_length_c	16.120297
_cell_angle_alpha	87.132273
_cell_angle_beta	87.133417
_cell_angle_gamma	90.034165
loop_
_atom_site_label
_atom_site_type_symbol
_atom_site_fract_x
_atom_site_fract_y
_atom_site_fract_z
Zn1	Zn	0.673862	-0.191837	0.471627
Zn2	Zn	0.677595	-0.263155	0.332209
Zn3	Zn	0.602546	-0.188030	0.332203
Zn4	Zn	0.598695	-0.266929	0.471544
O5	O	0.638174	-0.227488	0.401895
O6	O	0.737223	-0.201311	0.453170
O7	O	0.670813	-0.250017	0.215547
O8	O	0.612055	-0.125669	0.350730
O9	O	0.739966	-0.253708	0.350741
O10	O	0.664451	-0.128466	0.453164
O11	O	0.615675	-0.194823	0.215542
O12	O	0.539169	-0.198483	0.350649
O13	O	0.605492	-0.260140	0.588216
O14	O	0.536339	-0.256449	0.453022
O15	O	0.660717	-0.204970	0.588277
O16	O	0.667079	-0.326522	0.350660
O17	O	0.609112	-0.329294	0.453028
C18	C	0.521454	-0.227462	0.401827
C19	C	0.471519	-0.227463	0.401817
C20	C	0.116388	-0.197265	0.348699
C21	C	0.304062	-0.197251	0.348648
O22	O	0.329567	-0.171535	0.303408
N23	N	0.326073	-0.227471	0.401859
C24	C	0.301162	-0.257696	0.455090
O25	O	0.324190	-0.283396	0.500354
C26	C	0.113489	-0.257707	0.455144
C27	C	0.091480	-0.227488	0.401924
C28	C	0.094380	-0.167048	0.295484
C29	C	0.047464	-0.167053	0.295494
C30	C	0.022556	-0.197276	0.348719
C31	C	0.044565	-0.227493	0.401934
C32	C	0.088578	-0.287929	0.508378
C33	C	0.041657	-0.287928	0.508389
C34	C	0.019649	-0.257709	0.455169
C35	C	-0.027258	-0.257721	0.455169
N36	N	-0.049269	-0.227501	0.401958
C37	C	-0.024362	-0.197278	0.348733
C38	C	0.399694	-0.257688	0.455056
C39	C	0.446612	-0.257686	0.455042
C40	C	0.449509	-0.197241	0.348601
C41	C	0.402590	-0.197245	0.348612
C42	C	0.377683	-0.227468	0.401846
C43	C	-0.122888	-0.197292	0.348758
C44	C	-0.169808	-0.197302	0.348770
C45	C	-0.172701	-0.257745	0.455213
C46	C	-0.125785	-0.257737	0.455198
C47	C	-0.100880	-0.227507	0.401968
O48	O	-0.052791	-0.283420	0.500392
O49	O	-0.047398	-0.171575	0.303489
C50	C	0.163304	-0.197260	0.348689
C51	C	0.185312	-0.227477	0.401904
C52	C	0.160404	-0.257700	0.455129
C53	C	0.232230	-0.227475	0.401889
C54	C	0.257138	-0.197252	0.348664
C55	C	0.235127	-0.167032	0.295454
C56	C	0.188211	-0.167037	0.295464
C57	C	0.182415	-0.287920	0.508340
C58	C	0.229331	-0.287912	0.508325
C59	C	0.254239	-0.257690	0.455100
C60	C	0.638094	-0.344209	0.401854
C61	C	0.638100	-0.394144	0.401864
C62	C	0.668408	-0.702334	0.348670
C63	C	0.668463	-0.890008	0.348703
O64	O	0.694168	-0.913036	0.303443
N65	N	0.638266	-0.914931	0.401958
C66	C	0.608055	-0.892934	0.455214
O67	O	0.582375	-0.918439	0.500518
C68	C	0.608003	-0.705261	0.455185
C69	C	0.638199	-0.680340	0.401920
C70	C	0.698602	-0.677413	0.295410
C71	C	0.698586	-0.630497	0.295399
C72	C	0.668377	-0.608502	0.348649
C73	C	0.638183	-0.633424	0.401909
C74	C	0.577795	-0.683264	0.508444
C75	C	0.577785	-0.636343	0.508434
C76	C	0.607981	-0.611422	0.455168
C77	C	0.607958	-0.564514	0.455148
N78	N	0.638155	-0.539590	0.401892
C79	C	0.668365	-0.561584	0.348642
C80	C	0.608084	-0.991465	0.455224
C81	C	0.608096	-1.038383	0.455230
C82	C	0.668505	-1.035454	0.348720
C83	C	0.668490	-0.988535	0.348710
C84	C	0.638281	-0.966541	0.401968
C85	C	0.668329	-0.463058	0.348623
C86	C	0.668310	-0.416138	0.348615
C87	C	0.607903	-0.419072	0.455128
C88	C	0.607921	-0.465987	0.455134
C89	C	0.638138	-0.487979	0.401879
O90	O	0.582270	-0.541456	0.500390
O91	O	0.694047	-0.536071	0.303358
C92	C	0.668424	-0.749250	0.348681
C93	C	0.638230	-0.774171	0.401941
C94	C	0.608021	-0.752177	0.455191
C95	C	0.638242	-0.821089	0.401948
C96	C	0.668452	-0.843083	0.348698
C97	C	0.698649	-0.818160	0.295442
C98	C	0.698633	-0.771244	0.295431
C99	C	0.577824	-0.777100	0.508447
C100	C	0.577841	-0.824016	0.508452
C101	C	0.608051	-0.846010	0.455203
C102	C	0.755351	-0.227513	0.401965
C103	C	0.805284	-0.227524	0.401995
C104	C	0.632258	-0.233401	0.619341
C105	C	0.629737	-0.235920	0.712003
C106	C	0.638266	-0.110311	0.401955
C107	C	0.638306	-0.060377	0.401981
C108	C	0.644093	-0.221565	0.185296
C109	C	0.646701	-0.218919	0.092634
C110	C	0.625118	-0.240511	0.881658
C111	C	0.651319	-0.214330	0.922984
C112	C	0.648749	-0.216884	1.017386
C113	C	0.627688	-0.237957	0.787248
H114	H	-0.192989	-0.282353	0.498545
Br115	Br	0.365898	-0.298709	0.527308
H116	H	0.464527	-0.282298	0.498370
H117	H	0.106489	-0.312537	0.551716
H118	H	0.692899	-0.395848	0.305237
Br119	Br	0.584517	-0.281065	0.940854
Br120	Br	0.739645	-0.848019	0.223172
Br121	Br	0.372727	-0.156232	0.276382
H122	H	-0.102616	-0.172674	0.305416
H123	H	0.692936	-0.480958	0.305260
H124	H	-0.187725	-0.172693	0.305429
Br125	Br	0.017603	-0.126035	0.223271
H126	H	0.675680	-0.189997	0.887467
H127	H	0.469796	-0.172632	0.305262
H128	H	0.021380	-0.312538	0.551742
Br129	Br	-0.095916	-0.298755	0.527415
H130	H	0.114654	-0.142434	0.252141
H131	H	0.255415	-0.142425	0.252113
Br132	Br	0.158350	-0.126022	0.223233
Br133	Br	0.536816	-0.717075	0.580746
H134	H	0.723204	-0.695315	0.252048
Br135	Br	0.259193	-0.328931	0.580554
H136	H	0.162140	-0.312531	0.551684
H137	H	0.723176	-0.610209	0.252029
H138	H	0.693078	-0.968246	0.305337
Br139	Br	0.709502	-1.065312	0.276450
Br140	Br	0.567108	-1.072199	0.527509
H141	H	0.583483	-0.973561	0.498594
H142	H	0.553186	-0.618439	0.551805
H143	H	0.553224	-0.759196	0.551810
H144	H	0.583306	-0.401156	0.498481
H145	H	0.583334	-0.486280	0.498509
Br146	Br	0.739617	-0.737429	0.223141
H147	H	0.553248	-0.844303	0.551827
