data_functionalizedCrystal
_audit_creation_method	'MofGen! by Chris Wilmer'
_symmetry_space_group_name_H-M	'P1'
_symmetry_Int_Tables_number	1
_symmetry_cell_setting	triclinic
loop_
_symmetry_equiv_pos_as_xyz
  x,y,z
_cell_length_a	10.654541
_cell_length_b	15.995350
_cell_length_c	9.130307
_cell_angle_alpha	89.998938
_cell_angle_beta	89.999822
_cell_angle_gamma	83.988152
loop_
_atom_site_label
_atom_site_type_symbol
_atom_site_fract_x
_atom_site_fract_y
_atom_site_fract_z
O1	O	1.666303	0.117592	-0.121747
O2	O	1.300677	0.128798	-0.121759
O3	O	1.493484	0.001365	-0.121751
O4	O	1.473495	0.245024	-0.121754
O5	O	1.493478	0.001364	0.121848
O6	O	1.300671	0.128797	0.121840
O7	O	1.666296	0.117590	0.121852
Cu8	Cu	1.483483	0.123193	0.144089
Cu9	Cu	1.483490	0.123195	-0.143995
O10	O	1.473489	0.245023	0.121845
C11	C	1.253887	0.127975	0.000039
C12	C	1.114475	0.125514	0.000034
C13	C	1.084514	0.277895	0.000014
C14	C	1.004039	0.352926	-0.000002
C15	C	0.873052	0.350609	-0.000003
C16	C	0.822537	0.273253	0.000016
C17	C	0.903011	0.198222	0.000032
C18	C	1.034000	0.200547	0.000029
C19	C	0.932972	0.045843	0.000063
C20	C	1.063961	0.048158	0.000054
C21	C	0.882458	-0.031513	0.000082
C22	C	0.962933	-0.106546	0.000087
C23	C	1.093928	-0.104226	0.000087
C24	C	1.144435	-0.026873	0.000070
C25	C	1.492655	-0.029835	0.000046
C26	C	1.490177	-0.122800	0.000037
C27	C	1.481280	-0.460599	0.000042
C28	C	1.343966	-0.413961	-0.000509
C29	C	1.346444	-0.317257	0.000040
C30	C	1.485693	-0.293013	0.000039
C31	C	1.553418	-0.333698	0.139146
C32	C	1.549968	-0.430354	0.139262
C33	C	1.552812	-0.430694	-0.137756
C34	C	1.552779	-0.333749	-0.139594
C35	C	1.488195	-0.198301	0.000042
C36	C	1.478783	-0.555311	0.000049
C37	C	1.713087	0.118413	0.000051
C38	C	1.852498	0.120874	0.000047
C39	C	1.474318	0.276223	0.000045
C40	C	1.476796	0.369188	0.000044
N41	N	1.483487	0.123192	0.346712
N42	N	1.483496	0.123190	-0.346618
C43	C	1.654287	0.010383	0.346709
C44	C	1.739695	-0.046019	0.423374
C45	C	1.739708	-0.046019	0.576707
C46	C	1.654300	0.010387	0.653379
C47	C	1.568892	0.066788	0.576714
C48	C	1.568891	0.066785	0.423377
C49	C	1.398088	0.179592	0.576717
C50	C	1.398079	0.179598	0.423384
C51	C	1.312680	0.235998	0.653389
C52	C	1.227276	0.292405	0.576724
C53	C	1.227268	0.292404	0.423381
C54	C	1.312671	0.236000	0.346718
H55	H	1.293208	-0.289143	-0.099677
H56	H	1.654306	0.010376	0.778231
H57	H	1.312689	0.235991	0.778241
H58	H	1.654326	-0.317798	-0.147994
O59	O	1.271249	-0.438924	-0.132638
H60	H	1.186430	-0.467942	-0.095985
O61	O	1.225792	0.280401	0.000014
H62	H	1.266792	0.248126	0.099308
H63	H	1.506375	-0.305590	0.242665
H64	H	1.809250	-0.091950	0.639128
H65	H	1.654053	-0.461868	-0.138691
H66	H	1.655720	-0.318979	0.144318
H67	H	1.157738	0.338323	0.639159
H68	H	1.809231	-0.091946	0.360934
H69	H	1.292845	-0.289704	0.099924
O70	O	1.271590	-0.440328	0.130897
H71	H	1.187154	-0.469496	0.093424
H72	H	1.507920	-0.451494	-0.243190
H73	H	1.157713	0.338330	0.360968
H74	H	1.500578	-0.448942	0.243247
O75	O	0.908455	-0.189974	0.000113
H76	H	0.803852	-0.178979	0.000113
O77	O	1.487294	-0.297969	-0.275923
H78	H	1.407302	-0.251362	-0.244380
H79	H	1.045183	0.415908	-0.000014
O80	O	1.285715	-0.024373	0.000080
H81	H	1.307316	0.042021	0.000079
H82	H	1.650782	-0.462017	0.145572
H83	H	1.654296	0.010385	0.221856
O84	O	0.786242	0.431531	-0.000024
H85	H	0.843367	0.485711	-0.000044
H86	H	0.715878	0.271373	0.000032
O87	O	0.741179	-0.034020	0.000085
H88	H	0.693704	0.031148	0.000057
H89	H	1.312676	0.235997	0.221866
H90	H	1.159444	-0.165325	0.000106
