data_functionalizedCrystal
_audit_creation_method	'MofGen! by Chris Wilmer'
_symmetry_space_group_name_H-M	'P1'
_symmetry_Int_Tables_number	1
_symmetry_cell_setting	triclinic
loop_
_symmetry_equiv_pos_as_xyz
  x,y,z
_cell_length_a	17.077404
_cell_length_b	21.295418
_cell_length_c	17.077396
_cell_angle_alpha	90.031504
_cell_angle_beta	90.018362
_cell_angle_gamma	90.025370
loop_
_atom_site_label
_atom_site_type_symbol
_atom_site_fract_x
_atom_site_fract_y
_atom_site_fract_z
Zn1	Zn	1.200030	-0.250643	0.443802
Zn2	Zn	1.700030	0.249357	0.943802
Zn3	Zn	1.199927	-0.355916	0.312529
Zn4	Zn	1.699927	0.144084	0.812529
Zn5	Zn	1.068762	-0.250661	0.312553
Zn6	Zn	1.568762	0.249339	0.812553
Zn7	Zn	1.068719	-0.355875	0.443756
Zn8	Zn	1.568719	0.144125	0.943756
O9	O	1.134359	-0.303274	0.378160
O10	O	1.634359	0.196726	0.878160
O11	O	1.309863	-0.264618	0.426398
O12	O	1.809863	0.235382	0.926398
O13	O	1.182502	-0.341979	0.202686
O14	O	1.682502	0.158021	0.702686
O15	O	1.086236	-0.162569	0.329993
O16	O	1.586236	0.337431	0.829993
O17	O	1.309787	-0.341962	0.329953
O18	O	1.809787	0.158038	0.829953
O19	O	1.182678	-0.162556	0.426421
O20	O	1.682678	0.337444	0.926421
O21	O	1.086136	-0.264648	0.202703
O22	O	1.586136	0.235352	0.702703
O23	O	0.958909	-0.264608	0.329947
O24	O	1.458909	0.235392	0.829947
O25	O	1.086164	-0.341891	0.553609
O26	O	1.586164	0.158109	1.053609
O27	O	0.958878	-0.341908	0.426342
O28	O	1.458878	0.158092	0.926342
O29	O	1.182637	-0.264578	0.553643
O30	O	1.682637	0.235422	1.053643
O31	O	1.182461	-0.444000	0.329907
O32	O	1.682461	0.056000	0.829907
O33	O	1.086063	-0.443970	0.426319
O34	O	1.586063	0.056030	0.926319
C35	C	0.930412	-0.303256	0.378142
C36	C	1.430412	0.196744	0.878142
C37	C	0.843162	-0.303264	0.378154
C38	C	1.343162	0.196736	0.878154
C39	C	0.802212	-0.263062	0.428449
C40	C	1.302212	0.236938	0.928449
C41	C	0.720231	-0.263066	0.428453
C42	C	1.220231	0.236934	0.928453
C43	C	0.679202	-0.303275	0.378164
C44	C	1.179202	0.196725	0.878164
C45	C	0.720158	-0.343478	0.327863
C46	C	1.220158	0.156522	0.827863
C47	C	0.802137	-0.343471	0.327856
C48	C	1.302137	0.156529	0.827856
C49	C	0.549288	-0.343493	0.327882
C50	C	1.049288	0.156507	0.827882
C51	C	0.467303	-0.343501	0.327890
C52	C	0.967303	0.156499	0.827890
C53	C	0.467382	-0.263088	0.428480
C54	C	0.967382	0.236912	0.928480
C55	C	0.549361	-0.263081	0.428473
C56	C	1.049361	0.236919	0.928473
C57	C	0.590311	-0.303285	0.378172
C58	C	1.090311	0.196715	0.878172
C59	C	1.134268	-0.466826	0.378123
C60	C	1.634268	0.033174	0.878123
C61	C	1.134300	-0.536794	0.378133
C62	C	1.634300	-0.036794	0.878133
C63	C	1.184742	-1.036246	0.328085
C64	C	1.684742	-0.536246	0.828085
C65	C	1.184712	-0.970504	0.328067
C66	C	1.684712	-0.470504	0.828067
C67	C	1.134470	-0.937633	0.378215
C68	C	1.634470	-0.437633	0.878215
C69	C	1.084240	-0.970510	0.428371
C70	C	1.584240	-0.470510	0.928371
C71	C	1.084265	-1.036251	0.428383
C72	C	1.584265	-0.536251	0.928383
N73	N	1.128368	-0.834379	0.446903
N74	N	1.628368	-0.334379	0.946903
N75	N	1.128348	-0.771927	0.446890
N76	N	1.628348	-0.271927	0.946890
C77	C	1.134388	-0.739558	0.378182
C78	C	1.634388	-0.239558	0.878182
N79	N	1.140465	-0.772000	0.309486
N80	N	1.640465	-0.272000	0.809486
N81	N	1.140489	-0.834457	0.309500
N82	N	1.640489	-0.334457	0.809500
C83	C	1.134436	-0.866348	0.378208
C84	C	1.634436	-0.366348	0.878208
C85	C	1.184579	-0.635404	0.328005
C86	C	1.684579	-0.135404	0.828005
C87	C	1.184544	-0.569660	0.327985
C88	C	1.684544	-0.069660	0.827985
C89	C	1.084075	-0.569667	0.428297
C90	C	1.584075	-0.069667	0.928297
C91	C	1.084107	-0.635410	0.428310
C92	C	1.584107	-0.135410	0.928310
C93	C	1.134363	-0.668274	0.378165
C94	C	1.634363	-0.168274	0.878165
C95	C	1.339104	-0.303292	0.378178
C96	C	1.839104	0.196708	0.878178
C97	C	1.426353	-0.303300	0.378186
C98	C	1.926353	0.196700	0.878186
C99	C	1.134407	-0.303228	0.582904
C100	C	1.634407	0.196772	1.082904
C101	C	1.134427	-0.303208	0.670154
C102	C	1.634427	0.196792	1.170154
C103	C	1.134473	-0.139084	0.378215
C104	C	1.634473	0.360916	0.878215
C105	C	1.134521	-0.069116	0.378238
C106	C	1.634521	0.430884	0.878238
C107	C	1.134357	-0.303275	0.174212
C108	C	1.634357	0.196725	0.674212
C109	C	1.134489	-0.303117	0.086963
C110	C	1.634489	0.196883	0.586963
C111	C	1.184663	-0.262947	0.711164
C112	C	1.684663	0.237053	1.211164
C113	C	1.184672	-0.262927	0.793144
C114	C	1.684672	0.237073	1.293144
C115	C	1.134449	-0.303170	0.834114
C116	C	1.634449	0.196830	1.334114
C117	C	1.084208	-0.343432	0.793099
C118	C	1.584208	0.156568	1.293099
C119	C	1.084196	-0.343449	0.711120
C120	C	1.584196	0.156551	1.211120
C121	C	1.084240	-0.343394	0.963969
C122	C	1.584240	0.156606	1.463969
C123	C	1.084254	-0.343377	1.045954
C124	C	1.584254	0.156623	1.545954
C125	C	1.184717	-0.262871	1.045993
C126	C	1.684717	0.237129	1.545993
C127	C	1.184704	-0.262889	0.964014
C128	C	1.684704	0.237111	1.464014
C129	C	1.134464	-0.303152	0.923005
C130	C	1.634464	0.196848	1.423005
H131	H	0.686894	-0.230332	0.469411
H132	H	1.186894	0.269668	0.969411
H133	H	1.225623	-0.230087	1.079387
H134	H	1.725623	0.269913	1.579387
N135	N	0.591271	-0.221999	0.479830
N136	N	1.091271	0.278001	0.979830
N137	N	0.637019	-0.181854	0.452294
N138	N	1.137019	0.318146	0.952294
H139	H	0.666617	-0.152837	0.488564
H140	H	1.166617	0.347163	0.988564
H141	H	1.043370	-1.063013	0.469226
H142	H	1.543370	-0.563013	0.969226
N143	N	1.235908	-0.668969	0.276772
N144	N	1.735908	-0.168969	0.776772
N145	N	1.280735	-0.639610	0.231984
N146	N	1.780735	-0.139610	0.731984
H147	H	1.316984	-0.663313	0.195797
H148	H	1.816984	-0.163313	0.695797
H149	H	1.043164	-0.542904	0.469125
H150	H	1.543164	-0.042904	0.969125
H151	H	0.434037	-0.230352	0.469435
H152	H	0.934037	0.269648	0.969435
N153	N	0.591121	-0.384549	0.276491
N154	N	1.091121	0.115451	0.776491
N155	N	0.581939	-0.380300	0.204068
N156	N	1.081939	0.119700	0.704068
H157	H	0.611485	-0.409296	0.167775
H158	H	1.111485	0.090704	0.667775
N159	N	1.032917	-0.384462	1.087793
N160	N	1.532917	0.115538	1.587793
N161	N	0.988038	-0.420387	1.051170
N162	N	1.488038	0.079613	1.551170
H163	H	0.951767	-0.449394	1.080719
H164	H	1.451767	0.050606	1.580719
H165	H	0.686746	-0.376214	0.286913
H166	H	1.186746	0.123786	0.786913
N167	N	0.425404	-0.384575	0.276515
N168	N	0.925404	0.115425	0.776515
N169	N	0.461973	-0.420463	0.231603
N170	N	0.961973	0.079537	0.731603
H171	H	0.432382	-0.449472	0.195318
H172	H	0.932382	0.050528	0.695318
H173	H	0.835477	-0.376206	0.286899
H174	H	1.335477	0.123794	0.786899
H175	H	1.225437	-0.542898	0.287140
H176	H	1.725437	-0.042898	0.787140
N177	N	1.032803	-0.668979	0.479547
N178	N	1.532803	-0.168979	0.979547
N179	N	0.987944	-0.639625	0.524317
N180	N	1.487944	-0.139625	1.024317
H181	H	0.951706	-0.663332	0.560504
H182	H	1.451706	-0.163332	1.060504
N183	N	1.236003	-0.221791	0.922149
N184	N	1.736003	0.278209	1.422149
N185	N	1.285996	-0.243957	0.876400
N186	N	1.785996	0.256043	1.376400
H187	H	1.322225	-0.214931	0.846830
H188	H	1.822225	0.285069	1.346830
N189	N	1.032911	-0.384520	0.922090
N190	N	1.532911	0.115480	1.422090
N191	N	0.988073	-0.420449	0.958677
N192	N	1.488073	0.079551	1.458677
H193	H	0.951823	-0.449496	0.929100
H194	H	1.451823	0.050504	1.429100
H195	H	1.225581	-0.230144	0.826530
H196	H	1.725581	0.269856	1.326530
H197	H	1.043313	-0.376196	0.826463
H198	H	1.543313	0.123804	1.326463
H199	H	1.225662	-1.063001	0.287251
H200	H	1.725662	-0.563001	0.787251
N201	N	1.032894	-0.384576	0.669215
N202	N	1.532894	0.115424	1.169215
N203	N	1.032889	-0.384587	0.596020
N204	N	1.532889	0.115413	1.096020
H205	H	0.996654	-0.413632	0.566424
H206	H	1.496654	0.086368	1.066424
N207	N	1.235975	-0.221839	0.669330
N208	N	1.735975	0.278161	1.169330
N209	N	1.280823	-0.185895	0.705959
N210	N	1.780823	0.314105	1.205959
H211	H	1.317063	-0.156860	0.676417
H212	H	1.817063	0.343140	1.176417
N213	N	1.236024	-0.936910	0.276854
N214	N	1.736024	-0.436910	0.776854
N215	N	1.235999	-0.878213	0.276861
N216	N	1.735999	-0.378213	0.776861
H217	H	1.272240	-0.854488	0.240697
H218	H	1.772240	-0.354488	0.740697
H219	H	1.043330	-0.943743	0.469202
H220	H	1.543330	-0.443743	0.969202
H221	H	0.835612	-0.230321	0.469403
H222	H	1.335612	0.269679	0.969403
