data_functionalizedCrystal
_audit_creation_method	'MofGen! by Chris Wilmer'
_symmetry_space_group_name_H-M	'P1'
_symmetry_Int_Tables_number	1
_symmetry_cell_setting	triclinic
loop_
_symmetry_equiv_pos_as_xyz
  x,y,z
_cell_length_a	21.295417
_cell_length_b	18.050590
_cell_length_c	18.050582
_cell_angle_alpha	89.996382
_cell_angle_beta	89.973245
_cell_angle_gamma	89.982671
loop_
_atom_site_label
_atom_site_type_symbol
_atom_site_fract_x
_atom_site_fract_y
_atom_site_fract_z
Zn1	Zn	-0.250871	-1.135281	-0.419523
Zn2	Zn	-0.356132	-1.135186	-0.295324
Zn3	Zn	-0.250856	-1.011100	-0.295388
Zn4	Zn	-0.356082	-1.011043	-0.419513
O5	O	-0.303485	-1.073152	-0.357437
O6	O	-0.264861	-1.239193	-0.403026
O7	O	-0.342182	-1.118710	-0.191408
O8	O	-0.162769	-1.027636	-0.311885
O9	O	-0.342196	-1.239123	-0.311778
O10	O	-0.162779	-1.118871	-0.403087
O11	O	-0.264836	-1.027545	-0.191455
O12	O	-0.264788	-0.907168	-0.311875
O13	O	-0.342110	-1.027539	-0.523439
O14	O	-0.342096	-0.907126	-0.403070
O15	O	-0.264812	-1.118816	-0.523447
O16	O	-0.444215	-1.118655	-0.311767
O17	O	-0.444178	-1.027447	-0.403008
C18	C	-0.303435	-0.880200	-0.357479
C19	C	-0.303429	-0.797655	-0.357514
C20	C	-0.345583	-0.598203	-0.406998
C21	C	-0.288184	-0.548812	-0.425280
C22	C	-0.303459	-0.646524	-0.357485
C23	C	-0.360886	-0.548833	-0.339209
C24	C	-0.303493	-0.500539	-0.357459
C25	C	-0.246030	-0.598221	-0.375803
C26	C	-0.318770	-0.598246	-0.289701
C27	C	-0.261332	-0.548878	-0.307958
C28	C	-0.303441	-0.730622	-0.357503
C29	C	-0.303505	-0.416442	-0.357442
C30	C	-0.467037	-1.073055	-0.357396
C31	C	-0.537005	-1.073081	-0.357403
C32	C	-0.569870	-1.120615	-0.309943
C33	C	-0.635612	-1.120650	-0.309960
C34	C	-0.668487	-1.073138	-0.357429
C35	C	-0.635614	-1.025600	-0.404899
C36	C	-0.569873	-1.025572	-0.404886
N37	N	-0.771741	-1.008171	-0.363105
N38	N	-0.834192	-1.008200	-0.363112
C39	C	-0.866562	-1.073221	-0.357471
N40	N	-0.834121	-1.138214	-0.351808
N41	N	-0.771664	-1.138184	-0.351796
C42	C	-0.739773	-1.073163	-0.357448
C43	C	-0.970713	-1.120797	-0.310027
C44	C	-1.036456	-1.120833	-0.310048
C45	C	-1.036457	-1.025776	-0.404984
C46	C	-0.970715	-1.025747	-0.404966
C47	C	-0.937846	-1.073256	-0.357483
C48	C	-0.139295	-1.073270	-0.357495
C49	C	-0.069327	-1.073321	-0.357519
C50	C	-0.303457	-1.073181	-0.551143
C51	C	-0.303445	-1.073194	-0.633689
C52	C	-0.303527	-0.266858	-0.357408
C53	C	-0.303522	-0.349404	-0.357428
C54	C	-0.345423	-1.023595	-0.833135
C55	C	-0.360823	-1.091350	-0.882503
C56	C	-0.303397	-1.073231	-0.784819
C57	C	-0.287979	-1.005513	-0.882533
C58	C	-0.303352	-1.073260	-0.930804
C59	C	-0.318828	-1.141021	-0.833100
C60	C	-0.245957	-1.055138	-0.833125
C61	C	-0.261336	-1.122939	-0.882471
C62	C	-0.303425	-1.073213	-0.700721
C63	C	-0.303324	-1.073286	-1.014901
C64	C	-0.303468	-1.073166	-0.164485
C65	C	-0.303302	-1.073298	-0.081940
H66	H	-0.197465	-0.619824	-0.391315
H67	H	-0.943954	-0.987037	-0.443609
H68	H	-0.225777	-1.164975	-0.903997
F69	F	-0.335696	-0.626629	-0.214799
F70	F	-0.534895	-0.974978	-0.455402
H71	H	-0.543110	-1.159302	-0.271282
H72	H	-1.063214	-1.159545	-0.271402
H73	H	-0.381146	-0.619863	-0.448913
F74	F	-0.424344	-0.520476	-0.319018
F75	F	-1.071441	-0.975214	-0.455509
H76	H	-0.662376	-1.159361	-0.271312
F77	F	-0.270958	-0.930645	-0.910915
F78	F	-0.271270	-0.520430	-0.500191
F79	F	-0.214737	-0.520745	-0.253214
F80	F	-0.670603	-0.975037	-0.455422
F81	F	-0.182508	-1.035088	-0.804752
F82	F	-0.935729	-1.171359	-0.259492
H83	H	-0.331905	-1.198317	-0.811478
H84	H	-0.381009	-0.981660	-0.811473
H85	H	-0.409380	-1.106670	-0.904193
