data_functionalizedCrystal
_audit_creation_method	'MofGen! by Chris Wilmer'
_symmetry_space_group_name_H-M	'P1'
_symmetry_Int_Tables_number	1
_symmetry_cell_setting	triclinic
loop_
_symmetry_equiv_pos_as_xyz
  x,y,z
_cell_length_a	14.044220
_cell_length_b	14.421503
_cell_length_c	14.044209
_cell_angle_alpha	90.001982
_cell_angle_beta	86.811584
_cell_angle_gamma	90.003446
loop_
_atom_site_label
_atom_site_type_symbol
_atom_site_fract_x
_atom_site_fract_y
_atom_site_fract_z
O1	O	1.277171	0.077023	-0.230155
O2	O	1.527171	0.327023	0.019845
O3	O	1.777171	0.577023	0.269845
O4	O	2.027171	0.827023	0.519845
O5	O	1.000499	0.077047	-0.221849
O6	O	1.250499	0.327047	0.028151
O7	O	1.500499	0.577047	0.278151
O8	O	1.750499	0.827047	0.528151
O9	O	1.134683	0.077022	-0.087666
O10	O	1.384683	0.327022	0.162334
O11	O	1.634683	0.577022	0.412334
O12	O	1.884683	0.827022	0.662334
O13	O	1.142987	0.077048	-0.364338
O14	O	1.392987	0.327048	-0.114338
O15	O	1.642987	0.577048	0.135662
O16	O	1.892987	0.827048	0.385662
O17	O	1.134661	-0.077201	-0.087686
O18	O	1.384661	0.172799	0.162314
O19	O	1.634661	0.422799	0.412314
O20	O	1.884661	0.672799	0.662314
O21	O	1.000477	-0.077177	-0.221869
O22	O	1.250477	0.172823	0.028131
O23	O	1.500477	0.422823	0.278131
O24	O	1.750477	0.672823	0.528131
O25	O	1.277148	-0.077200	-0.230175
O26	O	1.527148	0.172800	0.019825
O27	O	1.777148	0.422800	0.269825
O28	O	2.027148	0.672800	0.519825
Cu29	Cu	1.138811	-0.091270	-0.226024
Cu30	Cu	1.388811	0.158730	0.023976
Cu31	Cu	1.638811	0.408730	0.273976
Cu32	Cu	1.888811	0.658730	0.523976
Cu33	Cu	1.138837	0.091117	-0.226000
Cu34	Cu	1.388837	0.341117	0.024000
Cu35	Cu	1.638837	0.591117	0.274000
Cu36	Cu	1.888837	0.841117	0.524000
O37	O	1.142964	-0.077176	-0.364358
O38	O	1.392964	0.172824	-0.114358
O39	O	1.642964	0.422824	0.135642
O40	O	1.892964	0.672824	0.385642
C41	C	0.964866	-0.000062	-0.218223
C42	C	1.214866	0.249938	0.031777
C43	C	1.464866	0.499938	0.281777
C44	C	1.714866	0.749938	0.531777
C45	C	0.858724	-0.000054	-0.207379
C46	C	1.108724	0.249946	0.042621
C47	C	1.358724	0.499946	0.292621
C48	C	1.608724	0.749946	0.542621
N49	N	1.138799	-0.219552	-0.226040
N50	N	1.388799	0.030448	0.023960
N51	N	1.638799	0.280448	0.273960
N52	N	1.888799	0.530448	0.523960
C53	C	0.664386	-0.000074	-0.187553
C54	C	0.914386	0.249926	0.062447
C55	C	1.164386	0.499926	0.312447
C56	C	1.414386	0.749926	0.562447
C57	C	0.613256	-0.000071	-0.264467
C58	C	0.863256	0.249929	-0.014467
C59	C	1.113256	0.499929	0.235533
C60	C	1.363256	0.749929	0.485533
C61	C	0.505120	-0.000082	-0.253435
C62	C	0.755120	0.249918	-0.003435
C63	C	1.005120	0.499918	0.246565
C64	C	1.255120	0.749918	0.496565
C65	C	0.772532	-0.000063	-0.198583
C66	C	1.022532	0.249937	0.051417
C67	C	1.272532	0.499937	0.301417
C68	C	1.522532	0.749937	0.551417
C69	C	1.076738	-0.469194	-0.288055
C70	C	1.326738	-0.219194	-0.038055
C71	C	1.576738	0.030806	0.211945
C72	C	1.826738	0.280806	0.461945
C73	C	1.164571	-0.531002	-0.313879
C74	C	1.414571	-0.281002	-0.063879
C75	C	1.664571	-0.031002	0.186121
C76	C	1.914571	0.218998	0.436121
C77	C	1.138820	-0.408713	-0.226019
C78	C	1.388820	-0.158713	0.023981
C79	C	1.638820	0.091287	0.273981
C80	C	1.888820	0.341287	0.523981
C81	C	1.051011	-0.530999	-0.200219
C82	C	1.301011	-0.280999	0.049781
C83	C	1.551011	-0.030999	0.299781
C84	C	1.801011	0.219001	0.549781
C85	C	1.138833	-0.591434	-0.226001
C86	C	1.388833	-0.341434	0.023999
C87	C	1.638833	-0.091434	0.273999
C88	C	1.888833	0.158566	0.523999
C89	C	1.226701	-0.469160	-0.251890
C90	C	1.476701	-0.219160	-0.001890
C91	C	1.726701	0.030840	0.248110
C92	C	1.976701	0.280840	0.498110
C93	C	1.113080	-0.469152	-0.138188
C94	C	1.363080	-0.219152	0.111812
C95	C	1.613080	0.030848	0.361812
C96	C	1.863080	0.280848	0.611812
C97	C	1.200973	-0.530932	-0.163981
C98	C	1.450973	-0.280932	0.086019
C99	C	1.700973	-0.030932	0.336019
C100	C	1.950973	0.219068	0.586019
C101	C	1.138811	-0.303452	-0.226032
C102	C	1.388811	-0.053452	0.023968
C103	C	1.638811	0.196548	0.273968
C104	C	1.888811	0.446548	0.523968
C105	C	1.138852	-0.696693	-0.225988
C106	C	1.388852	-0.446693	0.024012
C107	C	1.638852	-0.196693	0.274012
C108	C	1.888852	0.053307	0.524012
C109	C	1.312781	-0.000089	-0.233800
C110	C	1.562781	0.249911	0.016200
C111	C	1.812781	0.499911	0.266200
C112	C	2.062781	0.749911	0.516200
C113	C	1.418924	-0.000091	-0.244645
C114	C	1.668924	0.249909	0.005355
C115	C	1.918924	0.499909	0.255355
C116	C	2.168924	0.749909	0.505355
C117	C	1.131037	-0.000091	-0.052054
C118	C	1.381037	0.249909	0.197946
C119	C	1.631037	0.499909	0.447946
C120	C	1.881037	0.749909	0.697946
C121	C	1.120193	-0.000094	0.054088
C122	C	1.370193	0.249906	0.304088
C123	C	1.620193	0.499906	0.554088
C124	C	1.870193	0.749906	0.804088
N125	N	1.138856	0.219398	-0.225977
N126	N	1.388856	0.469398	0.024023
N127	N	1.638856	0.719398	0.274023
N128	N	1.888856	0.969398	0.524023
C129	C	1.100368	-0.000085	0.248426
C130	C	1.350368	0.249915	0.498426
C131	C	1.600368	0.499915	0.748426
C132	C	1.850368	0.749915	0.998426
C133	C	1.177283	-0.000090	0.299556
C134	C	1.427283	0.249910	0.549556
C135	C	1.677283	0.499910	0.799556
C136	C	1.927283	0.749910	1.049556
C137	C	1.166252	-0.000085	0.407692
C138	C	1.416252	0.249915	0.657692
C139	C	1.666252	0.499915	0.907692
C140	C	1.916252	0.749915	1.157692
C141	C	1.111398	-0.000090	0.140280
C142	C	1.361398	0.249910	0.390280
C143	C	1.611398	0.499910	0.640280
C144	C	1.861398	0.749910	0.890280
C145	C	1.146613	-0.000068	0.600030
C146	C	1.396613	0.249932	0.850030
C147	C	1.646613	0.499932	1.100030
C148	C	1.896613	0.749932	1.350030
C149	C	1.157463	-0.000080	0.493888
C150	C	1.407463	0.249920	0.743888
C151	C	1.657463	0.499920	0.993888
C152	C	1.907463	0.749920	1.243888
H153	H	0.650694	-0.000060	-0.338601
H154	H	0.900694	0.249940	-0.088601
H155	H	1.150694	0.499940	0.161399
H156	H	1.400694	0.749940	0.411399
H157	H	1.186354	-0.558169	-0.388149
H158	H	1.436354	-0.308169	-0.138149
H159	H	1.686354	-0.058169	0.111851
H160	H	1.936354	0.191831	0.361851
H161	H	1.253542	-0.557869	-0.111513
H162	H	1.503542	-0.307869	0.138487
H163	H	1.753542	-0.057869	0.388487
H164	H	2.003542	0.192131	0.638487
N165	N	1.002173	-0.000090	0.298005
N166	N	1.252173	0.249910	0.548005
N167	N	1.502173	0.499910	0.798005
N168	N	1.752173	0.749910	1.048005
H169	H	0.966309	0.057079	0.278952
H170	H	1.216309	0.307079	0.528952
H171	H	1.466309	0.557079	0.778952
H172	H	1.716309	0.807079	1.028952
H173	H	1.008191	-0.000127	0.369331
H174	H	1.258191	0.249873	0.619331
H175	H	1.508191	0.499873	0.869331
H176	H	1.758191	0.749873	1.119331
H177	H	1.091272	-0.441963	-0.063940
H178	H	1.341272	-0.191963	0.186060
H179	H	1.591272	0.058037	0.436060
H180	H	1.841272	0.308037	0.686060
H181	H	0.626950	-0.000086	-0.113425
H182	H	0.876950	0.249914	0.136575
H183	H	1.126950	0.499914	0.386575
H184	H	1.376950	0.749914	0.636575
H185	H	0.976746	-0.558165	-0.178407
H186	H	1.226746	-0.308165	0.071593
H187	H	1.476746	-0.058165	0.321593
H188	H	1.726746	0.191835	0.571593
H189	H	1.024299	-0.442087	-0.340567
H190	H	1.274299	-0.192087	-0.090567
H191	H	1.524299	0.057913	0.159433
H192	H	1.774299	0.307913	0.409433
N193	N	1.275487	-0.000108	0.249980
N194	N	1.525487	0.249892	0.499980
N195	N	1.775487	0.499892	0.749980
N196	N	2.025487	0.749892	0.999980
H197	H	1.283502	0.057058	0.208769
H198	H	1.533502	0.307058	0.458769
H199	H	1.783502	0.557058	0.708769
H200	H	2.033502	0.807058	0.958769
H201	H	1.283410	-0.057321	0.208829
H202	H	1.533410	0.192679	0.458829
H203	H	1.783410	0.442679	0.708829
H204	H	2.033410	0.692679	0.958829
N205	N	1.325108	-0.433342	-0.280896
N206	N	1.575108	-0.183342	-0.030896
N207	N	1.825108	0.066658	0.219104
N208	N	2.075108	0.316658	0.469104
H209	H	1.324490	-0.363311	-0.280751
H210	H	1.574490	-0.113311	-0.030751
H211	H	1.824490	0.136689	0.219249
H212	H	2.074490	0.386689	0.469249
H213	H	1.344636	-0.456454	-0.347006
H214	H	1.594636	-0.206454	-0.097006
H215	H	1.844636	0.043546	0.152994
H216	H	2.094636	0.293546	0.402994
