data_functionalizedCrystal
_audit_creation_method	'MofGen! by Chris Wilmer'
_symmetry_space_group_name_H-M	'P1'
_symmetry_Int_Tables_number	1
_symmetry_cell_setting	triclinic
loop_
_symmetry_equiv_pos_as_xyz
  x,y,z
_cell_length_a	14.519709
_cell_length_b	15.072220
_cell_length_c	14.519709
_cell_angle_alpha	90.002063
_cell_angle_beta	96.319855
_cell_angle_gamma	89.993636
loop_
_atom_site_label
_atom_site_type_symbol
_atom_site_fract_x
_atom_site_fract_y
_atom_site_fract_z
O1	O	-1.223879	0.073658	0.120885
O2	O	-0.890546	0.406991	0.454218
O3	O	-0.557212	0.740325	0.787552
O4	O	-0.955402	0.073688	0.135122
O5	O	-0.622069	0.407021	0.468455
O6	O	-0.288735	0.740355	0.801788
O7	O	-1.096759	0.073664	-0.006235
O8	O	-0.763425	0.406998	0.327098
O9	O	-0.430092	0.740331	0.660432
O10	O	-1.082522	0.073682	0.262242
O11	O	-0.749189	0.407015	0.595575
O12	O	-0.415855	0.740348	0.928908
O13	O	-1.096724	-0.073901	-0.006227
O14	O	-0.763390	0.259432	0.327106
O15	O	-0.430057	0.592766	0.660439
O16	O	-0.955367	-0.073877	0.135129
O17	O	-0.622034	0.259456	0.468463
O18	O	-0.288700	0.592789	0.801796
O19	O	-1.223844	-0.073907	0.120893
O20	O	-0.890511	0.259426	0.454226
O21	O	-0.557177	0.592760	0.787560
Zn22	Zn	-1.089600	-0.097321	0.128012
Zn23	Zn	-0.756267	0.236012	0.461346
Zn24	Zn	-0.422933	0.569345	0.794679
Zn25	Zn	-1.089646	0.097102	0.128002
Zn26	Zn	-0.756313	0.430435	0.461335
Zn27	Zn	-0.422979	0.763769	0.794669
O28	O	-1.082487	-0.073883	0.262250
O29	O	-0.749154	0.259450	0.595583
O30	O	-0.415820	0.592783	0.928916
C31	C	-0.921025	-0.000091	0.134462
C32	C	-0.587691	0.333242	0.467795
C33	C	-0.254358	0.666576	0.801129
C34	C	-0.818643	-0.000080	0.132474
C35	C	-0.485310	0.333253	0.465807
C36	C	-0.151977	0.666587	0.799141
C37	C	-0.443748	-0.000117	0.125154
C38	C	-0.110414	0.333216	0.458488
C39	C	0.222919	0.666549	0.791821
C40	C	-0.548056	-0.000107	0.127187
C41	C	-0.214722	0.333227	0.460520
C42	C	0.118611	0.666560	0.793854
C43	C	-0.631192	-0.000098	0.128814
C44	C	-0.297859	0.333235	0.462147
C45	C	0.035474	0.666569	0.795481
C46	C	-0.735507	-0.000089	0.130847
C47	C	-0.402173	0.333245	0.464180
C48	C	-0.068840	0.666578	0.797514
N49	N	-1.089575	-0.230010	0.128019
N50	N	-0.756242	0.103323	0.461352
N51	N	-0.422908	0.436657	0.794686
C52	C	-1.089644	-0.589212	0.127999
C53	C	-0.756311	-0.255878	0.461332
C54	C	-0.422977	0.077455	0.794665
C55	C	-1.013752	-0.551592	0.203381
C56	C	-0.680419	-0.218259	0.536715
C57	C	-0.347085	0.115075	0.870048
C58	C	-1.013927	-0.448766	0.203657
C59	C	-0.680593	-0.115433	0.536991
C60	C	-0.347260	0.217900	0.870324
C61	C	-1.089609	-0.411008	0.128009
C62	C	-0.756276	-0.077674	0.461342
C63	C	-0.422942	0.255659	0.794675
C64	C	-1.185870	-0.448308	0.149184
C65	C	-0.852537	-0.114975	0.482518
C66	C	-0.519203	0.218359	0.815851
C67	C	-1.185445	-0.551166	0.149720
C68	C	-0.852111	-0.217832	0.483054
C69	C	-0.518778	0.115501	0.816387
C70	C	-1.070133	-0.551316	0.031218
C71	C	-0.736800	-0.217982	0.364551
C72	C	-0.403466	0.115351	0.697884
C73	C	-1.067926	-0.448452	0.031859
C74	C	-0.734593	-0.115119	0.365193
C75	C	-0.401259	0.218215	0.698526
C76	C	-1.089595	-0.310294	0.128013
C77	C	-0.756262	0.023039	0.461346
C78	C	-0.422929	0.356372	0.794679
C79	C	-1.089664	-0.689925	0.127997
C80	C	-0.756331	-0.356592	0.461330
C81	C	-0.422997	-0.023258	0.794663
C82	C	-0.258221	-0.000124	0.121553
C83	C	0.075112	0.333209	0.454886
C84	C	0.408446	0.666543	0.788219
C85	C	-0.360602	-0.000123	0.123541
C86	C	-0.027269	0.333211	0.456874
C87	C	0.306064	0.666544	0.790207
C88	C	-1.096078	-0.000118	-0.040591
C89	C	-0.762744	0.333215	0.292742
C90	C	-0.429411	0.666548	0.626076
C91	C	-1.094089	-0.000119	-0.142972
C92	C	-0.760756	0.333215	0.190361
C93	C	-0.427423	0.666548	0.523694
N94	N	-1.089678	0.229791	0.127988
N95	N	-0.756345	0.563124	0.461322
N96	N	-0.423011	0.896458	0.794655
C97	C	-1.086770	-0.000095	-0.517868
C98	C	-0.753437	0.333238	-0.184535
C99	C	-0.420103	0.666572	0.148799
C100	C	-1.088803	-0.000102	-0.413560
C101	C	-0.755469	0.333232	-0.080227
C102	C	-0.422136	0.666565	0.253107
C103	C	-1.090430	-0.000108	-0.330423
C104	C	-0.757096	0.333226	0.002910
C105	C	-0.423763	0.666559	0.336243
C106	C	-1.092463	-0.000113	-0.226109
C107	C	-0.759129	0.333220	0.107224
C108	C	-0.425796	0.666554	0.440558
C109	C	-1.083168	-0.000099	0.296606
C110	C	-0.749835	0.333235	0.629939
C111	C	-0.416501	0.666568	0.963272
C112	C	-1.085156	-0.000093	0.398987
C113	C	-0.751823	0.333241	0.732320
C114	C	-0.418490	0.666574	1.065653
H115	H	-0.942380	-0.423548	0.191017
H116	H	-0.609046	-0.090215	0.524351
H117	H	-0.275713	0.243118	0.857684
H118	H	-1.026402	-0.424149	0.275473
H119	H	-0.693069	-0.090816	0.608807
H120	H	-0.359736	0.242517	0.942140
N121	N	-1.143435	-0.583536	-0.043097
N122	N	-0.810102	-0.250202	0.290236
N123	N	-0.476768	0.083131	0.623570
H124	H	-1.189067	-0.622489	-0.014267
H125	H	-0.855734	-0.289155	0.319067
H126	H	-0.522401	0.044178	0.652400
H127	H	-1.113169	-0.618705	-0.090764
H128	H	-0.779836	-0.285372	0.242569
H129	H	-0.446502	0.047962	0.575902
N130	N	-0.918671	-0.584383	0.186919
N131	N	-0.585337	-0.251049	0.520253
N132	N	-0.252004	0.082284	0.853586
H133	H	-0.871007	-0.559470	0.236045
H134	H	-0.537673	-0.226136	0.569378
H135	H	-0.204340	0.107197	0.902711
H136	H	-0.904061	-0.564317	0.123771
H137	H	-0.570728	-0.230983	0.457104
H138	H	-0.237394	0.102350	0.790438
H139	H	-1.203445	-0.422536	0.218967
H140	H	-0.870112	-0.089203	0.552301
H141	H	-0.536778	0.244130	0.885634
H142	H	-1.026057	-0.577427	0.274793
H143	H	-0.692723	-0.244094	0.608126
H144	H	-0.359390	0.089239	0.941460
H145	H	-1.202614	-0.575145	0.220307
H146	H	-0.869281	-0.241812	0.553640
H147	H	-0.535947	0.091522	0.886973
H148	H	-1.243690	-0.576050	0.096989
H149	H	-0.910357	-0.242717	0.430322
H150	H	-0.577024	0.090617	0.763655
N151	N	-1.262478	-0.415920	0.078402
N152	N	-0.929144	-0.082586	0.411736
N153	N	-0.595811	0.250747	0.745069
H154	H	-1.235456	-0.376660	0.031818
H155	H	-0.902123	-0.043327	0.365151
H156	H	-0.568789	0.290007	0.698485
H157	H	-1.308958	-0.381033	0.110609
H158	H	-0.975625	-0.047699	0.443942
H159	H	-0.642291	0.285634	0.777275
N160	N	-0.979148	-0.585704	0.004306
N161	N	-0.645815	-0.252371	0.337639
N162	N	-0.312482	0.080962	0.670972
H163	H	-0.949654	-0.626204	0.054584
H164	H	-0.616320	-0.292871	0.387917
H165	H	-0.282987	0.040463	0.721251
H166	H	-0.936419	-0.534126	-0.003931
H167	H	-0.603086	-0.200792	0.329402
H168	H	-0.269753	0.132541	0.662736
N169	N	-0.974097	-0.416223	0.010603
N170	N	-0.640764	-0.082890	0.343936
N171	N	-0.307431	0.250443	0.677269
H172	H	-0.945751	-0.377521	0.063025
H173	H	-0.612418	-0.044187	0.396358
H174	H	-0.279084	0.289146	0.729692
H175	H	-0.981349	-0.380798	-0.048795
H176	H	-0.648016	-0.047464	0.284538
H177	H	-0.314683	0.285869	0.617872
N178	N	-1.136376	-0.414426	-0.045950
N179	N	-0.803043	-0.081093	0.287384
N180	N	-0.469710	0.252241	0.620717
H181	H	-1.182620	-0.374077	-0.019859
H182	H	-0.849287	-0.040744	0.313475
H183	H	-0.515954	0.292590	0.646808
H184	H	-1.170003	-0.466181	-0.078541
H185	H	-0.836670	-0.132848	0.254792
H186	H	-0.503336	0.200485	0.588125
