data_functionalizedCrystal
_audit_creation_method	'MofGen! by Chris Wilmer'
_symmetry_space_group_name_H-M	'P1'
_symmetry_Int_Tables_number	1
_symmetry_cell_setting	triclinic
loop_
_symmetry_equiv_pos_as_xyz
  x,y,z
_cell_length_a	19.121102
_cell_length_b	19.121063
_cell_length_c	19.120904
_cell_angle_alpha	85.258387
_cell_angle_beta	89.911827
_cell_angle_gamma	90.126902
loop_
_atom_site_label
_atom_site_type_symbol
_atom_site_fract_x
_atom_site_fract_y
_atom_site_fract_z
Zn1	Zn	1.039579	-0.343506	0.456040
Zn2	Zn	1.372913	-0.010172	0.789373
Zn3	Zn	1.706246	0.323161	1.122706
Zn4	Zn	1.039493	-0.456149	0.343386
Zn5	Zn	1.372826	-0.122815	0.676720
Zn6	Zn	1.706159	0.210518	1.010053
Zn7	Zn	0.927792	-0.333518	0.333417
Zn8	Zn	1.261125	-0.000184	0.666750
Zn9	Zn	1.594459	0.333149	1.000084
Zn10	Zn	0.917325	-0.455677	0.455570
Zn11	Zn	1.250658	-0.122343	0.788903
Zn12	Zn	1.583992	0.210990	1.122236
O13	O	0.981047	-0.397212	0.397103
O14	O	1.314381	-0.063879	0.730436
O15	O	1.647714	0.269454	1.063770
O16	O	1.137479	-0.362826	0.445465
O17	O	1.470812	-0.029492	0.778798
O18	O	1.804145	0.303841	1.112131
O19	O	1.029020	-0.435899	0.243797
O20	O	1.362353	-0.102566	0.577130
O21	O	1.695686	0.230768	0.910464
O22	O	0.947038	-0.236577	0.345708
O23	O	1.280371	0.096756	0.679041
O24	O	1.613704	0.430090	1.012374
O25	O	1.137415	-0.445584	0.362699
O26	O	1.470748	-0.112251	0.696032
O27	O	1.804082	0.221083	1.029366
O28	O	1.029167	-0.243915	0.435798
O29	O	1.362501	0.089418	0.769131
O30	O	1.695834	0.422752	1.102465
O31	O	0.946954	-0.345802	0.236473
O32	O	1.280287	-0.012469	0.569806
O33	O	1.613620	0.320864	0.903139
O34	O	0.828493	-0.345345	0.345252
O35	O	1.161826	-0.012011	0.678585
O36	O	1.495159	0.321322	1.011919
O37	O	0.929198	-0.444780	0.553899
O38	O	1.262532	-0.111446	0.887232
O39	O	1.595865	0.221887	1.220566
O40	O	0.820803	-0.435094	0.434997
O41	O	1.154136	-0.101761	0.768330
O42	O	1.487469	0.231572	1.101663
O43	O	1.019018	-0.362368	0.554244
O44	O	1.352351	-0.029035	0.887577
O45	O	1.685684	0.304299	1.220911
O46	O	1.018870	-0.554352	0.362243
O47	O	1.352204	-0.221018	0.695577
O48	O	1.685537	0.112315	1.028910
O49	O	0.929114	-0.554005	0.444664
O50	O	1.262448	-0.220672	0.777997
O51	O	1.595781	0.112662	1.111330
C52	C	0.972865	-0.579659	0.404501
C53	C	1.306199	-0.246326	0.737834
C54	C	1.639532	0.087008	1.071167
C55	C	0.969428	-0.657714	0.407691
C56	C	1.302761	-0.324381	0.741025
C57	C	1.636095	0.008952	1.074358
C58	C	0.799261	-0.389085	0.388992
C59	C	1.132594	-0.055752	0.722325
C60	C	1.465927	0.277582	1.055659
C61	C	0.721490	-0.385626	0.385539
C62	C	1.054823	-0.052292	0.718873
C63	C	1.388157	0.281041	1.052206
C64	C	1.014577	-0.694545	0.366317
C65	C	1.347911	-0.361212	0.699651
C66	C	1.681244	-0.027879	1.032984
C67	C	1.011348	-0.767887	0.369323
C68	C	1.344682	-0.434554	0.702656
C69	C	1.678015	-0.101220	1.035990
C70	C	0.962966	-0.804396	0.413699
C71	C	1.296300	-0.471063	0.747032
C72	C	1.629633	-0.137729	1.080366
C73	C	0.917815	-0.767560	0.455078
C74	C	1.251148	-0.434227	0.788411
C75	C	1.584482	-0.100893	1.121744
C76	C	0.921048	-0.694220	0.452076
C77	C	1.254381	-0.360887	0.785409
C78	C	1.587714	-0.027553	1.118742
C79	C	0.950869	-1.025828	0.424912
C80	C	1.284202	-0.692494	0.758245
C81	C	1.617536	-0.359161	1.091579
C82	C	0.947638	-1.099173	0.427909
C83	C	1.280972	-0.765839	0.761243
C84	C	1.614305	-0.432506	1.094576
C85	C	1.041173	-1.099494	0.342155
C86	C	1.374507	-0.766161	0.675488
C87	C	1.707840	-0.432828	1.008822
C88	C	1.044399	-1.026153	0.339154
C89	C	1.377732	-0.692819	0.672487
C90	C	1.711065	-0.359486	1.005820
C91	C	0.999250	-0.989323	0.380535
C92	C	1.332583	-0.655990	0.713869
C93	C	1.665917	-0.322657	1.047202
C94	C	0.959663	-0.879363	0.416770
C95	C	1.292997	-0.546029	0.750104
C96	C	1.626330	-0.212696	1.083437
C97	C	1.002557	-0.914358	0.377467
C98	C	1.335890	-0.581025	0.710800
C99	C	1.669224	-0.247692	1.044134
C100	C	0.680968	-0.430793	0.430575
C101	C	1.014301	-0.097460	0.763908
C102	C	1.347634	0.235873	1.097242
C103	C	0.607894	-0.427534	0.427334
C104	C	0.941228	-0.094201	0.760667
C105	C	1.274561	0.239133	1.094000
C106	C	0.575344	-0.379110	0.379053
C107	C	0.908677	-0.045776	0.712386
C108	C	1.242011	0.287557	1.045720
C109	C	0.615872	-0.333937	0.334016
C110	C	0.949205	-0.000604	0.667349
C111	C	1.282538	0.332729	1.000682
C112	C	0.688944	-0.337194	0.337261
C113	C	1.022277	-0.003860	0.670594
C114	C	1.355611	0.329473	1.003927
C115	C	0.354913	-0.366933	0.366924
C116	C	0.688246	-0.033599	0.700257
C117	C	1.021579	0.299734	1.033591
C118	C	0.281835	-0.363681	0.363681
C119	C	0.615169	-0.030348	0.697014
C120	C	0.948502	0.302986	1.030348
C121	C	0.273863	-0.457277	0.457000
C122	C	0.607196	-0.123944	0.790334
C123	C	0.940529	0.209389	1.123667
C124	C	0.346937	-0.460532	0.460238
C125	C	0.680270	-0.127199	0.793572
C126	C	1.013603	0.206134	1.126905
C127	C	0.387458	-0.415357	0.415203
C128	C	0.720791	-0.082024	0.748537
C129	C	1.054124	0.251309	1.081870
C130	C	0.500651	-0.375778	0.375738
C131	C	0.833985	-0.042445	0.709071
C132	C	1.167318	0.290888	1.042404
C133	C	0.462149	-0.418686	0.418523
C134	C	0.795483	-0.085353	0.751856
C135	C	1.128816	0.247981	1.085190
C136	C	1.163544	-0.405372	0.405246
C137	C	1.496877	-0.072038	0.738580
C138	C	1.830211	0.261295	1.071913
C139	C	1.241313	-0.408849	0.408717
C140	C	1.574646	-0.075515	0.742050
C141	C	1.907980	0.257818	1.075383
C142	C	0.972950	-0.404635	0.580263
C143	C	1.306283	-0.071302	0.913597
C144	C	1.639617	0.262031	1.246930
C145	C	0.969500	-0.407799	0.658315
C146	C	1.302833	-0.074465	0.991649
C147	C	1.636166	0.258868	1.324982
C148	C	0.989280	-0.214054	0.389693
C149	C	1.322613	0.119279	0.723026
C150	C	1.655946	0.452612	1.056360
C151	C	0.992788	-0.136003	0.386535
C152	C	1.326121	0.197330	0.719869
C153	C	1.659454	0.530663	1.053202
C154	C	0.989156	-0.389769	0.214655
C155	C	1.322489	-0.056436	0.547988
C156	C	1.655822	0.276898	0.881322
C157	C	0.992751	-0.386414	0.136602
C158	C	1.326084	-0.053081	0.469935
C159	C	1.659417	0.280253	0.803268
C160	C	1.014640	-0.366379	0.695165
C161	C	1.347974	-0.033046	1.028499
C162	C	1.681307	0.300287	1.361832
C163	C	1.011390	-0.369348	0.768503
C164	C	1.344723	-0.036015	1.101836
C165	C	1.678056	0.297318	1.435170
C166	C	0.963001	-0.413741	0.804990
C167	C	1.296335	-0.080408	1.138323
C168	C	1.629668	0.252926	1.471656
C169	C	0.917856	-0.455162	0.768135
C170	C	1.251189	-0.121828	1.101468
C171	C	1.584522	0.211505	1.434801
C172	C	0.921103	-0.452188	0.694798
C173	C	1.254437	-0.118855	1.028131
C174	C	1.587770	0.214478	1.361465
C175	C	0.950853	-0.424862	1.026410
C176	C	1.284186	-0.091528	1.359743
C177	C	1.617519	0.241805	1.693076
C178	C	0.947610	-0.427833	1.099752
C179	C	1.280943	-0.094500	1.433085
C180	C	1.614276	0.238833	1.766418
C181	C	1.041143	-0.342019	1.100115
C182	C	1.374477	-0.008685	1.433448
C183	C	1.707810	0.324648	1.766782
C184	C	1.044390	-0.339052	1.026777
C185	C	1.377723	-0.005719	1.360110
C186	C	1.711056	0.327614	1.693444
C187	C	0.999242	-0.380470	0.989928
C188	C	1.332575	-0.047137	1.323261
C189	C	1.665908	0.286196	1.656595
C190	C	0.959679	-0.416779	0.879953
C191	C	1.293012	-0.083445	1.213286
C192	C	1.626346	0.249888	1.546619
C193	C	1.002561	-0.377429	0.914966
C194	C	1.335894	-0.044095	1.248299
C195	C	1.669228	0.289238	1.581633
H196	H	1.053972	-0.664824	0.330178
H197	H	1.387306	-0.331491	0.663512
H198	H	1.720639	0.001843	0.996845
H199	H	0.884338	-0.485909	0.664795
H200	H	1.217671	-0.152576	0.998128
H201	H	1.551005	0.180758	1.331462
H202	H	1.083795	-0.996429	0.303019
H203	H	1.417129	-0.663095	0.636353
H204	H	1.750462	-0.329762	0.969686
H205	H	1.041956	-0.341281	0.885255
H206	H	1.375289	-0.007948	1.218589
H207	H	1.708622	0.325385	1.551922
H208	H	0.707464	-0.470228	0.469888
H209	H	1.040798	-0.136895	0.803221
H210	H	1.374131	0.196439	1.136555
Cl211	Cl	0.387851	-0.521413	0.520935
Cl212	Cl	0.721184	-0.188080	0.854268
Cl213	Cl	1.054518	0.145254	1.187601
H214	H	1.077899	-0.308298	1.130125
H215	H	1.411233	0.025036	1.463458
H216	H	1.744566	0.358369	1.796792
H217	H	1.077932	-1.129489	0.308466
H218	H	1.411265	-0.796155	0.641799
H219	H	1.744598	-0.462822	0.975133
H220	H	1.054046	-0.330232	0.665463
H221	H	1.387379	0.003101	0.998797
H222	H	1.720712	0.336434	1.332130
H223	H	0.920284	-0.452927	0.909669
H224	H	1.253617	-0.119593	1.243002
H225	H	1.586951	0.213740	1.576335
H226	H	0.488655	-0.458110	0.457836
H227	H	0.821988	-0.124776	0.791169
H228	H	1.155321	0.208557	1.124502
H229	H	1.048150	-0.335622	0.798503
H230	H	1.381483	-0.002289	1.131836
H231	H	1.714816	0.331045	1.465170
Cl232	Cl	0.886770	-0.483641	1.145620
Cl233	Cl	1.220104	-0.150308	1.478953
Cl234	Cl	1.553437	0.183025	1.812286
H235	H	1.048113	-0.797871	0.335631
H236	H	1.381447	-0.464538	0.668964
H237	H	1.714780	-0.131205	1.002298
Cl238	Cl	0.886802	-1.145068	0.483691
Cl239	Cl	1.220135	-0.811735	0.817025
Cl240	Cl	1.553469	-0.478402	1.150358
Cl241	Cl	1.105224	-0.283243	0.980913
Cl242	Cl	1.438557	0.050091	1.314247
Cl243	Cl	1.771890	0.383424	1.647580
Cl244	Cl	0.222918	-0.514066	0.513611
Cl245	Cl	0.556251	-0.180732	0.846944
Cl246	Cl	0.889585	0.152601	1.180278
H247	H	0.255336	-0.324240	0.324369
H248	H	0.588669	0.009093	0.657703
H249	H	0.922002	0.342426	0.991036
Cl250	Cl	0.556955	-0.484319	0.483953
Cl251	Cl	0.890288	-0.150986	0.817286
Cl252	Cl	1.223621	0.182348	1.150619
H253	H	0.914106	-0.995847	0.458605
H254	H	1.247439	-0.662513	0.791938
H255	H	1.580773	-0.329180	1.125272
Cl256	Cl	0.405844	-0.310139	0.310310
Cl257	Cl	0.739178	0.023194	0.643643
Cl258	Cl	1.072511	0.356528	0.976977
H259	H	0.920269	-0.909097	0.452900
H260	H	1.253602	-0.575763	0.786234
H261	H	1.586936	-0.242430	1.119567
H262	H	1.041952	-0.884631	0.341339
H263	H	1.375286	-0.551297	0.674672
H264	H	1.708619	-0.217964	1.008005
H265	H	0.721937	-0.300410	0.300591
H266	H	1.055270	0.032923	0.633925
H267	H	1.388603	0.366257	0.967258
H268	H	0.914100	-0.458598	0.996417
H269	H	1.247433	-0.125265	1.329750
H270	H	1.580766	0.208069	1.663084
Cl271	Cl	0.856995	-0.813458	0.510870
Cl272	Cl	1.190329	-0.480124	0.844203
Cl273	Cl	1.523662	-0.146791	1.177536
H274	H	0.884283	-0.664233	0.485768
H275	H	1.217617	-0.330900	0.819101
H276	H	1.550950	0.002434	1.152434
Cl277	Cl	0.574952	-0.273056	0.273324
Cl278	Cl	0.908285	0.060277	0.606657
Cl279	Cl	1.241618	0.393610	0.939991
Cl280	Cl	0.459725	-0.314904	0.315044
Cl281	Cl	0.793058	0.018430	0.648377
Cl282	Cl	1.126392	0.351763	0.981711
H283	H	0.878454	-0.491305	0.797848
H284	H	1.211788	-0.157971	1.131181
H285	H	1.545121	0.175362	1.464514
