data_functionalizedCrystal
_audit_creation_method	'MofGen! by Chris Wilmer'
_symmetry_space_group_name_H-M	'P1'
_symmetry_Int_Tables_number	1
_symmetry_cell_setting	triclinic
loop_
_symmetry_equiv_pos_as_xyz
  x,y,z
_cell_length_a	15.995350
_cell_length_b	18.366186
_cell_length_c	15.995362
_cell_angle_alpha	90.000851
_cell_angle_beta	96.505123
_cell_angle_gamma	89.994601
loop_
_atom_site_label
_atom_site_type_symbol
_atom_site_fract_x
_atom_site_fract_y
_atom_site_fract_z
O1	O	1.110996	-0.060479	-0.107927
O2	O	0.867221	-0.060493	-0.121255
O3	O	0.995767	-0.060491	0.007296
O4	O	0.982450	-0.060481	-0.236478
O5	O	0.995745	0.060609	0.007302
O6	O	0.867199	0.060606	-0.121248
O7	O	1.110974	0.060620	-0.107921
Zn8	Zn	0.989083	0.079840	-0.114584
Zn9	Zn	0.989112	-0.079713	-0.114592
O10	O	0.982428	0.060618	-0.236471
C11	C	0.836015	0.000055	-0.120700
C12	C	0.743065	0.000049	-0.119049
N13	N	0.989069	0.188732	-0.114577
N14	N	0.989132	-0.188604	-0.114592
C15	C	0.405317	0.000064	-0.113116
C16	C	0.452747	0.000330	-0.021565
C17	C	0.549437	0.000053	-0.023217
C18	C	0.572878	0.000057	-0.116059
C19	C	0.531805	-0.069092	-0.161219
C20	C	0.435169	-0.069145	-0.158919
C21	C	0.434806	0.068568	-0.160803
C22	C	0.531751	0.069477	-0.160782
C23	C	0.667575	0.000051	-0.117727
C24	C	0.310619	0.000065	-0.111451
C25	C	1.142179	0.000071	-0.108475
C26	C	1.235130	0.000072	-0.110127
C27	C	0.995203	0.000056	0.038494
C28	C	0.993548	0.000047	0.131444
C29	C	1.046008	0.226833	-0.057683
C30	C	1.046013	0.303061	-0.057679
C31	C	0.989088	0.341184	-0.114584
C32	C	0.932139	0.303074	-0.171483
C33	C	0.932129	0.226847	-0.171479
C34	C	0.978121	0.461947	-0.190840
C35	C	0.978137	0.538172	-0.190845
C36	C	0.989112	0.576292	-0.114595
C37	C	1.000090	0.538177	-0.038337
C38	C	1.000081	0.461951	-0.038333
C39	C	0.989091	0.423839	-0.114594
C40	C	1.046059	0.697048	-0.057692
C41	C	1.046059	0.773277	-0.057687
C42	C	0.932188	0.773289	-0.171498
C43	C	0.932185	0.697061	-0.171495
C44	C	0.989125	0.658945	-0.114593
C45	C	0.987600	0.000033	0.469189
C46	C	0.896051	-0.000242	0.421755
C47	C	0.897707	0.000036	0.325066
C48	C	0.990550	0.000040	0.301630
C49	C	1.035693	0.069193	0.342711
C50	C	1.033389	0.069246	0.439346
C51	C	1.035305	-0.068467	0.439697
C52	C	1.035287	-0.069376	0.342752
C53	C	0.992222	0.000046	0.206933
C54	C	0.985931	0.000032	0.563886
C55	C	0.982980	0.000058	0.732329
C56	C	0.984603	0.000026	0.639375
H57	H	0.577856	0.049621	0.012281
H58	H	0.885823	0.666037	-0.217827
H59	H	0.560187	-0.120557	-0.129858
H60	H	1.009017	0.430921	0.023759
H61	H	0.969169	0.430916	-0.252937
H62	H	1.100603	0.072384	0.471594
H63	H	0.433161	-0.048988	0.014859
H64	H	1.009027	0.569213	0.023754
O65	O	0.550179	0.074565	-0.241511
C66	C	0.593707	0.140113	-0.251883
H67	H	0.625096	0.159381	-0.188183
H68	H	0.643724	0.130635	-0.296133
H69	H	0.547502	0.183326	-0.279718
O70	O	0.396838	0.069031	-0.241300
C71	C	0.343905	0.007751	-0.254531
H72	H	0.325636	-0.012166	-0.191587
H73	H	0.284765	0.023320	-0.297391
H74	H	0.378509	-0.037452	-0.285314
H75	H	1.102993	-0.073549	0.327390
O76	O	0.430517	0.059510	0.021992
C77	C	0.371762	0.101598	-0.029688
H78	H	0.338655	0.065769	-0.081447
H79	H	0.323305	0.125221	0.009835
H80	H	0.405814	0.147834	-0.059242
O81	O	0.996109	-0.130465	0.310158
C82	C	1.053736	-0.173202	0.271035
H83	H	1.120601	-0.159230	0.298818
H84	H	1.041044	-0.233316	0.282093
H85	H	1.046163	-0.161622	0.200561
O86	O	0.582770	-0.059219	0.019286
C87	C	0.624360	-0.103102	-0.035364
H88	H	0.642681	-0.068515	-0.089597
H89	H	0.683382	-0.127475	0.000611
H90	H	0.580651	-0.148801	-0.061297
H91	H	0.402924	-0.072280	-0.226135
O92	O	1.101343	0.189922	-0.002324
C93	C	1.151614	0.239903	0.047881
H94	H	1.117294	0.294247	0.048841
H95	H	1.164386	0.217884	0.114744
H96	H	1.213812	0.247996	0.020655
H97	H	1.092381	0.334089	-0.011347
O98	O	0.852274	-0.059324	0.443873
C99	C	0.780467	-0.036125	0.480129
H100	H	0.763049	0.021436	0.457860
H101	H	0.725790	-0.074485	0.460230
H102	H	0.794496	-0.036565	0.551614
H103	H	0.416869	-0.120839	-0.125992
O104	O	0.548769	-0.072070	-0.242561
C105	C	0.598119	-0.011487	-0.259905
H106	H	0.632620	0.010144	-0.198661
H107	H	0.645896	-0.028596	-0.303894
H108	H	0.555748	0.032979	-0.291186
H109	H	0.969203	0.569199	-0.252939
H110	H	0.414259	0.120981	-0.130870
O111	O	1.101291	0.810404	-0.002447
C112	C	1.089102	0.885858	-0.014660
H113	H	1.022535	0.896277	-0.045910
H114	H	1.098426	0.914828	0.048744
H115	H	1.136489	0.907482	-0.056689
O116	O	1.101393	0.660130	-0.002333
C117	C	1.151660	0.710110	0.047878
H118	H	1.117337	0.764451	0.048843
H119	H	1.164430	0.688085	0.114739
H120	H	1.213858	0.718207	0.020656
H121	H	0.885835	0.804328	-0.217828
O122	O	0.564433	0.130436	-0.121381
C123	C	0.624192	0.110444	-0.053637
H124	H	0.649010	0.053546	-0.065088
H125	H	0.678570	0.150916	-0.048245
H126	H	0.593321	0.110704	0.007201
H127	H	1.005380	-0.120883	0.460233
O128	O	0.876808	0.340185	-0.226646
C129	C	0.825151	0.384277	-0.181774
H130	H	0.858502	0.395694	-0.116274
H131	H	0.811913	0.437881	-0.216717
H132	H	0.763267	0.354914	-0.176045
O133	O	0.876789	0.189945	-0.226834
C134	C	0.826526	0.239935	-0.277044
H135	H	0.860855	0.294268	-0.278011
H136	H	0.813750	0.217910	-0.343904
H137	H	0.764330	0.248050	-0.249819
O138	O	0.855444	-0.059179	0.291266
C139	C	0.894307	-0.123076	0.325610
H140	H	0.931373	-0.110028	0.388959
H141	H	0.844140	-0.165534	0.334688
H142	H	0.938834	-0.145333	0.280958
O143	O	0.852441	0.058530	0.445063
C144	C	0.770496	0.057566	0.402017
H145	H	0.753283	-0.000477	0.381492
H146	H	0.723928	0.078199	0.445503
H147	H	0.768015	0.094196	0.344249
O148	O	0.854957	0.059198	0.291766
C149	C	0.787006	0.036184	0.233937
H150	H	0.769194	-0.022021	0.249222
H151	H	0.730786	0.073572	0.238387
H152	H	0.806088	0.038394	0.167440
H153	H	1.000450	0.120938	0.457650
H154	H	1.103902	0.071767	0.328585
H155	H	1.102804	-0.068931	0.471457
H156	H	1.004321	0.120655	0.314332
