data_functionalizedCrystal
_audit_creation_method	'MofGen! by Chris Wilmer'
_symmetry_space_group_name_H-M	'P1'
_symmetry_Int_Tables_number	1
_symmetry_cell_setting	triclinic
loop_
_symmetry_equiv_pos_as_xyz
  x,y,z
_cell_length_a	16.109302
_cell_length_b	19.188930
_cell_length_c	15.186229
_cell_angle_alpha	89.995250
_cell_angle_beta	89.992224
_cell_angle_gamma	83.303281
loop_
_atom_site_label
_atom_site_type_symbol
_atom_site_fract_x
_atom_site_fract_y
_atom_site_fract_z
O1	O	1.102836	0.089742	-0.073278
O2	O	0.860738	0.100910	-0.073273
O3	O	0.988773	-0.006313	-0.073258
O4	O	0.974801	0.196965	-0.073292
O5	O	0.988758	-0.006306	0.073199
O6	O	0.860722	0.100917	0.073185
O7	O	1.102821	0.089749	0.073179
Zn8	Zn	0.981769	0.095335	0.096435
Zn9	Zn	0.981790	0.095325	-0.096529
O10	O	0.974785	0.196973	0.073165
C11	C	0.829756	0.100461	-0.000043
C12	C	0.737466	0.099105	-0.000040
C13	C	0.525126	0.095972	0.079786
C14	C	0.438411	0.094690	0.079783
C15	C	0.438438	0.094685	-0.079893
C16	C	0.525153	0.095962	-0.079889
C17	C	0.568495	0.096609	-0.000047
C18	C	0.395064	0.094050	-0.000054
C19	C	0.301043	0.092660	-0.000058
C20	C	0.662522	0.097998	-0.000043
C21	C	0.988313	-0.032322	-0.000027
C22	C	0.986955	-0.109830	-0.000020
C23	C	1.062082	-0.154578	-0.000017
C24	C	1.060806	-0.227404	-0.000031
C25	C	0.984398	-0.255480	-0.000030
C26	C	0.909261	-0.210722	-0.000037
C27	C	0.910539	-0.137897	-0.000032
N28	N	0.925988	-0.363619	0.049814
N29	N	0.924779	-0.432800	0.049810
C30	C	0.980542	-0.474897	-0.000048
N31	N	1.037573	-0.445201	-0.049892
N32	N	1.038785	-0.376014	-0.049885
C33	C	0.983004	-0.334446	-0.000036
C34	C	1.054291	-0.598613	-0.000062
C35	C	1.053012	-0.671441	-0.000081
C36	C	0.901465	-0.654757	-0.000079
C37	C	0.902746	-0.581931	-0.000068
C38	C	0.979162	-0.553864	-0.000055
C39	C	1.133802	0.090198	-0.000052
C40	C	1.226093	0.091555	-0.000061
C41	C	0.975245	0.222981	-0.000068
C42	C	0.976604	0.300489	-0.000082
N43	N	0.981761	0.095341	0.228128
C44	C	1.032043	0.137692	0.453842
C45	C	1.032052	0.137687	0.546032
C46	C	0.931515	0.052967	0.546058
C47	C	0.931511	0.052968	0.453870
C48	C	0.981774	0.095334	0.407764
C49	C	0.981786	0.095329	0.592142
C50	C	0.981795	0.095324	0.692098
C51	C	0.981766	0.095338	0.307802
N52	N	0.981799	0.095322	0.771779
H53	H	1.124305	-0.131731	-0.000010
O54	O	0.829711	-0.538530	-0.000177
C55	C	0.783320	-0.551231	-0.076039
H56	H	0.803940	-0.606475	-0.101333
H57	H	0.794547	-0.511393	-0.129150
C58	C	0.664298	-0.476440	-0.021928
C59	C	0.689619	-0.544295	-0.052991
H60	H	0.606499	-0.472159	-0.007713
H61	H	0.695554	-0.467881	0.029181
H62	H	0.673661	-0.443250	-0.066192
H63	H	0.680266	-0.577483	-0.008723
H64	H	0.658360	-0.552859	-0.104092
H65	H	1.072970	0.172189	0.416305
O66	O	1.133864	-0.270784	0.000013
C67	C	1.201583	-0.230394	-0.000001
H68	H	1.180280	-0.176038	0.027727
H69	H	1.225032	-0.225211	-0.070261
C70	C	1.298822	-0.333466	0.023385
C71	C	1.272658	-0.266706	0.057447
H72	H	1.342666	-0.355866	0.058818
H73	H	1.253199	-0.360678	0.023391
H74	H	1.318357	-0.329137	-0.035165
H75	H	1.253114	-0.271037	0.115992
H76	H	1.318280	-0.239496	0.057452
H77	H	0.403139	0.094159	-0.144897
H78	H	0.560465	0.096479	-0.144903
H79	H	0.847049	-0.233585	-0.000038
O80	O	0.567337	0.096501	0.157284
C81	C	0.627118	0.036798	0.162078
H82	H	0.643335	0.016843	0.092763
H83	H	0.600440	-0.006013	0.201476
C84	C	0.686636	0.080876	0.292861
C85	C	0.706558	0.056370	0.207726
H86	H	0.735637	0.092947	0.321022
H87	H	0.646358	0.121098	0.289634
H88	H	0.664403	0.045196	0.325681
H89	H	0.728781	0.092052	0.174904
H90	H	0.746842	0.016154	0.210949
H91	H	1.072987	0.172178	0.583544
O92	O	0.882708	0.011883	0.590981
C93	C	0.893452	0.020990	0.682231
H94	H	0.916929	0.073892	0.694797
H95	H	0.940979	-0.022768	0.708436
C96	C	0.780438	-0.046391	0.714099
C97	C	0.809266	0.018587	0.729534
H98	H	0.728509	-0.047876	0.743279
H99	H	0.773201	-0.052529	0.652623
H100	H	0.820052	-0.082849	0.735937
H101	H	0.769657	0.055043	0.707686
H102	H	0.816494	0.024731	0.791008
H103	H	0.849360	-0.101462	-0.000034
O104	O	1.128590	-0.571459	-0.000104
C105	C	1.194628	-0.626577	-0.000096
H106	H	1.171504	-0.676041	-0.027824
H107	H	1.217790	-0.636895	0.070163
C108	C	1.295115	-0.545275	-0.023482
C109	C	1.266715	-0.606026	-0.057546
H110	H	1.339584	-0.532599	-0.058916
H111	H	1.250625	-0.508141	-0.023485
H112	H	1.314411	-0.553882	0.035067
H113	H	1.247410	-0.597417	-0.116089
H114	H	1.311204	-0.643159	-0.057554
O115	O	0.882599	0.011801	0.409241
C116	C	0.838247	-0.025602	0.469701
H117	H	0.833287	0.003299	0.535415
H118	H	0.872698	-0.080398	0.479505
C119	C	0.756052	-0.066973	0.353022
C120	C	0.749955	-0.031473	0.433731
H121	H	0.701590	-0.070598	0.330834
H122	H	0.785935	-0.041776	0.312288
H123	H	0.784765	-0.112633	0.361203
H124	H	0.721252	0.014189	0.425548
H125	H	0.720065	-0.056662	0.474463
H126	H	0.839252	-0.677615	-0.000082
O127	O	0.396406	0.094106	0.157411
C128	C	0.453262	0.094932	0.227877
H129	H	0.511554	0.117934	0.204470
H130	H	0.471411	0.039089	0.252434
C131	C	0.340512	0.111944	0.332047
C132	C	0.412105	0.140201	0.303299
H133	H	0.315124	0.139865	0.378573
H134	H	0.302207	0.111385	0.284574
H135	H	0.355646	0.065409	0.352505
H136	H	0.396968	0.186732	0.282831
H137	H	0.450407	0.140769	0.350771
O138	O	1.125974	-0.714940	-0.000239
C139	C	1.129774	-0.757564	-0.076086
H140	H	1.087170	-0.730877	-0.129101
H141	H	1.108449	-0.810520	-0.058948
C142	C	1.272613	-0.801416	-0.045362
C143	C	1.220291	-0.768636	-0.110478
H144	H	1.328448	-0.808250	-0.066575
H145	H	1.270052	-0.772702	0.005740
H146	H	1.254831	-0.845543	-0.031086
H147	H	1.238066	-0.724508	-0.124745
H148	H	1.222857	-0.797344	-0.161584
