data_functionalizedCrystal
_audit_creation_method	'MofGen! by Chris Wilmer'
_symmetry_space_group_name_H-M	'P1'
_symmetry_Int_Tables_number	1
_symmetry_cell_setting	triclinic
loop_
_symmetry_equiv_pos_as_xyz
  x,y,z
_cell_length_a	12.827893
_cell_length_b	12.645330
_cell_length_c	12.827885
_cell_angle_alpha	90.031113
_cell_angle_beta	90.019272
_cell_angle_gamma	90.012807
loop_
_atom_site_label
_atom_site_type_symbol
_atom_site_fract_x
_atom_site_fract_y
_atom_site_fract_z
Zn1	Zn	1.597690	-0.421983	0.590839
Zn2	Zn	1.597592	-0.599284	0.416095
Zn3	Zn	1.422931	-0.422036	0.416113
Zn4	Zn	1.422925	-0.599206	0.590795
O5	O	1.510284	-0.510627	0.503461
O6	O	1.743913	-0.445514	0.567670
O7	O	1.574385	-0.575826	0.269861
O8	O	1.446157	-0.273681	0.439316
O9	O	1.743841	-0.575776	0.439286
O10	O	1.574551	-0.273643	0.567687
O11	O	1.446062	-0.445603	0.269874
O12	O	1.276694	-0.445527	0.439274
O13	O	1.446146	-0.575642	0.737037
O14	O	1.276689	-0.575693	0.567612
O15	O	1.574545	-0.445438	0.737069
O16	O	1.574379	-0.747621	0.439244
O17	O	1.446051	-0.747563	0.567595
C18	C	1.238774	-0.510608	0.503441
C19	C	1.122621	-0.510625	0.503457
C20	C	1.070872	-0.446281	0.567084
C21	C	0.950821	-0.446298	0.567102
C22	C	1.510232	-0.786057	0.503436
C23	C	1.510305	-0.903887	0.503460
C24	C	1.590906	-1.071443	0.422551
C25	C	1.591169	-0.948883	0.422749
C26	C	1.540172	-0.948261	0.613614
C27	C	1.540811	-1.070859	0.613184
C28	C	1.399806	-1.071217	0.475302
C29	C	1.400335	-0.948613	0.472832
C30	C	1.782854	-0.510648	0.503481
C31	C	1.899007	-0.510656	0.503490
C32	C	1.510355	-0.510525	0.776031
C33	C	1.510386	-0.510482	0.892184
C34	C	1.510365	-0.234122	0.503508
C35	C	1.510400	-0.116292	0.503529
C36	C	1.510274	-0.510652	0.231951
C37	C	1.510446	-0.510397	0.115798
C38	C	1.573929	-0.446040	0.943985
C39	C	1.573961	-0.445994	1.064035
H40	H	0.906318	-0.391214	0.621579
O41	O	1.373599	-0.913893	0.376135
C42	C	1.453966	-0.849488	0.336279
H43	H	1.501887	-0.816112	0.403539
H44	H	1.418533	-0.781674	0.289694
H45	H	1.506463	-0.898596	0.283378
O46	O	1.688812	-0.913657	0.445153
C47	C	1.686029	-0.851951	0.536688
H48	H	1.603863	-0.819873	0.548722
H49	H	1.743023	-0.783212	0.529026
H50	H	1.708952	-0.902870	0.606331
O51	O	1.638764	-0.380202	1.117332
C52	C	1.624382	-0.394814	1.225330
H53	H	1.543717	-0.429540	1.240121
H54	H	1.631462	-0.315430	1.266898
H55	H	1.686334	-0.451284	1.256302
H56	H	1.572454	-1.101002	0.340634
O57	O	1.445687	-0.576275	1.062551
C58	C	1.505209	-0.644731	0.999431
H59	H	1.584425	-0.607338	0.983203
H60	H	1.462693	-0.658893	0.922627
H61	H	1.516639	-0.723315	1.041419
O62	O	1.688044	-1.108165	0.444732
C63	C	1.683561	-1.174272	0.533092
H64	H	1.611605	-1.153787	0.581155
H65	H	1.756486	-1.162112	0.582483
H66	H	1.678969	-1.260372	0.507089
H67	H	1.337116	-0.917994	0.527488
H68	H	1.078049	-0.565721	0.448995
H69	H	1.372646	-1.102232	0.396377
O70	O	1.124197	-0.380644	0.632024
C71	C	1.232190	-0.395227	0.617535
H72	H	1.246969	-0.477008	0.583155
H73	H	1.273786	-0.388162	0.695778
H74	H	1.263143	-0.332304	0.561959
O75	O	0.952199	-0.576434	0.438643
C76	C	1.015336	-0.644927	0.498072
H77	H	1.031621	-0.607617	0.577343
H78	H	1.092111	-0.659003	0.455542
H79	H	0.973332	-0.723545	0.509388
H80	H	1.339822	-1.100220	0.534282
O81	O	1.637251	-1.104753	0.641845
C82	C	1.660502	-1.066992	0.742644
H83	H	1.611438	-0.993840	0.759655
H84	H	1.746715	-1.045611	0.747329
H85	H	1.642155	-1.130989	0.802456
H86	H	1.572482	-0.918886	0.341071
O87	O	1.474036	-1.106387	0.687679
C88	C	1.529272	-1.168008	0.760728
H89	H	1.603436	-1.199809	0.723142
H90	H	1.478468	-1.236938	0.787154
H91	H	1.550574	-1.117106	0.830957
O92	O	1.472497	-0.913469	0.687650
C93	C	1.527353	-0.855293	0.763752
H94	H	1.612822	-0.879961	0.763270
H95	H	1.492440	-0.871619	0.843857
H96	H	1.521155	-0.767259	0.745669
O97	O	1.638660	-0.380210	0.890756
C98	C	1.579112	-0.311799	0.827646
H99	H	1.499885	-0.349198	0.811393
H100	H	1.621591	-0.297702	0.750853
H101	H	1.567709	-0.233181	0.869655
O102	O	1.445412	-0.576298	0.945134
C103	C	1.386344	-0.636246	0.873662
H104	H	1.382646	-0.592928	0.795836
H105	H	1.304043	-0.647509	0.905272
H106	H	1.424577	-0.716776	0.862083
H107	H	1.620097	-0.917471	0.637922
