data_functionalizedCrystal
_audit_creation_method	'MofGen! by Chris Wilmer'
_symmetry_space_group_name_H-M	'P1'
_symmetry_Int_Tables_number	1
_symmetry_cell_setting	triclinic
loop_
_symmetry_equiv_pos_as_xyz
  x,y,z
_cell_length_a	12.827892
_cell_length_b	19.805407
_cell_length_c	12.827893
_cell_angle_alpha	89.986780
_cell_angle_beta	90.007453
_cell_angle_gamma	89.985991
loop_
_atom_site_label
_atom_site_type_symbol
_atom_site_fract_x
_atom_site_fract_y
_atom_site_fract_z
Zn1	Zn	-0.416251	-1.034702	0.591111
Zn2	Zn	-0.590961	-1.034664	0.416372
Zn3	Zn	-0.416230	-0.921542	0.416356
Zn4	Zn	-0.590947	-0.921502	0.591043
O5	O	-0.503597	-0.978102	0.503720
O6	O	-0.439442	-1.129413	0.567967
O7	O	-0.567779	-1.019659	0.270134
O8	O	-0.269997	-0.936585	0.439560
O9	O	-0.567800	-1.129385	0.439586
O10	O	-0.270012	-1.019723	0.567952
O11	O	-0.439405	-0.936548	0.270122
O12	O	-0.439392	-0.826820	0.439494
O13	O	-0.567776	-0.936517	0.737288
O14	O	-0.567756	-0.826790	0.567835
O15	O	-0.439428	-1.019684	0.737338
O16	O	-0.737195	-1.019620	0.439520
O17	O	-0.737185	-0.936480	0.567850
C18	C	-0.503571	-0.802246	0.503656
C19	C	-0.503584	-0.727014	0.503653
C20	C	-0.570550	-0.265225	0.570474
C21	C	-0.570549	-0.335914	0.570455
C22	C	-0.503612	-0.371252	0.503731
C23	C	-0.436679	-0.335899	0.437013
C24	C	-0.436685	-0.265212	0.437027
C25	C	-0.436652	-0.620972	0.436954
C26	C	-0.436648	-0.691664	0.436947
C27	C	-0.570515	-0.691674	0.570382
C28	C	-0.570522	-0.620987	0.570396
C29	C	-0.503593	-0.585640	0.503675
C30	C	-0.503596	-0.508991	0.503694
C31	C	-0.503603	-0.447899	0.503716
C32	C	-0.775107	-0.978060	0.503702
C33	C	-0.891260	-0.978104	0.503729
C34	C	-0.943015	-1.019293	0.440298
C35	C	-1.063066	-1.019339	0.440324
C36	C	-0.231027	-0.978163	0.503762
C37	C	-0.114874	-0.978189	0.503779
C38	C	-0.503603	-0.978100	0.776291
C39	C	-0.503606	-0.978100	0.892444
C40	C	-0.503620	-0.154645	0.503773
C41	C	-0.503619	-0.229877	0.503763
C42	C	-0.440094	-0.936978	1.064267
C43	C	-0.440090	-0.936978	0.944217
C44	C	-0.503615	-0.978099	1.232211
C45	C	-0.503612	-0.978099	1.116057
H46	H	-0.625052	-0.236458	0.624815
Br47	Br	-0.345809	-0.573009	0.346413
H48	H	-0.382182	-0.364677	0.382680
Br49	Br	-0.661363	-0.573031	0.660960
Br50	Br	-0.349448	-0.878303	1.138487
H51	H	-0.385713	-0.901771	0.899678
Br52	Br	-0.965531	-0.919388	0.594290
H53	H	-0.625053	-0.364692	0.624775
H54	H	-0.625015	-0.720463	0.624707
Br55	Br	-0.345856	-0.217237	0.346479
H56	H	-0.898451	-1.054525	0.385975
H57	H	-1.107574	-1.054600	0.386016
H58	H	-0.557989	-1.013306	0.936975
H59	H	-0.382135	-0.720435	0.382610
H60	H	-1.070373	-0.942921	0.558084
Br61	Br	-0.594241	-1.036786	1.041837
