data_functionalizedCrystal
_audit_creation_method	'MofGen! by Chris Wilmer'
_symmetry_space_group_name_H-M	'P1'
_symmetry_Int_Tables_number	1
_symmetry_cell_setting	triclinic
loop_
_symmetry_equiv_pos_as_xyz
  x,y,z
_cell_length_a	10.654554
_cell_length_b	17.038272
_cell_length_c	9.730223
_cell_angle_alpha	89.998176
_cell_angle_beta	90.001137
_cell_angle_gamma	87.799150
loop_
_atom_site_label
_atom_site_type_symbol
_atom_site_fract_x
_atom_site_fract_y
_atom_site_fract_z
O1	O	1.678035	0.109891	-0.114249
O2	O	1.313529	0.120356	-0.114261
O3	O	1.493615	0.001296	-0.114244
O4	O	1.497948	0.228951	-0.114266
O5	O	1.493613	0.001299	0.114336
O6	O	1.313527	0.120359	0.114319
O7	O	1.678033	0.109894	0.114331
Zn8	Zn	1.495779	0.115127	0.150617
Zn9	Zn	1.495782	0.115123	-0.150547
O10	O	1.497946	0.228954	0.114314
C11	C	1.266658	0.119589	0.000028
C12	C	1.127002	0.117288	0.000023
C13	C	1.489674	-0.027852	0.000046
C14	C	1.477916	-0.114711	0.000045
C15	C	0.922802	0.185229	0.000029
C16	C	1.054024	0.187391	0.000018
C17	C	1.068751	0.045016	0.000025
C18	C	0.937531	0.042855	0.000026
C19	C	0.849831	0.255337	0.000038
C20	C	0.908072	0.327609	0.000034
C21	C	1.039294	0.329771	0.000023
C22	C	1.112275	0.259663	0.000017
C23	C	1.585860	-0.164221	0.000050
C24	C	1.574806	-0.245834	0.000037
C25	C	1.455806	-0.277934	0.000028
C26	C	1.347854	-0.228418	0.000019
C27	C	1.358910	-0.146807	0.000022
C28	C	1.416748	-0.523911	0.000008
C29	C	1.405701	-0.605528	0.000008
C30	C	1.632654	-0.622938	0.000024
C31	C	1.643699	-0.541325	0.000035
C32	C	1.535747	-0.491816	0.000019
C33	C	1.444504	-0.361355	0.000019
C34	C	1.547050	-0.408397	0.000019
C35	C	1.724903	0.110662	0.000040
C36	C	1.864560	0.112963	0.000035
C37	C	1.501888	0.258103	0.000022
C38	C	1.513645	0.344962	0.000013
N39	N	1.495787	0.115130	0.356153
N40	N	1.495784	0.115115	-0.356083
C41	C	1.575553	0.062428	0.428087
C42	C	1.575549	0.062418	0.571970
C43	C	1.416009	0.167819	0.571973
C44	C	1.416008	0.167824	0.428093
C45	C	1.655332	0.009733	0.356148
C46	C	1.735105	-0.042972	0.428081
C47	C	1.735101	-0.042982	0.571964
C48	C	1.655323	0.009714	0.643914
H49	H	0.742982	0.253584	0.000052
H50	H	1.351054	0.210738	0.369524
H51	H	1.662706	-0.286142	0.000044
Br52	Br	1.655349	0.009749	0.160879
H53	H	1.250962	-0.254561	0.000003
H54	H	0.848643	0.384688	0.000029
H55	H	1.271010	-0.106496	0.000018
Br56	Br	1.805205	-0.497766	0.000003
H57	H	1.720542	-0.663257	0.000034
H58	H	1.643939	-0.382257	-0.000005
H59	H	1.655318	0.009697	0.761073
H60	H	1.328845	-0.483610	-0.000005
Br61	Br	0.858479	-0.055222	0.000044
Br62	Br	1.283008	-0.404927	-0.000007
Br63	Br	1.244190	-0.649092	0.000011
Br64	Br	1.747368	-0.120665	0.000082
Br65	Br	1.843354	-0.114494	0.330442
Br66	Br	1.843347	-0.114516	0.669589
H67	H	1.351058	0.210723	0.630564
H68	H	1.086711	0.388618	0.000007
Br69	Br	1.290364	0.262599	-0.000021
H70	H	1.128181	-0.012063	0.000021
