data_functionalizedCrystal
_audit_creation_method	'MofGen! by Chris Wilmer'
_symmetry_space_group_name_H-M	'P1'
_symmetry_Int_Tables_number	1
_symmetry_cell_setting	triclinic
loop_
_symmetry_equiv_pos_as_xyz
  x,y,z
_cell_length_a	19.188930
_cell_length_b	17.699083
_cell_length_c	16.776229
_cell_angle_alpha	90.001114
_cell_angle_beta	89.988225
_cell_angle_gamma	96.786101
loop_
_atom_site_label
_atom_site_type_symbol
_atom_site_fract_x
_atom_site_fract_y
_atom_site_fract_z
O1	O	0.088294	-1.003962	-0.066185
O2	O	0.099782	-0.783569	-0.066213
O3	O	-0.007611	-0.900126	-0.066183
O4	O	0.195686	-0.887405	-0.066215
O5	O	-0.007617	-0.900110	0.066394
O6	O	0.099775	-0.783553	0.066364
O7	O	0.088288	-1.003947	0.066391
Zn8	Zn	0.094030	-0.893748	0.087427
Zn9	Zn	0.094039	-0.893768	-0.087249
O10	O	0.195680	-0.887390	0.066361
C11	C	-0.033625	-0.899706	0.000108
C12	C	-0.111131	-0.898469	0.000114
C13	C	0.099367	-0.755365	0.000072
C14	C	0.098132	-0.671348	0.000062
C15	C	0.088703	-1.032151	0.000104
C16	C	0.089938	-1.116167	0.000109
C17	C	-0.155978	-0.966861	0.000127
C18	C	-0.228804	-0.965699	0.000114
C19	C	-0.256778	-0.896142	0.000105
C20	C	-0.211921	-0.827741	0.000088
C21	C	-0.139098	-0.828905	0.000093
N22	N	-0.364845	-0.842969	0.045216
N23	N	-0.434025	-0.841868	0.045213
C24	C	-0.476191	-0.892632	0.000088
N25	N	-0.446565	-0.944550	-0.045024
N26	N	-0.377379	-0.945653	-0.045018
C27	C	-0.335742	-0.894873	0.000099
C28	C	-0.600004	-0.959769	0.000085
C29	C	-0.672830	-0.958604	0.000067
C30	C	-0.655946	-0.820644	0.000049
C31	C	-0.583121	-0.821811	0.000059
C32	C	-0.555155	-0.891375	0.000081
C33	C	0.221695	-0.887810	0.000069
C34	C	0.299201	-0.889046	0.000057
N35	N	0.094024	-0.893739	0.206638
C36	C	0.161169	-0.622644	0.000053
C37	C	0.160004	-0.543702	0.000063
C38	C	0.095802	-0.513466	0.000078
C39	C	0.032761	-0.562176	0.000090
C40	C	0.033926	-0.641117	0.000085
C41	C	0.028060	-0.243819	0.000111
C42	C	0.026900	-0.164873	0.000113
C43	C	0.154139	-0.146405	0.000088
C44	C	0.155304	-0.225345	0.000084
C45	C	0.092263	-0.274049	0.000100
C46	C	0.093526	-0.359646	0.000090
C47	C	0.094538	-0.427870	0.000082
N48	N	0.094040	-0.893782	-0.206460
C49	C	0.046490	-0.945366	0.248368
C50	C	0.046490	-0.945370	0.331821
C51	C	0.094027	-0.893751	0.373541
C52	C	0.141563	-0.842118	0.331805
C53	C	0.141559	-0.842111	0.248354
C54	C	0.141576	-0.842146	0.668352
C55	C	0.141578	-0.842158	0.751808
C56	C	0.046507	-0.945405	0.751818
C57	C	0.046503	-0.945398	0.668368
C58	C	0.094037	-0.893763	0.626639
C59	C	0.094036	-0.893758	0.536150
C60	C	0.094031	-0.893759	0.464028
H61	H	-0.133213	-1.023506	0.000142
H62	H	-0.265325	-1.021394	0.000121
C63	C	0.193849	-0.785321	0.202448
C64	C	0.246164	-0.728567	0.248336
C65	C	0.298453	-0.671772	0.202431
C66	C	0.298427	-0.671733	0.110639
C67	C	0.246110	-0.728490	0.064746
C68	C	0.193821	-0.785284	0.110650
H69	H	0.246185	-0.728594	0.316291
H70	H	0.337181	-0.629757	0.236405
H71	H	0.337134	-0.629691	0.076658
H72	H	0.246089	-0.728463	-0.003209
H73	H	0.155093	-0.827300	0.076677
C74	C	-0.041286	-0.297383	0.000117
C75	C	-0.093939	-0.294143	0.068965
C76	C	-0.163290	-0.347709	0.068969
C77	C	-0.179986	-0.404515	0.000125
C78	C	-0.127331	-0.407757	-0.068728
C79	C	-0.057981	-0.354191	-0.068732
H80	H	-0.081581	-0.252089	0.119932
H81	H	-0.202268	-0.345308	0.119939
H82	H	-0.231324	-0.444168	0.000128
H83	H	-0.139690	-0.449811	-0.119695
H84	H	-0.019002	-0.356592	-0.119702
H85	H	0.211335	-0.504050	0.000054
H86	H	0.205470	-0.106741	0.000079
C87	C	-0.533784	-0.746577	0.000060
C88	C	-0.564550	-0.670064	0.000052
C89	C	-0.515212	-0.594827	0.000052
C90	C	-0.435109	-0.596103	0.000060
C91	C	-0.404339	-0.672620	0.000068
C92	C	-0.453677	-0.747857	0.000068
H93	H	-0.623851	-0.669116	0.000047
H94	H	-0.537991	-0.538184	0.000046
H95	H	-0.398586	-0.540408	0.000060
H96	H	-0.345038	-0.673568	0.000073
H97	H	-0.430898	-0.804500	0.000074
H98	H	-0.102582	-0.773210	0.000083
C99	C	-0.005788	-1.002200	0.797721
C100	C	-0.059156	-0.972818	0.855106
C101	C	-0.111448	-1.029613	0.901006
C102	C	-0.110371	-1.115790	0.889521
C103	C	-0.057001	-1.145177	0.832134
C104	C	-0.004710	-1.088381	0.786234
H105	H	-0.059955	-0.909021	0.863610
H106	H	-0.150956	-1.007859	0.943488
H107	H	-0.149080	-1.157833	0.923499
H108	H	-0.056202	-1.208974	0.823630
H109	H	0.034799	-1.110136	0.743752
H110	H	-0.234702	-0.771107	0.000079
C111	C	-0.569233	-1.036285	0.000101
C112	C	-0.586228	-1.093024	0.068950
C113	C	-0.555458	-1.169540	0.068966
C114	C	-0.507693	-1.189316	0.000134
C115	C	-0.490696	-1.132576	-0.068719
C116	C	-0.521465	-1.056060	-0.068736
H117	H	-0.621588	-1.078385	0.119908
H118	H	-0.568041	-1.211542	0.119937
H119	H	-0.484915	-1.245958	0.000147
H120	H	-0.455335	-1.147214	-0.119677
H121	H	-0.508882	-1.014057	-0.119706
C122	C	0.225927	-0.258604	0.000069
C123	C	0.295269	-0.205031	0.000063
C124	C	0.365893	-0.238289	0.000052
C125	C	0.367176	-0.325120	0.000047
C126	C	0.297832	-0.378698	0.000052
C127	C	0.227208	-0.345441	0.000063
H128	H	0.294321	-0.140749	0.000067
H129	H	0.417226	-0.198626	0.000048
H130	H	0.419457	-0.349739	0.000038
H131	H	0.298780	-0.442981	0.000048
H132	H	0.175875	-0.385104	0.000067
C133	C	-0.005803	-1.002150	0.202480
C134	C	-0.058092	-1.058935	0.248388
C135	C	-0.110388	-1.115719	0.202503
C136	C	-0.110395	-1.115718	0.110710
C137	C	-0.058104	-1.058930	0.064798
C138	C	-0.005808	-1.002147	0.110683
H139	H	-0.058088	-1.058938	0.316343
H140	H	-0.149097	-1.157756	0.236491
H141	H	-0.149108	-1.157752	0.076743
H142	H	-0.058108	-1.058928	-0.003157
H143	H	0.032901	-0.960109	0.076695
C144	C	0.193865	-0.785356	0.622453
C145	C	0.246178	-0.728599	0.668340
C146	C	0.298470	-0.671809	0.622434
C147	C	0.298449	-0.671776	0.530642
C148	C	0.246135	-0.728536	0.484750
C149	C	0.193843	-0.785326	0.530655
H150	H	0.246195	-0.728621	0.736295
H151	H	0.337197	-0.629792	0.656407
H152	H	0.337159	-0.629737	0.496660
H153	H	0.246117	-0.728514	0.416795
H154	H	0.155116	-0.827343	0.496682
C155	C	-0.005789	-1.002179	0.622475
C156	C	-0.058081	-1.058966	0.668375
C157	C	-0.110376	-1.115746	0.622483
C158	C	-0.110379	-1.115737	0.530691
C159	C	-0.058085	-1.058947	0.484785
C160	C	-0.005790	-1.002168	0.530677
H161	H	-0.058080	-1.058974	0.736330
H162	H	-0.149087	-1.157785	0.656466
H163	H	-0.149091	-1.157769	0.496719
H164	H	-0.058086	-1.058939	0.416830
H165	H	0.032921	-0.960129	0.496695
H166	H	-0.025384	-0.140258	0.000126
H167	H	0.007784	-0.987409	0.365797
H168	H	-0.019514	-0.537552	0.000113
H169	H	-0.017406	-0.680771	0.000093
H170	H	-0.678722	-0.764009	0.000038
H171	H	-0.709345	-1.014299	0.000073
H172	H	0.213450	-0.647256	0.000040
C173	C	0.193868	-0.785369	0.797703
C174	C	0.192786	-0.699189	0.786249
C175	C	0.245073	-0.642403	0.832145
C176	C	0.298442	-0.671798	0.889494
C177	C	0.299525	-0.757982	0.900950
C178	C	0.247238	-0.814767	0.855055
H179	H	0.153277	-0.677426	0.743794
H180	H	0.244270	-0.578604	0.823664
H181	H	0.337148	-0.629762	0.923468
H182	H	0.339034	-0.779745	0.943405
H183	H	0.248041	-0.878566	0.863536
H184	H	0.180266	-0.800085	0.365778
