data_functionalizedCrystal
_audit_creation_method	'MofGen! by Chris Wilmer'
_symmetry_space_group_name_H-M	'P1'
_symmetry_Int_Tables_number	1
_symmetry_cell_setting	triclinic
loop_
_symmetry_equiv_pos_as_xyz
  x,y,z
_cell_length_a	6.817900
_cell_length_b	16.418049
_cell_length_c	17.982968
_cell_angle_alpha	95.670566
_cell_angle_beta	102.451960
_cell_angle_gamma	103.389670
loop_
_atom_site_label
_atom_site_type_symbol
_atom_site_fract_x
_atom_site_fract_y
_atom_site_fract_z
V1	V	-4.014612	-0.116671	-0.237819
O2	O	-4.002841	0.004799	-0.233015
O3	O	-3.965746	-0.230563	-0.236458
O4	O	-3.961125	-0.115231	-0.341418
O5	O	-4.007494	-0.111332	-0.127328
V6	V	-4.498960	-0.102100	-0.224571
O7	O	-4.274062	-0.148635	-0.266879
O8	O	-4.689707	-0.070137	-0.195511
O9	O	-4.324619	0.011792	-0.225932
O10	O	-4.628127	-0.223571	-0.229374
O11	O	-4.623474	-0.107440	-0.335061
O12	O	-4.329240	-0.103541	-0.120971
C13	C	-3.810798	-0.258317	-0.232774
C14	C	-3.852097	-0.351427	-0.232352
C15	C	-4.128990	-0.569926	-0.235206
C16	C	-4.167783	-0.657414	-0.234816
C17	C	-3.803940	-0.648845	-0.227188
C18	C	-3.765153	-0.561359	-0.227584
C19	C	-3.927682	-0.521902	-0.231589
C20	C	-4.005263	-0.696875	-0.230803
C21	C	-4.047323	-0.791734	-0.230380
C22	C	-3.885621	-0.427038	-0.232013
C23	C	-3.804903	-0.111198	-0.366661
C24	C	-3.842452	-0.110774	-0.451356
C25	C	-4.041996	-0.114772	-0.495037
C26	C	-4.077265	-0.114373	-0.574617
C27	C	-3.912991	-0.109982	-0.610515
C28	C	-3.713429	-0.105981	-0.566828
C29	C	-3.678160	-0.106374	-0.487249
C30	C	-3.855663	-0.104395	-0.887761
C31	C	-3.890951	-0.104005	-0.967347
C32	C	-4.254768	-0.112394	-0.975129
C33	C	-4.219499	-0.112787	-0.895550
C34	C	-4.019939	-0.108781	-0.851869
C35	C	-3.981698	-0.109212	-0.765580
C36	C	-3.951233	-0.109557	-0.696804
C37	C	-4.142909	0.039541	-0.229613
C38	C	-4.080848	0.132650	-0.230040
C39	C	-4.148805	-0.107577	-0.095724
C40	C	-4.090494	-0.107997	-0.011028
H41	H	-4.175774	-0.118353	-0.465816
H42	H	-3.601218	-0.522257	-0.224641
H43	H	-4.239748	-0.117623	-0.610178
C44	C	-3.710244	-0.099169	-1.006836
H45	H	-3.759843	-0.099518	-1.060488
H46	H	-3.604548	-0.048414	-0.985127
H47	H	-3.654888	-0.146607	-0.999267
H48	H	-4.261334	-0.537802	-0.238467
C49	C	-3.625170	-0.692250	-0.222773
H50	H	-3.677095	-0.751230	-0.223047
H51	H	-3.567576	-0.683951	-0.265922
H52	H	-3.520555	-0.668350	-0.176610
C53	C	-3.458668	-0.101979	-0.439197
H54	H	-3.461184	-0.102834	-0.386660
H55	H	-3.414871	-0.149284	-0.457709
H56	H	-3.364531	-0.051091	-0.443566
H57	H	-4.331705	-0.696512	-0.237763
H58	H	-4.353273	-0.116366	-0.866327
C59	C	-3.636167	-0.100000	-0.839724
H60	H	-3.543396	-0.097339	-0.872505
H61	H	-3.589656	-0.050885	-0.801446
H62	H	-3.640027	-0.149079	-0.815593
H63	H	-4.417261	-0.115651	-1.010704
C64	C	-3.532732	-0.101153	-0.606314
H65	H	-3.582318	-0.101501	-0.659966
H66	H	-3.427027	-0.050402	-0.584602
H67	H	-3.477393	-0.148596	-0.598743
