data_functionalizedCrystal
_audit_creation_method	'MofGen! by Chris Wilmer'
_symmetry_space_group_name_H-M	'P1'
_symmetry_Int_Tables_number	1
_symmetry_cell_setting	triclinic
loop_
_symmetry_equiv_pos_as_xyz
  x,y,z
_cell_length_a	14.971482
_cell_length_b	10.654550
_cell_length_c	9.730223
_cell_angle_alpha	89.995747
_cell_angle_beta	89.997266
_cell_angle_gamma	84.048769
loop_
_atom_site_label
_atom_site_type_symbol
_atom_site_fract_x
_atom_site_fract_y
_atom_site_fract_z
O1	O	1.187836	0.163634	-0.114272
O2	O	1.687836	0.663634	0.385728
O3	O	0.927542	0.183237	-0.114278
O4	O	1.427542	0.683237	0.385722
O5	O	1.063673	-0.009368	-0.114266
O6	O	1.563673	0.490632	0.385734
O7	O	1.051704	0.356239	-0.114284
O8	O	1.551704	0.856239	0.385716
O9	O	1.063665	-0.009373	0.114314
O10	O	1.563665	0.490627	0.614314
O11	O	0.927533	0.183232	0.114302
O12	O	1.427533	0.683232	0.614302
O13	O	1.187827	0.163628	0.114308
O14	O	1.687827	0.663628	0.614308
Zn15	Zn	1.057678	0.173429	0.150597
Zn16	Zn	1.557678	0.673429	0.650597
Zn17	Zn	1.057690	0.173436	-0.150567
Zn18	Zn	1.557690	0.673436	0.349433
O19	O	1.051695	0.356234	0.114296
O20	O	1.551695	0.856234	0.614296
C21	C	1.062790	-0.056159	0.000023
C22	C	1.562790	0.443841	0.500023
C23	C	1.060161	-0.195574	0.000021
C24	C	1.560161	0.304426	0.500021
C25	C	0.894208	0.182359	0.000011
C26	C	1.394208	0.682359	0.500011
C27	C	0.794896	0.179734	0.000008
C28	C	1.294896	0.679734	0.500008
C29	C	1.140313	-0.275921	0.000022
C30	C	1.640313	0.224079	0.500022
C31	C	1.137837	-0.406916	0.000006
C32	C	1.637837	0.093084	0.500006
C33	C	0.975050	-0.377203	-0.000009
C34	C	1.475050	0.122797	0.499991
C35	C	0.977526	-0.246211	-0.000002
C36	C	1.477526	0.253789	0.499998
C37	C	0.748240	0.178495	0.124609
C38	C	1.248240	0.678495	0.624609
C39	C	0.654928	0.176009	0.124611
C40	C	1.154928	0.676009	0.624611
C41	C	0.608273	0.174770	0.000010
C42	C	1.108273	0.674770	0.500010
C43	C	0.654936	0.176006	-0.124600
C44	C	1.154936	0.676006	0.375400
C45	C	0.748247	0.178483	-0.124600
C46	C	1.248247	0.678483	0.375400
C47	C	0.460446	0.170846	-0.124591
C48	C	0.960446	0.670846	0.375409
C49	C	0.367128	0.168371	-0.124591
C50	C	0.867128	0.668371	0.375409
C51	C	0.367127	0.168371	0.124620
C52	C	0.867127	0.668371	0.624620
C53	C	0.460438	0.170848	0.124620
C54	C	0.960438	0.670848	0.624620
C55	C	0.507094	0.172086	0.000009
C56	C	1.007094	0.672086	0.500009
C57	C	1.221161	0.164507	0.000016
C58	C	1.721161	0.664507	0.500016
C59	C	1.320472	0.167132	0.000009
C60	C	1.820472	0.667132	0.500009
C61	C	1.052578	0.403025	0.000004
C62	C	1.552578	0.903025	0.500004
C63	C	1.055208	0.542440	-0.000003
C64	C	1.555208	1.042440	0.499997
N65	N	1.057677	0.173424	0.356133
N66	N	1.557677	0.673424	0.856133
N67	N	1.057699	0.173432	-0.356103
N68	N	1.557699	0.673432	0.143897
C69	C	1.117977	0.088174	0.428065
C70	C	1.617977	0.588174	0.928065
C71	C	1.117986	0.088174	0.571948
C72	C	1.617986	0.588174	1.071948
C73	C	0.997392	0.258685	0.571955
C74	C	1.497392	0.758685	1.071955
C75	C	0.997380	0.258678	0.428075
C76	C	1.497380	0.758678	0.928075
H77	H	1.207599	-0.234698	0.000038
H78	H	1.707599	0.265302	0.500038
N79	N	0.604603	0.174667	0.258998
N80	N	1.104603	0.674667	0.758998
H81	H	0.648389	0.174944	0.337931
H82	H	1.148389	0.674944	0.837931
H83	H	0.559547	0.251883	0.264838
H84	H	1.059547	0.751883	0.764838
N85	N	0.604614	0.174659	-0.258986
N86	N	1.104614	0.674659	0.241014
H87	H	0.559128	0.251422	-0.264547
H88	H	1.059128	0.751422	0.235453
H89	H	0.648389	0.175769	-0.337847
H90	H	1.148389	0.675769	0.162153
H91	H	0.907772	-0.418448	-0.000024
H92	H	1.407772	0.081552	0.499976
N93	N	0.891067	-0.159552	0.000007
N94	N	1.391067	0.340448	0.500007
H95	H	0.888464	-0.104550	0.084745
H96	H	1.388464	0.395450	0.584745
H97	H	0.888520	-0.104614	-0.084781
H98	H	1.388520	0.395386	0.415219
H99	H	0.948301	0.328099	0.630544
H100	H	1.448301	0.828099	1.130544
N101	N	1.224286	-0.493577	0.000006
N102	N	1.724286	0.006423	0.500006
H103	H	1.277006	-0.441617	0.000022
H104	H	1.777006	0.058383	0.500022
H105	H	1.226797	-0.548584	0.084740
H106	H	1.726797	-0.048584	0.584740
H107	H	0.498421	0.171864	0.226080
H108	H	0.998421	0.671864	0.726080
N109	N	1.182996	-0.003778	0.350450
N110	N	1.682996	0.496222	0.850450
H111	H	1.246570	0.010825	0.375463
H112	H	1.746570	0.510825	0.875463
H113	H	1.172067	-0.092893	0.375532
H114	H	1.672067	0.407107	0.875532
N115	N	0.798557	0.179843	0.259001
N116	N	1.298557	0.679843	0.759001
H117	H	0.754837	0.178679	0.337934
H118	H	1.254837	0.678679	0.837934
H119	H	0.844046	0.103081	0.264436
H120	H	1.344046	0.603081	0.764436
H121	H	0.948272	0.328099	0.369505
H122	H	1.448272	0.828099	0.869505
N123	N	1.183036	-0.003756	0.649532
N124	N	1.683036	0.496244	1.149532
H125	H	1.221233	-0.057755	0.582120
H126	H	1.721233	0.442245	1.082120
H127	H	1.222869	0.044441	0.709201
H128	H	1.722869	0.544441	1.209201
H129	H	0.329135	0.167364	0.226082
H130	H	0.829135	0.667364	0.726082
H131	H	0.329144	0.167363	-0.226052
H132	H	0.829144	0.667363	0.273948
H133	H	0.786233	0.179494	-0.226063
H134	H	1.286233	0.679494	0.273937
H135	H	0.498431	0.171854	-0.226062
H136	H	0.998431	0.671854	0.273938
