data_functionalizedCrystal
_audit_creation_method	'MofGen! by Chris Wilmer'
_symmetry_space_group_name_H-M	'P1'
_symmetry_Int_Tables_number	1
_symmetry_cell_setting	triclinic
loop_
_symmetry_equiv_pos_as_xyz
  x,y,z
_cell_length_a	34.408637
_cell_length_b	34.407814
_cell_length_c	34.404193
_cell_angle_alpha	60.004510
_cell_angle_beta	60.009006
_cell_angle_gamma	59.994604
loop_
_atom_site_label
_atom_site_type_symbol
_atom_site_fract_x
_atom_site_fract_y
_atom_site_fract_z
O1	O	0.053973	-0.567860	0.474801
O2	O	0.553973	-0.067860	0.974801
O3	O	0.020377	-0.442124	0.382567
O4	O	0.520377	0.057876	0.882567
O5	O	0.100004	-0.521670	0.382483
O6	O	0.600004	-0.021670	0.882483
O7	O	-0.025653	-0.488314	0.474886
O8	O	0.474347	0.011686	0.974886
O9	O	0.126426	-0.495253	0.408816
O10	O	0.626426	0.004747	0.908816
O11	O	0.046800	-0.415707	0.408900
O12	O	0.546800	0.084293	0.908900
O13	O	0.080396	-0.541443	0.501134
O14	O	0.580396	-0.041443	1.001134
Zn15	Zn	0.067793	-0.474381	0.459198
Zn16	Zn	0.567793	0.025619	0.959198
Zn17	Zn	0.032980	-0.509186	0.424503
Zn18	Zn	0.532980	-0.009186	0.924503
O19	O	0.000769	-0.461897	0.501219
O20	O	0.500769	0.038103	1.001219
N21	N	0.091552	-0.450631	0.482879
N22	N	0.591552	0.049369	0.982879
N23	N	0.009225	-0.532940	0.400823
N24	N	0.509225	-0.032940	0.900823
C25	C	0.142848	-0.268847	0.534081
C26	C	0.642848	0.231153	1.034081
C27	C	0.142979	-0.399386	0.664559
C28	C	0.642979	0.100614	1.164559
C29	C	0.142862	-0.399365	0.534081
C30	C	0.642862	0.100635	1.034081
C31	C	0.273409	-0.399338	0.533986
C32	C	0.773409	0.100662	1.033986
C33	C	0.157225	-0.311914	0.548422
C34	C	0.657225	0.188086	1.048422
C35	C	0.157300	-0.385019	0.621491
C36	C	0.657300	0.114981	1.121491
C37	C	0.230339	-0.384991	0.548370
C38	C	0.730339	0.115009	1.048370
C39	C	0.157235	-0.385007	0.548422
C40	C	0.657235	0.114993	1.048422
C41	C	0.124548	-0.214028	0.515827
C42	C	0.624548	0.285972	1.015827
C43	C	0.124571	-0.417639	0.515827
C44	C	0.624571	0.082361	1.015827
C45	C	0.175526	-0.366733	0.566676
C46	C	0.675526	0.133267	1.066676
C47	C	0.353121	-0.385580	0.491988
C48	C	0.853121	0.114420	0.991988
C49	C	0.402952	-0.402180	0.475348
C50	C	0.902952	0.097820	0.975348
C51	C	0.402981	-0.482812	0.506096
C52	C	0.902981	0.017188	1.006096
C53	C	0.353151	-0.466211	0.522737
C54	C	0.853151	0.033789	1.022737
C55	C	0.136544	-0.189099	0.466839
C56	C	0.636544	0.310901	0.966839
C57	C	0.119905	-0.139265	0.450247
C58	C	0.619905	0.360735	0.950247
C59	C	0.079280	-0.139291	0.531632
C60	C	0.579280	0.360709	1.031632
C61	C	0.095918	-0.189125	0.548224
C62	C	0.595918	0.310875	1.048224
C63	C	0.075577	-0.405615	0.527900
C64	C	0.575577	0.094385	1.027900
C65	C	0.058953	-0.422228	0.511301
C66	C	0.558953	0.077772	1.011301
C67	C	0.140315	-0.462889	0.470566
C68	C	0.640315	0.037111	0.970566
C69	C	0.156941	-0.446276	0.487159
C70	C	0.656941	0.053724	0.987159
C71	C	0.075772	-0.405653	0.744326
C72	C	0.575772	0.094347	1.244326
C73	C	0.059206	-0.422280	0.794159
C74	C	0.559206	0.077720	1.294159
C75	C	0.140607	-0.462951	0.794094
C76	C	0.640607	0.037049	1.294094
C77	C	0.157172	-0.446325	0.744260
C78	C	0.657172	0.053675	1.244260
C79	C	0.124753	-0.417674	0.719377
C80	C	0.624753	0.082326	1.219377
C81	C	0.328223	-0.417595	0.515681
C82	C	0.828223	0.082405	1.015681
C83	C	-0.172390	-0.583988	0.349141
C84	C	0.327610	-0.083988	0.849141
C85	C	-0.041751	-0.584138	0.218783
C86	C	0.458249	-0.084138	0.718783
C87	C	-0.041941	-0.584130	0.349402
C88	C	0.458059	-0.084130	0.849402
C89	C	-0.041957	-0.714607	0.349338
C90	C	0.458043	-0.214607	0.849338
C91	C	-0.129326	-0.598388	0.334853
C92	C	0.370674	-0.098388	0.834853
C93	C	-0.056165	-0.598473	0.261852
C94	C	0.443835	-0.098473	0.761852
C95	C	-0.056282	-0.671535	0.334962
C96	C	0.443718	-0.171535	0.834962
C97	C	-0.056272	-0.598469	0.334999
C98	C	0.443728	-0.098469	0.834999
C99	C	-0.227205	-0.565659	0.367327
C100	C	0.272795	-0.065659	0.867327
C101	C	-0.023703	-0.565882	0.367734
C102	C	0.476297	-0.065882	0.867734
C103	C	-0.074511	-0.616717	0.316667
C104	C	0.425489	-0.116717	0.816667
C105	C	-0.055754	-0.794298	0.391257
C106	C	0.444246	-0.294298	0.891257
C107	C	-0.039181	-0.844132	0.407888
C108	C	0.460819	-0.344132	0.907888
C109	C	0.041447	-0.844215	0.377269
C110	C	0.541447	-0.344215	0.877269
C111	C	0.024873	-0.794381	0.360637
C112	C	0.524873	-0.294381	0.860637
C113	C	-0.252183	-0.577666	0.416302
C114	C	0.247817	-0.077666	0.916302
C115	C	-0.302014	-0.561001	0.432833
C116	C	0.197986	-0.061001	0.932833
C117	C	-0.301886	-0.520329	0.351410
C118	C	0.198114	-0.020329	0.851410
C119	C	-0.252055	-0.536994	0.334880
C120	C	0.247945	-0.036994	0.834880
C121	C	-0.035709	-0.516892	0.355682
C122	C	0.464291	-0.016892	0.855682
C123	C	-0.019129	-0.500308	0.372353
C124	C	0.480871	-0.000308	0.872353
C125	C	0.021465	-0.581700	0.413115
C126	C	0.521465	-0.081700	0.913115
C127	C	0.004884	-0.598286	0.396450
C128	C	0.504884	-0.098286	0.896450
C129	C	-0.035389	-0.516907	0.139026
C130	C	0.464611	-0.016907	0.639026
C131	C	-0.018707	-0.500324	0.089193
C132	C	0.481293	-0.000324	0.589193
C133	C	0.021949	-0.581721	0.089240
C134	C	0.521949	-0.081721	0.589240
C135	C	0.005268	-0.598303	0.139074
C136	C	0.505268	-0.098303	0.639074
C137	C	-0.023402	-0.565894	0.163965
C138	C	0.476598	-0.065894	0.663965
C139	C	-0.023728	-0.769425	0.367633
C140	C	0.476272	-0.269425	0.867633
N141	N	0.427173	-0.450553	0.482630
N142	N	0.927173	0.049447	0.982630
O143	O	0.589997	-0.458460	0.365361
O144	O	1.089997	0.041540	0.865361
O145	O	0.590185	-0.550997	0.490963
O146	O	1.090185	-0.050997	0.990963
O147	O	0.590104	-0.550786	0.411309
O148	O	1.090104	-0.050786	0.911309
O149	O	0.590077	-0.458671	0.445016
O150	O	1.090077	0.041329	0.945016
O151	O	0.510940	-0.524462	0.437777
O152	O	1.010940	-0.024462	0.937777
O153	O	0.511020	-0.524674	0.517432
O154	O	1.011020	-0.024674	1.017432
O155	O	0.510832	-0.432136	0.391830
O156	O	1.010832	0.067864	0.891830
Zn157	Zn	0.498357	-0.474225	0.458833
Zn158	Zn	0.998357	0.025775	0.958833
Zn159	Zn	0.602660	-0.508908	0.423960
Zn160	Zn	1.102660	-0.008908	0.923960
O161	O	0.510913	-0.432348	0.471484
O162	O	1.010913	0.067652	0.971484
N163	N	0.673844	-0.532580	0.400158
N164	N	1.173844	-0.032580	0.900158
N165	N	0.091520	-0.115070	0.482873
N166	N	0.591520	0.384930	0.982873
O167	O	-0.025663	0.047841	0.474857
O168	O	0.474337	0.547841	0.974857
O169	O	0.099940	0.047877	0.382299
O170	O	0.599940	0.547877	0.882299
O171	O	0.020247	0.047844	0.382560
O172	O	0.520247	0.547844	0.882560
O173	O	0.054030	0.047874	0.474596
O174	O	0.554030	0.547874	0.974596
O175	O	0.046674	-0.031326	0.408942
O176	O	0.546674	0.468674	0.908942
O177	O	0.126367	-0.031293	0.408680
O178	O	0.626367	0.468707	0.908680
O179	O	0.000764	-0.031329	0.501238
O180	O	0.500764	0.468671	1.001238
Zn181	Zn	0.067761	-0.043881	0.459148
Zn182	Zn	0.567761	0.456119	0.959148
Zn183	Zn	0.032943	0.060429	0.424389
Zn184	Zn	0.532943	0.560429	0.924389
O185	O	0.080457	-0.031296	0.500977
O186	O	0.580457	0.468704	1.000977
N187	N	0.009178	0.131618	0.400665
N188	N	0.509178	0.631618	0.900665
N189	N	0.091852	-0.450680	0.818332
N190	N	0.591852	0.049320	1.318332
O191	O	0.083862	-0.567845	0.981235
O192	O	0.583862	-0.067845	1.481235
O193	O	-0.008657	-0.442198	0.981276
O194	O	0.491343	0.057802	1.481276
O195	O	-0.008441	-0.521875	0.981252
O196	O	0.491559	-0.021875	1.481252
O197	O	0.083646	-0.488168	0.981258
O198	O	0.583646	0.011832	1.481258
O199	O	0.017919	-0.495468	0.902085
O200	O	0.517919	0.004532	1.402085
O201	O	0.017703	-0.415791	0.902109
O202	O	0.517703	0.084209	1.402109
O203	O	0.110222	-0.541438	0.902067
O204	O	0.610222	-0.041438	1.402067
Zn205	Zn	0.068148	-0.474422	0.889518
Zn206	Zn	0.568148	0.025578	1.389518
Zn207	Zn	0.033417	-0.509214	0.993825
Zn208	Zn	0.533417	-0.009214	1.493825
O209	O	0.110006	-0.461761	0.902091
O210	O	0.610006	0.038239	1.402091
N211	N	0.009712	-0.532961	1.065011
N212	N	0.509712	-0.032961	1.565011
C213	C	0.030439	-0.413071	0.383027
C214	C	0.530439	0.086929	0.883027
C215	C	0.129046	-0.511580	0.382922
C216	C	0.629046	-0.011580	0.882922
C217	C	0.070334	-0.570496	0.500675
C218	C	0.570334	-0.070496	1.000675
C219	C	-0.028274	-0.471987	0.500780
C220	C	0.471726	0.028013	1.000780
C221	C	0.550625	-0.550579	0.520021
C222	C	1.050625	-0.050579	1.020021
C223	C	0.550527	-0.550317	0.421379
C224	C	1.050527	-0.050317	0.921379
C225	C	0.550389	-0.432554	0.362773
C226	C	1.050389	0.067446	0.862773
C227	C	0.550491	-0.432816	0.461414
C228	C	1.050491	0.067184	0.961414
C229	C	0.128944	0.008394	0.382712
C230	C	0.628944	0.508394	0.882712
C231	C	0.030287	0.008256	0.383068
C232	C	0.530287	0.508256	0.883068
C233	C	-0.028273	0.008252	0.500793
C234	C	0.471727	0.508252	1.000793
C235	C	0.070417	0.008292	0.500470
C236	C	0.570417	0.508292	1.000470
C237	C	-0.008218	-0.413165	0.941698
C238	C	0.491782	0.086835	1.441698
C239	C	-0.007945	-0.511830	0.941653
C240	C	0.492055	-0.011830	1.441653
C241	C	0.109783	-0.570471	0.941646
C242	C	0.609783	-0.070471	1.441646
C243	C	0.109516	-0.471800	0.941673
C244	C	0.609516	0.028200	1.441673
H245	H	0.019320	-0.412483	0.814467
H246	H	0.519320	0.087517	1.314467
O247	O	0.021743	0.008180	0.348551
O248	O	0.521743	0.508180	0.848551
C249	C	0.054371	-0.032828	0.335751
C250	C	0.554371	0.467172	0.835751
H251	H	0.087371	-0.046483	0.345223
H252	H	0.587371	0.453517	0.845223
H253	H	0.064996	-0.023611	0.295822
H254	H	0.564996	0.476389	0.795822
H255	H	0.037129	-0.061549	0.355855
H256	H	0.537129	0.438451	0.855855
H257	H	0.077653	0.008301	0.529384
H258	H	0.577653	0.508301	1.029384
H259	H	0.138447	-0.464586	0.941669
H260	H	0.638447	0.035414	1.441669
H261	H	-0.064365	-0.464880	0.529794
H262	H	0.435635	0.035120	1.029794
H263	H	0.077514	-0.606615	0.529644
H264	H	0.577514	-0.106615	1.029644
H265	H	0.550540	-0.579254	0.414165
H266	H	1.050540	-0.079254	0.914165
O267	O	0.021964	-0.370003	0.348418
O268	O	0.521964	0.129997	0.848418
C269	C	0.062850	-0.369888	0.307358
C270	C	0.562850	0.130112	0.807358
H271	H	0.095558	-0.398036	0.317792
H272	H	0.595558	0.101964	0.817792
H273	H	0.067053	-0.333357	0.289584
H274	H	0.567053	0.166643	0.789584
H275	H	0.059002	-0.378176	0.281498
H276	H	0.559002	0.121824	0.781498
O277	O	0.550565	-0.398307	0.469964
O278	O	1.050565	0.101693	0.969964
C279	C	0.591524	-0.385452	0.437295
C280	C	1.091524	0.114548	0.937295
H281	H	0.620187	-0.415932	0.423315
H282	H	1.120187	0.084068	0.923315
H283	H	0.605305	-0.377729	0.455826
H284	H	1.105305	0.122271	0.955826
H285	H	0.582200	-0.352300	0.406329
H286	H	1.082200	0.147700	0.906329
H287	H	0.165136	-0.518689	0.353905
H288	H	0.665136	-0.018689	0.853905
H289	H	-0.064344	0.008241	0.529850
H290	H	0.435656	0.508241	1.029850
H291	H	0.550674	-0.579628	0.556096
H292	H	1.050674	-0.079628	1.056096
H293	H	0.550329	-0.403500	0.326702
H294	H	1.050329	0.096500	0.826702
H295	H	0.138832	-0.606554	0.941627
H296	H	0.638832	-0.106554	1.441627
O297	O	-0.042827	-0.370097	0.941733
O298	O	0.457173	0.129903	1.441733
C299	C	-0.025689	-0.340469	0.941728
C300	C	0.474311	0.159531	1.441728
H301	H	0.004875	-0.363358	0.956708
H302	H	0.504875	0.136642	1.456708
H303	H	-0.055600	-0.317668	0.964722
H304	H	0.444400	0.182332	1.464722
H305	H	-0.012486	-0.316425	0.903750
H306	H	0.487514	0.183575	1.403750
O307	O	0.171905	0.008692	0.348003
O308	O	0.671905	0.508692	0.848003
C309	C	0.201521	0.008785	0.365087
C310	C	0.701521	0.508785	0.865087
H311	H	0.178632	0.023614	0.395756
H312	H	0.678632	0.523614	0.895756
H313	H	0.224134	0.031961	0.335191
H314	H	0.724134	0.531961	0.835191
H315	H	0.225747	-0.029143	0.378129
H316	H	0.725747	0.470857	0.878129
O317	O	-0.042430	-0.520494	0.941674
O318	O	0.457570	-0.020494	1.441674
C319	C	-0.053375	-0.559038	0.982660
C320	C	0.446625	-0.059038	1.482660
H321	H	-0.021920	-0.581837	0.996348
H322	H	0.478080	-0.081837	1.496348
H323	H	-0.060970	-0.581518	0.973404
H324	H	0.439030	-0.081518	1.473404
H325	H	-0.086086	-0.544929	1.011370
H326	H	0.413914	-0.044929	1.511370
O327	O	0.044214	-0.377842	0.720231
O328	O	0.544214	0.122158	1.220231
C329	C	-0.002570	-0.370786	0.752939
C330	C	0.497430	0.129214	1.252939
H331	H	-0.002445	-0.400839	0.788451
H332	H	0.497555	0.099161	1.288451
H333	H	-0.026250	-0.370526	0.738565
H334	H	0.473750	0.129474	1.238565
H335	H	-0.016847	-0.335290	0.758250
H336	H	0.483153	0.164710	1.258250
H337	H	0.197059	-0.456117	0.723950
H338	H	0.697059	0.043883	1.223950
O339	O	0.172163	-0.490791	0.818192
O340	O	0.672163	0.009209	1.318192
C341	C	0.218948	-0.497826	0.785486
C342	C	0.718948	0.002174	1.285486
H343	H	0.218826	-0.492246	0.749971
H344	H	0.718826	0.007754	1.249971
H345	H	0.242628	-0.535621	0.799858
H346	H	0.742628	-0.035621	1.299858
H347	H	0.233223	-0.471301	0.780181
H348	H	0.733223	0.028699	1.280181
O349	O	-0.070358	-0.868224	0.430846
O350	O	0.429642	-0.368224	0.930846
C351	C	-0.116809	-0.835512	0.433445
C352	C	0.383191	-0.335512	0.933445
H353	H	-0.118743	-0.799997	0.430190
H354	H	0.381257	-0.299997	0.930190
H355	H	-0.143180	-0.849880	0.469032
H356	H	0.356820	-0.349880	0.969032
H357	H	-0.126065	-0.830207	0.403214
H358	H	0.373935	-0.330207	0.903214
H359	H	0.019058	-0.412426	0.521121
H360	H	0.519058	0.087574	1.021121
O361	O	0.044113	-0.377727	0.555672
O362	O	0.544113	0.122273	1.055672
C363	C	0.015265	-0.335938	0.530538
C364	C	0.515265	0.164062	1.030538
H365	H	0.034478	-0.329000	0.490666
H366	H	0.534478	0.171000	0.990666
H367	H	0.007733	-0.304549	0.539455
H368	H	0.507733	0.195451	1.039455
H369	H	-0.019744	-0.340474	0.541168
H370	H	0.480256	0.159526	1.041168
O371	O	0.171784	-0.490638	0.442651
O372	O	0.671784	0.009362	0.942651
C373	C	0.200569	-0.465462	0.400856
C374	C	0.700569	0.034538	0.900856
H375	H	0.181310	-0.425595	0.393944
H376	H	0.681310	0.074405	0.893944
H377	H	0.208083	-0.474369	0.369465
H378	H	0.708083	0.025631	0.869465
H379	H	0.235591	-0.476064	0.405359
H380	H	0.735591	0.023936	0.905359
O381	O	0.204519	-0.457894	0.475462
O382	O	0.704519	0.042106	0.975462
C383	C	0.212253	-0.437101	0.496268
C384	C	0.712253	0.062899	0.996268
H385	H	0.179549	-0.405119	0.503805
H386	H	0.679549	0.094881	1.003805
H387	H	0.244534	-0.425001	0.470807
H388	H	0.744534	0.074999	0.970807
H389	H	0.218929	-0.464370	0.531015
H390	H	0.718929	0.035630	1.031015
O391	O	0.329040	-0.497374	0.545725
O392	O	0.829040	0.002626	1.045725
C393	C	0.361733	-0.543843	0.548390
C394	C	0.861733	-0.043843	1.048390
H395	H	0.397237	-0.541936	0.518941
H396	H	0.897237	-0.041936	1.018941
H397	H	0.347330	-0.564302	0.543892
H398	H	0.847330	-0.064302	1.043892
H399	H	0.367067	-0.562867	0.584492
H400	H	0.867067	-0.062867	1.084492
H401	H	0.055974	-0.119015	0.558014
H402	H	0.555974	0.380985	1.058014
O403	O	0.427270	-0.530018	0.512889
O404	O	0.927270	-0.030018	1.012889
C405	C	0.476591	-0.537805	0.493131
C406	C	0.976591	-0.037805	0.993131
H407	H	0.483371	-0.503505	0.464567
H408	H	0.983371	-0.003505	0.964567
H409	H	0.495523	-0.566918	0.476566
H410	H	0.995523	-0.066918	0.976566
H411	H	0.490761	-0.549289	0.522283
H412	H	0.990761	-0.049289	1.022283
H413	H	0.423225	-0.376108	0.456057
H414	H	0.923225	0.123892	0.956057
H415	H	0.159856	-0.209371	0.440456
H416	H	0.659856	0.290629	0.940456
O417	O	0.328978	-0.338341	0.485114
O418	O	0.828978	0.161659	0.985114
C419	C	0.361643	-0.313644	0.460624
C420	C	0.861643	0.186356	0.960624
H421	H	0.397178	-0.339216	0.466351
H422	H	0.897178	0.160784	0.966351
H423	H	0.347252	-0.283593	0.474736
H424	H	0.847252	0.216407	0.974736
H425	H	0.366912	-0.298153	0.420981
H426	H	0.866912	0.201847	0.920981
H427	H	0.086148	-0.209418	0.588113
H428	H	0.586148	0.290582	1.088113
O429	O	0.131616	-0.115120	0.402643
O430	O	0.631616	0.384880	0.902643
C431	C	0.160444	-0.147786	0.377607
C432	C	0.660444	0.352214	0.877607
H433	H	0.178592	-0.183309	0.401354
H434	H	0.678592	0.316691	0.901354
H435	H	0.188611	-0.133371	0.344337
H436	H	0.688611	0.366629	0.844337
H437	H	0.137440	-0.153094	0.366886
H438	H	0.637440	0.346906	0.866886
H439	H	-0.028474	-0.460433	0.068892
H440	H	0.471526	0.039567	0.568892
H441	H	-0.058738	-0.490513	0.159288
H442	H	0.441262	0.009487	0.659288
H443	H	0.015032	-0.638195	0.159378
H444	H	0.515032	-0.138195	0.659378
O445	O	0.049735	-0.613248	0.065112
O446	O	0.549735	-0.113248	0.565112
C447	C	0.024556	-0.642010	0.077226
C448	C	0.524556	-0.142010	0.577226
H449	H	-0.004490	-0.642466	0.113378
H450	H	0.495510	-0.142466	0.613378
H451	H	0.050105	-0.679818	0.078965
H452	H	0.550105	-0.179818	0.578965
H453	H	0.007694	-0.627007	0.049129
H454	H	0.507694	-0.127007	0.549129
O455	O	-0.063550	-0.485394	0.327865
O456	O	0.436450	0.014606	0.827865
C457	C	-0.105351	-0.456542	0.352979
C458	C	0.394649	0.043458	0.852979
H459	H	-0.112334	-0.475774	0.392856
H460	H	0.387666	0.024226	0.892856
H461	H	-0.136713	-0.448975	0.344000
H462	H	0.363287	0.051025	0.844000
H463	H	-0.100806	-0.421548	0.342390
H464	H	0.399194	0.078452	0.842390
O465	O	-0.030721	-0.452715	0.360562
O466	O	0.469279	0.047285	0.860562
C467	C	-0.013605	-0.432057	0.310652
C468	C	0.486395	0.067943	0.810652
H469	H	0.017127	-0.460465	0.294633
H470	H	0.517127	0.039535	0.794633
H471	H	-0.000643	-0.402714	0.301144
H472	H	0.499357	0.097286	0.801144
H473	H	-0.043459	-0.416287	0.295820
H474	H	0.456541	0.083713	0.795820
H475	H	0.044746	-0.608091	0.436494
H476	H	0.544746	-0.108091	0.936494
H477	H	0.050956	-0.774133	0.341399
H478	H	0.550956	-0.274133	0.841399
O479	O	0.016526	-0.645886	0.408234
O480	O	0.516526	-0.145886	0.908234
C481	C	-0.000596	-0.666555	0.458143
C482	C	0.499404	-0.166555	0.958143
H483	H	-0.005501	-0.642932	0.475601
H484	H	0.494499	-0.142932	0.975601
H485	H	0.026076	-0.703228	0.469835
H486	H	0.526076	-0.203228	0.969835
H487	H	-0.036208	-0.670221	0.469349
H488	H	0.463792	-0.170221	0.969349
O489	O	0.088673	-0.868436	0.370389
O490	O	0.588673	-0.368436	0.870389
C491	C	0.114443	-0.856282	0.321203
C492	C	0.614443	-0.356282	0.821203
H493	H	0.089998	-0.842562	0.300560
H494	H	0.589998	-0.342562	0.800560
H495	H	0.145405	-0.889077	0.313177
H496	H	0.645405	-0.389077	0.813177
H497	H	0.128764	-0.827381	0.310100
H498	H	0.628764	-0.327381	0.810100
O499	O	-0.102954	-0.769980	0.398030
O500	O	0.397046	-0.269980	0.898030
C501	C	-0.110718	-0.720661	0.378277
C502	C	0.389282	-0.220661	0.878277
H503	H	-0.080271	-0.713887	0.375939
H504	H	0.419729	-0.213887	0.875939
H505	H	-0.145731	-0.701693	0.401808
H506	H	0.354269	-0.201693	0.901808
H507	H	-0.112429	-0.706522	0.341112
H508	H	0.387571	-0.206522	0.841112
O509	O	-0.228100	-0.605559	0.447869
O510	O	0.271900	-0.105559	0.947869
C511	C	-0.240315	-0.647328	0.476655
C512	C	0.259685	-0.147328	0.976655
H513	H	-0.276479	-0.640605	0.477076
H514	H	0.223521	-0.140605	0.977076
H515	H	-0.242079	-0.657832	0.514467
H516	H	0.257921	-0.157832	1.014467
H517	H	-0.212267	-0.677324	0.461699
H518	H	0.287733	-0.177324	0.961699
O519	O	-0.326300	-0.572583	0.480405
O520	O	0.173700	-0.072583	0.980405
C521	C	-0.355129	-0.530697	0.492422
C522	C	0.144871	-0.030697	0.992422
H523	H	-0.340074	-0.500786	0.464350
H524	H	0.159926	-0.000786	0.964350
H525	H	-0.355746	-0.537263	0.528622
H526	H	0.144254	-0.037263	1.028622
H527	H	-0.392880	-0.520172	0.494013
H528	H	0.107120	-0.020172	0.994013
O529	O	-0.325953	-0.492475	0.319827
O530	O	0.174047	0.007525	0.819827
C531	C	-0.293220	-0.485469	0.273054
C532	C	0.206780	0.014531	0.773054
H533	H	-0.257714	-0.491074	0.273208
H534	H	0.242286	0.008926	0.773208
H535	H	-0.307568	-0.447674	0.249362
H536	H	0.192432	0.052326	0.749362
H537	H	-0.287908	-0.511993	0.258769
H538	H	0.212092	-0.011993	0.758769
H539	H	-0.231721	-0.527215	0.295000
H540	H	0.268279	-0.027215	0.795000
