data_functionalizedCrystal
_audit_creation_method	'MofGen! by Chris Wilmer'
_symmetry_space_group_name_H-M	'P1'
_symmetry_Int_Tables_number	1
_symmetry_cell_setting	triclinic
loop_
_symmetry_equiv_pos_as_xyz
  x,y,z
_cell_length_a	18.050582
_cell_length_b	21.395364
_cell_length_c	18.050589
_cell_angle_alpha	90.043172
_cell_angle_beta	89.981795
_cell_angle_gamma	89.985084
loop_
_atom_site_label
_atom_site_type_symbol
_atom_site_fract_x
_atom_site_fract_y
_atom_site_fract_z
Zn1	Zn	-0.419935	0.957810	-0.295410
Zn2	Zn	0.080065	1.457810	0.204590
Zn3	Zn	-0.295755	0.957735	-0.419594
Zn4	Zn	0.204245	1.457735	0.080406
Zn5	Zn	-0.295759	0.853043	-0.295454
Zn6	Zn	0.204241	1.353043	0.204546
Zn7	Zn	-0.419903	0.852999	-0.419595
Zn8	Zn	0.080097	1.352999	0.080405
O9	O	-0.357838	0.905397	-0.357514
O10	O	0.142162	1.405397	0.142486
O11	O	-0.403474	1.045478	-0.311864
O12	O	0.096526	1.545478	0.188136
O13	O	-0.191830	0.943834	-0.403144
O14	O	0.308170	1.443834	0.096856
O15	O	-0.312247	0.866991	-0.191524
O16	O	0.187753	1.366991	0.308476
O17	O	-0.312239	1.045423	-0.403101
O18	O	0.187761	1.545423	0.096899
O19	O	-0.403478	0.943963	-0.191492
O20	O	0.096522	1.443963	0.308508
O21	O	-0.191834	0.866918	-0.311939
O22	O	0.308166	1.366918	0.188061
O23	O	-0.312216	0.765359	-0.311941
O24	O	0.187784	1.265359	0.188059
O25	O	-0.523832	0.866916	-0.403104
O26	O	-0.023832	1.366916	0.096896
O27	O	-0.403424	0.765327	-0.403147
O28	O	0.096576	1.265327	0.096853
O29	O	-0.523855	0.943920	-0.311866
O30	O	-0.023855	1.443920	0.188134
O31	O	-0.312208	0.943792	-0.523519
O32	O	0.187792	1.443792	-0.023519
O33	O	-0.403419	0.866843	-0.523520
O34	O	0.096581	1.366843	-0.023520
C35	C	-0.357817	0.742609	-0.357550
C36	C	0.142183	1.242609	0.142450
C37	C	-0.357826	0.672968	-0.357583
C38	C	0.142174	1.172968	0.142417
C39	C	-0.405405	0.640306	-0.310154
C40	C	0.094595	1.140306	0.189846
C41	C	-0.405408	0.574871	-0.310134
C42	C	0.094592	1.074871	0.189866
C43	C	-0.357839	0.542100	-0.357557
C44	C	0.142161	1.042100	0.142443
C45	C	-0.310251	0.574770	-0.404989
C46	C	0.189749	1.074770	0.095011
C47	C	-0.310244	0.640204	-0.405003
C48	C	0.189756	1.140204	0.094997
C49	C	-0.351875	0.438379	-0.424437
C50	C	0.148125	0.938379	0.075563
C51	C	-0.351887	0.372946	-0.424426
C52	C	0.148113	0.872946	0.075574
C53	C	-0.357856	0.340279	-0.357516
C54	C	0.142144	0.840279	0.142484
C55	C	-0.363828	0.373053	-0.290616
C56	C	0.136172	0.873053	0.209384
C57	C	-0.363822	0.438487	-0.290629
C58	C	0.136178	0.938487	0.209371
C59	C	-0.357841	0.471147	-0.357547
C60	C	0.142159	0.971147	0.142453
C61	C	-0.405441	0.236665	-0.310061
C62	C	0.094559	0.736665	0.189939
C63	C	-0.405439	0.171228	-0.310040
C64	C	0.094561	0.671228	0.189960
C65	C	-0.310285	0.171128	-0.404902
C66	C	0.189715	0.671128	0.095098
C67	C	-0.310283	0.236563	-0.404917
C68	C	0.189717	0.736563	0.095083
C69	C	-0.357865	0.269328	-0.357497
C70	C	0.142135	0.769328	0.142503
C71	C	-0.551544	0.905422	-0.357481
C72	C	-0.051544	1.405422	0.142519
C73	C	-0.634089	0.905432	-0.357467
C74	C	-0.134089	1.405432	0.142533
C75	C	-0.833527	0.863589	-0.407014
C76	C	-0.333527	1.363589	0.092986
C77	C	-0.882920	0.920752	-0.425150
C78	C	-0.382920	1.420752	0.074850
C79	C	-0.785220	0.905463	-0.357410
C80	C	-0.285220	1.405463	0.142590
C81	C	-0.882909	0.848331	-0.339253
C82	C	-0.382909	1.348331	0.160747
C83	C	-0.931205	0.905488	-0.357356
C84	C	-0.431205	1.405488	0.142644
C85	C	-0.833525	0.962656	-0.375581
C86	C	-0.333525	1.462656	0.124419
C87	C	-0.833510	0.890197	-0.289653
C88	C	-0.333510	1.390197	0.210347
C89	C	-0.882880	0.947399	-0.307763
C90	C	-0.382880	1.447399	0.192237
C91	C	-0.701122	0.905448	-0.357442
C92	C	-0.201122	1.405448	0.142558
C93	C	-1.015302	0.905509	-0.357324
C94	C	-0.515302	1.405509	0.142676
C95	C	-0.164886	0.905409	-0.357493
C96	C	0.335114	1.405409	0.142507
C97	C	-0.082340	0.905520	-0.357298
C98	C	0.417660	1.405520	0.142702
C99	C	-0.357826	0.905321	-0.550466
C100	C	0.142174	1.405321	-0.050466
C101	C	-0.357845	0.905346	-0.633011
C102	C	0.142155	1.405346	-0.133011
C103	C	-0.357859	1.068820	-0.357478
C104	C	0.142141	1.568820	0.142522
C105	C	-0.357868	1.138462	-0.357463
C106	C	0.142132	1.638462	0.142537
C107	C	-0.407429	0.863543	-0.832490
C108	C	0.092571	1.363543	-0.332490
C109	C	-0.339661	0.848274	-0.881928
C110	C	0.160339	1.348274	-0.381928
C111	C	-0.357855	0.905408	-0.784142
C112	C	0.142145	1.405408	-0.284142
C113	C	-0.425630	0.920707	-0.881785
C114	C	0.074370	1.420707	-0.381785
C115	C	-0.357870	0.905466	-0.930127
C116	C	0.142130	1.405466	-0.430127
C117	C	-0.290052	0.890109	-0.832493
C118	C	0.209948	1.390109	-0.332493
C119	C	-0.376066	0.962569	-0.832345
C120	C	0.123934	1.462569	-0.332345
C121	C	-0.308252	0.947322	-0.881762
C122	C	0.191748	1.447322	-0.381762
C123	C	-0.357847	0.905373	-0.700043
C124	C	0.142153	1.405373	-0.200043
C125	C	-0.357870	0.905501	-1.014223
C126	C	0.142130	1.405501	-0.514223
C127	C	-0.357867	0.905490	-0.163808
C128	C	0.142133	1.405490	0.336192
C129	C	-0.357879	0.905530	-0.081262
C130	C	0.142121	1.405530	0.418738
H131	H	-0.347027	0.346266	-0.478899
H132	H	0.152973	0.846266	0.021101
H133	H	-0.271542	0.263157	-0.443542
H134	H	0.228458	0.763157	0.056458
H135	H	-0.391488	1.010870	-0.810552
H136	H	0.108512	1.510870	-0.310552
H137	H	-0.904413	0.982862	-0.265792
H138	H	-0.404413	1.482862	0.234208
H139	H	-0.444180	0.263343	-0.271445
H140	H	0.055820	0.763343	0.228555
H141	H	-0.482940	0.933624	-0.903437
H142	H	0.017060	1.433624	-0.403437
H143	H	-0.444150	0.666979	-0.271540
H144	H	0.055850	1.166979	0.228460
H145	H	-0.811924	1.010996	-0.390981
H146	H	-0.311924	1.510996	0.109019
N147	N	-0.806268	0.873954	-0.217819
N148	N	-0.306268	1.373954	0.282181
N149	N	-0.822060	0.822092	-0.190170
N150	N	-0.322060	1.322092	0.309830
H151	H	-0.802821	0.810614	-0.139436
H152	H	-0.302821	1.310614	0.360564
N153	N	-0.910109	0.787704	-0.320016
N154	N	-0.410109	1.287704	0.179984
N155	N	-0.865672	0.744298	-0.306844
N156	N	-0.365672	1.244298	0.193156
H157	H	-0.884878	0.701477	-0.293264
H158	H	-0.384878	1.201477	0.206736
N159	N	-0.454030	0.541508	-0.261693
N160	N	0.045970	1.041508	0.238307
N161	N	-0.496517	0.570769	-0.219368
N162	N	0.003483	1.070769	0.280632
H163	H	-0.530863	0.547209	-0.185162
H164	H	-0.030863	1.047209	0.314838
N165	N	-0.261662	0.541308	-0.453442
N166	N	0.238338	1.041308	0.046558
N167	N	-0.219184	0.570482	-0.495790
N168	N	0.280816	1.070482	0.004210
H169	H	-0.184864	0.546851	-0.530011
H170	H	0.315136	1.046851	-0.030011
N171	N	-0.345766	0.471734	-0.492795
N172	N	0.154234	0.971734	0.007205
N173	N	-0.340438	0.442466	-0.552519
N174	N	0.159562	0.942466	-0.052519
H175	H	-0.336122	0.466022	-0.600795
H176	H	0.163878	0.966022	-0.100795
H177	H	-0.271498	0.666797	-0.443626
H178	H	0.228502	1.166797	0.056374
N179	N	-0.218139	0.873815	-0.805457
N180	N	0.281861	1.373815	-0.305457
N181	N	-0.190250	0.822154	-0.821908
N182	N	0.309750	1.322154	-0.321908
H183	H	-0.139463	0.810642	-0.802815
H184	H	0.360537	1.310642	-0.302815
N185	N	-0.459944	0.819060	-0.805353
N186	N	0.040056	1.319060	-0.305353
N187	N	-0.453058	0.762491	-0.821287
N188	N	0.046942	1.262491	-0.321287
H189	H	-0.490143	0.731073	-0.802121
H190	H	0.009857	1.231073	-0.302121
H191	H	-0.444182	0.144636	-0.271413
H192	H	0.055818	0.644636	0.228587
H193	H	-0.324272	0.799962	-0.903724
H194	H	0.175728	1.299962	-0.403724
H195	H	-0.811858	0.828211	-0.449018
H196	H	-0.311858	1.328211	0.050982
H197	H	-0.266287	0.982751	-0.903260
H198	H	0.233713	1.482751	-0.403260
H199	H	-0.368682	0.465170	-0.236157
H200	H	0.131318	0.965170	0.263843
H201	H	-0.271553	0.144447	-0.443515
H202	H	0.228447	0.644447	0.056485
H203	H	-0.368689	0.346458	-0.236132
H204	H	0.131311	0.846458	0.263868
N205	N	-0.910142	0.936965	-0.497007
N206	N	-0.410142	1.436965	0.002993
N207	N	-0.894327	0.903697	-0.551728
N208	N	-0.394327	1.403697	-0.051728
H209	H	-0.913550	0.915143	-0.602478
H210	H	-0.413550	1.415143	-0.102478
