data_functionalizedCrystal
_audit_creation_method	'MofGen! by Chris Wilmer'
_symmetry_space_group_name_H-M	'P1'
_symmetry_Int_Tables_number	1
_symmetry_cell_setting	triclinic
loop_
_symmetry_equiv_pos_as_xyz
  x,y,z
_cell_length_a	8.497374
_cell_length_b	13.032831
_cell_length_c	13.032268
_cell_angle_alpha	89.113023
_cell_angle_beta	97.165050
_cell_angle_gamma	97.192176
loop_
_atom_site_label
_atom_site_type_symbol
_atom_site_fract_x
_atom_site_fract_y
_atom_site_fract_z
Zn1	Zn	1.065474	1.498661	0.781026
Zn2	Zn	1.300536	1.520443	0.609088
Zn3	Zn	0.999567	1.348508	0.587255
Zn4	Zn	1.292006	1.326690	0.759212
O5	O	1.164396	1.423576	0.684146
O6	O	1.127808	1.645476	0.776485
O7	O	1.236600	1.515883	0.462271
O8	O	0.787549	1.368441	0.612952
O9	O	1.300507	1.661480	0.650163
O10	O	0.835971	1.478758	0.755314
O11	O	1.015479	1.389563	0.446231
O12	O	1.007208	1.201688	0.591799
O13	O	1.285969	1.331255	0.906027
O14	O	1.222061	1.185658	0.718135
O15	O	1.119537	1.457602	0.922054
O16	O	1.520166	1.494726	0.629011
O17	O	1.513899	1.352377	0.739306
C18	C	1.106558	1.156355	0.650232
C19	C	1.081857	1.042033	0.635747
C20	C	1.177288	0.983173	0.691705
C21	C	1.151761	0.865016	0.676736
C22	C	1.574276	1.423561	0.684159
C23	C	1.752923	1.423590	0.684145
C24	C	1.209153	1.389565	0.952401
C25	C	1.228226	1.375072	1.066715
C26	C	1.222461	1.691840	0.718193
C27	C	1.247205	1.806158	0.732701
C28	C	1.119712	1.457513	0.416941
C29	C	1.100238	1.472205	0.302653
C30	C	1.154382	1.431124	1.125610
C31	C	1.174093	1.416146	1.243760
H32	H	1.347805	0.843235	0.791701
O33	O	0.962042	0.997779	0.565246
C34	C	0.891297	0.893886	0.411158
C35	C	1.027141	0.943960	0.490921
H36	H	0.943875	0.850343	0.351058
H37	H	0.823433	0.956549	0.371273
H38	H	0.805990	0.837633	0.452143
H39	H	1.112557	1.000205	0.450016
H40	H	1.094883	0.881241	0.530802
H41	H	1.051147	0.827937	0.617747
O42	O	1.061669	1.501595	1.081260
C43	C	0.957369	1.580707	0.923057
C44	C	1.062441	1.500876	0.973146
H45	H	0.957931	1.580137	0.835637
H46	H	1.006515	1.661018	0.954571
H47	H	0.829770	1.560014	0.941884
H48	H	1.190062	1.521473	0.954339
H49	H	1.013164	1.420587	0.941629
O50	O	1.266935	1.345741	1.288114
C51	C	1.371103	1.266554	1.446308
C52	C	1.265942	1.346334	1.396212
H53	H	1.370309	1.266991	1.533710
H54	H	1.498778	1.287255	1.427620
H55	H	1.321980	1.186290	1.414661
H56	H	1.314923	1.426625	1.427831
H57	H	1.138283	1.325544	1.414894
H58	H	1.022410	1.531281	1.265610
O59	O	1.297121	1.027511	0.762145
C60	C	1.367879	1.131318	0.916291
C61	C	1.232015	1.081185	0.836575
H62	H	1.315289	1.174707	0.976499
H63	H	1.453149	1.187676	0.875383
H64	H	1.435788	1.068613	0.956045
H65	H	1.163986	1.143818	0.796796
H66	H	1.146856	1.024805	0.877540
H67	H	1.306027	1.315988	1.103762
