data_functionalizedCrystal
_audit_creation_method	'MofGen! by Chris Wilmer'
_symmetry_space_group_name_H-M	'P1'
_symmetry_Int_Tables_number	1
_symmetry_cell_setting	triclinic
loop_
_symmetry_equiv_pos_as_xyz
  x,y,z
_cell_length_a	19.851628
_cell_length_b	18.426585
_cell_length_c	18.426585
_cell_angle_alpha	89.998487
_cell_angle_beta	60.005518
_cell_angle_gamma	120.003899
loop_
_atom_site_label
_atom_site_type_symbol
_atom_site_fract_x
_atom_site_fract_y
_atom_site_fract_z
Zr1	Zr	0.737363	0.095295	0.699161
O2	O	0.877895	0.211180	0.583290
O3	O	0.596831	0.059765	0.734675
O4	O	0.737369	0.211177	0.734678
O5	O	0.737352	-0.059663	0.583293
O6	O	0.737373	0.211180	0.854104
O7	O	0.737357	0.059768	0.583287
O8	O	0.485977	-0.059669	0.854099
O9	O	0.988749	0.211186	0.583298
O10	O	0.654637	0.044620	0.838956
O11	O	0.654630	-0.044512	0.749835
O12	O	0.820095	0.133756	0.749838
O13	O	0.820088	0.044624	0.660716
Zr14	Zr	0.737363	-0.095179	0.889642
Zr15	Zr	0.737370	0.095300	0.889632
Zr16	Zr	0.737355	-0.095184	0.699171
Zr17	Zr	0.914162	0.095304	0.699175
Zr18	Zr	0.560563	-0.095188	0.889628
O19	O	0.877895	-0.059649	0.854128
O20	O	0.877905	0.211187	0.854114
O21	O	0.877884	-0.059656	0.583304
O22	O	0.596831	-0.211064	1.005513
O23	O	0.596841	0.059772	1.005499
O24	O	0.596820	-0.211071	0.734689
O25	O	0.737373	0.059779	1.005510
O26	O	0.737357	-0.211061	0.854125
O27	O	0.737352	-0.211064	0.734700
O28	O	0.737369	-0.059652	1.005516
O29	O	0.988754	0.211190	0.734697
O30	O	0.485971	-0.211074	0.854106
O31	O	0.485977	-0.211070	1.005505
O32	O	0.485983	-0.059665	1.005497
O33	O	0.988743	0.059781	0.583306
O34	O	0.988749	0.059785	0.734704
O35	O	0.654630	-0.133640	0.838965
O36	O	0.654637	-0.044508	0.928087
O37	O	0.820095	0.044628	0.838969
O38	O	0.820088	-0.044504	0.749847
C39	C	0.516214	0.000047	0.794385
C40	C	0.441158	0.000043	0.794379
C41	C	0.737372	0.238318	0.794389
C42	C	0.737375	0.319181	0.794385
C43	C	0.737353	-0.238202	0.794414
C44	C	0.737350	-0.319065	0.794418
C45	C	0.259795	-0.048548	0.745802
C46	C	0.270135	0.035262	0.710579
C47	C	0.303737	0.000055	0.794394
C48	C	0.159682	-0.083735	0.829589
C49	C	0.170993	0.000060	0.794407
C50	C	0.315112	0.083915	0.759122
C51	C	0.204613	-0.035143	0.878179
C52	C	0.214987	0.048718	0.842977
C53	C	0.380209	0.000051	0.794384
C54	C	0.094528	0.000073	0.794415
C55	C	0.958512	0.000069	0.794418
C56	C	1.033568	0.000073	0.794424
C57	C	0.737353	0.000052	0.556152
C58	C	0.737350	0.000050	0.475292
C59	C	0.737347	0.615265	0.794419
C60	C	0.737350	0.532883	0.794411
C61	C	0.737361	0.467225	0.794401
C62	C	0.737365	0.384838	0.794395
C63	C	0.737379	0.000065	0.179178
C64	C	0.737375	0.000063	0.261563
C65	C	0.737365	0.000058	0.327232
C66	C	0.737360	0.000055	0.409624
C67	C	0.737372	0.000064	1.032651
C68	C	0.737375	0.000066	1.113511
C69	C	0.516223	0.000053	1.032634
C70	C	0.441170	0.000051	1.113488
C71	C	0.516204	-0.238213	0.794397
C72	C	0.441145	-0.319080	0.794396
C73	C	0.516214	-0.238207	1.032647
C74	C	0.441158	-0.319072	1.113505
C75	C	0.958512	0.238323	0.556156
C76	C	1.033568	0.319188	0.475298
C77	C	0.958502	0.000063	0.556169
C78	C	1.033555	0.000065	0.475315
C79	C	0.958521	0.238329	0.794406
C80	C	1.033580	0.319196	0.794407
C81	C	0.405924	0.046582	1.104933
C82	C	0.335414	0.046598	1.180897
C83	C	0.300146	0.000077	1.265415
C84	C	0.335399	-0.046455	1.273969
C85	C	0.405912	-0.046465	1.198006
C86	C	0.405896	-0.403588	0.840920
C87	C	0.335380	-0.479578	0.840916
C88	C	0.300109	-0.471059	0.794391
C89	C	0.335365	-0.386542	0.747861
C90	C	0.405884	-0.310554	0.747861
C91	C	0.405914	-0.310521	1.198005
C92	C	0.335401	-0.386495	1.273988
C93	C	0.300128	-0.471019	1.265468
C94	C	0.335378	-0.479568	1.180958
C95	C	0.405895	-0.403595	1.104978
C96	C	1.068820	0.310637	0.390798
C97	C	1.139355	0.386611	0.314815
C98	C	1.174632	0.471135	0.323336
C99	C	1.139377	0.479684	0.407845
C100	C	1.068848	0.403711	0.483825
C101	C	1.068808	-0.046458	0.483870
C102	C	1.139338	-0.046453	0.407906
C103	C	1.174609	0.000070	0.323388
C104	C	1.139353	0.046599	0.314834
C105	C	1.068829	0.046598	0.390797
C106	C	1.068829	0.310648	0.840941
C107	C	1.139346	0.386624	0.840960
C108	C	1.174617	0.471147	0.794439
C109	C	1.139361	0.479693	0.747904
C110	C	1.068841	0.403718	0.747891
H111	H	0.279535	-0.089587	0.704656
H112	H	1.168031	-0.084346	0.414888
H113	H	1.168081	0.084477	0.246009
H114	H	0.306648	-0.548398	1.174034
H115	H	0.306720	0.084490	1.173915
H116	H	0.306673	-0.084330	1.342794
H117	H	0.306707	-0.379518	1.342792
H118	H	0.434574	-0.241747	0.709978
H119	H	1.168043	0.379648	0.878853
H120	H	1.232039	0.533003	0.794457
H121	H	0.306684	-0.548388	0.878809
H122	H	0.434606	-0.410541	0.878807
H123	H	0.434623	-0.241704	1.204960
H124	H	0.242728	0.000092	1.327262
H125	H	1.168109	0.548513	0.414772
H126	H	0.434581	-0.410570	1.036177
H127	H	0.434600	-0.084361	1.204984
H128	H	0.306636	-0.379619	0.709981
H129	H	0.381513	0.154810	0.729280
H130	H	0.177663	-0.064940	0.949014
H131	H	0.093250	-0.154596	0.859348
H132	H	0.242708	-0.532874	1.327343
H133	H	1.232033	0.000063	0.261541
H134	H	1.040128	0.084481	0.383819
H135	H	1.232061	0.532990	0.261460
H136	H	0.242688	-0.532941	0.794398
H137	H	1.168090	0.548521	0.710028
H138	H	0.297098	0.065039	0.639728
H139	H	1.040149	0.410690	0.709994
H140	H	0.434639	0.084475	1.036121
H141	H	1.040101	0.241820	0.383843
H142	H	1.168047	0.379632	0.246012
H143	H	1.040146	0.410684	0.552627
H144	H	0.195452	0.089879	0.884066
H145	H	1.040096	-0.084349	0.552682
H146	H	1.040122	0.241832	0.878824
