data_functionalizedCrystal
_audit_creation_method	'MofGen! by Chris Wilmer'
_symmetry_space_group_name_H-M	'P1'
_symmetry_Int_Tables_number	1
_symmetry_cell_setting	triclinic
loop_
_symmetry_equiv_pos_as_xyz
  x,y,z
_cell_length_a	6.817900
_cell_length_b	10.992421
_cell_length_c	10.992410
_cell_angle_alpha	91.831025
_cell_angle_beta	108.764651
_cell_angle_gamma	108.764763
loop_
_atom_site_label
_atom_site_type_symbol
_atom_site_fract_x
_atom_site_fract_y
_atom_site_fract_z
V1	V	-4.114248	-0.177761	-0.400575
O2	O	-4.072376	0.008542	-0.392968
O3	O	-4.091827	-0.352470	-0.397818
O4	O	-4.091840	-0.175026	-0.575288
O5	O	-4.072363	-0.170129	-0.214270
V6	V	-4.591142	-0.155477	-0.378294
O7	O	-4.390048	-0.226642	-0.449452
O8	O	-4.765539	-0.106595	-0.329417
O9	O	-4.390356	0.019232	-0.381051
O10	O	-4.750411	-0.341780	-0.385901
O11	O	-4.750424	-0.163108	-0.564599
O12	O	-4.390343	-0.158211	-0.203581
C13	C	-3.942307	-0.395060	-0.391494
C14	C	-4.005435	-0.537887	-0.390404
C15	C	-3.873099	-0.733174	-0.381618
C16	C	-3.807017	-0.584530	-0.382242
C17	C	-4.076044	-0.576522	-0.270588
C18	C	-4.140279	-0.725065	-0.269320
C19	C	-4.271785	-0.763647	-0.514935
C20	C	-4.202731	-0.615133	-0.517535
C21	C	-3.942322	-0.168712	-0.617873
C22	C	-4.005457	-0.167632	-0.760702
C23	C	-3.872580	-0.157795	-0.955826
C24	C	-3.807029	-0.159451	-0.807343
C25	C	-4.203473	-0.294312	-0.837793
C26	C	-4.267786	-0.293192	-0.986360
C27	C	-4.145552	-0.047893	-0.948352
C28	C	-4.074843	-0.047293	-0.799340
C29	C	-4.203219	0.061816	-0.387371
C30	C	-4.119331	0.204641	-0.388470
C31	C	-4.203203	-0.164530	-0.160989
C32	C	-4.119306	-0.165603	-0.018159
H33	H	-3.757306	-0.753734	-0.290415
H34	H	-3.931589	0.046420	-0.746991
C35	C	-4.037597	-0.891166	-0.574857
C36	C	-3.838210	-0.795848	-0.496463
H37	H	-4.016052	-0.929870	-0.645753
H38	H	-4.146555	-0.852426	-0.606948
H39	H	-4.085386	-0.955859	-0.525036
H40	H	-3.790430	-0.731150	-0.546281
H41	H	-3.729217	-0.834588	-0.464371
H42	H	-3.935455	-0.522284	-0.176470
H43	H	-3.749849	-0.245200	-0.782519
H44	H	-3.658336	-0.532087	-0.290964
H45	H	-4.221676	-0.546286	-0.271970
C46	C	-3.544617	0.039325	-0.825874
C47	C	-3.606594	-0.036498	-0.735338
H48	H	-3.420859	0.115226	-0.781423
H49	H	-3.664533	0.063559	-0.875920
H50	H	-3.506390	-0.009386	-0.881667
H51	H	-3.644838	0.012209	-0.679551
H52	H	-3.486653	-0.060731	-0.685270
H53	H	-4.252224	-0.382320	-1.032621
H54	H	-4.042638	0.048305	-0.968721
C55	C	-4.580043	-0.422396	-0.869300
C56	C	-4.406481	-0.308590	-0.798908
H57	H	-4.705370	-0.431202	-0.845295
H58	H	-4.535483	-0.495233	-0.850696
H59	H	-4.617007	-0.417922	-0.959651
H60	H	-4.369505	-0.313068	-0.708557
H61	H	-4.451048	-0.235734	-0.817503
H62	H	-4.451634	-0.804764	-0.521215
H63	H	-4.029479	-0.742580	-0.174188
C64	C	-4.628802	-0.420368	-1.136668
C65	C	-4.513477	-0.308064	-1.043939
H66	H	-4.780475	-0.429551	-1.172220
H67	H	-4.615580	-0.494054	-1.096629
H68	H	-4.568579	-0.413648	-1.204054
H69	H	-4.573689	-0.314788	-0.976547
H70	H	-4.526712	-0.234360	-1.083978
C71	C	-4.092175	-0.418150	-0.669735
C72	C	-4.141702	-0.414930	-0.803224
H73	H	-4.054018	-0.492607	-0.648395
H74	H	-4.217582	-0.422066	-0.647669
H75	H	-3.971305	-0.341965	-0.622610
H76	H	-4.262582	-0.491111	-0.850348
H77	H	-4.016280	-0.411025	-0.825303
H78	H	-3.755376	-0.066081	-0.974664
C79	C	-4.395166	0.058625	-1.057524
C80	C	-4.387162	-0.054091	-1.003488
H81	H	-4.544326	0.054792	-1.091560
H82	H	-4.336072	0.064994	-1.125382
H83	H	-4.310554	0.132533	-0.992266
H84	H	-4.471762	-0.127999	-1.068749
H85	H	-4.446286	-0.060473	-0.935624
H86	H	-3.749893	-0.558765	-0.467855
H87	H	-4.216956	-0.045805	-0.766828
H88	H	-4.316491	-0.765948	-0.269130
C89	C	-4.474610	-0.599166	-0.429251
C90	C	-4.404951	-0.574373	-0.535597
H91	H	-4.599462	-0.574007	-0.440400
H92	H	-4.358058	-0.550985	-0.351784
H93	H	-4.513589	-0.689327	-0.423462
H94	H	-4.365956	-0.484209	-0.541379
H95	H	-4.521528	-0.622552	-0.613085
H96	H	-3.847642	-0.242371	-1.003810
H97	H	-4.265447	-0.813163	-0.605597
H98	H	-4.153731	-0.591237	-0.606180
