data_functionalizedCrystal
_audit_creation_method	'MofGen! by Chris Wilmer'
_symmetry_space_group_name_H-M	'P1'
_symmetry_Int_Tables_number	1
_symmetry_cell_setting	triclinic
loop_
_symmetry_equiv_pos_as_xyz
  x,y,z
_cell_length_a	14.853567
_cell_length_b	15.072220
_cell_length_c	14.853567
_cell_angle_alpha	89.994416
_cell_angle_beta	96.365070
_cell_angle_gamma	90.000977
loop_
_atom_site_label
_atom_site_type_symbol
_atom_site_fract_x
_atom_site_fract_y
_atom_site_fract_z
O1	O	1.196363	0.073714	-0.117710
O2	O	0.933904	0.073728	-0.131732
O3	O	1.072144	0.073723	0.006509
O4	O	1.058123	0.073718	-0.255951
O5	O	1.072135	-0.073842	0.006525
O6	O	0.933895	-0.073837	-0.131715
O7	O	1.196354	-0.073851	-0.117694
Zn8	Zn	1.065123	-0.097273	-0.124702
Zn9	Zn	1.065135	0.097150	-0.124724
O10	O	1.058114	-0.073847	-0.255934
C11	C	0.900311	-0.000053	-0.131088
C12	C	0.800227	-0.000047	-0.129184
N13	N	1.065121	-0.229962	-0.124686
C14	C	0.387693	-0.000065	-0.039019
C15	C	0.366412	-0.000067	-0.203251
C16	C	0.460446	-0.000064	-0.205041
C17	C	0.518108	-0.000061	-0.123819
C18	C	0.481736	-0.000060	-0.040806
C19	C	0.496825	-0.000056	-0.288053
C20	C	0.590864	-0.000052	-0.289846
C21	C	0.648528	-0.000055	-0.208623
C22	C	0.612150	-0.000055	-0.125607
C23	C	0.669812	-0.000051	-0.044384
C24	C	0.633437	-0.000058	0.038633
C25	C	0.539399	-0.000062	0.040417
C26	C	0.742565	-0.000051	-0.210407
C27	C	0.763855	-0.000046	-0.046172
C28	C	1.065136	-0.589164	-0.124717
C29	C	1.139346	-0.551532	-0.050995
C30	C	1.139152	-0.448706	-0.050722
C31	C	1.065129	-0.410960	-0.124702
C32	C	0.971045	-0.448297	-0.104039
C33	C	0.971484	-0.551155	-0.103518
C34	C	1.084163	-0.551244	-0.219318
C35	C	1.086297	-0.448379	-0.218687
C36	C	1.065120	-0.310246	-0.124695
C37	C	1.065139	-0.689877	-0.124722
C38	C	1.229947	-0.000069	-0.118337
C39	C	1.330031	-0.000069	-0.120241
C40	C	1.071504	-0.000057	0.040106
C41	C	1.069601	-0.000049	0.140189
N42	N	1.065144	0.229839	-0.124732
C43	C	1.058754	-0.000065	-0.289531
C44	C	1.060657	-0.000067	-0.389615
C45	C	0.979435	-0.000061	0.552723
C46	C	1.143668	-0.000070	0.574004
C47	C	1.145458	-0.000065	0.479971
C48	C	1.064235	-0.000059	0.422309
C49	C	0.981223	-0.000059	0.458680
C50	C	1.228469	-0.000074	0.443591
C51	C	1.230262	-0.000070	0.349552
C52	C	1.149039	-0.000058	0.291889
C53	C	1.066023	-0.000057	0.328266
C54	C	0.984800	-0.000051	0.270604
C55	C	0.901783	-0.000043	0.306979
C56	C	0.899999	-0.000047	0.401017
C57	C	1.150823	-0.000055	0.197851
C58	C	0.986588	-0.000048	0.176561
H59	H	0.810798	-0.000046	0.019971
Br60	Br	1.118856	-0.407697	0.066283
Br61	Br	1.253893	-0.000097	0.652259
H62	H	0.680397	-0.000049	0.104764
Br63	Br	0.787343	-0.000030	0.450389
H64	H	0.914487	-0.423848	-0.156300
H65	H	1.209514	-0.576265	-0.063118
H66	H	0.358072	-0.000074	0.028572
H67	H	0.954732	-0.575152	-0.034523
Br68	Br	0.866774	-0.000038	0.602086
H69	H	0.509774	-0.000089	0.108005
H70	H	0.449870	-0.000050	-0.354180
Br71	Br	0.640223	-0.000044	-0.402509
Br72	Br	0.876351	-0.000030	0.098312
Br73	Br	1.196084	-0.594464	-0.252365
Br74	Br	1.338693	-0.000106	0.521849
Br75	Br	0.791557	-0.000047	0.228714
H76	H	0.319459	-0.000063	-0.269379
H77	H	1.127354	-0.577388	0.018809
Br78	Br	0.791930	-0.000032	-0.323063
Br79	Br	1.263479	-0.000087	0.148487
Br80	Br	1.255707	-0.406625	-0.071275
H81	H	0.914597	-0.576049	-0.155166
Br82	Br	1.342925	-0.000067	0.300193
Br83	Br	0.942438	-0.405376	0.009650
Br84	Br	1.201652	-0.407699	-0.244825
H85	H	1.035758	-0.422683	-0.276126
H86	H	1.030049	-0.575584	-0.274182
