data_functionalizedCrystal
_audit_creation_method	'MofGen! by Chris Wilmer'
_symmetry_space_group_name_H-M	'P1'
_symmetry_Int_Tables_number	1
_symmetry_cell_setting	triclinic
loop_
_symmetry_equiv_pos_as_xyz
  x,y,z
_cell_length_a	14.519731
_cell_length_b	14.971486
_cell_length_c	14.048226
_cell_angle_alpha	90.000262
_cell_angle_beta	90.003664
_cell_angle_gamma	96.348509
loop_
_atom_site_label
_atom_site_type_symbol
_atom_site_fract_x
_atom_site_fract_y
_atom_site_fract_z
O1	O	0.120178	-1.187022	0.079053
O2	O	0.134570	-0.926631	0.079079
O3	O	-0.006867	-1.063720	0.079057
O4	O	0.261615	-1.049932	0.079076
O5	O	-0.006866	-1.063707	-0.079264
O6	O	0.134571	-0.926618	-0.079242
O7	O	0.120179	-1.187009	-0.079268
Zn8	Zn	0.127375	-1.056811	-0.104392
Zn9	Zn	0.127374	-1.056828	0.104203
O10	O	0.261616	-1.049919	-0.079246
C11	C	0.133927	-0.893299	-0.000078
C12	C	0.131998	-0.794001	-0.000068
C13	C	-0.041226	-1.063068	-0.000104
C14	C	-0.143605	-1.061132	-0.000104
C15	C	-0.226748	-1.059559	-0.000102
C16	C	-0.331056	-1.057593	-0.000094
C17	C	-0.414194	-1.056033	-0.000088
C18	C	-0.518508	-1.054068	-0.000082
C19	C	0.120822	-1.220340	-0.000109
C20	C	0.122751	-1.319639	-0.000112
C21	C	0.295975	-1.050572	-0.000083
C22	C	0.398354	-1.052508	-0.000076
N23	N	0.127376	-1.056806	-0.246753
C24	C	0.215089	-0.736828	-0.000064
C25	C	0.213271	-0.643528	-0.000078
C26	C	0.128361	-0.607401	-0.000090
C27	C	0.045264	-0.664581	-0.000097
C28	C	0.047083	-0.757880	-0.000090
C29	C	0.041479	-0.470116	-0.000111
C30	C	0.039660	-0.376811	-0.000116
C31	C	0.207667	-0.355764	-0.000099
C32	C	0.209486	-0.449063	-0.000091
C33	C	0.126388	-0.506236	-0.000097
C34	C	0.071339	-1.002502	-0.703618
C35	C	0.071336	-1.002499	-0.603961
C36	C	0.127366	-1.056830	-0.554123
C37	C	0.183395	-1.111174	-0.603947
C38	C	0.183392	-1.111181	-0.703603
C39	C	0.183399	-1.111153	-0.396233
C40	C	0.183403	-1.111144	-0.296570
C41	C	0.071342	-1.002470	-0.296591
C42	C	0.071339	-1.002478	-0.396246
C43	C	0.127370	-1.056821	-0.446064
N44	N	0.127366	-1.056841	0.246564
H45	H	0.284232	-0.766235	-0.000053
H46	H	0.275328	-0.309209	-0.000099
F47	F	0.011713	-0.944646	-0.449286
F48	F	-0.050710	-0.338365	-0.000154
H49	H	0.278626	-0.478474	-0.000073
F50	F	-0.046963	-0.530963	-0.000120
F51	F	0.011710	-0.944633	-0.243570
H52	H	-0.023870	-0.635160	-0.000121
F53	F	0.243022	-1.169001	-0.550903
F54	F	0.243008	-1.168996	-0.243531
F55	F	0.243029	-1.168995	-0.449251
H56	H	0.229015	-1.155429	-0.744163
H57	H	0.280932	-0.596981	-0.000073
H58	H	-0.020578	-0.804430	-0.000093
H59	H	0.025717	-0.958255	-0.744189
H60	H	0.025710	-0.958254	-0.563403
