data_functionalizedCrystal
_audit_creation_method	'MofGen! by Chris Wilmer'
_symmetry_space_group_name_H-M	'P1'
_symmetry_Int_Tables_number	1
_symmetry_cell_setting	triclinic
loop_
_symmetry_equiv_pos_as_xyz
  x,y,z
_cell_length_a	6.817900
_cell_length_b	10.992668
_cell_length_c	10.992410
_cell_angle_alpha	91.832960
_cell_angle_beta	108.764651
_cell_angle_gamma	108.769342
loop_
_atom_site_label
_atom_site_type_symbol
_atom_site_fract_x
_atom_site_fract_y
_atom_site_fract_z
V1	V	-4.114280	-0.177763	-0.400588
O2	O	-4.072374	0.008542	-0.392968
O3	O	-4.091890	-0.352475	-0.397843
O4	O	-4.091871	-0.175029	-0.575300
O5	O	-4.072393	-0.170132	-0.214282
V6	V	-4.591170	-0.155479	-0.378305
O7	O	-4.390089	-0.226646	-0.449467
O8	O	-4.765558	-0.106597	-0.329425
O9	O	-4.390353	0.019232	-0.381050
O10	O	-4.750472	-0.341785	-0.385925
O11	O	-4.750453	-0.163110	-0.564611
O12	O	-4.390371	-0.158213	-0.203592
C13	C	-3.942377	-0.395066	-0.391522
C14	C	-4.005531	-0.537895	-0.390442
C15	C	-4.252012	-0.600203	-0.397771
C16	C	-4.317510	-0.748689	-0.396139
C17	C	-3.920752	-0.718266	-0.261985
C18	C	-3.856485	-0.569698	-0.263077
C19	C	-3.980036	-0.607725	-0.508433
C20	C	-4.050700	-0.756740	-0.509050
C21	C	-3.942352	-0.168714	-0.617885
C22	C	-4.005486	-0.167635	-0.760713
C23	C	-3.872608	-0.157798	-0.955837
C24	C	-3.807058	-0.159453	-0.807354
C25	C	-4.203525	-0.294317	-0.837814
C26	C	-4.267838	-0.293197	-0.986380
C27	C	-4.145561	-0.047894	-0.948356
C28	C	-4.074851	-0.047294	-0.799343
C29	C	-4.203208	0.061817	-0.387367
C30	C	-4.119294	0.204644	-0.388455
C31	C	-4.203232	-0.164532	-0.161001
C32	C	-4.119335	-0.165605	-0.018171
H33	H	-3.770509	-0.747089	-0.251787
H34	H	-3.931581	0.046420	-0.746988
N35	N	-4.016430	0.072780	-0.973907
N36	N	-3.903493	0.073490	-1.043894
H37	H	-3.812275	0.158710	-1.061941
H38	H	-4.353903	-0.304879	-0.809010
H39	H	-3.749893	-0.245204	-0.782536
N40	N	-3.872655	-0.797528	-0.511397
N41	N	-3.796638	-0.774706	-0.601007
H42	H	-3.670876	-0.803506	-0.602657
N43	N	-4.146134	-0.406407	-0.805723
N44	N	-4.146306	-0.482722	-0.892565
H45	H	-4.105761	-0.561884	-0.869905
N46	N	-4.230628	-0.822717	-0.626430
N47	N	-4.209587	-0.805340	-0.734045
H48	H	-4.336575	-0.852064	-0.816942
H49	H	-4.276404	-0.552199	-0.312984
H50	H	-4.216964	-0.045806	-0.766831
H51	H	-3.801239	-0.566899	-0.504187
N52	N	-4.388539	-0.779841	-0.288324
N53	N	-4.580118	-0.856203	-0.307247
H54	H	-4.630281	-0.878203	-0.231096
N55	N	-4.370096	-0.053678	-0.999600
N56	N	-4.510379	-0.144008	-1.087149
H57	H	-4.668960	-0.148103	-1.123349
N58	N	-3.628349	-0.516217	-0.249673
N59	N	-3.494680	-0.431119	-0.155326
H60	H	-3.333557	-0.393348	-0.145847
H61	H	-4.449842	-0.304212	-1.029011
H62	H	-3.965929	-0.743867	-0.172458
N63	N	-4.248278	-0.404984	-1.044426
N64	N	-4.118189	-0.391351	-1.105435
H65	H	-4.104360	-0.470302	-1.146424
N66	N	-4.504204	-0.815596	-0.510200
N67	N	-4.491157	-0.802243	-0.620154
H68	H	-4.623021	-0.849489	-0.700712
H69	H	-4.369609	-0.581361	-0.489305
H70	H	-3.847685	-0.242374	-1.003827
N71	N	-4.109681	-0.582156	-0.628924
N72	N	-4.222453	-0.512145	-0.629295
H73	H	-4.314029	-0.494082	-0.714386
H74	H	-3.658586	-0.068363	-0.754016
H75	H	-3.755388	-0.066082	-0.974669
H76	H	-3.871482	-0.523419	-0.173753
