data_functionalizedCrystal
_audit_creation_method	'MofGen! by Chris Wilmer'
_symmetry_space_group_name_H-M	'P1'
_symmetry_Int_Tables_number	1
_symmetry_cell_setting	triclinic
loop_
_symmetry_equiv_pos_as_xyz
  x,y,z
_cell_length_a	21.395362
_cell_length_b	12.759400
_cell_length_c	21.395355
_cell_angle_alpha	90.013847
_cell_angle_beta	90.043940
_cell_angle_gamma	90.030564
loop_
_atom_site_label
_atom_site_type_symbol
_atom_site_fract_x
_atom_site_fract_y
_atom_site_fract_z
Zn1	Zn	0.957929	-0.417943	0.354606
Zn2	Zn	0.957861	-0.593607	0.249837
Zn3	Zn	0.853144	-0.417992	0.249807
Zn4	Zn	0.853143	-0.593629	0.354542
O5	O	0.905519	-0.505793	0.302198
O6	O	1.045598	-0.441215	0.340747
O7	O	0.943942	-0.570323	0.162155
O8	O	0.867073	-0.270964	0.263723
O9	O	1.045548	-0.570275	0.263774
O10	O	0.944058	-0.270928	0.340719
O11	O	0.867007	-0.441299	0.162133
O12	O	0.765466	-0.441320	0.263661
O13	O	0.867071	-0.570312	0.442228
O14	O	0.765465	-0.570360	0.340609
O15	O	0.944057	-0.441236	0.442275
O16	O	0.943941	-0.740631	0.263712
O17	O	0.867005	-0.740647	0.340638
C18	C	0.742732	-0.505848	0.302125
C19	C	0.673090	-0.505897	0.302109
C20	C	0.640393	-0.573177	0.342116
C21	C	0.574958	-0.573152	0.342144
C22	C	0.542222	-0.505857	0.302154
C23	C	0.574927	-0.438564	0.262144
C24	C	0.640361	-0.438584	0.262122
C25	C	0.438496	-0.497393	0.245748
C26	C	0.373063	-0.497380	0.245769
C27	C	0.340401	-0.505788	0.302223
C28	C	0.373181	-0.514231	0.358657
C29	C	0.438615	-0.514251	0.358635
C30	C	0.471270	-0.505827	0.302174
C31	C	0.236752	-0.573044	0.342263
C32	C	0.171315	-0.573011	0.342292
C33	C	0.171286	-0.438428	0.262287
C34	C	0.236721	-0.438456	0.262264
C35	C	0.269450	-0.505769	0.302251
C36	C	0.905482	-0.778760	0.302185
C37	C	0.905523	-0.895537	0.302200
C38	C	0.945629	-0.950355	0.262189
C39	C	0.945667	-1.060079	0.262209
C40	C	0.865490	-1.060156	0.342252
C41	C	0.865455	-0.950434	0.342235
C42	C	0.985697	-0.895458	0.222154
C43	C	1.025805	-0.950277	0.182139
C44	C	1.025843	-1.060001	0.182159
C45	C	0.985774	-1.114906	0.222193
C46	C	1.068943	-0.505738	0.302271
C47	C	1.138584	-0.505714	0.302303
C48	C	0.905571	-0.505771	0.465621
C49	C	0.905593	-0.505762	0.535263
C50	C	0.905574	-0.231759	0.302225
C51	C	0.905597	-0.114983	0.302236
C52	C	0.905503	-0.505738	0.139410
C53	C	0.905603	-0.505451	0.069770
C54	C	0.945678	-0.438550	0.568001
C55	C	0.945678	-0.438504	0.633437
C56	C	0.905598	-0.505691	0.666131
C57	C	0.865505	-0.572908	0.633384
C58	C	0.865503	-0.572944	0.567950
C59	C	0.900638	-0.600292	0.769799
C60	C	0.900645	-0.600258	0.835232
C61	C	0.905602	-0.505580	0.867952
C62	C	0.910566	-0.410932	0.835230
C63	C	0.910563	-0.410968	0.769796
C64	C	0.905596	-0.505659	0.737083
C65	C	0.945688	-0.438312	0.971643
C66	C	0.945683	-0.438265	1.037080
C67	C	0.865514	-0.572678	1.037026
C68	C	0.865516	-0.572716	0.971591
C69	C	0.905607	-0.505534	0.938903
H70	H	0.263344	-0.383674	0.229683
H71	H	0.985813	-1.204251	0.222210
H72	H	0.832867	-1.104869	0.374845
C73	C	1.069875	-0.889887	0.138104
H74	H	1.064104	-0.816688	0.143817
H75	H	1.111976	-0.907778	0.147324
H76	H	1.060723	-0.907928	0.095997
H77	H	0.985668	-0.806115	0.222132
H78	H	0.346379	-0.490512	0.199817
C79	C	0.989779	-0.364328	1.073093
H80	H	1.013658	-0.324333	1.044251
H81	H	0.965825	-0.318540	1.098598
H82	H	1.017071	-0.404506	1.098641
C83	C	0.989779	-0.364412	0.935681
H84	H	0.984043	-0.374069	0.892022
H85	H	0.980624	-0.293817	0.946392
H86	H	1.031876	-0.379774	0.946439
C87	C	0.821427	-0.646659	0.935576
H88	H	0.797559	-0.686672	0.964418
H89	H	0.794135	-0.606493	0.910028
H90	H	0.845388	-0.692446	0.910072
C91	C	0.821344	-0.890129	0.386249
H92	H	0.797480	-0.938537	0.410090
H93	H	0.845290	-0.847264	0.413569
H94	H	0.794039	-0.847393	0.362241
C95	C	0.989771	-0.364645	0.532048
H96	H	1.013641	-0.324602	0.560922
H97	H	1.017061	-0.404836	0.506543
H98	H	0.965808	-0.318883	0.506505
H99	H	0.914603	-0.333903	0.743157
H100	H	0.978318	-0.383766	0.660098
C101	C	0.895193	-0.704362	0.871223
H102	H	0.895915	-0.690784	0.914879
H103	H	0.857043	-0.737977	0.860477
H104	H	0.929272	-0.748546	0.860523
H105	H	1.058505	-1.104632	0.149581
C106	C	0.337265	-0.523470	0.420761
H107	H	0.366158	-0.528505	0.454365
H108	H	0.311775	-0.463260	0.426338
H109	H	0.311709	-0.584363	0.419897
C110	C	0.916426	-0.306843	0.871212
H111	H	0.915834	-0.320391	0.914868
H112	H	0.954676	-0.273702	0.860363
H113	H	0.882496	-0.262245	0.860611
C114	C	0.821432	-0.646589	1.072982
H115	H	0.827177	-0.636948	1.116642
H116	H	0.779336	-0.631243	1.062228
H117	H	0.830596	-0.717184	1.062267
H118	H	0.896434	-0.677371	0.743165
C119	C	0.135345	-0.647018	0.386303
H120	H	0.091687	-0.637358	0.380595
H121	H	0.146025	-0.717589	0.377055
H122	H	0.146124	-0.631748	0.428415
C123	C	0.821422	-0.646816	0.669345
H124	H	0.827170	-0.637177	0.713005
H125	H	0.779327	-0.631463	0.658593
H126	H	0.830583	-0.717412	0.658629
C127	C	0.538921	-0.364541	0.218156
H128	H	0.495267	-0.374172	0.223895
H129	H	0.549684	-0.293977	0.227395
H130	H	0.549592	-0.379821	0.176037
H131	H	0.832858	-0.627675	0.541295
H132	H	0.548330	-0.627939	0.374725
C133	C	0.676394	-0.647238	0.386087
H134	H	0.720048	-0.637630	0.380337
H135	H	0.665731	-0.631993	0.428209
H136	H	0.665621	-0.717796	0.376826
C137	C	0.474670	-0.523522	0.420707
H138	H	0.445851	-0.528520	0.454335
H139	H	0.500172	-0.584425	0.419824
H140	H	0.500225	-0.463321	0.426261
H141	H	0.263401	-0.627849	0.374827
C142	C	0.135288	-0.364400	0.218299
H143	H	0.164136	-0.324329	0.194470
H144	H	0.109712	-0.404509	0.190968
H145	H	0.109811	-0.318670	0.242328
C146	C	0.474417	-0.488086	0.183648
H147	H	0.445525	-0.483053	0.150043
H148	H	0.499958	-0.427182	0.184537
H149	H	0.499923	-0.548279	0.178051
H150	H	0.666983	-0.383793	0.229543
