data_functionalizedCrystal
_audit_creation_method	'MofGen! by Chris Wilmer'
_symmetry_space_group_name_H-M	'P1'
_symmetry_Int_Tables_number	1
_symmetry_cell_setting	triclinic
loop_
_symmetry_equiv_pos_as_xyz
  x,y,z
_cell_length_a	12.811424
_cell_length_b	19.188928
_cell_length_c	11.295443
_cell_angle_alpha	85.372318
_cell_angle_beta	79.998805
_cell_angle_gamma	83.594193
loop_
_atom_site_label
_atom_site_type_symbol
_atom_site_fract_x
_atom_site_fract_y
_atom_site_fract_z
O1	O	-0.138295	-0.931661	0.114423
O2	O	-0.156053	-0.728514	0.116242
O3	O	0.006698	-0.834493	0.098712
O4	O	-0.301047	-0.825683	0.131953
O5	O	0.019375	-0.825999	-0.100714
O6	O	-0.143377	-0.720021	-0.083184
O7	O	-0.125619	-0.923168	-0.085003
Cu8	Cu	-0.133340	-0.820819	-0.102303
Cu9	Cu	-0.148332	-0.830863	0.133542
O10	O	-0.288370	-0.817189	-0.067473
C11	C	-0.149139	-0.698250	0.016454
C12	C	-0.147411	-0.620728	0.016230
C13	C	-0.242911	-0.576712	0.026560
C14	C	-0.241290	-0.503873	0.026392
C15	C	-0.144166	-0.475054	0.015917
C16	C	-0.048653	-0.519079	0.005578
C17	C	-0.050276	-0.591916	0.005734
N18	N	-0.074244	-0.369261	0.075810
N19	N	-0.072709	-0.300068	0.075665
C20	C	-0.139271	-0.255601	0.015442
N21	N	-0.207442	-0.282939	-0.044612
N22	N	-0.208981	-0.352138	-0.044461
C23	C	-0.142395	-0.396075	0.015745
C24	C	-0.233020	-0.132604	0.025590
C25	C	-0.231394	-0.059764	0.025414
C26	C	-0.038755	-0.074972	0.004611
C27	C	-0.040382	-0.147811	0.004776
C28	C	-0.137518	-0.176622	0.015271
C29	C	0.052408	-0.829492	-0.005253
C30	C	0.169723	-0.827237	-0.017920
C31	C	0.376338	-0.832247	0.175716
C32	C	0.486566	-0.830128	0.163820
C33	C	0.500407	-0.820875	-0.053608
C34	C	0.390180	-0.822994	-0.041711
C35	C	0.328149	-0.828681	0.072954
C36	C	0.217920	-0.830805	0.084849
C37	C	0.231763	-0.821547	-0.132577
C38	C	0.341991	-0.819428	-0.144473
C39	C	0.665920	-0.822190	0.036492
C40	C	0.548604	-0.824444	0.049162
C41	C	-0.132535	0.046570	0.014767
C42	C	-0.134269	-0.030950	0.014937
N43	N	-0.122795	-0.813759	-0.268183
C44	C	-0.046902	-0.762944	-0.463437
C45	C	-0.054868	-0.768273	-0.337909
C46	C	-0.182759	-0.853920	-0.323994
C47	C	-0.174793	-0.848590	-0.449521
C48	C	-0.106864	-0.803100	-0.519239
C49	C	-0.098905	-0.797768	-0.644768
C50	C	-0.226790	-0.883418	-0.630851
C51	C	-0.234755	-0.888747	-0.505323
N52	N	-0.158868	-0.837929	0.299421
H53	H	-0.322006	-0.600165	0.035109
N54	N	0.405342	-0.813611	-0.261602
N55	N	0.387693	-0.761639	-0.332016
H56	H	0.432433	-0.757530	-0.414742
H57	H	-0.006040	-0.735573	-0.292481
N58	N	-0.029531	-0.751302	-0.716004
N59	N	-0.066526	-0.702476	-0.781608
H60	H	-0.017529	-0.669660	-0.831918
H61	H	-0.238054	-0.890962	-0.267209
H62	H	0.192517	-0.818646	-0.216253
N63	N	0.022471	-0.716466	-0.534639
N64	N	0.075994	-0.680608	-0.484799
H65	H	0.124989	-0.647781	-0.535083
N66	N	-0.304128	-0.935212	-0.434087
N67	N	-0.311229	-0.939968	-0.322011
H68	H	-0.360226	-0.972785	-0.271700
H69	H	-0.275622	-0.916111	-0.676297
H70	H	0.550931	-0.816240	-0.146963
N71	N	0.057167	-0.192778	-0.005738
N72	N	0.072405	-0.238718	0.076096
H73	H	0.141304	-0.270477	0.068669
H74	H	0.040321	-0.051512	-0.003844
H75	H	0.030425	-0.495611	-0.002935
N76	N	-0.338854	-0.458911	0.036940
N77	N	-0.425571	-0.484644	0.046303
H78	H	-0.494477	-0.452892	0.053752
H79	H	0.027494	-0.627755	-0.002678
H80	H	-0.312112	-0.156063	0.034118
H81	H	0.325832	-0.836884	0.269081
H82	H	0.167416	-0.835438	0.178216
N83	N	0.535772	-0.833767	0.268801
N84	N	0.480370	-0.838841	0.371168
H85	H	0.515121	-0.841409	0.445317
H86	H	-0.309165	-0.023926	0.033820
