data_functionalizedCrystal
_audit_creation_method	'MofGen! by Chris Wilmer'
_symmetry_space_group_name_H-M	'P1'
_symmetry_Int_Tables_number	1
_symmetry_cell_setting	triclinic
loop_
_symmetry_equiv_pos_as_xyz
  x,y,z
_cell_length_a	14.971491
_cell_length_b	13.448316
_cell_length_c	14.971506
_cell_angle_alpha	90.007960
_cell_angle_beta	96.380688
_cell_angle_gamma	90.000269
loop_
_atom_site_label
_atom_site_type_symbol
_atom_site_fract_x
_atom_site_fract_y
_atom_site_fract_z
O1	O	-1.186941	0.082733	0.116590
O2	O	-0.926543	0.082725	0.130544
O3	O	-1.063712	0.082725	-0.006632
O4	O	-1.049772	0.082733	0.253765
O5	O	-1.063718	-0.082659	-0.006649
O6	O	-0.926549	-0.082659	0.130527
O7	O	-1.186948	-0.082651	0.116573
Cu8	Cu	-1.056749	-0.097756	0.123548
Cu9	Cu	-1.056741	0.097830	0.123568
O10	O	-1.049779	-0.082651	0.253749
C11	C	-0.893221	0.000032	0.129910
C12	C	-0.793924	0.000029	0.128038
C13	C	-1.063088	0.000034	-0.039965
C14	C	-1.061210	0.000036	-0.139261
C15	C	-1.220269	0.000044	0.117206
C16	C	-1.319566	0.000053	0.119079
C17	C	-0.366214	0.090203	0.119967
C18	C	-0.459515	0.090199	0.121724
C19	C	-0.506164	0.000045	0.122599
C20	C	-0.459510	-0.090112	0.121708
C21	C	-0.366212	-0.090107	0.119945
C22	C	-0.653972	-0.090115	0.125385
C23	C	-0.747276	-0.090120	0.127150
C24	C	-0.747275	0.090191	0.127164
C25	C	-0.653977	0.090195	0.125401
C26	C	-0.607328	0.000039	0.124512
N27	N	-1.056761	-0.235320	0.123534
N28	N	-1.056736	0.235394	0.123576
C29	C	-1.110951	0.712643	0.177991
C30	C	-1.110950	0.608540	0.177995
C31	C	-1.056755	0.556475	0.123548
C32	C	-1.002564	0.608519	0.069085
C33	C	-1.002569	0.712620	0.069076
C34	C	-1.002554	0.391539	0.069109
C35	C	-1.002547	0.287430	0.069119
C36	C	-1.110935	0.287459	0.178029
C37	C	-1.110941	0.391560	0.178020
C38	C	-1.056748	0.443597	0.123558
C39	C	-1.050402	0.000042	0.287081
C40	C	-1.052280	0.000046	0.386378
C41	C	-0.978862	0.000033	0.824659
C42	C	-0.977104	0.000029	0.731359
C43	C	-1.057696	0.000035	0.674140
C44	C	-1.140052	0.000036	0.710226
C45	C	-1.141808	0.000033	0.803525
C46	C	-1.136385	0.000045	0.515763
C47	C	-1.134628	0.000050	0.422458
C48	C	-0.971681	0.000040	0.443597
C49	C	-0.973437	0.000037	0.536895
C50	C	-1.055793	0.000040	0.572975
H51	H	-0.328238	0.163617	0.119261
F52	F	-1.168603	0.446969	0.235986
F53	F	-0.509158	0.186148	0.122665
H54	H	-0.958425	0.433904	0.024759
F55	F	-1.220403	0.000059	0.361563
F56	F	-0.893083	0.000032	0.885547
H57	H	-0.907812	0.000040	0.583481
H58	H	-0.910048	0.000033	0.701987
H59	H	-0.958441	0.566120	0.024748
H60	H	-0.958442	0.754987	0.024732
F61	F	-0.884032	0.000033	0.405198
H62	H	-1.155078	0.566176	0.222338
F63	F	-0.604330	0.186147	0.124477
H64	H	-1.203447	0.000042	0.545135
F65	F	-1.225824	0.000032	0.649328
H66	H	-0.785260	0.163600	0.127889
F67	F	-1.229455	0.000029	0.841923
F68	F	-0.604328	-0.186071	0.124429
F69	F	-0.796923	-0.186072	0.128076
F70	F	-0.944870	0.232021	0.011166
H71	H	-0.497500	-0.163517	0.122415
H72	H	-0.328231	-0.163516	0.119231
F73	F	-1.168632	0.768045	0.235944
H74	H	-1.155057	0.245085	0.222377
