data_functionalizedCrystal
_audit_creation_method	'MofGen! by Chris Wilmer'
_symmetry_space_group_name_H-M	'P1'
_symmetry_Int_Tables_number	1
_symmetry_cell_setting	triclinic
loop_
_symmetry_equiv_pos_as_xyz
  x,y,z
_cell_length_a	16.120490
_cell_length_b	19.121111
_cell_length_c	16.120256
_cell_angle_alpha	84.816858
_cell_angle_beta	90.129807
_cell_angle_gamma	90.314717
loop_
_atom_site_label
_atom_site_type_symbol
_atom_site_fract_x
_atom_site_fract_y
_atom_site_fract_z
Zn1	Zn	1.228524	0.355819	-0.551577
Zn2	Zn	1.229530	0.467599	-0.417872
Zn3	Zn	1.097145	0.343943	-0.404929
Zn4	Zn	1.083520	0.466949	-0.549814
O5	O	1.159680	0.408577	-0.481048
O6	O	1.344746	0.375889	-0.539995
O7	O	1.218092	0.446498	-0.299564
O8	O	1.119854	0.247260	-0.419703
O9	O	1.345485	0.458013	-0.441763
O10	O	1.216377	0.255985	-0.527445
O11	O	1.120830	0.355649	-0.290055
O12	O	0.979250	0.355018	-0.417994
O13	O	1.096632	0.456905	-0.666639
O14	O	0.969240	0.445390	-0.524440
O15	O	1.203166	0.375258	-0.667934
O16	O	1.204881	0.565771	-0.440053
O17	O	1.097608	0.565294	-0.536991
C18	C	0.944144	0.398846	-0.469622
C19	C	0.851935	0.394700	-0.464754
C20	C	0.637092	0.430076	-0.506298
C21	C	0.683113	0.387137	-0.455866
C22	C	0.777054	0.391346	-0.460813
C23	C	0.543142	0.425868	-0.501353
C24	C	1.149897	0.591012	-0.489755
C25	C	1.145786	0.669062	-0.493511
C26	C	1.199745	0.705960	-0.444852
C27	C	1.195883	0.779297	-0.448390
C28	C	1.138058	0.815735	-0.500584
C29	C	1.084097	0.778833	-0.549248
C30	C	1.087963	0.705497	-0.545714
C31	C	1.123593	1.037150	-0.513782
C32	C	1.119729	1.110491	-0.517310
C33	C	1.231517	1.110950	-0.416453
C34	C	1.235374	1.037612	-0.412920
C35	C	1.181416	1.000717	-0.461588
C36	C	1.134108	0.890697	-0.504200
C37	C	1.185371	0.925756	-0.457976
C38	C	1.376057	0.418348	-0.492519
C39	C	1.468264	0.422512	-0.497408
C40	C	1.148267	0.417334	-0.698363
C41	C	1.143403	0.421065	-0.790969
C42	C	1.169516	1.225433	-0.472337
C43	C	1.173688	1.147388	-0.468652
C44	C	1.185042	0.389100	-1.002421
C45	C	1.134498	0.427848	-0.960514
C46	C	1.139454	0.424073	-0.866171
C47	C	1.180087	0.392874	-1.096774
C48	C	1.171099	0.399807	-0.264579
C49	C	1.176134	0.395884	-0.171972
H50	H	0.651960	0.347215	-0.408975
Br51	Br	1.263355	0.329076	-0.944127
H52	H	1.246829	0.676296	-0.402347
Br53	Br	0.689013	0.496619	-0.584441
Br54	Br	1.041233	1.159941	-0.588134
H55	H	1.079656	1.007115	-0.553407
H56	H	1.282460	1.007946	-0.370420
Br57	Br	1.269121	0.829370	-0.382355
H58	H	1.275447	1.140998	-0.376832
H59	H	1.037018	0.808507	-0.591749
Br60	Br	1.056168	0.487864	-1.018806
H61	H	1.044025	0.675456	-0.585338
H62	H	1.232455	0.896086	-0.415483
H63	H	1.087025	0.920373	-0.546694
