data_functionalizedCrystal
_audit_creation_method	'MofGen! by Chris Wilmer'
_symmetry_space_group_name_H-M	'P1'
_symmetry_Int_Tables_number	1
_symmetry_cell_setting	triclinic
loop_
_symmetry_equiv_pos_as_xyz
  x,y,z
_cell_length_a	17.699083
_cell_length_b	10.489741
_cell_length_c	16.776229
_cell_angle_alpha	89.993659
_cell_angle_beta	89.998886
_cell_angle_gamma	83.911094
loop_
_atom_site_label
_atom_site_type_symbol
_atom_site_fract_x
_atom_site_fract_y
_atom_site_fract_z
O1	O	1.005134	0.161296	-0.066176
O2	O	1.505134	0.661296	0.433824
O3	O	0.784893	0.182281	-0.066202
O4	O	1.284893	0.682281	0.433798
O5	O	0.900025	-0.013903	-0.066184
O6	O	1.400025	0.486097	0.433816
O7	O	0.890002	0.357479	-0.066194
O8	O	1.390002	0.857479	0.433806
O9	O	0.900009	-0.013915	0.066393
O10	O	1.400009	0.486085	0.566393
O11	O	0.784877	0.182269	0.066375
O12	O	1.284877	0.682269	0.566375
O13	O	1.005118	0.161284	0.066401
O14	O	1.505118	0.661284	0.566401
Zn15	Zn	0.894995	0.171774	0.087437
Zn16	Zn	1.394995	0.671774	0.587437
Zn17	Zn	0.895016	0.171790	-0.087238
Zn18	Zn	1.395016	0.671790	0.412762
O19	O	0.889986	0.357467	0.066382
O20	O	1.389986	0.857467	0.566382
C21	C	0.756683	0.181523	0.000083
C22	C	1.256683	0.681523	0.500083
C23	C	0.672650	0.179267	0.000073
C24	C	1.172650	0.679267	0.500073
C25	C	0.899260	-0.061427	0.000104
C26	C	1.399260	0.438573	0.500104
C27	C	0.896995	-0.203014	0.000102
C28	C	1.396995	0.296986	0.500102
C29	C	0.624782	0.294422	0.000070
C30	C	1.124782	0.794422	0.500070
C31	C	0.545825	0.292295	0.000080
C32	C	1.045825	0.792295	0.500080
C33	C	0.514737	0.175011	0.000088
C34	C	1.014737	0.675011	0.500088
C35	C	0.562611	0.059847	0.000094
C36	C	1.062611	0.559847	0.500094
C37	C	0.641567	0.061975	0.000089
C38	C	1.141567	0.561975	0.500089
C39	C	0.244192	0.051260	0.000114
C40	C	0.744192	0.551260	0.500114
C41	C	0.165230	0.049140	0.000116
C42	C	0.665230	0.549140	0.500116
C43	C	0.148450	0.281580	0.000105
C44	C	0.648450	0.781580	0.500105
C45	C	0.227406	0.283709	0.000100
C46	C	0.727406	0.783709	0.500100
C47	C	0.275273	0.168545	0.000110
C48	C	0.775273	0.668545	0.500110
C49	C	0.360887	0.170853	0.000100
C50	C	0.860887	0.670853	0.500100
C51	C	0.429124	0.172702	0.000092
C52	C	0.929124	0.672702	0.500092
C53	C	0.823740	-0.269793	0.000088
C54	C	1.323740	0.230207	0.500088
C55	C	0.858337	-0.362564	0.065459
C56	C	1.358337	0.137436	0.565459
C57	C	0.858370	-0.362527	-0.065251
C58	C	1.358370	0.137473	0.434749
C59	C	0.931623	-0.293920	0.065528
C60	C	1.431623	0.206080	0.565528
C61	C	0.931645	-0.293874	-0.065241
C62	C	1.431645	0.206126	0.434759
C63	C	0.966296	-0.386619	0.000146
C64	C	1.466296	0.113381	0.500146
C65	C	1.033328	0.162042	0.000114
C66	C	1.533328	0.662042	0.500114
C67	C	1.117361	0.164297	0.000119
C68	C	1.617361	0.664297	0.500119
C69	C	0.890751	0.404991	0.000093
C70	C	1.390751	0.904991	0.500093
C71	C	0.893016	0.546578	0.000089
C72	C	1.393016	1.046578	0.500089
N73	N	0.894987	0.171763	0.206648
N74	N	1.394987	0.671763	0.706648
N75	N	0.895030	0.171791	-0.206450
N76	N	1.395030	0.671791	0.293550
C77	C	0.945983	0.084928	0.248373
C78	C	1.445983	0.584928	0.748373
C79	C	0.945987	0.084927	0.331826
C80	C	1.445987	0.584927	0.831826
C81	C	0.894998	0.171767	0.373551
C82	C	1.394998	0.671767	0.873551
C83	C	0.843996	0.258606	0.331820
C84	C	1.343996	0.758606	0.831820
C85	C	0.843989	0.258600	0.248369
C86	C	1.343989	0.758600	0.748369
C87	C	0.844024	0.258631	0.668367
C88	C	1.344024	0.758631	1.168367
C89	C	0.844037	0.258633	0.751824
C90	C	1.344037	0.758633	1.251824
C91	C	0.946022	0.084958	0.751823
C92	C	1.446022	0.584958	1.251823
C93	C	0.946015	0.084952	0.668373
C94	C	1.446015	0.584952	1.168373
C95	C	0.895011	0.171786	0.626649
C96	C	1.395011	0.671786	1.126649
C97	C	0.895006	0.171784	0.536161
C98	C	1.395006	0.671784	1.036161
C99	C	0.895006	0.171776	0.464038
C100	C	1.395006	0.671776	0.964038
H101	H	0.650088	0.389929	0.000063
H102	H	1.150088	0.889929	0.500063
O103	O	0.101842	0.393337	0.000139
O104	O	0.601842	0.893337	0.500139
C105	C	0.025487	0.366319	0.000127
C106	C	0.525487	0.866319	0.500127
H107	H	0.021914	0.266146	0.025235
H108	H	0.521914	0.766146	0.525235
H109	H	-0.009876	0.439739	0.038615
H110	H	0.490124	0.939739	0.538615
H111	H	0.002679	0.371224	-0.063475
H112	H	0.502679	0.871224	0.436525
H113	H	0.802462	0.329308	0.214397
H114	H	1.302462	0.829308	0.714397
H115	H	0.802476	0.329309	0.365798
H116	H	1.302476	0.829309	0.865798
H117	H	0.763510	-0.219023	0.000147
H118	H	1.263510	0.280977	0.500147
H119	H	0.252713	0.379213	0.000090
H120	H	0.752713	0.879213	0.500090
O121	O	0.821502	-0.398755	-0.131268
O122	O	1.321502	0.101245	0.368732
C123	C	0.859492	-0.362012	-0.200074
C124	C	1.359492	0.137988	0.299926
H125	H	0.921159	-0.350625	-0.184719
H126	H	1.421159	0.149375	0.315281
H127	H	0.857601	-0.438720	-0.247953
H128	H	1.357601	0.061280	0.252047
H129	H	0.830436	-0.266982	-0.223188
H130	H	1.330436	0.233018	0.276812
O131	O	0.968499	-0.257329	-0.131187
O132	O	1.468499	0.242671	0.368813
C133	C	0.919193	-0.170465	-0.175990
C134	C	1.419193	0.329535	0.324010
H135	H	0.872766	-0.122854	-0.135477
H136	H	1.372766	0.377146	0.364523
H137	H	0.952704	-0.094069	-0.202971
H138	H	1.452704	0.405931	0.297029
H139	H	0.892239	-0.224228	-0.225750
H140	H	1.392239	0.275772	0.274250
H141	H	0.506854	0.386067	0.000077
H142	H	1.006854	0.886067	0.500077
O143	O	0.688146	-0.049802	-0.000017
O144	O	1.188146	0.450198	0.499983
C145	C	0.734305	-0.055536	-0.068691
C146	C	1.234305	0.444464	0.431309
H147	H	0.738845	0.045693	-0.091588
H148	H	1.238845	0.545693	0.408412
H149	H	0.793379	-0.103226	-0.053248
H150	H	1.293379	0.396774	0.446752
H151	H	0.708018	-0.113709	-0.116768
H152	H	1.208018	0.386291	0.383232
H153	H	0.139922	-0.046372	0.000123
H154	H	0.639922	0.453628	0.500123
H155	H	0.283156	-0.042514	0.000122
H156	H	0.783156	0.457486	0.500122
O157	O	1.038224	-0.446873	0.000335
O158	O	1.538224	0.053127	0.500335
C159	C	1.076549	-0.411877	0.069340
C160	C	1.576549	0.088123	0.569340
H161	H	1.033272	-0.378480	0.117288
H162	H	1.533272	0.121520	0.617288
H163	H	1.115133	-0.498087	0.092158
H164	H	1.615133	0.001913	0.592158
H165	H	1.112231	-0.330768	0.054373
H166	H	1.612231	0.169232	0.554373
H167	H	0.987507	0.014218	0.214406
H168	H	1.487507	0.514218	0.714406
O169	O	0.532502	-0.054163	-0.000006
O170	O	1.032502	0.445837	0.499994
C171	C	0.556886	-0.124326	-0.068677
C172	C	1.056886	0.375674	0.431323
H173	H	0.611827	-0.089733	-0.091570
H174	H	1.111827	0.410267	0.408430
H175	H	0.567264	-0.230578	-0.053232
H176	H	1.067264	0.269422	0.446768
H177	H	0.511285	-0.109405	-0.116757
H178	H	1.011285	0.390595	0.383243
H179	H	0.827335	-0.393005	0.120719
H180	H	1.327335	0.106995	0.620719
O181	O	0.995607	0.000542	0.372234
O182	O	1.495607	0.500542	0.872234
C183	C	1.040603	-0.076115	0.317511
C184	C	1.540603	0.423885	0.817511
H185	H	1.041725	-0.023827	0.258018
H186	H	1.541725	0.476173	0.758018
H187	H	1.100942	-0.095674	0.341614
H188	H	1.600942	0.404326	0.841614
H189	H	1.015529	-0.170829	0.308652
H190	H	1.515529	0.329171	0.808652
H191	H	0.962585	-0.263669	0.120856
H192	H	1.462585	0.236331	0.620856
H193	H	0.987537	0.014243	0.634402
H194	H	1.487537	0.514243	1.134402
O195	O	0.995667	0.000715	0.792318
O196	O	1.495667	0.500715	1.292318
C197	C	1.070695	0.021270	0.771900
C198	C	1.570695	0.521270	1.271900
H199	H	1.071617	0.123392	0.748957
H200	H	1.571617	0.623392	1.248957
H201	H	1.108603	0.006510	0.826776
H202	H	1.608603	0.506510	1.326776
H203	H	1.092534	-0.049468	0.723460
H204	H	1.592534	0.450532	1.223460
H205	H	0.802496	0.329336	0.634402
H206	H	1.302496	0.829336	1.134402
H207	H	0.802512	0.329351	0.785795
H208	H	1.302512	0.829351	1.285795
