data_functionalizedCrystal
_audit_creation_method	'MofGen! by Chris Wilmer'
_symmetry_space_group_name_H-M	'P1'
_symmetry_Int_Tables_number	1
_symmetry_cell_setting	triclinic
loop_
_symmetry_equiv_pos_as_xyz
  x,y,z
_cell_length_a	10.654541
_cell_length_b	14.971486
_cell_length_c	13.448316
_cell_angle_alpha	89.993189
_cell_angle_beta	89.994605
_cell_angle_gamma	84.049029
loop_
_atom_site_label
_atom_site_type_symbol
_atom_site_fract_x
_atom_site_fract_y
_atom_site_fract_z
O1	O	1.666500	0.125623	-0.082662
O2	O	1.300893	0.137595	-0.082671
O3	O	1.493496	0.001462	-0.082659
O4	O	1.473897	0.261756	-0.082674
O5	O	1.493471	0.001453	0.082725
O6	O	1.300868	0.137586	0.082713
O7	O	1.666476	0.125614	0.082722
Cu8	Cu	1.483670	0.131599	0.097818
Cu9	Cu	1.483699	0.131610	-0.097767
O10	O	1.473873	0.261747	0.082710
C11	C	1.492607	-0.031872	0.000033
C12	C	1.489980	-0.131183	0.000032
C13	C	1.254092	0.136712	0.000020
C14	C	1.114677	0.134083	0.000017
C15	C	1.603129	-0.187793	0.000035
C16	C	1.600654	-0.281106	0.000025
C17	C	1.485028	-0.317807	0.000019
C18	C	1.371871	-0.261190	0.000012
C19	C	1.374347	-0.167879	0.000015
C20	C	1.366716	-0.455680	0.000008
C21	C	1.364239	-0.548998	0.000007
C22	C	1.593023	-0.568908	0.000018
C23	C	1.595500	-0.475597	0.000021
C24	C	1.482341	-0.418986	0.000017
C25	C	1.084959	0.296867	-0.000005
C26	C	1.004605	0.377020	-0.000019
C27	C	0.873614	0.374544	-0.000020
C28	C	0.822975	0.291907	-0.000003
C29	C	0.903329	0.211754	0.000012
C30	C	1.034322	0.214238	0.000009
C31	C	0.933046	0.048973	0.000040
C32	C	1.064038	0.051446	0.000034
C33	C	0.882407	-0.033665	0.000057
C34	C	0.962762	-0.113820	0.000065
C35	C	1.093761	-0.111341	0.000064
C36	C	1.144392	-0.028707	0.000049
C37	C	1.713277	0.126497	0.000029
C38	C	1.852692	0.129126	0.000025
C39	C	1.474761	0.295081	0.000016
C40	C	1.477388	0.394392	0.000011
N41	N	1.483659	0.131592	0.235383
N42	N	1.483719	0.131610	-0.235331
C43	C	1.568970	0.071337	0.287428
C44	C	1.568978	0.071337	0.391531
C45	C	1.483680	0.131595	0.443587
C46	C	1.398359	0.191853	0.391534
C47	C	1.398347	0.191848	0.287433
C48	C	1.398394	0.191859	0.608514
C49	C	1.398408	0.191865	0.712623
C50	C	1.569026	0.071347	0.712613
C51	C	1.569013	0.071343	0.608511
C52	C	1.483694	0.131601	0.556466
H53	H	1.697285	-0.157920	0.000046
Br54	Br	1.322165	-0.025337	0.000039
H55	H	1.685161	-0.615006	0.000019
Br56	Br	1.282596	0.273636	0.537884
H57	H	1.692792	-0.327195	0.000030
Br58	Br	1.752422	-0.425789	0.000027
H59	H	1.638444	0.022272	0.433906
Br60	Br	1.282554	0.273620	0.216800
Br61	Br	0.704632	-0.037026	0.000065
Br62	Br	1.207317	-0.598806	0.000003
Br63	Br	1.262734	0.300232	-0.000027
Br64	Br	1.213143	-0.378851	-0.000001
Br65	Br	1.214947	-0.310997	-0.000013
Br66	Br	1.684819	-0.010427	0.783249
Br67	Br	1.220782	-0.091048	0.000003
Br68	Br	0.764556	0.483323	-0.000026
H69	H	1.328902	0.240913	0.433924
Br70	Br	1.073334	0.489165	-0.000039
H71	H	1.159179	-0.176612	0.000080
Br72	Br	0.645199	0.288549	0.000018
H73	H	0.921520	-0.181096	0.000078
H74	H	1.638475	0.022280	0.566128
Br75	Br	1.684748	-0.010441	0.216792
Br76	Br	1.282641	0.273648	0.783263
