data_functionalizedCrystal
_audit_creation_method	'MofGen! by Chris Wilmer'
_symmetry_space_group_name_H-M	'P1'
_symmetry_Int_Tables_number	1
_symmetry_cell_setting	triclinic
loop_
_symmetry_equiv_pos_as_xyz
  x,y,z
_cell_length_a	6.394989
_cell_length_b	7.681459
_cell_length_c	8.559649
_cell_angle_alpha	85.087351
_cell_angle_beta	78.138188
_cell_angle_gamma	95.905477
loop_
_atom_site_label
_atom_site_type_symbol
_atom_site_fract_x
_atom_site_fract_y
_atom_site_fract_z
O1	O	0.048511	-0.146402	-2.104048
O2	O	-0.059014	-0.146408	-1.641009
O3	O	0.299867	-0.146406	-1.879101
O4	O	-0.310370	-0.146404	-1.865956
O5	O	0.344123	0.146452	-1.908400
O6	O	-0.014758	0.146450	-1.670308
O7	O	0.092767	0.146456	-2.133348
Zn8	Zn	0.046031	0.192951	-1.906480
Zn9	Zn	-0.012278	-0.192902	-1.867876
O10	O	-0.266114	0.146454	-1.895256
C11	C	-0.045035	0.000021	-1.596293
C12	C	-0.069291	0.000018	-1.419401
N13	N	0.085829	0.456285	-1.932838
C14	C	0.399398	0.000016	-1.891151
C15	C	0.634359	0.000015	-1.883208
C16	C	0.078787	0.000024	-2.178063
C17	C	0.103041	0.000015	-2.354954
N18	N	-0.052076	0.543763	-1.841519
H19	H	-0.192833	0.468566	-1.748302
H20	H	0.226582	0.531491	-2.026072
H21	H	0.269137	0.000005	-1.435105
H22	H	-0.235400	0.000009	-1.339239
