data_functionalizedCrystal
_audit_creation_method	'MofGen! by Chris Wilmer'
_symmetry_space_group_name_H-M	'P1'
_symmetry_Int_Tables_number	1
_symmetry_cell_setting	triclinic
loop_
_symmetry_equiv_pos_as_xyz
  x,y,z
_cell_length_a	23.532355
_cell_length_b	23.532357
_cell_length_c	10.065875
_cell_angle_alpha	98.726510
_cell_angle_beta	81.316254
_cell_angle_gamma	82.827896
loop_
_atom_site_label
_atom_site_type_symbol
_atom_site_fract_x
_atom_site_fract_y
_atom_site_fract_z
O1	O	0.763635	0.060588	-0.113320
O2	O	0.597769	0.070619	-0.113366
O3	O	0.685717	-0.017329	-0.113313
O4	O	0.675688	0.148536	-0.113372
O5	O	0.668946	-0.000491	0.113665
O6	O	0.580999	0.087457	0.113613
O7	O	0.746865	0.077426	0.113659
Zn8	Zn	0.661269	0.085115	0.149674
Zn9	Zn	0.683365	0.062931	-0.149381
O10	O	0.658917	0.165374	0.113606
C11	C	0.568168	0.078787	0.000118
C12	C	0.504951	0.078032	0.000102
C13	C	0.677080	-0.030126	0.000180
C14	C	0.676325	-0.093344	0.000193
C15	C	0.103792	0.082476	0.123887
C16	C	0.044392	0.081759	0.123893
O17	O	0.005899	0.089174	0.229116
N18	N	0.023825	0.072225	0.000167
C19	C	0.062663	0.063402	-0.123572
O20	O	0.039715	0.055226	-0.228810
C21	C	0.122062	0.064115	-0.123576
C22	C	0.142624	0.073655	0.000157
C23	C	0.124355	0.092014	0.247611
C24	C	0.183750	0.092732	0.247604
C25	C	0.222583	0.083912	0.123875
C26	C	0.202019	0.074373	0.000151
C27	C	0.160898	0.055288	-0.247314
C28	C	0.220301	0.056001	-0.247307
C29	C	0.240863	0.065541	-0.123574
C30	C	0.300247	0.066270	-0.123584
N31	N	0.320814	0.075804	0.000141
C32	C	0.281982	0.084625	0.123871
C33	C	-0.062080	0.061904	-0.123554
C34	C	-0.121478	0.061195	-0.123551
C35	C	-0.139745	0.079551	0.123914
C36	C	-0.080346	0.080264	0.123910
C37	C	-0.041513	0.071438	0.000171
C38	C	0.406717	0.086133	0.123849
C39	C	0.466118	0.086852	0.123832
C40	C	0.484380	0.068493	-0.123633
C41	C	0.424984	0.067777	-0.123617
C42	C	0.386153	0.076595	0.000135
O43	O	0.338774	0.058857	-0.228754
O44	O	0.304939	0.092792	0.229091
C45	C	0.680735	-0.494538	-0.123608
C46	C	0.680019	-0.553938	-0.123616
O47	O	0.687403	-0.592459	-0.228841
N48	N	0.670521	-0.574471	0.000108
C49	C	0.661734	-0.535600	0.123848
O50	O	0.653590	-0.558519	0.229085
C51	C	0.662447	-0.476200	0.123855
C52	C	0.671951	-0.455672	0.000123
C53	C	0.690237	-0.474008	-0.247331
C54	C	0.690955	-0.414612	-0.247322
C55	C	0.682170	-0.375746	-0.123591
C56	C	0.672668	-0.396276	0.000131
C57	C	0.653656	-0.437330	0.247594
C58	C	0.654369	-0.377927	0.247590
C59	C	0.663873	-0.357398	0.123857
C60	C	0.664601	-0.298014	0.123870
N61	N	0.674099	-0.277481	0.000146
C62	C	0.682883	-0.316347	-0.123585
C63	C	0.660237	-0.660343	0.123825
C64	C	0.659529	-0.719741	0.123820
C65	C	0.677812	-0.738075	-0.123645
C66	C	0.678525	-0.678676	-0.123639
C67	C	0.669735	-0.639809	0.000101
C68	C	0.684390	-0.191611	-0.123558
C69	C	0.685109	-0.132210	-0.123538
C70	C	0.666823	-0.113881	0.123926
C71	C	0.666107	-0.173277	0.123908
C72	C	0.674889	-0.212142	0.000155
O73	O	0.657219	-0.259458	0.229041
O74	O	0.691019	-0.293418	-0.228804
C75	C	0.776466	0.069258	0.000172
C76	C	0.839684	0.070013	0.000179
C77	C	0.667554	0.178171	0.000110
C78	C	0.668310	0.241388	0.000088
N79	N	0.646193	0.100254	0.353770
N80	N	0.698446	0.047786	-0.353477
C81	C	0.678116	0.068194	0.421568
C82	C	0.666518	0.079851	0.578728
H83	H	0.482856	0.094623	0.224595
H84	H	0.714032	0.032115	0.363265
Br85	Br	0.071663	0.103989	0.415553
H86	H	0.144168	0.047518	-0.348071
Br87	Br	0.640755	-0.465174	0.415528
H88	H	0.692850	-0.115500	-0.224300
H89	H	0.651798	-0.736451	0.224575
H90	H	0.610274	0.136329	0.412075
H91	H	0.686262	-0.661966	-0.224393
H92	H	0.684963	-0.769731	-0.224394
H93	H	0.375107	0.093319	0.224619
H94	H	-0.063609	0.088033	0.224665
H95	H	0.653081	-0.628700	0.224595
H96	H	0.734363	0.011705	0.588223
H97	H	0.200486	0.100498	0.348361
Br98	Br	-0.192458	0.091521	0.291835
Br99	Br	-0.009384	0.049930	-0.291501
Br100	Br	0.642438	-0.325183	0.415532
Br101	Br	-0.149378	0.048261	-0.291482
Br102	Br	0.653222	-0.201141	0.291831
H103	H	0.408240	0.060018	-0.224370
H104	H	0.251917	0.048814	-0.348073
Br105	Br	0.703850	-0.386761	-0.415254
H106	H	0.659673	-0.082226	0.224665
H107	H	0.516007	0.061314	-0.224370
H108	H	0.630596	0.115928	0.637028
H109	H	0.691539	-0.223248	-0.224329
H110	H	0.697389	-0.505648	-0.348093
