data_functionalizedCrystal
_audit_creation_method	'MofGen! by Chris Wilmer'
_symmetry_space_group_name_H-M	'P1'
_symmetry_Int_Tables_number	1
_symmetry_cell_setting	triclinic
loop_
_symmetry_equiv_pos_as_xyz
  x,y,z
_cell_length_a	15.944551
_cell_length_b	13.339070
_cell_length_c	12.376457
_cell_angle_alpha	104.410245
_cell_angle_beta	101.276265
_cell_angle_gamma	80.435984
loop_
_atom_site_label
_atom_site_type_symbol
_atom_site_fract_x
_atom_site_fract_y
_atom_site_fract_z
O1	O	0.409519	-1.361721	-0.094056
O2	O	0.742853	-1.028388	0.239278
O3	O	1.076186	-0.695055	0.572611
O4	O	0.354248	-1.067189	-0.094048
O5	O	0.687581	-0.733856	0.239286
O6	O	1.020915	-0.400522	0.572619
O7	O	0.261484	-1.222496	-0.094042
O8	O	0.594817	-0.889163	0.239291
O9	O	0.928151	-0.555829	0.572625
O10	O	0.502283	-1.206414	-0.094062
O11	O	0.835617	-0.873081	0.239272
O12	O	1.168950	-0.539748	0.572605
O13	O	0.284634	-1.183683	0.093969
O14	O	0.617968	-0.850350	0.427302
O15	O	0.951301	-0.517016	0.760635
O16	O	0.377398	-1.028376	0.093963
O17	O	0.710731	-0.695043	0.427296
O18	O	1.044065	-0.361709	0.760629
O19	O	0.432670	-1.322908	0.093955
O20	O	0.766003	-0.989575	0.427288
O21	O	1.099336	-0.656242	0.760621
Zn22	Zn	0.408710	-1.169480	0.123810
Zn23	Zn	0.742043	-0.836146	0.457143
Zn24	Zn	1.075376	-0.502813	0.790476
Zn25	Zn	0.378208	-1.220618	-0.123903
Zn26	Zn	0.711541	-0.887284	0.209431
Zn27	Zn	1.044875	-0.553951	0.542764
O28	O	0.525433	-1.167601	0.093949
O29	O	0.858767	-0.834268	0.427282
O30	O	1.192100	-0.500935	0.760616
C31	C	0.356487	-1.010092	-0.000041
C32	C	0.689820	-0.676759	0.333292
C33	C	1.023153	-0.343426	0.666625
C34	C	0.328657	-0.897788	-0.000038
C35	C	0.661990	-0.564455	0.333295
C36	C	0.995323	-0.231121	0.666629
C37	C	0.241610	-1.202422	-0.000036
C38	C	0.574943	-0.869088	0.333297
C39	C	0.908276	-0.535755	0.666630
C40	C	0.147897	-1.200420	-0.000036
C41	C	0.481231	-0.867086	0.333298
C42	C	0.814564	-0.533753	0.666631
C43	C	0.430431	-1.380005	-0.000054
C44	C	0.763764	-1.046672	0.333279
C45	C	1.097097	-0.713339	0.666613
C46	C	0.458260	-1.492311	-0.000065
C47	C	0.791593	-1.158978	0.333268
C48	C	1.124926	-0.825645	0.666602
C49	C	-0.090507	-1.099369	-0.000048
C50	C	0.242826	-0.766036	0.333285
C51	C	0.576159	-0.432703	0.666618
C52	C	-0.129176	-1.127158	0.092651
C53	C	0.204157	-0.793825	0.425984
C54	C	0.537491	-0.460491	0.759318
C55	C	-0.023674	-1.196799	-0.000044
C56	C	0.309660	-0.863466	0.333289
C57	C	0.642993	-0.530133	0.666622
C58	C	-0.151979	-1.165448	-0.092713
C59	C	0.181355	-0.832114	0.240620
C60	C	0.514688	-0.498781	0.573954
C61	C	-0.189405	-1.193296	-0.000057
C62	C	0.143929	-0.859963	0.333276
C63	C	0.477262	-0.526630	0.666609
C64	C	-0.061099	-1.224599	0.092732
C65	C	0.272235	-0.891266	0.426065
C66	C	0.605568	-0.557932	0.759398
C67	C	-0.083908	-1.262892	-0.092715
C68	C	0.249425	-0.929559	0.240618
C69	C	0.582759	-0.596225	0.573951
C70	C	-0.122540	-1.290747	0.000007
C71	C	0.210793	-0.957414	0.333340
C72	C	0.544127	-0.624080	0.666673
C73	C	0.071800	-1.198814	-0.000036
C74	C	0.405133	-0.865481	0.333298
C75	C	0.738466	-0.532148	0.666631
C76	C	-0.284874	-1.191287	-0.000058
C77	C	0.048459	-0.857954	0.333275
C78	C	0.381793	-0.524621	0.666609
C79	C	0.545308	-1.187676	-0.000059
C80	C	0.878641	-0.854343	0.333274
C81	C	1.211974	-0.521009	0.666607
C82	C	0.639019	-1.189680	-0.000067
C83	C	0.972352	-0.856346	0.333266
C84	C	1.305686	-0.523013	0.666599
N85	N	0.429527	-1.134587	0.292867
N86	N	0.762860	-0.801254	0.626200
N87	N	1.096194	-0.467920	0.959533
C88	C	0.545045	-0.533017	-0.000074
C89	C	0.878378	-0.199684	0.333260
C90	C	1.211712	0.133650	0.666593
C91	C	0.571195	-0.638533	-0.000081
C92	C	0.904528	-0.305200	0.333253
C93	C	1.237861	0.028134	0.666586
C94	C	0.510563	-0.703352	-0.000069
C95	C	0.843896	-0.370018	0.333264
C96	C	1.177229	-0.036685	0.666597
C97	C	0.423776	-0.662645	-0.000053
C98	C	0.757109	-0.329311	0.333281
C99	C	1.090443	0.004022	0.666614
C100	C	0.397623	-0.557120	-0.000055
C101	C	0.730956	-0.223787	0.333279
C102	C	1.064289	0.109546	0.666612
C103	C	0.363140	-0.727455	-0.000050
C104	C	0.696474	-0.394121	0.333283
C105	C	1.029807	-0.060788	0.666616
C106	C	0.276354	-0.686748	-0.000033
C107	C	0.609687	-0.353414	0.333300
C108	C	0.943020	-0.020081	0.666633
C109	C	0.250205	-0.581233	-0.000035
C110	C	0.583538	-0.247900	0.333299
C111	C	0.916872	0.085433	0.666632
C112	C	0.310837	-0.516415	-0.000046
C113	C	0.644171	-0.183081	0.333288
C114	C	0.977504	0.150252	0.666621
C115	C	0.389294	-0.832979	-0.000048
C116	C	0.722627	-0.499646	0.333285
C117	C	1.055960	-0.166312	0.666618
C118	C	0.241871	-0.857082	-0.000029
C119	C	0.575205	-0.523749	0.333304
C120	C	0.908538	-0.190416	0.666638
C121	C	0.215722	-0.751566	-0.000022
C122	C	0.549055	-0.418233	0.333311
C123	C	0.882388	-0.084900	0.666644
N124	N	0.357386	-1.255518	-0.292960
N125	N	0.690719	-0.922185	0.040374
N126	N	1.024052	-0.588852	0.373707
C127	C	0.309045	-1.336516	0.647859
C128	C	0.642378	-1.003182	0.981193
C129	C	0.975711	-0.669849	1.314526
C130	C	0.294473	-1.360931	0.529520
C131	C	0.627806	-1.027598	0.862854
C132	C	0.961140	-0.694265	1.196187
C133	C	0.328235	-1.304347	0.470351
C134	C	0.661568	-0.971014	0.803684
C135	C	0.994902	-0.637680	1.137018
C136	C	0.376572	-1.223343	0.529532
C137	C	0.709905	-0.890010	0.862866
C138	C	1.043238	-0.556677	1.196199
C139	C	0.391151	-1.198930	0.647883
C140	C	0.724484	-0.865597	0.981216
C141	C	1.057817	-0.532264	1.314550
C142	C	0.410341	-1.166762	0.470375
C143	C	0.743674	-0.833429	0.803708
C144	C	1.077008	-0.500095	1.137041
C145	C	0.458678	-1.085758	0.529556
C146	C	0.792011	-0.752425	0.862889
C147	C	1.125344	-0.419091	1.196223
C148	C	0.473254	-1.061349	0.647895
C149	C	0.806587	-0.728015	0.981228
C150	C	1.139920	-0.394682	1.314561
C151	C	0.439492	-1.117933	0.707064
C152	C	0.772825	-0.784600	1.040397
C153	C	1.106158	-0.451266	1.373731
C154	C	0.395762	-1.191175	0.352024
C155	C	0.729095	-0.857842	0.685357
C156	C	1.062429	-0.524508	1.018691
C157	C	0.477868	-1.053590	0.352048
C158	C	0.811201	-0.720256	0.685381
C159	C	1.144535	-0.386923	1.018714
C160	C	0.492440	-1.029174	0.470387
C161	C	0.825773	-0.695840	0.803720
C162	C	1.159106	-0.362507	1.137053
H163	H	-0.076032	-1.018478	0.000046
H164	H	0.257301	-0.685144	0.333380
H165	H	0.590635	-0.351811	0.666713
H166	H	0.192498	-0.909859	-0.000025
H167	H	0.525832	-0.576526	0.333308
H168	H	0.859165	-0.243193	0.666642
H169	H	0.594401	-0.480235	-0.000092
H170	H	0.927734	-0.146902	0.333241
H171	H	1.261068	0.186431	0.666574
H172	H	0.281565	-1.382585	0.696043
H173	H	0.614899	-1.049251	1.029376
H174	H	0.948232	-0.715918	1.362709
F175	F	-0.155396	-1.052149	0.195090
F176	F	0.177937	-0.718816	0.528423
F177	F	0.511270	-0.385483	0.861756
H178	H	-0.021853	-1.249577	0.171188
H179	H	0.311480	-0.916244	0.504521
H180	H	0.644813	-0.582911	0.837854
F181	F	0.524708	-0.975148	0.710880
F182	F	0.858042	-0.641815	1.044214
F183	F	1.191375	-0.308481	1.377547
H184	H	-0.136832	-1.371680	0.000057
H185	H	0.196502	-1.038346	0.333390
H186	H	0.529835	-0.705013	0.666723
H187	H	0.531859	-0.789267	-0.000078
H188	H	0.865192	-0.455934	0.333256
H189	H	1.198525	-0.122601	0.666589
H190	H	-0.063834	-1.320246	-0.171092
H191	H	0.269499	-0.986913	0.162242
H192	H	0.602832	-0.653579	0.495575
F193	F	0.283011	-0.404109	-0.000036
F194	F	0.616344	-0.070776	0.333298
F195	F	0.949677	0.262557	0.666631
H196	H	-0.191311	-1.140405	-0.171088
H197	H	0.142022	-0.807072	0.162245
H198	H	0.475356	-0.473739	0.495578
H199	H	0.459956	-0.866111	-0.000057
H200	H	0.793289	-0.532778	0.333276
H201	H	1.126623	-0.199445	0.666609
F202	F	0.543883	-0.942965	0.533384
F203	F	0.877216	-0.609632	0.866717
F204	F	1.210550	-0.276299	1.200051
F205	F	0.344320	-1.277382	0.289053
F206	F	0.677654	-0.944049	0.622386
F207	F	1.010987	-0.610715	0.955719
H208	H	0.179536	-0.548096	-0.000034
H209	H	0.512870	-0.214763	0.333300
H210	H	0.846203	0.118571	0.666633
F211	F	0.663555	-0.681850	-0.000103
F212	F	0.996888	-0.348517	0.333230
F213	F	1.330221	-0.015183	0.666564
H214	H	0.145057	-0.718409	-0.000018
H215	H	0.478391	-0.385076	0.333315
H216	H	0.811724	-0.051743	0.666649
H217	H	0.505362	-1.007515	0.303873
H218	H	0.838696	-0.674182	0.637206
H219	H	1.172029	-0.340849	0.970540
F220	F	0.312724	-1.330333	0.344404
F221	F	0.646058	-0.997000	0.677737
F222	F	0.979391	-0.663666	1.011070
H223	H	0.255119	-1.426885	0.481339
H224	H	0.588452	-1.093551	0.814673
H225	H	0.921785	-0.760218	1.148006
H226	H	0.451353	-1.098051	0.803425
H227	H	0.784686	-0.764718	1.136759
H228	H	1.118019	-0.431385	1.470092
