data_functionalizedCrystal
_audit_creation_method	'MofGen! by Chris Wilmer'
_symmetry_space_group_name_H-M	'P1'
_symmetry_Int_Tables_number	1
_symmetry_cell_setting	triclinic
loop_
_symmetry_equiv_pos_as_xyz
  x,y,z
_cell_length_a	19.188930
_cell_length_b	17.699083
_cell_length_c	16.776229
_cell_angle_alpha	90.007545
_cell_angle_beta	90.021024
_cell_angle_gamma	83.213897
loop_
_atom_site_label
_atom_site_type_symbol
_atom_site_fract_x
_atom_site_fract_y
_atom_site_fract_z
O1	O	-0.926253	-0.094493	-0.066546
O2	O	-0.722956	-0.107213	-0.066492
O3	O	-0.830348	0.009343	-0.066513
O4	O	-0.818861	-0.211050	-0.066524
O5	O	-0.830334	0.009351	0.066063
O6	O	-0.722942	-0.107206	0.066085
O7	O	-0.926239	-0.094486	0.066030
Zn8	Zn	-0.824588	-0.100845	0.087107
Zn9	Zn	-0.824607	-0.100854	-0.087568
O10	O	-0.818847	-0.211043	0.066052
C11	C	-0.829930	0.037543	-0.000225
C12	C	-0.828695	0.121560	-0.000224
C13	C	-0.696938	-0.106798	-0.000196
C14	C	-0.619432	-0.105561	-0.000175
C15	C	-0.952258	-0.094902	-0.000267
C16	C	-1.029763	-0.096138	-0.000293
C17	C	-0.574584	-0.173953	-0.000191
C18	C	-0.501759	-0.172791	-0.000200
C19	C	-0.473785	-0.103234	-0.000209
C20	C	-0.518642	-0.034833	-0.000188
C21	C	-0.591465	-0.035997	-0.000172
N22	N	-0.365750	-0.050069	-0.045360
N23	N	-0.296570	-0.048968	-0.045377
C24	C	-0.254372	-0.099724	-0.000257
N25	N	-0.283966	-0.151634	0.044871
N26	N	-0.353152	-0.152737	0.044885
C27	C	-0.394821	-0.101965	-0.000226
C28	C	-0.130559	-0.166861	-0.000282
C29	C	-0.057733	-0.165696	-0.000285
C30	C	-0.074617	-0.027736	-0.000282
C31	C	-0.147442	-0.028903	-0.000270
C32	C	-0.175408	-0.098467	-0.000274
C33	C	-0.819266	-0.239243	-0.000238
C34	C	-0.820500	-0.323259	-0.000244
N35	N	-0.824581	-0.100838	0.206318
C36	C	-0.891732	0.170264	-0.000240
C37	C	-0.890567	0.249206	-0.000247
C38	C	-0.826365	0.279442	-0.000232
C39	C	-0.763323	0.230732	-0.000219
C40	C	-0.764489	0.151791	-0.000218
C41	C	-0.758623	0.549089	-0.000224
C42	C	-0.757463	0.628035	-0.000222
C43	C	-0.884702	0.646503	-0.000253
C44	C	-0.885867	0.567563	-0.000252
C45	C	-0.822826	0.518859	-0.000243
C46	C	-0.824089	0.433262	-0.000237
C47	C	-0.825101	0.365038	-0.000232
N48	N	-0.824620	-0.100855	-0.206779
C49	C	-0.872148	-0.049248	0.248026
C50	C	-0.872152	-0.049247	0.331478
C51	C	-0.824591	-0.100841	0.373221
C52	C	-0.777018	-0.152434	0.331508
C53	C	-0.777012	-0.152430	0.248057
C54	C	-0.777044	-0.152449	0.668055
C55	C	-0.777055	-0.152450	0.751512
C56	C	-0.872184	-0.049266	0.751476
C57	C	-0.872177	-0.049262	0.668025
C58	C	-0.824602	-0.100852	0.626319
C59	C	-0.824598	-0.100851	0.535831
C60	C	-0.824598	-0.100846	0.463708
H61	H	-0.465238	-0.228486	-0.000211
H62	H	-0.183958	0.026790	-0.000261
H63	H	-0.051841	0.028899	-0.000338
H64	H	-0.495860	0.021801	-0.000206
H65	H	-0.153330	-0.223504	-0.000273
N66	N	-0.923465	0.006390	0.376460
H67	H	-0.916252	-0.001437	0.435660
H68	H	-0.915498	0.060064	0.361886
N69	N	-0.694074	0.263336	-0.000197
H70	H	-0.666467	0.245556	-0.049336
H71	H	-0.702956	0.320730	-0.000166
N72	N	-0.725735	-0.208101	0.623090
H73	H	-0.752350	-0.241542	0.588445
H74	H	-0.694876	-0.179211	0.588536
N75	N	-0.725702	-0.208073	0.203074
H76	H	-0.733647	-0.261772	0.217580
H77	H	-0.732936	-0.200176	0.143889
H78	H	-0.910920	-0.007256	0.785442
N79	N	-0.923478	0.006382	0.623002
H80	H	-0.953612	0.039066	0.662087
H81	H	-0.896804	0.039771	0.588399
N82	N	-0.639842	0.037771	-0.000151
H83	H	-0.611073	0.082014	-0.000154
H84	H	-0.670448	0.040293	-0.049292
N85	N	-0.725751	-0.208095	0.796538
H86	H	-0.695608	-0.240774	0.757455
H87	H	-0.694948	-0.179193	0.831184
H88	H	-0.597349	-0.230598	-0.000196
H89	H	-0.713157	0.112137	-0.000205
H90	H	-0.021218	-0.221391	-0.000294
N91	N	-0.725714	-0.208078	0.376526
H92	H	-0.732936	-0.200254	0.435721
H93	H	-0.733682	-0.261750	0.361924
H94	H	-0.944012	0.145652	-0.000247
N95	N	-0.958556	0.301738	-0.000256
H96	H	-0.986584	0.292030	-0.049405
H97	H	-0.986505	0.292018	0.048920
N98	N	-0.955113	0.534950	-0.000261
H99	H	-0.994871	0.577784	-0.000273
H100	H	-0.958372	0.502593	-0.049409
H101	H	-0.936033	0.686167	-0.000264
N102	N	-0.923442	0.006397	0.202995
H103	H	-0.972981	-0.002183	0.217487
H104	H	-0.915434	0.060069	0.217548
N105	N	-0.688213	0.660650	-0.000202
H106	H	-0.648453	0.617818	-0.000197
H107	H	-0.684967	0.692999	-0.049346
H108	H	-0.707291	0.509443	-0.000216
