data_functionalizedCrystal
_audit_creation_method	'MofGen! by Chris Wilmer'
_symmetry_space_group_name_H-M	'P1'
_symmetry_Int_Tables_number	1
_symmetry_cell_setting	triclinic
loop_
_symmetry_equiv_pos_as_xyz
  x,y,z
_cell_length_a	14.519709
_cell_length_b	14.044190
_cell_length_c	12.996460
_cell_angle_alpha	89.989157
_cell_angle_beta	90.000034
_cell_angle_gamma	88.435961
loop_
_atom_site_label
_atom_site_type_symbol
_atom_site_fract_x
_atom_site_fract_y
_atom_site_fract_z
O1	O	1.233896	0.124273	-0.085444
O2	O	1.483896	0.374273	0.164556
O3	O	1.733896	0.624273	0.414556
O4	O	1.983896	0.874273	0.664556
O5	O	0.966600	0.138908	-0.085477
O6	O	1.216600	0.388908	0.164523
O7	O	1.466600	0.638908	0.414523
O8	O	1.716600	0.888908	0.664523
O9	O	1.096232	-0.006401	-0.085440
O10	O	1.346232	0.243599	0.164560
O11	O	1.596232	0.493599	0.414560
O12	O	1.846232	0.743599	0.664560
O13	O	1.104263	0.269582	-0.085480
O14	O	1.354263	0.519582	0.164520
O15	O	1.604263	0.769582	0.414520
O16	O	1.854263	1.019582	0.664520
O17	O	1.096217	-0.006409	0.085693
O18	O	1.346217	0.243591	0.335693
O19	O	1.596217	0.493591	0.585693
O20	O	1.846217	0.743591	0.835693
O21	O	0.966584	0.138899	0.085657
O22	O	1.216584	0.388899	0.335657
O23	O	1.466584	0.638899	0.585657
O24	O	1.716584	0.888899	0.835657
O25	O	1.233880	0.124265	0.085690
O26	O	1.483880	0.374265	0.335690
O27	O	1.733880	0.624265	0.585690
O28	O	1.983880	0.874265	0.835690
Cu29	Cu	1.100231	0.131581	0.101300
Cu30	Cu	1.350231	0.381581	0.351300
Cu31	Cu	1.600231	0.631581	0.601300
Cu32	Cu	1.850231	0.881581	0.851300
Cu33	Cu	1.100249	0.131591	-0.101086
Cu34	Cu	1.350249	0.381591	0.148914
Cu35	Cu	1.600249	0.631591	0.398914
Cu36	Cu	1.850249	0.881591	0.648914
O37	O	1.104248	0.269574	0.085654
O38	O	1.354248	0.519574	0.335654
O39	O	1.604248	0.769574	0.585654
O40	O	1.854248	1.019574	0.835654
C41	C	0.932177	0.138221	0.000086
C42	C	1.182177	0.388221	0.250086
C43	C	1.432177	0.638221	0.500086
C44	C	1.682177	0.888221	0.750086
C45	C	0.829631	0.136178	0.000075
C46	C	1.079631	0.386178	0.250075
C47	C	1.329631	0.636178	0.500075
C48	C	1.579631	0.886178	0.750075
C49	C	1.092711	-0.041726	0.000129
C50	C	1.342711	0.208274	0.250129
C51	C	1.592711	0.458274	0.500129
C52	C	1.842711	0.708274	0.750129
C53	C	1.082231	-0.146970	0.000137
C54	C	1.332231	0.103030	0.250137
C55	C	1.582231	0.353030	0.500137
C56	C	1.832231	0.603030	0.750137
C57	C	0.454128	0.128654	0.000123
C58	C	0.704128	0.378654	0.250123
C59	C	0.954128	0.628654	0.500123
C60	C	1.204128	0.878654	0.750123
C61	C	0.558604	0.130743	0.000109
C62	C	0.808604	0.380743	0.250109
C63	C	1.058604	0.630743	0.500109
C64	C	1.308604	0.880743	0.750109
C65	C	0.641876	0.132415	0.000098
C66	C	0.891876	0.382415	0.250098
C67	C	1.141876	0.632415	0.500098
C68	C	1.391876	0.882415	0.750098
C69	C	0.746359	0.134505	0.000086
C70	C	0.996359	0.384505	0.250086
C71	C	1.246359	0.634505	0.500086
C72	C	1.496359	0.884505	0.750086
C73	C	1.137397	-0.397162	0.000103
C74	C	1.387397	-0.147162	0.250103
C75	C	1.637397	0.102838	0.500103
C76	C	1.887397	0.352838	0.750103
C77	C	1.063087	-0.339659	0.000101
C78	C	1.313087	-0.089659	0.250101
C79	C	1.563087	0.160341	0.500101
C80	C	1.813087	0.410341	0.750101
C81	C	1.073741	-0.232437	0.000121
C82	C	1.323741	0.017563	0.250121
C83	C	1.573741	0.267563	0.500121
C84	C	1.823741	0.517563	0.750121
C85	C	1.126744	-0.504395	0.000083
C86	C	1.376744	-0.254395	0.250083
C87	C	1.626744	-0.004395	0.500083
C88	C	1.876744	0.245605	0.750083
C89	C	1.268303	0.124951	0.000125
C90	C	1.518303	0.374951	0.250125
C91	C	1.768303	0.624951	0.500125
C92	C	2.018303	0.874951	0.750125
C93	C	1.370849	0.126995	0.000130
C94	C	1.620849	0.376995	0.250130
C95	C	1.870849	0.626995	0.500130
C96	C	2.120849	0.876995	0.750130
C97	C	1.107769	0.304898	0.000082
C98	C	1.357769	0.554898	0.250082
C99	C	1.607769	0.804898	0.500082
C100	C	1.857769	1.054898	0.750082
C101	C	1.118248	0.410142	0.000068
C102	C	1.368248	0.660142	0.250068
C103	C	1.618248	0.910142	0.500068
C104	C	1.868248	1.160142	0.750068
N105	N	1.100225	0.131574	0.243647
N106	N	1.350225	0.381574	0.493647
N107	N	1.600225	0.631574	0.743647
N108	N	1.850225	0.881574	0.993647
N109	N	1.100262	0.131591	-0.243433
N110	N	1.350262	0.381591	0.006567
N111	N	1.600262	0.631591	0.256567
N112	N	1.850262	0.881591	0.506567
C113	C	1.100248	0.131592	0.663461
C114	C	1.350248	0.381592	0.913461
C115	C	1.600248	0.631592	1.163461
C116	C	1.850248	0.881592	1.413461
C117	C	1.100239	0.131590	0.546656
C118	C	1.350239	0.381590	0.796656
C119	C	1.600239	0.631590	1.046656
C120	C	1.850239	0.881590	1.296656
C121	C	1.100237	0.131584	0.453557
C122	C	1.350237	0.381584	0.703557
C123	C	1.600237	0.631584	0.953557
C124	C	1.850237	0.881584	1.203557
C125	C	1.100227	0.131581	0.336745
C126	C	1.350227	0.381581	0.586745
C127	C	1.600227	0.631581	0.836745
C128	C	1.850227	0.881581	1.086745
H129	H	0.991467	-0.370956	0.000087
H130	H	1.241467	-0.120956	0.250087
H131	H	1.491467	0.129044	0.500087
H132	H	1.741467	0.379044	0.750087
H133	H	1.209011	-0.365868	0.000123
H134	H	1.459011	-0.115868	0.250123
H135	H	1.709011	0.134132	0.500123
H136	H	1.959011	0.384132	0.750123
