data_functionalizedCrystal
_audit_creation_method	'MofGen! by Chris Wilmer'
_symmetry_space_group_name_H-M	'P1'
_symmetry_Int_Tables_number	1
_symmetry_cell_setting	triclinic
loop_
_symmetry_equiv_pos_as_xyz
  x,y,z
_cell_length_a	21.295418
_cell_length_b	21.295411
_cell_length_c	12.759394
_cell_angle_alpha	89.985231
_cell_angle_beta	90.030652
_cell_angle_gamma	89.956262
loop_
_atom_site_label
_atom_site_type_symbol
_atom_site_fract_x
_atom_site_fract_y
_atom_site_fract_z
Zn1	Zn	0.962424	-0.356264	-0.417943
Zn2	Zn	1.462424	0.143736	0.082057
Zn3	Zn	0.962355	-0.251002	-0.593608
Zn4	Zn	1.462355	0.248998	-0.093608
Zn5	Zn	0.857147	-0.250974	-0.417992
Zn6	Zn	1.357147	0.249026	0.082008
Zn7	Zn	0.857146	-0.356198	-0.593629
Zn8	Zn	1.357146	0.143802	-0.093629
O9	O	0.909768	-0.303609	-0.505793
O10	O	1.409768	0.196391	-0.005793
O11	O	1.050505	-0.342340	-0.441216
O12	O	1.550505	0.157660	0.058784
O13	O	0.948371	-0.162909	-0.570324
O14	O	1.448371	0.337091	-0.070324
O15	O	0.871142	-0.264956	-0.270964
O16	O	1.371142	0.235044	0.229036
O17	O	1.050454	-0.265004	-0.570276
O18	O	1.550454	0.234996	-0.070276
O19	O	0.948489	-0.342312	-0.270928
O20	O	1.448489	0.157688	0.229072
O21	O	0.871076	-0.162888	-0.441300
O22	O	1.371076	0.337112	0.058700
O23	O	0.769058	-0.264893	-0.441320
O24	O	1.269058	0.235107	0.058680
O25	O	0.871139	-0.444296	-0.570312
O26	O	1.371139	0.055704	-0.070312
O27	O	0.769056	-0.342201	-0.570360
O28	O	1.269056	0.157799	-0.070360
O29	O	0.948487	-0.444344	-0.441236
O30	O	1.448487	0.055656	0.058764
O31	O	0.948370	-0.264941	-0.740632
O32	O	1.448370	0.235059	-0.240632
O33	O	0.871072	-0.342228	-0.740647
O34	O	1.371072	0.157772	-0.240647
C35	C	0.746217	-0.303537	-0.505848
C36	C	1.246217	0.196463	-0.005848
C37	C	0.676248	-0.303521	-0.505897
C38	C	1.176248	0.196479	-0.005897
C39	C	0.643398	-0.343715	-0.573177
C40	C	1.143398	0.156285	-0.073177
C41	C	0.577655	-0.343743	-0.573151
C42	C	1.077655	0.156257	-0.073151
C43	C	0.544766	-0.303566	-0.505856
C44	C	1.044766	0.196434	-0.005856
C45	C	0.577625	-0.263369	-0.438563
C46	C	1.077625	0.236631	0.061437
C47	C	0.643366	-0.263346	-0.438584
C48	C	1.143366	0.236654	0.061416
N49	N	0.441489	-0.248508	-0.497633
N50	N	0.941489	0.251492	0.002367
N51	N	0.379037	-0.248531	-0.497620
N52	N	0.879037	0.251469	0.002380
C53	C	0.346691	-0.303633	-0.505789
C54	C	0.846691	0.196367	-0.005789
N55	N	0.379156	-0.358712	-0.513993
N56	N	0.879156	0.141288	-0.013993
N57	N	0.441613	-0.358687	-0.514012
N58	N	0.941613	0.141313	-0.014012
C59	C	0.473481	-0.303586	-0.505826
C60	C	0.973481	0.196414	-0.005826
C61	C	0.242555	-0.343861	-0.573045
C62	C	0.742555	0.156139	-0.073045
C63	C	0.176811	-0.343890	-0.573011
C64	C	0.676811	0.156110	-0.073011
C65	C	0.176782	-0.263511	-0.438429
C66	C	0.676782	0.236489	0.061571
C67	C	0.242525	-0.263487	-0.438457
C68	C	0.742525	0.236513	0.061543
C69	C	0.275407	-0.303661	-0.505770
C70	C	0.775407	0.196339	-0.005770
C71	C	0.909820	-0.467800	-0.505771
C72	C	1.409820	0.032200	-0.005771
C73	C	0.909843	-0.537768	-0.505761
C74	C	1.409843	-0.037768	-0.005761
C75	C	0.950116	-0.570660	-0.438548
C76	C	1.450116	-0.070660	0.061452
C77	C	0.950115	-0.636403	-0.438503
C78	C	1.450115	-0.136403	0.061497
C79	C	0.909848	-0.669250	-0.505689
C80	C	1.409848	-0.169250	-0.005689
C81	C	0.869567	-0.636350	-0.572906
C82	C	1.369567	-0.136350	-0.072906
C83	C	0.869564	-0.570608	-0.572943
C84	C	1.369564	-0.070608	-0.072943
N85	N	0.905006	-0.772471	-0.597599
N86	N	1.405006	-0.272471	-0.097599
N87	N	0.905012	-0.834922	-0.597562
N88	N	1.405012	-0.334922	-0.097562
C89	C	0.909852	-0.867325	-0.505582
C90	C	1.409852	-0.367325	-0.005582
N91	N	0.914697	-0.834917	-0.413640
N92	N	1.414697	-0.334917	0.086360
N93	N	0.914695	-0.772460	-0.413678
N94	N	1.414695	-0.272460	0.086322
C95	C	0.909845	-0.740536	-0.505657
C96	C	1.409845	-0.240536	-0.005657
C97	C	0.950126	-0.971503	-0.438314
C98	C	1.450126	-0.471503	0.061686
C99	C	0.950121	-1.037247	-0.438267
C100	C	1.450121	-0.537247	0.061733
C101	C	0.869575	-1.037193	-0.572680
C102	C	1.369575	-0.537193	-0.072680
C103	C	0.869577	-0.971450	-0.572718
C104	C	1.369577	-0.471450	-0.072718
C105	C	0.909856	-0.938609	-0.505537
C106	C	1.409856	-0.438609	-0.005537
C107	C	1.073959	-0.303682	-0.505738
C108	C	1.573959	0.196318	-0.005738
C109	C	1.143927	-0.303714	-0.505715
C110	C	1.643927	0.196286	-0.005715
C111	C	0.909730	-0.303594	-0.778760
C112	C	1.409730	0.196406	-0.278760
C113	C	0.909772	-0.303609	-0.895537
C114	C	1.409772	0.196391	-0.395537
C115	C	0.909752	-0.140058	-0.505739
C116	C	1.409752	0.359942	-0.005739
C117	C	0.909852	-0.070090	-0.505453
C118	C	1.409852	0.429910	-0.005453
C119	C	0.990322	-0.223190	-0.895468
C120	C	1.490322	0.276810	-0.395468
C121	C	1.030613	-0.182987	-0.950294
C122	C	1.530613	0.317013	-0.450294
C123	C	1.030650	-0.183005	-1.060015
C124	C	1.530650	0.316995	-0.560015
C125	C	0.990393	-0.223229	-1.114913
C126	C	1.490393	0.276771	-0.614913
C127	C	0.950101	-0.263432	-1.060087
C128	C	1.450101	0.236568	-0.560087
C129	C	0.950067	-0.263409	-0.950363
C130	C	1.450067	0.236591	-0.450363
C131	C	0.869555	-0.343853	-1.060157
C132	C	1.369555	0.156147	-0.560157
C133	C	0.869514	-0.343834	-0.950435
C134	C	1.369514	0.156166	-0.450435
C135	C	0.829298	-0.384078	-1.115054
C136	C	1.329298	0.115922	-0.615054
C137	C	0.789002	-0.424278	-1.060228
C138	C	1.289002	0.075722	-0.560228
C139	C	0.788967	-0.424258	-0.950500
C140	C	1.288967	0.075742	-0.450500
C141	C	0.829223	-0.384036	-0.895609
C142	C	1.329223	0.115964	-0.395609
C143	C	0.909823	-0.303638	-0.231759
C144	C	1.409823	0.196362	0.268241
C145	C	0.909847	-0.303651	-0.114983
C146	C	1.409847	0.196349	0.385017
H147	H	0.550842	-0.230658	-0.383770
H148	H	1.050842	0.269342	0.116230
N149	N	0.678803	-0.219997	-0.366007
N150	N	1.178803	0.280003	0.133993
H151	H	0.647995	-0.194551	-0.323365
H152	H	1.147995	0.305449	0.176635
H153	H	0.706029	-0.190809	-0.408704
H154	H	1.206029	0.309191	0.091296
H155	H	0.836766	-0.543827	-0.627674
H156	H	1.336766	-0.043827	-0.127674
N157	N	0.993566	-0.936071	-0.365867
N158	N	1.493566	-0.436071	0.134133
H159	H	0.983810	-0.947490	-0.290790
H160	H	1.483810	-0.447490	0.209210
H161	H	0.987432	-0.889446	-0.376197
H162	H	1.487432	-0.389446	0.123803
N163	N	0.993559	-1.072734	-0.365775
N164	N	1.493559	-0.572734	0.134225
H165	H	0.967986	-1.099986	-0.317079
H166	H	1.467986	-0.599986	0.182921
H167	H	1.019068	-1.041917	-0.323292
H168	H	1.519068	-0.541917	0.176708
N169	N	0.745504	-0.467620	-0.891379
N170	N	1.245504	0.032380	-0.391379
H171	H	0.716326	-0.441997	-0.845934
H172	H	1.216326	0.058003	-0.345934
H173	H	0.771101	-0.496807	-0.845840
H174	H	1.271101	0.003193	-0.345840
H175	H	0.982909	-0.663190	-0.383764
H176	H	1.482909	-0.163190	0.116236
H177	H	0.982913	-0.543926	-0.383843
H178	H	1.482913	-0.043926	0.116157
H179	H	0.550903	-0.376477	-0.627938
H180	H	1.050903	0.123523	-0.127938
N181	N	0.745583	-0.467654	-1.119440
N182	N	1.245583	0.032346	-0.619440
H183	H	0.720049	-0.493116	-1.068062
H184	H	1.220049	0.006884	-0.568062
H185	H	0.771211	-0.496825	-1.164887
H186	H	1.271211	0.003175	-0.664887
N187	N	0.826124	-0.671773	-0.645355
N188	N	1.326124	-0.171773	-0.145355
H189	H	0.832235	-0.718412	-0.635132
H190	H	1.332235	-0.218412	-0.135132
H191	H	0.835897	-0.660295	-0.720398
H192	H	1.335897	-0.160295	-0.220398
H193	H	0.829333	-0.384092	-1.204396
H194	H	1.329333	0.115908	-0.704396
H195	H	0.269329	-0.376577	-0.627850
H196	H	0.769329	0.123423	-0.127850
N197	N	0.826138	-1.072611	-0.645138
N198	N	1.326138	-0.572611	-0.145138
H199	H	0.832248	-1.119250	-0.634915
H200	H	1.332248	-0.619250	-0.134915
H201	H	0.835918	-1.061132	-0.720177
H202	H	1.335918	-0.561132	-0.220177
H203	H	0.150065	-0.376625	-0.627797
H204	H	0.650065	0.123375	-0.127797
H205	H	1.063392	-0.150238	-0.905586
H206	H	1.563392	0.349762	-0.405586
N207	N	1.074105	-0.139638	-1.119144
N208	N	1.574105	0.360362	-0.619144
H209	H	1.048545	-0.110447	-1.164737
H210	H	1.548545	0.389553	-0.664737
H211	H	1.103274	-0.165303	-1.164535
H212	H	1.603274	0.334697	-0.664535
N213	N	0.990433	-0.223256	-1.233255
N214	N	1.490433	0.276744	-0.733255
H215	H	1.033620	-0.234884	-1.259593
H216	H	1.533620	0.265116	-0.759593
H217	H	0.978862	-0.180056	-1.259667
H218	H	1.478862	0.319944	-0.759667
N219	N	0.826130	-0.935968	-0.645195
N220	N	1.326130	-0.435968	-0.145195
H221	H	0.800615	-0.966750	-0.687745
H222	H	1.300615	-0.466750	-0.187745
H223	H	0.851730	-0.908705	-0.693830
H224	H	1.351730	-0.408705	-0.193830
N225	N	0.990273	-0.223163	-0.777126
N226	N	1.490273	0.276837	-0.277126
H227	H	1.021887	-0.191581	-0.750668
H228	H	1.521887	0.308419	-0.250668
H229	H	1.001800	-0.266374	-0.750712
H230	H	1.501800	0.233626	-0.250712
H231	H	0.829194	-0.384012	-0.806268
H232	H	1.329194	0.115988	-0.306268
N233	N	0.678868	-0.387052	-0.645757
N234	N	1.178868	0.112948	-0.145757
H235	H	0.706097	-0.361412	-0.694389
H236	H	1.206097	0.138588	-0.194389
H237	H	0.648041	-0.412514	-0.688305
H238	H	1.148041	0.087486	-0.188305
N239	N	0.141322	-0.220176	-0.365839
N240	N	0.641322	0.279824	0.134161
H241	H	0.114097	-0.245818	-0.317206
H242	H	0.614097	0.254182	0.182794
H243	H	0.114031	-0.190976	-0.408526
H244	H	0.614031	0.309024	0.091474
N245	N	0.277962	-0.220138	-0.365884
N246	N	0.777962	0.279862	0.134116
H247	H	0.247153	-0.194692	-0.323244
H248	H	0.747153	0.305308	0.176756
H249	H	0.305191	-0.190951	-0.408576
H250	H	0.805191	0.309049	0.091424
