data_functionalizedCrystal
_audit_creation_method	'MofGen! by Chris Wilmer'
_symmetry_space_group_name_H-M	'P1'
_symmetry_Int_Tables_number	1
_symmetry_cell_setting	triclinic
loop_
_symmetry_equiv_pos_as_xyz
  x,y,z
_cell_length_a	14.044220
_cell_length_b	14.519709
_cell_length_c	12.503572
_cell_angle_alpha	93.528838
_cell_angle_beta	86.164750
_cell_angle_gamma	88.434511
loop_
_atom_site_label
_atom_site_type_symbol
_atom_site_fract_x
_atom_site_fract_y
_atom_site_fract_z
O1	O	-1.263535	-0.217488	0.089210
O2	O	-1.013535	0.032512	0.339210
O3	O	-0.763535	0.282512	0.589210
O4	O	-0.513535	0.532512	0.839210
O5	O	-0.987553	-0.209462	0.089237
O6	O	-0.737553	0.040538	0.339237
O7	O	-0.487553	0.290538	0.589237
O8	O	-0.237553	0.540538	0.839237
O9	O	-1.132861	-0.079828	0.089213
O10	O	-0.882861	0.170172	0.339213
O11	O	-0.632861	0.420172	0.589213
O12	O	-0.382861	0.670172	0.839213
O13	O	-1.118227	-0.347123	0.089234
O14	O	-0.868227	-0.097123	0.339234
O15	O	-0.618227	0.152877	0.589234
O16	O	-0.368227	0.402877	0.839234
O17	O	-1.121933	-0.089595	-0.089427
O18	O	-0.871933	0.160405	0.160573
O19	O	-0.621933	0.410405	0.410573
O20	O	-0.371933	0.660405	0.660573
O21	O	-0.976625	-0.219229	-0.089403
O22	O	-0.726625	0.030771	0.160597
O23	O	-0.476625	0.280771	0.410597
O24	O	-0.226625	0.530771	0.660597
O25	O	-1.252607	-0.227255	-0.089430
O26	O	-1.002607	0.022745	0.160570
O27	O	-0.752607	0.272745	0.410570
O28	O	-0.502607	0.522745	0.660570
Cu29	Cu	-1.113618	-0.224134	-0.105728
Cu30	Cu	-0.863618	0.025866	0.144272
Cu31	Cu	-0.613618	0.275866	0.394272
Cu32	Cu	-0.363618	0.525866	0.644272
Cu33	Cu	-1.126542	-0.212583	0.105535
Cu34	Cu	-0.876542	0.037417	0.355535
Cu35	Cu	-0.626542	0.287417	0.605535
Cu36	Cu	-0.376542	0.537417	0.855535
O37	O	-1.107299	-0.356890	-0.089406
O38	O	-0.857299	-0.106890	0.160594
O39	O	-0.607299	0.143110	0.410594
O40	O	-0.357299	0.393110	0.660594
C41	C	-0.946769	-0.210833	-0.000079
C42	C	-0.696769	0.039167	0.249921
C43	C	-0.446769	0.289167	0.499921
C44	C	-0.196769	0.539167	0.749921
C45	C	-0.841526	-0.200356	-0.000069
C46	C	-0.591526	0.049644	0.249931
C47	C	-0.341526	0.299644	0.499931
C48	C	-0.091526	0.549644	0.749931
C49	C	-1.293391	-0.225884	-0.000111
C50	C	-1.043391	0.024116	0.249889
C51	C	-0.793391	0.274116	0.499889
C52	C	-0.543391	0.524116	0.749889
C53	C	-1.398634	-0.236361	-0.000114
C54	C	-1.148634	0.013639	0.249886
C55	C	-0.898634	0.263639	0.499886
C56	C	-0.648634	0.513639	0.749886
C57	C	-1.126715	-0.050296	-0.000107
C58	C	-0.876715	0.199704	0.249893
C59	C	-0.626715	0.449704	0.499893
C60	C	-0.376715	0.699704	0.749893
C61	C	-1.124671	0.052250	-0.000107
C62	C	-0.874671	0.302250	0.249893
C63	C	-0.624671	0.552250	0.499893
C64	C	-0.374671	0.802250	0.749893
C65	C	-0.648831	-0.181202	-0.000092
C66	C	-0.398831	0.068798	0.249908
C67	C	-0.148831	0.318798	0.499908
C68	C	0.101169	0.568798	0.749908
C69	C	-0.591324	-0.255510	-0.000091
C70	C	-0.341324	-0.005510	0.249909
C71	C	-0.091324	0.244490	0.499909
C72	C	0.158676	0.494490	0.749909
C73	C	-0.484102	-0.244853	-0.000104
C74	C	-0.234102	0.005147	0.249896
C75	C	0.015898	0.255147	0.499896
C76	C	0.265898	0.505147	0.749896
C77	C	-0.756063	-0.191858	-0.000079
C78	C	-0.506063	0.058142	0.249921
C79	C	-0.256063	0.308142	0.499921
C80	C	-0.006063	0.558142	0.749921
C81	C	-1.113446	-0.386421	-0.000083
C82	C	-0.863446	-0.136421	0.249917
C83	C	-0.613446	0.113579	0.499917
C84	C	-0.363446	0.363579	0.749917
C85	C	-1.115490	-0.488967	-0.000076
C86	C	-0.865490	-0.238967	0.249924
C87	C	-0.615490	0.011033	0.499924
C88	C	-0.365490	0.261033	0.749924
N89	N	-1.104535	-0.232258	-0.254318
N90	N	-0.854535	0.017742	-0.004318
N91	N	-0.604535	0.267742	0.245682
N92	N	-0.354535	0.517742	0.495682
C93	C	-1.117148	0.427754	-0.000078
C94	C	-0.867148	0.677754	0.249922
C95	C	-0.617148	0.927754	0.499922
C96	C	-0.367148	1.177754	0.749922
C97	C	-1.119237	0.323277	-0.000087
C98	C	-0.869237	0.573277	0.249913
C99	C	-0.619237	0.823277	0.499913
C100	C	-0.369237	1.073277	0.749913
C101	C	-1.120909	0.240005	-0.000094
C102	C	-0.870909	0.490005	0.249906
C103	C	-0.620909	0.740005	0.499906
C104	C	-0.370909	0.990005	0.749906
C105	C	-1.122999	0.135522	-0.000100
C106	C	-0.872999	0.385522	0.249900
C107	C	-0.622999	0.635522	0.499900
C108	C	-0.372999	0.885522	0.749900
C109	C	-1.091174	-0.244217	-0.473431
C110	C	-0.841174	0.005783	-0.223431
C111	C	-0.591174	0.255783	0.026569
C112	C	-0.341174	0.505783	0.276569
C113	C	-1.148990	-0.192497	-0.526768
C114	C	-0.898990	0.057503	-0.276768
C115	C	-0.648990	0.307503	-0.026768
C116	C	-0.398990	0.557503	0.223232
C117	C	-1.141556	-0.199151	-0.648690
C118	C	-0.891556	0.050849	-0.398690
C119	C	-0.641556	0.300849	-0.148690
C120	C	-0.391556	0.550849	0.101310
C121	C	-1.098607	-0.237564	-0.351498
C122	C	-0.848607	0.012436	-0.101498
C123	C	-0.598607	0.262436	0.148502
C124	C	-0.348607	0.512436	0.398502
N125	N	-1.135632	-0.204453	0.254126
N126	N	-0.885632	0.045547	0.504126
N127	N	-0.635632	0.295547	0.754126
N128	N	-0.385632	0.545547	1.004126
H129	H	-0.622617	-0.327131	-0.000080
H130	H	-0.372617	-0.077131	0.249920
H131	H	-0.122617	0.172869	0.499920
H132	H	0.127383	0.422869	0.749920
O133	O	-1.025386	-0.303020	-0.528017
O134	O	-0.775386	-0.053020	-0.278017
O135	O	-0.525386	0.196980	-0.028017
O136	O	-0.275386	0.446980	0.221983
C137	C	-0.973103	-0.349825	-0.454421
C138	C	-0.723103	-0.099825	-0.204421
C139	C	-0.473103	0.150175	0.045579
C140	C	-0.223103	0.400175	0.295579
H141	H	-0.976711	-0.307618	-0.374221
H142	H	-0.726711	-0.057618	-0.124221
H143	H	-0.476711	0.192382	0.125779
H144	H	-0.226711	0.442382	0.375779
H145	H	-0.895476	-0.359506	-0.487024
H146	H	-0.645476	-0.109506	-0.237024
H147	H	-0.395476	0.140494	0.012976
H148	H	-0.145476	0.390494	0.262976
H149	H	-1.004842	-0.420198	-0.442506
H150	H	-0.754842	-0.170198	-0.192506
H151	H	-0.504842	0.079802	0.057494
H152	H	-0.254842	0.329802	0.307494
O153	O	-0.611473	-0.095772	0.000095
O154	O	-0.361473	0.154228	0.250095
O155	O	-0.111473	0.404228	0.500095
O156	O	0.138527	0.654228	0.750095
C157	C	-0.560547	-0.080157	0.092597
C158	C	-0.310547	0.169843	0.342597
C159	C	-0.060547	0.419843	0.592597
C160	C	0.189453	0.669843	0.842597
H161	H	-0.588050	-0.126708	0.157262
H162	H	-0.338050	0.123292	0.407262
H163	H	-0.088050	0.373292	0.657262
H164	H	0.161950	0.623292	0.907262
H165	H	-0.571062	-0.004845	0.123657
H166	H	-0.321062	0.245155	0.373657
H167	H	-0.071062	0.495155	0.623657
H168	H	0.178938	0.745155	0.873657
H169	H	-0.481351	-0.096288	0.071673
H170	H	-0.231351	0.153712	0.321673
H171	H	0.018649	0.403712	0.571673
H172	H	0.268649	0.653712	0.821673
O173	O	-1.214508	-0.133608	-0.471848
O174	O	-0.964508	0.116392	-0.221848
O175	O	-0.714508	0.366392	0.028152
O176	O	-0.464508	0.616392	0.278152
C177	C	-1.207301	-0.139838	-0.360578
C178	C	-0.957301	0.110162	-0.110578
C179	C	-0.707301	0.360162	0.139422
C180	C	-0.457301	0.610162	0.389422
H181	H	-1.173273	-0.209563	-0.345275
H182	H	-0.923273	0.040437	-0.095275
H183	H	-0.673273	0.290437	0.154725
H184	H	-0.423273	0.540437	0.404725
H185	H	-1.281584	-0.132791	-0.317635
H186	H	-1.031584	0.117209	-0.067635
H187	H	-0.781584	0.367209	0.182365
H188	H	-0.531584	0.617209	0.432365
H189	H	-1.161221	-0.082199	-0.328846
H190	H	-0.911221	0.167801	-0.078846
H191	H	-0.661221	0.417801	0.171154
H192	H	-0.411221	0.667801	0.421154
