data_functionalizedCrystal
_audit_creation_method	'MofGen! by Chris Wilmer'
_symmetry_space_group_name_H-M	'P1'
_symmetry_Int_Tables_number	1
_symmetry_cell_setting	triclinic
loop_
_symmetry_equiv_pos_as_xyz
  x,y,z
_cell_length_a	12.811457
_cell_length_b	12.837942
_cell_length_c	13.448316
_cell_angle_alpha	89.994234
_cell_angle_beta	95.425199
_cell_angle_gamma	89.411937
loop_
_atom_site_label
_atom_site_type_symbol
_atom_site_fract_x
_atom_site_fract_y
_atom_site_fract_z
O1	O	1.406626	0.139672	0.044159
O2	O	1.906626	0.639672	0.544159
O3	O	1.102566	0.154864	0.016737
O4	O	1.602566	0.654864	0.516737
O5	O	1.247854	-0.003664	0.029846
O6	O	1.747854	0.496336	0.529846
O7	O	1.261338	0.298200	0.031050
O8	O	1.761338	0.798200	0.531050
O9	O	1.247832	-0.003673	0.195228
O10	O	1.747832	0.496327	0.695228
O11	O	1.102545	0.154854	0.182118
O12	O	1.602545	0.654854	0.682118
O13	O	1.406605	0.139662	0.209541
O14	O	1.906605	0.639662	0.709541
Cu15	Cu	1.254573	0.147257	0.210930
Cu16	Cu	1.754573	0.647257	0.710930
Cu17	Cu	1.254598	0.147269	0.015347
Cu18	Cu	1.754598	0.647269	0.515347
O19	O	1.261317	0.298190	0.196431
O20	O	1.761317	0.798190	0.696431
C21	C	1.063367	0.154009	0.095893
C22	C	1.563367	0.654009	0.595893
C23	C	0.946596	0.151461	0.085362
C24	C	1.446596	0.651461	0.585362
C25	C	0.727147	0.146644	0.245893
C26	C	1.227147	0.646644	0.745893
C27	C	0.617430	0.144250	0.236003
C28	C	1.117430	0.644250	0.736003
C29	C	0.617444	0.144272	0.055693
C30	C	1.117444	0.644272	0.555693
C31	C	0.727161	0.146666	0.065583
C32	C	1.227161	0.646666	0.565583
C33	C	0.782008	0.147853	0.160686
C34	C	1.282008	0.647853	0.660686
C35	C	0.891726	0.150255	0.170575
C36	C	1.391726	0.650255	0.670575
C37	C	0.891739	0.150269	-0.009733
C38	C	1.391739	0.650269	0.490267
C39	C	0.782022	0.147875	-0.019623
C40	C	1.282022	0.647875	0.480377
C41	C	1.243288	-0.042309	0.112125
C42	C	1.743288	0.457691	0.612125
C43	C	1.229702	-0.157444	0.110898
C44	C	1.729702	0.342556	0.610898
C45	C	1.393029	-0.397700	0.125608
C46	C	1.893029	0.102300	0.625608
C47	C	1.380269	-0.505881	0.124455
C48	C	1.880269	-0.005881	0.624455
C49	C	1.191422	-0.481989	0.107434
C50	C	1.691422	0.018011	0.607434
C51	C	1.204182	-0.373808	0.108586
C52	C	1.704182	0.126192	0.608586
C53	C	1.304989	-0.331668	0.117675
C54	C	1.804989	0.168332	0.617675
C55	C	1.317748	-0.223485	0.118834
C56	C	1.817748	0.276515	0.618834
C57	C	1.128903	-0.199595	0.101806
C58	C	1.628903	0.300405	0.601806
C59	C	1.116142	-0.307776	0.100654
C60	C	1.616142	0.192224	0.600654
C61	C	1.445804	0.140518	0.130382
C62	C	1.945804	0.640518	0.630382
C63	C	1.562575	0.143065	0.140906
C64	C	2.062575	0.643065	0.640906
C65	C	1.265883	0.336835	0.114150
C66	C	1.765883	0.836835	0.614150
C67	C	1.279469	0.451971	0.115370
C68	C	1.779469	0.951971	0.615370
N69	N	1.254563	0.147249	0.348494
N70	N	1.754563	0.647249	0.848494
N71	N	1.254615	0.147270	-0.122216
N72	N	1.754615	0.647270	0.377784
C73	C	1.318921	0.077082	0.406341
C74	C	1.818921	0.577082	0.906341
C75	C	1.318928	0.077081	0.510445
C76	C	1.818928	0.577081	1.010445
C77	C	1.254580	0.147253	0.556700
C78	C	1.754580	0.647253	1.056700
C79	C	1.190215	0.217423	0.498844
C80	C	1.690215	0.717423	0.998844
C81	C	1.190203	0.217418	0.394742
C82	C	1.690203	0.717418	0.894742
C83	C	1.190244	0.217430	0.715827
C84	C	1.690244	0.717430	1.215827
C85	C	1.190257	0.217437	0.819937
C86	C	1.690257	0.717437	1.319937
C87	C	1.318969	0.077093	0.831530
C88	C	1.818969	0.577093	1.331530
C89	C	1.318957	0.077088	0.727428
C90	C	1.818957	0.577088	1.227428
C91	C	1.254593	0.147260	0.669580
C92	C	1.754593	0.647260	1.169580
H93	H	0.572766	0.143271	0.305387
H94	H	1.072766	0.643271	0.805387
H95	H	1.475110	-0.363389	0.133018
H96	H	1.975110	0.136611	0.633018
Cl97	Cl	1.444475	-0.170510	0.130266
Cl98	Cl	1.944475	0.329490	0.630266
Cl99	Cl	0.960676	0.151750	0.290131
Cl100	Cl	1.460676	0.651750	0.790131
Cl101	Cl	0.713062	0.146348	-0.139174
Cl102	Cl	1.213062	0.646348	0.360826
H103	H	1.137828	0.274568	0.668730
H104	H	1.637828	0.774568	1.168730
H105	H	0.771804	0.147624	0.323329
H106	H	1.271804	0.647624	0.823329
Cl107	Cl	0.989421	-0.360763	0.089220
Cl108	Cl	1.489421	0.139237	0.589220
H109	H	1.137857	0.274577	0.857592
H110	H	1.637857	0.774577	1.357592
H111	H	1.371359	0.019954	0.689768
H112	H	1.871359	0.519954	1.189768
Cl113	Cl	1.399826	-0.011136	0.348204
Cl114	Cl	1.899826	0.488864	0.848204
H115	H	1.371332	0.019945	0.557544
H116	H	1.871332	0.519945	1.057544
H117	H	0.936418	0.151260	-0.079115
H118	H	1.436418	0.651260	0.420885
Cl119	Cl	1.490953	-0.588890	0.134425
Cl120	Cl	1.990953	-0.088890	0.634425
Cl121	Cl	1.064704	-0.534984	0.095980
Cl122	Cl	1.564704	-0.034984	0.595980
Cl123	Cl	1.018217	-0.116576	0.091846
Cl124	Cl	1.518217	0.383424	0.591846
Cl125	Cl	1.399884	-0.011120	0.904256
Cl126	Cl	1.899884	0.488880	1.404256
Cl127	Cl	1.109314	0.305636	0.556991
Cl128	Cl	1.609314	0.805636	1.056991
Cl129	Cl	1.109287	0.305629	0.322020
Cl130	Cl	1.609287	0.805629	0.822020
H131	H	0.572769	0.143287	-0.021735
H132	H	1.072769	0.643287	0.478265
