data_functionalizedCrystal
_audit_creation_method	'MofGen! by Chris Wilmer'
_symmetry_space_group_name_H-M	'P1'
_symmetry_Int_Tables_number	1
_symmetry_cell_setting	triclinic
loop_
_symmetry_equiv_pos_as_xyz
  x,y,z
_cell_length_a	17.699083
_cell_length_b	22.010155
_cell_length_c	17.699104
_cell_angle_alpha	89.990213
_cell_angle_beta	83.287266
_cell_angle_gamma	90.002416
loop_
_atom_site_label
_atom_site_type_symbol
_atom_site_fract_x
_atom_site_fract_y
_atom_site_fract_z
O1	O	1.004089	0.050433	0.095700
O2	O	1.504089	0.550433	0.595700
O3	O	0.783711	0.050451	0.108152
O4	O	1.283711	0.550451	0.608152
O5	O	0.900118	0.050446	-0.008262
O6	O	1.400118	0.550446	0.491738
O7	O	0.887682	0.050438	0.212114
O8	O	1.387682	0.550438	0.712114
O9	O	0.900097	-0.050604	-0.008245
O10	O	1.400097	0.449396	0.491755
O11	O	0.783690	-0.050599	0.108170
O12	O	1.283690	0.449401	0.608170
O13	O	1.004067	-0.050618	0.095717
O14	O	1.504067	0.449382	0.595717
Cu15	Cu	0.893877	-0.059835	0.101945
Cu16	Cu	1.393877	0.440165	0.601945
Cu17	Cu	0.893902	0.059669	0.101924
Cu18	Cu	1.393902	0.559669	0.601924
O19	O	0.887661	-0.050612	0.212131
O20	O	1.387661	0.449388	0.712131
C21	C	0.755503	-0.000071	0.107715
C22	C	1.255503	0.499929	0.607715
C23	C	0.671485	-0.000064	0.106376
C24	C	1.171485	0.499936	0.606376
N25	N	0.893865	-0.143888	0.101959
N26	N	1.393865	0.356112	0.601959
C27	C	0.622869	-0.000066	0.174709
C28	C	1.122869	0.499934	0.674709
C29	C	0.543926	-0.000074	0.173447
C30	C	1.043926	0.499926	0.673447
C31	C	0.513600	-0.000075	0.103851
C32	C	1.013600	0.499925	0.603851
C33	C	0.562222	-0.000074	0.035513
C34	C	1.062222	0.499926	0.535513
C35	C	0.641164	-0.000071	0.036776
C36	C	1.141164	0.499929	0.536776
C37	C	0.243859	-0.000089	0.030418
C38	C	0.743859	0.499911	0.530418
C39	C	0.164911	-0.000090	0.029160
C40	C	0.664911	0.499910	0.529160
C41	C	0.146621	-0.000092	0.167088
C42	C	0.646621	0.499908	0.667088
C43	C	0.225563	-0.000089	0.168351
C44	C	0.725563	0.499911	0.668351
C45	C	0.274178	-0.000091	0.100014
C46	C	0.774178	0.499909	0.600014
C47	C	0.359777	-0.000084	0.101383
C48	C	0.859777	0.499916	0.601383
C49	C	0.428002	-0.000078	0.102480
C50	C	0.928002	0.499922	0.602480
C51	C	0.945450	-0.563669	0.050383
C52	C	1.445450	-0.063669	0.550383
C53	C	0.945453	-0.627277	0.050378
C54	C	1.445453	-0.127277	0.550378
O55	O	0.989282	-0.660170	0.006537
O56	O	1.489282	-0.160170	0.506537
N57	N	0.893901	-0.659095	0.101909
N58	N	1.393901	-0.159095	0.601909
C59	C	0.842337	-0.627301	0.153442
C60	C	1.342337	-0.127301	0.653442
O61	O	0.798488	-0.660206	0.197272
O62	O	1.298488	-0.160206	0.697272
C63	C	0.842331	-0.563695	0.153443
C64	C	1.342331	-0.063695	0.653443
C65	C	0.893891	-0.531881	0.101915
C66	C	1.393891	-0.031881	0.601915
C67	C	0.997005	-0.531855	-0.001142
C68	C	1.497005	-0.031855	0.498858
C69	C	0.997002	-0.468252	-0.001135
C70	C	1.497002	0.031748	0.498865
C71	C	0.945444	-0.436463	0.050396
C72	C	1.445444	0.063537	0.550396
C73	C	0.893888	-0.468277	0.101921
C74	C	1.393888	0.031723	0.601921
C75	C	0.790764	-0.531903	0.204973
C76	C	1.290764	-0.031903	0.704973
C77	C	0.790762	-0.468292	0.204969
C78	C	1.290762	0.031708	0.704969
C79	C	0.842322	-0.436478	0.153440
C80	C	1.342322	0.063522	0.653440
C81	C	0.842327	-0.372885	0.153459
C82	C	1.342327	0.127115	0.653459
N83	N	0.893879	-0.341068	0.101928
N84	N	1.393879	0.158932	0.601928
C85	C	0.945438	-0.372856	0.050397
C86	C	1.445438	0.127144	0.550397
C87	C	0.842354	-0.760879	0.153435
C88	C	1.342354	-0.260879	0.653435
C89	C	0.842364	-0.824485	0.153439
C90	C	1.342364	-0.324485	0.653439
C91	C	0.945479	-0.824456	0.050373
C92	C	1.445479	-0.324456	0.550373
C93	C	0.945472	-0.760849	0.050374
C94	C	1.445472	-0.260849	0.550374
C95	C	0.893906	-0.729062	0.101905
C96	C	1.393906	-0.229062	0.601905
C97	C	0.945428	-0.239285	0.050415
C98	C	1.445428	0.260715	0.550415
C99	C	0.945423	-0.175676	0.050428
C100	C	1.445423	0.324324	0.550428
C101	C	0.842306	-0.175711	0.153490
C102	C	1.342306	0.324289	0.653490
C103	C	0.842313	-0.239314	0.153480
C104	C	1.342313	0.260686	0.653480
C105	C	0.893877	-0.271100	0.101936
C106	C	1.393877	0.228900	0.601936
O107	O	0.798519	-0.339952	0.197276
O108	O	1.298519	0.160048	0.697276
O109	O	0.989273	-0.339945	0.006568
O110	O	1.489273	0.160055	0.506568
C111	C	1.032275	-0.000094	0.096155
C112	C	1.532275	0.499906	0.596155
C113	C	1.116293	-0.000097	0.097493
C114	C	1.616293	0.499903	0.597493
C115	C	0.899659	-0.000077	-0.036450
C116	C	1.399659	0.499923	0.463550
C117	C	0.898314	-0.000069	-0.120467
C118	C	1.398314	0.499931	0.379533
N119	N	0.893920	0.143721	0.101904
N120	N	1.393920	0.643721	0.601904
C121	C	0.888120	-0.000088	0.240319
C122	C	1.388120	0.499912	0.740319
C123	C	0.889464	-0.000092	0.324337
C124	C	1.389464	0.499908	0.824337
C125	C	0.828721	-0.000063	0.849208
C126	C	1.328721	0.499937	1.349208
C127	C	0.827461	-0.000070	0.770264
C128	C	1.327461	0.499930	1.270264
C129	C	0.895797	-0.000077	0.721646
C130	C	1.395797	0.499923	1.221646
C131	C	0.965395	-0.000085	0.751976
C132	C	1.465395	0.499915	1.251976
C133	C	0.966654	-0.000083	0.830919
C134	C	1.466654	0.499917	1.330919
C135	C	0.960322	-0.000093	0.433610
C136	C	1.460322	0.499907	0.933610
C137	C	0.959059	-0.000093	0.354663
C138	C	1.459059	0.499907	0.854663
C139	C	0.821130	-0.000080	0.372956
C140	C	1.321130	0.499920	0.872956
C141	C	0.822388	-0.000078	0.451898
C142	C	1.322388	0.499922	0.951898
C143	C	0.891987	-0.000089	0.482221
C144	C	1.391987	0.499911	0.982221
C145	C	0.893351	-0.000083	0.567821
C146	C	1.393351	0.499917	1.067821
C147	C	0.894433	-0.000079	0.636048
C148	C	1.394433	0.499921	1.136048
H149	H	0.647554	-0.000065	0.231382
H150	H	1.147554	0.499935	0.731382
H151	H	0.764460	-0.000074	0.348258
H152	H	1.264460	0.499926	0.848258
H153	H	0.987416	-0.265158	0.008442
H154	H	1.487416	0.234842	0.508442
H155	H	1.038985	-0.442352	-0.043096
H156	H	1.538985	0.057648	0.456904
H157	H	0.537525	-0.000083	-0.021153
H158	H	1.037525	0.499917	0.478847
Cl159	Cl	0.736478	-0.000064	0.513013
Cl160	Cl	1.236478	0.499936	1.013013
H161	H	0.800387	-0.850383	0.195406
H162	H	1.300387	-0.350383	0.695406
Cl163	Cl	0.702282	-0.000070	-0.049132
Cl164	Cl	1.202282	0.499930	0.450868
Cl165	Cl	1.051303	-0.000102	0.690857
Cl166	Cl	1.551303	0.499898	1.190857
H167	H	0.987457	-0.734950	0.008415
H168	H	1.487457	-0.234950	0.508415
H169	H	0.773074	-0.000054	0.888787
H170	H	1.273074	0.499946	1.388787
Cl171	Cl	1.010247	-0.135684	-0.014354
Cl172	Cl	1.510247	0.364316	0.485646
H173	H	0.800365	-0.735001	0.195404
H174	H	1.300365	-0.235001	0.695404
Cl175	Cl	0.482812	-0.000074	0.259355
Cl176	Cl	0.982812	0.499926	0.759355
Cl177	Cl	1.044973	-0.000105	0.293544
Cl178	Cl	1.544973	0.499895	0.793544
Cl179	Cl	1.047817	-0.000086	0.471720
Cl180	Cl	1.547817	0.499914	0.971720
Cl181	Cl	0.725941	-0.571885	0.269752
Cl182	Cl	1.225941	-0.071885	0.769752
H183	H	1.038990	-0.557732	-0.043108
H184	H	1.538990	-0.057732	0.456892
Cl185	Cl	1.010293	-0.864432	-0.014410
Cl186	Cl	1.510293	-0.364432	0.485590
Cl187	Cl	0.725930	-0.428335	0.269754
Cl188	Cl	1.225930	0.071665	0.769754
H189	H	0.800336	-0.265218	0.195446
H190	H	1.300336	0.234782	0.695446
H191	H	1.023324	-0.000089	0.855607
H192	H	1.523324	0.499911	1.355607
Cl193	Cl	0.777493	-0.135738	0.218270
Cl194	Cl	1.277493	0.364262	0.718270
H195	H	0.107028	-0.000094	0.222732
H196	H	0.607028	0.499906	0.722732
Cl197	Cl	0.263682	-0.000084	0.255846
Cl198	Cl	0.763682	0.499916	0.755846
H199	H	0.140223	-0.000092	-0.027517
H200	H	0.640223	0.499908	0.472483
Cl201	Cl	0.304965	-0.000091	-0.055493
Cl202	Cl	0.804965	0.499909	0.444507
Cl203	Cl	0.739968	-0.000061	0.732145
Cl204	Cl	1.239968	0.499939	1.232145
