data_functionalizedCrystal
_audit_creation_method	'MofGen! by Chris Wilmer'
_symmetry_space_group_name_H-M	'P1'
_symmetry_Int_Tables_number	1
_symmetry_cell_setting	triclinic
loop_
_symmetry_equiv_pos_as_xyz
  x,y,z
_cell_length_a	10.268362
_cell_length_b	16.992694
_cell_length_c	16.992695
_cell_angle_alpha	89.331777
_cell_angle_beta	90.005527
_cell_angle_gamma	90.001137
loop_
_atom_site_label
_atom_site_type_symbol
_atom_site_fract_x
_atom_site_fract_y
_atom_site_fract_z
O1	O	0.108138	-1.050851	0.166917
O2	O	0.441472	-0.717517	0.500251
O3	O	0.774805	-0.384184	0.833584
O4	O	0.108177	-0.822451	0.165086
O5	O	0.441510	-0.489117	0.498419
O6	O	0.774843	-0.155784	0.831753
O7	O	0.108147	-0.935735	0.051802
O8	O	0.441481	-0.602402	0.385135
O9	O	0.774814	-0.269068	0.718468
O10	O	0.108168	-0.937566	0.280202
O11	O	0.441501	-0.604233	0.613535
O12	O	0.774834	-0.270900	0.946868
O13	O	-0.108453	-0.935724	0.051796
O14	O	0.224880	-0.602391	0.385129
O15	O	0.558213	-0.269058	0.718463
O16	O	-0.108424	-0.822440	0.165080
O17	O	0.224909	-0.489106	0.498414
O18	O	0.558243	-0.155773	0.831747
O19	O	-0.108462	-1.050840	0.166912
O20	O	0.224871	-0.717507	0.500245
O21	O	0.558204	-0.384173	0.833578
Cu22	Cu	-0.128221	-0.936639	0.165995
Cu23	Cu	0.205113	-0.603306	0.499329
Cu24	Cu	0.538446	-0.269972	0.832662
Cu25	Cu	0.127935	-0.936652	0.166002
Cu26	Cu	0.461268	-0.603318	0.499335
Cu27	Cu	0.794601	-0.269985	0.832669
O28	O	-0.108433	-0.937555	0.280196
O29	O	0.224900	-0.604222	0.613529
O30	O	0.558234	-0.270889	0.946863
C31	C	-0.000119	-0.793085	0.162727
C32	C	0.333214	-0.459752	0.496061
C33	C	0.666548	-0.126418	0.829394
C34	C	-0.000105	-0.705600	0.155699
C35	C	0.333229	-0.372267	0.489032
C36	C	0.666562	-0.038934	0.822365
N37	N	-0.308386	-0.936636	0.165991
N38	N	0.024947	-0.603302	0.499324
N39	N	0.358280	-0.269969	0.832657
C40	C	-0.000153	-0.933374	0.022439
C41	C	0.333181	-0.600041	0.355772
C42	C	0.666514	-0.266707	0.689105
C43	C	-0.000151	-0.926345	-0.065046
C44	C	0.333182	-0.593012	0.268287
C45	C	0.666516	-0.259678	0.601621
C46	C	-0.574057	-0.936648	0.166000
C47	C	-0.240724	-0.603314	0.499334
C48	C	0.092610	-0.269981	0.832667
C49	C	-0.426219	-0.936638	0.165997
C50	C	-0.092886	-0.603305	0.499330
C51	C	0.240448	-0.269972	0.832664
N52	N	0.308101	-0.936661	0.166001
N53	N	0.641434	-0.603327	0.499334
N54	N	0.974767	-0.269994	0.832668
C55	C	-0.000164	-1.080205	0.169270
C56	C	0.333169	-0.746872	0.502603
C57	C	0.666503	-0.413539	0.835937
C58	C	-0.000170	-1.167690	0.176299
C59	C	0.333163	-0.834357	0.509632
C60	C	0.666497	-0.501023	0.842966
C61	C	-0.000099	-0.659610	0.223517
C62	C	0.333234	-0.326276	0.556850
C63	C	0.666567	0.007057	0.890183
C64	C	-0.000118	-0.577409	0.216908
C65	C	0.333215	-0.244076	0.550241
C66	C	0.666549	0.089258	0.883574
C67	C	-0.000132	-0.541201	0.142480
C68	C	0.333201	-0.207867	0.475813
C69	C	0.666534	0.125466	0.809147
C70	C	-0.000141	-0.587198	0.074657
C71	C	0.333192	-0.253864	0.407990
C72	C	0.666525	0.079469	0.741324
C73	C	-0.000132	-0.669397	0.081267
C74	C	0.333201	-0.336063	0.414600
C75	C	0.666535	-0.002730	0.747933
C76	C	-0.000170	-0.295886	0.115086
C77	C	0.333164	0.037447	0.448419
C78	C	0.666497	0.370780	0.781752
C79	C	-0.000175	-0.213681	0.108481
C80	C	0.333158	0.119652	0.441814
C81	C	0.666492	0.452986	0.775148
C82	C	-0.000154	-0.203898	0.250732
C83	C	0.333179	0.129435	0.584066
C84	C	0.666512	0.462769	0.917399
C85	C	-0.000137	-0.286099	0.257335
C86	C	0.333196	0.047234	0.590669
C87	C	0.666530	0.380568	0.924002
C88	C	-0.000153	-0.332089	0.189512
C89	C	0.333180	0.001244	0.522846
C90	C	0.666514	0.334578	0.856179
N91	N	-0.000147	-0.457178	0.135723
N92	N	0.333186	-0.123845	0.469056
N93	N	0.666519	0.209488	0.802390
N94	N	-0.000147	-0.416110	0.196270
N95	N	0.333186	-0.082776	0.529604
N96	N	0.666519	0.250557	0.862937
C97	C	-0.000164	-0.994163	-0.111037
C98	C	0.333170	-0.660830	0.222296
C99	C	0.666503	-0.327496	0.555630
C100	C	-0.000150	-0.987554	-0.193238
C101	C	0.333183	-0.654221	0.140096
C102	C	0.666516	-0.320887	0.473429
C103	C	-0.000133	-0.913127	-0.229446
C104	C	0.333200	-0.579793	0.103887
C105	C	0.666533	-0.246460	0.437221
C106	C	-0.000117	-0.845303	-0.183449
C107	C	0.333217	-0.511970	0.149884
C108	C	0.666550	-0.178637	0.483218
C109	C	-0.000121	-0.851913	-0.101250
C110	C	0.333212	-0.518580	0.232084
C111	C	0.666546	-0.185246	0.565417
C112	C	-0.000111	-0.885732	-0.474760
C113	C	0.333222	-0.552399	-0.141427
C114	C	0.666556	-0.219065	0.191906
C115	C	-0.000111	-0.879127	-0.556966
C116	C	0.333223	-0.545794	-0.223632
C117	C	0.666556	-0.212461	0.109701
C118	C	-0.000142	-1.021379	-0.566749
C119	C	0.333192	-0.688045	-0.233415
C120	C	0.666525	-0.354712	0.099918
C121	C	-0.000154	-1.027982	-0.484547
C122	C	0.333180	-0.694649	-0.151214
C123	C	0.666513	-0.361315	0.182119
C124	C	-0.000130	-0.960159	-0.438558
C125	C	0.333203	-0.626826	-0.105224
C126	C	0.666536	-0.293492	0.228109
N127	N	-0.000124	-0.906369	-0.313468
N128	N	0.333210	-0.573036	0.019865
N129	N	0.666543	-0.239703	0.353199
N130	N	-0.000131	-0.966917	-0.354537
N131	N	0.333203	-0.633583	-0.021204
N132	N	0.666536	-0.300250	0.312130
C133	C	-0.000130	-0.939917	0.309559
C134	C	0.333203	-0.606583	0.642892
C135	C	0.666536	-0.273250	0.976226
C136	C	-0.000123	-0.946945	0.397044
C137	C	0.333210	-0.613612	0.730377
C138	C	0.666543	-0.280279	1.063710
H139	H	-0.000087	-0.689084	0.284124
H140	H	0.333246	-0.355751	0.617457
H141	H	0.666580	-0.022417	0.950790
H142	H	-0.000164	-1.042779	-0.230680
H143	H	0.333170	-0.709446	0.102653
H144	H	0.666503	-0.376112	0.435986
H145	H	-0.000184	-0.333322	0.059859
H146	H	0.333150	0.000012	0.393192
H147	H	0.666483	0.333345	0.726525
H148	H	-0.000168	-1.088589	-0.455073
H149	H	0.333166	-0.755255	-0.121739
H150	H	0.666499	-0.421922	0.211594
H151	H	-0.000186	-1.054770	-0.081563
H152	H	0.333148	-0.721437	0.251771
H153	H	0.666481	-0.388103	0.585104
H154	H	-0.000144	-0.166444	0.305950
H155	H	0.333189	0.166889	0.639283
H156	H	0.666523	0.500222	0.972616
Br157	Br	-0.000107	-0.514995	0.308951
Br158	Br	0.333226	-0.181662	0.642284
Br159	Br	0.666560	0.151672	0.975618
H160	H	-0.000135	-0.706842	0.026042
H161	H	0.333198	-0.373509	0.359375
H162	H	0.666531	-0.040175	0.692709
Br163	Br	-0.000103	-0.335233	0.358348
Br164	Br	0.333230	-0.001900	0.691681
Br165	Br	0.666564	0.331433	1.025015
Br166	Br	-0.000222	-0.164541	0.007465
Br167	Br	0.333111	0.168792	0.340799
Br168	Br	0.666445	0.502125	0.674132
Br169	Br	-0.000174	-0.538059	-0.026353
Br170	Br	0.333160	-0.204725	0.306980
Br171	Br	0.666493	0.128608	0.640313
Br172	Br	-0.000174	-1.113419	-0.629167
Br173	Br	0.333160	-0.780086	-0.295833
Br174	Br	0.666493	-0.446752	0.037500
H175	H	-0.000118	-0.818517	-0.586443
H176	H	0.333215	-0.485183	-0.253110
H177	H	0.666549	-0.151850	0.080223
H178	H	-0.000092	-0.830505	-0.437325
H179	H	0.333241	-0.497172	-0.103992
H180	H	0.666575	-0.163839	0.229342
Br181	Br	-0.000072	-0.744293	-0.232588
Br182	Br	0.333261	-0.410960	0.100746
Br183	Br	0.666595	-0.077626	0.434079
H184	H	-0.000110	-0.796688	-0.063804
H185	H	0.333223	-0.463355	0.269529
H186	H	0.666556	-0.130022	0.602862
