data_functionalizedCrystal
_audit_creation_method	'MofGen! by Chris Wilmer'
_symmetry_space_group_name_H-M	'P1'
_symmetry_Int_Tables_number	1
_symmetry_cell_setting	triclinic
loop_
_symmetry_equiv_pos_as_xyz
  x,y,z
_cell_length_a	15.944493
_cell_length_b	15.021413
_cell_length_c	14.519709
_cell_angle_alpha	89.996924
_cell_angle_beta	83.577594
_cell_angle_gamma	90.006749
loop_
_atom_site_label
_atom_site_type_symbol
_atom_site_fract_x
_atom_site_fract_y
_atom_site_fract_z
O1	O	1.114731	0.074022	0.118675
O2	O	0.870196	0.074027	0.133395
O3	O	0.998947	0.074016	-0.008217
O4	O	0.985980	0.074033	0.260286
O5	O	0.998927	-0.074048	-0.008196
O6	O	0.870176	-0.074037	0.133415
O7	O	1.114711	-0.074042	0.118695
Zn8	Zn	0.992440	-0.097548	0.126058
Zn9	Zn	0.992467	0.097533	0.126031
O10	O	0.985960	-0.074032	0.260306
C11	C	0.838891	-0.000005	0.132803
C12	C	0.745639	-0.000003	0.130999
N13	N	0.992428	-0.230686	0.126076
C14	C	0.510000	0.000002	0.214355
C15	C	0.459367	-0.073008	0.169415
C16	C	0.574913	-0.000005	0.127657
C17	C	0.459391	0.072972	0.169374
C18	C	0.409999	-0.000003	0.124435
C19	C	0.525508	-0.073075	0.082740
C20	C	0.525536	0.072970	0.082712
C21	C	0.474935	-0.000058	0.037708
C22	C	0.669916	-0.000007	0.129516
C23	C	0.314999	-0.000008	0.122570
C24	C	0.932884	-0.470364	0.191526
C25	C	1.008813	-0.529699	0.209413
C26	C	0.992449	-0.412293	0.126053
C27	C	0.916542	-0.529700	0.108186
C28	C	0.992463	-0.587717	0.126032
C29	C	1.068416	-0.470321	0.143981
C30	C	0.976095	-0.470317	0.042718
C31	C	1.052078	-0.529624	0.060570
C32	C	0.992440	-0.311235	0.126067
C33	C	0.992481	-0.688772	0.126018
C34	C	1.146017	-0.000009	0.119286
C35	C	1.239268	-0.000004	0.121090
C36	C	0.998333	-0.000016	-0.042565
C37	C	0.996522	-0.000016	-0.144943
N38	N	0.992486	0.230670	0.126006
C39	C	0.989855	0.000007	-0.519825
C40	C	0.991707	0.000000	-0.415521
C41	C	0.993188	-0.000006	-0.332387
C42	C	0.995040	-0.000011	-0.228077
C43	C	0.986575	0.000003	0.294655
C44	C	0.988385	0.000009	0.397032
H45	H	0.525732	-0.000061	0.289036
H46	H	0.962226	-0.444213	-0.027724
H47	H	1.132630	-0.444348	0.159168
H48	H	0.882563	-0.444345	0.246939
H49	H	0.554274	-0.134861	0.046157
H50	H	0.459361	-0.000105	-0.037029
C51	C	0.420388	0.156352	0.218846
N52	N	0.391014	0.219151	0.256115
H53	H	1.102511	-0.555481	0.005189
C54	C	0.829810	-0.564932	0.087779
N55	N	0.764482	-0.591466	0.072414
C56	C	1.027512	-0.564946	0.304605
N57	N	1.041589	-0.591495	0.376306
H58	H	0.430474	-0.134726	0.206037
H59	H	0.554438	0.134692	0.046118
