data_functionalizedCrystal
_audit_creation_method	'MofGen! by Chris Wilmer'
_symmetry_space_group_name_H-M	'P1'
_symmetry_Int_Tables_number	1
_symmetry_cell_setting	triclinic
loop_
_symmetry_equiv_pos_as_xyz
  x,y,z
_cell_length_a	11.792241
_cell_length_b	13.596369
_cell_length_c	11.792254
_cell_angle_alpha	90.000552
_cell_angle_beta	84.196007
_cell_angle_gamma	90.001745
loop_
_atom_site_label
_atom_site_type_symbol
_atom_site_fract_x
_atom_site_fract_y
_atom_site_fract_z
O1	O	1.506919	0.081696	0.155559
O2	O	1.176579	0.081719	0.171592
O3	O	1.349758	0.081700	-0.001594
O4	O	1.333740	0.081715	0.328745
O5	O	1.349736	-0.081883	-0.001584
O6	O	1.176557	-0.081864	0.171602
O7	O	1.506898	-0.081887	0.155569
Zn8	Zn	1.341724	-0.107847	0.163587
Zn9	Zn	1.341752	0.107680	0.163574
O10	O	1.333718	-0.081868	0.328755
C11	C	1.134277	-0.000069	0.170590
C12	C	1.008263	-0.000061	0.167576
N13	N	1.341713	-0.254939	0.163595
C14	C	0.777551	-0.000089	0.162033
C15	C	0.905936	-0.000074	0.165112
C16	C	1.341719	-0.343937	0.163597
C17	C	1.341730	-0.455588	0.163590
C18	C	1.341745	-0.544579	0.163577
C19	C	1.341757	-0.656237	0.163570
C20	C	1.549199	-0.000096	0.156571
C21	C	1.675213	-0.000098	0.159586
C22	C	1.348738	-0.000091	-0.043880
C23	C	1.345718	-0.000090	-0.169893
N24	N	1.341772	0.254772	0.163557
C25	C	1.343264	-0.000086	-0.272229
C26	C	1.340196	-0.000077	-0.400616
C27	C	1.334738	-0.000074	0.371041
C28	C	1.337758	-0.000069	0.497054
