data_functionalizedCrystal
_audit_creation_method	'MofGen! by Chris Wilmer'
_symmetry_space_group_name_H-M	'P1'
_symmetry_Int_Tables_number	1
_symmetry_cell_setting	triclinic
loop_
_symmetry_equiv_pos_as_xyz
  x,y,z
_cell_length_a	12.594516
_cell_length_b	14.908571
_cell_length_c	14.908308
_cell_angle_alpha	90.175053
_cell_angle_beta	86.728502
_cell_angle_gamma	93.287503
loop_
_atom_site_label
_atom_site_type_symbol
_atom_site_fract_x
_atom_site_fract_y
_atom_site_fract_z
Zn1	Zn	-0.555460	-1.345329	0.587618
Zn2	Zn	-0.723816	-1.353920	0.437269
Zn3	Zn	-0.535016	-1.203643	0.428614
Zn4	Zn	-0.722551	-1.194948	0.578920
O5	O	-0.634211	-1.274460	0.508105
O6	O	-0.586878	-1.472295	0.574935
O7	O	-0.690745	-1.341220	0.310295
O8	O	-0.388787	-1.222482	0.449724
O9	O	-0.710568	-1.478607	0.464475
O10	O	-0.403807	-1.326578	0.566543
O11	O	-0.552034	-1.230812	0.303937
O12	O	-0.550808	-1.076663	0.441291
O13	O	-0.708413	-1.207662	0.705899
O14	O	-0.688589	-1.070275	0.551720
O15	O	-0.585652	-1.318147	0.712289
O16	O	-0.872590	-1.332788	0.456041
O17	O	-0.871661	-1.215992	0.560112
C18	C	-0.617344	-1.040844	0.494623
C19	C	-0.610155	-0.940900	0.488877
C20	C	-0.910747	-1.274402	0.508093
C21	C	-1.029058	-1.274457	0.508123
C22	C	-0.649172	-1.260976	0.742631
C23	C	-0.655547	-1.255230	0.842572
C24	C	-1.097842	-1.210928	0.564684
C25	C	-1.161862	-1.193759	0.481377
C26	C	-1.175844	-1.291708	0.591449
C27	C	-1.091515	-1.257247	0.424769
C28	C	-1.105496	-1.355231	0.534899
C29	C	-1.169483	-1.338096	0.451537
C30	C	-0.356598	-1.274542	0.508138
C31	C	-0.238296	-1.274577	0.508153
C32	C	-0.651145	-1.508989	0.521641
C33	C	-0.658361	-1.608931	0.527409
C34	C	-0.740319	-0.746501	0.592914
C35	C	-0.733568	-0.652595	0.587518
C36	C	-0.589898	-0.659180	0.472693
C37	C	-0.596649	-0.753086	0.478089
C38	C	-0.671863	-0.796743	0.538201
C39	C	-0.678619	-0.890651	0.543592
C40	C	-0.534943	-0.897235	0.428772
C41	C	-0.528192	-0.803329	0.423376
C42	C	-0.619235	-1.287944	0.274494
C43	C	-0.612572	-1.293864	0.174564
C44	C	-0.539672	-1.359477	1.037028
C45	C	-0.545658	-1.354081	1.130932
C46	C	-0.673502	-1.239037	1.124285
C47	C	-0.667515	-1.244433	1.030381
C48	C	-0.600599	-1.304656	0.986756
C49	C	-0.594618	-1.310057	0.892851
C50	C	-0.722455	-1.195009	0.886206
C51	C	-0.728442	-1.189612	0.980110
H52	H	-1.066391	-1.157117	0.612437
H53	H	-0.540133	-1.359094	0.857333
H54	H	-0.496042	-1.398720	1.171859
H55	H	-0.479203	-0.938152	0.384219
F56	F	-0.744705	-1.174943	1.170729
H57	H	-1.212658	-1.306251	0.661905
H58	H	-0.782921	-1.140579	1.015642
F59	F	-1.043559	-1.238137	0.332646
H60	H	-0.485191	-1.408518	1.001508
H61	H	-0.789311	-0.611690	0.632073
F62	F	-0.448144	-0.756856	0.359409
H63	H	-1.186887	-1.125505	0.458752
H64	H	-0.528655	-0.623618	0.423759
F65	F	-0.787312	-1.136668	0.832697
F66	F	-1.210322	-1.408391	0.388960
H67	H	-0.739864	-0.926195	0.592536
F68	F	-0.820376	-0.792966	0.656879
F69	F	-1.072790	-1.444420	0.564521
