data_functionalizedCrystal
_audit_creation_method	'MofGen! by Chris Wilmer'
_symmetry_space_group_name_H-M	'P1'
_symmetry_Int_Tables_number	1
_symmetry_cell_setting	triclinic
loop_
_symmetry_equiv_pos_as_xyz
  x,y,z
_cell_length_a	16.625547
_cell_length_b	16.625546
_cell_length_c	17.640968
_cell_angle_alpha	78.766516
_cell_angle_beta	78.771085
_cell_angle_gamma	90.022405
loop_
_atom_site_label
_atom_site_type_symbol
_atom_site_fract_x
_atom_site_fract_y
_atom_site_fract_z
Zn1	Zn	1.324888	-0.228801	-0.447042
Zn2	Zn	1.297525	-0.390908	-0.314850
Zn3	Zn	1.162785	-0.256092	-0.314858
Zn4	Zn	1.190008	-0.363607	-0.446985
O5	O	1.243802	-0.309852	-0.380934
O6	O	1.434095	-0.250310	-0.429527
O7	O	1.256807	-0.395871	-0.204232
O8	O	1.184347	-0.139634	-0.332419
O9	O	1.413991	-0.369409	-0.332406
O10	O	1.303443	-0.119583	-0.429534
O11	O	1.157814	-0.296822	-0.204238
O12	O	1.053560	-0.270349	-0.332364
O13	O	1.230745	-0.322878	-0.557611
O14	O	1.073561	-0.349340	-0.429438
O15	O	1.329840	-0.223837	-0.557653
O16	O	1.283204	-0.500125	-0.332351
O17	O	1.204212	-0.480067	-0.429430
C18	C	1.034303	-0.309844	-0.380896
C19	C	0.944683	-0.309856	-0.380899
C20	C	0.871902	-0.309856	-0.380909
C21	C	0.780598	-0.309856	-0.380929
C22	C	0.707826	-0.309859	-0.380949
C23	C	0.616515	-0.309861	-0.380968
C24	C	1.243719	-0.519350	-0.380901
C25	C	1.243762	-0.608968	-0.380913
C26	C	1.243920	-0.937127	-0.380995
C27	C	1.243874	-0.845823	-0.380974
C28	C	1.243840	-0.773051	-0.380954
C29	C	1.243796	-0.681741	-0.380934
C30	C	1.454118	-0.309861	-0.380972
C31	C	1.543743	-0.309864	-0.380988
C32	C	1.286382	-0.267268	-0.587116
C33	C	1.304527	-0.249121	-0.674979
C34	C	1.243911	-0.099533	-0.380984
C35	C	1.243957	-0.009907	-0.381006
C36	C	1.106266	-0.447273	-0.963839
C37	C	1.123333	-0.430211	-1.046399
C38	C	1.226512	-0.327088	-1.046432
C39	C	1.209451	-0.344139	-0.963870
C40	C	1.149327	-0.404233	-0.922580
C41	C	1.252513	-0.301098	-0.922612
C42	C	1.235456	-0.318151	-0.840057
C43	C	1.175337	-0.378243	-0.798761
C44	C	1.132270	-0.421285	-0.840025
C45	C	1.312640	-0.241009	-0.963903
C46	C	1.355701	-0.197968	-0.922644
C47	C	1.338641	-0.215016	-0.840088
C48	C	1.278522	-0.275109	-0.798792
C49	C	1.381707	-0.171975	-0.798823
C50	C	1.364650	-0.189027	-0.716269
C51	C	1.261465	-0.292162	-0.716237
C52	C	1.201434	-0.352212	-0.175553
C53	C	1.183445	-0.370132	-0.087691
H54	H	1.212487	-0.341077	-0.682617
C55	C	1.227591	-0.423228	-0.680499
C56	C	1.156584	-0.396989	-0.708015
H57	H	1.216013	-0.434796	-0.624476
H58	H	1.245359	-0.471402	-0.699162
H59	H	1.269555	-0.381274	-0.699189
H60	H	1.114622	-0.438946	-0.689329
H61	H	1.138805	-0.348810	-0.689343
H62	H	1.083293	-0.470200	-0.806405
H63	H	1.399714	-0.153978	-0.682675
H64	H	1.057288	-0.496188	-0.930218
H65	H	1.326527	-0.227129	-1.031125
H66	H	1.088262	-0.465264	-1.079989
H67	H	1.275466	-0.278162	-1.080062
C68	C	1.427664	-0.126032	-1.049210
C69	C	1.421785	-0.131912	-0.968035
H70	H	1.468458	-0.085246	-1.077229
H71	H	1.442238	-0.177410	-1.062723
H72	H	1.376285	-0.111438	-1.062730
H73	H	1.473163	-0.146512	-0.954514
H74	H	1.407216	-0.080523	-0.954517
C75	C	1.426313	-0.030188	-0.824282
C76	C	1.447796	-0.105925	-0.844214
H77	H	1.467118	0.010586	-0.852301
H78	H	1.374947	-0.015594	-0.837817
H79	H	1.422316	-0.034190	-0.769209
H80	H	1.451787	-0.101924	-0.899287
H81	H	1.499176	-0.120521	-0.830684
