data_functionalizedCrystal
_audit_creation_method	'MofGen! by Chris Wilmer'
_symmetry_space_group_name_H-M	'P1'
_symmetry_Int_Tables_number	1
_symmetry_cell_setting	triclinic
loop_
_symmetry_equiv_pos_as_xyz
  x,y,z
_cell_length_a	11.792254
_cell_length_b	10.268362
_cell_length_c	12.811415
_cell_angle_alpha	95.436139
_cell_angle_beta	84.120630
_cell_angle_gamma	90.004525
loop_
_atom_site_label
_atom_site_type_symbol
_atom_site_fract_x
_atom_site_fract_y
_atom_site_fract_z
O1	O	1.506623	0.125295	0.143929
O2	O	1.176255	0.127047	0.158742
O3	O	1.349750	0.108126	-0.001409
O4	O	1.333128	0.144216	0.304081
O5	O	1.349735	-0.108476	-0.001416
O6	O	1.176240	-0.089554	0.158736
O7	O	1.506608	-0.091306	0.143923
Cu8	Cu	1.341422	-0.110208	0.151329
Cu9	Cu	1.341440	0.145948	0.151336
O10	O	1.333113	-0.072385	0.304074
C11	C	1.133959	0.018636	0.157806
C12	C	1.007951	0.018308	0.155013
C13	C	0.905619	0.018045	0.152744
C14	C	0.777238	0.017711	0.149906
N15	N	1.341418	-0.290374	0.151322
C16	C	1.341435	-0.556044	0.151334
C17	C	1.341422	-0.408206	0.151331
C18	C	1.548904	0.017107	0.144859
C19	C	1.674912	0.017444	0.147652
C20	C	1.348811	-0.004793	-0.040522
C21	C	1.346021	-0.018552	-0.157057
N22	N	1.341454	0.326114	0.151334
C23	C	1.340774	0.191759	-0.376019
C24	C	1.338153	0.178837	-0.485513
C25	C	1.338149	-0.057316	-0.485541
C26	C	1.340770	-0.044394	-0.376047
C27	C	1.342084	0.080147	-0.321289
C28	C	1.344714	0.093068	-0.211794
C29	C	1.344701	-0.143084	-0.211823
C30	C	1.342080	-0.156006	-0.321318
C31	C	1.334052	0.040536	0.343187
C32	C	1.336842	0.054304	0.459722
H33	H	1.341855	0.293166	-0.331435
C34	C	1.346160	0.230053	-0.151557
H35	H	1.347920	0.221767	-0.078508
H36	H	1.279624	0.277347	-0.161870
H37	H	1.411847	0.275550	-0.177124
H38	H	1.337082	0.269724	-0.530069
H39	H	1.337069	-0.158711	-0.530142
C40	C	1.340642	-0.292990	-0.381557
H41	H	1.338901	-0.284703	-0.454608
H42	H	1.274968	-0.338500	-0.355994
H43	H	1.407191	-0.340272	-0.371244
C44	C	1.346133	-0.265862	-0.151618
H45	H	1.347874	-0.240333	-0.078563
H46	H	1.411806	-0.317397	-0.177193
H47	H	1.279583	-0.315590	-0.161942
