data_functionalizedCrystal
_audit_creation_method	'MofGen! by Chris Wilmer'
_symmetry_space_group_name_H-M	'P1'
_symmetry_Int_Tables_number	1
_symmetry_cell_setting	triclinic
loop_
_symmetry_equiv_pos_as_xyz
  x,y,z
_cell_length_a	25.639242
_cell_length_b	25.639240
_cell_length_c	18.101390
_cell_angle_alpha	90.042126
_cell_angle_beta	90.020307
_cell_angle_gamma	90.025061
loop_
_atom_site_label
_atom_site_type_symbol
_atom_site_fract_x
_atom_site_fract_y
_atom_site_fract_z
Zn1	Zn	0.799277	-0.208238	0.418705
Zn2	Zn	1.299277	0.291762	0.918705
Zn3	Zn	0.799201	-0.295682	0.294843
Zn4	Zn	1.299201	0.204318	0.794843
Zn5	Zn	0.711845	-0.208250	0.294875
Zn6	Zn	1.211845	0.291750	0.794875
Zn7	Zn	0.711808	-0.295633	0.418641
Zn8	Zn	1.211808	0.204367	0.918641
O9	O	0.755533	-0.251951	0.356766
O10	O	1.255533	0.248049	0.856766
O11	O	0.872432	-0.219853	0.402287
O12	O	1.372432	0.280147	0.902287
O13	O	0.787596	-0.284109	0.191215
O14	O	1.287596	0.215891	0.691215
O15	O	0.723490	-0.135084	0.311342
O16	O	1.223490	0.364916	0.811342
O17	O	0.872376	-0.284098	0.311287
O18	O	1.372376	0.215902	0.811287
O19	O	0.787727	-0.135075	0.402319
O20	O	1.287727	0.364925	0.902319
O21	O	0.723416	-0.219874	0.191238
O22	O	1.223416	0.280126	0.691238
O23	O	0.638674	-0.219826	0.311280
O24	O	1.138674	0.280174	0.811280
O25	O	0.723427	-0.284014	0.522283
O26	O	1.223427	0.215986	1.022283
O27	O	0.638647	-0.284026	0.402210
O28	O	1.138647	0.215974	0.902210
O29	O	0.787691	-0.219806	0.522329
O30	O	1.287691	0.280194	1.022329
O31	O	0.787560	-0.368840	0.311226
O32	O	1.287560	0.131160	0.811226
O33	O	0.723353	-0.368804	0.402179
O34	O	1.223353	0.131196	0.902179
C35	C	0.619690	-0.251922	0.356742
C36	C	1.119690	0.248078	0.856742
C37	C	0.561576	-0.251923	0.356750
C38	C	1.061576	0.248077	0.856750
C39	C	0.310420	-0.218558	0.404237
C40	C	0.810420	0.281442	0.904237
C41	C	0.365024	-0.218553	0.404232
C42	C	0.865024	0.281447	0.904232
O43	O	0.393293	-0.190162	0.444602
O44	O	0.893293	0.309838	0.944602
N45	N	0.392302	-0.251945	0.356775
N46	N	0.892302	0.248055	0.856775
C47	C	0.364973	-0.285348	0.309324
C48	C	0.864973	0.214652	0.809324
O49	O	0.393189	-0.313750	0.268957
O50	O	0.893189	0.186250	0.768957
C51	C	0.310370	-0.285355	0.309332
C52	C	0.810370	0.214645	0.809332
C53	C	0.283094	-0.251957	0.356788
C54	C	0.783094	0.248043	0.856788
C55	C	0.283145	-0.185164	0.451689
C56	C	0.783145	0.314836	0.951689
C57	C	0.228544	-0.185168	0.451692
C58	C	0.728544	0.314832	0.951692
C59	C	0.201219	-0.218567	0.404243
C60	C	0.701219	0.281433	0.904243
C61	C	0.228494	-0.251962	0.356791
C62	C	0.728494	0.248038	0.856791
C63	C	0.283041	-0.318760	0.261885
C64	C	0.783041	0.181240	0.761885
C65	C	0.228434	-0.318765	0.261898
C66	C	0.728434	0.181235	0.761898
C67	C	0.201159	-0.285367	0.309354
C68	C	0.701159	0.214633	0.809354
C69	C	0.146568	-0.285366	0.309344
C70	C	0.646568	0.214634	0.809344
N71	N	0.119290	-0.251974	0.356802
N72	N	0.619290	0.248026	0.856802
C73	C	0.146615	-0.218575	0.404251
C74	C	0.646615	0.281425	0.904251
C75	C	0.479643	-0.285330	0.309310
C76	C	0.979643	0.214670	0.809310
C77	C	0.534246	-0.285320	0.309297
C78	C	1.034246	0.214680	0.809297
C79	C	0.534293	-0.218526	0.404208
C80	C	1.034293	0.281474	0.904208
C81	C	0.479690	-0.218534	0.404216
C82	C	0.979690	0.281466	0.904216
C83	C	0.452366	-0.251938	0.356768
C84	C	0.952366	0.248062	0.856768
C85	C	0.031950	-0.218587	0.404254
C86	C	0.531950	0.281413	0.904254
C87	C	-0.022655	-0.218593	0.404250
C88	C	0.477345	0.281407	0.904250
C89	C	-0.022698	-0.285388	0.309343
C90	C	0.477302	0.214612	0.809343
C91	C	0.031903	-0.285381	0.309344
C92	C	0.531903	0.214619	0.809344
C93	C	0.059226	-0.251978	0.356805
C94	C	0.559226	0.248022	0.856805
O95	O	0.118265	-0.313743	0.268997
O96	O	0.618265	0.186257	0.768997
O97	O	0.118393	-0.190182	0.444618
O98	O	0.618393	0.309818	0.944618
C99	C	0.755459	-0.387793	0.356708
C100	C	1.255459	0.112207	0.856708
C101	C	0.755475	-0.445907	0.356708
C102	C	1.255475	0.054093	0.856708
C103	C	0.788997	-0.806227	0.404223
C104	C	1.288997	-0.306227	0.904223
C105	C	0.789013	-0.860832	0.404238
C106	C	1.289013	-0.360832	0.904238
O107	O	0.817426	-0.889032	0.444578
O108	O	1.317426	-0.389032	0.944578
N109	N	0.755605	-0.888190	0.356838
N110	N	1.255605	-0.388190	0.856838
C111	C	0.722176	-0.860941	0.309424
C112	C	1.222176	-0.360941	0.809424
O113	O	0.693762	-0.889225	0.269108
O114	O	1.193762	-0.389225	0.769108
C115	C	0.722159	-0.806338	0.309414
C116	C	1.222159	-0.306338	0.809414
C117	C	0.755572	-0.778982	0.356812
C118	C	1.255572	-0.278982	0.856812
C119	C	0.822407	-0.778872	0.451619
C120	C	1.322407	-0.278872	0.951619
C121	C	0.822392	-0.724271	0.451602
C122	C	1.322392	-0.224271	0.951602
C123	C	0.788967	-0.697026	0.404191
C124	C	1.288967	-0.197026	0.904191
C125	C	0.755557	-0.724382	0.356796
C126	C	1.255557	-0.224382	0.856796
C127	C	0.688728	-0.779090	0.262004
C128	C	1.188728	-0.279090	0.762004
C129	C	0.688713	-0.724483	0.261998
C130	C	1.188713	-0.224483	0.761998
C131	C	0.722126	-0.697127	0.309397
C132	C	1.222126	-0.197127	0.809397
C133	C	0.722117	-0.642536	0.309368
C134	C	1.222117	-0.142536	0.809368
N135	N	0.755525	-0.615178	0.356769
N136	N	1.255525	-0.115178	0.856769
C137	C	0.788950	-0.642423	0.404180
C138	C	1.288950	-0.142423	0.904180
C139	C	0.722215	-0.975611	0.309452
C140	C	1.222215	-0.475611	0.809452
C141	C	0.722235	-1.030214	0.309458
C142	C	1.222235	-0.530214	0.809458
C143	C	0.789071	-1.030101	0.404273
C144	C	1.289071	-0.530101	0.904273
C145	C	0.789053	-0.975497	0.404263
C146	C	1.289053	-0.475497	0.904263
C147	C	0.755623	-0.948253	0.356852
C148	C	1.255623	-0.448253	0.856852
C149	C	0.788916	-0.527758	0.404142
C150	C	1.288916	-0.027758	0.904142
C151	C	0.788900	-0.473152	0.404120
C152	C	1.288900	0.026848	0.904120
C153	C	0.722063	-0.473270	0.309307
C154	C	1.222063	0.026730	0.809307
C155	C	0.722081	-0.527871	0.309327
C156	C	1.222081	-0.027871	0.809327
C157	C	0.755509	-0.555113	0.356750
C158	C	1.255509	-0.055113	0.856750
O159	O	0.693716	-0.614301	0.269052
O160	O	1.193716	-0.114301	0.769052
O161	O	0.817355	-0.614132	0.444496
O162	O	1.317355	-0.114132	0.944496
C163	C	0.891906	-0.251979	0.356791
C164	C	1.391906	0.248021	0.856791
C165	C	0.950020	-0.251992	0.356801
C166	C	1.450020	0.248008	0.856801
C167	C	0.755564	-0.251903	0.549928
C168	C	1.255564	0.248097	1.049928
C169	C	0.755577	-0.251883	0.632242
C170	C	1.255577	0.248117	1.132242
C171	C	0.755621	-0.115578	0.356841
C172	C	1.255621	0.384422	0.856841
C173	C	0.755659	-0.057464	0.356872
C174	C	1.255659	0.442536	0.856872
C175	C	0.755532	-0.251961	0.164356
C176	C	1.255532	0.248039	0.664356
C177	C	0.755620	-0.251834	0.082042
C178	C	1.255620	0.248166	0.582042
C179	C	0.755605	-0.251850	0.931334
C180	C	1.255605	0.248150	1.431334
C181	C	0.796171	-0.211594	0.900038
C182	C	1.296171	0.288406	1.400038
C183	C	0.796045	-0.211445	0.814419
C184	C	1.296045	0.288555	1.314419
C185	C	0.755592	-0.251866	0.782951
C186	C	1.255592	0.248134	1.282951
C187	C	0.700512	-0.236889	0.814027
C188	C	1.200512	0.263111	1.314027
C189	C	0.700755	-0.236587	0.899672
C190	C	1.200755	0.263413	1.399672
C191	C	0.769634	-0.307186	0.899733
C192	C	1.269634	0.192814	1.399733
C193	C	0.770843	-0.306904	0.814083
C194	C	1.270843	0.193096	1.314083
C195	C	0.755581	-0.251876	0.699091
C196	C	1.255581	0.248124	1.199091
C197	C	0.755612	-0.251839	1.015193
C198	C	1.255612	0.248161	1.515193
H199	H	0.206190	-0.345969	0.223261
H200	H	0.706190	0.154031	0.723261
F201	F	0.684685	-0.184603	0.786024
F202	F	1.184685	0.315397	1.286024
H203	H	0.849599	-0.702002	0.490200
H204	H	1.349599	-0.202002	0.990200
H205	H	0.305239	-0.345956	0.223242
H206	H	0.805239	0.154044	0.723242
H207	H	0.816261	-0.953228	0.442859
H208	H	1.316261	-0.453228	0.942859
H209	H	0.740090	-0.337182	0.919976
H210	H	1.240090	0.162818	1.419976
F211	F	0.060932	-0.320927	0.258839
F212	F	0.560932	0.179073	0.758839
F213	F	0.784190	-0.158310	0.928200
F214	F	1.284190	0.341690	1.428200
F215	F	0.824466	-0.444042	0.454568
F216	F	1.324466	0.055958	0.954568
H217	H	0.457486	-0.191338	0.442858
H218	H	0.957486	0.308662	0.942858
F219	F	-0.051789	-0.320931	0.258845
F220	F	0.448211	0.179069	0.758845
H221	H	0.694850	-0.451079	0.270703
H222	H	1.194850	0.048921	0.770703
H223	H	0.786759	-0.170450	0.793956
H224	H	1.286759	0.329550	1.293956
H225	H	0.836887	-0.220825	0.793410
H226	H	1.336887	0.279175	1.293410
H227	H	0.816287	-1.052294	0.442880
H228	H	1.316287	-0.552294	0.942880
H229	H	0.695032	-1.052482	0.270853
H230	H	1.195032	-0.552482	0.770853
F231	F	0.824495	-0.556744	0.454614
F232	F	1.324495	-0.056744	0.954614
F233	F	0.821231	-0.324991	0.927970
F234	F	1.321231	0.175009	1.427970
H235	H	0.694994	-0.953432	0.270838
H236	H	1.194994	-0.453432	0.770838
F237	F	0.735029	-0.348217	0.786086
F238	F	1.235029	0.151783	1.286086
F239	F	0.857984	-0.807860	0.502088
F240	F	1.357984	-0.307860	1.002088
H241	H	0.811376	-0.318198	0.793772
H242	H	1.311376	0.181802	1.293772
F243	F	0.685191	-0.183722	0.925816
F244	F	1.185191	0.316278	1.425816
F245	F	0.659901	-0.273237	0.926732
F246	F	1.159901	0.226763	1.426732
F247	F	0.653163	-0.808192	0.211558
F248	F	1.153163	-0.308192	0.711558
F249	F	0.563385	-0.182980	0.454708
F250	F	1.063385	0.317020	0.954708
H251	H	0.837147	-0.220858	0.920638
H252	H	1.337147	0.279142	1.420638
H253	H	0.694877	-0.550145	0.270725
H254	H	1.194877	-0.050145	0.770725
H255	H	0.661488	-0.702303	0.223392
H256	H	1.161488	-0.202303	0.723392
F257	F	0.659933	-0.274035	0.787389
F258	F	1.159933	0.225965	1.287389
H259	H	0.054190	-0.191387	0.442901
H260	H	0.554190	0.308613	0.942901
F261	F	-0.051680	-0.183044	0.454760
F262	F	0.448320	0.316956	0.954760
H263	H	0.206342	-0.157975	0.490338
H264	H	0.706342	0.342025	0.990338
H265	H	0.305387	-0.157966	0.490331
H266	H	0.805387	0.342034	0.990331
F267	F	0.563268	-0.320858	0.258777
F268	F	1.063268	0.179142	0.758777
H269	H	0.457399	-0.312531	0.270666
H270	H	0.957399	0.187469	0.770666
