data_functionalizedCrystal
_audit_creation_method	'MofGen! by Chris Wilmer'
_symmetry_space_group_name_H-M	'P1'
_symmetry_Int_Tables_number	1
_symmetry_cell_setting	triclinic
loop_
_symmetry_equiv_pos_as_xyz
  x,y,z
_cell_length_a	11.792241
_cell_length_b	11.792241
_cell_length_c	10.268362
_cell_angle_alpha	90.001488
_cell_angle_beta	90.000426
_cell_angle_gamma	84.193416
loop_
_atom_site_label
_atom_site_type_symbol
_atom_site_fract_x
_atom_site_fract_y
_atom_site_fract_z
O1	O	1.506910	0.155562	0.108174
O2	O	2.006910	0.655562	0.608174
O3	O	1.176568	0.171595	0.108205
O4	O	1.676568	0.671595	0.608205
O5	O	1.349755	-0.001592	0.108180
O6	O	1.849755	0.498408	0.608180
O7	O	1.333723	0.328749	0.108199
O8	O	1.833723	0.828749	0.608199
O9	O	1.349739	-0.001586	-0.108421
O10	O	1.849739	0.498414	0.391579
O11	O	1.176552	0.171601	-0.108396
O12	O	1.676552	0.671601	0.391604
O13	O	1.506893	0.155568	-0.108426
O14	O	2.006893	0.655568	0.391574
Cu15	Cu	1.341721	0.163585	-0.128188
Cu16	Cu	1.841721	0.663585	0.371812
Cu17	Cu	1.341741	0.163578	0.127967
Cu18	Cu	1.841741	0.663578	0.627967
O19	O	1.333706	0.328755	-0.108401
O20	O	1.833706	0.828755	0.391599
C21	C	1.134269	0.170591	-0.000092
C22	C	1.634269	0.670591	0.499908
C23	C	1.008255	0.167576	-0.000080
C24	C	1.508255	0.667576	0.499920
C25	C	1.348740	-0.043880	-0.000120
C26	C	1.848740	0.456120	0.499880
C27	C	1.345726	-0.169894	-0.000119
C28	C	1.845726	0.330106	0.499881
C29	C	0.777543	0.162034	-0.000118
C30	C	1.277543	0.662034	0.499882
C31	C	0.905928	0.165113	-0.000097
C32	C	1.405928	0.665113	0.499903
C33	C	1.340183	-0.400606	-0.000096
C34	C	1.840183	0.099394	0.499904
C35	C	1.343262	-0.272221	-0.000108
C36	C	1.843262	0.227779	0.499892
C37	C	1.549192	0.156572	-0.000127
C38	C	2.049192	0.656572	0.499873
C39	C	1.675206	0.159587	-0.000130
C40	C	2.175206	0.659587	0.499870
C41	C	1.334721	0.371043	-0.000099
C42	C	1.834721	0.871043	0.499901
C43	C	1.337736	0.497057	-0.000092
C44	C	1.837736	0.997057	0.499908
N45	N	1.341715	0.163589	-0.308354
N46	N	1.841715	0.663589	0.191646
C47	C	1.341724	0.163590	-0.426197
C48	C	1.841724	0.663590	0.073803
C49	C	1.341738	0.163580	-0.574035
C50	C	1.841738	0.663580	-0.074035
N51	N	1.341755	0.163565	0.308133
N52	N	1.841755	0.663565	0.808133
