data_functionalizedCrystal
_audit_creation_method	'MofGen! by Chris Wilmer'
_symmetry_space_group_name_H-M	'P1'
_symmetry_Int_Tables_number	1
_symmetry_cell_setting	triclinic
loop_
_symmetry_equiv_pos_as_xyz
  x,y,z
_cell_length_a	17.077404
_cell_length_b	21.295417
_cell_length_c	21.295412
_cell_angle_alpha	89.969860
_cell_angle_beta	89.984809
_cell_angle_gamma	90.027672
loop_
_atom_site_label
_atom_site_type_symbol
_atom_site_fract_x
_atom_site_fract_y
_atom_site_fract_z
Zn1	Zn	1.199993	-0.250656	-0.355895
Zn2	Zn	1.199892	-0.355925	-0.250622
Zn3	Zn	1.068732	-0.250670	-0.250642
Zn4	Zn	1.068677	-0.355887	-0.355856
O5	O	1.134323	-0.303285	-0.303254
O6	O	1.309826	-0.264630	-0.341938
O7	O	1.182474	-0.341985	-0.162535
O8	O	1.086209	-0.162579	-0.264629
O9	O	1.309752	-0.341971	-0.264595
O10	O	1.182646	-0.162568	-0.341957
O11	O	1.086111	-0.264654	-0.162550
O12	O	0.958878	-0.264617	-0.264591
O13	O	1.086116	-0.341906	-0.443951
O14	O	0.958837	-0.341920	-0.341892
O15	O	1.182593	-0.264593	-0.443979
O16	O	1.182420	-0.444010	-0.264557
O17	O	1.086018	-0.443982	-0.341872
C18	C	0.930375	-0.303267	-0.303240
C19	C	0.843126	-0.303274	-0.303249
C20	C	0.802175	-0.263074	-0.343583
C21	C	0.720195	-0.263078	-0.343586
C22	C	0.679166	-0.303286	-0.303257
C23	C	0.720123	-0.343488	-0.262919
C24	C	0.802102	-0.343480	-0.262913
C25	C	0.549253	-0.343502	-0.262934
C26	C	0.467268	-0.343511	-0.262940
C27	C	0.467346	-0.263100	-0.343607
C28	C	0.549325	-0.263093	-0.343601
C29	C	0.590275	-0.303295	-0.303263
C30	C	1.134223	-0.466836	-0.303222
C31	C	1.134252	-0.536804	-0.303229
C32	C	1.184438	-0.569608	-0.343523
C33	C	1.184466	-0.635351	-0.343539
C34	C	1.134316	-0.668287	-0.303249
C35	C	1.084120	-0.635475	-0.262953
C36	C	1.084088	-0.569734	-0.262943
N37	N	1.128391	-0.771548	-0.248158
N38	N	1.128425	-0.834000	-0.248170
C39	C	1.134408	-0.866361	-0.303278
N40	N	1.140369	-0.833913	-0.358375
N41	N	1.140338	-0.771456	-0.358363
C42	C	1.134345	-0.739572	-0.303256
C43	C	1.184626	-0.970451	-0.343592
C44	C	1.184648	-1.036195	-0.343608
C45	C	1.084307	-1.036317	-0.263017
C46	C	1.084281	-0.970575	-0.263006
C47	C	1.134444	-0.937646	-0.303292
C48	C	1.339068	-0.303303	-0.303268
C49	C	1.426317	-0.303311	-0.303275
C50	C	1.134360	-0.303244	-0.467444
C51	C	1.134375	-0.303227	-0.537412
C52	C	1.134445	-0.139094	-0.303300
C53	C	1.134497	-0.069126	-0.303319
C54	C	1.184685	-0.262870	-1.036886
C55	C	1.184679	-0.262885	-0.971144
C56	C	1.134443	-0.303143	-0.938252
C57	C	1.084224	-0.343401	-0.971108
C58	C	1.084237	-0.343389	-1.036849
N59	N	1.065707	-0.307985	-0.835025
N60	N	1.065697	-0.307993	-0.772573
C61	C	1.134402	-0.303183	-0.740177
N62	N	1.203119	-0.298352	-0.772592
N63	N	1.203128	-0.298342	-0.835049
C64	C	1.134424	-0.303161	-0.866967
C65	C	1.184615	-0.262948	-0.636043
C66	C	1.184610	-0.262967	-0.570300
C67	C	1.084148	-0.343480	-0.570265
C68	C	1.084160	-0.343463	-0.636008
C69	C	1.134392	-0.303194	-0.668893
C70	C	1.134332	-0.303280	-0.139702
C71	C	1.134469	-0.303120	-0.069735
H72	H	0.835574	-0.230334	-0.376425
H73	H	0.835443	-0.376214	-0.230068
C74	C	1.239680	-0.671443	-0.387864
N75	N	1.281269	-0.698625	-0.421249
H76	H	1.043322	-0.376181	-0.944323
C77	C	0.674989	-0.387715	-0.218556
N78	N	0.640994	-0.421031	-0.185142
H79	H	0.433865	-0.376252	-0.230102
H80	H	1.225470	-0.943639	-0.376398
H81	H	1.043344	-0.376166	-1.063594
H82	H	1.225517	-0.230157	-0.662820
H83	H	1.043248	-0.376261	-0.543485
H84	H	0.582592	-0.376238	-0.230085
H85	H	1.225508	-0.230193	-0.543556
H86	H	1.225516	-1.062903	-0.376423
H87	H	0.686856	-0.230345	-0.376431
H88	H	0.582728	-0.230356	-0.376444
C89	C	1.029130	-1.072543	-0.218706
N90	N	0.987565	-1.099832	-0.185334
C91	C	0.422298	-0.218879	-0.387981
N92	N	0.388365	-0.185576	-0.421406
C93	C	1.028909	-0.387735	-0.672142
N94	N	0.987292	-0.421082	-0.699358
C95	C	1.028986	-0.671706	-0.218610
N96	N	0.987466	-0.698995	-0.185202
H97	H	1.043220	-0.543024	-0.230130
C98	C	1.239625	-0.533390	-0.387836
N99	N	1.281193	-0.506109	-0.421212
H100	H	1.043418	-0.943864	-0.230192
C101	C	1.239948	-0.218577	-1.073056
N102	N	1.281575	-0.185217	-1.100300
H103	H	1.225570	-0.230107	-0.944394
