data_functionalizedCrystal
_audit_creation_method	'MofGen! by Chris Wilmer'
_symmetry_space_group_name_H-M	'P1'
_symmetry_Int_Tables_number	1
_symmetry_cell_setting	triclinic
loop_
_symmetry_equiv_pos_as_xyz
  x,y,z
_cell_length_a	14.853567
_cell_length_b	14.853569
_cell_length_c	13.330367
_cell_angle_alpha	89.996202
_cell_angle_beta	90.003945
_cell_angle_gamma	83.635248
loop_
_atom_site_label
_atom_site_type_symbol
_atom_site_fract_x
_atom_site_fract_y
_atom_site_fract_z
O1	O	1.196370	0.117691	0.083357
O2	O	0.933911	0.131712	0.083375
O3	O	1.072150	-0.006528	0.083356
O4	O	1.058130	0.255931	0.083376
O5	O	1.072129	-0.006506	-0.083491
O6	O	0.933889	0.131734	-0.083473
O7	O	1.196349	0.117713	-0.083490
Cu8	Cu	1.065117	0.124726	-0.098716
Cu9	Cu	1.065142	0.124700	0.098600
O10	O	1.058109	0.255953	-0.083471
C11	C	0.900311	0.131088	-0.000047
C12	C	0.800228	0.129184	-0.000041
C13	C	1.071504	-0.040106	-0.000068
C14	C	1.069600	-0.140189	-0.000069
C15	C	0.387693	0.039019	-0.000070
C16	C	0.366413	0.203251	-0.000056
C17	C	0.460447	0.205041	-0.000053
C18	C	0.518108	0.123819	-0.000057
C19	C	0.481736	0.040806	-0.000064
C20	C	0.496826	0.288053	-0.000036
C21	C	0.590866	0.289846	-0.000031
C22	C	0.648529	0.208622	-0.000042
C23	C	0.612151	0.125606	-0.000050
C24	C	0.669813	0.044384	-0.000054
C25	C	0.633437	-0.038633	-0.000069
C26	C	0.539399	-0.040417	-0.000074
C27	C	0.742566	0.210407	-0.000037
C28	C	0.763855	0.046172	-0.000047
C29	C	0.986589	-0.176566	-0.000065
C30	C	1.150822	-0.197855	-0.000065
C31	C	1.149035	-0.291889	-0.000061
C32	C	1.066024	-0.328266	-0.000057
C33	C	0.984800	-0.270608	-0.000058
C34	C	1.230258	-0.349554	-0.000050
C35	C	1.228475	-0.443594	-0.000044
C36	C	1.145463	-0.479972	-0.000048
C37	C	1.064235	-0.422309	-0.000050
C38	C	0.981224	-0.458685	-0.000046
C39	C	0.899996	-0.401023	-0.000055
C40	C	0.901788	-0.306987	-0.000061
C41	C	1.143670	-0.574009	-0.000042
C42	C	0.979435	-0.552728	-0.000038
C43	C	1.229948	0.118337	-0.000066
C44	C	1.330032	0.120241	-0.000066
C45	C	1.058755	0.289531	-0.000045
C46	C	1.060660	0.389615	-0.000038
N47	N	1.065106	0.124744	-0.237497
C48	C	1.119898	0.179463	-0.710109
C49	C	1.010414	0.069900	-0.710099
C50	C	1.010400	0.069914	-0.605081
C51	C	1.065138	0.124702	-0.552572
C52	C	1.119889	0.179476	-0.605081
C53	C	0.955658	0.015134	-0.552564
C54	C	0.955643	0.015145	-0.447539
C55	C	1.010377	0.069939	-0.395028
C56	C	1.065129	0.124716	-0.447544
C57	C	1.119866	0.179504	-0.395035
C58	C	1.174614	0.234287	-0.447548
C59	C	1.174622	0.234270	-0.552570
C60	C	1.010369	0.069955	-0.290006
C61	C	1.119857	0.179518	-0.290006
N62	N	1.065160	0.124675	0.237382
H63	H	0.810798	-0.019971	-0.000054
Br64	Br	0.338330	-0.073642	-0.000099
H65	H	1.209806	-0.620953	-0.000024
Br66	Br	1.248912	0.308615	-0.623844
Br67	Br	1.194139	0.253886	-0.218752
Br68	Br	1.263474	-0.148486	-0.000055
Br69	Br	0.876355	-0.098315	-0.000084
Br70	Br	1.194186	0.253816	-0.781372
Br71	Br	1.342909	-0.300182	-0.000039
Br72	Br	0.936135	-0.004456	-0.781362
H73	H	1.294616	-0.490536	-0.000039
Br74	Br	1.248907	0.308630	-0.376274
Br75	Br	0.881376	-0.059217	-0.623830
H76	H	0.772179	0.277998	-0.000026
H77	H	0.680397	-0.104764	-0.000065
Br78	Br	0.881329	-0.059185	-0.376280
H79	H	0.835656	-0.260030	-0.000066
Br80	Br	0.936095	-0.004406	-0.218742
H81	H	0.911837	-0.582338	-0.000045
Br82	Br	0.288159	0.313476	-0.000033
Br83	Br	0.490026	-0.153073	-0.000092
H84	H	0.449872	0.354179	-0.000023
Br85	Br	0.640225	0.402508	-0.000011
H86	H	0.832408	-0.430653	-0.000046
