data_functionalizedCrystal
_audit_creation_method	'MofGen! by Chris Wilmer'
_symmetry_space_group_name_H-M	'P1'
_symmetry_Int_Tables_number	1
_symmetry_cell_setting	triclinic
loop_
_symmetry_equiv_pos_as_xyz
  x,y,z
_cell_length_a	10.654541
_cell_length_b	11.792241
_cell_length_c	9.130307
_cell_angle_alpha	89.996545
_cell_angle_beta	89.999822
_cell_angle_gamma	84.338672
loop_
_atom_site_label
_atom_site_type_symbol
_atom_site_fract_x
_atom_site_fract_y
_atom_site_fract_z
O1	O	1.667388	0.159405	-0.121755
O2	O	1.301866	0.174596	-0.121768
O3	O	1.493497	0.001851	-0.121751
O4	O	1.475757	0.332151	-0.121772
O5	O	1.493491	0.001849	0.121848
O6	O	1.301859	0.174595	0.121831
O7	O	1.667382	0.159403	0.121844
Cu8	Cu	1.484620	0.166999	0.144080
Cu9	Cu	1.484627	0.167001	-0.144004
O10	O	1.475750	0.332149	0.121827
C11	C	1.255068	0.173481	0.000030
C12	C	1.115634	0.170145	0.000025
C13	C	1.492380	-0.040444	0.000048
C14	C	1.489044	-0.166465	0.000046
C15	C	1.087078	0.376710	-0.000006
C16	C	1.007297	0.478420	-0.000028
C17	C	0.876287	0.475279	-0.000029
C18	C	0.825059	0.370416	-0.000004
C19	C	0.904841	0.268706	0.000017
C20	C	1.035851	0.271858	0.000014
C21	C	0.933396	0.062144	0.000059
C22	C	1.064405	0.065282	0.000050
C23	C	0.882167	-0.042719	0.000084
C24	C	0.961949	-0.144432	0.000095
C25	C	1.092966	-0.141286	0.000095
C26	C	1.144187	-0.036428	0.000072
C27	C	1.482911	-0.397192	0.000022
C28	C	1.486319	-0.268799	0.000035
C29	C	1.714180	0.160519	0.000043
C30	C	1.853614	0.163854	0.000038
C31	C	1.476868	0.374443	0.000025
C32	C	1.480203	0.500465	0.000017
N33	N	1.484624	0.166997	0.346703
N34	N	1.484633	0.166994	-0.346627
C35	C	1.654383	0.014075	0.346708
C36	C	1.739271	-0.062382	0.423377
C37	C	1.739283	-0.062383	0.576710
C38	C	1.654396	0.014080	0.653378
C39	C	1.569509	0.090537	0.576709
C40	C	1.569508	0.090532	0.423372
C41	C	1.399746	0.243451	0.576704
C42	C	1.399737	0.243459	0.423370
C43	C	1.314859	0.319914	0.653372
C44	C	1.229975	0.396379	0.576702
C45	C	1.229967	0.396377	0.423360
C46	C	1.314849	0.319917	0.346701
H47	H	1.049022	0.563797	-0.000044
C48	C	0.906087	-0.258158	0.000050
C49	C	0.774280	-0.239139	0.000022
C50	C	0.722772	-0.343878	-0.000042
H51	H	0.933287	-0.300165	0.084979
H52	H	0.933344	-0.300096	-0.084929
H53	H	0.747034	-0.197219	0.084992
H54	H	0.747045	-0.197149	-0.084901
H55	H	0.750029	-0.385816	-0.085020
H56	H	0.749981	-0.385877	0.084889
H57	H	0.633337	-0.330988	-0.000074
C58	C	1.137758	0.479202	0.660130
C59	C	1.060507	0.418079	0.748188
C60	C	0.975553	0.494340	0.825084
H61	H	1.087079	0.524776	0.592684
H62	H	1.183218	0.526813	0.720032
H63	H	1.015051	0.370489	0.688292
H64	H	1.111150	0.372510	0.815662
H65	H	1.021013	0.541950	0.884986
H66	H	0.924884	0.539909	0.757628
H67	H	0.923136	0.452879	0.884850
C68	C	1.137745	0.479518	0.340388
C69	C	1.063436	0.546491	0.440356
C70	C	0.978478	0.623104	0.363983
H71	H	1.085076	0.438377	0.280572
H72	H	1.183197	0.527218	0.280600
H73	H	1.017986	0.498797	0.500119
H74	H	1.116070	0.587657	0.500176
H75	H	1.023931	0.670804	0.304195
H76	H	0.925818	0.581953	0.304169
H77	H	0.928057	0.668561	0.431799
C78	C	1.179643	-0.251683	0.000418
C79	C	1.255670	-0.255920	0.125761
C80	C	1.335515	-0.357609	0.126117
H81	H	1.231459	-0.254869	-0.084432
H82	H	1.130408	-0.314610	0.000513
H83	H	1.304900	-0.193011	0.125652
H84	H	1.203888	-0.252753	0.210631
H85	H	1.286280	-0.420536	0.126212
H86	H	1.387322	-0.360786	0.041261
H87	H	1.387100	-0.360502	0.211166
C88	C	1.831577	-0.145449	0.659696
C89	C	1.905930	-0.212399	0.559745
C90	C	1.990971	-0.288925	0.636137
H91	H	1.786227	-0.193182	0.719523
H92	H	1.884198	-0.104205	0.719475
H93	H	1.853315	-0.253640	0.499992
H94	H	1.951307	-0.164698	0.499915
H95	H	2.043592	-0.247681	0.695916
H96	H	1.945610	-0.336649	0.695962
H97	H	2.041437	-0.334352	0.568333
H98	H	1.250860	-0.033857	0.000054
H99	H	1.654392	0.014077	0.221856
H100	H	1.193752	0.379277	-0.000038
H101	H	0.811328	0.558101	-0.000036
H102	H	1.808383	-0.124640	0.360941
H103	H	0.718383	0.367868	0.000012
H104	H	1.654401	0.014065	0.778230
H105	H	1.314867	0.319905	0.778224
H106	H	0.775491	-0.045269	0.000091
H107	H	1.314854	0.319913	0.221849
