data_functionalizedCrystal
_audit_creation_method	'MofGen! by Chris Wilmer'
_symmetry_space_group_name_H-M	'P1'
_symmetry_Int_Tables_number	1
_symmetry_cell_setting	triclinic
loop_
_symmetry_equiv_pos_as_xyz
  x,y,z
_cell_length_a	14.044220
_cell_length_b	10.967874
_cell_length_c	10.065918
_cell_angle_alpha	111.757653
_cell_angle_beta	80.970494
_cell_angle_gamma	91.146001
loop_
_atom_site_label
_atom_site_type_symbol
_atom_site_fract_x
_atom_site_fract_y
_atom_site_fract_z
O1	O	-0.190876	1.752809	0.525727
O2	O	-0.193890	1.377096	0.437367
O3	O	-0.054217	1.559312	0.480215
O4	O	-0.330550	1.570593	0.482880
O5	O	-0.028289	1.522408	0.244546
O6	O	-0.167962	1.340192	0.201699
O7	O	-0.164948	1.715906	0.290059
Zn8	Zn	-0.162338	1.522190	0.208461
Zn9	Zn	-0.196500	1.570812	0.518965
O10	O	-0.304622	1.533689	0.247211
C11	C	-0.178748	1.310270	0.308157
C12	C	-0.172246	1.166131	0.274258
C13	C	-0.182779	1.120986	0.381228
C14	C	-0.176059	0.972011	0.346195
C15	C	-0.353059	1.557079	0.366208
C16	C	-0.458759	1.571806	0.369677
C17	C	-0.652284	1.598729	0.376003
C18	C	-0.706561	1.494280	0.351437
C19	C	-0.814245	1.509261	0.354957
C20	C	-0.544590	1.583751	0.372483
C21	C	-0.005780	1.535923	0.361221
C22	C	0.099919	1.521197	0.357762
C23	C	-0.180091	1.782732	0.419273
C24	C	-0.186594	1.926872	0.453181
N25	N	-0.139024	1.489016	-0.003447
C26	C	-0.188388	1.559261	-0.054704
C27	C	-0.170436	1.533740	-0.217874
N28	N	-0.219807	1.603995	0.730875
H29	H	-0.162071	0.900374	0.228670
H30	H	-0.083468	1.409985	-0.080362
H31	H	-0.196776	1.192627	0.498745
C32	C	-0.698755	1.734722	0.407971
C33	C	-0.808010	1.749701	0.411481
C34	C	-0.854494	1.885691	0.443442
C35	C	-0.791722	2.006702	0.471893
C36	C	-0.682461	1.991726	0.468384
C37	C	-0.635977	1.855736	0.436423
H38	H	-0.854483	1.660118	0.390418
H39	H	-0.935376	1.896776	0.446039
H40	H	-0.826132	2.107370	0.495553
H41	H	-0.635988	2.081309	0.489446
H42	H	-0.555094	1.844651	0.433825
H43	H	-0.200593	0.998508	0.570706
H44	H	-0.158259	1.094490	0.156741
H45	H	-0.672155	1.393609	0.327760
C46	C	-0.263439	1.666034	0.049193
C47	C	-0.232078	1.782077	0.174775
C48	C	-0.307131	1.888852	0.278670
C49	C	-0.413545	1.879584	0.256984
C50	C	-0.444911	1.763536	0.131397
C51	C	-0.369858	1.656761	0.027501
H52	H	-0.153299	1.788942	0.190834
H53	H	-0.283911	1.974759	0.371638
H54	H	-0.469103	1.958626	0.333893
H55	H	-0.523689	1.756672	0.115338
H56	H	-0.393078	1.570855	-0.065467
C57	C	-0.095381	1.426961	-0.321764
C58	C	-0.008637	1.464232	-0.411261
C59	C	0.066416	1.357455	-0.515152
C60	C	0.054726	1.213408	-0.529547
C61	C	-0.032021	1.176130	-0.440048
C62	C	-0.107075	1.282906	-0.336157
H63	H	0.000020	1.570870	-0.400607
H64	H	0.130632	1.385051	-0.581405
H65	H	0.110285	1.134366	-0.606453
H66	H	-0.040679	1.069491	-0.450701
H67	H	-0.171291	1.255310	-0.269904
C68	C	-0.294863	1.710776	-0.165240
C69	C	-0.263506	1.826825	-0.039660
C70	C	-0.338561	1.933603	0.064223
C71	C	-0.444972	1.924333	0.042526
C72	C	-0.476335	1.808279	-0.083059
C73	C	-0.401280	1.701501	-0.186942
H74	H	-0.184729	1.833691	-0.023594
H75	H	-0.315343	2.019514	0.157189
H76	H	-0.500532	2.003377	0.119427
H77	H	-0.555112	1.801413	-0.099125
H78	H	-0.424497	1.615590	-0.279909
