data_functionalizedCrystal
_audit_creation_method	'MofGen! by Chris Wilmer'
_symmetry_space_group_name_H-M	'P1'
_symmetry_Int_Tables_number	1
_symmetry_cell_setting	triclinic
loop_
_symmetry_equiv_pos_as_xyz
  x,y,z
_cell_length_a	12.759401
_cell_length_b	12.645330
_cell_length_c	12.759393
_cell_angle_alpha	89.967766
_cell_angle_beta	89.981425
_cell_angle_gamma	90.013072
loop_
_atom_site_label
_atom_site_type_symbol
_atom_site_fract_x
_atom_site_fract_y
_atom_site_fract_z
Zn1	Zn	1.606270	-0.421964	-0.593980
Zn2	Zn	1.606171	-0.599268	-0.418298
Zn3	Zn	1.430572	-0.422021	-0.418319
Zn4	Zn	1.430567	-0.599187	-0.593940
O5	O	1.518395	-0.510610	-0.506134
O6	O	1.753278	-0.445494	-0.570684
O7	O	1.582838	-0.575814	-0.271280
O8	O	1.453922	-0.273666	-0.441647
O9	O	1.753205	-0.575759	-0.441611
O10	O	1.583007	-0.273624	-0.570704
O11	O	1.453826	-0.445591	-0.271295
O12	O	1.283550	-0.445512	-0.441607
O13	O	1.453914	-0.575621	-0.740966
O14	O	1.283547	-0.575676	-0.570635
O15	O	1.583002	-0.445416	-0.740996
O16	O	1.582833	-0.747605	-0.441572
O17	O	1.453817	-0.747545	-0.570615
C18	C	1.245428	-0.510592	-0.506120
C19	C	1.128651	-0.510610	-0.506138
C20	C	1.073828	-0.442903	-0.573450
C21	C	0.964103	-0.442914	-0.573457
C22	C	0.964036	-0.578347	-0.438837
C23	C	1.073758	-0.578330	-0.438826
C24	C	0.814179	-0.317959	-0.611227
C25	C	0.759352	-0.250262	-0.678555
C26	C	0.795008	-0.234103	-0.781093
C27	C	0.885489	-0.285656	-0.816325
C28	C	0.940310	-0.353361	-0.749002
C29	C	0.904656	-0.369500	-0.646449
C30	C	1.223684	-0.703286	-0.401067
C31	C	1.278508	-0.770997	-0.333749
C32	C	1.242854	-0.787167	-0.231208
C33	C	1.152369	-0.735633	-0.195981
C34	C	1.097546	-0.667922	-0.263299
C35	C	1.133207	-0.651750	-0.365838
C36	C	1.518342	-0.786040	-0.506110
C37	C	1.518416	-0.903870	-0.506134
C38	C	1.599449	-1.071427	-0.424788
C39	C	1.599713	-0.948867	-0.424988
C40	C	1.548443	-0.948242	-0.616878
C41	C	1.549086	-1.070840	-0.616447
C42	C	1.407323	-1.071201	-0.477827
C43	C	1.407856	-0.948597	-0.475343
C44	C	1.792428	-0.510629	-0.506150
C45	C	1.909205	-0.510637	-0.506157
C46	C	1.518468	-0.510503	-0.780168
C47	C	1.518499	-0.510457	-0.896945
C48	C	1.518476	-0.234105	-0.506182
C49	C	1.518511	-0.116275	-0.506203
C50	C	1.451347	-0.442638	-0.951814
C51	C	1.451372	-0.442605	-1.061538
C52	C	1.585710	-0.578215	-1.061514
C53	C	1.585679	-0.578252	-0.951792
C54	C	1.327520	-0.404667	-1.211491
C55	C	1.260377	-0.336831	-1.266365
C56	C	1.244269	-0.233402	-1.230776
C57	C	1.295320	-0.197789	-1.140316
C58	C	1.362470	-0.265619	-1.085449
C59	C	1.378558	-0.369062	-1.121036
C60	C	1.709532	-0.616179	-0.801837
C61	C	1.776689	-0.684005	-0.746967
C62	C	1.792808	-0.787435	-0.782553
C63	C	1.741776	-0.823045	-0.873016
C64	C	1.674619	-0.755219	-0.927886
C65	C	1.658499	-0.651790	-0.892292
C66	C	1.518382	-0.510640	-0.233167
C67	C	1.518555	-0.510388	-0.116391
H68	H	1.287481	-0.842333	-0.176411
H69	H	1.682066	-0.919457	-0.443756
N70	N	1.654364	-0.647439	-1.117525
N71	N	1.714327	-0.707976	-1.068517
H72	H	1.762825	-0.756861	-1.108072
N73	N	1.328104	-0.910191	-0.544260
N74	N	1.253324	-0.857497	-0.508541
H75	H	1.197001	-0.830373	-0.557221
N76	N	1.828820	-0.647653	-0.654552
N77	N	1.888776	-0.708221	-0.605572
H78	H	1.925592	-0.682551	-0.540303
H79	H	1.396645	-0.387435	-0.907161
H80	H	1.352196	-0.812945	-0.362435
N81	N	1.373076	-1.110080	-0.378272
N82	N	1.353640	-1.046841	-0.305562
H83	H	1.329463	-1.074298	-0.235247
H84	H	1.580897	-1.100988	-0.342433
N85	N	1.414709	-0.229196	-0.993129
N86	N	1.400392	-0.136813	-0.961412
H87	H	1.437317	-0.111071	-0.896232
N88	N	1.343940	-0.510330	-1.247830
N89	N	1.268214	-0.572605	-1.255242
H90	H	1.279808	-0.647232	-1.280911
H91	H	0.914507	-0.272502	-0.899826
H92	H	0.919329	-0.633483	-0.384035
N93	N	0.738989	-0.164956	-0.849857
N94	N	0.658205	-0.118943	-0.818395
H95	H	0.618637	-0.070105	-0.866954
N96	N	0.666931	-0.197614	-0.642554
N97	N	0.635109	-0.212037	-0.550991
H98	H	0.569835	-0.174858	-0.525570
H99	H	1.347018	-1.100204	-0.537124
N100	N	1.693069	-0.510530	-0.765463
N101	N	1.738647	-0.478747	-0.684698
H102	H	1.727024	-0.404132	-0.659007
N103	N	1.278871	-0.092124	-1.103992
N104	N	1.218917	-0.031572	-1.152993
H105	H	1.207299	0.043056	-1.127339
N106	N	1.649246	-0.909607	-0.647529
N107	N	1.699145	-0.849407	-0.588005
H108	H	1.770338	-0.822119	-0.609647
N109	N	1.260133	-0.686762	-0.505804
N110	N	1.340922	-0.732783	-0.537243
H111	H	1.366668	-0.721114	-0.611213
H112	H	1.023868	-0.625960	-0.234608
N113	N	1.175688	-0.164119	-1.286842
N114	N	1.130124	-0.195922	-1.367607
H115	H	1.081686	-0.146997	-1.407208
H116	H	1.123335	-0.748804	-0.112486
N117	N	1.032739	-0.406015	-0.784955
N118	N	1.081685	-0.466449	-0.724830
H119	H	1.146969	-0.503631	-0.750220
N120	N	1.208242	-0.373221	-1.358763
N121	N	1.222619	-0.465579	-1.390524
H122	H	1.185803	-0.491276	-1.455783
N123	N	1.861399	-0.856736	-0.726513
N124	N	1.875771	-0.949085	-0.758301
H125	H	1.924209	-0.998032	-0.718726
H126	H	1.580926	-0.918872	-0.342872
N127	N	1.622497	-0.791607	-1.020292
N128	N	1.636895	-0.883959	-1.052060
H129	H	1.600083	-0.909659	-1.117320
H130	H	1.754905	-0.907265	-0.901995
H131	H	1.630359	-1.099350	-0.640483
H132	H	1.118518	-0.387758	-0.628257
H133	H	0.785146	-0.331098	-0.527728
H134	H	1.681360	-1.102155	-0.443347
N135	N	1.478336	-1.108065	-0.695124
N136	N	1.383409	-1.084069	-0.690692
H137	H	1.333445	-1.110357	-0.746259
N138	N	1.476746	-0.911653	-0.695009
N139	N	1.466527	-0.814729	-0.711345
H140	H	1.415888	-0.788885	-0.766523
N141	N	1.379464	-0.912232	-0.373101
N142	N	1.440371	-0.853590	-0.323039
H143	H	1.420324	-0.827904	-0.250828
