data_functionalizedCrystal
_audit_creation_method	'MofGen! by Chris Wilmer'
_symmetry_space_group_name_H-M	'P1'
_symmetry_Int_Tables_number	1
_symmetry_cell_setting	triclinic
loop_
_symmetry_equiv_pos_as_xyz
  x,y,z
_cell_length_a	14.421503
_cell_length_b	9.065218
_cell_length_c	9.065218
_cell_angle_alpha	85.015885
_cell_angle_beta	90.006200
_cell_angle_gamma	89.992178
loop_
_atom_site_label
_atom_site_type_symbol
_atom_site_fract_x
_atom_site_fract_y
_atom_site_fract_z
O1	O	0.077110	-1.960410	-0.216337
O2	O	0.577110	-1.460410	0.283663
O3	O	0.077111	-1.531125	-0.234083
O4	O	0.577111	-1.031125	0.265917
O5	O	0.077108	-1.754641	-0.010567
O6	O	0.577108	-1.254641	0.489433
O7	O	0.077112	-1.736895	-0.439852
O8	O	0.577112	-1.236895	0.060148
O9	O	-0.077115	-1.754604	-0.010601
O10	O	0.422885	-1.254604	0.489399
O11	O	-0.077113	-1.531088	-0.234116
O12	O	0.422887	-1.031088	0.265884
O13	O	-0.077114	-1.960373	-0.216370
O14	O	0.422886	-1.460373	0.283630
Cu15	Cu	-0.091195	-1.745727	-0.225246
Cu16	Cu	0.408805	-1.245727	0.274754
Cu17	Cu	0.091192	-1.745771	-0.225207
Cu18	Cu	0.591192	-1.245771	0.274793
O19	O	-0.077111	-1.736858	-0.439885
O20	O	0.422889	-1.236858	0.060115
C21	C	-0.000001	-1.476120	-0.232394
C22	C	0.499999	-0.976120	0.267606
C23	C	-0.000000	-1.312277	-0.227294
C24	C	0.500000	-0.812277	0.272706
N25	N	-0.219476	-1.745707	-0.225273
N26	N	0.280524	-1.245707	0.274727
C27	C	-0.000002	-1.752917	0.044403
C28	C	0.499998	-1.252917	0.544403
C29	C	0.000003	-1.747817	0.208245
C30	C	0.500003	-1.247817	0.708245
C31	C	-0.469129	-1.642335	-0.328579
C32	C	0.030871	-1.142335	0.171421
C33	C	-0.530931	-1.776048	-0.359000
C34	C	-0.030931	-1.276048	0.141000
C35	C	-0.408638	-1.745743	-0.225238
C36	C	0.091362	-1.245743	0.274762
C37	C	-0.530929	-1.612064	-0.194852
C38	C	-0.030929	-1.112064	0.305148
C39	C	-0.591359	-1.745765	-0.225208
C40	C	-0.091359	-1.245765	0.274792
C41	C	-0.469079	-1.879525	-0.255726
C42	C	0.030921	-1.379525	0.244274
C43	C	-0.469071	-1.715452	-0.091519
C44	C	0.030929	-1.215452	0.408481
C45	C	-0.530846	-1.849261	-0.121885
C46	C	-0.030846	-1.349261	0.378115
C47	C	-0.303376	-1.745728	-0.225259
C48	C	0.196624	-1.245728	0.274741
C49	C	-0.696618	-1.745795	-0.225186
C50	C	-0.196618	-1.245795	0.274814
N51	N	0.219473	-1.745803	-0.225168
N52	N	0.719473	-1.245803	0.274832
C53	C	0.000000	-2.015378	-0.218059
C54	C	0.500000	-1.515378	0.281941
C55	C	0.000006	-2.179221	-0.223158
C56	C	0.500006	-1.679221	0.276842
C57	C	0.000001	-1.738582	-0.494855
C58	C	0.500001	-1.238582	0.005145
C59	C	0.000003	-1.743681	-0.658698
C60	C	0.500003	-1.243681	-0.158698
H61	H	-0.442030	-1.554977	-0.416044
H62	H	0.057970	-1.054977	0.083956
Br63	Br	-0.576216	-1.423628	-0.152036
Br64	Br	-0.076216	-0.923628	0.347964
Br65	Br	-0.423996	-2.068014	-0.298757
Br66	Br	0.076004	-1.568014	0.201243
Br67	Br	-0.576219	-1.818793	-0.547454
Br68	Br	-0.076219	-1.318793	-0.047454
Br69	Br	-0.423744	-1.672648	0.096883
Br70	Br	0.076256	-1.172648	0.596883
H71	H	-0.557775	-1.936816	-0.034476
H72	H	-0.057775	-1.436816	0.465524
