data_functionalizedCrystal
_audit_creation_method	'MofGen! by Chris Wilmer'
_symmetry_space_group_name_H-M	'P1'
_symmetry_Int_Tables_number	1
_symmetry_cell_setting	triclinic
loop_
_symmetry_equiv_pos_as_xyz
  x,y,z
_cell_length_a	21.395362
_cell_length_b	17.637651
_cell_length_c	21.395355
_cell_angle_alpha	78.767767
_cell_angle_beta	89.956060
_cell_angle_gamma	101.230465
loop_
_atom_site_label
_atom_site_type_symbol
_atom_site_fract_x
_atom_site_fract_y
_atom_site_fract_z
Zn1	Zn	0.907526	-0.314524	-0.304123
Zn2	Zn	1.240860	0.018809	0.029211
Zn3	Zn	1.574193	0.352143	0.362544
Zn4	Zn	0.886274	-0.446721	-0.178135
Zn5	Zn	1.219607	-0.113387	0.155198
Zn6	Zn	1.552940	0.219946	0.488531
Zn7	Zn	0.802736	-0.314561	-0.199318
Zn8	Zn	1.136069	0.018773	0.134015
Zn9	Zn	1.469402	0.352106	0.467349
Zn10	Zn	0.781553	-0.446737	-0.282837
Zn11	Zn	1.114886	-0.113404	0.050496
Zn12	Zn	1.448219	0.219930	0.383829
O13	O	0.844522	-0.380636	-0.241103
O14	O	1.177855	-0.047302	0.092230
O15	O	1.511189	0.286031	0.425563
O16	O	0.992389	-0.332038	-0.287453
O17	O	1.325722	0.001295	0.045880
O18	O	1.659055	0.334629	0.379214
O19	O	0.875163	-0.429198	-0.093266
O20	O	1.208496	-0.095865	0.240067
O21	O	1.541829	0.237469	0.573401
O22	O	0.834396	-0.203915	-0.230994
O23	O	1.167729	0.129419	0.102340
O24	O	1.501062	0.462752	0.435673
O25	O	0.976774	-0.429162	-0.194891
O26	O	1.310108	-0.095829	0.138443
O27	O	1.643441	0.237504	0.471776
O28	O	0.911385	-0.203888	-0.307993
O29	O	1.244719	0.129446	0.025340
O30	O	1.578052	0.462779	0.358673
O31	O	0.813788	-0.332101	-0.108829
O32	O	1.147121	0.001233	0.224505
O33	O	1.480454	0.334566	0.557838
O34	O	0.712244	-0.332116	-0.210354
O35	O	1.045577	0.001217	0.122979
O36	O	1.378911	0.334550	0.456312
O37	O	0.798293	-0.429190	-0.373340
O38	O	1.131626	-0.095857	-0.040007
O39	O	1.464959	0.237477	0.293326
O40	O	0.696681	-0.429226	-0.271715
O41	O	1.030014	-0.095892	0.061618
O42	O	1.363348	0.237441	0.394951
O43	O	0.890845	-0.332054	-0.388978
O44	O	1.224178	0.001280	-0.055645
O45	O	1.557512	0.334613	0.277688
O46	O	0.854623	-0.557364	-0.174251
O47	O	1.187956	-0.224031	0.159082
O48	O	1.521289	0.109303	0.492416
O49	O	0.777685	-0.557376	-0.251175
O50	O	1.111018	-0.224043	0.082158
O51	O	1.444351	0.109291	0.415491
C52	C	0.681728	-0.380677	-0.241024
C53	C	1.015061	-0.047344	0.092309
C54	C	1.348394	0.285989	0.425643
C55	C	0.612080	-0.380714	-0.241002
C56	C	0.945414	-0.047381	0.092332
C57	C	1.278747	0.285952	0.425665
C58	C	0.811566	-0.586058	-0.208119
C59	C	1.144899	-0.252725	0.125215
C60	C	1.478232	0.080609	0.458548
C61	C	0.797524	-0.673938	-0.194028
C62	C	1.130858	-0.340605	0.139305
C63	C	1.464191	-0.007272	0.472638
C64	C	0.571269	-0.431346	-0.272882
C65	C	0.904603	-0.098013	0.060451
C66	C	1.237936	0.235321	0.393785
C67	C	0.505837	-0.431327	-0.272913
C68	C	0.839170	-0.097993	0.060420
C69	C	1.172504	0.235340	0.393754
C70	C	0.481217	-0.380684	-0.241051
C71	C	0.814550	-0.047351	0.092282
C72	C	1.147884	0.285983	0.425615
C73	C	0.522038	-0.330042	-0.209170
C74	C	0.855371	0.003291	0.124163
C75	C	1.188704	0.336624	0.457497
C76	C	0.587469	-0.330057	-0.209145
C77	C	0.920803	0.003276	0.124188
C78	C	1.254136	0.336609	0.457521
C79	C	0.378512	-0.374314	-0.185668
C80	C	0.711845	-0.040981	0.147665
C81	C	1.045178	0.292352	0.480999
C82	C	0.313080	-0.374305	-0.185691
C83	C	0.646414	-0.040971	0.147643
C84	C	0.979747	0.292362	0.480976
C85	C	0.279405	-0.380632	-0.241129
C86	C	0.612738	-0.047299	0.092205
C87	C	0.946071	0.286034	0.425538
C88	C	0.311166	-0.386986	-0.296543
C89	C	0.644499	-0.053653	0.036790
C90	C	0.977833	0.279681	0.370124
C91	C	0.376598	-0.387001	-0.296518
C92	C	0.709931	-0.053668	0.036815
C93	C	1.043264	0.279665	0.370148
C94	C	0.410268	-0.380661	-0.241075
C95	C	0.743602	-0.047328	0.092258
C96	C	1.076935	0.286005	0.425592
C97	C	0.167644	-0.431246	-0.273045
C98	C	0.500977	-0.097912	0.060288
C99	C	0.834311	0.235421	0.393621
C100	C	0.102211	-0.431221	-0.273078
C101	C	0.435545	-0.097888	0.060255
C102	C	0.768878	0.235446	0.393588
C103	C	0.118413	-0.329940	-0.209329
C104	C	0.451746	0.003393	0.124004
C105	C	0.785079	0.336726	0.457337
C106	C	0.183845	-0.329961	-0.209303
C107	C	0.517178	0.003372	0.124031
C108	C	0.850511	0.336705	0.457364
C109	C	0.208456	-0.380618	-0.241159
C110	C	0.541789	-0.047285	0.092174
C111	C	0.875122	0.286049	0.425508
C112	C	0.951601	-0.962602	-0.348342
C113	C	1.284934	-0.629268	-0.015008
C114	C	1.618268	-0.295935	0.318325
C115	C	0.938387	-1.045179	-0.335091
C116	C	1.271720	-0.711846	-0.001758
C117	C	1.605054	-0.378512	0.331576
C118	C	0.858271	-1.045314	-0.254834
C119	C	1.191605	-0.711981	0.078499
C120	C	1.524938	-0.378648	0.411833
C121	C	0.871481	-0.962736	-0.268076
C122	C	1.204814	-0.629402	0.065258
C123	C	1.538147	-0.296069	0.398591
C124	C	0.918146	-0.921386	-0.314831
C125	C	1.251479	-0.588052	0.018503
C126	C	1.584813	-0.254719	0.351836
C127	C	0.838026	-0.921520	-0.234565
C128	C	1.171359	-0.588186	0.098769
C129	C	1.504692	-0.254853	0.432102
C130	C	0.851232	-0.838948	-0.247808
C131	C	1.184565	-0.505615	0.085525
C132	C	1.517899	-0.172281	0.418859
C133	C	0.897893	-0.797592	-0.294562
C134	C	1.231227	-0.464259	0.038771
C135	C	1.564560	-0.130926	0.372105
C136	C	0.931352	-0.838814	-0.328074
C137	C	1.264686	-0.505481	0.005259
C138	C	1.598019	-0.172147	0.338593
C139	C	0.791358	-0.962871	-0.187813
C140	C	1.124691	-0.629538	0.145520
C141	C	1.458024	-0.296204	0.478854
C142	C	0.757902	-0.921655	-0.154302
C143	C	1.091236	-0.588321	0.179031
C144	C	1.424569	-0.254988	0.512364
C145	C	0.771112	-0.839082	-0.167542
C146	C	1.104445	-0.505748	0.165791
C147	C	1.437778	-0.172415	0.499125
C148	C	0.817773	-0.797726	-0.214296
C149	C	1.151106	-0.464393	0.119037
C150	C	1.484440	-0.131059	0.452370
C151	C	0.737653	-0.797860	-0.134030
C152	C	1.070986	-0.464527	0.199303
C153	C	1.404319	-0.131193	0.532636
C154	C	0.750859	-0.715288	-0.147274
C155	C	1.084192	-0.381955	0.186060
C156	C	1.417526	-0.048622	0.519393
C157	C	0.830979	-0.715154	-0.227539
C158	C	1.164313	-0.381821	0.105794
C159	C	1.497646	-0.048488	0.439127
C160	C	1.007952	-0.380594	-0.241183
C161	C	1.341285	-0.047261	0.092150
C162	C	1.674619	0.286072	0.425483
C163	C	1.077596	-0.380577	-0.241217
C164	C	1.410929	-0.047243	0.092116
C165	C	1.744263	0.286090	0.425449
C166	C	0.844577	-0.380620	-0.404529
C167	C	1.177910	-0.047286	-0.071196
C168	C	1.511243	0.286047	0.262137
C169	C	0.844600	-0.380613	-0.474172
C170	C	1.177933	-0.047279	-0.140838
C171	C	1.511267	0.286054	0.192495
C172	C	0.877624	-0.174411	-0.274231
C173	C	1.210957	0.158922	0.059103
C174	C	1.544291	0.492256	0.392436
C175	C	0.891730	-0.086530	-0.288348
C176	C	1.225064	0.246803	0.044986
C177	C	1.558397	0.580136	0.378319
C178	C	0.892791	-0.330032	-0.515029
C179	C	1.226124	0.003302	-0.181696
C180	C	1.559457	0.336635	0.151638
C181	C	0.892795	-0.329998	-0.580470
C182	C	1.226128	0.003336	-0.247137
C183	C	1.559462	0.336669	0.086197
C184	C	0.844613	-0.380559	-0.605049
C185	C	1.177947	-0.047226	-0.271715
C186	C	1.511280	0.286108	0.061618
C187	C	0.796414	-0.431143	-0.564183
C188	C	1.129748	-0.097810	-0.230850
C189	C	1.463081	0.235523	0.102484
C190	C	0.796408	-0.431170	-0.498744
C191	C	1.129741	-0.097837	-0.165411
C192	C	1.463074	0.235496	0.167922
C193	C	0.828245	-0.451751	-0.697290
C194	C	1.161578	-0.118418	-0.363957
C195	C	1.494911	0.214915	-0.030624
C196	C	0.828256	-0.451726	-0.762727
C197	C	1.161589	-0.118392	-0.429394
C198	C	1.494922	0.214941	-0.096061
C199	C	0.844631	-0.380475	-0.806883
C200	C	1.177964	-0.047142	-0.473550
C201	C	1.511297	0.286191	-0.140216
C202	C	0.861008	-0.309248	-0.785594
C203	C	1.194342	0.024085	-0.452260
C204	C	1.527675	0.357418	-0.118927
C205	C	0.861002	-0.309275	-0.720155
C206	C	1.194335	0.024058	-0.386822
C207	C	1.527668	0.357391	-0.053489
C208	C	0.844615	-0.380535	-0.676005
C209	C	1.177948	-0.047202	-0.342672
C210	C	1.511282	0.286132	-0.009338
C211	C	0.892829	-0.329853	-0.918699
C212	C	1.226162	0.003480	-0.585366
C213	C	1.559496	0.336814	-0.252033
C214	C	0.892830	-0.329818	-0.984142
C215	C	1.226163	0.003516	-0.650808
C216	C	1.559496	0.336849	-0.317475
C217	C	0.796451	-0.430971	-0.967852
C218	C	1.129784	-0.097637	-0.634519
C219	C	1.463118	0.235696	-0.301186
C220	C	0.796448	-0.430999	-0.902413
C221	C	1.129782	-0.097666	-0.569079
C222	C	1.463115	0.235668	-0.235746
C223	C	0.844641	-0.380441	-0.877840
C224	C	1.177974	-0.047108	-0.544506
C225	C	1.511307	0.286225	-0.211173
C226	C	0.844513	-0.380594	-0.078322
C227	C	1.177846	-0.047261	0.255011
C228	C	1.511180	0.286072	0.588344
C229	C	0.844647	-0.380379	-0.008716
C230	C	1.177980	-0.047045	0.324617
C231	C	1.511313	0.286288	0.657951
H232	H	0.591303	-0.472594	-0.298823
H233	H	0.924637	-0.139261	0.034510
H234	H	1.257970	0.194073	0.367844
Br235	Br	0.794936	-1.101439	-0.191389
Br236	Br	1.128269	-0.768105	0.141944
Br237	Br	1.461603	-0.434772	0.475277
Br238	Br	0.983799	-1.101114	-0.380573
Br239	Br	1.317132	-0.767780	-0.047239
Br240	Br	1.650466	-0.434447	0.286094
Br241	Br	0.694567	-0.977779	-0.090858
Br242	Br	1.027900	-0.644446	0.242476
Br243	Br	1.361234	-0.311113	0.575809
H244	H	0.989605	-0.928933	-0.386410
H245	H	1.322939	-0.595600	-0.053076
H246	H	1.656272	-0.262266	0.280257
H247	H	0.908645	-0.730357	-0.305343
H248	H	1.241979	-0.397024	0.027990
H249	H	1.575312	-0.063691	0.361323
H250	H	0.932032	-0.288863	-0.495027
H251	H	1.265365	0.044471	-0.161693
H252	H	1.598699	0.377804	0.171640
Br253	Br	0.806038	-0.548390	-0.791613
Br254	Br	1.139371	-0.215056	-0.458280
Br255	Br	1.472704	0.118277	-0.124947
H256	H	0.780601	-1.030106	-0.177038
H257	H	1.113934	-0.696773	0.156295
H258	H	1.447267	-0.363439	0.489629
Br259	Br	0.731044	-0.499650	-0.846959
Br260	Br	1.064377	-0.166317	-0.513626
Br261	Br	1.397710	0.167017	-0.180292
Br262	Br	0.731054	-0.499581	-1.001204
Br263	Br	1.064387	-0.166248	-0.667870
Br264	Br	1.397720	0.167086	-0.334537
Br265	Br	0.674312	-0.853987	-0.070592
Br266	Br	1.007646	-0.520654	0.262742
Br267	Br	1.340979	-0.187320	0.596075
H268	H	0.969356	-0.805146	-0.366142
H269	H	1.302690	-0.471812	-0.032809
H270	H	1.636023	-0.138479	0.300525
Br271	Br	0.806038	-0.548459	-0.637370
Br272	Br	1.139371	-0.215126	-0.304036
Br273	Br	1.472704	0.118207	0.029297
H274	H	0.723616	-0.681730	-0.119986
H275	H	1.056949	-0.348397	0.213347
H276	H	1.390282	-0.015063	0.546681
Br277	Br	0.958189	-0.261327	-0.635933
Br278	Br	1.291522	0.072006	-0.302600
Br279	Br	1.624856	0.405339	0.030734
Br280	Br	0.424208	-0.365727	-0.110424
Br281	Br	0.757541	-0.032394	0.222910
Br282	Br	1.090874	0.300939	0.556243
Br283	Br	0.958245	-0.261178	-1.039592
Br284	Br	1.291578	0.072156	-0.706258
Br285	Br	1.624911	0.405489	-0.372925
H286	H	0.283749	-0.392137	-0.341686
H287	H	0.617082	-0.058804	-0.008353
H288	H	0.950415	0.274529	0.324980
H289	H	0.874335	-0.251280	-0.702825
H290	H	1.207669	0.082053	-0.369491
H291	H	1.541002	0.415387	-0.036158
H292	H	0.874344	-0.251229	-0.821545
H293	H	1.207677	0.082104	-0.488211
H294	H	1.541010	0.415437	-0.154878
H295	H	0.932067	-0.288682	-0.898692
H296	H	1.265401	0.044652	-0.565359
H297	H	1.598734	0.377985	-0.232025
H298	H	0.472603	-0.472557	-0.298876
H299	H	0.805936	-0.139224	0.034457
H300	H	1.139269	0.194110	0.367791
Br301	Br	0.731021	-0.499757	-0.597539
Br302	Br	1.064354	-0.166424	-0.264205
Br303	Br	1.397687	0.166909	0.069128
H304	H	0.757162	-0.472359	-0.465478
H305	H	1.090496	-0.139025	-0.132145
H306	H	1.423829	0.194308	0.201189
H307	H	0.402455	-0.392173	-0.341639
H308	H	0.735788	-0.058839	-0.008305
H309	H	1.069122	0.274494	0.325028
H310	H	0.187684	-0.472490	-0.298989
H311	H	0.521017	-0.139156	0.034345
H312	H	0.854351	0.194177	0.367678
H313	H	0.068983	-0.472450	-0.299043
H314	H	0.402317	-0.139117	0.034290
H315	H	0.735650	0.194217	0.367624
H316	H	0.098368	-0.288702	-0.183390
H317	H	0.431702	0.044631	0.149943
H318	H	0.765035	0.377964	0.483276
H319	H	0.501988	-0.288807	-0.183230
H320	H	0.835321	0.044526	0.150104
H321	H	1.168655	0.377860	0.483437
H322	H	0.217073	-0.288735	-0.183339
H323	H	0.550407	0.044598	0.149995
H324	H	0.883740	0.377931	0.483328
H325	H	0.287225	-0.369136	-0.140568
H326	H	0.620558	-0.035803	0.192765
H327	H	0.953891	0.297531	0.526098
H328	H	0.868984	-0.681486	-0.265607
H329	H	1.202317	-0.348153	0.067726
H330	H	1.535650	-0.014819	0.401059
Br331	Br	0.642860	-0.261336	-0.165878
Br332	Br	0.976194	0.071998	0.167456
Br333	Br	1.309527	0.405331	0.500789
