data_functionalizedCrystal
_audit_creation_method	'MofGen! by Chris Wilmer'
_symmetry_space_group_name_H-M	'P1'
_symmetry_Int_Tables_number	1
_symmetry_cell_setting	triclinic
loop_
_symmetry_equiv_pos_as_xyz
  x,y,z
_cell_length_a	14.519709
_cell_length_b	12.837942
_cell_length_c	11.892113
_cell_angle_alpha	86.039625
_cell_angle_beta	85.644392
_cell_angle_gamma	89.254543
loop_
_atom_site_label
_atom_site_type_symbol
_atom_site_fract_x
_atom_site_fract_y
_atom_site_fract_z
O1	O	-1.241383	-0.141822	0.093854
O2	O	-0.974291	-0.157829	0.093888
O3	O	-1.101914	0.001089	0.093865
O4	O	-1.113760	-0.300740	0.093877
O5	O	-1.090340	0.012939	-0.094141
O6	O	-0.962717	-0.145979	-0.094118
O7	O	-1.229809	-0.129971	-0.094152
Zn8	Zn	-1.094426	-0.136093	-0.123985
Zn9	Zn	-1.109675	-0.151707	0.123721
O10	O	-1.102186	-0.288889	-0.094129
C11	C	-0.934080	-0.151158	-0.000110
C12	C	-0.831507	-0.148924	-0.000097
C13	C	-1.092126	0.045642	-0.000137
C14	C	-1.080192	0.160741	-0.000134
C15	C	-1.270020	-0.136642	-0.000151
C16	C	-1.372594	-0.138877	-0.000157
C17	C	-0.455897	-0.140692	-0.000149
C18	C	-0.560403	-0.142978	-0.000134
C19	C	-0.643699	-0.144808	-0.000122
C20	C	-0.748211	-0.147094	-0.000110
C21	C	-1.111975	-0.333442	-0.000124
C22	C	-1.123909	-0.448542	-0.000120
N23	N	-1.084025	-0.125437	-0.293039
C24	C	-1.223663	0.401433	-0.000129
C25	C	-1.212454	0.509579	-0.000125
C26	C	-1.046567	0.485182	-0.000116
C27	C	-1.057776	0.377035	-0.000119
C28	C	-1.146326	0.335165	-0.000127
C29	C	-1.157534	0.227017	-0.000139
C30	C	-0.991648	0.202621	-0.000121
C31	C	-0.980440	0.310768	-0.000118
C32	C	-1.192447	-0.236561	-0.529696
C33	C	-1.185184	-0.229103	-0.648037
C34	C	-1.062241	-0.103059	-0.648064
C35	C	-1.069504	-0.110516	-0.529723
C36	C	-1.134608	-0.177271	-0.470543
C37	C	-1.141867	-0.184733	-0.352200
C38	C	-1.018928	-0.058684	-0.352229
C39	C	-1.011665	-0.051226	-0.470570
N40	N	-1.120082	-0.162355	0.292774
H41	H	-1.229636	0.192929	-0.000149
C42	C	-1.319834	0.356007	0.000093
C43	C	-1.373094	0.383547	0.096828
C44	C	-1.461688	0.341709	0.097080
H45	H	-1.348161	0.382842	-0.065395
H46	H	-1.315473	0.282100	0.000155
H47	H	-1.377458	0.457439	0.096756
H48	H	-1.344796	0.356713	0.162332
H49	H	-1.457327	0.267801	0.097141
H50	H	-1.490007	0.368547	0.031587
H51	H	-1.497834	0.360380	0.162717
H52	H	-1.275430	0.563531	-0.000123
C53	C	-1.263181	-0.308875	-0.465292
C54	C	-1.324280	-0.250454	-0.397325
C55	C	-1.389445	-0.317037	-0.337971
H56	H	-1.296682	-0.343149	-0.517342
H57	H	-1.232433	-0.359390	-0.419064
H58	H	-1.355025	-0.199957	-0.443549
H59	H	-1.290806	-0.216182	-0.345254
H60	H	-1.358697	-0.367553	-0.291743
H61	H	-1.422939	-0.351308	-0.390030
H62	H	-1.430903	-0.277410	-0.291841
H63	H	-0.974474	0.519291	-0.000097
C64	C	-1.248031	-0.293603	-0.712057
C65	C	-1.306583	-0.353674	-0.634895
C66	C	-1.364485	-0.413115	-0.693829
H67	H	-1.284000	-0.248422	-0.758224
H68	H	-1.211617	-0.338375	-0.758199
H69	H	-1.342994	-0.308907	-0.588773
H70	H	-1.270640	-0.398875	-0.588726
H71	H	-1.328071	-0.457887	-0.739970
H72	H	-1.400448	-0.367926	-0.739993
H73	H	-1.404214	-0.453888	-0.641484
H74	H	-0.908344	0.344873	-0.000107
H75	H	-0.928675	0.148654	-0.000129
C76	C	-1.212405	-0.257348	-0.287884
C77	C	-1.166819	-0.331726	-0.219971
C78	C	-1.231771	-0.398644	-0.160724
H79	H	-1.253982	-0.218000	-0.241623
H80	H	-1.245800	-0.291652	-0.340032
H81	H	-1.133439	-0.297425	-0.167830
H82	H	-1.125247	-0.371099	-0.266205
H83	H	-1.265166	-0.432948	-0.212871
H84	H	-1.273345	-0.359287	-0.114468
H85	H	-1.200850	-0.449123	-0.114646
H86	H	-1.009244	-0.048699	-0.696269
C87	C	-0.941007	0.021146	-0.535029
C88	C	-0.946952	0.014908	-0.651330
C89	C	-0.881864	0.081552	-0.710739
H90	H	-0.953060	0.090877	-0.515820
H91	H	-0.880761	0.000838	-0.515657
H92	H	-1.007184	0.035222	-0.670693
H93	H	-0.934889	-0.054807	-0.670572
H94	H	-0.821618	0.061244	-0.691367
H95	H	-0.893923	0.151278	-0.691521
H96	H	-0.885883	0.077321	-0.789655
C97	C	-0.956070	0.005501	-0.287872
C98	C	-0.903316	-0.061509	-0.219935
C99	C	-0.845400	-0.002430	-0.160628
H100	H	-0.916177	0.046323	-0.339950
H101	H	-0.992468	0.050201	-0.241627
H102	H	-0.866921	-0.106191	-0.266176
H103	H	-0.943184	-0.102332	-0.167836
H104	H	-0.881798	0.042270	-0.114383
H105	H	-0.805514	0.038389	-0.212714
H106	H	-0.809606	-0.047887	-0.114518
