data_functionalizedCrystal
_audit_creation_method	'MofGen! by Chris Wilmer'
_symmetry_space_group_name_H-M	'P1'
_symmetry_Int_Tables_number	1
_symmetry_cell_setting	triclinic
loop_
_symmetry_equiv_pos_as_xyz
  x,y,z
_cell_length_a	16.625548
_cell_length_b	16.625546
_cell_length_c	19.805399
_cell_angle_alpha	89.970726
_cell_angle_beta	89.984078
_cell_angle_gamma	90.023536
loop_
_atom_site_label
_atom_site_type_symbol
_atom_site_fract_x
_atom_site_fract_y
_atom_site_fract_z
Zn1	Zn	1.232643	-0.320986	-0.382701
Zn2	Zn	1.482643	-0.070986	-0.132701
Zn3	Zn	1.732643	0.179014	0.117299
Zn4	Zn	1.982643	0.429014	0.367299
Zn5	Zn	1.232558	-0.455827	-0.269512
Zn6	Zn	1.482558	-0.205827	-0.019512
Zn7	Zn	1.732558	0.044173	0.230488
Zn8	Zn	1.982558	0.294173	0.480488
Zn9	Zn	1.097816	-0.321014	-0.269527
Zn10	Zn	1.347816	-0.071014	-0.019527
Zn11	Zn	1.597816	0.178986	0.230473
Zn12	Zn	1.847816	0.428986	0.480473
Zn13	Zn	1.097776	-0.455783	-0.382661
Zn14	Zn	1.347776	-0.205783	-0.132661
Zn15	Zn	1.597776	0.044217	0.117339
Zn16	Zn	1.847776	0.294217	0.367339
O17	O	1.165198	-0.388402	-0.326100
O18	O	1.415198	-0.138402	-0.076100
O19	O	1.665198	0.111598	0.173900
O20	O	1.915198	0.361598	0.423900
O21	O	1.345464	-0.338880	-0.367697
O22	O	1.595464	-0.088880	-0.117697
O23	O	1.845464	0.161120	0.132303
O24	O	2.095464	0.411120	0.382303
O25	O	1.214665	-0.437973	-0.174798
O26	O	1.464665	-0.187973	0.075202
O27	O	1.714665	0.062027	0.325202
O28	O	1.964665	0.312027	0.575202
O29	O	1.115754	-0.208178	-0.284563
O30	O	1.365754	0.041822	-0.034563
O31	O	1.615754	0.291822	0.215437
O32	O	1.865754	0.541822	0.465437
O33	O	1.345401	-0.437946	-0.284537
O34	O	1.595401	-0.187946	-0.034537
O35	O	1.845401	0.062054	0.215463
O36	O	2.095401	0.312054	0.465463
O37	O	1.214811	-0.208157	-0.367711
O38	O	1.464811	0.041843	-0.117711
O39	O	1.714811	0.291843	0.132289
O40	O	1.964811	0.541843	0.382289
O41	O	1.115671	-0.338927	-0.174809
O42	O	1.365671	-0.088927	0.075191
O43	O	1.615671	0.161073	0.325191
O44	O	1.865671	0.411073	0.575191
O45	O	0.984978	-0.338885	-0.284524
O46	O	1.234978	-0.088885	-0.034524
O47	O	1.484978	0.161115	0.215476
O48	O	1.734978	0.411115	0.465476
O49	O	1.115685	-0.437872	-0.477383
O50	O	1.365685	-0.187872	-0.227383
O51	O	1.615685	0.062128	0.022617
O52	O	1.865685	0.312128	0.272617
O53	O	0.984949	-0.437899	-0.367643
O54	O	1.234949	-0.187899	-0.117643
O55	O	1.484949	0.062101	0.132357
O56	O	1.734949	0.312101	0.382357
O57	O	1.214772	-0.338837	-0.477412
O58	O	1.464772	-0.088837	-0.227412
O59	O	1.714772	0.161163	0.022588
O60	O	1.964772	0.411163	0.272588
O61	O	1.214626	-0.568653	-0.284498
O62	O	1.464626	-0.318653	-0.034498
O63	O	1.714626	-0.068653	0.215502
O64	O	1.964626	0.181347	0.465502
O65	O	1.115602	-0.568621	-0.367628
O66	O	1.365602	-0.318621	-0.117628
O67	O	1.615602	-0.068621	0.132372
O68	O	1.865602	0.181379	0.382372
C69	C	0.955707	-0.388391	-0.326081
C70	C	1.205707	-0.138391	-0.076081
C71	C	1.455707	0.111609	0.173919
C72	C	1.705707	0.361609	0.423919
C73	C	0.866086	-0.388405	-0.326089
C74	C	1.116086	-0.138405	-0.076089
C75	C	1.366086	0.111595	0.173911
C76	C	1.616086	0.361595	0.423911
C77	C	0.537911	-0.388411	-0.326118
C78	C	0.787911	-0.138411	-0.076118
C79	C	1.037911	0.111589	0.173882
C80	C	1.287911	0.361589	0.423882
C81	C	0.629219	-0.388407	-0.326108
C82	C	0.879219	-0.138407	-0.076108
C83	C	1.129219	0.111593	0.173892
C84	C	1.379219	0.361593	0.423892
C85	C	0.701996	-0.388409	-0.326103
C86	C	0.951996	-0.138409	-0.076103
C87	C	1.201996	0.111591	0.173897
C88	C	1.451996	0.361591	0.423897
C89	C	0.793310	-0.388404	-0.326094
C90	C	1.043310	-0.138404	-0.076094
C91	C	1.293310	0.111596	0.173906
C92	C	1.543310	0.361596	0.423906
C93	C	1.165122	-0.597893	-0.326072
C94	C	1.415122	-0.347893	-0.076072
C95	C	1.665122	-0.097893	0.173928
C96	C	1.915122	0.152107	0.423928
C97	C	1.165163	-0.687514	-0.326082
C98	C	1.415163	-0.437514	-0.076082
C99	C	1.665163	-0.187514	0.173918
C100	C	1.915163	0.062486	0.423918
C101	C	1.165304	-1.015690	-0.326153
C102	C	1.415304	-0.765690	-0.076153
C103	C	1.665304	-0.515690	0.173847
C104	C	1.915304	-0.265690	0.423847
C105	C	1.165262	-0.924382	-0.326135
C106	C	1.415262	-0.674382	-0.076135
C107	C	1.665262	-0.424382	0.173865
C108	C	1.915262	-0.174382	0.423865
C109	C	1.165233	-0.851605	-0.326117
C110	C	1.415233	-0.601605	-0.076117
C111	C	1.665233	-0.351605	0.173883
C112	C	1.915233	-0.101605	0.423883
C113	C	1.165192	-0.760291	-0.326100
C114	C	1.415192	-0.510291	-0.076100
C115	C	1.665192	-0.260291	0.173900
C116	C	1.915192	-0.010291	0.423900
C117	C	1.375507	-0.388415	-0.326120
C118	C	1.625507	-0.138415	-0.076120
C119	C	1.875507	0.111585	0.173880
C120	C	2.125507	0.361585	0.423880
C121	C	1.465128	-0.388420	-0.326128
C122	C	1.715128	-0.138420	-0.076128
C123	C	1.965128	0.111580	0.173872
C124	C	2.215128	0.361580	0.423872
C125	C	1.165234	-0.388347	-0.502643
C126	C	1.415234	-0.138347	-0.252643
C127	C	1.665234	0.111653	-0.002643
C128	C	1.915234	0.361653	0.247357
C129	C	1.165249	-0.388323	-0.577875
C130	C	1.415249	-0.138323	-0.327875
C131	C	1.665249	0.111677	-0.077875
C132	C	1.915249	0.361677	0.172125
C133	C	1.165297	-0.178094	-0.326144
C134	C	1.415297	0.071906	-0.076144
C135	C	1.665297	0.321906	0.173856
C136	C	1.915297	0.571906	0.423856
C137	C	1.165339	-0.088472	-0.326162
C138	C	1.415339	0.161528	-0.076162
C139	C	1.665339	0.411528	0.173838
C140	C	1.915339	0.661528	0.423838
C141	C	1.113717	-0.336745	-0.613225
C142	C	1.363717	-0.086745	-0.363225
C143	C	1.613717	0.163255	-0.113225
C144	C	1.863717	0.413255	0.136775
C145	C	1.113728	-0.336729	-0.683913
C146	C	1.363728	-0.086729	-0.433913
C147	C	1.613728	0.163271	-0.183913
C148	C	1.863728	0.413271	0.066087
C149	C	1.165276	-0.388288	-0.719251
C150	C	1.415276	-0.138288	-0.469251
C151	C	1.665276	0.111712	-0.219251
C152	C	1.915276	0.361712	0.030749
C153	C	1.216809	-0.439872	-0.683896
C154	C	1.466809	-0.189872	-0.433896
C155	C	1.716809	0.060128	-0.183896
C156	C	1.966809	0.310128	0.066104
C157	C	1.216794	-0.439891	-0.613209
C158	C	1.466794	-0.189891	-0.363209
C159	C	1.716794	0.060109	-0.113209
C160	C	1.966794	0.310109	0.136791
C161	C	1.216873	-0.439796	-0.968970
C162	C	1.466873	-0.189796	-0.718970
C163	C	1.716873	0.060204	-0.468970
C164	C	1.966873	0.310204	-0.218970
C165	C	1.216887	-0.439771	-1.039662
C166	C	1.466887	-0.189771	-0.789662
C167	C	1.716887	0.060229	-0.539662
C168	C	1.966887	0.310229	-0.289662
C169	C	1.113808	-0.336634	-1.039674
C170	C	1.363808	-0.086634	-0.789674
C171	C	1.613808	0.163366	-0.539674
C172	C	1.863808	0.413366	-0.289674
C173	C	1.113792	-0.336653	-0.968987
C174	C	1.363792	-0.086653	-0.718987
C175	C	1.613792	0.163347	-0.468987
C176	C	1.863792	0.413347	-0.218987
C177	C	1.165323	-0.388240	-0.933638
C178	C	1.415323	-0.138240	-0.683638
C179	C	1.665323	0.111760	-0.433638
C180	C	1.915323	0.361760	-0.183638
C181	C	1.165309	-0.388257	-0.856990
C182	C	1.415309	-0.138257	-0.606990
C183	C	1.665309	0.111743	-0.356990
C184	C	1.915309	0.361743	-0.106990
C185	C	1.165294	-0.388267	-0.795898
C186	C	1.415294	-0.138267	-0.545898
C187	C	1.665294	0.111733	-0.295898
C188	C	1.915294	0.361733	-0.045898
C189	C	1.165209	-0.388400	-0.150244
C190	C	1.415209	-0.138400	0.099756
C191	C	1.665209	0.111600	0.349756
C192	C	1.915209	0.361600	0.599756
C193	C	1.165351	-0.388197	-0.075013
C194	C	1.415351	-0.138197	0.174987
C195	C	1.665351	0.111803	0.424987
C196	C	1.915351	0.361803	0.674987
H197	H	1.071746	-0.294755	-0.584458
H198	H	1.321746	-0.044755	-0.334458
H199	H	1.571746	0.205245	-0.084458
H200	H	1.821746	0.455245	0.165542
Br201	Br	1.286760	-0.509853	-0.731854
Br202	Br	1.536760	-0.259853	-0.481854
Br203	Br	1.786760	-0.009853	-0.231854
Br204	Br	2.036760	0.240147	0.018146
H205	H	1.071820	-0.294666	-0.940218
H206	H	1.321820	-0.044666	-0.690218
H207	H	1.571820	0.205334	-0.440218
H208	H	1.821820	0.455334	-0.190218
H209	H	1.258762	-0.481885	-0.584428
H210	H	1.508762	-0.231885	-0.334428
H211	H	1.758762	0.018115	-0.084428
H212	H	2.008762	0.268115	0.165572
H213	H	1.071763	-0.294732	-0.712692
H214	H	1.321763	-0.044732	-0.462692
H215	H	1.571763	0.205268	-0.212692
H216	H	1.821763	0.455268	0.037308
H217	H	1.071847	-0.294632	-1.068463
H218	H	1.321847	-0.044632	-0.818463
H219	H	1.571847	0.205368	-0.568463
H220	H	1.821847	0.455368	-0.318463
H221	H	1.258865	-0.481760	-1.068432
H222	H	1.508865	-0.231760	-0.818432
H223	H	1.758865	0.018240	-0.568432
H224	H	2.008865	0.268240	-0.318432
H225	H	1.258824	-0.481810	-0.940198
H226	H	1.508824	-0.231810	-0.690198
H227	H	1.758824	0.018190	-0.440198
H228	H	2.008824	0.268190	-0.190198
