data_functionalizedCrystal
_audit_creation_method	'MofGen! by Chris Wilmer'
_symmetry_space_group_name_H-M	'P1'
_symmetry_Int_Tables_number	1
_symmetry_cell_setting	triclinic
loop_
_symmetry_equiv_pos_as_xyz
  x,y,z
_cell_length_a	10.654541
_cell_length_b	19.188930
_cell_length_c	9.730217
_cell_angle_alpha	89.991643
_cell_angle_beta	89.999932
_cell_angle_gamma	83.814355
loop_
_atom_site_label
_atom_site_type_symbol
_atom_site_fract_x
_atom_site_fract_y
_atom_site_fract_z
O1	O	1.665764	0.098053	-0.114265
O2	O	1.300087	0.107397	-0.114279
O3	O	1.493478	0.001138	-0.114245
O4	O	1.472373	0.204312	-0.114299
O5	O	1.493472	0.001137	0.114335
O6	O	1.300081	0.107396	0.114301
O7	O	1.665758	0.098052	0.114315
Zn8	Zn	1.482918	0.102724	0.150600
Zn9	Zn	1.482926	0.102725	-0.150564
O10	O	1.472367	0.204311	0.114281
C11	C	1.253300	0.106711	0.000010
C12	C	1.113900	0.104659	0.000006
C13	C	1.083241	0.231721	-0.000045
C14	C	1.002423	0.294284	-0.000076
C15	C	0.871446	0.292352	-0.000077
C16	C	0.821285	0.227849	-0.000043
C17	C	0.902103	0.165286	-0.000012
C18	C	1.033082	0.167225	-0.000015
C19	C	0.932762	0.038226	0.000049
C20	C	1.063740	0.040156	0.000040
C21	C	0.882602	-0.026277	0.000083
C22	C	0.963421	-0.088842	0.000104
C23	C	1.094405	-0.086908	0.000104
C24	C	1.144558	-0.022408	0.000071
C25	C	1.492792	-0.024878	0.000049
C26	C	1.490740	-0.102396	0.000061
C27	C	1.604215	-0.146578	0.000072
C28	C	1.602288	-0.219414	0.000050
C29	C	1.486878	-0.248065	0.000044
C30	C	1.373388	-0.203873	0.000026
C31	C	1.375319	-0.131038	0.000034
N32	N	1.398660	-0.356647	0.077831
N33	N	1.396833	-0.425838	0.077826
C34	C	1.481054	-0.467512	0.000016
N35	N	1.567190	-0.437383	-0.077771
N36	N	1.569020	-0.368186	-0.077760
C37	C	1.484772	-0.327041	0.000034
C38	C	1.592448	-0.590672	0.000001
C39	C	1.590515	-0.663510	-0.000029
C40	C	1.361612	-0.647967	-0.000039
C41	C	1.363548	-0.575131	-0.000023
C42	C	1.478969	-0.546488	0.000004
C43	C	1.712544	0.098738	0.000023
C44	C	1.851944	0.100790	0.000018
C45	C	1.473053	0.230327	-0.000016
C46	C	1.475105	0.307845	-0.000037
N47	N	1.482922	0.102723	0.356137
N48	N	1.482932	0.102721	-0.356101
C49	C	1.654239	0.008658	0.356157
C50	C	1.739906	-0.038372	0.428108
C51	C	1.739919	-0.038373	0.571987
C52	C	1.654253	0.008661	0.643920
C53	C	1.568586	0.055691	0.571970
C54	C	1.568585	0.055688	0.428087
C55	C	1.397265	0.149751	0.571949
C56	C	1.397257	0.149756	0.428069
C57	C	1.311600	0.196785	0.643882
C58	C	1.225937	0.243819	0.571932
C59	C	1.225928	0.243818	0.428043
C60	C	1.311590	0.196786	0.356119
H61	H	1.160201	-0.137855	0.000134
N62	N	1.712918	-0.711163	-0.000014
H63	H	1.717206	-0.741739	0.084715
H64	H	1.717160	-0.741673	-0.084810
N65	N	1.311585	0.196774	0.200936
H66	H	1.226327	0.186167	0.166293
H67	H	1.329627	0.244312	0.166353
N68	N	1.248916	-0.234777	0.000030
H69	H	1.199215	-0.218711	0.084763
H70	H	1.199318	-0.218692	-0.084763
H71	H	1.698200	-0.123262	0.000089
H72	H	0.805642	0.343297	-0.000093
H73	H	1.809672	-0.076671	0.630570
H74	H	1.282910	-0.095064	0.000026
N75	N	1.285825	-0.020321	0.000064
H76	H	1.305333	0.030033	0.000039
H77	H	1.323298	-0.044826	0.084817
H78	H	0.922569	-0.141356	0.000131
N79	N	1.133534	0.294545	0.350437
H80	H	1.078088	0.267574	0.290753
H81	H	1.079357	0.324326	0.417926
H82	H	1.189888	0.233300	-0.000075
H83	H	1.156188	0.282108	0.630508
N84	N	1.724683	-0.267081	0.000058
H85	H	1.798093	-0.237883	0.000074
H86	H	1.728853	-0.297645	0.084795
H87	H	1.043278	0.346802	-0.000101
N88	N	0.680016	0.225774	-0.000031
H89	H	0.654473	0.200364	-0.084752
H90	H	0.654583	0.200385	0.084774
H91	H	0.775953	-0.027846	0.000090
H92	H	1.267643	-0.671293	-0.000050
N93	N	1.716929	-0.559772	0.000024
H94	H	1.788526	-0.598817	0.000016
H95	H	1.722717	-0.529879	-0.084705
N96	N	1.241156	-0.527472	-0.000026
H97	H	1.167749	-0.556672	-0.000032
H98	H	1.236969	-0.496922	0.084715
H99	H	1.654248	0.008659	0.239003
N100	N	1.832270	-0.089116	0.350526
H101	H	1.819261	-0.081986	0.248461
H102	H	1.921317	-0.080600	0.375651
H103	H	1.654259	0.008652	0.761075
H104	H	1.311608	0.196779	0.761037
