data_functionalizedCrystal
_audit_creation_method	'MofGen! by Chris Wilmer'
_symmetry_space_group_name_H-M	'P1'
_symmetry_Int_Tables_number	1
_symmetry_cell_setting	triclinic
loop_
_symmetry_equiv_pos_as_xyz
  x,y,z
_cell_length_a	11.792254
_cell_length_b	23.532357
_cell_length_c	10.268362
_cell_angle_alpha	89.989189
_cell_angle_beta	89.995475
_cell_angle_gamma	83.513444
loop_
_atom_site_label
_atom_site_type_symbol
_atom_site_fract_x
_atom_site_fract_y
_atom_site_fract_z
O1	O	1.505034	0.078091	-0.108316
O2	O	2.005034	0.578091	0.391684
O3	O	1.174503	0.086128	-0.108321
O4	O	1.674503	0.586128	0.391679
O5	O	1.349765	-0.000765	-0.108292
O6	O	1.849765	0.499235	0.391708
O7	O	1.329772	0.164984	-0.108346
O8	O	1.829772	0.664984	0.391654
O9	O	1.349750	-0.000768	0.108309
O10	O	1.849750	0.499232	0.608309
O11	O	1.174488	0.086124	0.108280
O12	O	1.674488	0.586124	0.608280
O13	O	1.505019	0.078087	0.108284
O14	O	2.005019	0.578087	0.608284
Cu15	Cu	1.339752	0.082106	0.128059
Cu16	Cu	1.839752	0.582106	0.628059
Cu17	Cu	1.339770	0.082110	-0.128096
Cu18	Cu	1.839770	0.582110	0.371904
O19	O	1.329757	0.164980	0.108255
O20	O	1.829757	0.664980	0.608255
C21	C	1.132217	0.085620	-0.000021
C22	C	1.632217	0.585620	0.499979
C23	C	1.006240	0.084105	-0.000021
C24	C	1.506240	0.584105	0.499979
C25	C	0.903933	0.082873	-0.000027
C26	C	1.403933	0.582873	0.499973
C27	C	0.775583	0.081334	-0.000027
C28	C	1.275583	0.581334	0.499973
C29	C	1.349258	-0.021986	0.000013
C30	C	1.849258	0.478014	0.500013
C31	C	1.347754	-0.085214	0.000025
C32	C	1.847754	0.414786	0.500025
C33	C	1.338323	-0.477279	-0.118115
C34	C	1.838323	0.022721	0.381885
C35	C	1.336894	-0.536687	-0.118122
C36	C	1.836894	-0.036687	0.381878
O37	O	1.336123	-0.567406	-0.218535
O38	O	1.836123	-0.067406	0.281465
N39	N	1.336177	-0.566404	-0.000055
N40	N	1.836177	-0.066404	0.499945
C41	C	1.336878	-0.536710	0.118028
C42	C	1.836878	-0.036710	0.618028
O43	O	1.336135	-0.567442	0.218453
O44	O	1.836135	-0.067442	0.718453
C45	C	1.338299	-0.477303	0.118034
C46	C	1.838299	0.022697	0.618034
C47	C	1.339027	-0.447589	-0.000041
C48	C	1.839027	0.052411	0.499959
C49	C	1.339050	-0.447565	-0.236180
C50	C	1.839050	0.052435	0.263820
C51	C	1.340482	-0.388162	-0.236172
C52	C	1.840482	0.111838	0.263828
C53	C	1.341186	-0.358472	-0.118099
C54	C	1.841186	0.141528	0.381901
C55	C	1.340459	-0.388185	-0.000033
C56	C	1.840459	0.111815	0.499967
C57	C	1.338991	-0.447609	0.236115
C58	C	1.838991	0.052391	0.736115
C59	C	1.340412	-0.388197	0.236111
C60	C	1.840412	0.111803	0.736111
C61	C	1.341140	-0.358484	0.118036
C62	C	1.841140	0.141516	0.618036
C63	C	1.342594	-0.299092	0.118048
C64	C	1.842594	0.200908	0.618048
N65	N	1.343311	-0.269374	-0.000019
N66	N	1.843311	0.230626	0.499981
C67	C	1.342607	-0.299064	-0.118093
C68	C	1.842607	0.200936	0.381907
C69	C	1.333891	-0.661469	0.118006
C70	C	1.833891	-0.161469	0.618006
C71	C	1.332478	-0.720876	0.118001
C72	C	1.832478	-0.220876	0.618001
C73	C	1.332492	-0.720849	-0.118149
C74	C	1.832492	-0.220849	0.381851
C75	C	1.333914	-0.661442	-0.118143
C76	C	1.833914	-0.161442	0.381857
C77	C	1.334608	-0.631752	-0.000061
C78	C	1.834608	-0.131752	0.499939
C79	C	1.345614	-0.174312	-0.118067
C80	C	1.845614	0.325688	0.381933
C81	C	1.347050	-0.114904	-0.118049
C82	C	1.847050	0.385096	0.381951
C83	C	1.347030	-0.114936	0.118101
C84	C	1.847030	0.385064	0.618101
C85	C	1.345600	-0.174339	0.118083
C86	C	1.845600	0.325661	0.618083
C87	C	1.344888	-0.204026	-0.000011
C88	C	1.844888	0.295974	0.499989
O89	O	1.343361	-0.268334	0.218410
O90	O	1.843361	0.231666	0.718410
O91	O	1.343334	-0.268324	-0.218501
O92	O	1.843334	0.231676	0.281499
C93	C	1.547305	0.078596	-0.000019
C94	C	2.047305	0.578596	0.499981
C95	C	1.673282	0.080111	-0.000027
C96	C	2.173282	0.580111	0.499973
C97	C	1.330264	0.186202	-0.000052
C98	C	1.830264	0.686202	0.499948
C99	C	1.331768	0.249429	-0.000073
C100	C	1.831768	0.749429	0.499927
N101	N	1.339748	0.082102	0.308225
N102	N	1.839748	0.582102	0.808225
N103	N	1.339783	0.082109	-0.308262
N104	N	1.839783	0.582109	0.191738
C105	C	1.339764	0.082109	0.573896
C106	C	1.839764	0.582109	1.073896
C107	C	1.339751	0.082107	0.426058
C108	C	1.839751	0.582107	0.926058
H109	H	1.347646	-0.090714	-0.214204
H110	H	1.847646	0.409286	0.285796
O111	O	1.347503	-0.086046	0.232752
O112	O	1.847503	0.413954	0.732752
C113	C	1.250032	-0.045526	0.239762
C114	C	1.750032	0.454474	0.739762
H115	H	1.180910	-0.059135	0.172752
H116	H	1.680910	0.440865	0.672752
H117	H	1.217026	-0.042785	0.344182
H118	H	1.717026	0.457215	0.844182
H119	H	1.273339	-0.001893	0.208021
H120	H	1.773339	0.498107	0.708021
H121	H	1.340960	-0.364026	0.332270
H122	H	1.840960	0.135974	0.832270
O123	O	1.344956	-0.203058	-0.232899
O124	O	1.844956	0.296942	0.267101
C125	C	1.345864	-0.164081	-0.337091
C126	C	1.845864	0.335919	0.162909
H127	H	1.382835	-0.123992	-0.302462
H128	H	1.882835	0.376008	0.197538
H129	H	1.400544	-0.184681	-0.419692
H130	H	1.900544	0.315319	0.080308
H131	H	1.254952	-0.152052	-0.373372
H132	H	1.754952	0.347948	0.126628
O133	O	1.344853	-0.203116	0.232895
O134	O	1.844853	0.296884	0.732895
C135	C	1.345818	-0.164171	0.337109
C136	C	1.845818	0.335829	0.837109
H137	H	1.310914	-0.119571	0.302495
H138	H	1.810914	0.380429	0.802495
H139	H	1.290287	-0.177892	0.419686
H140	H	1.790287	0.322108	0.919686
H141	H	1.437031	-0.163559	0.373419
H142	H	1.937031	0.336441	0.873419
O143	O	1.341266	-0.359253	-0.350801
O144	O	1.841266	0.140747	0.149199
C145	C	1.440317	-0.330980	-0.357951
C146	C	1.940317	0.169020	0.142049
H147	H	1.508706	-0.353187	-0.291090
H148	H	2.008706	0.146813	0.208910
H149	H	1.473206	-0.332306	-0.462432
H150	H	1.973206	0.167694	0.037568
H151	H	1.419134	-0.284586	-0.326116
H152	H	1.919134	0.215414	0.173884
H153	H	1.338473	-0.471732	-0.332335
H154	H	1.838473	0.028268	0.167665
H155	H	1.334505	-0.637253	-0.214290
H156	H	1.834505	-0.137253	0.285710
O157	O	1.331970	-0.749778	0.232661
O158	O	1.831970	-0.249778	0.732661
C159	C	1.429424	-0.790307	0.239732
C160	C	1.929424	-0.290307	0.739732
H161	H	1.498583	-0.776702	0.172746
H162	H	1.998583	-0.276702	0.672746
H163	H	1.462381	-0.793057	0.344168
H164	H	1.962381	-0.293057	0.844168
H165	H	1.406112	-0.833935	0.208001
H166	H	1.906112	-0.333935	0.708001
O167	O	1.331853	-0.749610	-0.232967
O168	O	1.831853	-0.249610	0.267033
C169	C	1.332764	-0.710648	-0.337188
C170	C	1.832764	-0.210648	0.162812
H171	H	1.369716	-0.670550	-0.302583
H172	H	1.869716	-0.170550	0.197417
H173	H	1.387461	-0.731256	-0.419765
H174	H	1.887461	-0.231256	0.080235
H175	H	1.241855	-0.698632	-0.373491
H176	H	1.741855	-0.198632	0.126509
H177	H	1.334460	-0.637300	0.214168
H178	H	1.834460	-0.137300	0.714168
H179	H	1.338400	-0.471792	0.332265
H180	H	1.838400	0.028208	0.832265
