data_functionalizedCrystal
_audit_creation_method	'MofGen! by Chris Wilmer'
_symmetry_space_group_name_H-M	'P1'
_symmetry_Int_Tables_number	1
_symmetry_cell_setting	triclinic
loop_
_symmetry_equiv_pos_as_xyz
  x,y,z
_cell_length_a	17.038272
_cell_length_b	16.098538
_cell_length_c	14.044220
_cell_angle_alpha	87.028703
_cell_angle_beta	92.150217
_cell_angle_gamma	92.930266
loop_
_atom_site_label
_atom_site_type_symbol
_atom_site_fract_x
_atom_site_fract_y
_atom_site_fract_z
O1	O	1.055067	0.069155	0.203030
O2	O	0.827207	0.069179	0.199741
O3	O	0.937717	0.069159	0.063125
O4	O	0.944558	0.069175	0.339645
O5	O	0.931259	-0.069353	0.071072
O6	O	0.820750	-0.069333	0.207688
O7	O	1.048609	-0.069357	0.210976
Zn8	Zn	0.933654	-0.091337	0.210594
Zn9	Zn	0.942162	0.091158	0.200124
O10	O	0.938100	-0.069337	0.347592
C11	C	0.794641	-0.000074	0.200725
C12	C	0.707225	-0.000065	0.191805
C13	C	0.662840	-0.000061	0.273693
C14	C	0.580702	-0.000073	0.265308
C15	C	0.542951	-0.000083	0.175033
C16	C	0.587342	-0.000089	0.093139
C17	C	0.669478	-0.000083	0.101526
C18	C	0.295119	-0.000107	0.145405
C19	C	0.212977	-0.000110	0.137024
C20	C	0.206342	-0.000095	0.309194
C21	C	0.288481	-0.000084	0.317572
C22	C	0.332864	-0.000095	0.235678
C23	C	0.458993	-0.000092	0.166460
C24	C	0.416820	-0.000091	0.244253
N25	N	0.927853	-0.215885	0.217740
C26	C	0.974778	-0.259478	0.159778
C27	C	0.970728	-0.346667	0.164786
C28	C	0.919756	-0.390260	0.227762
C29	C	0.872826	-0.346660	0.285726
C30	C	0.876873	-0.259473	0.280712
C31	C	0.905086	-0.653507	0.245921
C32	C	0.901044	-0.740700	0.250933
C33	C	0.998945	-0.740700	0.129991
C34	C	1.002991	-0.653512	0.124987
C35	C	0.956058	-0.609920	0.182947
C36	C	0.915617	-0.479380	0.232885
C37	C	0.960193	-0.520801	0.177819
C38	C	1.081175	-0.000103	0.209993
C39	C	1.168592	-0.000106	0.218912
C40	C	0.931493	-0.000097	0.031543
C41	C	0.922562	-0.000097	-0.074403
N42	N	0.947969	0.215707	0.192971
C43	C	0.906234	-0.000083	-0.268382
C44	C	0.969579	-0.000088	-0.320907
C45	C	0.960494	-0.000080	-0.428843
C46	C	0.915318	-0.000091	-0.160435
C47	C	0.944323	-0.000079	0.379175
C48	C	0.953255	-0.000074	0.485120
H49	H	0.556598	-0.000109	0.019636
F50	F	0.703009	-0.000045	0.369777
F51	F	0.533467	-0.000065	0.352465
H52	H	1.008937	-0.382160	0.117589
H53	H	0.428246	-0.000124	0.092959
H54	H	0.845185	-0.000075	-0.304475
H55	H	0.319212	-0.000066	0.391083
H56	H	0.705616	-0.000086	0.034844
H57	H	0.170196	-0.000088	0.375867
H58	H	0.331247	-0.000116	0.078720
F59	F	0.172801	-0.000135	0.040938
H60	H	0.447560	-0.000088	0.317755
F61	F	1.029033	-0.213092	0.092755
F62	F	1.057241	-0.607118	0.057963
H63	H	0.859535	-0.776189	0.302219
F64	F	1.048890	-0.787099	0.068308
F65	F	1.049382	-0.000103	-0.273731
F66	F	0.855139	-0.607120	0.307609
H67	H	0.838661	-0.223980	0.327909
F68	F	0.818574	-0.393056	0.352745
H69	H	1.001691	-0.485305	0.126541
H70	H	0.874116	-0.514881	0.284163
