data_functionalizedCrystal
_audit_creation_method	'MofGen! by Chris Wilmer'
_symmetry_space_group_name_H-M	'P1'
_symmetry_Int_Tables_number	1
_symmetry_cell_setting	triclinic
loop_
_symmetry_equiv_pos_as_xyz
  x,y,z
_cell_length_a	18.215407
_cell_length_b	18.215404
_cell_length_c	18.215399
_cell_angle_alpha	89.972485
_cell_angle_beta	89.983140
_cell_angle_gamma	90.019956
loop_
_atom_site_label
_atom_site_type_symbol
_atom_site_fract_x
_atom_site_fract_y
_atom_site_fract_z
Zn1	Zn	-1.125077	0.293068	0.416060
Zn2	Zn	-1.124988	0.416139	0.292994
Zn3	Zn	-1.002010	0.293083	0.293013
Zn4	Zn	-1.001978	0.416089	0.416026
O5	O	-1.063513	0.354595	0.354523
O6	O	-1.228050	0.309408	0.399741
O7	O	-1.108651	0.399843	0.190013
O8	O	-1.018386	0.190096	0.309358
O9	O	-1.227984	0.399828	0.309325
O10	O	-1.108803	0.190085	0.399760
O11	O	-1.018299	0.309434	0.190027
O12	O	-0.899021	0.309385	0.309325
O13	O	-1.018332	0.399743	0.519014
O14	O	-0.898998	0.399757	0.399702
O15	O	-1.108772	0.309360	0.519039
O16	O	-1.108620	0.519117	0.309292
O17	O	-1.018245	0.519080	0.399683
C18	C	-0.872307	0.354568	0.354512
C19	C	-0.790508	0.354574	0.354525
C20	C	-0.525458	0.401716	0.401518
C21	C	-0.602316	0.401712	0.401514
C22	C	-0.602310	0.307466	0.307542
C23	C	-0.525453	0.307475	0.307542
C24	C	-0.487029	0.354599	0.354535
C25	C	-0.640745	0.354586	0.354531
C26	C	-0.724078	0.354580	0.354526
C27	C	-0.403690	0.354605	0.354538
C28	C	-1.063439	0.545801	0.354498
C29	C	-1.063475	0.627600	0.354512
C30	C	-1.063558	0.354544	0.546476
C31	C	-1.063577	0.354522	0.628275
C32	C	-0.255466	0.354616	0.354535
C33	C	-0.337265	0.354611	0.354541
C34	C	-1.110647	0.815788	0.307542
C35	C	-1.110681	0.892647	0.307564
C36	C	-1.016492	0.892649	0.401610
C37	C	-1.016462	0.815791	0.401592
C38	C	-1.063539	0.777363	0.354553
C39	C	-1.063603	0.931079	0.354594
C40	C	-1.063640	1.014413	0.354618
C41	C	-1.063503	0.694024	0.354530
C42	C	-1.063612	1.162642	0.354578
C43	C	-1.063667	1.080843	0.354635
C44	C	-1.063511	0.354592	0.163317
C45	C	-1.063635	0.354406	0.081519
C46	C	-1.110687	0.307416	0.816483
C47	C	-1.110695	0.307394	0.893342
C48	C	-1.016520	0.401515	0.893305
C49	C	-1.016508	0.401532	0.816448
C50	C	-1.063596	0.354484	0.778039
C51	C	-1.063616	0.354445	0.931755
C52	C	-1.063625	0.354422	1.015089
C53	C	-1.063586	0.354505	0.694700
H54	H	-0.494163	0.269105	0.269279
H55	H	-1.149043	0.923930	0.269284
C56	C	-0.644584	0.255622	0.255865
N57	N	-0.676424	0.216567	0.216945
H58	H	-0.978156	0.439860	0.785145
H59	H	-1.148980	0.784502	0.269242
H60	H	-1.149026	0.269104	0.785213
C61	C	-0.964725	0.453264	0.935562
N62	N	-0.925712	0.492242	0.967389
H63	H	-0.978164	0.923946	0.439906
H64	H	-0.978101	0.784503	0.439877
H65	H	-0.494175	0.440088	0.439782
C66	C	-1.162501	0.255618	0.935628
N67	N	-1.201523	0.216617	0.967477
H68	H	-0.633602	0.440080	0.439772
