data_functionalizedCrystal
_audit_creation_method	'MofGen! by Chris Wilmer'
_symmetry_space_group_name_H-M	'P1'
_symmetry_Int_Tables_number	1
_symmetry_cell_setting	triclinic
loop_
_symmetry_equiv_pos_as_xyz
  x,y,z
_cell_length_a	27.732048
_cell_length_b	17.699083
_cell_length_c	16.176319
_cell_angle_alpha	89.993297
_cell_angle_beta	90.011761
_cell_angle_gamma	97.037331
loop_
_atom_site_label
_atom_site_type_symbol
_atom_site_fract_x
_atom_site_fract_y
_atom_site_fract_z
O1	O	0.061125	-1.003540	0.068742
O2	O	0.069078	-0.783092	0.068747
O3	O	-0.005270	-0.900163	0.068729
O4	O	0.135474	-0.886469	0.068760
O5	O	-0.005275	-0.900147	-0.068765
O6	O	0.069074	-0.783076	-0.068746
O7	O	0.061120	-1.003524	-0.068752
Cu8	Cu	0.065097	-0.893299	-0.081303
Cu9	Cu	0.065102	-0.893317	0.081299
O10	O	0.135469	-0.886453	-0.068733
C11	C	0.068791	-0.754889	0.000001
C12	C	0.067936	-0.670879	0.000003
C13	C	-0.023281	-0.899867	-0.000020
C14	C	-0.076939	-0.899002	-0.000027
C15	C	0.067531	-0.631406	-0.074945
C16	C	0.066720	-0.552471	-0.074946
C17	C	0.066318	-0.513009	0.000002
C18	C	0.066722	-0.552487	0.074956
C19	C	0.067529	-0.631422	0.074956
C20	C	0.063465	-0.234153	0.074958
C21	C	0.062659	-0.155213	0.074952
C22	C	0.062656	-0.155203	-0.074944
C23	C	0.063463	-0.234137	-0.074944
C24	C	0.063865	-0.273609	0.000009
C25	C	0.064743	-0.359200	0.000009
C26	C	0.065443	-0.427419	0.000003
C27	C	-0.415525	-0.962734	0.000014
C28	C	-0.617196	-0.959523	0.000025
O29	O	-0.648242	-1.017801	0.000060
N30	N	-0.636569	-0.890104	0.000026
C31	C	-0.605521	-0.821484	0.000030
O32	O	-0.626627	-0.762366	0.000040
C33	C	-0.403851	-0.824696	0.000024
C34	C	-0.384481	-0.894119	0.000015
C35	C	-0.396154	-1.032151	0.000005
C36	C	-0.345739	-1.032953	-0.000002
C37	C	-0.314695	-0.964338	-0.000001
C38	C	-0.334066	-0.894921	0.000007
C39	C	-0.372804	-0.756077	0.000034
C40	C	-0.322384	-0.756886	0.000034
C41	C	-0.303013	-0.826309	0.000025
C42	C	-0.252607	-0.827108	0.000001
N43	N	-0.233234	-0.896526	0.000000
C44	C	-0.264278	-0.965141	-0.000001
C45	C	-0.711401	-0.819803	0.000031
C46	C	-0.761819	-0.818999	0.000031
C47	C	-0.773490	-0.957038	0.000028
C48	C	-0.723072	-0.957841	0.000022
C49	C	-0.692028	-0.889221	0.000030
C50	C	-0.158403	-0.966821	-0.000017
C51	C	-0.107983	-0.967617	-0.000028
C52	C	-0.096316	-0.829578	-0.000021
C53	C	-0.146731	-0.828782	-0.000014
C54	C	-0.177774	-0.897409	-0.000010
O55	O	-0.221532	-0.768861	-0.000024
O56	O	-0.243163	-1.024251	0.000008
C57	C	-0.465940	-0.961932	0.000021
C58	C	-0.485310	-0.892515	0.000030
C59	C	-0.454266	-0.823900	0.000031
C60	C	-0.535728	-0.891712	0.000030
C61	C	-0.566772	-0.960327	0.000028
C62	C	-0.547398	-1.029745	0.000027
C63	C	-0.496984	-1.030547	0.000020
C64	C	-0.473640	-0.754482	0.000032
C65	C	-0.524055	-0.753685	0.000038
C66	C	-0.555099	-0.822300	0.000037
C67	C	0.153479	-0.886749	0.000018
C68	C	0.207137	-0.887614	0.000030
N69	N	0.065092	-0.893291	-0.195668
C70	C	0.061405	-0.031727	-0.000003
C71	C	0.062251	-0.115740	0.000003
C72	C	0.032184	-0.945145	-0.238941
C73	C	0.032184	-0.945149	-0.325488
C74	C	0.065094	-0.893302	-0.368761
C75	C	0.098004	-0.841442	-0.325482
C76	C	0.098002	-0.841435	-0.238937
C77	C	0.098013	-0.841467	-0.674510
C78	C	0.098013	-0.841480	-0.761062
C79	C	0.032195	-0.945182	-0.761062
C80	C	0.032193	-0.945175	-0.674516
C81	C	0.065100	-0.893313	-0.631245
C82	C	0.065100	-0.893308	-0.537401
C83	C	0.065097	-0.893309	-0.462603
N84	N	0.065103	-0.893331	0.195664
H85	H	0.067862	-0.663530	-0.135977
O86	O	0.066288	-0.509893	-0.155783
H87	H	0.066711	-0.550593	-0.207898
H88	H	-0.798775	-1.012907	0.000027
H89	H	0.063793	-0.266263	-0.135975
O90	O	-0.003305	-1.001116	-0.807731
H91	H	0.002219	-0.992407	-0.875181
O92	O	-0.003307	-1.001088	-0.627840
H93	H	0.002797	-1.060019	-0.644432
H94	H	-0.686129	-0.763921	0.000038
H95	H	0.005387	-0.987369	-0.203713
H96	H	-0.777585	-0.762468	0.000025
H97	H	-0.092215	-1.024151	-0.000038
O98	O	0.133511	-0.785540	-0.627849
H99	H	0.113195	-0.748984	-0.588441
O100	O	-0.288904	-0.682869	0.000034
H101	H	-0.265647	-0.679932	0.056074
H102	H	-0.162503	-0.772252	-0.000030
H103	H	0.066391	-0.520352	0.135981
O104	O	0.067970	-0.674001	0.155793
H105	H	0.067559	-0.633300	0.207910
O106	O	0.133510	-0.785557	-0.807743
H107	H	0.156979	-0.817152	-0.847145
O108	O	0.062446	-0.112583	-0.155792
H109	H	0.061895	-0.051049	-0.143205
H110	H	0.124798	-0.799223	-0.360720
O111	O	-0.702183	-1.032719	0.000029
H112	H	-0.714669	-1.065658	-0.056008
O113	O	-0.003301	-1.001091	-0.372164
H114	H	-0.026179	-1.037153	-0.327533
O115	O	0.062209	-0.112649	0.155793
H116	H	0.062614	-0.153359	0.207914
H117	H	0.124798	-0.799209	-0.203705
H118	H	-0.388566	-0.699545	0.000047
O119	O	-0.191881	-1.040838	-0.000025
H120	H	-0.169934	-1.089236	-0.000042
H121	H	-0.329973	-1.089484	-0.000007
O122	O	-0.429634	-1.106163	-0.000008
H123	H	-0.407686	-1.154560	-0.000022
H124	H	-0.071031	-0.773714	-0.000023
O125	O	0.063903	-0.276722	0.155796
H126	H	0.063494	-0.236017	0.207910
H127	H	-0.481217	-1.087078	0.000013
H128	H	-0.572684	-1.085614	0.000023
H129	H	-0.539821	-0.697149	0.000039
H130	H	-0.448368	-0.698606	0.000035
