data_functionalizedCrystal
_audit_creation_method	'MofGen! by Chris Wilmer'
_symmetry_space_group_name_H-M	'P1'
_symmetry_Int_Tables_number	1
_symmetry_cell_setting	triclinic
loop_
_symmetry_equiv_pos_as_xyz
  x,y,z
_cell_length_a	19.288867
_cell_length_b	11.792254
_cell_length_c	18.366186
_cell_angle_alpha	89.993617
_cell_angle_beta	89.992441
_cell_angle_gamma	83.667833
loop_
_atom_site_label
_atom_site_type_symbol
_atom_site_fract_x
_atom_site_fract_y
_atom_site_fract_z
O1	O	0.922160	0.141592	-0.060524
O2	O	0.720009	0.160689	-0.060532
O3	O	0.825985	-0.014103	-0.060523
O4	O	0.816183	0.316384	-0.060533
O5	O	0.825967	-0.014112	0.060577
O6	O	0.719990	0.160680	0.060568
O7	O	0.922142	0.141584	0.060575
Zn8	Zn	0.821063	0.151131	0.079799
Zn9	Zn	0.821087	0.151142	-0.079755
O10	O	0.816165	0.316376	0.060566
C11	C	0.694120	0.160070	0.000017
C12	C	0.617006	0.158224	0.000015
C13	C	0.061374	0.144934	-0.065988
C14	C	0.133832	0.146662	-0.065991
C15	C	0.170055	0.147526	0.000021
C16	C	0.133818	0.146634	0.066039
C17	C	0.061363	0.144895	0.066040
C18	C	0.279770	0.216750	0.050591
C19	C	0.352224	0.218496	0.050588
C20	C	0.393532	0.152884	0.000021
C21	C	0.362376	0.085541	-0.050555
C22	C	0.289921	0.083802	-0.050554
C23	C	0.248621	0.149411	0.000027
C24	C	0.508328	0.155641	-0.065997
C25	C	0.580787	0.157362	-0.065997
C26	C	0.580771	0.157345	0.066035
C27	C	0.508314	0.155613	0.066033
C28	C	0.472096	0.154767	0.000015
C29	C	0.825359	-0.056389	0.000027
C30	C	0.823511	-0.182374	0.000026
C31	C	0.822009	-0.284688	0.000023
C32	C	0.820131	-0.413046	0.000017
C33	C	0.948031	0.142203	0.000024
C34	C	1.025145	0.144048	0.000022
C35	C	0.816792	0.358661	0.000015
C36	C	0.818640	0.484646	0.000011
N37	N	0.821052	0.151122	0.188690
N38	N	0.821104	0.151141	-0.188646
C39	C	0.867994	0.073762	0.226794
C40	C	0.867999	0.073757	0.303022
C41	C	0.821068	0.151132	0.341142
C42	C	0.774116	0.228498	0.303029
C43	C	0.774109	0.228493	0.226802
C44	C	0.812360	0.254542	0.461899
C45	C	0.812372	0.254548	0.538124
C46	C	0.821087	0.151146	0.576250
C47	C	0.829805	0.047733	0.538141
C48	C	0.829797	0.047728	0.461915
C49	C	0.821070	0.151145	0.423797
C50	C	0.868037	0.073774	0.697009
C51	C	0.868036	0.073767	0.773238
C52	C	0.774158	0.228518	0.773244
C53	C	0.774155	0.228514	0.697016
C54	C	0.821098	0.151144	0.658903
H55	H	0.396008	0.032117	-0.091734
O56	O	0.382462	0.283774	0.099812
C57	C	0.401654	0.322659	0.226587
C58	C	0.367390	0.248629	0.170917
H59	H	0.389469	0.294288	0.284088
H60	H	0.460543	0.312630	0.217965
H61	H	0.380273	0.415933	0.218917
H62	H	0.388716	0.155328	0.178554
H63	H	0.308503	0.258756	0.179555
H64	H	0.478815	0.154896	0.119785
H65	H	0.031865	0.144178	0.119795
H66	H	0.735933	0.291513	0.665990
H67	H	0.478838	0.154948	-0.119753
H68	H	0.906226	0.010759	0.334052
H69	H	0.246143	0.270174	0.091777
O70	O	0.615871	0.158266	-0.130188
C71	C	0.608242	0.158046	-0.261143
C72	C	0.568420	0.157048	-0.188499
H73	H	0.569896	0.157038	-0.308306
H74	H	0.636091	0.238284	-0.264491
H75	H	0.648235	0.079467	-0.264407
H76	H	0.528393	0.235573	-0.185186
H77	H	0.540618	0.076759	-0.185181
O78	O	0.728501	0.303724	0.810152
C79	C	0.635416	0.457257	0.802113
C80	C	0.687077	0.372132	0.760220
H81	H	0.601921	0.512604	0.761761
H82	H	0.600490	0.408461	0.837793
H83	H	0.665632	0.513782	0.837808
H84	H	0.656918	0.315586	0.724485
H85	H	0.722003	0.421000	0.724586
O86	O	0.728499	0.303505	0.340137
C87	C	0.633721	0.328057	0.426190
C88	C	0.685358	0.242990	0.384225
H89	H	0.598817	0.279165	0.461834
H90	H	0.663886	0.384621	0.461912
H91	H	0.600197	0.383374	0.385846
H92	H	0.718894	0.187598	0.424517
H93	H	0.655150	0.186506	0.348493
O94	O	0.168987	0.147272	0.130181
C95	C	0.198611	0.049515	0.243043
C96	C	0.158764	0.048644	0.170419
H97	H	0.190348	-0.030204	0.275602
H98	H	0.256634	0.050840	0.231746
H99	H	0.178309	0.128612	0.275567
H100	H	0.179007	-0.030440	0.137858
H101	H	0.100746	0.047379	0.181767
H102	H	0.906216	0.010760	0.195765
H103	H	0.906260	0.010765	0.804264
H104	H	0.735882	0.291490	0.195777
O105	O	0.803867	0.355098	0.575026
C106	C	0.786609	0.560232	0.566963
C107	C	0.796217	0.446438	0.525083
H108	H	0.780436	0.634110	0.526602
H109	H	0.738072	0.563274	0.602645
H110	H	0.834260	0.567549	0.602655
H111	H	0.748605	0.439045	0.489352
H112	H	0.844782	0.443445	0.489448
H113	H	0.610264	0.158045	0.119782
H114	H	0.031891	0.144240	-0.119745
H115	H	0.836893	-0.036474	0.430890
O116	O	0.803994	0.354923	0.424784
C117	C	0.853428	0.477683	0.338726
C118	C	0.862984	0.363961	0.380701
H119	H	0.901119	0.485037	0.303086
H120	H	0.804932	0.480669	0.302999
H121	H	0.847174	0.551576	0.379064
H122	H	0.869267	0.290004	0.340415
H123	H	0.911467	0.361074	0.416438
H124	H	0.163335	0.147389	-0.119745
O125	O	0.838192	-0.052803	0.575081
C126	C	0.793557	-0.232281	0.598453
C127	C	0.783977	-0.118486	0.556560
H128	H	0.749724	-0.285408	0.583506
H129	H	0.845919	-0.281138	0.583437
H130	H	0.792097	-0.214501	0.659477
H131	H	0.785403	-0.136163	0.495526
H132	H	0.731622	-0.069664	0.571636
O133	O	0.259772	0.018281	-0.099704
C134	C	0.277476	-0.113368	-0.200046
C135	C	0.311711	-0.039232	-0.144417
H136	H	0.319451	-0.159868	-0.236221
H137	H	0.248469	-0.178403	-0.170024
H138	H	0.239149	-0.056646	-0.235111
H139	H	0.350068	-0.095863	-0.109337
H140	H	0.340673	0.025811	-0.174484
H141	H	0.906259	0.010770	0.665976
