data_functionalizedCrystal
_audit_creation_method	'MofGen! by Chris Wilmer'
_symmetry_space_group_name_H-M	'P1'
_symmetry_Int_Tables_number	1
_symmetry_cell_setting	triclinic
loop_
_symmetry_equiv_pos_as_xyz
  x,y,z
_cell_length_a	14.560438
_cell_length_b	17.052862
_cell_length_c	14.560438
_cell_angle_alpha	90.000708
_cell_angle_beta	59.996693
_cell_angle_gamma	50.261293
loop_
_atom_site_label
_atom_site_type_symbol
_atom_site_fract_x
_atom_site_fract_y
_atom_site_fract_z
Zr1	Zr	0.682277	0.914398	0.040943
O2	O	0.927431	0.762836	-0.132492
O3	O	0.474254	0.960859	0.094119
O4	O	0.665867	0.960855	-0.097498
O5	O	0.735814	0.762844	0.210267
O6	O	0.610684	1.117057	-0.069904
O7	O	0.735818	0.762840	0.059125
O8	O	0.267924	1.117063	0.272864
O9	O	1.078574	0.762838	-0.132501
O10	O	0.504882	1.097246	0.137380
O11	O	0.546061	0.980678	0.229583
O12	O	0.771660	0.980673	0.003978
O13	O	0.812840	0.864105	0.096180
Zr14	Zr	0.594260	1.163528	0.326006
Zr15	Zr	0.594266	1.163521	0.084952
Zr16	Zr	0.682270	0.914404	0.281997
Zr17	Zr	0.923333	0.914400	0.040928
Zr18	Zr	0.353203	1.163526	0.326021
O19	O	0.802282	1.117067	0.272830
O20	O	0.802291	1.117058	-0.069917
O21	O	0.927422	0.762845	0.210255
O22	O	0.349105	1.315089	0.499441
O23	O	0.349114	1.315080	0.156694
O24	O	0.474245	0.960868	0.436865
O25	O	0.540722	1.315082	0.156682
O26	O	0.610670	1.117071	0.464447
O27	O	0.665853	0.960869	0.436853
O28	O	0.540718	1.315086	0.307824
O29	O	1.008618	0.960858	-0.097520
O30	O	0.267919	1.117068	0.464469
O31	O	0.197962	1.315088	0.499450
O32	O	0.197967	1.315083	0.307845
O33	O	1.078569	0.762843	0.059104
O34	O	1.008613	0.960863	0.094085
O35	O	0.504876	1.097252	0.362971
O36	O	0.463696	1.213821	0.270769
O37	O	0.730475	1.097248	0.137366
O38	O	0.771655	0.980679	0.229568
C39	C	0.336743	1.038960	0.183493
C40	C	0.234409	1.038960	0.183500
C41	C	0.300026	0.952903	0.085015
C42	C	0.203885	0.952908	0.084987
C43	C	-0.023493	1.125032	0.281940
C44	C	0.072647	1.125030	0.281963
C45	C	0.748356	0.727347	0.128426
C46	C	0.785719	0.621588	0.109743
C47	C	0.334002	0.566874	0.335619
C48	C	0.298893	0.666243	0.353168
C49	C	0.420596	0.655085	0.292314
C50	C	0.577415	0.544547	0.213906
C51	C	0.612528	0.445169	0.196348
C52	C	0.699121	0.533379	0.153043
C53	C	0.855941	0.422841	0.074635
C54	C	0.891046	0.323474	0.057081
C55	C	0.769343	0.334632	0.117935
C56	C	0.664009	0.632757	0.170601
C57	C	0.942535	0.511051	0.031330
C58	C	0.977644	0.411683	0.013781
C59	C	0.939793	1.038965	0.183455
C60	C	1.042128	1.038966	0.183449
C61	C	0.638276	1.038955	-0.118046
C62	C	0.638279	1.038952	-0.220380
C63	C	0.528180	1.350578	0.238523
C64	C	0.490818	1.456338	0.257206
C65	C	0.777532	0.978104	-0.338091
C66	C	0.777521	0.978117	-0.434237
C67	C	0.498993	1.099830	-0.294948
C68	C	0.499003	1.099822	-0.198803
C69	C	0.638260	1.038971	0.484995
C70	C	0.638258	1.038973	0.587329
C71	C	0.226656	1.350576	0.238542
C72	C	0.086958	1.456335	0.257232
C73	C	0.336736	1.038968	0.485014
C74	C	0.234398	1.038970	0.587354
C75	C	0.226648	1.350584	0.540063
C76	C	0.086948	1.456345	0.661086
C77	C	1.049889	0.727342	-0.173114
C78	C	1.189589	0.621580	-0.294137
C79	C	1.049881	0.727350	0.128407
C80	C	1.189578	0.621591	0.109717
C81	C	0.939801	1.038957	-0.118065
C82	C	1.042138	1.038955	-0.220405
C83	C	0.042853	1.445150	0.196371
C84	C	-0.088391	1.544512	0.213908
C85	C	-0.175534	1.655058	0.292312
C86	C	-0.131419	1.666241	0.353174
C87	C	-0.000170	1.566880	0.335630
C88	C	-0.000156	1.566870	0.669793
C89	C	-0.131409	1.666254	0.783499
C90	C	-0.175563	1.655110	0.888497
C91	C	-0.088445	1.544574	0.879786
C92	C	0.042812	1.445193	0.766081
C93	C	1.276704	0.511056	-0.302844
C94	C	1.407987	0.411672	-0.416550
C95	C	1.452146	0.422816	-0.521548
C96	C	1.365022	0.533352	-0.512837
C97	C	1.233748	0.632733	-0.399132
C98	C	1.233693	0.632776	0.170568
C99	C	1.364964	0.533414	0.153005
C100	C	1.452111	0.422868	0.074597
C101	C	1.407991	0.411685	0.013740
C102	C	1.276729	0.511046	0.031297
C103	C	0.164820	1.099821	0.705061
C104	C	0.068677	1.099809	0.801214
C105	C	0.111695	0.978095	0.661939
C106	C	0.207846	0.978101	0.565788
H107	H	0.257326	0.882833	0.004790
H108	H	0.035772	1.575966	0.584311
H109	H	-0.124415	1.535518	0.965291
C110	C	0.477962	0.858231	-0.023303
N111	N	0.611983	0.786924	-0.104895
C112	C	0.930719	0.911157	-0.563724
N113	N	1.046116	0.860712	-0.661258
C114	C	0.138612	1.323617	0.756523
N115	N	0.210765	1.232048	0.749333
H116	H	1.478965	0.321665	-0.050101
H117	H	-0.202390	1.756261	0.417011
H118	H	-0.202329	1.756248	0.790571
C119	C	-0.319917	1.764347	0.311606
N120	N	-0.428669	1.846660	0.326138
C121	C	0.807955	0.225325	0.098635
N122	N	0.837033	0.142995	0.084100
C123	C	0.138697	1.323558	0.110111
N124	N	0.210886	1.231977	0.045131
C125	C	0.048315	1.579203	0.402602
N126	N	0.084825	1.588494	0.453051
C127	C	0.126397	0.787826	0.439416
N128	N	-0.003537	0.879407	0.504384
C129	C	-0.319963	1.764444	1.013568
N130	N	-0.428733	1.846799	1.107768
C131	C	0.491510	0.754338	0.256855
N132	N	0.361574	0.845916	0.321829
C133	C	-0.136902	1.532184	0.146959
N134	N	-0.173440	1.522896	0.096536
H135	H	1.478905	0.321678	-0.423620
H136	H	1.240763	0.501960	-0.217362
C137	C	1.596545	0.313481	-0.646619
N138	N	1.705303	0.231126	-0.740819
C139	C	1.413606	0.545591	-0.628349
N140	N	1.450194	0.554805	-0.715356
C141	C	1.137917	0.754308	-0.389574
N142	N	1.065740	0.845878	-0.382384
H143	H	1.162747	0.722779	0.234421
H144	H	-0.155207	1.195106	0.362106
H145	H	1.400862	0.542542	0.202570
H146	H	0.019202	1.195115	0.362165
H147	H	0.392000	0.735998	0.306608
C148	C	1.063552	0.201883	-0.029181
N149	N	1.193485	0.110301	-0.094155
C150	C	1.596493	0.313578	0.055303
N151	N	1.705237	0.231266	0.040779
H152	H	1.240819	0.501922	-0.018255
C153	C	-0.007865	1.166756	0.930693
N154	N	-0.065519	1.217185	1.028221
H155	H	0.186441	1.149380	0.722627
H156	H	0.234928	0.575944	0.385153
H157	H	1.105327	0.321671	-0.050060
H158	H	1.041635	0.501962	-0.018225
H159	H	0.090061	0.928539	0.644395
H160	H	0.890939	0.928540	-0.355666
H161	H	0.385600	1.149386	-0.277394
H162	H	0.385598	1.149378	-0.102949
H163	H	0.264504	0.928543	0.469938
