data_functionalizedCrystal
_audit_creation_method	'MofGen! by Chris Wilmer'
_symmetry_space_group_name_H-M	'P1'
_symmetry_Int_Tables_number	1
_symmetry_cell_setting	triclinic
loop_
_symmetry_equiv_pos_as_xyz
  x,y,z
_cell_length_a	23.196402
_cell_length_b	20.875641
_cell_length_c	23.196401
_cell_angle_alpha	90.012211
_cell_angle_beta	60.008822
_cell_angle_gamma	57.589996
loop_
_atom_site_label
_atom_site_type_symbol
_atom_site_fract_x
_atom_site_fract_y
_atom_site_fract_z
Zr1	Zr	0.588689	0.641480	-0.054483
O2	O	0.715970	0.535134	-0.150035
O3	O	0.466273	0.674078	-0.025195
O4	O	0.586542	0.674048	-0.145462
O5	O	0.595697	0.535189	0.065103
O6	O	0.579314	0.783630	-0.141850
O7	O	0.595701	0.535163	-0.029769
O8	O	0.364175	0.783682	0.073285
O9	O	0.810837	0.535137	-0.150031
O10	O	0.509428	0.769763	-0.010004
O11	O	0.514820	0.688003	0.058102
O12	O	0.656421	0.687969	-0.083496
O13	O	0.661813	0.606209	-0.015389
Zr14	Zr	0.577156	0.816291	0.102588
Zr15	Zr	0.577161	0.816249	-0.048723
Zr16	Zr	0.588684	0.641522	0.096827
Zr17	Zr	0.739991	0.641485	-0.054477
Zr18	Zr	0.425854	0.816286	0.102581
O19	O	0.699572	0.783693	0.073299
O20	O	0.699579	0.783633	-0.141844
O21	O	0.715962	0.535193	0.065109
O22	O	0.449875	0.922637	0.198139
O23	O	0.449883	0.922577	-0.017004
O24	O	0.466266	0.674137	0.189948
O25	O	0.570148	0.922581	-0.016999
O26	O	0.579303	0.783722	0.193566
O27	O	0.586531	0.674141	0.189954
O28	O	0.570144	0.922607	0.077873
O29	O	0.801674	0.674055	-0.145452
O30	O	0.364171	0.783715	0.193556
O31	O	0.355008	0.922634	0.198135
O32	O	0.355012	0.922601	0.077864
O33	O	0.810833	0.535170	-0.029759
O34	O	0.801670	0.674088	-0.025181
O35	O	0.509424	0.769802	0.131600
O36	O	0.504032	0.851562	0.063493
O37	O	0.651025	0.769767	-0.009998
O38	O	0.656417	0.688008	0.058108
C39	C	0.393667	0.728879	0.024044
C40	C	0.329435	0.728877	0.024041
C41	C	0.296451	0.771549	-0.011513
C42	C	0.236089	0.771557	-0.011507
C43	C	0.208727	0.728877	0.024043
C44	C	0.241715	0.686203	0.059605
C45	C	0.302069	0.686203	0.059604
C46	C	0.151414	0.657372	0.016411
C47	C	0.091064	0.657370	0.016407
C48	C	0.022572	0.728878	0.024050
C49	C	0.014443	0.800388	0.031683
C50	C	0.074798	0.800388	0.031682
C51	C	0.143283	0.728873	0.024048
C52	C	-0.075864	0.771563	-0.011499
C53	C	-0.136231	0.771573	-0.011488
C54	C	-0.130597	0.686211	0.059619
C55	C	-0.070238	0.686209	0.059612
C56	C	-0.042873	0.728883	0.024050
C57	C	0.597341	0.510275	0.016846
C58	C	0.602235	0.436081	0.014401
C59	C	0.527807	0.443918	0.051610
C60	C	0.532410	0.374202	0.049311
C61	C	0.611442	0.296650	0.009797
C62	C	0.685875	0.288814	-0.027413
C63	C	0.681271	0.358530	-0.025109
C64	C	0.633439	0.083569	-0.001203
C65	C	0.638038	0.013852	-0.003506
C66	C	0.484572	0.099245	0.073219
C67	C	0.479975	0.168958	0.075516
C68	C	0.554408	0.161117	0.038309
N69	N	0.616149	0.225388	0.007444
N70	N	0.549700	0.232378	0.040666
C71	C	0.772178	0.728891	0.024060
C72	C	0.836410	0.728893	0.024063
C73	C	0.582929	0.728833	-0.165214
C74	C	0.582931	0.728815	-0.229449
C75	C	0.568504	0.947495	0.031258
C76	C	0.563610	1.021689	0.033703
C77	C	0.659657	0.686124	-0.297984
C78	C	0.659657	0.686144	-0.358339
C79	C	0.582927	0.728846	-0.350155
C80	C	0.506190	0.771547	-0.281607
C81	C	0.506192	0.771532	-0.221255
C82	C	0.526699	0.722780	-0.417674
C83	C	0.526701	0.722789	-0.478027
C84	C	0.582917	0.728897	-0.536301
C85	C	0.639148	0.734979	-0.534220
C86	C	0.639150	0.734964	-0.473868
C87	C	0.582916	0.728867	-0.415593
C88	C	0.659649	0.686226	-0.670281
C89	C	0.659645	0.686252	-0.730635
C90	C	0.506176	0.771649	-0.653902
C91	C	0.506182	0.771628	-0.593550
C92	C	0.582921	0.728912	-0.601745
C93	C	0.582916	0.728938	0.213318
C94	C	0.582914	0.728955	0.277553
C95	C	0.379248	0.947489	0.031249
C96	C	0.310122	1.021681	0.033692
C97	C	0.393660	0.728932	0.213310
C98	C	0.329426	0.728947	0.277542
C99	C	0.379241	0.947541	0.220516
C100	C	0.310114	1.021751	0.287193
C101	C	0.786604	0.510229	-0.172411
C102	C	0.855731	0.436019	-0.239089
C103	C	0.786597	0.510281	0.016855
C104	C	0.855723	0.436089	0.014412
C105	C	0.772185	0.728839	-0.165206
C106	C	0.836419	0.728823	-0.229438
C107	C	0.280477	1.013825	-0.003532
C108	C	0.215535	1.083529	-0.001251
C109	C	0.180236	1.161090	0.038258
C110	C	0.209887	1.168945	0.075484
C111	C	0.274832	1.099241	0.073198
C112	C	0.296445	0.771653	0.346078
C113	C	0.236099	0.771664	0.406437
C114	C	0.208731	0.728975	0.398258
C115	C	0.241719	0.686264	0.329716
C116	C	0.302068	0.686248	0.269358
C117	C	0.274836	1.099286	0.282955
C118	C	0.209891	1.169021	0.345601
C119	C	0.180222	1.161219	0.412483
C120	C	0.215506	1.083676	0.416720
C121	C	0.280453	1.013943	0.354075
C122	C	0.891016	0.358485	-0.234851
C123	C	0.955980	0.288750	-0.297497
C124	C	0.985653	0.296552	-0.364379
C125	C	0.950364	0.374095	-0.368616
C126	C	0.885406	0.443828	-0.305971
C127	C	0.885374	0.443946	0.051630
C128	C	0.950333	0.374241	0.049332
C129	C	0.985634	0.296681	0.009821
C130	C	0.955980	0.288826	-0.027402
C131	C	0.891027	0.358530	-0.025108
C132	C	0.863766	0.771521	-0.221237
C133	C	0.924112	0.771522	-0.281584
C134	C	0.957113	0.728820	-0.350131
C135	C	0.929759	0.686121	-0.358331
C136	C	0.869410	0.686125	-0.297985
H137	H	0.209228	0.806307	-0.040460
H138	H	0.298983	1.105654	0.228502
Cl139	Cl	0.409714	0.825342	-0.643607
H140	H	0.856678	0.506958	-0.309430
Cl141	Cl	0.178196	1.073882	0.500807
H142	H	0.750225	0.225665	-0.059581
Cl143	Cl	0.343538	0.632554	0.104303
H144	H	0.309169	0.950813	0.357536
H145	H	1.038546	0.239764	-0.415383
H146	H	0.866861	0.352116	-0.180398
H147	H	0.741878	0.352144	-0.055400
Cl148	Cl	1.000326	0.191278	-0.292154
H149	H	0.309217	0.950677	-0.035714
Cl150	Cl	0.841012	0.541443	0.101304
H151	H	0.946377	0.806292	-0.274894
H152	H	0.974533	0.380437	-0.423079
Cl153	Cl	0.165498	1.266456	0.125153
Cl154	Cl	0.835046	0.632433	-0.308307
H155	H	0.097692	0.599142	0.010189
H156	H	0.207191	0.599133	0.010173
Cl157	Cl	1.032984	0.728820	-0.425989
H158	H	0.974466	0.380653	0.079647
Cl159	Cl	0.330834	0.825328	0.356378
H160	H	-0.163091	0.806326	-0.040437
H161	H	0.219428	0.651507	0.323067
H162	H	1.038523	0.239930	0.007959
Cl163	Cl	0.207311	0.632555	0.104302
H164	H	0.722144	0.651344	-0.304662
Cl165	Cl	0.971263	0.632434	-0.444511
H166	H	0.984733	0.225666	-0.059571
H167	H	0.866887	0.352121	-0.055414
Cl168	Cl	0.822290	0.825212	-0.135070
Cl169	Cl	0.312086	1.109133	0.120006
H170	H	0.318728	0.806299	-0.040468
Cl171	Cl	0.194637	0.825366	0.492596
H172	H	0.068174	0.858614	0.037898
H173	H	0.702398	-0.049296	-0.035685
H174	H	0.722139	0.651377	-0.414150
H175	H	0.463451	0.507062	0.083789
Cl176	Cl	0.756110	0.632582	-0.816798
Cl177	Cl	0.132861	0.729005	0.474145
H178	H	-0.041331	0.858619	0.037915
H179	H	0.181169	1.232153	0.342139
H180	H	-0.053585	0.806313	-0.040454
Cl181	Cl	0.098588	1.248711	0.041126
Cl182	Cl	0.438839	0.384060	0.096098
Cl183	Cl	-0.028768	0.632558	0.104309
H184	H	0.415619	0.232101	0.107678
Cl185	Cl	-0.164989	0.632554	0.104310
H186	H	0.423973	0.105620	0.103511
H187	H	0.684933	0.739918	-0.472177
H188	H	0.694048	0.077174	-0.031512
H189	H	0.684928	0.739949	-0.581669
H190	H	0.722134	0.651444	-0.676954
H191	H	0.443703	0.806389	-0.537745
H192	H	0.480918	0.717832	-0.479716
Cl193	Cl	0.455972	0.715168	-0.344395
H194	H	0.443716	0.806315	-0.274948
H195	H	0.127336	1.218007	0.463487
H196	H	0.191402	1.077118	-0.031565
H197	H	0.443711	0.806297	-0.165449
H198	H	0.328914	0.651475	0.213556
