data_functionalizedCrystal
_audit_creation_method	'MofGen! by Chris Wilmer'
_symmetry_space_group_name_H-M	'P1'
_symmetry_Int_Tables_number	1
_symmetry_cell_setting	triclinic
loop_
_symmetry_equiv_pos_as_xyz
  x,y,z
_cell_length_a	13.033291
_cell_length_b	16.120297
_cell_length_c	13.032721
_cell_angle_alpha	99.654124
_cell_angle_beta	105.184202
_cell_angle_gamma	85.312033
loop_
_atom_site_label
_atom_site_type_symbol
_atom_site_fract_x
_atom_site_fract_y
_atom_site_fract_z
Zn1	Zn	1.522678	-0.652701	-0.264376
Zn2	Zn	2.022678	-0.152701	0.235624
Zn3	Zn	1.509005	-0.528984	-0.433006
Zn4	Zn	2.009005	-0.028984	0.066994
Zn5	Zn	1.356339	-0.497564	-0.275647
Zn6	Zn	1.856339	0.002436	0.224353
Zn7	Zn	1.322464	-0.652605	-0.464475
Zn8	Zn	1.822464	-0.152605	0.035525
O9	O	1.427622	-0.582963	-0.359376
O10	O	1.927622	-0.082963	0.140624
O11	O	1.668546	-0.649479	-0.268858
O12	O	2.168546	-0.149479	0.231142
O13	O	1.497208	-0.408155	-0.403679
O14	O	1.997208	0.091845	0.096321
O15	O	1.398304	-0.505035	-0.124554
O16	O	1.898304	-0.005035	0.375446
O17	O	1.658501	-0.558584	-0.392750
O18	O	2.158501	-0.058584	0.107250
O19	O	1.520512	-0.619013	-0.116273
O20	O	2.020512	-0.119013	0.383727
O21	O	1.385045	-0.385071	-0.288068
O22	O	1.885045	0.114929	0.211932
O23	O	1.204164	-0.504942	-0.318582
O24	O	1.704164	-0.004942	0.181418
O25	O	1.340568	-0.769279	-0.446384
O26	O	1.840568	-0.269279	0.053616
O27	O	1.179276	-0.618849	-0.457313
O28	O	1.679276	-0.118849	0.042687
O29	O	1.487665	-0.769349	-0.299372
O30	O	1.987665	-0.269349	0.200628
O31	O	1.464361	-0.558491	-0.586778
O32	O	1.964361	-0.058491	-0.086778
O33	O	1.327310	-0.649315	-0.609898
O34	O	1.827310	-0.149315	-0.109898
C35	C	1.153428	-0.558476	-0.392586
C36	C	1.653428	-0.058476	0.107414
C37	C	1.036121	-0.548023	-0.406821
C38	C	1.536121	-0.048023	0.093179
C39	C	0.867535	-0.577624	-0.366676
C40	C	1.367535	-0.077624	0.133324
C41	C	0.988777	-0.588428	-0.351966
C42	C	1.488777	-0.088428	0.148034
C43	C	1.411863	-0.800409	-0.375131
C44	C	1.911863	-0.300409	0.124869
C45	C	1.405148	-0.893071	-0.381845
C46	C	1.905148	-0.393071	0.118155
C47	C	1.392852	-1.062720	-0.394084
C48	C	1.892852	-0.562720	0.105916
C49	C	1.462642	-1.104049	-0.324322
C50	C	1.962642	-0.604049	0.175678
C51	C	1.455801	-1.198448	-0.331132
C52	C	1.955801	-0.698448	0.168868
C53	C	1.399692	-0.968313	-0.387276
C54	C	1.899692	-0.468313	0.112724
C55	C	1.702886	-0.607547	-0.326037
C56	C	2.202886	-0.107547	0.173963
C57	C	1.820188	-0.618023	-0.311829
C58	C	2.320188	-0.118023	0.188171
C59	C	1.390703	-0.607323	-0.637125
C60	C	1.890703	-0.107323	-0.137125
C61	C	1.375004	-0.617781	-0.755937
C62	C	1.875004	-0.117781	-0.255937
C63	C	1.443390	-0.366363	-0.343597
C64	C	1.943390	0.133637	0.156403
C65	C	1.450350	-0.273693	-0.336557
C66	C	1.950350	0.226307	0.163443
C67	C	1.435869	-0.577548	-0.797430
C68	C	1.935869	-0.077548	-0.297430
C69	C	1.419644	-0.588356	-0.920229
C70	C	1.919644	-0.088356	-0.420229
C71	C	1.464712	-0.558530	-0.080540
C72	C	1.964712	-0.058530	0.419460
C73	C	1.480517	-0.548117	0.038283
C74	C	1.980517	-0.048117	0.538283
H75	H	1.037997	-0.631012	-0.294111
H76	H	1.537997	-0.131012	0.205889
H77	H	1.527529	-1.068536	-0.259481
H78	H	2.027529	-0.568536	0.240519
C79	C	1.567124	-0.490752	-0.886909
C80	C	2.067124	0.009248	-0.386909
H81	H	1.566655	-0.491000	-0.814189
H82	H	2.066655	0.009000	-0.314189
H83	H	1.634758	-0.510899	-0.897365
H84	H	2.134758	-0.010899	-0.397365
H85	H	1.553366	-0.434954	-0.903012
H86	H	2.053366	0.065046	-0.403012
C87	C	1.305207	-1.110690	-0.481680
C88	C	1.805207	-0.610690	0.018320
H89	H	1.312062	-1.168764	-0.474826
H90	H	1.812062	-0.668764	0.025174
H91	H	1.237385	-1.088764	-0.473631
H92	H	1.737385	-0.588764	0.026369
H93	H	1.312124	-1.104155	-0.550633
H94	H	1.812124	-0.604155	-0.050633
C95	C	1.333018	-0.645703	-0.995035
C96	C	1.833018	-0.145703	-0.495035
H97	H	1.296941	-0.669549	-0.953079
H98	H	1.796941	-0.169549	-0.453079
H99	H	1.283661	-0.613494	-1.041898
H100	H	1.783661	-0.113494	-0.541898
H101	H	1.365021	-0.689460	-1.036270
H102	H	1.865021	-0.189460	-0.536270
C103	C	0.801049	-0.520094	-0.444825
C104	C	1.301049	-0.020094	0.055175
H105	H	0.728282	-0.520384	-0.444465
H106	H	1.228282	-0.020384	0.055535
H107	H	0.825196	-0.464311	-0.422848
H108	H	1.325196	0.035689	0.077152
H109	H	0.808641	-0.540107	-0.515387
H110	H	1.308641	-0.040107	-0.015387
C111	C	0.969640	-0.490494	-0.484980
C112	C	1.469640	0.009506	0.015020
H113	H	0.896872	-0.490785	-0.484624
H114	H	1.396872	0.009215	0.015376
H115	H	0.993785	-0.434710	-0.463008
H116	H	1.493785	0.065290	0.036992
H117	H	0.977237	-0.510512	-0.555539
H118	H	1.477237	-0.010512	-0.055539
C119	C	0.886673	-0.675556	-0.233686
C120	C	1.386673	-0.175556	0.266314
H121	H	0.959438	-0.675276	-0.234057
H122	H	1.459438	-0.175276	0.265943
H123	H	0.879079	-0.655556	-0.163127
H124	H	1.379079	-0.155556	0.336873
H125	H	0.862524	-0.731343	-0.255679
H126	H	1.362524	-0.231343	0.244321
H127	H	1.499993	-0.535105	-0.742044
H128	H	1.999993	-0.035105	-0.242044
H129	H	1.310888	-0.660230	-0.811325
H130	H	1.810888	-0.160230	-0.311325
