data_functionalizedCrystal
_audit_creation_method	'MofGen! by Chris Wilmer'
_symmetry_space_group_name_H-M	'P1'
_symmetry_Int_Tables_number	1
_symmetry_cell_setting	triclinic
loop_
_symmetry_equiv_pos_as_xyz
  x,y,z
_cell_length_a	11.792254
_cell_length_b	15.944564
_cell_length_c	10.868271
_cell_angle_alpha	90.006315
_cell_angle_beta	89.995741
_cell_angle_gamma	96.148734
loop_
_atom_site_label
_atom_site_type_symbol
_atom_site_fract_x
_atom_site_fract_y
_atom_site_fract_z
O1	O	1.505958	-0.115178	-0.102325
O2	O	1.175522	-0.127032	-0.102328
O3	O	1.349756	0.001128	-0.102314
O4	O	1.331724	-0.243338	-0.102338
O5	O	1.349742	0.001133	0.102330
O6	O	1.175508	-0.127027	0.102317
O7	O	1.505944	-0.115173	0.102320
Zn8	Zn	1.340723	-0.121099	0.134810
Zn9	Zn	1.340742	-0.121106	-0.134818
O10	O	1.331710	-0.243333	0.102307
C11	C	1.133230	-0.126283	-0.000006
C12	C	1.007235	-0.124048	-0.000007
C13	C	0.904914	-0.122232	-0.000012
C14	C	0.776546	-0.119961	-0.000012
C15	C	1.348998	0.032428	0.000008
C16	C	1.346746	0.125683	0.000010
C17	C	1.233360	0.341054	-0.000007
C18	C	1.285996	0.401834	0.100896
C19	C	1.342672	0.296427	0.000001
C20	C	1.286036	0.401813	-0.100868
C21	C	1.338729	0.461356	-0.000013
C22	C	1.395337	0.355979	0.100987
C23	C	1.395362	0.355951	-0.100867
C24	C	1.448077	0.416713	0.000061
C25	C	1.344940	0.201415	0.000010
C26	C	1.336469	0.556367	-0.000013
C27	C	1.548235	-0.115922	-0.000005
C28	C	1.674230	-0.118157	-0.000012
N29	N	1.340719	-0.121094	0.318824
C30	C	1.332452	0.725366	-0.000017
C31	C	1.334658	0.632106	-0.000022
N32	N	1.340756	-0.121104	-0.318832
C33	C	1.340736	-0.121104	0.569830
C34	C	1.340723	-0.121101	0.430153
H35	H	1.142631	0.308159	0.000093
F36	F	1.455751	0.329360	-0.212372
H37	H	1.441527	0.335780	0.186386
F38	F	1.566769	0.459516	0.000133
F39	F	1.225586	0.428345	-0.212359
H40	H	1.239755	0.422155	0.186200
