data_functionalizedCrystal
_audit_creation_method	'MofGen! by Chris Wilmer'
_symmetry_space_group_name_H-M	'P1'
_symmetry_Int_Tables_number	1
_symmetry_cell_setting	triclinic
loop_
_symmetry_equiv_pos_as_xyz
  x,y,z
_cell_length_a	10.723023
_cell_length_b	16.109301
_cell_length_c	14.586319
_cell_angle_alpha	89.999213
_cell_angle_beta	90.001882
_cell_angle_gamma	96.035486
loop_
_atom_site_label
_atom_site_type_symbol
_atom_site_fract_x
_atom_site_fract_y
_atom_site_fract_z
O1	O	-0.160391	1.104074	-0.076178
O2	O	-0.180351	0.862130	-0.076193
O3	O	0.011279	0.988683	-0.076184
O4	O	-0.352021	0.977521	-0.076187
O5	O	0.011282	0.988674	0.076297
O6	O	-0.180348	0.862121	0.076288
O7	O	-0.160388	1.104065	0.076302
Cu8	Cu	-0.170368	0.983092	0.090218
Cu9	Cu	-0.170371	0.983103	-0.090108
O10	O	-0.352018	0.977512	0.076293
C11	C	-0.179541	0.831146	0.000046
C12	C	-0.177117	0.738836	0.000041
C13	C	-0.285190	0.517199	0.000050
C14	C	-0.282903	0.430466	0.000056
C15	C	-0.055540	0.449002	0.000055
C16	C	-0.057829	0.535735	0.000055
C17	C	-0.172658	0.569831	0.000048
C18	C	-0.168081	0.396365	0.000054
C19	C	-0.165601	0.302324	0.000060
C20	C	-0.175139	0.663877	0.000044
C21	C	-0.398509	0.978329	0.000052
C22	C	-0.537031	0.980758	0.000051
C23	C	-0.598787	0.981837	0.079040
C24	C	-0.741957	0.984349	0.079041
C25	C	0.057770	0.987867	0.000055
C26	C	0.196292	0.985437	0.000051
C27	C	-0.161198	1.135049	0.000062
C28	C	-0.163622	1.227359	0.000061
N29	N	-0.170365	0.983091	0.217050
N30	N	-0.170364	0.983111	-0.216940
C31	C	-0.085539	1.039148	0.452060
C32	C	-0.085536	1.039150	0.548041
C33	C	-0.255194	0.927048	0.548043
C34	C	-0.255190	0.927042	0.452063
C35	C	-0.170364	0.983097	0.404075
C36	C	-0.170365	0.983105	0.596035
C37	C	-0.170362	0.983107	0.700102
C38	C	-0.170365	0.983094	0.300001
H39	H	-0.378691	0.544957	0.000051
H40	H	-0.324259	0.881411	0.587125
O41	O	-0.003205	1.093527	0.405301
C42	C	-0.021339	1.081474	0.310296
H43	H	-0.120558	1.051015	0.297169
H44	H	-0.007385	1.144340	0.273794
H45	H	0.049260	1.039321	0.283101
O46	O	-0.337769	0.872675	0.405487
C47	C	-0.461302	0.886879	0.428947
H48	H	-0.461944	0.953446	0.455326
H49	H	-0.523918	0.877670	0.365823
H50	H	-0.497939	0.841010	0.484660
H51	H	-0.795065	0.985281	0.146666
H52	H	-0.545667	0.980897	0.146665
H53	H	-0.016463	1.084791	0.587109
H54	H	-0.750607	0.984513	-0.067578
H55	H	-0.374539	0.387616	0.000059
H56	H	0.033815	0.578589	0.000056
O57	O	0.055890	0.415742	0.000013
C58	C	0.033783	0.327904	0.000033
H59	H	-0.063605	0.308093	-0.028833
H60	H	0.107251	0.300862	-0.044238
H61	H	0.039827	0.303728	0.073185
O62	O	-0.600537	0.981742	-0.080579
C63	C	-0.689947	0.911159	-0.085481
H64	H	-0.714050	0.887552	-0.013290
H65	H	-0.778348	0.928907	-0.120596
H66	H	-0.649744	0.859944	-0.126521
