data_functionalizedCrystal
_audit_creation_method	'MofGen! by Chris Wilmer'
_symmetry_space_group_name_H-M	'P1'
_symmetry_Int_Tables_number	1
_symmetry_cell_setting	triclinic
loop_
_symmetry_equiv_pos_as_xyz
  x,y,z
_cell_length_a	16.992701
_cell_length_b	16.992695
_cell_length_c	15.455313
_cell_angle_alpha	87.142836
_cell_angle_beta	87.139804
_cell_angle_gamma	89.332304
loop_
_atom_site_label
_atom_site_type_symbol
_atom_site_fract_x
_atom_site_fract_y
_atom_site_fract_z
O1	O	1.047609	-0.170134	0.072139
O2	O	1.547609	0.329866	0.572139
O3	O	0.819209	-0.168305	0.072140
O4	O	1.319209	0.331695	0.572140
O5	O	0.932493	-0.055019	0.072133
O6	O	1.432493	0.444981	0.572133
O7	O	0.934324	-0.283420	0.072146
O8	O	1.434324	0.216580	0.572146
O9	O	0.938965	-0.048561	-0.072130
O10	O	1.438965	0.451439	0.427870
O11	O	0.825680	-0.161847	-0.072123
O12	O	1.325680	0.338153	0.427877
O13	O	1.054080	-0.163676	-0.072123
O14	O	1.554080	0.336324	0.427877
Cu15	Cu	0.940471	-0.162172	-0.085295
Cu16	Cu	1.440471	0.337828	0.414705
Cu17	Cu	0.932818	-0.169809	0.085312
Cu18	Cu	1.432818	0.330191	0.585312
O19	O	0.940796	-0.276962	-0.072116
O20	O	1.440796	0.223038	0.427884
C21	C	0.793084	-0.162721	0.000008
C22	C	1.293084	0.337279	0.500008
C23	C	0.705600	-0.155693	0.000008
C24	C	1.205600	0.344307	0.500008
C25	C	0.933373	-0.022430	0.000001
C26	C	1.433373	0.477570	0.500001
C27	C	0.926345	0.065054	0.000002
C28	C	1.426345	0.565054	0.500002
C29	C	0.213681	-0.108471	0.000009
C30	C	0.713681	0.391529	0.500009
C31	C	0.295882	-0.115080	0.000004
C32	C	0.795882	0.384920	0.500004
C33	C	0.332089	-0.189509	0.000012
C34	C	0.832089	0.310491	0.500012
C35	C	0.286090	-0.257331	0.000017
C36	C	0.786090	0.242669	0.500017
C37	C	0.203891	-0.250721	0.000015
C38	C	0.703891	0.249279	0.500015
C39	C	0.577402	-0.216905	0.000011
C40	C	1.077402	0.283095	0.500011
C41	C	0.659607	-0.223510	0.000015
C42	C	1.159607	0.276490	0.500015
C43	C	0.669394	-0.081259	0.000001
C44	C	1.169394	0.418741	0.500001
C45	C	0.587192	-0.074655	0.000005
C46	C	1.087192	0.425345	0.500005
C47	C	0.541201	-0.142478	0.000005
C48	C	1.041201	0.357522	0.500005
N49	N	0.416111	-0.196266	0.000010
N50	N	0.916111	0.303734	0.500010
N51	N	0.457181	-0.135719	0.000001
N52	N	0.957181	0.364281	0.500001
C53	C	1.080204	-0.169261	0.000010
C54	C	1.580204	0.330739	0.500010
C55	C	1.167689	-0.176289	0.000016
C56	C	1.667689	0.323711	0.500016
N57	N	0.927435	-0.175175	0.205308
N58	N	1.427435	0.324825	0.705308
C59	C	0.939915	-0.309551	0.000017
C60	C	1.439915	0.190449	0.500017
C61	C	0.946944	-0.397036	0.000022
C62	C	1.446944	0.102964	0.500022
C63	C	0.994163	0.111046	0.000001
C64	C	1.494163	0.611046	0.500001
C65	C	0.987553	0.193246	0.000009
C66	C	1.487553	0.693246	0.500009
C67	C	0.913126	0.229454	0.000012
C68	C	1.413126	0.729454	0.500012
C69	C	0.845302	0.183456	0.000016
C70	C	1.345302	0.683456	0.500016
C71	C	0.851912	0.101257	0.000014
C72	C	1.351912	0.601257	0.500014
C73	C	0.885731	0.474767	0.000024
C74	C	1.385731	0.974767	0.500024
C75	C	0.879126	0.556973	0.000023
C76	C	1.379126	1.056973	0.500023
C77	C	1.021377	0.566757	0.000018
C78	C	1.521377	1.066757	0.500018
C79	C	1.027981	0.484556	0.000011
C80	C	1.527981	0.984556	0.500011
C81	C	0.960158	0.438566	0.000019
C82	C	1.460158	0.938566	0.500019
N83	N	0.906368	0.313476	0.000018
N84	N	1.406368	0.813476	0.500018
N85	N	0.966915	0.354545	0.000020
N86	N	1.466915	0.854545	0.500020
N87	N	0.945860	-0.156800	-0.205291
N88	N	1.445860	0.343200	0.294709
C89	C	0.975666	-0.127152	0.250699
C90	C	1.475666	0.372848	0.750699
C91	C	0.971593	-0.131209	0.341507
C92	C	1.471593	0.368791	0.841507
C93	C	0.919285	-0.183284	0.386922
C94	C	1.419285	0.316716	0.886922
C95	C	0.871052	-0.231312	0.341525
C96	C	1.371052	0.268688	0.841525
C97	C	0.875129	-0.227259	0.250718
C98	C	1.375129	0.272741	0.750718
C99	C	0.901704	-0.200775	0.658505
C100	C	1.401704	0.299225	1.158505
C101	C	0.897629	-0.204823	0.749318
C102	C	1.397629	0.295177	1.249318
C103	C	0.998172	-0.104720	0.749294
C104	C	1.498172	0.395280	1.249294
C105	C	1.002241	-0.100669	0.658485
C106	C	1.502241	0.399331	1.158485
C107	C	0.954011	-0.148699	0.613096
C108	C	1.454011	0.351301	1.113096
N109	N	0.915119	-0.187430	0.479743
N110	N	1.415119	0.312570	0.979743
N111	N	0.958181	-0.144557	0.520277
N112	N	1.458181	0.355443	1.020277
H113	H	0.333326	-0.059855	-0.000005
H114	H	0.833326	0.440145	0.499995
H115	H	0.557719	-0.014048	-0.000002
H116	H	1.057719	0.485952	0.499998
H117	H	1.054770	0.081573	-0.000007
H118	H	1.554770	0.581573	0.499993
H119	H	1.076595	0.604211	0.000013
H120	H	1.576595	1.104211	0.500013
C121	C	0.739172	0.539047	0.000055
C122	C	1.239172	1.039047	0.500055
C123	C	0.797308	0.596773	0.000041
C124	C	1.297308	1.096773	0.500041
H125	H	0.688665	0.563620	0.000072
H126	H	1.188665	1.063620	0.500072
H127	H	0.746953	0.509447	-0.050251
H128	H	1.246953	1.009447	0.449749
H129	H	0.742463	0.504933	0.050365
H130	H	1.242463	1.004933	0.550365
H131	H	0.794020	0.630883	-0.050273
H132	H	1.294020	1.130883	0.449727
H133	H	0.789524	0.626386	0.050352
H134	H	1.289524	1.126386	0.550352
C135	C	0.831856	-0.365843	0.369520
C136	C	1.331856	0.134157	0.869520
C137	C	0.813555	-0.288556	0.391445
C138	C	1.313555	0.211444	0.891445
H139	H	0.796360	-0.401181	0.400343
H140	H	1.296360	0.098819	0.900343
H141	H	0.827378	-0.370299	0.308951
H142	H	1.327378	0.129701	0.808951
H143	H	0.884239	-0.378467	0.384412
H144	H	1.384239	0.121533	0.884412
H145	H	0.761173	-0.275930	0.376547
H146	H	1.261173	0.224070	0.876547
H147	H	0.818026	-0.284097	0.452029
H148	H	1.318026	0.215903	0.952029
H149	H	0.855030	-0.247231	0.786291
H150	H	1.355030	0.252769	1.286291
H151	H	0.706848	-0.026041	-0.000000
H152	H	1.206848	0.473959	0.500000
H153	H	0.689084	-0.284121	0.000010
H154	H	1.189084	0.215879	0.500010
H155	H	1.042778	0.230690	0.000006
H156	H	1.542778	0.730690	0.500006
C157	C	0.807299	0.373345	0.074191
C158	C	1.307299	0.873345	0.574191
C159	C	0.811177	0.424226	0.000029
C160	C	1.311177	0.924226	0.500029
H161	H	0.761266	0.342146	0.074195
H162	H	1.261266	0.842146	0.574195
H163	H	0.852560	0.340015	0.074185
H164	H	1.352560	0.840015	0.574185
H165	H	0.805427	0.403371	0.124492
H166	H	1.305427	0.903371	0.624492
H167	H	0.813055	0.394199	-0.050272
H168	H	1.313055	0.894199	0.449728
H169	H	0.765904	0.457560	0.000027
H170	H	1.265904	0.957560	0.500027
C171	C	0.725342	0.203737	-0.074134
C172	C	1.225342	0.703737	0.425866
C173	C	0.763487	0.223249	0.000022
C174	C	1.263487	0.723249	0.500022
H175	H	0.674830	0.228298	-0.074126
H176	H	1.174830	0.728298	0.425874
H177	H	0.755735	0.221479	-0.124433
H178	H	1.255735	0.721479	0.375567
H179	H	0.719581	0.148198	-0.074124
H180	H	1.219581	0.648198	0.425876
H181	H	0.769253	0.278788	0.000009
H182	H	1.269253	0.778788	0.500009
H183	H	0.733087	0.205511	0.050335
H184	H	1.233087	0.705511	0.550335
H185	H	0.539966	-0.272132	0.000016
H186	H	1.039966	0.227868	0.500016
H187	H	0.166445	-0.305946	0.000018
H188	H	0.666445	0.194054	0.500018
H189	H	0.835855	-0.266365	0.213762
H190	H	1.335855	0.233635	0.713762
C191	C	0.407748	-0.330628	0.000030
C192	C	0.907748	0.169372	0.500030
C193	C	0.325887	-0.339145	0.000025
C194	C	0.825887	0.160855	0.500025
H195	H	0.432314	-0.381139	0.000041
H196	H	0.932314	0.118861	0.500041
H197	H	0.425484	-0.300243	-0.050277
H198	H	0.925484	0.199757	0.449723
H199	H	0.420964	-0.304737	0.050338
H200	H	0.920964	0.195263	0.550338
H201	H	0.312670	-0.365032	-0.050287
H202	H	0.812670	0.134968	0.449713
H203	H	0.308145	-0.369543	0.050337
H204	H	0.808145	0.130457	0.550337
C205	C	0.769508	-0.236888	0.630565
C206	C	1.269508	0.263112	1.130565
C207	C	0.848684	-0.253567	0.608623
C208	C	1.348684	0.246433	1.108623
H209	H	0.736775	-0.269479	0.599763
H210	H	1.236775	0.230521	1.099763
H211	H	0.759603	-0.246749	0.691139
H212	H	1.259603	0.253251	1.191139
H213	H	0.758447	-0.183123	0.615658
H214	H	1.258447	0.316877	1.115658
H215	H	0.859747	-0.307330	0.623535
H216	H	1.359747	0.192670	1.123535
H217	H	0.858594	-0.243711	0.548035
H218	H	1.358594	0.256289	1.048035
H219	H	0.796687	0.063811	0.000015
H220	H	1.296687	0.563811	0.500015
H221	H	1.088588	0.455082	0.000008
H222	H	1.588588	0.955082	0.500008
H223	H	1.037440	-0.065617	0.786258
H224	H	1.537440	0.434383	1.286258
H225	H	1.018257	-0.084744	0.213728
H226	H	1.518257	0.415256	0.713728
H227	H	1.044835	-0.058265	0.621510
H228	H	1.544835	0.441735	1.121510
C229	C	0.231620	0.031473	-0.000013
C230	C	0.731620	0.531473	0.499987
C231	C	0.173887	-0.026656	-0.000001
C232	C	0.673887	0.473344	0.499999
H233	H	0.207052	0.081983	-0.000026
H234	H	0.707052	0.581983	0.499974
H235	H	0.261217	0.023688	0.050292
H236	H	0.761217	0.523688	0.550292
H237	H	0.265735	0.028178	-0.050323
H238	H	0.765735	0.528178	0.449677
H239	H	0.139775	-0.023364	0.050312
H240	H	0.639775	0.476636	0.550312
H241	H	0.144276	-0.018868	-0.050312
H242	H	0.644276	0.481132	0.449688
H243	H	1.010867	-0.092105	0.378464
H244	H	1.510867	0.407895	0.878464
