data_functionalizedCrystal
_audit_creation_method	'MofGen! by Chris Wilmer'
_symmetry_space_group_name_H-M	'P1'
_symmetry_Int_Tables_number	1
_symmetry_cell_setting	triclinic
loop_
_symmetry_equiv_pos_as_xyz
  x,y,z
_cell_length_a	10.654550
_cell_length_b	19.188930
_cell_length_c	9.730223
_cell_angle_alpha	89.993564
_cell_angle_beta	89.996251
_cell_angle_gamma	83.814841
loop_
_atom_site_label
_atom_site_type_symbol
_atom_site_fract_x
_atom_site_fract_y
_atom_site_fract_z
O1	O	1.665759	0.098059	-0.114420
O2	O	2.165759	0.598059	0.385580
O3	O	1.300083	0.107401	-0.114400
O4	O	1.800083	0.607401	0.385600
O5	O	1.493474	0.001144	-0.114384
O6	O	1.993474	0.501144	0.385616
O7	O	1.472368	0.204317	-0.114436
O8	O	1.972368	0.704317	0.385564
O9	O	1.493471	0.001146	0.114196
O10	O	1.993471	0.501146	0.614196
O11	O	1.300081	0.107404	0.114180
O12	O	1.800081	0.607404	0.614180
O13	O	1.665757	0.098061	0.114160
O14	O	2.165757	0.598061	0.614160
Zn15	Zn	1.482918	0.102733	0.150462
Zn16	Zn	1.982918	0.602733	0.650462
Zn17	Zn	1.482921	0.102730	-0.150702
Zn18	Zn	1.982921	0.602730	0.349298
O19	O	1.472366	0.204319	0.114144
O20	O	1.972366	0.704319	0.614144
C21	C	1.253298	0.106717	-0.000107
C22	C	1.753298	0.606717	0.499893
C23	C	1.113898	0.104664	-0.000098
C24	C	1.613898	0.604664	0.499902
C25	C	1.033089	0.167227	-0.000134
C26	C	1.533089	0.667227	0.499866
C27	C	0.902109	0.165295	-0.000157
C28	C	1.402109	0.665295	0.499843
C29	C	0.932761	0.038231	-0.000114
C30	C	1.432761	0.538231	0.499886
C31	C	1.063738	0.040164	-0.000081
C32	C	1.563738	0.540164	0.499919
C33	C	1.015391	0.240587	-0.000165
C34	C	1.515391	0.740587	0.499835
C35	C	0.884411	0.238654	-0.000188
C36	C	1.384411	0.738654	0.499812
C37	C	1.492789	-0.024871	-0.000090
C38	C	1.992789	0.475129	0.499910
C39	C	1.490737	-0.102389	-0.000078
C40	C	1.990737	0.397611	0.499922
C41	C	1.604213	-0.146570	-0.000078
C42	C	2.104213	0.353430	0.499922
C43	C	1.602285	-0.219407	-0.000099
C44	C	2.102285	0.280593	0.499901
C45	C	1.486876	-0.248058	-0.000094
C46	C	1.986876	0.251942	0.499906
C47	C	1.373386	-0.203867	-0.000102
C48	C	1.873386	0.296133	0.499898
C49	C	1.375316	-0.131032	-0.000094
C50	C	1.875316	0.368968	0.499906
N51	N	1.398658	-0.356639	0.077701
N52	N	1.898658	0.143361	0.577701
N53	N	1.396832	-0.425830	0.077696
N54	N	1.896832	0.074170	0.577696
C55	C	1.481052	-0.467505	-0.000121
C56	C	1.981052	0.032495	0.499879
N57	N	1.567186	-0.437377	-0.077917
N58	N	2.067186	0.062623	0.422083
N59	N	1.569016	-0.368180	-0.077906
N60	N	2.069016	0.131820	0.422094
C61	C	1.484770	-0.327034	-0.000104
C62	C	1.984770	0.172966	0.499896
C63	C	1.592445	-0.590665	-0.000147
C64	C	2.092445	-0.090665	0.499853
C65	C	1.590513	-0.663502	-0.000177
C66	C	2.090513	-0.163502	0.499823
C67	C	1.361610	-0.647960	-0.000166
C68	C	1.861610	-0.147960	0.499834
C69	C	1.363545	-0.575125	-0.000149
C70	C	1.863545	-0.075125	0.499851
C71	C	1.478966	-0.546481	-0.000133
C72	C	1.978966	-0.046481	0.499867
C73	C	1.712541	0.098746	-0.000136
C74	C	2.212541	0.598746	0.499864
C75	C	1.851941	0.100798	-0.000154
C76	C	2.351941	0.600798	0.499846
C77	C	1.473051	0.230334	-0.000153
C78	C	1.973051	0.730334	0.499847
C79	C	1.475102	0.307852	-0.000174
C80	C	1.975102	0.807852	0.499826
N81	N	1.482925	0.102735	0.355998
N82	N	1.982925	0.602735	0.855998
N83	N	1.482924	0.102722	-0.356238
N84	N	1.982924	0.602722	0.143762
C85	C	1.568581	0.055700	0.427932
C86	C	2.068581	0.555700	0.927932
C87	C	1.568577	0.055692	0.571815
C88	C	2.068577	0.555692	1.071815
C89	C	1.397260	0.149759	0.571818
C90	C	1.897260	0.649759	1.071818
C91	C	1.397258	0.149764	0.427938
C92	C	1.897258	0.649764	0.927938
C93	C	1.667493	0.001393	0.427930
C94	C	2.167493	0.501393	0.927930
C95	C	1.667490	0.001385	0.571813
C96	C	2.167490	0.501385	1.071813
H97	H	1.044114	0.269279	0.095493
H98	H	1.544114	0.769279	0.595493
H99	H	1.682922	-0.699475	-0.000185
H100	H	2.182922	-0.199475	0.499815
H101	H	1.282908	-0.095058	-0.000094
H102	H	1.782908	0.404942	0.499906
H103	H	1.129530	-0.010781	-0.000032
H104	H	1.629530	0.489219	0.499968
Br105	Br	1.216757	-0.242748	-0.000112
Br106	Br	1.716757	0.257252	0.499888
H107	H	0.891904	-0.014283	-0.000121
H108	H	1.391904	0.485717	0.499879
Br109	Br	1.204980	-0.686836	-0.000173
Br110	Br	1.704980	-0.186836	0.499827
H111	H	1.686428	-0.567342	-0.000140
H112	H	2.186428	-0.067342	0.499860
H113	H	1.694693	-0.255386	-0.000105
H114	H	2.194693	0.244614	0.499895
H115	H	1.698197	-0.123254	-0.000069
H116	H	2.198197	0.376746	0.499931
H117	H	1.050553	0.263945	-0.098858
H118	H	1.550553	0.763945	0.401142
Br119	Br	1.618406	-0.083130	0.646216
Br120	Br	2.118406	0.416870	1.146216
Br121	Br	0.807492	0.275607	0.164275
Br122	Br	1.307492	0.775607	0.664275
H123	H	1.763748	0.013347	0.610855
H124	H	2.263748	0.513347	1.110855
H125	H	0.842095	0.266294	-0.095863
H126	H	1.342095	0.766294	0.404137
H127	H	1.271141	-0.539151	-0.000142
H128	H	1.771141	-0.039151	0.499858
H129	H	1.327501	0.188057	0.369371
H130	H	1.827501	0.688057	0.869371
H131	H	1.327511	0.188048	0.630407
H132	H	1.827511	0.688048	1.130407
H133	H	1.647186	-0.052270	0.388892
H134	H	2.147186	0.447730	0.888892
H135	H	1.758317	0.018397	0.383294
H136	H	2.258317	0.518397	0.883294
