data_functionalizedCrystal
_audit_creation_method	'MofGen! by Chris Wilmer'
_symmetry_space_group_name_H-M	'P1'
_symmetry_Int_Tables_number	1
_symmetry_cell_setting	triclinic
loop_
_symmetry_equiv_pos_as_xyz
  x,y,z
_cell_length_a	18.215407
_cell_length_b	18.215399
_cell_length_c	21.395361
_cell_angle_alpha	90.032211
_cell_angle_beta	89.968844
_cell_angle_gamma	89.980167
loop_
_atom_site_label
_atom_site_type_symbol
_atom_site_fract_x
_atom_site_fract_y
_atom_site_fract_z
Zn1	Zn	1.125042	-0.416094	0.249437
Zn2	Zn	1.625042	0.083906	0.749437
Zn3	Zn	1.124938	-0.293019	0.354217
Zn4	Zn	1.624938	0.206981	0.854217
Zn5	Zn	1.001975	-0.293041	0.249458
Zn6	Zn	1.501975	0.206959	0.749458
Zn7	Zn	1.001928	-0.416044	0.354182
Zn8	Zn	1.501928	0.083956	0.854182
O9	O	1.063471	-0.354549	0.301824
O10	O	1.563471	0.145451	0.801824
O11	O	1.228013	-0.399779	0.263343
O12	O	1.728013	0.100221	0.763343
O13	O	1.108603	-0.190037	0.340344
O14	O	1.608603	0.309963	0.840344
O15	O	1.018363	-0.309395	0.161777
O16	O	1.518363	0.190605	0.661777
O17	O	1.227936	-0.309356	0.340324
O18	O	1.727936	0.190644	0.840324
O19	O	1.108780	-0.399802	0.161762
O20	O	1.608780	0.100198	0.661762
O21	O	1.018262	-0.190054	0.263378
O22	O	1.518262	0.309946	0.763378
O23	O	0.898984	-0.309346	0.263344
O24	O	1.398984	0.190654	0.763344
O25	O	1.018284	-0.519035	0.340264
O26	O	1.518284	-0.019035	0.840264
O27	O	0.898950	-0.399715	0.340284
O28	O	1.398950	0.100285	0.840284
O29	O	1.108735	-0.519072	0.263309
O30	O	1.608735	-0.019072	0.763309
O31	O	1.108557	-0.309307	0.441890
O32	O	1.608557	0.190693	0.941890
O33	O	1.018183	-0.399693	0.441865
O34	O	1.518183	0.100307	0.941865
C35	C	0.872265	-0.354528	0.301813
C36	C	1.372265	0.145472	0.801813
C37	C	0.790466	-0.354537	0.301823
C38	C	1.290466	0.145463	0.801823
C39	C	0.602273	-0.401533	0.341949
C40	C	1.102273	0.098467	0.841949
C41	C	0.525414	-0.401542	0.341951
C42	C	1.025414	0.098458	0.841951
C43	C	0.525420	-0.307582	0.261709
C44	C	1.025420	0.192418	0.761709
C45	C	0.602278	-0.307577	0.261705
C46	C	1.102278	0.192423	0.761705
C47	C	0.640702	-0.354551	0.301828
C48	C	1.140702	0.145449	0.801828
C49	C	0.486986	-0.354566	0.301835
C50	C	0.986986	0.145434	0.801835
C51	C	0.403652	-0.354575	0.301837
C52	C	0.903652	0.145425	0.801837
C53	C	0.724041	-0.354543	0.301826
C54	C	1.224041	0.145457	0.801826
C55	C	1.063516	-0.546502	0.301780
C56	C	1.563516	-0.046502	0.801780
C57	C	1.063535	-0.628301	0.301762
C58	C	1.563535	-0.128301	0.801762
C59	C	1.110650	-0.816516	0.261654
C60	C	1.610650	-0.316516	0.761654
C61	C	1.110658	-0.893375	0.261636
C62	C	1.610658	-0.393375	0.761636
C63	C	1.016472	-0.893325	0.341773
C64	C	1.516472	-0.393325	0.841773
C65	C	1.016460	-0.816467	0.341788
C66	C	1.516460	-0.316467	0.841788
C67	C	1.063553	-0.778065	0.301729
C68	C	1.563553	-0.278065	0.801729
C69	C	1.063574	-0.931781	0.301696
C70	C	1.563574	-0.431781	0.801696
C71	C	1.063583	-1.015115	0.301677
C72	C	1.563583	-0.515115	0.801677
C73	C	1.063543	-0.694726	0.301748
C74	C	1.563543	-0.194726	0.801748
C75	C	1.255424	-0.354571	0.301835
C76	C	1.755424	0.145429	0.801835
C77	C	1.337223	-0.354580	0.301840
C78	C	1.837223	0.145420	0.801840
C79	C	1.063374	-0.354508	0.464611
C80	C	1.563374	0.145492	0.964611
C81	C	1.063399	-0.354516	0.534252
C82	C	1.563399	0.145484	1.034252
C83	C	1.063468	-0.163343	0.301821
C84	C	1.563468	0.336657	0.801821
C85	C	1.063592	-0.081545	0.301663
C86	C	1.563592	0.418455	0.801663
C87	C	1.063588	-0.354607	0.138400
C88	C	1.563588	0.145393	0.638400
C89	C	1.063638	-0.354631	0.068759
C90	C	1.563638	0.145369	0.568759
C91	C	1.110499	-0.307500	0.566958
C92	C	1.610499	0.192500	1.066958
C93	C	1.110533	-0.307516	0.632394
C94	C	1.610533	0.192484	1.132394
C95	C	1.063455	-0.354541	0.665121
C96	C	1.563455	0.145459	1.165121
C97	C	1.016352	-0.401566	0.632407
C98	C	1.516352	0.098434	1.132407
C99	C	1.016324	-0.401553	0.566973
C100	C	1.516324	0.098447	1.066973
C101	C	0.997191	-0.360308	0.768835
C102	C	1.497191	0.139692	1.268835
C103	C	0.997217	-0.360315	0.834268
C104	C	1.497217	0.139685	1.334268
C105	C	1.063540	-0.354584	0.866941
C106	C	1.563540	0.145416	1.366941
C107	C	1.129839	-0.348830	0.834174
C108	C	1.629839	0.151170	1.334174
C109	C	1.129811	-0.348817	0.768739
C110	C	1.629811	0.151183	1.268739
C111	C	1.063480	-0.354560	0.736073
C112	C	1.563480	0.145440	1.236073
C113	C	1.110681	-0.307584	0.970600
C114	C	1.610681	0.192416	1.470600
C115	C	1.110717	-0.307605	1.036036
C116	C	1.610717	0.192395	1.536036
C117	C	1.016528	-0.401651	1.036049
C118	C	1.516528	0.098349	1.536049
C119	C	1.016499	-0.401633	0.970613
C120	C	1.516499	0.098367	1.470613
C121	C	1.063575	-0.354595	0.937893
C122	C	1.563575	0.145405	1.437893
H123	H	1.148994	-0.785251	0.229034
H124	H	1.648994	-0.285251	0.729034
O125	O	0.488004	-0.447076	0.380957
O126	O	0.988004	0.052924	0.880957
C127	C	0.443517	-0.405094	0.421391
C128	C	0.943517	0.094906	0.921391
H129	H	0.431990	-0.349372	0.399233
H130	H	0.931990	0.150628	0.899233
H131	H	0.389480	-0.435058	0.429823
H132	H	0.889480	0.064942	0.929823
H133	H	0.473107	-0.396904	0.467813
H134	H	0.973107	0.103096	0.967813
O135	O	0.970769	-0.930550	0.380775
O136	O	1.470769	-0.430550	0.880775
C137	C	0.986821	-0.911760	0.443226
C138	C	1.486821	-0.411760	0.943226
H139	H	1.015100	-0.855961	0.444535
H140	H	1.515100	-0.355961	0.944535
H141	H	0.933689	-0.909111	0.471320
H142	H	1.433689	-0.409111	0.971320
H143	H	1.024651	-0.955014	0.464321
H144	H	1.524651	-0.455014	0.964321
H145	H	1.183793	-0.344134	0.742061
H146	H	1.683793	0.155866	1.242061
O147	O	0.970811	-0.779030	0.380751
O148	O	1.470811	-0.279030	0.880751
C149	C	1.012677	-0.734577	0.421237
C150	C	1.512677	-0.234577	0.921237
H151	H	1.068463	-0.723086	0.399142
H152	H	1.568463	-0.223086	0.899142
H153	H	0.982689	-0.680520	0.429640
H154	H	1.482689	-0.180520	0.929640
H155	H	1.020735	-0.764177	0.467665
H156	H	1.520735	-0.264177	0.967665
H157	H	1.149076	-0.269321	1.062664
H158	H	1.649076	0.230679	1.562664
H159	H	0.494126	-0.269336	0.229043
H160	H	0.994126	0.230664	0.729043
H161	H	0.633568	-0.269319	0.229029
H162	H	1.133568	0.230681	0.729029
H163	H	1.183846	-0.344163	0.860774
H164	H	1.683846	0.155837	1.360774
H165	H	1.148833	-0.269201	0.540319
H166	H	1.648833	0.230799	1.040319
H167	H	0.977969	-0.439840	0.540344
H168	H	1.477969	0.060160	1.040344
H169	H	0.633556	-0.439784	0.374619
H170	H	1.133556	0.060216	0.874619
H171	H	1.148890	-0.269231	0.659028
H172	H	1.648890	0.230769	1.159028
H173	H	1.149008	-0.924678	0.229001
H174	H	1.649008	-0.424678	0.729001
O175	O	1.156480	-0.261873	0.938907
O176	O	1.656480	0.238127	1.438907
C177	C	1.198052	-0.220369	0.981809
C178	C	1.698052	0.279631	1.481809
H179	H	1.200608	-0.250527	1.028431
H180	H	1.700608	0.249473	1.528431
H181	H	1.256030	-0.212564	0.962860
H182	H	1.756030	0.287436	1.462860
H183	H	1.171135	-0.164454	0.988829
H184	H	1.671135	0.335546	1.488829
O185	O	0.970822	-0.447265	1.067929
O186	O	1.470822	0.052735	1.567929
C187	C	0.980961	-0.437212	1.132697
C188	C	1.480961	0.062788	1.632697
H189	H	1.005097	-0.380441	1.141652
H190	H	1.505097	0.119559	1.641652
H191	H	0.925846	-0.442163	1.157606
H192	H	1.425846	0.057837	1.657606
H193	H	1.020138	-0.480903	1.151205
H194	H	1.520138	0.019097	1.651205
O195	O	0.970669	-0.447321	0.938936
O196	O	1.470669	0.052679	1.438936
C197	C	0.929135	-0.488843	0.981851
C198	C	1.429135	0.011157	1.481851
H199	H	0.926626	-0.458708	1.028516
H200	H	1.426626	0.041292	1.528516
H201	H	0.871138	-0.496633	0.962985
H202	H	1.371138	0.003367	1.462985
H203	H	0.956053	-0.544764	0.988753
H204	H	1.456053	-0.044764	1.488753
H205	H	0.943233	-0.364993	0.860943
H206	H	1.443233	0.135007	1.360943
H207	H	0.943178	-0.364978	0.742239
H208	H	1.443178	0.135022	1.242239
H209	H	0.978021	-0.439855	0.659058
H210	H	1.478021	0.060145	1.159058
