data_functionalizedCrystal
_audit_creation_method	'MofGen! by Chris Wilmer'
_symmetry_space_group_name_H-M	'P1'
_symmetry_Int_Tables_number	1
_symmetry_cell_setting	triclinic
loop_
_symmetry_equiv_pos_as_xyz
  x,y,z
_cell_length_a	16.974800
_cell_length_b	12.503572
_cell_length_c	16.992695
_cell_angle_alpha	93.763007
_cell_angle_beta	92.978326
_cell_angle_gamma	89.865752
loop_
_atom_site_label
_atom_site_type_symbol
_atom_site_fract_x
_atom_site_fract_y
_atom_site_fract_z
O1	O	1.055342	-0.002449	-0.099998
O2	O	1.555342	0.497551	0.400002
O3	O	0.826891	0.017419	-0.111728
O4	O	1.326891	0.517419	0.388272
O5	O	0.940200	0.007556	0.008282
O6	O	1.440200	0.507556	0.508282
O7	O	0.942033	0.007414	-0.220008
O8	O	1.442033	0.507414	0.279992
O9	O	0.931680	-0.170344	-0.000758
O10	O	1.431680	0.329656	0.499242
O11	O	0.818370	-0.160481	-0.120769
O12	O	1.318370	0.339519	0.379231
O13	O	1.046822	-0.180350	-0.109038
O14	O	1.546822	0.319650	0.390962
Cu15	Cu	0.931818	-0.186659	-0.115729
Cu16	Cu	1.431818	0.313341	0.384271
Cu17	Cu	0.941895	0.023729	-0.105038
Cu18	Cu	1.441895	0.523729	0.394962
O19	O	0.933512	-0.170487	-0.229049
O20	O	1.433512	0.329513	0.270951
C21	C	0.793264	-0.068977	-0.115636
C22	C	1.293264	0.431023	0.384364
C23	C	0.705759	-0.061367	-0.113802
C24	C	1.205759	0.438633	0.386198
C25	C	0.660010	-0.154768	-0.117866
C26	C	1.160010	0.345232	0.382134
C27	C	0.577791	-0.147621	-0.116130
C28	C	1.077791	0.352379	0.383870
C29	C	0.541323	-0.047072	-0.110336
C30	C	1.041323	0.452928	0.389664
C31	C	0.587079	0.046336	-0.106269
C32	C	1.087079	0.546336	0.393731
C33	C	0.669297	0.039188	-0.107999
C34	C	1.169297	0.539188	0.392001
C35	C	0.295927	-0.015294	-0.104627
C36	C	0.795927	0.484706	0.395373
C37	C	0.213703	-0.008153	-0.102900
C38	C	0.713703	0.491847	0.397100
C39	C	0.204421	-0.202111	-0.112760
C40	C	0.704421	0.297889	0.387240
C41	C	0.286640	-0.209250	-0.114495
C42	C	0.786640	0.290750	0.385505
C43	C	0.332389	-0.115843	-0.110423
C44	C	0.832389	0.384157	0.389577
N45	N	0.457282	-0.039764	-0.108564
N46	N	0.957282	0.460236	0.391436
N47	N	0.416429	-0.123152	-0.112190
N48	N	0.916429	0.376848	0.387810
N49	N	0.924736	-0.334635	-0.123248
N50	N	1.424736	0.165365	0.376752
C51	C	0.914319	-0.552844	-0.134316
C52	C	1.414319	-0.052844	0.365684
C53	C	0.959397	-0.610094	-0.086447
C54	C	1.459397	-0.110094	0.413553
C55	C	0.953600	-0.731513	-0.092605
C56	C	1.453600	-0.231513	0.407395
C57	C	0.920114	-0.431414	-0.128159
C58	C	1.420114	0.068586	0.371841
C59	C	1.080449	-0.093951	-0.105130
C60	C	1.580449	0.406049	0.394870
C61	C	1.167953	-0.101554	-0.106964
C62	C	1.667953	0.398446	0.393036
C63	C	0.933584	-0.081189	0.032982
C64	C	1.433584	0.418811	0.532982
C65	C	0.926553	-0.080577	0.120050
C66	C	1.426553	0.419423	0.620050
N67	N	0.948982	0.171704	-0.097512
N68	N	1.448982	0.671704	0.402488
C69	C	0.940129	-0.081739	-0.253749
C70	C	1.440129	0.418261	0.246251
C71	C	0.947159	-0.082344	-0.340816
C72	C	1.447159	0.417656	0.159184
C73	C	0.994387	-0.086478	0.170067
C74	C	1.494387	0.413522	0.670067
C75	C	0.987777	-0.085893	0.251876
C76	C	1.487777	0.414107	0.751876
C77	C	0.913332	-0.079415	0.283665
C78	C	1.413332	0.420585	0.783665
C79	C	0.845494	-0.073511	0.233641
C80	C	1.345494	0.426489	0.733641
C81	C	0.852105	-0.074088	0.151834
C82	C	1.352105	0.425912	0.651834
C83	C	0.885932	-0.077017	0.527354
C84	C	1.385932	0.422983	1.027354
C85	C	0.879326	-0.076443	0.609167
C86	C	1.379326	0.423557	1.109167
C87	C	1.021609	-0.088824	0.627396
C88	C	1.521609	0.411176	1.127396
C89	C	1.028214	-0.089407	0.545586
C90	C	1.528214	0.410593	1.045586
C91	C	0.960376	-0.083497	0.495570
C92	C	1.460376	0.416503	0.995570
N93	N	0.906574	-0.078820	0.367287
N94	N	1.406574	0.421180	0.867287
N95	N	0.967135	-0.084084	0.411951
N96	N	1.467135	0.415916	0.911951
H97	H	0.689695	-0.236646	-0.122591
H98	H	1.189695	0.263354	0.377409
H99	H	0.871378	-0.595013	-0.179921
H100	H	1.371378	-0.095013	0.320079
H101	H	0.796868	-0.069283	0.111110
H102	H	1.296868	0.430717	0.611110
H103	H	0.818701	-0.071185	0.635045
H104	H	1.318701	0.428815	1.135045
H105	H	1.043014	-0.090700	0.292598
H106	H	1.543014	0.409300	0.792598
C107	C	0.527469	-0.250362	-0.120608
C108	C	1.027469	0.249638	0.379392
H109	H	0.560963	-0.311268	-0.124317
H110	H	1.060963	0.188732	0.375683
H111	H	0.498335	-0.251890	-0.074453
H112	H	0.998335	0.248110	0.425547
H113	H	0.492071	-0.251322	-0.165828
H114	H	0.992071	0.248678	0.334172
H115	H	1.055007	-0.091759	0.144191
H116	H	1.555007	0.408241	0.644191
H117	H	0.557381	0.128205	-0.101545
H118	H	1.057381	0.628205	0.398455
C119	C	0.326753	-0.319852	-0.120865
C120	C	0.826753	0.180148	0.379135
H121	H	0.382271	-0.310731	-0.121320
H122	H	0.882271	0.189269	0.378680
H123	H	0.314504	-0.358805	-0.076922
H124	H	0.814504	0.141195	0.423078
H125	H	0.308239	-0.358248	-0.168298
H126	H	0.808239	0.141752	0.331702
C127	C	0.719625	0.141925	-0.103530
C128	C	1.219625	0.641925	0.396470
H129	H	0.773814	0.123268	-0.105382
H130	H	1.273814	0.623268	0.394618
H131	H	0.704928	0.183222	-0.146905
H132	H	1.204928	0.683222	0.353095
H133	H	0.711190	0.182662	-0.055529
H134	H	1.211190	0.682662	0.444471
H135	H	1.088834	-0.094682	0.519710
H136	H	1.588834	0.405318	1.019710
C137	C	0.763607	-0.066388	0.268607
C138	C	1.263607	0.433612	0.768607
H139	H	0.769383	-0.066901	0.324492
H140	H	1.269383	0.433099	0.824492
H141	H	0.738429	-0.001904	0.254605
H142	H	1.238429	0.498096	0.754605
H143	H	0.732492	-0.125988	0.248302
H144	H	1.232492	0.374012	0.748302
H145	H	1.076839	-0.093633	0.668128
H146	H	1.576839	0.406367	1.168128
C147	C	1.017437	-0.553130	-0.024859
C148	C	1.517437	-0.053130	0.475141
H149	H	1.013785	-0.477814	-0.028759
H150	H	1.513785	0.022186	0.471241
H151	H	1.004673	-0.570373	0.026589
H152	H	1.504673	-0.070373	0.526589
H153	H	1.069674	-0.576047	-0.034433
H154	H	1.569674	-0.076047	0.465567
C155	C	0.154094	-0.304849	-0.117266
C156	C	0.654094	0.195151	0.382734
H157	H	0.099905	-0.286195	-0.115411
H158	H	0.599905	0.213805	0.384589
H159	H	0.162543	-0.345563	-0.165268
H160	H	0.662543	0.154437	0.334732
H161	H	0.168779	-0.346168	-0.073894
H162	H	0.668779	0.153832	0.426106
C163	C	0.173588	0.102456	-0.096543
C164	C	0.673588	0.602456	0.403457
H165	H	0.212610	0.157063	-0.094366
H166	H	0.712610	0.657063	0.405634
H167	H	0.138584	0.109534	-0.141357
H168	H	0.638584	0.609534	0.358643
H169	H	0.144831	0.109010	-0.049980
H170	H	0.644831	0.609010	0.450020
C171	C	0.346240	0.087450	-0.100158
C172	C	0.846240	0.587450	0.399842
H173	H	0.312742	0.148354	-0.096469
H174	H	0.812742	0.648354	0.403531
H175	H	0.381638	0.088424	-0.054943
H176	H	0.881638	0.588424	0.445057
H177	H	0.375372	0.088969	-0.146319
H178	H	0.875372	0.588969	0.353681
H179	H	0.830694	-0.072205	0.486640
H180	H	1.330694	0.427795	0.986640
