data_functionalizedCrystal
_audit_creation_method	'MofGen! by Chris Wilmer'
_symmetry_space_group_name_H-M	'P1'
_symmetry_Int_Tables_number	1
_symmetry_cell_setting	triclinic
loop_
_symmetry_equiv_pos_as_xyz
  x,y,z
_cell_length_a	18.050590
_cell_length_b	18.050589
_cell_length_c	21.395356
_cell_angle_alpha	89.979995
_cell_angle_beta	89.999300
_cell_angle_gamma	90.017386
loop_
_atom_site_label
_atom_site_type_symbol
_atom_site_fract_x
_atom_site_fract_y
_atom_site_fract_z
Zn1	Zn	1.135303	-0.295908	-0.354024
Zn2	Zn	1.135211	-0.420095	-0.249256
Zn3	Zn	1.011119	-0.295900	-0.249289
Zn4	Zn	1.011070	-0.420037	-0.354025
O5	O	1.073176	-0.357985	-0.301649
O6	O	1.239215	-0.312410	-0.340112
O7	O	1.118731	-0.403642	-0.161583
O8	O	1.027652	-0.191977	-0.263195
O9	O	1.239148	-0.403649	-0.263140
O10	O	1.118889	-0.191983	-0.340143
O11	O	1.027562	-0.312396	-0.161607
O12	O	0.907188	-0.312340	-0.263197
O13	O	1.027568	-0.403550	-0.441703
O14	O	0.907152	-0.403543	-0.340146
O15	O	1.118842	-0.312353	-0.441702
O16	O	1.118684	-0.524012	-0.263141
O17	O	1.027479	-0.523970	-0.340114
C18	C	0.880224	-0.357935	-0.301676
C19	C	0.797678	-0.357931	-0.301702
C20	C	0.598229	-0.407669	-0.343448
C21	C	0.548837	-0.339953	-0.358861
C22	C	0.646548	-0.357972	-0.301671
C23	C	0.548859	-0.425727	-0.286257
C24	C	0.500562	-0.358018	-0.301643
C25	C	0.598242	-0.290221	-0.317115
C26	C	0.598268	-0.376040	-0.244484
C27	C	0.548898	-0.308277	-0.259876
C28	C	0.730646	-0.357947	-0.301689
C29	C	0.416466	-0.358036	-0.301625
C30	C	1.073086	-0.550937	-0.301638
C31	C	1.073116	-0.633483	-0.301655
C32	C	1.023567	-0.832938	-0.343498
C33	C	1.005467	-0.882370	-0.286329
C34	C	1.073189	-0.784614	-0.301663
C35	C	1.091325	-0.882263	-0.358838
C36	C	1.073258	-0.930599	-0.301676
C37	C	1.055054	-0.832959	-0.244464
C38	C	1.140942	-0.832847	-0.317011
C39	C	1.122869	-0.882257	-0.259803
C40	C	1.073147	-0.700515	-0.301656
C41	C	1.073300	-1.014695	-0.301676
C42	C	1.266881	-0.358037	-0.301622
C43	C	1.349427	-0.358059	-0.301610
C44	C	1.073210	-0.357946	-0.465072
C45	C	1.073224	-0.357930	-0.534713
C46	C	1.073286	-0.164280	-0.301673
C47	C	1.073333	-0.081734	-0.301683
C48	C	1.120780	-0.405286	-1.036498
C49	C	1.120766	-0.405309	-0.971062
C50	C	1.073295	-0.357812	-0.938352
C51	C	1.025820	-0.310301	-0.971082
C52	C	1.025830	-0.310284	-1.036516
C53	C	1.067454	-0.290928	-0.834692
C54	C	1.067450	-0.290944	-0.769259
C55	C	1.073262	-0.357865	-0.736531
C56	C	1.079094	-0.424772	-0.769243
C57	C	1.079103	-0.424755	-0.834678
C58	C	1.073279	-0.357825	-0.867399
C59	C	1.120716	-0.405402	-0.632856
C60	C	1.120697	-0.405427	-0.567419
C61	C	1.025755	-0.310412	-0.567440
C62	C	1.025769	-0.310394	-0.632876
C63	C	1.073254	-0.357888	-0.665579
C64	C	1.073185	-0.357971	-0.138861
C65	C	1.073314	-0.357778	-0.069220
H66	H	0.527163	-0.483006	-0.273233
H67	H	0.619998	-0.391326	-0.196148
H68	H	0.948203	-0.904140	-0.273359
C69	C	0.627417	-0.212815	-0.334786
C70	C	0.711432	-0.198494	-0.338089
C71	C	0.740608	-0.121089	-0.355758
C72	C	0.685769	-0.058006	-0.370124
C73	C	0.601749	-0.072325	-0.366821
C74	C	0.572573	-0.149729	-0.349152
H75	H	0.752031	-0.245193	-0.327454
H76	H	0.802805	-0.110490	-0.358203
H77	H	0.707367	-0.000706	-0.383204
H78	H	0.561149	-0.025625	-0.377456
H79	H	0.510375	-0.160329	-0.346707
C80	C	0.519496	-0.319325	-0.424175
C81	C	0.540074	-0.244190	-0.453548
C82	C	0.510736	-0.223566	-0.518862
C83	C	0.460821	-0.278079	-0.554804
C84	C	0.440240	-0.353219	-0.525432
C85	C	0.469578	-0.373843	-0.460118
H86	H	0.577026	-0.203832	-0.426941
H87	H	0.525971	-0.167942	-0.540605
H88	H	0.439103	-0.262812	-0.603154
H89	H	0.403288	-0.393577	-0.552039
H90	H	0.454343	-0.429467	-0.438375
H91	H	0.527374	-0.266222	-0.224535
C92	C	0.966799	-0.803673	-0.391225
C93	C	0.992640	-0.754825	-0.446078
C94	C	0.935871	-0.725559	-0.493800
C95	C	0.853262	-0.745141	-0.486670
C96	C	0.827417	-0.793992	-0.431814
C97	C	0.884186	-0.823258	-0.384092
H98	H	1.053796	-0.740327	-0.451358
H99	H	0.955004	-0.689396	-0.534408
H100	H	0.811238	-0.723477	-0.521997
H101	H	0.766261	-0.808490	-0.426534
H102	H	0.865053	-0.859421	-0.343484
C103	C	1.034283	-0.803830	-0.179128
C104	C	1.030381	-0.719824	-0.167055
C105	C	1.009612	-0.690694	-0.101721
C106	C	0.992746	-0.745570	-0.048461
C107	C	0.996647	-0.829582	-0.060533
C108	C	1.017416	-0.858712	-0.125867
H109	H	1.042867	-0.679197	-0.206482
H110	H	1.006724	-0.628503	-0.092784
H111	H	0.977371	-0.724006	-0.000097
H112	H	0.984161	-0.870209	-0.021106
H113	H	1.020304	-0.920903	-0.134803
C114	C	1.179592	-0.911347	-0.211964
C115	C	1.171263	-0.891716	-0.142280
C116	C	1.227978	-0.920813	-0.094438
C117	C	1.293023	-0.969540	-0.116281
C118	C	1.301354	-0.989173	-0.185969
C119	C	1.244638	-0.960076	-0.233810
H120	H	1.123111	-0.855643	-0.126107
H121	H	1.221811	-0.906279	-0.042851
H122	H	1.335007	-0.991079	-0.080866
H123	H	1.349506	-1.025246	-0.202141
H124	H	1.250806	-0.974610	-0.285398
H125	H	1.198194	-0.811079	-0.330009
C126	C	1.112015	-0.911522	-0.424150
C127	C	1.063419	-0.892044	-0.480980
C128	C	1.084103	-0.921301	-0.546293
C129	C	1.153382	-0.970035	-0.554776
C130	C	1.201983	-0.989515	-0.497944
C131	C	1.181299	-0.960258	-0.432632
H132	H	1.012130	-0.855966	-0.474702
H133	H	1.048125	-0.906880	-0.588364
H134	H	1.168693	-0.991692	-0.603125
H135	H	1.253272	-1.025593	-0.504222
H136	H	1.217277	-0.974679	-0.390561
C137	C	1.173014	-0.457534	-1.072461
C138	C	1.140827	-0.515832	-1.117441
C139	C	1.193064	-0.568082	-1.153401
C140	C	1.277489	-0.562034	-1.144383
C141	C	1.309680	-0.503733	-1.099402
C142	C	1.257443	-0.451483	-1.063441
H143	H	1.078326	-0.520312	-1.124118
H144	H	1.169233	-0.611240	-1.186699
H145	H	1.316158	-0.600712	-1.171004
H146	H	1.372181	-0.499254	-1.092725
H147	H	1.281274	-0.408325	-1.030143
H148	H	0.987168	-0.271630	-0.944445
H149	H	1.062706	-0.236463	-0.742630
C150	C	1.172986	-0.457566	-0.935057
C151	C	1.225216	-0.509806	-0.971029
C152	C	1.277436	-0.562062	-0.935027
C153	C	1.277426	-0.562077	-0.863052
C154	C	1.225194	-0.509835	-0.827075
C155	C	1.172974	-0.457580	-0.863078
H156	H	1.225225	-0.509797	-1.024313
H157	H	1.316101	-0.600735	-0.961659
H158	H	1.316082	-0.600759	-0.836400
H159	H	1.225185	-0.509844	-0.773791
H160	H	1.134308	-0.418907	-0.836446
H161	H	1.083849	-0.479233	-0.861309
H162	H	1.083828	-0.479266	-0.742597
H163	H	1.159378	-0.444076	-0.659485
C164	C	0.973618	-0.258018	-1.072515
C165	C	0.915304	-0.290172	-1.117504
C166	C	0.863094	-0.237904	-1.153503
C167	C	0.869197	-0.153483	-1.144514
C168	C	0.927513	-0.121324	-1.099523
C169	C	0.979724	-0.173592	-1.063523
H170	H	0.910784	-0.352670	-1.124160
H171	H	0.819924	-0.261711	-1.186809
H172	H	0.830548	-0.114791	-1.171163
H173	H	0.932034	-0.058826	-1.092866
H174	H	1.022894	-0.149786	-1.030218
C175	C	1.172912	-0.457689	-0.531422
C176	C	1.225141	-0.509926	-0.567398
C177	C	1.277357	-0.562190	-0.531400
C178	C	1.277345	-0.562216	-0.459425
C179	C	1.225114	-0.509977	-0.423444
C180	C	1.172898	-0.457714	-0.459442
H181	H	1.225152	-0.509909	-0.620682
H182	H	1.316022	-0.600860	-0.558035
H183	H	1.315998	-0.600904	-0.432776
H184	H	1.225103	-0.509995	-0.370160
H185	H	1.134233	-0.419043	-0.432807
H186	H	0.987101	-0.271740	-0.540808
H187	H	0.987121	-0.271705	-0.659519
C188	C	1.061068	-0.217313	-0.870697
C189	C	0.992529	-0.167664	-0.861723
C190	C	0.986144	-0.094055	-0.897730
C191	C	1.048298	-0.070094	-0.942712
C192	C	1.116842	-0.119743	-0.951689
C193	C	1.123227	-0.193353	-0.915681
H194	H	0.946514	-0.185401	-0.828422
H195	H	0.935403	-0.057301	-0.891085
H196	H	1.043572	-0.015604	-0.969367
H197	H	1.162857	-0.102007	-0.984989
H198	H	1.173968	-0.230107	-0.922327
H199	H	0.619892	-0.449622	-0.378816
