data_functionalizedCrystal
_audit_creation_method	'MofGen! by Chris Wilmer'
_symmetry_space_group_name_H-M	'P1'
_symmetry_Int_Tables_number	1
_symmetry_cell_setting	triclinic
loop_
_symmetry_equiv_pos_as_xyz
  x,y,z
_cell_length_a	16.974800
_cell_length_b	16.992695
_cell_length_c	15.455313
_cell_angle_alpha	92.847427
_cell_angle_beta	90.973911
_cell_angle_gamma	87.021674
loop_
_atom_site_label
_atom_site_type_symbol
_atom_site_fract_x
_atom_site_fract_y
_atom_site_fract_z
O1	O	1.055370	0.099968	0.001980
O2	O	1.555370	0.599968	0.501980
O3	O	0.826692	0.111944	-0.014081
O4	O	1.326692	0.611944	0.485919
O5	O	0.940114	-0.008189	-0.006108
O6	O	1.440114	0.491811	0.493892
O7	O	0.941948	0.220100	-0.005993
O8	O	1.441948	0.720100	0.494007
O9	O	0.933626	-0.001347	0.137698
O10	O	1.433626	0.498653	0.637698
O11	O	0.820204	0.118785	0.129725
O12	O	1.320204	0.618785	0.629725
O13	O	1.048882	0.106809	0.145786
O14	O	1.548882	0.606809	0.645786
Cu15	Cu	0.933951	0.113422	0.150886
Cu16	Cu	1.433951	0.613422	0.650886
Cu17	Cu	0.941623	0.105331	-0.019181
Cu18	Cu	1.441623	0.605331	0.480819
O19	O	0.935460	0.226941	0.137813
O20	O	1.435460	0.726941	0.637813
C21	C	0.794052	0.114783	0.055758
C22	C	1.294052	0.614783	0.555758
C23	C	0.706461	0.113043	0.049607
C24	C	1.206461	0.613043	0.549607
C25	C	0.661778	0.115953	0.125107
C26	C	1.161778	0.615953	0.625107
C27	C	0.579478	0.114306	0.119330
C28	C	1.079478	0.614306	0.619330
C29	C	0.541861	0.109754	0.038051
C30	C	1.041861	0.609754	0.538051
C31	C	0.586550	0.106842	-0.037456
C32	C	1.086550	0.606842	0.462544
C33	C	0.668849	0.108483	-0.031677
C34	C	1.168849	0.608483	0.468323
C35	C	0.296102	0.104438	0.012363
C36	C	0.796102	0.604438	0.512363
C37	C	0.213796	0.102799	0.006591
C38	C	0.713796	0.602799	0.506591
C39	C	0.206730	0.110262	0.163377
C40	C	0.706730	0.610262	0.663377
C41	C	0.289031	0.111908	0.169148
C42	C	0.789031	0.611908	0.669148
C43	C	0.333713	0.108991	0.093642
C44	C	0.833713	0.608991	0.593642
N45	N	0.457736	0.108072	0.032143
N46	N	0.957736	0.608072	0.532143
N47	N	0.417836	0.110667	0.099550
N48	N	0.917836	0.610667	0.599550
C49	C	0.934511	-0.033986	0.065629
C50	C	1.434511	0.466014	0.565629
C51	C	0.927474	-0.121046	0.065135
C52	C	1.427474	0.378954	0.565135
C53	C	0.995375	-0.171136	0.069905
C54	C	1.495375	0.328864	0.569905
C55	C	0.988758	-0.252938	0.069432
C56	C	1.488758	0.247062	0.569432
C57	C	0.914240	-0.284647	0.064195
C58	C	1.414240	0.215353	0.564195
C59	C	0.846334	-0.234550	0.059423
C60	C	1.346334	0.265450	0.559423
C61	C	0.852952	-0.152750	0.059889
C62	C	1.352952	0.347250	0.559889
C63	C	0.886813	-0.528306	0.062257
C64	C	1.386813	-0.028306	0.562257
C65	C	0.880200	-0.610112	0.061793
C66	C	1.380200	-0.110112	0.561793
C67	C	1.022624	-0.628494	0.071801
C68	C	1.522624	-0.128494	0.571801
C69	C	1.029235	-0.546692	0.072272
C70	C	1.529235	-0.046692	0.572272
C71	C	0.961330	-0.496602	0.067495
C72	C	1.461330	0.003398	0.567495
N73	N	0.907475	-0.368261	0.063714
N74	N	1.407475	0.131739	0.563714
N75	N	0.968096	-0.412990	0.067970
N76	N	1.468096	0.087010	0.567970
C77	C	1.081522	0.103969	0.075945
C78	C	1.581522	0.603969	0.575945
C79	C	1.169114	0.105709	0.082091
C80	C	1.669114	0.605709	0.582091
C81	C	0.941063	0.252738	0.066074
C82	C	1.441063	0.752738	0.566074
C83	C	0.948100	0.339798	0.066563
C84	C	1.448100	0.839798	0.566563
N85	N	0.928560	0.119112	0.270503
N86	N	1.428560	0.619112	0.770503
N87	N	0.947020	0.099635	-0.138797
N88	N	1.447020	0.599635	0.361203
C89	C	0.976765	0.068094	0.319285
C90	C	1.476765	0.568094	0.819285
C91	C	0.972696	0.072404	0.409807
C92	C	1.472696	0.572404	0.909807
C93	C	0.920425	0.127737	0.451545
C94	C	1.420425	0.627737	0.951545
C95	C	0.872215	0.178757	0.402756
C96	C	1.372215	0.678757	0.902756
C97	C	0.876281	0.174442	0.312236
C98	C	1.376281	0.674442	0.812236
C99	C	0.902875	0.146340	0.721893
C100	C	1.402875	0.646340	1.221893
C101	C	0.898815	0.150652	0.812420
C102	C	1.398815	0.650652	1.312420
C103	C	0.999295	0.044298	0.819465
C104	C	1.499295	0.544298	1.319465
C105	C	1.003359	0.039992	0.728943
C106	C	1.503359	0.539992	1.228943
C107	C	0.955146	0.091009	0.680161
C108	C	1.455146	0.591009	1.180161
N109	N	0.916267	0.132146	0.544073
N110	N	1.416267	0.632146	1.044073
N111	N	0.959302	0.086596	0.587635
N112	N	1.459302	0.586596	1.087635
H113	H	0.332472	0.102061	-0.049119
H114	H	0.832472	0.602061	0.450881
H115	H	0.863620	0.187881	0.682182
H116	H	1.363620	0.687881	1.182182
Cl117	Cl	0.801445	-0.465347	0.056249
Cl118	Cl	1.301445	0.034653	0.556249
H119	H	1.077909	-0.669285	0.075688
H120	H	1.577909	-0.169285	0.575688
H121	H	0.829652	0.223807	0.436744
H122	H	1.329652	0.723807	0.936744
H123	H	0.819515	-0.635925	0.057543
H124	H	1.319515	-0.135925	0.557543
H125	H	0.785660	-0.260374	0.055154
H126	H	1.285660	0.239626	0.555154
H127	H	0.837026	0.215985	0.272517
H128	H	1.337026	0.715985	0.772517
H129	H	0.797660	-0.111967	0.056005
H130	H	1.297660	0.388033	0.556005
H131	H	0.543102	0.116662	0.180811
H132	H	1.043102	0.616662	0.680811
H133	H	1.045922	-0.005064	0.694962
H134	H	1.545922	0.494936	1.194962
H135	H	0.692399	0.119666	0.191293
H136	H	1.192399	0.619666	0.691293
H137	H	0.555916	0.103130	-0.103635
H138	H	1.055916	0.603130	0.396365
Cl139	Cl	1.074123	-0.315906	0.075431
Cl140	Cl	1.574123	0.184094	0.575431
Cl141	Cl	0.150555	0.113924	0.258292
Cl142	Cl	0.650555	0.613924	0.758292
Cl143	Cl	0.336314	0.117636	0.271331
Cl144	Cl	0.836314	0.617636	0.771331
Cl145	Cl	0.166507	0.097079	-0.095597
Cl146	Cl	0.666507	0.597079	0.404403
Cl147	Cl	0.725022	0.104821	-0.126597
Cl148	Cl	1.225022	0.604821	0.373403
Cl149	Cl	1.059899	-0.019836	0.880794
Cl150	Cl	1.559899	0.480164	1.380794
H151	H	1.019332	0.023040	0.285309
H152	H	1.519332	0.523040	0.785309
Cl153	Cl	1.033296	0.008266	0.471136
Cl154	Cl	1.533296	0.508266	0.971136
H155	H	0.856248	0.195714	0.846399
H156	H	1.356248	0.695714	1.346399
H157	H	1.056055	-0.145325	0.074174
H158	H	1.556055	0.354675	0.574174
H159	H	1.089916	-0.520881	0.076536
H160	H	1.589916	-0.020881	0.576536
