data_functionalizedCrystal
_audit_creation_method	'MofGen! by Chris Wilmer'
_symmetry_space_group_name_H-M	'P1'
_symmetry_Int_Tables_number	1
_symmetry_cell_setting	triclinic
loop_
_symmetry_equiv_pos_as_xyz
  x,y,z
_cell_length_a	11.169417
_cell_length_b	15.297327
_cell_length_c	11.169409
_cell_angle_alpha	80.360209
_cell_angle_beta	90.019824
_cell_angle_gamma	99.707226
loop_
_atom_site_label
_atom_site_type_symbol
_atom_site_fract_x
_atom_site_fract_y
_atom_site_fract_z
Zn1	Zn	1.752166	-0.359064	0.761131
Zn2	Zn	1.717262	-0.509956	0.595155
Zn3	Zn	1.551440	-0.359119	0.560478
Zn4	Zn	1.516683	-0.509883	0.795783
O5	O	1.634387	-0.434505	0.678137
O6	O	1.915484	-0.379088	0.739125
O7	O	1.695203	-0.490001	0.422618
O8	O	1.607220	-0.232867	0.558081
O9	O	1.889840	-0.489948	0.617183
O10	O	1.754693	-0.232827	0.705500
O11	O	1.573374	-0.379181	0.397141
O12	O	1.378881	-0.379110	0.591682
O13	O	1.547982	-0.489823	0.959124
O14	O	1.353345	-0.489876	0.764559
O15	O	1.720991	-0.379016	0.933665
O16	O	1.661501	-0.636191	0.650783
O17	O	1.514136	-0.636137	0.798184
C18	C	1.322566	-0.434492	0.678118
C19	C	1.189162	-0.434508	0.678144
C20	C	1.580292	-0.668898	0.732033
C21	C	1.557259	-0.769172	0.755130
C22	C	1.799500	-1.051814	0.513469
C23	C	1.821139	-0.957602	0.491762
C24	C	1.755172	-0.910490	0.557602
C25	C	1.667560	-0.957599	0.645153
C26	C	1.645911	-1.051821	0.666855
C27	C	1.601583	-0.910496	0.710988
C28	C	1.513971	-0.957606	0.798539
C29	C	1.492327	-1.051818	0.820238
C30	C	1.558295	-1.098930	0.754397
C31	C	1.623232	-0.816275	0.689286
C32	C	1.469643	-0.816281	0.842672
C33	C	1.448003	-0.910493	0.864379
C34	C	1.947426	-0.434520	0.678156
C35	C	2.080825	-0.434526	0.678165
C36	C	1.634503	-0.434405	0.991157
C37	C	1.634552	-0.434362	1.124547
C38	C	1.688727	-0.199198	0.624057
C39	C	1.711884	-0.098924	0.601011
C40	C	1.634357	-0.434540	0.366320
C41	C	1.634599	-0.434329	0.232872
H42	H	1.694565	-0.777926	0.618002
H43	H	1.772795	-0.833778	0.539922
C44	C	1.917489	-0.905789	0.395439
N45	N	1.990058	-0.866762	0.322877
H46	H	1.540684	-1.175646	0.772069
C47	C	1.351622	-0.962326	0.960673
N48	N	1.279026	-1.001367	1.033198
H49	H	1.853194	-1.090182	0.459864
C50	C	1.395941	-1.103636	0.916535
N51	N	1.323342	-1.142664	0.989067
H52	H	1.415924	-0.777923	0.896283
