data_functionalizedCrystal
_audit_creation_method	'MofGen! by Chris Wilmer'
_symmetry_space_group_name_H-M	'P1'
_symmetry_Int_Tables_number	1
_symmetry_cell_setting	triclinic
loop_
_symmetry_equiv_pos_as_xyz
  x,y,z
_cell_length_a	12.594517
_cell_length_b	12.594516
_cell_length_c	21.395355
_cell_angle_alpha	90.013083
_cell_angle_beta	90.024858
_cell_angle_gamma	90.011616
loop_
_atom_site_label
_atom_site_type_symbol
_atom_site_fract_x
_atom_site_fract_y
_atom_site_fract_z
Zn1	Zn	1.627335	-0.423871	0.354290
Zn2	Zn	2.127335	0.076129	0.854290
Zn3	Zn	1.627228	-0.601835	0.249523
Zn4	Zn	2.127228	-0.101835	0.749523
Zn5	Zn	1.449328	-0.423871	0.249526
Zn6	Zn	1.949328	0.076129	0.749526
Zn7	Zn	1.449335	-0.601807	0.354262
Zn8	Zn	1.949335	-0.101807	0.854262
O9	O	1.538307	-0.512846	0.301900
O10	O	2.038307	-0.012846	0.801900
O11	O	1.776267	-0.447490	0.340403
O12	O	2.276267	0.052510	0.840403
O13	O	1.603582	-0.578239	0.161845
O14	O	2.103582	-0.078239	0.661845
O15	O	1.472983	-0.274925	0.263437
O16	O	1.972983	0.225075	0.763437
O17	O	1.776188	-0.578240	0.263430
O18	O	2.276188	-0.078240	0.763430
O19	O	1.603764	-0.274925	0.340406
O20	O	2.103764	0.225075	0.840406
O21	O	1.472880	-0.447490	0.161848
O22	O	1.972880	0.052510	0.661848
O23	O	1.300383	-0.447462	0.263410
O24	O	1.800383	0.052538	0.763410
O25	O	1.472994	-0.578192	0.441944
O26	O	1.972994	-0.078192	0.941944
O27	O	1.300388	-0.578192	0.340359
O28	O	1.800388	-0.078192	0.840359
O29	O	1.603771	-0.447463	0.441964
O30	O	2.103771	0.052537	0.941964
O31	O	1.603588	-0.750777	0.263403
O32	O	2.103588	-0.250777	0.763403
O33	O	1.472890	-0.750757	0.340355
O34	O	1.972890	-0.250757	0.840355
C35	C	1.261766	-0.512825	0.301882
C36	C	1.761766	-0.012825	0.801882
C37	C	1.143460	-0.512841	0.301889
C38	C	1.643460	-0.012841	0.801889
C39	C	1.074174	-0.441641	0.260116
C40	C	1.574174	0.058359	0.760116
C41	C	1.003368	-0.538723	0.244706
C42	C	1.503368	-0.038723	0.744706
C43	C	1.003467	-0.415807	0.317310
C44	C	1.503467	0.084193	0.817310
C45	C	1.074213	-0.609974	0.286448
C46	C	1.574213	-0.109974	0.786448
C47	C	1.074318	-0.486993	0.359080
C48	C	1.574318	0.013007	0.859080
C49	C	1.003544	-0.584142	0.343691
C50	C	1.503544	-0.084142	0.843691
C51	C	1.538257	-0.789387	0.301890
C52	C	2.038257	-0.289387	0.801890
C53	C	1.538334	-0.907692	0.301906
C54	C	2.038334	-0.407692	0.801906
C55	C	1.609503	-0.976918	0.260096
C56	C	2.109503	-0.476918	0.760096
C57	C	1.635519	-1.047640	0.317284
C58	C	2.135519	-0.547640	0.817284
C59	C	1.512450	-1.047770	0.244755
C60	C	2.012450	-0.547770	0.744755
C61	C	1.564400	-0.976856	0.359123
C62	C	2.064400	-0.476856	0.859123
C63	C	1.441286	-0.976980	0.286555
C64	C	1.941286	-0.476980	0.786555
C65	C	1.467265	-1.047669	0.343782
C66	C	1.967265	-0.547669	0.843782
C67	C	1.815927	-0.512868	0.301919
C68	C	2.315927	-0.012868	0.801919
C69	C	1.934233	-0.512878	0.301927
C70	C	2.434233	-0.012878	0.801927
C71	C	1.538395	-0.512825	0.465324
C72	C	2.038395	-0.012825	0.965324
C73	C	1.538433	-0.512815	0.534965
C74	C	2.038433	-0.012815	1.034965
C75	C	1.538385	-0.235225	0.301925
C76	C	2.038385	0.264775	0.801925
C77	C	1.538419	-0.116920	0.301936
C78	C	2.038419	0.383080	0.801936
C79	C	1.538280	-0.512791	0.139113
C80	C	2.038280	-0.012791	0.639113
C81	C	1.538448	-0.512500	0.069472
C82	C	2.038448	-0.012500	0.569472
C83	C	1.606525	-0.444742	0.567690
C84	C	2.106525	0.055258	1.067690
C85	C	1.606524	-0.444696	0.633125
C86	C	2.106524	0.055304	1.133125
C87	C	1.538441	-0.512743	0.665833
C88	C	2.038441	-0.012743	1.165833
C89	C	1.470335	-0.580821	0.633101
C90	C	1.970335	-0.080821	1.133101
C91	C	1.470331	-0.580857	0.567667
C92	C	1.970331	-0.080857	1.067667
C93	C	1.530019	-0.608580	0.769504
C94	C	2.030019	-0.108580	1.269504
C95	C	1.530031	-0.608546	0.834937
C96	C	2.030031	-0.108546	1.334937
C97	C	1.538448	-0.512630	0.867654
C98	C	2.038448	-0.012630	1.367654
C99	C	1.546875	-0.416747	0.834930
C100	C	2.046875	0.083253	1.334930
C101	C	1.546870	-0.416783	0.769496
C102	C	2.046870	0.083217	1.269496
C103	C	1.538437	-0.512711	0.736786
C104	C	2.038437	-0.012711	1.236786
C105	C	1.606542	-0.444502	0.971332
C106	C	2.106542	0.055498	1.471332
C107	C	1.606533	-0.444454	1.036768
C108	C	2.106533	0.055546	1.536768
C109	C	1.470350	-0.580588	1.036742
C110	C	1.970350	-0.080588	1.536742
C111	C	1.470354	-0.580626	0.971307
C112	C	1.970354	-0.080626	1.471307
C113	C	1.538455	-0.512584	0.938606
C114	C	2.038455	-0.012584	1.438606
H115	H	1.105186	-0.381487	0.224747
H116	H	1.605186	0.118513	0.724747
C117	C	1.395459	-0.655442	1.072718
C118	C	1.895459	-0.155442	1.572718
N119	N	1.339048	-0.711823	1.099817
N120	N	1.839048	-0.211823	1.599817
H121	H	1.717627	-1.078681	0.330284
H122	H	2.217627	-0.578681	0.830284
C123	C	1.482822	-1.089844	0.179443
C124	C	1.982822	-0.589844	0.679443
N125	N	1.460513	-1.121530	0.130249
N126	N	1.960513	-0.621530	0.630249
C127	C	1.330398	-0.934999	0.268966
C128	C	1.830398	-0.434999	0.768966
N129	N	1.246879	-0.903375	0.255710
N130	N	1.746879	-0.403375	0.755710
H131	H	1.661970	-0.389257	0.659775
H132	H	2.161970	0.110743	1.159775
C133	C	1.594160	-0.934957	0.424453
C134	C	2.094160	-0.434957	0.924453
N135	N	1.616580	-0.903396	0.473657
N136	N	2.116580	-0.403396	0.973657
C137	C	1.116463	-0.457382	0.424375
C138	C	1.616463	0.042618	0.924375
N139	N	1.148211	-0.435066	0.473555
N140	N	1.648211	0.064934	0.973555
C141	C	0.961260	-0.568285	0.179390
C142	C	1.461260	-0.068285	0.679390
N143	N	0.929545	-0.590542	0.130193
N144	N	1.429545	-0.090542	0.630193
H145	H	1.105159	-0.692075	0.273367
H146	H	1.605159	-0.192075	0.773367
H147	H	1.407116	-1.078539	0.379193
H148	H	1.907116	-0.578539	0.879193
H149	H	0.972335	-0.333742	0.330316
H150	H	1.472335	0.166258	0.830316
H151	H	1.669698	-0.945852	0.224771
H152	H	2.169698	-0.445852	0.724771
H153	H	0.972727	-0.644439	0.379033
H154	H	1.472727	-0.144439	0.879033
H155	H	1.661977	-0.389335	0.541068
H156	H	2.161977	0.110665	1.041068
H157	H	1.414912	-0.636066	0.944662
H158	H	1.914912	-0.136066	1.444662
H159	H	1.553729	-0.338711	0.742855
H160	H	2.053729	0.161289	1.242855
C161	C	1.556131	-0.311230	0.870914
C162	C	2.056131	0.188770	1.370914
N163	N	1.563104	-0.231759	0.898020
N164	N	2.063104	0.268241	1.398020
H165	H	1.414899	-0.636222	0.659736
H166	H	1.914899	-0.136222	1.159736
H167	H	1.661988	-0.389092	0.944705
H168	H	2.161988	0.110908	1.444705
H169	H	1.661980	-0.389014	1.063412
H170	H	2.161980	0.110986	1.563412
H171	H	1.523176	-0.686620	0.861576
H172	H	2.023176	-0.186620	1.361576
H173	H	1.522881	-0.686666	0.742872
H174	H	2.022881	-0.186666	1.242872
C175	C	1.395423	-0.655749	0.531668
C176	C	1.895423	-0.155749	1.031668
N177	N	1.339003	-0.712161	0.504553
N178	N	1.839003	-0.212161	1.004553
