data_functionalizedCrystal
_audit_creation_method	'MofGen! by Chris Wilmer'
_symmetry_space_group_name_H-M	'P1'
_symmetry_Int_Tables_number	1
_symmetry_cell_setting	triclinic
loop_
_symmetry_equiv_pos_as_xyz
  x,y,z
_cell_length_a	14.853569
_cell_length_b	13.330367
_cell_length_c	14.853567
_cell_angle_alpha	89.999156
_cell_angle_beta	83.635248
_cell_angle_gamma	89.994419
loop_
_atom_site_label
_atom_site_type_symbol
_atom_site_fract_x
_atom_site_fract_y
_atom_site_fract_z
O1	O	1.196368	-0.083369	0.117710
O2	O	0.933909	-0.083380	0.131730
O3	O	1.072149	-0.083377	-0.006509
O4	O	1.058128	-0.083372	0.255950
O5	O	1.072129	0.083470	-0.006513
O6	O	0.933889	0.083467	0.131727
O7	O	1.196348	0.083478	0.117707
Cu8	Cu	1.065116	0.098707	0.124717
Cu9	Cu	1.065140	-0.098609	0.124720
O10	O	1.058108	0.083475	0.255947
C11	C	0.900310	0.000042	0.131093
C12	C	0.800226	0.000037	0.129189
C13	C	1.071504	0.000043	-0.040100
C14	C	1.069600	0.000035	-0.140183
C15	C	0.763850	0.000032	0.046178
C16	C	0.742560	0.000047	0.210410
C17	C	0.648526	0.000048	0.208624
C18	C	0.612150	0.000043	0.125613
C19	C	0.669807	0.000036	0.044389
C20	C	0.590862	0.000065	0.289847
C21	C	0.496821	0.000067	0.288064
C22	C	0.460443	0.000054	0.205052
C23	C	0.518107	0.000047	0.123824
C24	C	0.481730	0.000042	0.040813
C25	C	0.539393	0.000027	-0.040415
C26	C	0.633429	0.000024	-0.038623
C27	C	0.366407	0.000057	0.203259
C28	C	0.387688	0.000046	0.039024
C29	C	1.229947	0.000054	0.118344
C30	C	1.330030	0.000052	0.120249
N31	N	1.065106	0.237489	0.124714
N32	N	1.065157	-0.237390	0.124717
C33	C	1.003925	0.710110	0.185909
C34	C	1.126380	0.710081	0.063525
C35	C	1.126370	0.605062	0.063522
C36	C	1.065137	0.552563	0.124715
C37	C	1.003914	0.605082	0.185910
C38	C	1.187597	0.552536	0.002334
C39	C	1.187590	0.447511	0.002330
C40	C	1.126352	0.395010	0.063519
C41	C	1.065127	0.447535	0.124716
C42	C	1.003894	0.395036	0.185908
C43	C	0.942663	0.447559	0.247101
C44	C	0.942677	0.552581	0.247099
C45	C	1.126339	0.289988	0.063521
C46	C	1.003884	0.290008	0.185909
C47	C	0.979434	0.000050	-0.552718
C48	C	1.143667	0.000057	-0.573998
C49	C	1.145457	0.000051	-0.479964
C50	C	1.064234	0.000046	-0.422303
C51	C	0.981222	0.000047	-0.458675
C52	C	1.228468	0.000060	-0.443585
C53	C	1.230262	0.000055	-0.349545
C54	C	1.149038	0.000043	-0.291882
C55	C	1.066022	0.000043	-0.328260
C56	C	0.984800	0.000038	-0.270599
C57	C	0.901783	0.000031	-0.306974
C58	C	0.899998	0.000035	-0.401012
C59	C	1.150822	0.000039	-0.197845
C60	C	0.986587	0.000036	-0.176556
C61	C	1.058753	0.000053	0.289537
C62	C	1.060657	0.000055	0.389621
H63	H	0.509763	0.000016	-0.108003
H64	H	0.319463	0.000078	0.269395
O65	O	0.695618	0.000028	-0.126229
H66	H	0.767118	0.000044	-0.111037
O67	O	1.319795	0.000040	-0.310311
H68	H	1.375972	0.000032	-0.366207
O69	O	0.814180	0.000038	-0.244778
H70	H	0.774461	-0.067964	-0.257718
H71	H	0.892811	0.404802	0.296929
H72	H	0.832410	0.000030	-0.430638
H73	H	0.920445	0.000027	-0.129613
O74	O	1.192420	0.766706	-0.002469
H75	H	1.262708	0.746536	0.009153
O76	O	0.826032	0.000027	-0.041432
H77	H	0.897535	0.000033	-0.026248
O78	O	1.240349	0.000041	-0.158606
H79	H	1.296527	0.000041	-0.214500
O80	O	0.876649	0.609236	0.313101
H81	H	0.834062	0.555089	0.355649
H82	H	1.209794	0.000069	-0.620951
H83	H	0.954069	0.752878	0.235729
O84	O	0.348456	0.000038	-0.050512
H85	H	0.306117	0.068043	-0.055257
H86	H	0.772184	0.000058	0.277994
O87	O	0.630092	0.000075	0.379377
H88	H	0.705169	0.000058	0.366972
H89	H	0.449880	0.000077	0.354205
O90	O	0.937838	0.233376	0.251903
H91	H	0.949408	0.253519	0.322209
O92	O	1.253641	0.609154	-0.063662
H93	H	1.243352	0.691006	-0.053388
H94	H	1.237446	0.404752	-0.047498
O95	O	1.192368	0.233334	-0.002473
H96	H	1.234947	0.287484	-0.045025
O97	O	0.889896	0.000054	-0.591942
H98	H	0.902292	0.000064	-0.667019
O99	O	1.316069	0.000080	-0.505771
H100	H	1.300878	0.000072	-0.577271
