data_functionalizedCrystal
_audit_creation_method	'MofGen! by Chris Wilmer'
_symmetry_space_group_name_H-M	'P1'
_symmetry_Int_Tables_number	1
_symmetry_cell_setting	triclinic
loop_
_symmetry_equiv_pos_as_xyz
  x,y,z
_cell_length_a	10.654551
_cell_length_b	9.730223
_cell_length_c	16.974755
_cell_angle_alpha	86.341787
_cell_angle_beta	96.064877
_cell_angle_gamma	89.999649
loop_
_atom_site_label
_atom_site_type_symbol
_atom_site_fract_x
_atom_site_fract_y
_atom_site_fract_z
O1	O	1.666092	0.126630	-0.111057
O2	O	1.300448	0.127813	-0.121637
O3	O	1.493477	0.114411	-0.001298
O4	O	1.473063	0.140032	-0.231396
O5	O	1.493475	-0.114169	-0.001301
O6	O	1.300446	-0.100766	-0.121640
O7	O	1.666090	-0.101950	-0.111060
Zn8	Zn	1.483267	-0.137650	-0.116350
Zn9	Zn	1.483270	0.163513	-0.116346
O10	O	1.473061	-0.088548	-0.231399
C11	C	1.253661	0.013438	-0.120861
C12	C	1.114254	0.013182	-0.118537
C13	C	0.917773	-0.111784	-0.115253
C14	C	1.048759	-0.111541	-0.117445
C15	C	1.048755	0.137670	-0.117446
C16	C	0.917770	0.137425	-0.115260
C17	C	0.852286	-0.236516	-0.114153
C18	C	0.917775	-0.361004	-0.115246
C19	C	1.048761	-0.360761	-0.117437
C20	C	1.114257	-0.236029	-0.118536
N21	N	1.483274	-0.343186	-0.116353
C22	C	1.568769	-0.421045	-0.063085
C23	C	1.568766	-0.564929	-0.063075
C24	C	1.397769	-0.553082	-0.169608
C25	C	1.397767	-0.409201	-0.169613
C26	C	1.654277	-0.355030	-0.009824
C27	C	1.739779	-0.432889	0.043447
C28	C	1.739776	-0.576773	0.043457
C29	C	1.654270	-0.642798	-0.009805
C30	C	1.712877	0.012428	-0.111835
C31	C	1.852283	0.012694	-0.114160
C32	C	1.492704	-0.003157	0.028163
C33	C	1.490388	-0.012923	0.115954
N34	N	1.483273	0.369049	-0.116338
C35	C	1.473834	0.029023	-0.260860
C36	C	1.476149	0.038799	-0.348651
C37	C	1.477241	-0.081217	0.610114
C38	C	1.479429	-0.072047	0.527626
C39	C	1.480534	0.057140	0.486376
C40	C	1.479438	0.177164	0.527617
C41	C	1.477241	0.167993	0.610103
C42	C	1.487096	0.097930	0.239680
C43	C	1.489296	0.107092	0.157189
C44	C	1.489285	-0.142120	0.157204
C45	C	1.487096	-0.151280	0.239692
C46	C	1.485994	-0.031256	0.280925
N47	N	1.482774	0.066516	0.402061
N48	N	1.483744	-0.040633	0.365238
H49	H	0.864438	-0.462555	-0.114358
H50	H	1.220913	-0.235840	-0.120329
O51	O	1.490167	0.232603	0.117111
C52	C	1.380952	0.307174	0.128867
H53	H	1.304337	0.232447	0.145711
H54	H	1.345943	0.369989	0.071786
H55	H	1.404259	0.379385	0.178609
O56	O	1.112192	-0.481807	-0.118464
C57	C	1.026294	-0.591940	-0.117046
H58	H	0.938171	-0.558363	-0.090497
H59	H	1.072185	-0.683281	-0.079356
H60	H	0.999066	-0.623234	-0.180134
O61	O	1.475993	-0.206633	0.650253
C62	C	1.365994	-0.218464	0.689578
H63	H	1.329436	-0.111338	0.699145
H64	H	1.388889	-0.277869	0.749464
H65	H	1.290712	-0.275750	0.651927
O66	O	1.475952	0.284530	0.650187
C67	C	1.365982	0.287579	0.689541
H68	H	1.290668	0.220291	0.658827
H69	H	1.329463	0.397990	0.687673
H70	H	1.388889	0.246923	0.753946
O71	O	1.822741	-0.368541	0.095137
C72	C	1.804370	-0.224854	0.083736
H73	H	1.757375	-0.198226	0.021132
H74	H	1.899471	-0.171071	0.092021
H75	H	1.741413	-0.189076	0.128834
O76	O	1.490118	-0.258658	0.117092
C77	C	1.382691	-0.259839	0.060999
H78	H	1.306059	-0.191232	0.080009
H79	H	1.346211	-0.369620	0.057254
H80	H	1.408935	-0.219621	0.000376
H81	H	1.328154	-0.606849	-0.212973
O82	O	1.654265	-0.782584	-0.009647
C83	C	1.628852	-0.839004	0.065556
H84	H	1.654685	-0.761250	0.111987
H85	H	1.687128	-0.937030	0.081407
H86	H	1.524199	-0.864356	0.064088
H87	H	0.864447	0.238787	-0.114372
O88	O	1.314676	-0.333765	-0.221436
C89	C	1.239193	-0.422881	-0.268436
H90	H	1.290672	-0.525314	-0.269630
H91	H	1.219913	-0.374295	-0.331471
H92	H	1.145959	-0.441097	-0.242214
H93	H	1.480336	-0.169777	0.494058
H94	H	0.745631	-0.236728	-0.112368
O95	O	1.822945	-0.652198	0.095233
C96	C	1.898387	-0.563073	0.142252
H97	H	1.899739	-0.456906	0.109818
H98	H	1.998695	-0.605921	0.153727
H99	H	1.857733	-0.554323	0.201232
O100	O	1.485965	-0.276882	0.279633
C101	C	1.487429	-0.380848	0.225551
H102	H	1.449258	-0.337442	0.163691
H103	H	1.425851	-0.470118	0.244697
H104	H	1.588361	-0.419056	0.224532
O105	O	1.112494	0.258748	-0.118615
C106	C	1.173888	0.273972	-0.188246
H107	H	1.188723	0.168361	-0.211366
H108	H	1.269226	0.325161	-0.174406
H109	H	1.113363	0.340702	-0.235270
O110	O	1.485827	0.214494	0.279734
C111	C	1.375870	0.217623	0.319097
H112	H	1.300530	0.150333	0.288410
H113	H	1.339382	0.328050	0.317199
H114	H	1.398781	0.177019	0.383511
H115	H	1.654289	-0.237873	-0.009829
H116	H	1.480331	0.282351	0.494024
