data_functionalizedCrystal
_audit_creation_method	'MofGen! by Chris Wilmer'
_symmetry_space_group_name_H-M	'P1'
_symmetry_Int_Tables_number	1
_symmetry_cell_setting	triclinic
loop_
_symmetry_equiv_pos_as_xyz
  x,y,z
_cell_length_a	17.666332
_cell_length_b	14.519709
_cell_length_c	14.519709
_cell_angle_alpha	96.319855
_cell_angle_beta	90.007412
_cell_angle_gamma	89.996266
loop_
_atom_site_label
_atom_site_type_symbol
_atom_site_fract_x
_atom_site_fract_y
_atom_site_fract_z
O1	O	0.062851	-1.223874	0.120893
O2	O	0.062875	-0.955397	0.135129
O3	O	0.062856	-1.096754	-0.006227
O4	O	0.062871	-1.082517	0.262250
O5	O	-0.063041	-1.096729	-0.006235
O6	O	-0.063022	-0.955372	0.135122
O7	O	-0.063045	-1.223849	0.120885
Cu8	Cu	-0.074529	-1.089608	0.128003
Cu9	Cu	0.074358	-1.089638	0.128012
O10	O	-0.063026	-1.082492	0.262242
C11	C	-0.000071	-0.921025	0.134462
C12	C	-0.000062	-0.818643	0.132474
N13	N	-0.179248	-1.089594	0.127996
C14	C	-0.000093	-1.096078	-0.040591
C15	C	-0.000093	-1.094090	-0.142972
C16	C	-0.218867	-1.152207	0.065434
C17	C	-0.298114	-1.152213	0.065429
C18	C	-0.337741	-1.089614	0.128003
C19	C	-0.298113	-1.026989	0.190570
C20	C	-0.218867	-1.026979	0.190566
N21	N	-0.462154	-1.078009	0.209587
N22	N	-0.537435	-1.078024	0.209587
C23	C	-0.576505	-1.089638	0.128016
N24	N	-0.537450	-1.101255	0.046442
N25	N	-0.462163	-1.101245	0.046442
C26	C	-0.423670	-1.089617	0.128013
C27	C	-0.702052	-1.152261	0.065444
C28	C	-0.781301	-1.152259	0.065438
C29	C	-0.781298	-1.027040	0.190587
C30	C	-0.702051	-1.027037	0.190584
C31	C	-0.662432	-1.089652	0.128014
N32	N	0.179078	-1.089659	0.128011
C33	C	-0.000098	-1.258221	0.121553
C34	C	-0.000102	-1.360602	0.123541
C35	C	-0.000097	-0.443748	0.125154
C36	C	-0.000087	-0.548056	0.127187
C37	C	-0.000079	-0.631192	0.128814
C38	C	-0.000070	-0.735507	0.130847
C39	C	-0.000073	-1.086770	-0.517868
C40	C	-0.000079	-1.088803	-0.413560
C41	C	-0.000084	-1.090430	-0.330423
C42	C	-0.000088	-1.092463	-0.226109
C43	C	-0.000076	-1.083168	0.296605
C44	C	-0.000071	-1.085156	0.398987
H45	H	-0.186612	-1.203190	0.014483
O46	O	-0.180495	-0.966123	0.251435
C47	C	-0.232459	-0.910851	0.306647
H48	H	-0.288945	-0.948664	0.307775
H49	H	-0.240896	-0.842299	0.276548
C50	C	-0.132143	-0.845558	0.404708
C51	C	-0.201519	-0.892003	0.406100
H52	H	-0.113057	-0.833927	0.466054
H53	H	-0.097133	-0.882793	0.367509
H54	H	-0.139184	-0.788436	0.379621
H55	H	-0.194476	-0.949129	0.431176
H56	H	-0.236527	-0.854777	0.443305
H57	H	-0.669791	-0.976055	0.241532
H58	H	-0.669794	-1.203243	0.014492
H59	H	-0.813559	-1.203244	0.014488
H60	H	-0.330381	-0.976018	0.241517
O61	O	-0.336531	-1.212996	0.004528
C62	C	-0.317201	-1.197847	-0.086804
H63	H	-0.259665	-1.162303	-0.086781
H64	H	-0.361810	-1.151898	-0.115420
C65	C	-0.384216	-1.335041	-0.147977
C66	C	-0.313546	-1.291392	-0.147949
H67	H	-0.381965	-1.392742	-0.185695
H68	H	-0.397242	-1.345246	-0.086445
H69	H	-0.421383	-1.296740	-0.171821
H70	H	-0.276383	-1.329687	-0.124094
H71	H	-0.300514	-1.281196	-0.209478
O72	O	-0.819864	-0.966190	0.251244
C73	C	-0.865701	-0.909208	0.201726
H74	H	-0.877579	-0.945824	0.129643
H75	H	-0.835168	-0.841041	0.195306
C76	C	-0.926383	-0.844612	0.342215
C77	C	-0.940977	-0.889588	0.253684
H78	H	-0.972816	-0.832506	0.374266
H79	H	-0.895500	-0.882999	0.375578
H80	H	-0.900937	-0.787812	0.336852
H81	H	-0.966414	-0.946393	0.259049
H82	H	-0.971867	-0.851210	0.220324
