data_functionalizedCrystal
_audit_creation_method	'MofGen! by Chris Wilmer'
_symmetry_space_group_name_H-M	'P1'
_symmetry_Int_Tables_number	1
_symmetry_cell_setting	triclinic
loop_
_symmetry_equiv_pos_as_xyz
  x,y,z
_cell_length_a	19.188930
_cell_length_b	10.654550
_cell_length_c	9.130313
_cell_angle_alpha	90.000110
_cell_angle_beta	89.985896
_cell_angle_gamma	96.185158
loop_
_atom_site_label
_atom_site_type_symbol
_atom_site_fract_x
_atom_site_fract_y
_atom_site_fract_z
O1	O	0.927166	-0.156774	-0.122267
O2	O	1.427166	0.343226	0.377733
O3	O	0.723993	-0.177880	-0.122166
O4	O	1.223993	0.322120	0.377834
O5	O	0.830251	0.015511	-0.122214
O6	O	1.330251	0.515511	0.377786
O7	O	0.820908	-0.350165	-0.122220
O8	O	1.320908	0.149835	0.377780
O9	O	0.830250	0.015506	0.121385
O10	O	1.330250	0.515506	0.621385
O11	O	0.723992	-0.177885	0.121433
O12	O	1.223992	0.322115	0.621433
O13	O	0.927165	-0.156779	0.121332
O14	O	1.427165	0.343221	0.621332
Cu15	Cu	0.825578	-0.167333	0.143625
Cu16	Cu	1.325578	0.332667	0.643625
Cu17	Cu	0.825580	-0.167326	-0.144459
Cu18	Cu	1.325580	0.332674	0.355541
O19	O	0.820907	-0.350170	0.121379
O20	O	1.320907	0.149830	0.621379
C21	C	0.697977	-0.177199	-0.000354
C22	C	1.197977	0.322801	0.499646
C23	C	0.620459	-0.175147	-0.000315
C24	C	1.120459	0.324853	0.499685
C25	C	0.829564	0.062292	-0.000416
C26	C	1.329564	0.562292	0.499584
C27	C	0.827512	0.201692	-0.000420
C28	C	1.327512	0.701692	0.499580
C29	C	0.821594	-0.396951	-0.000422
C30	C	1.321594	0.103049	0.499578
C31	C	0.823646	-0.536351	-0.000428
C32	C	1.323646	-0.036351	0.499572
C33	C	0.576277	-0.288622	-0.000340
C34	C	1.076277	0.211378	0.499660
C35	C	0.503441	-0.286695	-0.000356
C36	C	1.003441	0.213305	0.499644
C37	C	0.474789	-0.171286	-0.000377
C38	C	0.974789	0.328714	0.499623
C39	C	0.518981	-0.057795	-0.000344
C40	C	1.018981	0.442205	0.499656
C41	C	0.591816	-0.059726	-0.000313
C42	C	1.091816	0.440274	0.499687
N43	N	0.366233	-0.083068	-0.083342
N44	N	0.866233	0.416932	0.416658
N45	N	0.297042	-0.081241	-0.083374
N46	N	0.797042	0.418759	0.416626
C47	C	0.255343	-0.165461	-0.000466
C48	C	0.755343	0.334539	0.499534
N49	N	0.285446	-0.251596	0.082456
N50	N	0.785446	0.248404	0.582456
N51	N	0.354643	-0.253426	0.082482
N52	N	0.854643	0.246574	0.582482
C53	C	0.395813	-0.169179	-0.000409
C54	C	0.895813	0.330821	0.499591
C55	C	0.132183	-0.276855	-0.000507
C56	C	0.632183	0.223145	0.499493
C57	C	0.059345	-0.274922	-0.000514
C58	C	0.559345	0.225078	0.499486
C59	C	0.074887	-0.046020	-0.000516
C60	C	0.574887	0.453980	0.499484
C61	C	0.147723	-0.047955	-0.000494
C62	C	0.647723	0.452045	0.499506
C63	C	0.176366	-0.163376	-0.000497
C64	C	0.676366	0.336624	0.499503
C65	C	0.953181	-0.157460	-0.000484
C66	C	1.453181	0.342540	0.499516
C67	C	1.030699	-0.159512	-0.000532
C68	C	1.530699	0.340488	0.499468
N69	N	0.825582	-0.167336	0.346247
N70	N	1.325582	0.332664	0.846247
C71	C	0.890075	0.282501	-0.000446
C72	C	1.390075	0.782501	0.499554
C73	C	0.888142	0.413481	-0.000456
C74	C	1.388142	0.913481	0.499544
C75	C	0.761078	0.382829	-0.000405
C76	C	1.261078	0.882829	0.499595
C77	C	0.763011	0.251852	-0.000407
C78	C	1.263011	0.751852	0.499593
C79	C	0.963434	0.300199	-0.000469
C80	C	1.463434	0.800199	0.499531
C81	C	0.961502	0.431179	-0.000478
C82	C	1.461502	0.931179	0.499522
N83	N	0.825581	-0.167313	-0.347082
N84	N	1.325581	0.332687	0.152918
C85	C	0.872645	-0.081731	0.422878
C86	C	1.372645	0.418269	0.922878
C87	C	0.872643	-0.081716	0.576215
C88	C	1.372643	0.418284	1.076215
C89	C	0.778513	-0.252922	0.576276
C90	C	1.278513	0.247078	1.076276
C91	C	0.778512	-0.252930	0.422942
C92	C	1.278512	0.247070	0.922942
C93	C	0.926993	0.017109	0.422844
C94	C	1.426993	0.517109	0.922844
C95	C	0.926991	0.017124	0.576181
C96	C	1.426991	0.517124	1.076181
H97	H	0.599593	-0.382607	-0.000345
H98	H	1.099593	0.117393	0.499655
H99	H	0.183697	0.044449	-0.000482
H100	H	0.683697	0.544449	0.499518
Cl101	Cl	0.719342	-0.360519	0.672702
Cl102	Cl	1.219342	0.139481	1.172702
Cl103	Cl	0.038875	0.099068	-0.000524
Cl104	Cl	0.538875	0.599068	0.499476
H105	H	0.467461	-0.379103	-0.000373
H106	H	0.967461	0.120897	0.499627
H107	H	0.983673	0.477294	-0.105668
H108	H	1.483673	0.977294	0.394332
Cl109	Cl	0.908589	0.165753	0.358588
Cl110	Cl	1.408589	0.665753	0.858588
H111	H	0.980643	-0.003259	0.617770
H112	H	1.480643	0.496741	1.117770
H113	H	0.910029	0.107988	0.623739
H114	H	1.410029	0.607988	1.123739
Cl115	Cl	0.999488	0.245940	0.161912
Cl116	Cl	1.499488	0.745940	0.661912
Cl117	Cl	0.482963	0.087291	-0.000361
Cl118	Cl	0.982963	0.587291	0.499639
Cl119	Cl	1.005249	-0.028476	0.349365
Cl120	Cl	1.505249	0.471524	0.849365
Cl121	Cl	0.684358	0.150266	-0.000410
Cl122	Cl	1.184358	0.650266	0.499590
H123	H	0.627789	0.032682	-0.000294
H124	H	1.127789	0.532682	0.499706
H125	H	0.155505	-0.370837	-0.000487
H126	H	0.655505	0.129163	0.499513
H127	H	0.023372	-0.367332	-0.000526
H128	H	0.523372	0.132668	0.499474
H129	H	0.708564	0.423686	-0.000396
H130	H	1.208564	0.923686	0.499604
Cl131	Cl	0.719336	-0.360533	0.326605
Cl132	Cl	1.219336	0.139467	0.826605
H133	H	0.992129	0.271450	-0.102422
H134	H	1.492129	0.771450	0.397578
Cl135	Cl	1.004172	0.496562	0.156890
Cl136	Cl	1.504172	0.996562	0.656890
