data_functionalizedCrystal
_audit_creation_method	'MofGen! by Chris Wilmer'
_symmetry_space_group_name_H-M	'P1'
_symmetry_Int_Tables_number	1
_symmetry_cell_setting	triclinic
loop_
_symmetry_equiv_pos_as_xyz
  x,y,z
_cell_length_a	15.297621
_cell_length_b	13.032318
_cell_length_c	13.033109
_cell_angle_alpha	89.132721
_cell_angle_beta	105.428489
_cell_angle_gamma	86.276323
loop_
_atom_site_label
_atom_site_type_symbol
_atom_site_fract_x
_atom_site_fract_y
_atom_site_fract_z
Zn1	Zn	-1.376569	0.789826	-0.766065
Zn2	Zn	-1.338945	0.931634	-0.565770
Zn3	Zn	-1.210169	0.730979	-0.565504
Zn4	Zn	-1.205356	0.923659	-0.714735
O5	O	-1.282760	0.844025	-0.653019
O6	O	-1.497125	0.836603	-0.761089
O7	O	-1.308131	0.883726	-0.419458
O8	O	-1.250002	0.598802	-0.613480
O9	O	-1.469483	0.940788	-0.613933
O10	O	-1.372256	0.642037	-0.760831
O11	O	-1.213520	0.736307	-0.419262
O12	O	-1.083984	0.728573	-0.563707
O13	O	-1.241799	0.927195	-0.867821
O14	O	-1.080448	0.870134	-0.673346
O15	O	-1.367589	0.828870	-0.905533
O16	O	-1.303464	1.070559	-0.564160
O17	O	-1.205317	1.064700	-0.673604
C18	C	-1.049663	0.792103	-0.612928
C19	C	-0.949942	0.769919	-0.595798
C20	C	-0.904935	0.685699	-0.530785
C21	C	-0.811243	0.664853	-0.514689
C22	C	-0.762549	0.728220	-0.563610
C23	C	-0.807557	0.812438	-0.628630
C24	C	-0.901257	0.833291	-0.644721
C25	C	-0.758871	0.875813	-0.677546
C26	C	-0.803879	0.960031	-0.742566
C27	C	-0.897571	0.980879	-0.758655
C28	C	-0.946264	0.917512	-0.709734
C29	C	-0.665171	0.854960	-0.661455
C30	C	-0.661493	1.002552	-0.775391
C31	C	-0.755186	1.023398	-0.791487
C32	C	-1.249812	1.103935	-0.613368
C33	C	-1.235802	1.215149	-0.596454
C34	C	-0.516767	0.896142	-0.693257
C35	C	-0.616486	0.918332	-0.710378
C36	C	-1.290016	1.286041	-0.661876
C37	C	-1.275537	1.400987	-0.644397
C38	C	-1.308354	0.883707	-0.925666
C39	C	-1.319261	0.900618	-1.041852
C40	C	-1.315810	1.583098	-0.692852
C41	C	-1.329758	1.471879	-0.709828
C42	C	-1.277312	0.835216	-1.093555
C43	C	-1.288584	0.852692	-1.213639
C44	C	-1.257326	0.804436	-0.381452
C45	C	-1.246628	0.787282	-0.265339
H46	H	-0.944588	0.634118	-0.490954
H47	H	-0.686260	0.711242	-0.550501
O48	O	-1.341511	0.934895	-1.266789
C49	C	-1.431227	0.929090	-1.258927
H50	H	-1.430574	0.879590	-1.185821
H51	H	-1.473694	0.893268	-1.333400
C52	C	-1.473549	1.098804	-1.338280
C53	C	-1.472745	1.038014	-1.248485
H54	H	-1.499162	1.165993	-1.331844
H55	H	-1.413106	1.102715	-1.343581
H56	H	-1.508937	1.068940	-1.400332
H57	H	-1.437349	1.067871	-1.186437
H58	H	-1.533183	1.034111	-1.243173
H59	H	-0.934211	1.049463	-0.811588
H60	H	-0.791844	1.091970	-0.844427
O61	O	-0.621308	0.773228	-0.598290
C62	C	-0.528172	0.768394	-0.594589
H63	H	-0.508793	0.847761	-0.614720
H64	H	-0.514333	0.711332	-0.654820
C65	C	-0.495108	0.635502	-0.457266
C66	C	-0.471305	0.732984	-0.481982
H67	H	-0.460029	0.613656	-0.387807
H68	H	-0.557856	0.638756	-0.459761
H69	H	-0.483575	0.587963	-0.507467
H70	H	-0.482848	0.780524	-0.431789
H71	H	-0.408557	0.729738	-0.479475
O72	O	-1.397818	1.442655	-0.792141
C73	C	-1.360581	1.380667	-0.859954
H74	H	-1.291085	1.344676	-0.813670
H75	H	-1.352913	1.429945	-0.929633
C76	C	-1.509499	1.339212	-0.959273
C77	C	-1.424146	1.295000	-0.902424
H78	H	-1.548710	1.286371	-0.985475
H79	H	-1.534587	1.380977	-0.913589
H80	H	-1.503096	1.380275	-1.017331
H81	H	-1.430548	1.253948	-0.844359
H82	H	-1.399060	1.253226	-0.948099
H83	H	-0.774603	0.596286	-0.461744
O84	O	-1.224578	0.752869	-1.040458
C85	C	-1.259324	0.661377	-1.085632
H86	H	-1.301470	0.678442	-1.171176
H87	H	-1.303995	0.629081	-1.037281
C88	C	-1.128238	0.561054	-0.979669
C89	C	-1.179996	0.582011	-1.084740
H90	H	-1.079306	0.512094	-0.979115
H91	H	-1.104830	0.622693	-0.949231
H92	H	-1.165474	0.534145	-0.939388
H93	H	-1.142764	0.608931	-1.125015
H94	H	-1.203396	0.520375	-1.115185
O95	O	-1.193895	0.704928	-1.212245
C96	C	-1.228645	0.613439	-1.257421
H97	H	-1.270788	0.630505	-1.342966
H98	H	-1.273319	0.581146	-1.209073
C99	C	-1.097566	0.513107	-1.151455
C100	C	-1.149320	0.534067	-1.256526
H101	H	-1.048636	0.464145	-1.150899
H102	H	-1.074155	0.574745	-1.121015
H103	H	-1.134804	0.486202	-1.111176
H104	H	-1.112084	0.560984	-1.296799
H105	H	-1.172723	0.472432	-1.286972
H106	H	-1.022557	0.934479	-0.722838
O107	O	-1.372186	0.982816	-1.095006
C108	C	-1.461902	0.977010	-1.087144
H109	H	-1.461248	0.927510	-1.014038
H110	H	-1.504369	0.941188	-1.161617
C111	C	-1.504223	1.146725	-1.166497
C112	C	-1.503420	1.085934	-1.076702
H113	H	-1.529836	1.213913	-1.160061
H114	H	-1.443781	1.150635	-1.171798
H115	H	-1.539611	1.116860	-1.228549
H116	H	-1.468023	1.115791	-1.014654
H117	H	-1.563858	1.082031	-1.071390
H118	H	-1.347146	1.261639	-0.730831
O119	O	-1.207326	1.430205	-0.562253
C120	C	-1.147342	1.486426	-0.602609
H121	H	-1.184431	1.520492	-0.684949
H122	H	-1.086943	1.433112	-0.608657
C123	C	-1.067753	1.532000	-0.426159
C124	C	-1.113309	1.573847	-0.527288
H125	H	-1.046756	1.585923	-0.379697
H126	H	-1.108163	1.494119	-0.398970
H127	H	-1.017426	1.487572	-0.431215
H128	H	-1.163641	1.618263	-0.522234
H129	H	-1.072907	1.611737	-0.554475
O130	O	-1.167595	1.244372	-0.514315
C131	C	-1.107611	1.300593	-0.554671
H132	H	-1.144701	1.334659	-0.637012
H133	H	-1.047212	1.247279	-0.560719
C134	C	-1.028022	1.346167	-0.378222
C135	C	-1.073578	1.388014	-0.479350
H136	H	-1.007025	1.400090	-0.331759
H137	H	-1.068432	1.308287	-0.351032
H138	H	-0.977696	1.301739	-0.383277
H139	H	-1.123910	1.432430	-0.474296
H140	H	-1.033176	1.425904	-0.506537
H141	H	-0.621847	1.054152	-0.815226
