data_functionalizedCrystal
_audit_creation_method	'MofGen! by Chris Wilmer'
_symmetry_space_group_name_H-M	'P1'
_symmetry_Int_Tables_number	1
_symmetry_cell_setting	triclinic
loop_
_symmetry_equiv_pos_as_xyz
  x,y,z
_cell_length_a	18.101398
_cell_length_b	25.639239
_cell_length_c	18.101389
_cell_angle_alpha	89.979551
_cell_angle_beta	89.975673
_cell_angle_gamma	90.033952
loop_
_atom_site_label
_atom_site_type_symbol
_atom_site_fract_x
_atom_site_fract_y
_atom_site_fract_z
Zn1	Zn	1.132082	-0.208272	-0.418828
Zn2	Zn	1.131961	-0.295693	-0.294982
Zn3	Zn	1.008241	-0.208266	-0.294989
Zn4	Zn	1.008175	-0.295671	-0.418771
O5	O	1.070115	-0.251975	-0.356893
O6	O	1.235699	-0.219880	-0.402421
O7	O	1.115527	-0.284103	-0.191350
O8	O	1.024747	-0.135102	-0.311444
O9	O	1.235610	-0.284108	-0.311432
O10	O	1.115732	-0.135106	-0.402428
O11	O	1.024630	-0.219871	-0.191356
O12	O	0.904599	-0.219849	-0.311388
O13	O	1.024635	-0.284070	-0.522411
O14	O	0.904551	-0.284065	-0.402330
O15	O	1.115668	-0.219858	-0.522454
O16	O	1.115463	-0.368855	-0.311376
O17	O	1.024518	-0.368839	-0.402323
C18	C	0.877704	-0.251954	-0.356854
C19	C	0.795390	-0.251958	-0.356855
C20	C	0.496299	-0.251990	-0.356917
C21	C	0.527630	-0.211386	-0.299978
C22	C	0.613248	-0.211495	-0.299735
C23	C	0.644682	-0.251974	-0.356886
C24	C	0.613553	-0.307048	-0.335559
C25	C	0.527908	-0.306822	-0.335163
C26	C	0.527917	-0.238000	-0.435317
C27	C	0.613568	-0.236773	-0.434890
C28	C	0.728541	-0.251968	-0.356870
C29	C	0.412440	-0.252000	-0.356932
C30	C	1.069990	-0.387818	-0.356859
C31	C	1.070005	-0.445932	-0.356869
C32	C	1.117594	-0.806291	-0.309617
C33	C	1.117622	-0.860895	-0.309627
O34	O	1.157955	-0.889129	-0.269415
N35	N	1.070245	-0.888214	-0.356942
C36	C	1.022841	-0.860926	-0.404255
O37	O	0.982546	-0.889177	-0.444501
C38	C	1.022817	-0.806323	-0.404248
C39	C	1.070192	-0.779007	-0.356925
C40	C	1.164965	-0.778975	-0.262299
C41	C	1.164936	-0.724374	-0.262288
C42	C	1.117534	-0.697090	-0.309596
C43	C	1.070162	-0.724406	-0.356914
C44	C	0.975417	-0.779036	-0.451564
C45	C	0.975397	-0.724429	-0.451554
C46	C	1.022773	-0.697113	-0.404231
C47	C	1.022731	-0.642522	-0.404212
N48	N	1.070108	-0.615202	-0.356897
C49	C	1.117509	-0.642487	-0.309589
C50	C	1.022897	-0.975597	-0.404266
C51	C	1.022917	-1.030199	-0.404270
C52	C	1.117699	-1.030164	-0.309643
C53	C	1.117675	-0.975561	-0.309636
C54	C	1.070274	-0.948278	-0.356952
C55	C	1.117443	-0.527822	-0.309570
C56	C	1.117406	-0.473216	-0.309561
C57	C	1.022627	-0.473256	-0.404190
C58	C	1.022661	-0.527856	-0.404197
C59	C	1.070074	-0.555138	-0.356884
O60	O	0.982421	-0.614254	-0.444405
O61	O	1.157804	-0.614229	-0.269357
C62	C	1.263277	-0.251997	-0.356932
C63	C	1.345591	-0.252006	-0.356949
C64	C	1.070158	-0.251962	-0.550055
C65	C	1.070176	-0.251957	-0.632369
C66	C	1.070260	-0.115602	-0.356943
C67	C	1.070322	-0.057488	-0.356964
C68	C	1.070219	-0.251859	-0.931460
C69	C	1.012746	-0.292130	-0.900108
C70	C	1.012901	-0.292317	-0.814490
C71	C	1.070197	-0.251907	-0.783077
C72	C	1.148220	-0.266868	-0.814182
C73	C	1.147899	-0.267132	-0.899827
C74	C	1.050348	-0.196537	-0.899887
C75	C	1.048612	-0.196856	-0.814236
C76	C	1.070189	-0.251934	-0.699218
C77	C	1.070232	-0.251833	-1.015320
C78	C	1.070115	-0.251951	-0.164482
C79	C	1.070240	-0.251809	-0.082169
H80	H	0.633912	-0.338111	-0.375733
C81	C	1.217046	-0.694333	-0.210223
N82	N	1.256297	-0.671710	-0.171002
C83	C	0.974819	-0.178127	-0.929041
N84	N	0.917926	-0.164267	-0.951000
C85	C	0.923252	-0.694421	-0.503606
N86	N	0.883975	-0.671820	-0.542811
H87	H	1.203570	-0.801184	-0.223775
H88	H	1.156252	-0.953323	-0.271102
H89	H	1.156299	-1.052389	-0.271125
H90	H	1.087419	-0.165258	-0.792854
H91	H	0.506352	-0.198540	-0.454708
C92	C	0.934344	-0.279609	-0.927912
N93	N	0.875291	-0.270178	-0.948860
H94	H	0.633700	-0.220743	-0.241642
H95	H	0.984292	-0.953386	-0.442794
H96	H	0.507180	-0.338099	-0.374826
H97	H	1.156053	-0.550028	-0.271045
H98	H	0.506079	-0.220529	-0.242223
H99	H	0.507068	-0.170421	-0.313200
H100	H	0.955044	-0.282955	-0.793458
H101	H	0.984333	-1.052436	-0.442798
H102	H	0.991194	-0.185574	-0.793905
H103	H	1.092209	-0.166532	-0.920164
H104	H	0.936836	-0.801268	-0.490096
H105	H	0.984086	-0.550098	-0.442733
C106	C	1.030298	-0.347192	-0.929174
N107	N	1.043524	-0.388665	-0.951063
C108	C	0.970491	-0.443233	-0.456229
N109	N	0.931226	-0.420618	-0.495430
H110	H	1.026019	-0.333323	-0.794005
C111	C	0.500868	-0.322846	-0.257732
N112	N	0.480506	-0.334913	-0.199407
H113	H	1.192172	-0.239073	-0.920569
C114	C	0.641685	-0.156320	-0.317785
N115	N	0.663100	-0.114759	-0.331376
H116	H	0.634966	-0.319119	-0.278864
C117	C	0.641052	-0.182018	-0.456612
N118	N	0.661755	-0.140775	-0.472970
H119	H	1.164746	-0.307573	-0.919809
C120	C	1.207626	-0.228490	-0.786694
N121	N	1.252370	-0.199583	-0.765988
C122	C	1.171372	-0.320923	-0.785218
N123	N	1.188806	-0.361640	-0.763404
C124	C	0.642471	-0.273820	-0.495275
N125	N	0.664239	-0.301728	-0.540755
H126	H	1.155985	-0.450977	-0.271023
C127	C	0.500539	-0.277952	-0.492633
N128	N	0.479914	-0.308045	-0.535797
