data_functionalizedCrystal
_audit_creation_method	'MofGen! by Chris Wilmer'
_symmetry_space_group_name_H-M	'P1'
_symmetry_Int_Tables_number	1
_symmetry_cell_setting	triclinic
loop_
_symmetry_equiv_pos_as_xyz
  x,y,z
_cell_length_a	14.971486
_cell_length_b	14.519709
_cell_length_c	14.048226
_cell_angle_alpha	89.992623
_cell_angle_beta	89.998499
_cell_angle_gamma	83.647137
loop_
_atom_site_label
_atom_site_type_symbol
_atom_site_fract_x
_atom_site_fract_y
_atom_site_fract_z
O1	O	1.187015	0.120184	-0.079053
O2	O	1.687015	0.620184	0.420947
O3	O	0.926623	0.134576	-0.079079
O4	O	1.426623	0.634576	0.420921
O5	O	1.063722	-0.006863	-0.079057
O6	O	1.563722	0.493137	0.420943
O7	O	1.049915	0.261622	-0.079076
O8	O	1.549915	0.761622	0.420924
O9	O	1.063706	-0.006871	0.079264
O10	O	1.563706	0.493129	0.579264
O11	O	0.926606	0.134568	0.079242
O12	O	1.426606	0.634568	0.579242
O13	O	1.186998	0.120175	0.079268
O14	O	1.686998	0.620175	0.579268
Zn15	Zn	1.056799	0.127370	0.104392
Zn16	Zn	1.556799	0.627370	0.604392
Zn17	Zn	1.056821	0.127381	-0.104203
Zn18	Zn	1.556821	0.627381	0.395797
O19	O	1.049898	0.261614	0.079246
O20	O	1.549898	0.761614	0.579246
C21	C	0.893289	0.133928	0.000078
C22	C	1.393289	0.633928	0.500078
C23	C	0.793991	0.131999	0.000068
C24	C	1.293991	0.631999	0.500068
C25	C	1.063071	-0.041226	0.000104
C26	C	1.563071	0.458774	0.500104
C27	C	1.061142	-0.143606	0.000104
C28	C	1.561142	0.356394	0.500104
C29	C	0.736812	0.215091	0.000064
C30	C	1.236812	0.715091	0.500064
C31	C	0.643512	0.213273	0.000078
C32	C	1.143512	0.713273	0.500078
C33	C	0.607392	0.128363	0.000090
C34	C	1.107392	0.628363	0.500090
C35	C	0.664578	0.045265	0.000097
C36	C	1.164578	0.545265	0.500097
C37	C	0.757876	0.047084	0.000090
C38	C	1.257876	0.547084	0.500090
C39	C	0.470113	0.041480	0.000111
C40	C	0.970113	0.541480	0.500111
C41	C	0.376808	0.039661	0.000116
C42	C	0.876808	0.539661	0.500116
C43	C	0.355749	0.207669	0.000099
C44	C	0.855749	0.707669	0.500099
C45	C	0.449047	0.209488	0.000092
C46	C	0.949047	0.709488	0.500092
C47	C	0.506227	0.126390	0.000097
C48	C	1.006227	0.626390	0.500097
C49	C	1.054043	-0.518498	0.000079
C50	C	1.554043	-0.018498	0.500079
C51	C	1.056015	-0.414191	0.000086
C52	C	1.556015	0.085809	0.500086
C53	C	1.057593	-0.331055	0.000092
C54	C	1.557593	0.168945	0.500092
C55	C	1.059564	-0.226742	0.000098
C56	C	1.559564	0.273258	0.500098
C57	C	1.220331	0.120823	0.000109
C58	C	1.720331	0.620823	0.500109
C59	C	1.319630	0.122752	0.000112
C60	C	1.819630	0.622752	0.500112
C61	C	1.050550	0.295978	0.000083
C62	C	1.550550	0.795978	0.500083
C63	C	1.052478	0.398358	0.000076
C64	C	1.552478	0.898358	0.500076
N65	N	1.056791	0.127362	0.246753
N66	N	1.556791	0.627362	0.746753
N67	N	1.056837	0.127382	-0.246564
N68	N	1.556837	0.627382	0.253436
C69	C	1.117518	0.064759	0.296581
C70	C	1.617518	0.564759	0.796581
C71	C	1.117524	0.064758	0.396238
C72	C	1.617524	0.564758	0.896238
C73	C	1.056807	0.127366	0.446066
C74	C	1.556807	0.627366	0.946066
C75	C	0.996073	0.189972	0.396231
C76	C	1.496073	0.689972	0.896231
C77	C	0.996064	0.189968	0.296575
C78	C	1.496064	0.689968	0.796575
C79	C	0.996099	0.189979	0.603945
C80	C	1.496099	0.689979	1.103945
C81	C	0.996110	0.189985	0.703608
C82	C	1.496110	0.689985	1.203608
C83	C	1.117560	0.064770	0.703608
C84	C	1.617560	0.564770	1.203608
C85	C	1.117550	0.064765	0.603952
C86	C	1.617550	0.564765	1.103952
C87	C	1.056817	0.127373	0.554124
C88	C	1.556817	0.627373	1.054124
H89	H	0.596960	0.280934	0.000074
H90	H	1.096960	0.780934	0.500074
H91	H	0.946641	0.240958	0.563379
H92	H	1.446641	0.740958	1.063379
H93	H	1.166965	0.013780	0.256017
H94	H	1.666965	0.513780	0.756017
O95	O	0.813387	-0.033655	-0.000079
O96	O	1.313387	0.466345	0.499921
C97	C	0.796979	-0.085211	-0.082058
C98	C	1.296979	0.414789	0.417942
H99	H	0.765165	-0.036558	-0.139371
H100	H	1.265165	0.463442	0.360629
H101	H	0.863113	-0.122115	-0.109582
H102	H	1.363113	0.377885	0.390418
H103	H	0.749392	-0.138646	-0.063511
H104	H	1.249392	0.361354	0.436489
H105	H	1.166972	0.013782	0.436808
H106	H	1.666972	0.513782	0.936808
O107	O	0.937212	0.250762	0.752160
O108	O	1.437212	0.750762	1.252160
C109	C	0.950236	0.237325	0.850803
C110	C	1.450236	0.737325	1.350803
H111	H	1.021297	0.202986	0.864403
H112	H	1.521297	0.702986	1.364403
H113	H	0.940392	0.307150	0.888669
H114	H	1.440392	0.807150	1.388669
H115	H	0.899550	0.190977	0.879102
H116	H	1.399550	0.690977	1.379102
O117	O	0.483988	0.292048	0.000120
O118	O	0.983988	0.792048	0.500120
C119	C	0.413516	0.365003	0.000095
C120	C	0.913516	0.865003	0.500095
H121	H	0.350096	0.339085	0.030076
H122	H	0.850096	0.839085	0.530076
H123	H	0.433114	0.424275	0.046052
H124	H	0.933114	0.924275	0.546052
H125	H	0.400354	0.390642	-0.075861
H126	H	0.900354	0.890642	0.424139
O127	O	0.300121	0.288333	-0.000031
O128	O	0.800121	0.788333	0.499969
C129	C	0.245533	0.292318	-0.082034
C130	C	0.745533	0.792318	0.417966
H131	H	0.240694	0.219111	-0.109356
H132	H	0.740694	0.719111	0.390644
H133	H	0.175471	0.326598	-0.063593
H134	H	0.675471	0.826598	0.436407
H135	H	0.276293	0.334467	-0.139462
H136	H	0.776293	0.834467	0.360538
H137	H	0.946632	0.240946	0.436807
H138	H	1.446632	0.740946	0.936807
O139	O	0.937042	0.250872	0.248317
O140	O	1.437042	0.750872	0.748317
C141	C	0.883439	0.306118	0.313663
C142	C	1.383439	0.806118	0.813663
H143	H	0.920118	0.307228	0.384695
H144	H	1.420118	0.807228	0.884695
H145	H	0.869903	0.379744	0.284856
H146	H	1.369903	0.879744	0.784856
H147	H	0.816952	0.276058	0.324278
H148	H	1.316952	0.776058	0.824278
H149	H	0.516667	-0.026188	0.000117
H150	H	1.016667	0.473812	0.500117
H151	H	0.347403	-0.029481	0.000127
H152	H	0.847403	0.470519	0.500127
H153	H	0.635162	-0.023871	0.000121
H154	H	1.135162	0.476129	0.500121
H155	H	1.166995	0.013790	0.563383
H156	H	1.666995	0.513790	1.063383
O157	O	1.176466	0.003982	0.752153
O158	O	1.676466	0.503982	1.252153
C159	C	1.163469	0.017419	0.850797
C160	C	1.663469	0.517419	1.350797
H161	H	1.092413	0.051763	0.864412
H162	H	1.592413	0.551763	1.364412
H163	H	1.173319	-0.052406	0.888679
H164	H	1.673319	0.447594	1.388679
H165	H	1.214165	0.063764	0.879065
H166	H	1.714165	0.563764	1.379065
H167	H	0.766213	0.284234	0.000054
H168	H	1.266213	0.784234	0.500054
