data_functionalizedCrystal
_audit_creation_method	'MofGen! by Chris Wilmer'
_symmetry_space_group_name_H-M	'P1'
_symmetry_Int_Tables_number	1
_symmetry_cell_setting	triclinic
loop_
_symmetry_equiv_pos_as_xyz
  x,y,z
_cell_length_a	10.489741
_cell_length_b	10.489741
_cell_length_c	10.868271
_cell_angle_alpha	89.995151
_cell_angle_beta	89.998385
_cell_angle_gamma	84.539174
loop_
_atom_site_label
_atom_site_type_symbol
_atom_site_fract_x
_atom_site_fract_y
_atom_site_fract_z
O1	O	1.694053	0.179969	-0.102245
O2	O	1.322858	0.196862	-0.102265
O3	O	1.516902	0.002817	-0.102247
O4	O	1.500009	0.374013	-0.102263
O5	O	1.516886	0.002810	0.102397
O6	O	1.322841	0.196854	0.102380
O7	O	1.694037	0.179961	0.102399
Zn8	Zn	1.508437	0.188406	0.134881
Zn9	Zn	1.508458	0.188416	-0.134747
O10	O	1.499993	0.374005	0.102382
C11	C	1.275318	0.195582	0.000055
C12	C	1.133688	0.191765	0.000048
C13	C	1.065548	0.068300	0.000065
C14	C	0.973429	0.126627	-0.100835
C15	C	0.973448	0.126649	0.100928
C16	C	1.043435	0.250143	-0.100935
C17	C	1.043463	0.250147	0.100919
C18	C	0.951371	0.308564	-0.000006
C19	C	1.515618	-0.044718	0.000074
C20	C	1.511801	-0.186348	0.000072
C21	C	1.388336	-0.254488	0.000057
C22	C	1.446652	-0.346614	0.100960
C23	C	1.446697	-0.346581	-0.100804
C24	C	1.570167	-0.276609	0.101059
C25	C	1.570195	-0.276566	-0.100796
C26	C	1.628600	-0.368665	0.000132
C27	C	1.741577	0.181241	0.000077
C28	C	1.883206	0.185058	0.000076
C29	C	1.501277	0.421541	0.000058
C30	C	1.505094	0.563170	0.000052
N31	N	1.508432	0.188398	0.318896
N32	N	1.508473	0.188414	-0.318761
C33	C	1.508451	0.188414	0.569902
C34	C	1.508436	0.188409	0.430224
H35	H	1.074502	0.302342	0.186224
H36	H	0.901947	0.410168	-0.000065
H37	H	1.286824	-0.204837	0.000153
H38	H	1.115238	-0.033196	-0.000057
Cl39	Cl	1.091033	0.330739	-0.232789
Cl40	Cl	1.785465	-0.444978	0.000222
Cl41	Cl	1.366019	-0.394415	-0.232503
Cl42	Cl	1.365990	-0.394500	0.232659
Cl43	Cl	0.925557	0.045982	-0.232536
H44	H	0.942463	0.074383	0.186232
Cl45	Cl	1.650794	-0.228625	-0.232502
Cl46	Cl	1.650746	-0.229020	0.232912
