data_functionalizedCrystal
_audit_creation_method	'MofGen! by Chris Wilmer'
_symmetry_space_group_name_H-M	'P1'
_symmetry_Int_Tables_number	1
_symmetry_cell_setting	triclinic
loop_
_symmetry_equiv_pos_as_xyz
  x,y,z
_cell_length_a	14.971487
_cell_length_b	6.394989
_cell_length_c	14.048226
_cell_angle_alpha	90.003392
_cell_angle_beta	90.000286
_cell_angle_gamma	85.056057
loop_
_atom_site_label
_atom_site_type_symbol
_atom_site_fract_x
_atom_site_fract_y
_atom_site_fract_z
O1	O	-1.189891	-0.272219	-0.079018
O2	O	-0.929843	-0.304815	-0.079049
O3	O	-1.063558	0.015538	-0.079033
O4	O	-1.056176	-0.592572	-0.079033
O5	O	-1.063541	0.015557	0.079288
O6	O	-0.929826	-0.304796	0.079273
O7	O	-1.189874	-0.272200	0.079304
Zn8	Zn	-1.059847	-0.288495	0.104425
Zn9	Zn	-1.059869	-0.288520	-0.104170
O10	O	-1.056159	-0.592553	0.079288
C11	C	-0.896494	-0.303348	0.000108
C12	C	-0.797150	-0.298979	0.000096
C13	C	-0.741960	-0.487178	0.000096
C14	C	-0.648616	-0.483060	0.000108
C15	C	-0.610464	-0.290741	0.000113
C16	C	-0.665661	-0.102527	0.000116
C17	C	-0.759003	-0.106647	0.000110
C18	C	-0.471106	-0.093953	0.000124
C19	C	-0.377757	-0.089832	0.000128
C20	C	-0.360719	-0.470366	0.000122
C21	C	-0.454061	-0.474486	0.000117
C22	C	-0.509252	-0.286271	0.000118
C23	C	-0.223223	-0.273666	0.000139
C24	C	-0.322567	-0.278031	0.000128
C25	C	-1.062090	0.093372	0.000123
C26	C	-1.057629	0.329618	0.000122
N27	N	-1.059839	-0.288477	0.246786
N28	N	-1.059885	-0.288522	-0.246531
C29	C	-1.119068	-0.146683	0.296611
C30	C	-1.119074	-0.146682	0.396268
C31	C	-1.059855	-0.288486	0.446099
C32	C	-1.000620	-0.430287	0.396267
C33	C	-1.000610	-0.430276	0.296612
C34	C	-1.000646	-0.430302	0.603982
C35	C	-1.000656	-0.430316	0.703644
C36	C	-1.119109	-0.146708	0.703638
C37	C	-1.119100	-0.146697	0.603982
C38	C	-1.059865	-0.288501	0.554157
H39	H	-0.634590	0.054062	0.000133
H40	H	-1.167339	-0.031246	0.744212
H41	H	-0.346697	0.066771	0.000133
O42	O	-0.818534	0.096340	0.000117
H43	H	-0.861476	0.103562	-0.064407
H44	H	-1.167324	-0.031240	0.563410
O45	O	-0.783109	-0.694608	0.000100
H46	H	-0.729046	-0.824781	0.000115
O47	O	-0.589088	-0.686047	0.000112
H48	H	-0.602906	-0.778068	-0.064424
O49	O	-0.495217	-0.681908	0.000124
H50	H	-0.441160	-0.812094	0.000138
O51	O	-0.301200	-0.673379	0.000132
H52	H	-0.229883	-0.638212	0.000150
O53	O	-0.530640	0.109041	0.000127
H54	H	-0.516816	0.201049	-0.064405
H55	H	-0.952433	-0.545785	0.744212
H56	H	-0.952408	-0.545767	0.563417
H57	H	-1.167294	-0.031219	0.256045
H58	H	-1.167301	-0.031222	0.436835
O59	O	-0.936752	-0.583255	0.450007
H60	H	-0.892298	-0.495179	0.495431
O61	O	-0.936733	-0.583219	0.242864
H62	H	-0.895561	-0.681842	0.294255
