data_functionalizedCrystal
_audit_creation_method	'MofGen! by Chris Wilmer'
_symmetry_space_group_name_H-M	'P1'
_symmetry_Int_Tables_number	1
_symmetry_cell_setting	triclinic
loop_
_symmetry_equiv_pos_as_xyz
  x,y,z
_cell_length_a	26.210047
_cell_length_b	27.732048
_cell_length_c	27.732048
_cell_angle_alpha	82.642655
_cell_angle_beta	89.999521
_cell_angle_gamma	89.996535
loop_
_atom_site_label
_atom_site_type_symbol
_atom_site_fract_x
_atom_site_fract_y
_atom_site_fract_z
O1	O	0.042369	-0.640931	-0.057510
O2	O	0.292369	-0.390931	0.192490
O3	O	0.542369	-0.140931	0.442490
O4	O	0.792369	0.109069	0.692490
O5	O	0.042385	-0.500138	-0.066256
O6	O	0.292385	-0.250138	0.183744
O7	O	0.542385	-0.000138	0.433744
O8	O	0.792385	0.249862	0.683744
O9	O	0.042367	-0.574907	0.008514
O10	O	0.292367	-0.324907	0.258514
O11	O	0.542367	-0.074907	0.508514
O12	O	0.792367	0.175093	0.758514
O13	O	0.042387	-0.566162	-0.132279
O14	O	0.292387	-0.316162	0.117721
O15	O	0.542387	-0.066162	0.367721
O16	O	0.792387	0.183838	0.617721
O17	O	-0.042491	-0.574893	0.008502
O18	O	0.207509	-0.324893	0.258502
O19	O	0.457509	-0.074893	0.508502
O20	O	0.707509	0.175107	0.758502
O21	O	-0.042473	-0.500123	-0.066267
O22	O	0.207527	-0.250123	0.183733
O23	O	0.457527	-0.000123	0.433733
O24	O	0.707527	0.249877	0.683733
O25	O	-0.042489	-0.640917	-0.057522
O26	O	0.207511	-0.390917	0.192478
O27	O	0.457511	-0.140917	0.442478
O28	O	0.707511	0.109083	0.692478
Cu29	Cu	-0.050229	-0.570519	-0.061896
Cu30	Cu	0.199771	-0.320519	0.188104
Cu31	Cu	0.449771	-0.070519	0.438104
Cu32	Cu	0.699771	0.179481	0.688104
Cu33	Cu	0.050125	-0.570536	-0.061882
Cu34	Cu	0.300125	-0.320536	0.188118
Cu35	Cu	0.550125	-0.070536	0.438118
Cu36	Cu	0.800125	0.179464	0.688118
O37	O	-0.042471	-0.566147	-0.132291
O38	O	0.207529	-0.316147	0.117709
O39	O	0.457529	-0.066147	0.367709
O40	O	0.707529	0.183853	0.617709
C41	C	-0.000042	-0.482124	-0.066078
C42	C	0.249958	-0.232124	0.183922
C43	C	0.499958	0.017876	0.433922
C44	C	0.749958	0.267876	0.683922
C45	C	-0.000036	-0.428469	-0.065525
C46	C	0.249964	-0.178469	0.184475
C47	C	0.499964	0.071531	0.434475
C48	C	0.749964	0.321531	0.684475
N49	N	-0.120813	-0.570510	-0.061905
N50	N	0.129187	-0.320510	0.188095
N51	N	0.379187	-0.070510	0.438095
N52	N	0.629187	0.179490	0.688095
C53	C	-0.000064	-0.574716	0.026515
C54	C	0.249936	-0.324716	0.276515
C55	C	0.499936	-0.074716	0.526515
C56	C	0.749936	0.175284	0.776515
C57	C	-0.000068	-0.574164	0.080170
C58	C	0.249932	-0.324164	0.330170
C59	C	0.499932	-0.074164	0.580170
C60	C	0.749932	0.175836	0.830170
C61	C	-0.473336	-0.603640	-0.028781
C62	C	-0.223336	-0.353640	0.221219
C63	C	0.026664	-0.103640	0.471219
C64	C	0.276664	0.146360	0.721219
C65	C	-0.686994	-0.603651	-0.028774
C66	C	-0.436994	-0.353651	0.221226
C67	C	-0.186994	-0.103651	0.471226
C68	C	0.063006	0.146349	0.721226
O69	O	-0.714623	-0.631801	-0.000614
O70	O	-0.464623	-0.381801	0.249386
O71	O	-0.214623	-0.131801	0.499386
O72	O	0.035377	0.118199	0.749386
N73	N	-0.713707	-0.570538	-0.061871
N74	N	-0.463707	-0.320538	0.188129
N75	N	-0.213707	-0.070538	0.438129
N76	N	0.036293	0.179462	0.688129
C77	C	-0.687003	-0.537419	-0.094970
C78	C	-0.437003	-0.287419	0.155030
C79	C	-0.187003	-0.037419	0.405030
C80	C	0.062997	0.212581	0.655030
O81	O	-0.714626	-0.509251	-0.123117
O82	O	-0.464626	-0.259251	0.126883
O83	O	-0.214626	-0.009251	0.376883
O84	O	0.035374	0.240749	0.626883
C85	C	-0.473345	-0.537406	-0.094974
C86	C	-0.223345	-0.287406	0.155026
C87	C	0.026655	-0.037406	0.405026
C88	C	0.276655	0.212594	0.655026
C89	C	-0.446635	-0.570524	-0.061878
C90	C	-0.196635	-0.320524	0.188122
C91	C	0.053365	-0.070524	0.438122
C92	C	0.303365	0.179476	0.688122
C93	C	-0.446625	-0.636755	0.004312
C94	C	-0.196625	-0.386755	0.254312
C95	C	0.053375	-0.136755	0.504312
C96	C	0.303375	0.113245	0.754312
C97	C	-0.393214	-0.636754	0.004308
C98	C	-0.143214	-0.386754	0.254308
C99	C	0.106786	-0.136754	0.504308
C100	C	0.356786	0.113246	0.754308
C101	C	-0.366513	-0.603638	-0.028789
C102	C	-0.116513	-0.353638	0.221211
C103	C	0.133487	-0.103638	0.471211
C104	C	0.383487	0.146362	0.721211
C105	C	-0.393223	-0.570523	-0.061882
C106	C	-0.143223	-0.320523	0.188118
C107	C	0.106777	-0.070523	0.438118
C108	C	0.356777	0.179477	0.688118
C109	C	-0.446641	-0.504284	-0.128070
C110	C	-0.196641	-0.254284	0.121930
C111	C	0.053359	-0.004284	0.371930
C112	C	0.303359	0.245716	0.621930
C113	C	-0.393223	-0.504283	-0.128067
C114	C	-0.143223	-0.254283	0.121933
C115	C	0.106777	-0.004283	0.371933
C116	C	0.356777	0.245717	0.621933
C117	C	-0.366513	-0.537401	-0.094971
C118	C	-0.116513	-0.287401	0.155029
C119	C	0.133487	-0.037401	0.405029
C120	C	0.383487	0.212599	0.655029
C121	C	-0.313111	-0.537405	-0.094983
C122	C	-0.063111	-0.287405	0.155017
C123	C	0.186889	-0.037405	0.405017
C124	C	0.436889	0.212595	0.655017
N125	N	-0.286397	-0.570518	-0.061886
N126	N	-0.036397	-0.320518	0.188114
N127	N	0.213603	-0.070518	0.438114
N128	N	0.463603	0.179482	0.688114
C129	C	-0.313098	-0.603634	-0.028789
C130	C	-0.063098	-0.353634	0.221211
C131	C	0.186902	-0.103634	0.471211
C132	C	0.436902	0.146366	0.721211
C133	C	-0.799176	-0.537428	-0.094966
C134	C	-0.549176	-0.287428	0.155034
C135	C	-0.299176	-0.037428	0.405034
C136	C	-0.049176	0.212572	0.655034
C137	C	-0.852590	-0.537432	-0.094965
C138	C	-0.602590	-0.287432	0.155035
C139	C	-0.352590	-0.037432	0.405035
C140	C	-0.102590	0.212568	0.655035
C141	C	-0.852578	-0.603664	-0.028769
C142	C	-0.602578	-0.353664	0.221231
C143	C	-0.352578	-0.103664	0.471231
C144	C	-0.102578	0.146336	0.721231
C145	C	-0.799163	-0.603662	-0.028773
C146	C	-0.549163	-0.353662	0.221227
C147	C	-0.299163	-0.103662	0.471227
C148	C	-0.049163	0.146338	0.721227
C149	C	-0.772463	-0.570541	-0.061869
C150	C	-0.522463	-0.320541	0.188131
C151	C	-0.272463	-0.070541	0.438131
C152	C	-0.022463	0.179459	0.688131
C153	C	-0.200931	-0.603629	-0.028800
C154	C	0.049069	-0.353629	0.221200
C155	C	0.299069	-0.103629	0.471200
C156	C	0.549069	0.146371	0.721200
C157	C	-0.147514	-0.603626	-0.028808
C158	C	0.102486	-0.353626	0.221192
C159	C	0.352486	-0.103626	0.471192
C160	C	0.602486	0.146374	0.721192
C161	C	-0.147531	-0.537393	-0.095002
C162	C	0.102469	-0.287393	0.154998
C163	C	0.352469	-0.037393	0.404998
C164	C	0.602469	0.212607	0.654998
C165	C	-0.200943	-0.537397	-0.094996
C166	C	0.049057	-0.287397	0.155004
C167	C	0.299057	-0.037397	0.405004
C168	C	0.549057	0.212603	0.655004
C169	C	-0.227641	-0.570517	-0.061891
C170	C	0.022359	-0.320517	0.188109
C171	C	0.272359	-0.070517	0.438109
C172	C	0.522359	0.179483	0.688109
O173	O	-0.285449	-0.509267	-0.123125
O174	O	-0.035449	-0.259267	0.126875
O175	O	0.214551	-0.009267	0.376875
O176	O	0.464551	0.240733	0.626875
O177	O	-0.285466	-0.631790	-0.000639
O178	O	-0.035466	-0.381790	0.249361
O179	O	0.214534	-0.131790	0.499361
O180	O	0.464534	0.118210	0.749361
C181	C	-0.526747	-0.603641	-0.028777
C182	C	-0.276747	-0.353641	0.221223
C183	C	-0.026747	-0.103641	0.471223
C184	C	0.223253	0.146359	0.721223
C185	C	-0.553457	-0.570527	-0.061871
C186	C	-0.303457	-0.320527	0.188129
C187	C	-0.053457	-0.070527	0.438129
C188	C	0.196543	0.179473	0.688129
C189	C	-0.526756	-0.537410	-0.094968
C190	C	-0.276756	-0.287410	0.155032
C191	C	-0.026756	-0.037410	0.405032
C192	C	0.223244	0.212590	0.655032
C193	C	-0.606872	-0.570530	-0.061870
C194	C	-0.356872	-0.320530	0.188130
C195	C	-0.106872	-0.070530	0.438130
C196	C	0.143128	0.179470	0.688130
C197	C	-0.633573	-0.603646	-0.028773
C198	C	-0.383573	-0.353646	0.221227
C199	C	-0.133573	-0.103646	0.471227
C200	C	0.116427	0.146354	0.721227
C201	C	-0.606859	-0.636759	0.004323
C202	C	-0.356859	-0.386759	0.254323
C203	C	-0.106859	-0.136759	0.504323
C204	C	0.143141	0.113241	0.754323
C205	C	-0.553448	-0.636758	0.004320
C206	C	-0.303448	-0.386758	0.254320
C207	C	-0.053448	-0.136758	0.504320
C208	C	0.196552	0.113242	0.754320
C209	C	-0.553470	-0.504298	-0.128064
C210	C	-0.303470	-0.254298	0.121936
C211	C	-0.053470	-0.004298	0.371936
C212	C	0.196530	0.245702	0.621936
C213	C	-0.606881	-0.504302	-0.128058
C214	C	-0.356881	-0.254302	0.121942
C215	C	-0.106881	-0.004302	0.371942
C216	C	0.143119	0.245698	0.621942
C217	C	-0.633582	-0.537418	-0.094961
C218	C	-0.383582	-0.287418	0.155039
C219	C	-0.133582	-0.037418	0.405039
C220	C	0.116418	0.212582	0.655039
N221	N	0.120709	-0.570548	-0.061868
N222	N	0.370709	-0.320548	0.188132
N223	N	0.620709	-0.070548	0.438132
N224	N	0.870709	0.179452	0.688132
C225	C	-0.000061	-0.658931	-0.057699
C226	C	0.249939	-0.408931	0.192301
C227	C	0.499939	-0.158931	0.442301
C228	C	0.749939	0.091069	0.692301
C229	C	-0.000064	-0.712586	-0.058252
C230	C	0.249936	-0.462586	0.191748
C231	C	0.499936	-0.212586	0.441748
C232	C	0.749936	0.037414	0.691748
C233	C	-0.000053	-0.089654	-0.106229
C234	C	0.249947	0.160346	0.143771
C235	C	0.499947	0.410346	0.393771
C236	C	0.749947	0.660346	0.643771
C237	C	-0.000057	0.112006	-0.104178
C238	C	0.249943	0.362006	0.145822
C239	C	0.499943	0.612006	0.395822
C240	C	0.749943	0.862006	0.645822
O241	O	-0.000074	0.143262	-0.141398
O242	O	0.249926	0.393262	0.108602
O243	O	0.499926	0.643262	0.358602
O244	O	0.749926	0.893262	0.608602
N245	N	-0.000063	0.131130	-0.059843
N246	N	0.249937	0.381130	0.190157
N247	N	0.499937	0.631130	0.440157
N248	N	0.749937	0.881130	0.690157
C249	C	-0.000071	0.099835	-0.016017
C250	C	0.249929	0.349835	0.233983
C251	C	0.499929	0.599835	0.483983
C252	C	0.749929	0.849835	0.733983
O253	O	-0.000081	0.120728	0.021740
O254	O	0.249919	0.370728	0.271740
O255	O	0.499919	0.620728	0.521740
O256	O	0.749919	0.870728	0.771740
C257	C	-0.000069	-0.101824	-0.018068
C258	C	0.249931	0.148176	0.231932
C259	C	0.499931	0.398176	0.481932
C260	C	0.749931	0.648176	0.731932
C261	C	-0.000059	-0.120944	-0.062407
C262	C	0.249941	0.129056	0.187593
C263	C	0.499941	0.379056	0.437593
C264	C	0.749941	0.629056	0.687593
C265	C	-0.000043	-0.108775	-0.150563
C266	C	0.249957	0.141225	0.099437
C267	C	0.499957	0.391225	0.349437
C268	C	0.749957	0.641225	0.599437
C269	C	-0.000039	-0.159187	-0.151076
C270	C	0.249961	0.090813	0.098924
C271	C	0.499961	0.340813	0.348924
C272	C	0.749961	0.590813	0.598924
C273	C	-0.000045	-0.190477	-0.107253
C274	C	0.249955	0.059523	0.142747
C275	C	0.499955	0.309523	0.392747
C276	C	0.749955	0.559523	0.642747
C277	C	-0.000055	-0.171356	-0.062919
C278	C	0.249945	0.078644	0.187081
C279	C	0.499945	0.328644	0.437081
C280	C	0.749945	0.578644	0.687081
C281	C	-0.000081	-0.133117	0.025757
C282	C	0.249919	0.116883	0.275757
C283	C	0.499919	0.366883	0.525757
C284	C	0.749919	0.616883	0.775757
C285	C	-0.000082	-0.183535	0.025240
C286	C	0.249918	0.066465	0.275240
C287	C	0.499918	0.316465	0.525240
C288	C	0.749918	0.566465	0.775240
C289	C	-0.000071	-0.202655	-0.019098
C290	C	0.249929	0.047345	0.230902
C291	C	0.499929	0.297345	0.480902
C292	C	0.749929	0.547345	0.730902
C293	C	-0.000057	-0.253059	-0.019609
C294	C	0.249943	-0.003059	0.230391
C295	C	0.499943	0.246941	0.480391
C296	C	0.749943	0.496941	0.730391
N297	N	-0.000051	-0.272183	-0.063944
N298	N	0.249949	-0.022183	0.186056
N299	N	0.499949	0.227817	0.436056
N300	N	0.749949	0.477817	0.686056
C301	C	-0.000045	-0.240892	-0.107766
C302	C	0.249955	0.009108	0.142234
C303	C	0.499955	0.259108	0.392234
C304	C	0.749955	0.509108	0.642234
C305	C	-0.000070	0.205709	-0.014943
C306	C	0.249930	0.455709	0.235057
C307	C	0.499930	0.705709	0.485057
C308	C	0.749930	0.955709	0.735057
C309	C	-0.000070	0.256124	-0.014430
C310	C	0.249930	0.506124	0.235570
C311	C	0.499930	0.756124	0.485570
C312	C	0.749930	1.006124	0.735570
C313	C	-0.000057	0.268291	-0.102591
C314	C	0.249943	0.518291	0.147409
C315	C	0.499943	0.768291	0.397409
C316	C	0.749943	1.018291	0.647409
C317	C	-0.000054	0.217876	-0.103104
C318	C	0.249946	0.467876	0.146896
C319	C	0.499946	0.717876	0.396896
C320	C	0.749946	0.967876	0.646896
C321	C	-0.000065	0.186585	-0.059278
C322	C	0.249935	0.436585	0.190722
C323	C	0.499935	0.686585	0.440722
C324	C	0.749935	0.936585	0.690722
C325	C	-0.000036	-0.346761	-0.108839
C326	C	0.249964	-0.096761	0.141161
C327	C	0.499964	0.153239	0.391161
C328	C	0.749964	0.403239	0.641161
C329	C	-0.000030	-0.397178	-0.109347
C330	C	0.249970	-0.147178	0.140653
C331	C	0.499970	0.102822	0.390653
C332	C	0.749970	0.352822	0.640653
C333	C	-0.000045	-0.409341	-0.021186
C334	C	0.249955	-0.159341	0.228814
C335	C	0.499955	0.090659	0.478814
C336	C	0.749955	0.340659	0.728814
C337	C	-0.000049	-0.358929	-0.020678
C338	C	0.249951	-0.108929	0.229322
C339	C	0.499951	0.141071	0.479322
C340	C	0.749951	0.391071	0.729322
C341	C	-0.000046	-0.327639	-0.064508
C342	C	0.249954	-0.077639	0.185492
C343	C	0.499954	0.172361	0.435492
C344	C	0.749954	0.422361	0.685492
O345	O	-0.000046	-0.284343	0.017592
O346	O	0.249954	-0.034343	0.267592
O347	O	0.499954	0.215657	0.517592
O348	O	0.749954	0.465657	0.767592
O349	O	-0.000047	-0.261794	-0.145518
O350	O	0.249953	-0.011794	0.104482
O351	O	0.499953	0.238206	0.354482
O352	O	0.749953	0.488206	0.604482
C353	C	-0.000057	-0.039242	-0.105716
C354	C	0.249943	0.210758	0.144284
C355	C	0.499943	0.460758	0.394284
C356	C	0.749943	0.710758	0.644284
C357	C	-0.000067	-0.020120	-0.061382
C358	C	0.249933	0.229880	0.188618
C359	C	0.499933	0.479880	0.438618
C360	C	0.749933	0.729880	0.688618
C361	C	-0.000073	-0.051411	-0.017560
C362	C	0.249927	0.198589	0.232440
C363	C	0.499927	0.448589	0.482440
C364	C	0.749927	0.698589	0.732440
C365	C	-0.000066	0.030294	-0.060869
C366	C	0.249934	0.280294	0.189131
C367	C	0.499934	0.530294	0.439131
C368	C	0.749934	0.780294	0.689131
C369	C	-0.000060	0.061585	-0.104691
C370	C	0.249940	0.311585	0.145309
C371	C	0.499940	0.561585	0.395309
C372	C	0.749940	0.811585	0.645309
C373	C	-0.000054	0.042461	-0.149026
C374	C	0.249946	0.292461	0.100974
C375	C	0.499946	0.542461	0.350974
C376	C	0.749946	0.792461	0.600974
C377	C	-0.000050	-0.007951	-0.149539
C378	C	0.249950	0.242049	0.100461
C379	C	0.499950	0.492049	0.350461
C380	C	0.749950	0.742049	0.600461
C381	C	-0.000078	-0.032287	0.026775
C382	C	0.249922	0.217713	0.276775
C383	C	0.499922	0.467713	0.526775
C384	C	0.749922	0.717713	0.776775
C385	C	-0.000082	0.018125	0.027284
C386	C	0.249918	0.268125	0.277284
C387	C	0.499918	0.518125	0.527284
C388	C	0.749918	0.768125	0.777284
C389	C	-0.000076	0.049416	-0.016538
C390	C	0.249924	0.299416	0.233462
C391	C	0.499924	0.549416	0.483462
C392	C	0.749924	0.799416	0.733462
C393	C	-0.000040	-0.566338	-0.150292
C394	C	0.249960	-0.316338	0.099708
C395	C	0.499960	-0.066338	0.349708
C396	C	0.749960	0.183662	0.599708
C397	C	-0.000032	-0.566891	-0.203947
C398	C	0.249968	-0.316891	0.046053
C399	C	0.499968	-0.066891	0.296053
C400	C	0.749968	0.183109	0.546053
C401	C	-0.000046	-0.614867	0.418985
C402	C	0.249954	-0.364867	0.668985
C403	C	0.499954	-0.114867	0.918985
C404	C	0.749954	0.135133	1.168985
C405	C	-0.000039	-0.612816	0.620645
C406	C	0.249961	-0.362816	0.870645
C407	C	0.499961	-0.112816	1.120645
C408	C	0.749961	0.137184	1.370645
O409	O	-0.000021	-0.650037	0.651900
O410	O	0.249979	-0.400037	0.901900
O411	O	0.499979	-0.150037	1.151900
O412	O	0.749979	0.099963	1.401900
N413	N	-0.000034	-0.568481	0.639768
N414	N	0.249966	-0.318481	0.889768
N415	N	0.499966	-0.068481	1.139768
N416	N	0.749966	0.181519	1.389768
C417	C	-0.000028	-0.524656	0.608474
C418	C	0.249972	-0.274656	0.858474
C419	C	0.499972	-0.024656	1.108474
C420	C	0.749972	0.225344	1.358474
O421	O	-0.000019	-0.486899	0.629367
O422	O	0.249981	-0.236899	0.879367
O423	O	0.499981	0.013101	1.129367
O424	O	0.749981	0.263101	1.379367
C425	C	-0.000032	-0.526707	0.406815
C426	C	0.249968	-0.276707	0.656815
C427	C	0.499968	-0.026707	0.906815
C428	C	0.749968	0.223293	1.156815
C429	C	-0.000042	-0.571045	0.387694
C430	C	0.249958	-0.321045	0.637694
C431	C	0.499958	-0.071045	0.887694
C432	C	0.749958	0.178955	1.137694
C433	C	-0.000056	-0.659202	0.399864
C434	C	0.249944	-0.409202	0.649864
C435	C	0.499944	-0.159202	0.899864
C436	C	0.749944	0.090798	1.149864
C437	C	-0.000060	-0.659714	0.349452
C438	C	0.249940	-0.409714	0.599452
C439	C	0.499940	-0.159714	0.849452
C440	C	0.749940	0.090286	1.099452
C441	C	-0.000056	-0.615892	0.318161
C442	C	0.249944	-0.365892	0.568161
C443	C	0.499944	-0.115892	0.818161
C444	C	0.749944	0.134108	1.068161
C445	C	-0.000046	-0.571557	0.337282
C446	C	0.249954	-0.321557	0.587282
C447	C	0.499954	-0.071557	0.837282
C448	C	0.749954	0.178443	1.087282
C449	C	-0.000022	-0.482882	0.375521
C450	C	0.249978	-0.232882	0.625521
C451	C	0.499978	0.017118	0.875521
C452	C	0.749978	0.267118	1.125521
C453	C	-0.000022	-0.483399	0.325104
C454	C	0.249978	-0.233399	0.575104
C455	C	0.499978	0.016601	0.825104
C456	C	0.749978	0.266601	1.075104
C457	C	-0.000032	-0.527737	0.305983
C458	C	0.249968	-0.277737	0.555983
C459	C	0.499968	-0.027737	0.805983
C460	C	0.749968	0.222263	1.055983
C461	C	-0.000046	-0.528247	0.255580
C462	C	0.249954	-0.278247	0.505580
C463	C	0.499954	-0.028247	0.755580
C464	C	0.749954	0.221753	1.005580
N465	N	-0.000051	-0.572583	0.236456
N466	N	0.249949	-0.322583	0.486456
N467	N	0.499949	-0.072583	0.736456
N468	N	0.749949	0.177417	0.986456
C469	C	-0.000056	-0.616405	0.267747
C470	C	0.249944	-0.366405	0.517747
C471	C	0.499944	-0.116405	0.767747
C472	C	0.749944	0.133595	1.017747
C473	C	-0.000027	-0.523582	0.714348
C474	C	0.249973	-0.273582	0.964348
C475	C	0.499973	-0.023582	1.214348
C476	C	0.749973	0.226418	1.464348
C477	C	-0.000027	-0.523069	0.764762
C478	C	0.249973	-0.273069	1.014762
C479	C	0.499973	-0.023069	1.264762
C480	C	0.749973	0.226931	1.514762
C481	C	-0.000037	-0.611230	0.776930
C482	C	0.249963	-0.361230	1.026930
C483	C	0.499963	-0.111230	1.276930
C484	C	0.749963	0.138770	1.526930
C485	C	-0.000041	-0.611742	0.726514
C486	C	0.249959	-0.361742	0.976514
C487	C	0.499959	-0.111742	1.226514
C488	C	0.749959	0.138258	1.476514
C489	C	-0.000032	-0.567917	0.695224
C490	C	0.249968	-0.317917	0.945224
C491	C	0.499968	-0.067917	1.195224
C492	C	0.749968	0.182083	1.445224
C493	C	-0.000066	-0.617477	0.161878
C494	C	0.249934	-0.367477	0.411878
C495	C	0.499934	-0.117477	0.661878
C496	C	0.749934	0.132523	0.911878
C497	C	-0.000073	-0.617986	0.111461
C498	C	0.249927	-0.367986	0.361461
C499	C	0.499927	-0.117986	0.611461
C500	C	0.749927	0.132014	0.861461
C501	C	-0.000060	-0.529825	0.099298
C502	C	0.249940	-0.279825	0.349298
C503	C	0.499940	-0.029825	0.599298
C504	C	0.749940	0.220175	0.849298
C505	C	-0.000056	-0.529316	0.149710
C506	C	0.249944	-0.279316	0.399710
C507	C	0.499944	-0.029316	0.649710
C508	C	0.749944	0.220684	0.899710
C509	C	-0.000057	-0.573147	0.180999
C510	C	0.249943	-0.323147	0.430999
C511	C	0.499943	-0.073147	0.680999
C512	C	0.749943	0.176853	0.930999
O513	O	-0.000059	-0.491047	0.224296
O514	O	0.249941	-0.241047	0.474296
O515	O	0.499941	0.008953	0.724296
O516	O	0.749941	0.258953	0.974296
O517	O	-0.000054	-0.654156	0.246844
O518	O	0.249946	-0.404156	0.496844
O519	O	0.499946	-0.154156	0.746844
O520	O	0.749946	0.095844	0.996844
C521	C	-0.000042	-0.614355	0.469397
C522	C	0.249958	-0.364355	0.719397
C523	C	0.499958	-0.114355	0.969397
C524	C	0.749958	0.135645	1.219397
C525	C	-0.000033	-0.570021	0.488518
C526	C	0.249967	-0.320021	0.738518
C527	C	0.499967	-0.070021	0.988518
C528	C	0.749967	0.179979	1.238518
C529	C	-0.000028	-0.526198	0.457228
C530	C	0.249972	-0.276198	0.707228
C531	C	0.499972	-0.026198	0.957228
C532	C	0.749972	0.223802	1.207228
C533	C	-0.000033	-0.569508	0.538933
C534	C	0.249967	-0.319508	0.788933
C535	C	0.499967	-0.069508	1.038933
C536	C	0.749967	0.180492	1.288933
C537	C	-0.000037	-0.613330	0.570223
C538	C	0.249963	-0.363330	0.820223
C539	C	0.499963	-0.113330	1.070223
C540	C	0.749963	0.136670	1.320223
C541	C	-0.000042	-0.657665	0.551100
C542	C	0.249958	-0.407665	0.801100
C543	C	0.499958	-0.157665	1.051100
C544	C	0.749958	0.092335	1.301100
C545	C	-0.000046	-0.658177	0.500688
C546	C	0.249954	-0.408177	0.750688
C547	C	0.499954	-0.158177	1.000688
C548	C	0.749954	0.091823	1.250688
C549	C	-0.000023	-0.481863	0.476351
C550	C	0.249977	-0.231863	0.726351
C551	C	0.499977	0.018137	0.976351
C552	C	0.749977	0.268137	1.226351
C553	C	-0.000019	-0.481355	0.526764
C554	C	0.249981	-0.231355	0.776764
C555	C	0.499981	0.018645	1.026764
C556	C	0.749981	0.268645	1.276764
C557	C	-0.000024	-0.525177	0.558054
C558	C	0.249976	-0.275177	0.808054
C559	C	0.499976	-0.025177	1.058054
C560	C	0.749976	0.224823	1.308054
H561	H	-0.125768	-0.630597	-0.001858
H562	H	0.124232	-0.380597	0.248142
H563	H	0.374232	-0.130597	0.498142
H564	H	0.624232	0.119403	0.748142
F565	F	-0.635303	-0.469053	-0.163288
F566	F	-0.385303	-0.219053	0.086712
F567	F	-0.135303	0.030947	0.336712
F568	F	0.114697	0.280947	0.586712
F569	F	-0.881012	-0.502189	-0.130196
F570	F	-0.631012	-0.252189	0.119804
F571	F	-0.381012	-0.002189	0.369804
F572	F	-0.131012	0.247811	0.619804
F573	F	-0.000053	-0.442651	0.025450
F574	F	0.249947	-0.192651	0.275450
F575	F	0.499947	0.057349	0.525450
F576	F	0.749947	0.307349	0.775450
F577	F	-0.000087	0.038469	0.074478
F578	F	0.249913	0.288469	0.324478
F579	F	0.499913	0.538469	0.574478
F580	F	0.749913	0.788469	0.824478
F581	F	-0.475059	-0.469035	-0.163294
F582	F	-0.225059	-0.219035	0.086706
F583	F	0.024941	0.030965	0.336706
F584	F	0.274941	0.280965	0.586706
H585	H	-0.222662	-0.630598	-0.001842
H586	H	0.027338	-0.380598	0.248158
H587	H	0.277338	-0.130598	0.498158
H588	H	0.527338	0.119402	0.748158
F589	F	-0.000083	-0.665178	0.091114
F590	F	0.249917	-0.415178	0.341114
F591	F	0.499917	-0.165178	0.591114
F592	F	0.749917	0.084822	0.841114
H593	H	-0.000090	-0.117558	0.061861
H594	H	0.249910	0.132442	0.311861
H595	H	0.499910	0.382442	0.561861
H596	H	0.749910	0.632442	0.811861
F597	F	-0.119106	-0.502151	-0.130226
F598	F	0.130894	-0.252151	0.119774
F599	F	0.380894	-0.002151	0.369774
F600	F	0.630894	0.247849	0.619774
H601	H	-0.000079	0.180236	0.020747
H602	H	0.249921	0.430236	0.270747
H603	H	0.499921	0.680236	0.520747
H604	H	0.749921	0.930236	0.770747
H605	H	-0.000048	-0.693347	0.576585
H606	H	0.249952	-0.443347	0.826585
H607	H	0.499952	-0.193347	1.076585
H608	H	0.749952	0.056653	1.326585
F609	F	-0.000054	-0.705368	0.480345
F610	F	0.249946	-0.455368	0.730345
F611	F	0.499946	-0.205368	0.980345
F612	F	0.749946	0.044632	1.230345
H613	H	-0.000062	-0.493213	0.165279
H614	H	0.249938	-0.243213	0.415279
H615	H	0.499938	0.006787	0.665279
H616	H	0.749938	0.256787	0.915279
F617	F	-0.000044	0.197531	-0.150294
F618	F	0.249956	0.447531	0.099706
F619	F	0.499956	0.697531	0.349706
F620	F	0.749956	0.947531	0.599706
H621	H	-0.371487	-0.477311	-0.155018
H622	H	-0.121487	-0.227311	0.094982
H623	H	0.128513	0.022689	0.344982
H624	H	0.378513	0.272689	0.594982
H625	H	-0.000030	-0.174750	-0.187180
H626	H	0.249970	0.075250	0.062820
H627	H	0.499970	0.325250	0.312820
H628	H	0.749970	0.575250	0.562820
H629	H	-0.874327	-0.630629	-0.001821
H630	H	-0.624327	-0.380629	0.248179
H631	H	-0.374327	-0.130629	0.498179
H632	H	-0.124327	0.119371	0.748179
H633	H	-0.531734	-0.477330	-0.155015
H634	H	-0.281734	-0.227330	0.094985
H635	H	-0.031734	0.022670	0.344985
H636	H	0.218266	0.272670	0.594985
H637	H	-0.000058	-0.494146	0.073812
H638	H	0.249942	-0.244146	0.323812
H639	H	0.499942	0.005854	0.573812
H640	H	0.749942	0.255854	0.823812
H641	H	-0.000070	0.271687	0.021674
H642	H	0.249930	0.521687	0.271674
H643	H	0.499930	0.771687	0.521674
H644	H	0.749930	1.021687	0.771674
F645	F	-0.770765	-0.502175	-0.130195
F646	F	-0.520765	-0.252175	0.119805
F647	F	-0.270765	-0.002175	0.369805
F648	F	-0.020765	0.247825	0.619805
H649	H	-0.000016	-0.445246	0.542327
H650	H	0.249984	-0.195246	0.792327
H651	H	0.499984	0.054754	1.042327
H652	H	0.749984	0.304754	1.292327
F653	F	-0.000034	-0.313468	-0.155488
F654	F	0.249966	-0.063468	0.094512
F655	F	0.499966	0.186532	0.344512
F656	F	0.749966	0.436532	0.594512
H657	H	-0.000091	-0.209009	0.060929
H658	H	0.249909	0.040991	0.310929
H659	H	0.499909	0.290991	0.560929
H660	H	0.749909	0.540991	0.810929
H661	H	-0.000018	-0.446177	0.450879
H662	H	0.249982	-0.196177	0.700879
H663	H	0.499982	0.053823	0.950879
H664	H	0.749982	0.303823	1.200879
F665	F	-0.000060	-0.705848	0.433159
F666	F	0.249940	-0.455848	0.683159
F667	F	0.499940	-0.205848	0.933159
F668	F	0.749940	0.044152	1.183159
H669	H	-0.000039	-0.083302	-0.186251
H670	H	0.249961	0.166698	0.063749
H671	H	0.499961	0.416698	0.313749
H672	H	0.749961	0.666698	0.563749
F673	F	-0.000052	0.301601	-0.149230
F674	F	0.249948	0.551601	0.100770
F675	F	0.499948	0.801601	0.350770
F676	F	0.749948	1.051601	0.600770
H677	H	-0.000085	-0.057760	0.062462
H678	H	0.249915	0.192240	0.312462
H679	H	0.499915	0.442240	0.562462
H680	H	0.749915	0.692240	0.812462
F681	F	-0.000060	-0.338578	0.026511
F682	F	0.249940	-0.088578	0.276511
F683	F	0.499940	0.161422	0.526511
F684	F	0.749940	0.411422	0.776511
F685	F	-0.229369	-0.502154	-0.130225
F686	F	0.020631	-0.252154	0.119775
F687	F	0.270631	-0.002154	0.369775
F688	F	0.520631	0.247846	0.619775
H689	H	-0.371469	-0.663720	0.031259
H690	H	-0.121469	-0.413720	0.281259
H691	H	0.128531	-0.163720	0.531259
H692	H	0.378531	0.086280	0.781259
F693	F	-0.000041	-0.657869	0.810240
F694	F	0.249959	-0.407869	1.060240
F695	F	0.499959	-0.157869	1.310240
F696	F	0.749959	0.092131	1.560240
F697	F	-0.475035	-0.672004	0.039542
F698	F	-0.225035	-0.422004	0.289542
F699	F	0.024965	-0.172004	0.539542
F700	F	0.274965	0.077996	0.789542
H701	H	-0.777418	-0.630629	-0.001823
H702	H	-0.527418	-0.380629	0.248177
H703	H	-0.277418	-0.130629	0.498177
H704	H	-0.027418	0.119371	0.748177
F705	F	-0.000017	-0.417524	-0.156540
F706	F	0.249983	-0.167524	0.093460
F707	F	0.499983	0.082476	0.343460
F708	F	0.749983	0.332476	0.593460
H709	H	-0.531704	-0.663725	0.031269
H710	H	-0.281704	-0.413725	0.281269
H711	H	-0.031704	-0.163725	0.531269
H712	H	0.218296	0.086275	0.781269
F713	F	-0.000011	-0.436752	0.291805
F714	F	0.249989	-0.186752	0.541805
F715	F	0.499989	0.063248	0.791805
F716	F	0.749989	0.313248	1.041805
H717	H	-0.000042	-0.023514	-0.185643
H718	H	0.249958	0.226486	0.064357
H719	H	0.499958	0.476486	0.314357
H720	H	0.749958	0.726486	0.564357
F721	F	-0.000026	-0.475878	0.785106
F722	F	0.249974	-0.225878	1.035106
F723	F	0.499974	0.024122	1.285106
F724	F	0.749974	0.274122	1.535106
H725	H	-0.628608	-0.663725	0.031271
H726	H	-0.378608	-0.413725	0.281271
H727	H	-0.128608	-0.163725	0.531271
H728	H	0.121392	0.086275	0.781271
F729	F	-0.000060	-0.706905	0.329109
F730	F	0.249940	-0.456905	0.579109
F731	F	0.499940	-0.206905	0.829109
F732	F	0.749940	0.043095	1.079109
F733	F	-0.000045	0.075772	-0.195665
F734	F	0.249955	0.325772	0.054335
F735	F	0.499955	0.575772	0.304335
F736	F	0.749955	0.825772	0.554335
H737	H	-0.000065	-0.653168	0.187348
H738	H	0.249935	-0.403168	0.437348
H739	H	0.499935	-0.153168	0.687348
H740	H	0.749935	0.096832	0.937348
F741	F	-0.000051	-0.658932	0.706169
F742	F	0.249949	-0.408932	0.956169
F743	F	0.499949	-0.158932	1.206169
F744	F	0.749949	0.091068	1.456169
F745	F	-0.000018	-0.476933	0.681052
F746	F	0.249982	-0.226933	0.931052
F747	F	0.499982	0.023067	1.181052
F748	F	0.749982	0.273067	1.431052
H749	H	-0.000011	-0.446777	0.391080
H750	H	0.249989	-0.196777	0.641080
H751	H	0.499989	0.053223	0.891080
H752	H	0.749989	0.303223	1.141080
