data_functionalizedCrystal
_audit_creation_method	'MofGen! by Chris Wilmer'
_symmetry_space_group_name_H-M	'P1'
_symmetry_Int_Tables_number	1
_symmetry_cell_setting	triclinic
loop_
_symmetry_equiv_pos_as_xyz
  x,y,z
_cell_length_a	17.077404
_cell_length_b	15.299816
_cell_length_c	17.077396
_cell_angle_alpha	99.656369
_cell_angle_beta	89.980499
_cell_angle_gamma	80.351064
loop_
_atom_site_label
_atom_site_type_symbol
_atom_site_fract_x
_atom_site_fract_y
_atom_site_fract_z
Zn1	Zn	1.254116	-0.359055	-0.497975
Zn2	Zn	1.276733	-0.509886	-0.389448
Zn3	Zn	1.122853	-0.359087	-0.366728
Zn4	Zn	1.145518	-0.509832	-0.520664
O5	O	1.199805	-0.434465	-0.443704
O6	O	1.366965	-0.379073	-0.483592
O7	O	1.256301	-0.489918	-0.276593
O8	O	1.121315	-0.232873	-0.365134
O9	O	1.383582	-0.489887	-0.403858
O10	O	1.217753	-0.232849	-0.461560
O11	O	1.143245	-0.379126	-0.259900
O12	O	1.016011	-0.379075	-0.387134
O13	O	1.159944	-0.489796	-0.627496
O14	O	1.032663	-0.489826	-0.500231
O15	O	1.239731	-0.379021	-0.610826
O16	O	1.278278	-0.636089	-0.425859
O17	O	1.181875	-0.636049	-0.522262
C18	C	0.995855	-0.434449	-0.443680
C19	C	0.908607	-0.434463	-0.443691
C20	C	0.876321	-0.492219	-0.502513
C21	C	0.794341	-0.492221	-0.502526
C22	C	0.744649	-0.434471	-0.443713
C23	C	0.776940	-0.376709	-0.384888
C24	C	0.858918	-0.376704	-0.384879
C25	C	0.606072	-0.376727	-0.384909
C26	C	0.524089	-0.376734	-0.384917
C27	C	0.541496	-0.492244	-0.502556
C28	C	0.623474	-0.492239	-0.502547
C29	C	0.655759	-0.434478	-0.443721
C30	C	1.235012	-0.668794	-0.479005
C31	C	1.250145	-0.769041	-0.494133
C32	C	1.092160	-1.051967	-0.335846
C33	C	1.077938	-0.957780	-0.321634
C34	C	1.120989	-0.910591	-0.364757
C35	C	1.178264	-0.957598	-0.422096
C36	C	1.192483	-1.051794	-0.436313
C37	C	1.221311	-0.910417	-0.465225
C38	C	1.278587	-0.957424	-0.522563
C39	C	1.292804	-1.051611	-0.536778
C40	C	1.249753	-1.098801	-0.493654
C41	C	1.207092	-0.816221	-0.451007
C42	C	1.307415	-0.816048	-0.551474
C43	C	1.321637	-0.910235	-0.565686
C44	C	1.404552	-0.434482	-0.443729
C45	C	1.491803	-0.434489	-0.443739
C46	C	1.199843	-0.434399	-0.648438
C47	C	1.199859	-0.434370	-0.735684
C48	C	1.164483	-0.199221	-0.408282
C49	C	1.149430	-0.098974	-0.393187
C50	C	1.241405	-0.376685	-0.767995
C51	C	1.241410	-0.376655	-0.849971
C52	C	1.199873	-0.434315	-0.899635
C53	C	1.158322	-0.492003	-0.867319
C54	C	1.158312	-0.492028	-0.785343
C55	C	1.158345	-0.491949	-1.038181
C56	C	1.158355	-0.491926	-1.120162
C57	C	1.241442	-0.376576	-1.102808
C58	C	1.241433	-0.376601	-1.020832
C59	C	1.199883	-0.434290	-0.988522
C60	C	1.199803	-0.434466	-0.239756
C61	C	1.199901	-0.434240	-0.152473
H62	H	0.632354	-0.329684	-0.337013
H63	H	0.515205	-0.539273	-0.550457
H64	H	1.124498	-0.538948	-0.907762
O65	O	1.113501	-0.554244	-0.750487
H66	H	1.067496	-0.513872	-0.707061
H67	H	1.275261	-0.329654	-0.980398
H68	H	1.031304	-0.919511	-0.274951
H69	H	0.483629	-0.329698	-0.337034
H70	H	1.057111	-1.090398	-0.300745
H71	H	1.261333	-1.175495	-0.505220
H72	H	1.368271	-0.948521	-0.612372
O73	O	1.286248	-0.314344	-1.137652
H74	H	1.332244	-0.354701	-1.181095
H75	H	0.916777	-0.539248	-0.550403
H76	H	0.768059	-0.539252	-0.550424
O77	O	1.353858	-0.765154	-0.597979
H78	H	1.418193	-0.783191	-0.587289
O79	O	0.677075	-0.554520	-0.565981
H80	H	0.640854	-0.594679	-0.606894
H81	H	0.736473	-0.329685	-0.337004
O82	O	0.893747	-0.314411	-0.321436
H83	H	0.937142	-0.354718	-0.287516
H84	H	1.160458	-0.777957	-0.404322
H85	H	1.109406	-0.833900	-0.353182
O86	O	1.354572	-1.102317	-0.598625
H87	H	1.382124	-1.053682	-0.626220
H88	H	1.275232	-0.329734	-0.727563
H89	H	1.124530	-0.538876	-1.160597
H90	H	1.275243	-0.329684	-0.876274
O91	O	1.113525	-0.554163	-1.003326
H92	H	1.084648	-0.594259	-1.051631
