data_functionalizedCrystal
_audit_creation_method	'MofGen! by Chris Wilmer'
_symmetry_space_group_name_H-M	'P1'
_symmetry_Int_Tables_number	1
_symmetry_cell_setting	triclinic
loop_
_symmetry_equiv_pos_as_xyz
  x,y,z
_cell_length_a	10.654534
_cell_length_b	10.654551
_cell_length_c	9.130313
_cell_angle_alpha	89.997246
_cell_angle_beta	90.004310
_cell_angle_gamma	95.518083
loop_
_atom_site_label
_atom_site_type_symbol
_atom_site_fract_x
_atom_site_fract_y
_atom_site_fract_z
O1	O	-1.667852	0.176303	-0.121821
O2	O	-1.302371	0.193130	-0.121817
O3	O	-1.493514	0.001977	-0.121816
O4	O	-1.476709	0.367456	-0.121822
O5	O	-1.493501	0.001972	0.121783
O6	O	-1.302358	0.193125	0.121782
O7	O	-1.667839	0.176298	0.121778
Cu8	Cu	-1.485097	0.184711	0.144022
Cu9	Cu	-1.485113	0.184717	-0.144061
O10	O	-1.476696	0.367451	0.121777
C11	C	-1.255566	0.191896	-0.000017
C12	C	-1.116122	0.188212	-0.000016
C13	C	-1.050610	0.186475	0.132772
C14	C	-0.919590	0.182993	0.132776
C15	C	-0.919605	0.182990	-0.132809
C16	C	-1.050623	0.186464	-0.132811
C17	C	-1.492273	-0.044824	-0.000019
C18	C	-1.488580	-0.184267	-0.000026
C19	C	-0.714642	0.177542	-0.000019
C20	C	-0.854083	0.181257	-0.000011
C21	C	-1.486855	-0.249767	-0.132813
C22	C	-1.483374	-0.380787	-0.132814
C23	C	-1.483352	-0.380795	0.132771
C24	C	-1.486823	-0.249776	0.132771
C25	C	-1.477937	0.414251	-0.000024
C26	C	-1.481629	0.553694	-0.000026
N27	N	-1.485095	0.184705	0.346645
N28	N	-1.485124	0.184713	-0.346684
C29	C	-1.569762	0.100099	0.423297
C30	C	-1.569774	0.100099	0.576634
C31	C	-1.400448	0.269323	0.576653
C32	C	-1.400431	0.269316	0.423319
H33	H	-1.103965	0.187875	-0.240950
H34	H	-1.481923	-0.434150	0.240889
N35	N	-1.661041	0.008824	0.340580
H36	H	-1.717058	0.057318	0.276934
H37	H	-1.714593	-0.044765	0.412492
N38	N	-1.481580	-0.451420	-0.276050
H39	H	-1.404497	-0.419114	-0.334152
H40	H	-1.559984	-0.438066	-0.333919
N41	N	-0.848960	0.181103	-0.276032
H42	H	-0.756018	0.178641	-0.255884
H43	H	-0.862356	0.259427	-0.334027
H44	H	-1.331479	0.338214	0.360904
H45	H	-1.638716	0.031203	0.639040
H46	H	-1.488282	-0.196432	-0.240944
N47	N	-0.848930	0.181113	0.275997
H48	H	-0.910414	0.181861	0.360112
H49	H	-0.785663	0.257844	0.282227
H50	H	-1.331519	0.338214	0.639096
H51	H	-1.488221	-0.196443	0.240908
H52	H	-1.103935	0.187899	0.240903
