data_functionalizedCrystal
_audit_creation_method	'MofGen! by Chris Wilmer'
_symmetry_space_group_name_H-M	'P1'
_symmetry_Int_Tables_number	1
_symmetry_cell_setting	triclinic
loop_
_symmetry_equiv_pos_as_xyz
  x,y,z
_cell_length_a	16.992694
_cell_length_b	13.339070
_cell_length_c	15.455313
_cell_angle_alpha	93.394339
_cell_angle_beta	87.142206
_cell_angle_gamma	103.148759
loop_
_atom_site_label
_atom_site_type_symbol
_atom_site_fract_x
_atom_site_fract_y
_atom_site_fract_z
O1	O	1.090408	0.214131	-0.072012
O2	O	0.861603	0.211734	-0.072038
O3	O	0.949746	0.063546	-0.072026
O4	O	1.002265	0.362319	-0.072025
O5	O	0.944697	0.071983	0.072236
O6	O	0.856554	0.220171	0.072223
O7	O	1.085360	0.222568	0.072249
Cu8	Cu	0.970496	0.222140	0.085408
Cu9	Cu	0.976466	0.212163	-0.085197
O10	O	0.997216	0.370756	0.072237
C11	C	0.829195	0.212871	0.000089
C12	C	0.740151	0.203676	0.000079
C13	C	0.709211	0.292390	0.000080
C14	C	0.625543	0.283745	0.000092
C15	C	0.572817	0.186386	0.000097
C16	C	0.603762	0.097666	0.000099
C17	C	0.687429	0.106311	0.000093
C18	C	0.321423	0.150552	0.000120
C19	C	0.237751	0.141912	0.000123
C20	C	0.259538	0.327993	0.000118
C21	C	0.343205	0.336630	0.000107
C22	C	0.374143	0.247910	0.000114
N23	N	0.487295	0.177547	0.000107
N24	N	0.459663	0.256750	0.000110
C25	C	0.938350	0.029358	0.000103
C26	C	0.911906	-0.085082	0.000097
C27	C	1.117519	-0.433251	0.000120
C28	C	1.142367	-0.325728	0.000131
C29	C	1.084754	-0.265562	0.000122
C30	C	1.002289	-0.312927	0.000103
C31	C	0.977439	-0.420460	0.000099
C32	C	0.944673	-0.252771	0.000101
C33	C	0.862209	-0.300136	0.000081
C34	C	0.837363	-0.407658	0.000077
C35	C	0.894976	-0.467825	0.000086
C36	C	0.969524	-0.145238	0.000105
C37	C	0.829443	-0.132447	0.000083
C38	C	0.804596	-0.239969	0.000072
C39	C	1.117767	0.221431	0.000120
C40	C	1.206811	0.230626	0.000124
C41	C	1.008612	0.404944	0.000106
C42	C	1.035056	0.519384	0.000107
N43	N	0.966302	0.229157	0.205403
N44	N	0.980664	0.205137	-0.205192
C45	C	1.003772	0.166228	0.250803
C46	C	1.000610	0.171545	0.341610
C47	C	0.959983	0.239798	0.387017
C48	C	0.922508	0.302729	0.341611
C49	C	0.925665	0.297406	0.250805
C50	C	0.946347	0.262746	0.658596
C51	C	0.943195	0.268067	0.749408
C52	C	1.021296	0.136880	0.749401
C53	C	1.024454	0.131568	0.658594
C54	C	0.986976	0.194496	0.613196
N55	N	0.956752	0.245237	0.479836
N56	N	0.990202	0.189051	0.520378
H57	H	1.036667	-0.106684	0.000121
C58	C	0.756111	0.449321	-0.074081
C59	C	0.767161	0.399413	0.000074
H60	H	0.791883	0.515397	-0.074078
H61	H	0.767107	0.409571	-0.124380
H62	H	0.701850	0.456856	-0.074067
H63	H	0.821421	0.391871	0.000057
H64	H	0.756171	0.439173	0.050386
H65	H	0.600356	0.355985	0.000092
C66	C	1.012815	-0.009858	0.222905
C67	C	1.048423	0.091178	0.200918
H68	H	1.040376	-0.056199	0.192112
H69	H	1.016292	-0.015662	0.283480
H70	H	0.957629	-0.026238	0.208019
H71	H	1.103607	0.107560	0.215810
H72	H	1.044954	0.096986	0.140329
H73	H	0.770215	-0.446220	0.000068
C74	C	0.704313	-0.399124	0.000060
C75	C	0.713951	-0.292041	0.000060
H76	H	0.648353	-0.431268	0.000058
H77	H	0.730777	-0.422304	-0.050241
H78	H	0.727262	-0.416421	0.050374
H79	H	0.691008	-0.274744	-0.050257
H80	H	0.687476	-0.268853	0.050367
C81	C	1.141611	-0.603766	0.000127
C82	C	1.180840	-0.499386	0.000133
H83	H	1.180708	-0.644593	0.000131
H84	H	1.107005	-0.615807	0.050425
H85	H	1.110527	-0.621688	-0.050189
H86	H	1.211920	-0.481461	0.050453
H87	H	1.215461	-0.487339	-0.050171
H88	H	1.057536	0.075991	0.621626
C89	C	0.452481	0.449953	-0.074103
C90	C	0.401146	0.443659	0.000075
H91	H	0.488244	0.516034	-0.074135
H92	H	0.482892	0.398377	-0.074089
H93	H	0.421118	0.439734	-0.124392
H94	H	0.432509	0.453871	0.050364
H95	H	0.370732	0.495251	0.000069
H96	H	0.194822	0.062627	0.000126
H97	H	0.889423	0.358298	0.378586
H98	H	0.346601	0.078309	0.000126
C99	C	1.196612	-0.118503	0.000137
C100	C	1.112065	-0.147372	0.000124
H101	H	1.213474	-0.045535	0.000129
H102	H	1.215086	-0.142241	0.050448
H103	H	1.218613	-0.148142	-0.050167
H104	H	1.090063	-0.117739	0.050431
H105	H	1.093582	-0.123622	-0.050192
H106	H	0.782529	-0.083459	0.000080
H107	H	0.895152	0.348649	0.213842
C108	C	0.939229	0.435551	0.630649
C109	C	0.905161	0.331930	0.608706
H110	H	0.913804	0.478264	0.599843
H111	H	0.931536	0.448474	0.691221
H112	H	0.995451	0.450191	0.615748
H113	H	0.848940	0.317287	0.623613
H114	H	0.912847	0.319001	0.548120
C115	C	1.028413	-0.035921	0.777362
C116	C	1.062477	0.067700	0.799305
H117	H	1.053839	-0.078634	0.808168
H118	H	0.972197	-0.050564	0.792254
H119	H	1.036114	-0.048844	0.716782
H120	H	1.054771	0.080625	0.859885
H121	H	1.118707	0.082348	0.784420
H122	H	0.910110	0.323650	0.786374
C123	C	0.983913	0.038790	0.443725
C124	C	1.041804	0.102372	0.391507
H125	H	1.009347	-0.003922	0.474522
H126	H	0.959272	0.080192	0.483764
H127	H	0.943866	-0.003035	0.408299
H128	H	1.081848	0.144202	0.426934
H129	H	1.066458	0.060965	0.351463
H130	H	0.560826	0.018394	0.000115
H131	H	1.209509	-0.287171	0.000148
H132	H	0.874749	-0.555379	0.000073
C133	C	0.289478	0.512790	0.000110
C134	C	0.225530	0.425511	0.000117
H135	H	0.268481	0.572995	0.000105
H136	H	0.319902	0.515234	0.050412
H137	H	0.323412	0.509339	-0.050203
H138	H	0.191599	0.428958	0.050432
H139	H	0.195092	0.423067	-0.050191
C140	C	0.657496	-0.078488	0.000083
C141	C	0.721441	0.008794	0.000084
H142	H	0.678495	-0.138692	0.000074
H143	H	0.623566	-0.075050	0.050390
H144	H	0.627068	-0.080925	-0.050225
H145	H	0.751866	0.011234	0.050396
H146	H	0.755386	0.005355	-0.050228
