data_functionalizedCrystal
_audit_creation_method	'MofGen! by Chris Wilmer'
_symmetry_space_group_name_H-M	'P1'
_symmetry_Int_Tables_number	1
_symmetry_cell_setting	triclinic
loop_
_symmetry_equiv_pos_as_xyz
  x,y,z
_cell_length_a	21.295412
_cell_length_b	16.120530
_cell_length_c	21.295417
_cell_angle_alpha	92.874222
_cell_angle_beta	89.968813
_cell_angle_gamma	92.913341
loop_
_atom_site_label
_atom_site_type_symbol
_atom_site_fract_x
_atom_site_fract_y
_atom_site_fract_z
Zn1	Zn	-0.404643	-1.274467	-0.299484
Zn2	Zn	-0.154643	-1.024467	-0.049484
Zn3	Zn	0.095357	-0.774467	0.200516
Zn4	Zn	0.345357	-0.524467	0.450516
Zn5	Zn	-0.299365	-1.274358	-0.404750
Zn6	Zn	-0.049365	-1.024358	-0.154750
Zn7	Zn	0.200635	-0.774358	0.095250
Zn8	Zn	0.450635	-0.524358	0.345250
Zn9	Zn	-0.294058	-1.135059	-0.294157
Zn10	Zn	-0.044058	-0.885059	-0.044157
Zn11	Zn	0.205942	-0.635059	0.205843
Zn12	Zn	0.455942	-0.385059	0.455843
Zn13	Zn	-0.399268	-1.134999	-0.399372
Zn14	Zn	-0.149268	-0.884999	-0.149372
Zn15	Zn	0.100732	-0.634999	0.100628
Zn16	Zn	0.350732	-0.384999	0.350628
O17	O	-0.349333	-1.204721	-0.349441
O18	O	-0.099333	-0.954721	-0.099441
O19	O	0.150667	-0.704721	0.150559
O20	O	0.400667	-0.454721	0.400559
O21	O	-0.395148	-1.391117	-0.317928
O22	O	-0.145148	-1.141117	-0.067928
O23	O	0.104852	-0.891117	0.182072
O24	O	0.354852	-0.641117	0.432072
O25	O	-0.210570	-1.255859	-0.390100
O26	O	0.039430	-1.005859	-0.140100
O27	O	0.289430	-0.755859	0.109900
O28	O	0.539430	-0.505859	0.359900
O29	O	-0.308756	-1.153623	-0.206777
O30	O	-0.058756	-0.903623	0.043223
O31	O	0.191244	-0.653623	0.293223
O32	O	0.441244	-0.403623	0.543223
O33	O	-0.317801	-1.391037	-0.395265
O34	O	-0.067801	-1.141037	-0.145265
O35	O	0.182199	-0.891037	0.104735
O36	O	0.432199	-0.641037	0.354735
O37	O	-0.390003	-1.256046	-0.210691
O38	O	-0.140003	-1.006046	0.039309
O39	O	0.109997	-0.756046	0.289309
O40	O	0.359997	-0.506046	0.539309
O41	O	-0.206672	-1.153517	-0.308849
O42	O	0.043328	-0.903517	-0.058849
O43	O	0.293328	-0.653517	0.191151
O44	O	0.543328	-0.403517	0.441151
O45	O	-0.303543	-1.018387	-0.303635
O46	O	-0.053543	-0.768387	-0.053635
O47	O	0.196457	-0.518387	0.196365
O48	O	0.446457	-0.268387	0.446365
O49	O	-0.488071	-1.153521	-0.386101
O50	O	-0.238071	-0.903521	-0.136101
O51	O	0.011929	-0.653521	0.113899
O52	O	0.261929	-0.403521	0.363899
O53	O	-0.380841	-1.018342	-0.380936
O54	O	-0.130841	-0.768342	-0.130936
O55	O	0.119159	-0.518342	0.119064
O56	O	0.369159	-0.268342	0.369064
O57	O	-0.492020	-1.255987	-0.312714
O58	O	-0.242020	-1.005987	-0.062714
O59	O	0.007980	-0.755987	0.187286
O60	O	0.257980	-0.505987	0.437286
O61	O	-0.312588	-1.255800	-0.492123
O62	O	-0.062588	-1.005800	-0.242123
O63	O	0.187412	-0.755800	0.007877
O64	O	0.437412	-0.505800	0.257877
O65	O	-0.385986	-1.153414	-0.488172
O66	O	-0.135986	-0.903414	-0.238172
O67	O	0.114014	-0.653414	0.011828
O68	O	0.364014	-0.403414	0.261828
C69	C	-0.341033	-0.988115	-0.341124
C70	C	-0.091033	-0.738115	-0.091124
C71	C	0.158967	-0.488115	0.158876
C72	C	0.408967	-0.238115	0.408876
C73	C	-0.337497	-0.895450	-0.337582
C74	C	-0.087497	-0.645450	-0.087582
C75	C	0.162503	-0.395450	0.162418
C76	C	0.412503	-0.145450	0.412418
C77	C	-0.349294	-1.204612	-0.512988
C78	C	-0.099294	-0.954612	-0.262988
C79	C	0.150706	-0.704612	-0.012988
C80	C	0.400706	-0.454612	0.237012
C81	C	-0.349302	-1.204641	-0.582958
C82	C	-0.099302	-0.954641	-0.332958
C83	C	0.150698	-0.704641	-0.082958
C84	C	0.400698	-0.454641	0.167042
C85	C	-0.513525	-1.204759	-0.349402
C86	C	-0.263525	-0.954759	-0.099402
C87	C	-0.013525	-0.704759	0.150598
C88	C	0.236475	-0.454759	0.400598
C89	C	-0.583494	-1.204776	-0.349385
C90	C	-0.333494	-0.954776	-0.099385
C91	C	-0.083494	-0.704776	0.150615
C92	C	0.166506	-0.454776	0.400615
C93	C	-1.085013	-1.258209	-0.311076
C94	C	-0.835013	-1.008209	-0.061076
C95	C	-0.585013	-0.758209	0.188924
C96	C	-0.335013	-0.508209	0.438924
C97	C	-1.019270	-1.258203	-0.311091
C98	C	-0.769270	-1.008203	-0.061091
C99	C	-0.519270	-0.758203	0.188909
C100	C	-0.269270	-0.508203	0.438909
C101	C	-0.984336	-1.204848	-0.349305
C102	C	-0.734336	-0.954848	-0.099305
C103	C	-0.484336	-0.704848	0.150695
C104	C	-0.234336	-0.454848	0.400695
C105	C	-1.015151	-1.151511	-0.387519
C106	C	-0.765151	-0.901511	-0.137519
C107	C	-0.515151	-0.651511	0.112481
C108	C	-0.265151	-0.401511	0.362481
C109	C	-1.080893	-1.151525	-0.387507
C110	C	-0.830893	-0.901525	-0.137507
C111	C	-0.580893	-0.651525	0.112493
C112	C	-0.330893	-0.401525	0.362493
N113	N	-0.878316	-1.131846	-0.351350
N114	N	-0.628316	-0.881846	-0.101350
N115	N	-0.378316	-0.631846	0.148650
N116	N	-0.128316	-0.381846	0.398650
N117	N	-0.815864	-1.131835	-0.351357
N118	N	-0.565864	-0.881835	-0.101357
N119	N	-0.315864	-0.631835	0.148643
N120	N	-0.065864	-0.381835	0.398643
C121	C	-0.786260	-1.204804	-0.349342
C122	C	-0.536260	-0.954804	-0.099342
C123	C	-0.286260	-0.704804	0.150658
C124	C	-0.036260	-0.454804	0.400658
N125	N	-0.821466	-1.277786	-0.347308
N126	N	-0.571466	-1.027786	-0.097308
N127	N	-0.321466	-0.777786	0.152692
N128	N	-0.071466	-0.527786	0.402692
N129	N	-0.883924	-1.277796	-0.347298
N130	N	-0.633924	-1.027796	-0.097298
N131	N	-0.383924	-0.777796	0.152702
N132	N	-0.133924	-0.527796	0.402702
C133	C	-0.913050	-1.204827	-0.349322
C134	C	-0.663050	-0.954827	-0.099322
C135	C	-0.413050	-0.704827	0.150678
C136	C	-0.163050	-0.454827	0.400678
C137	C	-0.684167	-1.258135	-0.311150
C138	C	-0.434167	-1.008135	-0.061150
C139	C	-0.184167	-0.758135	0.188850
C140	C	0.065833	-0.508135	0.438850
C141	C	-0.618423	-1.258130	-0.311170
C142	C	-0.368423	-1.008130	-0.061170
C143	C	-0.118423	-0.758130	0.188830
C144	C	0.131577	-0.508130	0.438830
C145	C	-0.614305	-1.151431	-0.387594
C146	C	-0.364305	-0.901431	-0.137594
C147	C	-0.114305	-0.651431	0.112406
C148	C	0.135695	-0.401431	0.362406
C149	C	-0.680048	-1.151443	-0.387578
C150	C	-0.430048	-0.901443	-0.137578
C151	C	-0.180048	-0.651443	0.112422
C152	C	0.069952	-0.401443	0.362422
C153	C	-0.714975	-1.204794	-0.349353
C154	C	-0.464975	-0.954794	-0.099353
C155	C	-0.214975	-0.704794	0.150647
C156	C	0.035025	-0.454794	0.400647
C157	C	-0.185782	-1.204731	-0.349436
C158	C	0.064218	-0.954731	-0.099436
C159	C	0.314218	-0.704731	0.150564
C160	C	0.564218	-0.454731	0.400564
C161	C	-0.115820	-1.204876	-0.349282
C162	C	0.134180	-0.954876	-0.099282
C163	C	0.384180	-0.704876	0.150718
C164	C	0.634180	-0.454876	0.400718
C165	C	-0.357666	-1.422173	-0.357791
C166	C	-0.107666	-1.172173	-0.107791
C167	C	0.142334	-0.922173	0.142209
C168	C	0.392334	-0.672173	0.392209
C169	C	-0.361217	-1.514838	-0.361349
C170	C	-0.111217	-1.264838	-0.111349
C171	C	0.138783	-1.014838	0.138651
C172	C	0.388783	-0.764838	0.388651
C173	C	-0.331047	-0.725790	-0.331099
C174	C	-0.081047	-0.475790	-0.081099
C175	C	0.168953	-0.225790	0.168901
C176	C	0.418953	0.024210	0.418901
C177	C	-0.367665	-0.684493	-0.367830
C178	C	-0.117665	-0.434493	-0.117830
C179	C	0.132335	-0.184493	0.132170
C180	C	0.382335	0.065507	0.382170
C181	C	-0.364076	-0.590088	-0.364222
C182	C	-0.114076	-0.340088	-0.114222
C183	C	0.135924	-0.090088	0.135778
C184	C	0.385924	0.159912	0.385778
C185	C	-0.334635	-0.820203	-0.334705
C186	C	-0.084635	-0.570203	-0.084705
C187	C	0.165365	-0.320203	0.165295
C188	C	0.415365	-0.070203	0.415295
C189	C	-0.311126	-1.258001	-0.617862
C190	C	-0.061126	-1.008001	-0.367862
C191	C	0.188874	-0.758001	-0.117862
C192	C	0.438874	-0.508001	0.132138
C193	C	-0.311142	-1.258040	-0.683606
C194	C	-0.061142	-1.008040	-0.433606
C195	C	0.188858	-0.758040	-0.183606
C196	C	0.438858	-0.508040	0.066394
C197	C	-0.349326	-1.204704	-0.714443
C198	C	-0.099326	-0.954704	-0.464443
C199	C	0.150674	-0.704704	-0.214443
C200	C	0.400674	-0.454704	0.035557
C201	C	-0.387509	-1.151341	-0.679530
C202	C	-0.137509	-0.901341	-0.429530
C203	C	0.112491	-0.651341	-0.179530
C204	C	0.362491	-0.401341	0.070470
C205	C	-0.387497	-1.151309	-0.613787
C206	C	-0.137497	-0.901309	-0.363787
C207	C	0.112503	-0.651309	-0.113787
C208	C	0.362503	-0.401309	0.136213
N209	N	-0.351330	-1.131773	-0.814912
N210	N	-0.101330	-0.881773	-0.564912
N211	N	0.148670	-0.631773	-0.314912
N212	N	0.398670	-0.381773	-0.064912
N213	N	-0.351338	-1.131806	-0.877365
N214	N	-0.101338	-0.881806	-0.627365
N215	N	0.148662	-0.631806	-0.377365
N216	N	0.398662	-0.381806	-0.127365
C217	C	-0.349365	-1.204798	-0.912521
C218	C	-0.099365	-0.954798	-0.662521
C219	C	0.150635	-0.704798	-0.412521
C220	C	0.400635	-0.454798	-0.162521
N221	N	-0.347372	-1.277758	-0.882865
N222	N	-0.097372	-1.027758	-0.632865
N223	N	0.152628	-0.777758	-0.382865
N224	N	0.402628	-0.527758	-0.132865
N225	N	-0.347361	-1.277724	-0.820406
N226	N	-0.097361	-1.027724	-0.570406
N227	N	0.152639	-0.777724	-0.320406
N228	N	0.402639	-0.527724	-0.070406
C229	C	-0.349343	-1.204733	-0.785729
C230	C	-0.099343	-0.954733	-0.535729
C231	C	0.150657	-0.704733	-0.285729
C232	C	0.400657	-0.454733	-0.035729
C233	C	-0.311205	-1.258204	-1.018713
C234	C	-0.061205	-1.008204	-0.768713
C235	C	0.188795	-0.758204	-0.518713
C236	C	0.438795	-0.508204	-0.268713
C237	C	-0.311225	-1.258245	-1.084458
C238	C	-0.061225	-1.008245	-0.834458
C239	C	0.188775	-0.758245	-0.584458
C240	C	0.438775	-0.508245	-0.334458
C241	C	-0.387588	-1.151538	-1.080380
C242	C	-0.137588	-0.901538	-0.830380
C243	C	0.112412	-0.651538	-0.580380
C244	C	0.362412	-0.401538	-0.330380
C245	C	-0.387572	-1.151505	-1.014636
C246	C	-0.137572	-0.901505	-0.764636
C247	C	0.112428	-0.651505	-0.514636
C248	C	0.362428	-0.401505	-0.264636
C249	C	-0.349377	-1.204837	-0.983807
C250	C	-0.099377	-0.954837	-0.733807
C251	C	0.150623	-0.704837	-0.483807
C252	C	0.400623	-0.454837	-0.233807
C253	C	-0.349387	-1.204853	-0.185256
C254	C	-0.099387	-0.954853	0.064744
C255	C	0.150613	-0.704853	0.314744
C256	C	0.400613	-0.454853	0.564744
C257	C	-0.349410	-1.204910	-0.115290
C258	C	-0.099410	-0.954910	0.134710
C259	C	0.150590	-0.704910	0.384710
C260	C	0.400590	-0.454910	0.634710
H261	H	-1.113446	-1.301655	-0.279952
H262	H	-0.863446	-1.051655	-0.029952
H263	H	-0.613446	-0.801655	0.220048
H264	H	-0.363446	-0.551655	0.470048
H265	H	-0.280106	-1.301633	-0.993610
H266	H	-0.030106	-1.051633	-0.743610
H267	H	0.219894	-0.801633	-0.493610
H268	H	0.469894	-0.551633	-0.243610
H269	H	-0.418655	-1.108051	-0.986215
H270	H	-0.168655	-0.858051	-0.736215
H271	H	0.081345	-0.608051	-0.486215
H272	H	0.331345	-0.358051	-0.236215
C273	C	-0.269226	-1.316948	-1.122853
C274	C	-0.019226	-1.066948	-0.872853
C275	C	0.230774	-0.816948	-0.622853
C276	C	0.480774	-0.566948	-0.372853
N277	N	-0.237590	-1.361162	-1.151773
N278	N	0.012410	-1.111162	-0.901773
N279	N	0.262410	-0.861162	-0.651773
N280	N	0.512410	-0.611162	-0.401773
H281	H	-0.994182	-1.301633	-0.279976
H282	H	-0.744182	-1.051633	-0.029976
H283	H	-0.494182	-0.801633	0.220024
H284	H	-0.244182	-0.551633	0.470024
H285	H	-0.712606	-1.301576	-0.280025
H286	H	-0.462606	-1.051576	-0.030025
H287	H	-0.212606	-0.801576	0.219975
H288	H	0.037394	-0.551576	0.469975
H289	H	-0.401711	-0.720038	-0.401984
H290	H	-0.151711	-0.470038	-0.151984
H291	H	0.098289	-0.220038	0.098016
H292	H	0.348289	0.029962	0.348016
C293	C	-0.584535	-1.316802	-0.269136
C294	C	-0.334535	-1.066802	-0.019136
C295	C	-0.084535	-0.816802	0.230864
C296	C	0.165465	-0.566802	0.480864
N297	N	-0.559010	-1.360993	-0.237474
N298	N	-0.309010	-1.110993	0.012526
N299	N	-0.059010	-0.860993	0.262526
N300	N	0.190990	-0.610993	0.512526
H301	H	-0.986704	-1.108071	-0.418634
H302	H	-0.736704	-0.858071	-0.168634
H303	H	-0.486704	-0.608071	0.081366
H304	H	-0.236704	-0.358071	0.331366
H305	H	-0.297004	-0.690247	-0.296947
H306	H	-0.047004	-0.440247	-0.046947
H307	H	0.202996	-0.190247	0.203053
H308	H	0.452996	0.059753	0.453053
H309	H	-1.105976	-1.108093	-0.418620
H310	H	-0.855976	-0.858093	-0.168620
H311	H	-0.605976	-0.608093	0.081380
H312	H	-0.355976	-0.358093	0.331380
C313	C	-0.575882	-1.092741	-0.429632
C314	C	-0.325882	-0.842741	-0.179632
C315	C	-0.075882	-0.592741	0.070368
C316	C	0.174118	-0.342741	0.320368
N317	N	-0.546939	-1.048535	-0.461296
N318	N	-0.296939	-0.798535	-0.211296
N319	N	-0.046939	-0.548535	0.038704
N320	N	0.203061	-0.298535	0.288704
H321	H	-0.705132	-1.108010	-0.418687
H322	H	-0.455132	-0.858010	-0.168687
H323	H	-0.205132	-0.608010	0.081313
H324	H	0.044868	-0.358010	0.331313
C325	C	-0.269103	-1.316659	-0.583953
C326	C	-0.019103	-1.066659	-0.333953
C327	C	0.230897	-0.816659	-0.083953
C328	C	0.480897	-0.566659	0.166047
N329	N	-0.237448	-1.360837	-0.558411
N330	N	0.012552	-1.110837	-0.308411
N331	N	0.262552	-0.860837	-0.058411
N332	N	0.512552	-0.610837	0.191589
C333	C	-0.269141	-1.316738	-0.722009
C334	C	-0.019141	-1.066738	-0.472009
C335	C	0.230859	-0.816738	-0.222009
C336	C	0.480859	-0.566738	0.027991
N337	N	-0.237504	-1.360947	-0.750931
N338	N	0.012496	-1.110947	-0.500931
N339	N	0.262496	-0.860947	-0.250931
N340	N	0.512496	-0.610947	-0.000931
C341	C	-0.429509	-1.092669	-0.713451
C342	C	-0.179509	-0.842669	-0.463451
C343	C	0.070491	-0.592669	-0.213451
C344	C	0.320491	-0.342669	0.036549
N345	N	-0.461145	-1.048475	-0.739000
N346	N	-0.211145	-0.798475	-0.489000
N347	N	0.038855	-0.548475	-0.239000
N348	N	0.288855	-0.298475	0.011000
C349	C	-0.429503	-1.092617	-0.575391
C350	C	-0.179503	-0.842617	-0.325391
C351	C	0.070497	-0.592617	-0.075391
C352	C	0.320497	-0.342617	0.174609
N353	N	-0.461145	-1.048412	-0.546471
N354	N	-0.211145	-0.798412	-0.296471
N355	N	0.038855	-0.548412	-0.046471
N356	N	0.288855	-0.298412	0.203529
H357	H	-0.418681	-1.108115	-1.105486
H358	H	-0.168681	-0.858115	-0.855486
H359	H	0.081319	-0.608115	-0.605486
H360	H	0.331319	-0.358115	-0.355486
