data_functionalizedCrystal
_audit_creation_method	'MofGen! by Chris Wilmer'
_symmetry_space_group_name_H-M	'P1'
_symmetry_Int_Tables_number	1
_symmetry_cell_setting	triclinic
loop_
_symmetry_equiv_pos_as_xyz
  x,y,z
_cell_length_a	14.044191
_cell_length_b	14.044190
_cell_length_c	10.868271
_cell_angle_alpha	89.990065
_cell_angle_beta	89.998192
_cell_angle_gamma	93.191777
loop_
_atom_site_label
_atom_site_type_symbol
_atom_site_fract_x
_atom_site_fract_y
_atom_site_fract_z
O1	O	1.277178	0.230201	-0.102288
O2	O	1.610511	0.563535	0.231045
O3	O	1.943845	0.896868	0.564378
O4	O	1.000505	0.221889	-0.102303
O5	O	1.333839	0.555222	0.231030
O6	O	1.667172	0.888555	0.564364
O7	O	1.134685	0.087709	-0.102272
O8	O	1.468019	0.421042	0.231062
O9	O	1.801352	0.754375	0.564395
O10	O	1.142998	0.364381	-0.102320
O11	O	1.476331	0.697715	0.231014
O12	O	1.809665	1.031048	0.564347
O13	O	1.134673	0.087702	0.102373
O14	O	1.468006	0.421035	0.435706
O15	O	1.801340	0.754369	0.769040
O16	O	1.000493	0.221882	0.102342
O17	O	1.333826	0.555215	0.435675
O18	O	1.667160	0.888549	0.769008
O19	O	1.277166	0.230195	0.102356
O20	O	1.610499	0.563528	0.435690
O21	O	1.943832	0.896861	0.769023
Zn22	Zn	1.138827	0.226037	0.134841
Zn23	Zn	1.472161	0.559370	0.468174
Zn24	Zn	1.805494	0.892704	0.801507
Zn25	Zn	1.138844	0.226046	-0.134787
Zn26	Zn	1.472177	0.559379	0.198546
Zn27	Zn	1.805510	0.892713	0.531879
O28	O	1.142986	0.364375	0.102325
O29	O	1.476319	0.697708	0.435658
O30	O	1.809652	1.031041	0.768992
C31	C	0.964877	0.218249	0.000018
C32	C	1.298210	0.551582	0.333351
C33	C	1.631544	0.884915	0.666685
C34	C	0.858734	0.207401	0.000013
C35	C	1.192067	0.540735	0.333347
C36	C	1.525400	0.874068	0.666680
C37	C	0.613277	0.264502	0.000016
C38	C	0.946610	0.597835	0.333349
C39	C	1.279943	0.931169	0.666682
C40	C	0.664400	0.187585	0.000027
C41	C	0.997734	0.520919	0.333360
C42	C	1.331067	0.854252	0.666694
C43	C	0.772537	0.198614	0.000019
C44	C	1.105871	0.531947	0.333353
C45	C	1.439204	0.865280	0.666686
C46	C	0.505130	0.253475	0.000023
C47	C	0.838463	0.586809	0.333357
C48	C	1.171796	0.920142	0.666690
C49	C	1.131043	0.052083	0.000054
C50	C	1.464376	0.385416	0.333387
C51	C	1.797709	0.718750	0.666721
C52	C	1.120195	-0.054060	0.000064
C53	C	1.453529	0.279273	0.333398
C54	C	1.786862	0.612606	0.666731
C55	C	1.177296	-0.299517	0.000019
C56	C	1.510629	0.033816	0.333352
C57	C	1.843963	0.367149	0.666686
C58	C	1.100379	-0.248394	0.000024
C59	C	1.433713	0.084940	0.333357
C60	C	1.767046	0.418273	0.666690
C61	C	1.111408	-0.140257	0.000046
C62	C	1.444741	0.193077	0.333380
C63	C	1.778074	0.526410	0.666713
C64	C	1.166269	-0.407664	-0.000004
C65	C	1.499602	-0.074331	0.333330
C66	C	1.832936	0.259002	0.666663
C67	C	1.312794	0.233834	0.000033
C68	C	1.646127	0.567168	0.333366
C69	C	1.979461	0.900501	0.666699
C70	C	1.418937	0.244682	0.000029
C71	C	1.752271	0.578015	0.333363
C72	C	2.085604	0.911348	0.666696
C73	C	1.146628	0.400000	-0.000003
C74	C	1.479962	0.733333	0.333330
C75	C	1.813295	1.066667	0.666663
C76	C	1.157476	0.506143	-0.000022
C77	C	1.490809	0.839477	0.333312
C78	C	1.824142	1.172810	0.666645
N79	N	1.138823	0.226031	0.318855
N80	N	1.472156	0.559364	0.652188
N81	N	1.805490	0.892698	0.985522
N82	N	1.138855	0.226045	-0.318801
N83	N	1.472188	0.559378	0.014532
N84	N	1.805522	0.892712	0.347865
C85	C	1.138839	0.226044	0.569861
C86	C	1.472172	0.559377	0.903194
C87	C	1.805505	0.892710	1.236528
C88	C	1.138827	0.226039	0.430183
C89	C	1.472160	0.559373	0.763517
C90	C	1.805494	0.892706	1.096850
H91	H	0.650720	0.338629	-0.000001
H92	H	0.984053	0.671962	0.333332
H93	H	1.317386	1.005295	0.666666
N94	N	1.007371	-0.295345	0.000030
N95	N	1.340704	0.037988	0.333364
N96	N	1.674038	0.371321	0.666697
N97	N	0.935049	-0.247340	0.000047
N98	N	1.268382	0.085993	0.333380
N99	N	1.601716	0.419327	0.666713
H100	H	0.869363	-0.280502	0.000056
H101	H	1.202697	0.052832	0.333390
H102	H	1.536030	0.386165	0.666723
N103	N	0.617418	0.094591	0.000055
N104	N	0.950752	0.427924	0.333389
N105	N	1.284085	0.761258	0.666722
N106	N	0.528367	0.085645	0.000064
N107	N	0.861700	0.418979	0.333398
N108	N	1.195033	0.752312	0.666731
H109	H	0.495181	0.019971	0.000084
H110	H	0.828514	0.353304	0.333417
H111	H	1.161847	0.686638	0.666750
N112	N	1.270284	-0.252536	0.000032
N113	N	1.603617	0.080797	0.333365
N114	N	1.936950	0.414130	0.666699
N115	N	1.279221	-0.163484	0.000052
N116	N	1.612554	0.169849	0.333385
N117	N	1.945888	0.503183	0.666718
H118	H	1.344893	-0.130292	0.000064
H119	H	1.678226	0.203041	0.333397
H120	H	2.011560	0.536375	0.666730
