data_functionalizedCrystal
_audit_creation_method	'MofGen! by Chris Wilmer'
_symmetry_space_group_name_H-M	'P1'
_symmetry_Int_Tables_number	1
_symmetry_cell_setting	triclinic
loop_
_symmetry_equiv_pos_as_xyz
  x,y,z
_cell_length_a	17.699097
_cell_length_b	17.699104
_cell_length_c	14.048226
_cell_angle_alpha	89.992629
_cell_angle_beta	89.989943
_cell_angle_gamma	83.289974
loop_
_atom_site_label
_atom_site_type_symbol
_atom_site_fract_x
_atom_site_fract_y
_atom_site_fract_z
O1	O	1.004079	0.095760	-0.079242
O2	O	0.783703	0.108202	-0.079226
O3	O	0.900109	-0.008207	-0.079226
O4	O	0.887673	0.212168	-0.079242
O5	O	0.900095	-0.008214	0.079095
O6	O	0.783689	0.108195	0.079095
O7	O	1.004065	0.095753	0.079080
Zn8	Zn	0.893874	0.101973	0.104224
Zn9	Zn	0.893893	0.101982	-0.104371
O10	O	0.887659	0.212162	0.079079
C11	C	0.755499	0.107751	-0.000064
C12	C	0.671481	0.106408	-0.000058
C13	C	0.155770	0.098182	-0.086397
C14	C	0.234714	0.099439	-0.086392
C15	C	0.274172	0.100064	-0.000087
C16	C	0.234683	0.099426	0.086219
C17	C	0.155741	0.098164	0.086213
C18	C	0.553048	0.104513	0.086243
C19	C	0.631995	0.105777	0.086242
C20	C	0.632020	0.105788	-0.086361
C21	C	0.553078	0.104526	-0.086367
C22	C	0.513597	0.103884	-0.000062
C23	C	0.427997	0.102520	-0.000068
C24	C	0.359770	0.101433	-0.000080
C25	C	0.899653	-0.036407	-0.000065
C26	C	0.898308	-0.120425	-0.000065
C27	C	0.959052	-0.645293	-0.000096
C28	C	0.960311	-0.566349	-0.000087
C29	C	0.891976	-0.517735	-0.000081
C30	C	0.822378	-0.548068	-0.000072
C31	C	0.821119	-0.627010	-0.000074
C32	C	0.827451	-0.229702	-0.000065
C33	C	0.828715	-0.150754	-0.000066
C34	C	0.966642	-0.169040	-0.000078
C35	C	0.965384	-0.247983	-0.000080
C36	C	0.895786	-0.278309	-0.000067
C37	C	0.894422	-0.363909	-0.000074
C38	C	0.893340	-0.432136	-0.000080
C39	C	1.032268	0.096204	-0.000085
C40	C	1.116286	0.097546	-0.000097
C41	C	0.888114	0.240362	-0.000084
C42	C	0.889459	0.324379	-0.000091
N43	N	0.893867	0.101966	0.246585
N44	N	0.893906	0.101982	-0.246732
C45	C	0.945428	0.050442	0.296403
C46	C	0.945433	0.050441	0.396061
C47	C	0.893881	0.101969	0.445898
C48	C	0.842314	0.153496	0.396073
C49	C	0.842306	0.153493	0.296417
C50	C	0.842336	0.153502	0.603787
C51	C	0.842345	0.153507	0.703450
C52	C	0.945463	0.050450	0.703431
C53	C	0.945455	0.050447	0.603775
C54	C	0.893890	0.101975	0.553957
H55	H	0.664120	0.106287	0.156526
C56	C	0.332073	0.035806	0.186361
C57	C	0.278057	0.100114	0.181086
H58	H	0.358851	0.036237	0.244927
H59	H	0.307126	-0.008797	0.182780
H60	H	0.366882	0.036375	0.134959
H61	H	0.243245	0.099543	0.232485
H62	H	0.303005	0.144729	0.184676
H63	H	0.800344	0.195459	0.563229
C64	C	1.048421	0.033840	0.184248
C65	C	1.002062	-0.006219	0.241601
H66	H	1.083376	-0.001150	0.150416
H67	H	1.017712	0.064536	0.140337
H68	H	1.075625	0.065290	0.223101
H69	H	0.974854	-0.037666	0.202748
H70	H	1.032775	-0.036929	0.285518
H71	H	0.800336	0.195449	0.436657
C72	C	1.043974	-0.347381	0.081294
C73	C	1.040497	-0.301422	-0.000089
H74	H	1.090345	-0.380375	0.081285
H75	H	1.041599	-0.316211	0.136495
H76	H	1.002341	-0.376737	0.081286
H77	H	1.082128	-0.272063	-0.000077
H78	H	1.042879	-0.332596	-0.055304
H79	H	0.987417	0.008485	0.436622
C80	C	1.095518	-0.655431	-0.000100
C81	C	1.034169	-0.698726	-0.000102
H82	H	1.141893	-0.688418	-0.000096
H83	H	1.093146	-0.624256	-0.055306
H84	H	1.093128	-0.624263	0.055115
H85	H	1.036556	-0.729890	-0.055321
H86	H	1.036543	-0.729914	0.055109
C87	C	0.962095	-0.052588	0.815500
C88	C	1.002144	-0.006197	0.758182
H89	H	0.997090	-0.087559	0.849297
H90	H	0.931401	-0.021904	0.859442
H91	H	0.930642	-0.079774	0.776628
H92	H	1.033593	0.020993	0.797055
H93	H	1.032851	-0.036885	0.714234
C94	C	0.560962	0.104643	0.256858
C95	C	0.509655	0.103820	0.181109
H96	H	0.534168	0.104221	0.315426
H97	H	0.597599	0.061020	0.253275
H98	H	0.585905	0.149257	0.253253
H99	H	0.484716	0.059203	0.184710
H100	H	0.473004	0.147448	0.184694
H101	H	0.123594	0.097654	0.156487
H102	H	1.016980	-0.541660	-0.000091
H103	H	0.987436	0.008492	0.563197
H104	H	1.023312	-0.144340	-0.000102
C105	C	0.692240	-0.140603	-0.000032
C106	C	0.753595	-0.097315	-0.000049
H107	H	0.645869	-0.107610	-0.000016
H108	H	0.694615	-0.171766	-0.055238
H109	H	0.694622	-0.171781	0.055182
H110	H	0.751217	-0.066141	-0.055267
H111	H	0.751219	-0.066138	0.055163
C112	C	0.250421	0.164877	-0.233513
C113	C	0.278112	0.100140	-0.181256
H114	H	0.277216	0.165309	-0.292078
H115	H	0.197765	0.164034	-0.245861
H116	H	0.257513	0.209193	-0.198044
H117	H	0.271015	0.055823	-0.216723
H118	H	0.330781	0.100976	-0.168911
C119	C	0.746021	-0.307853	-0.081450
C120	C	0.750949	-0.263028	-0.000064
H121	H	0.698791	-0.328431	-0.081447
H122	H	0.749388	-0.277431	-0.136649
H123	H	0.786538	-0.348105	-0.081439
H124	H	0.710436	-0.222773	-0.000079
H125	H	0.747575	-0.293452	0.055149
C126	C	0.739341	0.170035	0.815574
C127	C	0.785676	0.210138	0.758244
H128	H	0.704359	0.204997	0.849407
H129	H	0.712173	0.138568	0.776714
H130	H	0.770067	0.139351	0.859494
H131	H	0.754950	0.240818	0.714318
H132	H	0.812846	0.241618	0.797107
H133	H	0.123648	0.097678	-0.156676
H134	H	0.800319	0.195448	0.255856
C135	C	0.763061	-0.418936	-0.000073
C136	C	0.747262	-0.494632	-0.000067
H137	H	0.716685	-0.385950	-0.000078
H138	H	0.791593	-0.409762	0.055131
H139	H	0.791609	-0.409759	-0.055289
H140	H	0.718718	-0.503812	0.055153
H141	H	0.718718	-0.503810	-0.055277
C142	C	0.684906	-0.601011	-0.000076
C143	C	0.744621	-0.660350	-0.000077
H144	H	0.637678	-0.621594	-0.000082
H145	H	0.688259	-0.570608	0.055131
H146	H	0.688277	-0.570594	-0.055290
H147	H	0.741253	-0.690764	0.055141
H148	H	0.741266	-0.690765	-0.055290
H149	H	0.520955	0.104020	-0.156645
H150	H	0.664176	0.106308	-0.156635
