data_functionalizedCrystal
_audit_creation_method	'MofGen! by Chris Wilmer'
_symmetry_space_group_name_H-M	'P1'
_symmetry_Int_Tables_number	1
_symmetry_cell_setting	triclinic
loop_
_symmetry_equiv_pos_as_xyz
  x,y,z
_cell_length_a	17.699104
_cell_length_b	17.699083
_cell_length_c	9.130313
_cell_angle_alpha	90.009359
_cell_angle_beta	90.000041
_cell_angle_gamma	83.287266
loop_
_atom_site_label
_atom_site_type_symbol
_atom_site_fract_x
_atom_site_fract_y
_atom_site_fract_z
O1	O	1.004059	0.095791	0.121832
O2	O	0.783683	0.108227	0.121829
O3	O	0.900097	-0.008180	0.121817
O4	O	0.887645	0.212198	0.121843
O5	O	0.900100	-0.008193	-0.121781
O6	O	0.783686	0.108214	-0.121770
O7	O	1.004062	0.095778	-0.121767
Cu8	Cu	0.893874	0.101995	-0.144011
Cu9	Cu	0.893871	0.102010	0.144073
O10	O	0.887648	0.212185	-0.121756
C11	C	0.755488	0.107772	0.000029
C12	C	0.671471	0.106427	0.000027
C13	C	0.146600	0.167171	0.000050
C14	C	0.225543	0.168430	0.000054
C15	C	0.274161	0.100095	0.000046
C16	C	0.243831	0.030496	0.000048
C17	C	0.164889	0.029238	0.000054
C18	C	0.562197	0.035569	0.000025
C19	C	0.641144	0.036833	0.000014
C20	C	0.622852	0.174762	0.000025
C21	C	0.543909	0.173503	0.000031
C22	C	0.513587	0.103905	0.000041
C23	C	0.427987	0.102541	0.000039
C24	C	0.359759	0.101459	0.000037
C25	C	0.899653	-0.036383	0.000018
C26	C	0.898314	-0.120402	0.000017
C27	C	0.966647	-0.169017	0.000016
C28	C	0.965385	-0.247961	0.000029
C29	C	0.895789	-0.278287	0.000033
C30	C	0.827451	-0.229665	0.000038
C31	C	0.828714	-0.150723	0.000036
C32	C	0.822356	-0.548028	0.000050
C33	C	0.821098	-0.626976	0.000048
C34	C	0.959026	-0.645266	0.000043
C35	C	0.960289	-0.566324	0.000041
C36	C	0.891952	-0.517709	0.000054
C37	C	0.893321	-0.432110	0.000043
C38	C	0.894419	-0.363885	0.000033
C39	C	1.032258	0.096233	0.000036
C40	C	1.116275	0.097578	0.000047
N41	N	0.893882	0.101983	-0.346634
C42	C	0.888093	0.240388	0.000047
C43	C	0.889431	0.324406	0.000057
N44	N	0.893869	0.102016	0.346695
C45	C	0.848154	0.056062	0.423331
C46	C	0.848162	0.056044	0.576668
C47	C	0.939603	0.147938	0.576720
C48	C	0.939598	0.147952	0.423386
H49	H	0.647550	0.231432	0.000023
H50	H	1.016961	-0.541638	0.000031
C51	C	0.989901	0.198467	0.661077
H52	H	1.017133	0.225831	0.593471
H53	H	0.958769	0.233282	0.720922
H54	H	1.024844	0.167455	0.720865
H55	H	0.250230	0.225100	0.000069
C56	C	0.989885	0.198506	0.339081
H57	H	1.017112	0.225870	0.406714
H58	H	1.024822	0.167513	0.279241
H59	H	0.958739	0.233332	0.279293
H60	H	0.283422	-0.025143	0.000050
C61	C	1.043203	-0.135666	0.000012
H62	H	1.083718	-0.175929	0.000027
H63	H	1.046566	-0.105258	-0.084936
H64	H	1.046561	-0.105244	0.084972
C65	C	1.040549	-0.301438	0.000043
H66	H	1.029831	-0.352797	0.000068
H67	H	1.069098	-0.292274	-0.084903
H68	H	1.069085	-0.292244	0.085004
C69	C	0.093127	0.242341	0.000067
H70	H	0.122497	0.283968	0.000085
H71	H	0.061947	0.244718	-0.084875
H72	H	0.061956	0.244718	0.085032
C73	C	0.131531	-0.047315	0.000047
H74	H	0.171791	-0.087833	0.000029
H75	H	0.101117	-0.050667	0.084998
H76	H	0.101115	-0.050678	-0.084909
H77	H	0.504328	0.229149	0.000030
H78	H	0.810919	0.018657	0.360894
C79	C	0.694623	-0.038339	0.000025
H80	H	0.665258	-0.079970	0.000049
H81	H	0.725799	-0.040726	-0.084924
H82	H	0.725797	-0.040700	0.084984
H83	H	0.537518	-0.021102	0.000029
H84	H	0.770785	-0.254362	0.000050
H85	H	1.014670	-0.684858	0.000040
C86	C	0.744539	-0.660333	0.000071
H87	H	0.704020	-0.620074	0.000095
H88	H	0.741175	-0.690756	-0.084874
H89	H	0.741189	-0.690741	0.085033
C90	C	0.747188	-0.494562	0.000039
H91	H	0.705560	-0.523931	0.000021
H92	H	0.744804	-0.463376	0.084983
H93	H	0.744817	-0.463397	-0.084924
H94	H	0.773070	-0.111140	0.000037
C95	C	0.797857	0.005516	0.660967
H96	H	0.804408	0.012084	0.763272
H97	H	0.746037	0.019565	0.635837
H98	H	0.812098	-0.046277	0.635815
