data_functionalizedCrystal
_audit_creation_method	'MofGen! by Chris Wilmer'
_symmetry_space_group_name_H-M	'P1'
_symmetry_Int_Tables_number	1
_symmetry_cell_setting	triclinic
loop_
_symmetry_equiv_pos_as_xyz
  x,y,z
_cell_length_a	12.827893
_cell_length_b	12.645330
_cell_length_c	12.827885
_cell_angle_alpha	89.971022
_cell_angle_beta	89.980728
_cell_angle_gamma	90.017662
loop_
_atom_site_label
_atom_site_type_symbol
_atom_site_fract_x
_atom_site_fract_y
_atom_site_fract_z
Zn1	Zn	1.597653	-0.421989	-0.590855
Zn2	Zn	2.097653	0.078011	-0.090855
Zn3	Zn	1.597540	-0.599290	-0.416117
Zn4	Zn	2.097540	-0.099290	0.083883
Zn5	Zn	1.422894	-0.422040	-0.416128
Zn6	Zn	1.922894	0.077960	0.083872
Zn7	Zn	1.422873	-0.599211	-0.590817
Zn8	Zn	1.922873	-0.099211	-0.090817
O9	O	1.510240	-0.510632	-0.503479
O10	O	2.010240	-0.010632	-0.003479
O11	O	1.743874	-0.445520	-0.567686
O12	O	2.243874	0.054480	-0.067686
O13	O	1.574335	-0.575832	-0.269883
O14	O	2.074335	-0.075832	0.230117
O15	O	1.446133	-0.273686	-0.439326
O16	O	1.946133	0.226314	0.060674
O17	O	1.743791	-0.575782	-0.439308
O18	O	2.243791	-0.075782	0.060692
O19	O	1.574527	-0.273648	-0.567697
O20	O	2.074527	0.226352	-0.067697
O21	O	1.446023	-0.445608	-0.269891
O22	O	1.946023	0.054392	0.230109
O23	O	1.276655	-0.445531	-0.439290
O24	O	1.776655	0.054469	0.060710
O25	O	1.446096	-0.575647	-0.737058
O26	O	1.946096	-0.075647	-0.237058
O27	O	1.276639	-0.575697	-0.567633
O28	O	1.776639	-0.075697	-0.067633
O29	O	1.574506	-0.445443	-0.737086
O30	O	2.074506	0.054557	-0.237086
O31	O	1.574314	-0.747626	-0.439271
O32	O	2.074314	-0.247626	0.060729
O33	O	1.445986	-0.747568	-0.567623
O34	O	1.945986	-0.247568	-0.067623
C35	C	1.238730	-0.510612	-0.503459
C36	C	1.738730	-0.010612	-0.003459
C37	C	1.122577	-0.510629	-0.503476
C38	C	1.622577	-0.010629	-0.003476
C39	C	1.070812	-0.575140	-0.566886
C40	C	1.570812	-0.075140	-0.066886
C41	C	0.950762	-0.575159	-0.566904
C42	C	1.450762	-0.075159	-0.066904
C43	C	1.510164	-0.786062	-0.503465
C44	C	2.010164	-0.286062	-0.003465
C45	C	1.510227	-0.903892	-0.503493
C46	C	2.010227	-0.403892	-0.003493
C47	C	1.429829	-1.071464	-0.584488
C48	C	1.929829	-0.571464	-0.084488
C49	C	1.429418	-0.948904	-0.584228
C50	C	1.929418	-0.448904	-0.084228
C51	C	1.480414	-0.948494	-0.393362
C52	C	1.980414	-0.448494	0.106638
C53	C	1.479923	-1.071093	-0.393854
C54	C	1.979923	-0.571093	0.106146
C55	C	1.620929	-1.070979	-0.531736
C56	C	2.120929	-0.570979	-0.031736
C57	C	1.620251	-0.948372	-0.534144
C58	C	2.120251	-0.448372	-0.034144
C59	C	1.782810	-0.510654	-0.503500
C60	C	2.282810	-0.010654	-0.003500
C61	C	1.898963	-0.510663	-0.503509
C62	C	2.398963	-0.010663	-0.003509
C63	C	1.510311	-0.510531	-0.776050
C64	C	2.010311	-0.010531	-0.276050
C65	C	1.510341	-0.510487	-0.892203
C66	C	2.010341	-0.010487	-0.392203
C67	C	1.510345	-0.234127	-0.503517
C68	C	2.010345	0.265873	-0.003517
C69	C	1.510390	-0.116297	-0.503533
C70	C	2.010390	0.383703	-0.003533
C71	C	1.573890	-0.446045	-0.944001
C72	C	2.073890	0.053955	-0.444001
C73	C	1.573923	-0.445999	-1.064052
C74	C	2.073923	0.054001	-0.564052
C75	C	1.510229	-0.510657	-0.231969
C76	C	2.010229	-0.010657	0.268031
C77	C	1.510401	-0.510402	-0.115817
C78	C	2.010401	-0.010402	0.384183
H79	H	0.906245	-0.630392	-0.621189
H80	H	1.406245	-0.130392	-0.121189
N81	N	0.954777	-0.441352	-0.435402
N82	N	1.454777	0.058648	0.064598
N83	N	0.906130	-0.380712	-0.375806
N84	N	1.406130	0.119288	0.124194
H85	H	0.945554	-0.331759	-0.327705
H86	H	1.445554	0.168241	0.172295
N87	N	1.442109	-0.579667	-0.948039
N88	N	1.942109	-0.079667	-0.448039
N89	N	1.382362	-0.640251	-0.899401
N90	N	1.882362	-0.140251	-0.399401
H91	H	1.334168	-0.689110	-0.938832
H92	H	1.834168	-0.189110	-0.438832
H93	H	1.628332	-0.390832	-1.108597
H94	H	2.128332	0.109168	-0.608597
N95	N	1.126716	-0.644395	-0.634981
N96	N	1.626716	-0.144395	-0.134981
N97	N	1.224158	-0.644277	-0.634874
N98	N	1.724158	-0.144277	-0.134874
H99	H	1.263640	-0.693189	-0.682970
H100	H	1.763640	-0.193189	-0.182970
H101	H	1.078018	-0.455408	-0.449206
H102	H	1.578018	0.044592	0.050794
H103	H	1.628268	-0.390905	-0.899471
H104	H	2.128268	0.109095	-0.399471
N105	N	1.442126	-0.579604	-1.059952
N106	N	1.942126	-0.079604	-0.559952
N107	N	1.345693	-0.572564	-1.072054
N108	N	1.845693	-0.072564	-0.572054
H109	H	1.297471	-0.621437	-1.032593
H110	H	1.797471	-0.121437	-0.532593
N111	N	1.452833	-0.911067	-0.686667
N112	N	1.952833	-0.411067	-0.186667
N113	N	1.537554	-0.934648	-0.728822
N114	N	2.037554	-0.434648	-0.228822
H115	H	1.554091	-0.907933	-0.801175
H116	H	2.054091	-0.407933	-0.301175
N117	N	1.453074	-1.108284	-0.687279
N118	N	1.953074	-0.608284	-0.187279
N119	N	1.529279	-1.168005	-0.702076
N120	N	2.029279	-0.668005	-0.202076
H121	H	1.545719	-1.193990	-0.774679
H122	H	2.045719	-0.693990	-0.274679
H123	H	1.348392	-1.102366	-0.566042
H124	H	1.848392	-0.602366	-0.066042
H125	H	1.537231	-0.919340	-0.331396
H126	H	2.037231	-0.419340	0.168604
H127	H	1.347469	-0.919671	-0.565543
H128	H	1.847469	-0.419671	-0.065543
N129	N	1.378554	-1.107079	-0.363873
N130	N	1.878554	-0.607079	0.136127
N131	N	1.308662	-1.041650	-0.342735
N132	N	1.808662	-0.541650	0.157265
H133	H	1.237067	-1.067059	-0.321560
H134	H	1.737067	-0.567059	0.178440
H135	H	1.536054	-1.100754	-0.331479
H136	H	2.036054	-0.600754	0.168521
H137	H	1.400452	-0.917885	-0.369038
H138	H	1.900452	-0.417885	0.130962
H139	H	1.642733	-0.919216	-0.615195
H140	H	2.142733	-0.419216	-0.115195
N141	N	1.655061	-1.109673	-0.630759
N142	N	2.155061	-0.609673	-0.130759
N143	N	1.665613	-1.206861	-0.645015
N144	N	2.165613	-0.706861	-0.145015
H145	H	1.689711	-1.234190	-0.714952
H146	H	2.189711	-0.734190	-0.214952
H147	H	1.680949	-1.099972	-0.472773
H148	H	2.180949	-0.599972	0.027227
N149	N	1.699506	-0.909926	-0.465553
N150	N	2.199506	-0.409926	0.034447
N151	N	1.676085	-0.848850	-0.392633
N152	N	2.176085	-0.348850	0.107367
H153	H	1.732056	-0.821701	-0.344179
H154	H	2.232056	-0.321701	0.155821
