data_functionalizedCrystal
_audit_creation_method	'MofGen! by Chris Wilmer'
_symmetry_space_group_name_H-M	'P1'
_symmetry_Int_Tables_number	1
_symmetry_cell_setting	triclinic
loop_
_symmetry_equiv_pos_as_xyz
  x,y,z
_cell_length_a	17.639762
_cell_length_b	21.295417
_cell_length_c	17.640968
_cell_angle_alpha	78.765192
_cell_angle_beta	92.140373
_cell_angle_gamma	101.260577
loop_
_atom_site_label
_atom_site_type_symbol
_atom_site_fract_x
_atom_site_fract_y
_atom_site_fract_z
Zn1	Zn	1.247818	-0.018010	-0.195068
Zn2	Zn	1.222024	-0.147890	-0.068077
Zn3	Zn	1.095138	-0.058969	-0.093713
Zn4	Zn	1.120763	-0.139610	-0.220660
O5	O	1.171436	-0.091119	-0.144379
O6	O	1.350672	-0.021562	-0.156783
O7	O	1.183672	-0.156701	0.034797
O8	O	1.115462	0.034568	-0.107176
O9	O	1.331721	-0.116985	-0.063483
O10	O	1.227636	0.064661	-0.181642
O11	O	1.090450	-0.091371	0.015963
O12	O	0.992261	-0.083342	-0.131991
O13	O	1.159136	-0.102872	-0.323540
O14	O	1.011088	-0.142589	-0.225259
O15	O	1.252484	-0.013533	-0.304737
O16	O	1.208520	-0.234895	-0.088299
O17	O	1.134124	-0.228812	-0.200401
C18	C	0.974118	-0.116512	-0.184185
C19	C	0.889709	-0.127387	-0.201231
C20	C	1.171327	-0.254692	-0.144357
C21	C	1.171356	-0.324655	-0.144359
C22	C	0.780543	-0.173631	-0.273734
C23	C	0.859858	-0.163410	-0.257710
C24	C	0.840251	-0.101568	-0.160757
C25	C	0.760934	-0.111782	-0.176775
C26	C	0.731087	-0.147815	-0.233264
C27	C	0.711478	-0.085966	-0.136305
C28	C	0.632167	-0.096182	-0.152320
C29	C	0.602313	-0.132215	-0.208805
C30	C	0.651776	-0.158031	-0.249279
C31	C	0.741326	-0.049937	-0.079813
C32	C	0.691869	-0.024121	-0.039343
C33	C	0.612558	-0.034333	-0.055361
C34	C	0.582704	-0.070366	-0.111846
C35	C	0.563094	-0.008516	-0.014887
C36	C	0.483784	-0.018733	-0.030901
C37	C	0.503393	-0.080582	-0.127860
C38	C	1.210147	-0.360653	-0.086029
C39	C	1.210186	-0.426388	-0.086039
C40	C	1.171419	-0.456125	-0.144374
C41	C	1.132626	-0.420118	-0.202715
C42	C	1.132595	-0.354383	-0.202707
N43	N	1.106154	-0.566823	-0.163566
N44	N	1.106185	-0.629270	-0.163568
C45	C	1.171513	-0.654181	-0.144400
N46	N	1.236807	-0.614289	-0.125215
N47	N	1.236774	-0.551838	-0.125209
C48	C	1.171449	-0.527403	-0.144389
C49	C	1.210350	-0.761456	-0.086077
C50	C	1.210391	-0.827190	-0.086092
C51	C	1.132824	-0.820920	-0.202765
C52	C	1.132790	-0.755185	-0.202753
C53	C	1.171551	-0.725458	-0.144405
C54	C	1.369523	-0.065628	-0.104419
C55	C	1.453936	-0.054765	-0.087390
C56	C	1.211546	-0.052710	-0.342465
C57	C	1.228638	-0.036342	-0.426877
C58	C	1.171568	0.073098	-0.144414
C59	C	1.171625	0.143077	-0.144428
C60	C	1.041877	-0.215083	-0.753438
C61	C	1.057954	-0.199693	-0.832753
C62	C	1.155149	-0.106672	-0.813166
C63	C	1.139077	-0.122053	-0.733848
C64	C	1.082441	-0.176259	-0.703991
C65	C	1.179641	-0.083229	-0.684401
C66	C	1.163573	-0.098610	-0.605090
C67	C	1.106942	-0.152815	-0.575226
C68	C	1.066373	-0.191641	-0.624680
C69	C	1.236281	-0.029025	-0.714259
C70	C	1.276845	0.009799	-0.664811
C71	C	1.260773	-0.005580	-0.585499
C72	C	1.204142	-0.059785	-0.555636
C73	C	1.301342	0.033246	-0.536045
C74	C	1.285274	0.017864	-0.456734
C75	C	1.188074	-0.075166	-0.476324
C76	C	1.131525	-0.129328	0.052944
C77	C	1.114580	-0.145500	0.137386
H78	H	0.537732	-0.140533	-0.221842
H79	H	1.201264	-0.062539	-0.837486
C80	C	0.390519	-0.123697	-0.195466
C81	C	0.470576	-0.120185	-0.189959
H82	H	0.370261	-0.148142	-0.233805
H83	H	0.367179	-0.144419	-0.147051
H84	H	0.379824	-0.080910	-0.209291
H85	H	0.481271	-0.162972	-0.176129
H86	H	0.493924	-0.099464	-0.238385
H87	H	1.020237	-0.235768	-0.600373
H88	H	0.716182	0.005215	0.006652
C89	C	0.947430	-0.305518	-0.780755
C90	C	0.979639	-0.274681	-0.720608
H91	H	0.909019	-0.342316	-0.760483
H92	H	0.924648	-0.275837	-0.817548
H93	H	0.986780	-0.319325	-0.805018
H94	H	0.940290	-0.260870	-0.696349
H95	H	1.002420	-0.304368	-0.683802
H96	H	1.101262	-0.845131	-0.250266
C97	C	1.286836	-0.425995	0.029302
C98	C	1.252822	-0.465969	-0.021913
H99	H	1.313151	-0.450432	0.068893
H100	H	1.322557	-0.390168	0.002054
H101	H	1.247862	-0.410283	0.051702
H102	H	1.291797	-0.481678	-0.044318
H103	H	1.217097	-0.501808	0.005339
C104	C	0.675967	0.034600	0.052718
C105	C	0.595909	0.031088	0.047206
H106	H	0.696223	0.059053	0.091049
H107	H	0.686661	-0.008181	0.066549
H108	H	0.699310	0.055320	0.004295
H109	H	0.572565	0.010363	0.095627
H110	H	0.585208	0.073876	0.033379
C111	C	0.679121	-0.218124	-0.343537
C112	C	0.618962	-0.197627	-0.311386
H113	H	0.658860	-0.242568	-0.381876
H114	H	0.715969	-0.181103	-0.366388
H115	H	0.703323	-0.244614	-0.304151
H116	H	0.594764	-0.171133	-0.350771
H117	H	0.582100	-0.234654	-0.288535
C118	C	1.056112	-0.755596	-0.318069
C119	C	1.090136	-0.715615	-0.266865
H120	H	1.029776	-0.731166	-0.357648
H121	H	1.095077	-0.771300	-0.340481
H122	H	1.020400	-0.791431	-0.290804
H123	H	1.125853	-0.679783	-0.294128
H124	H	1.051167	-0.699901	-0.244452
C125	C	1.287042	-0.826785	0.029245
C126	C	1.253033	-0.866763	-0.021969
H127	H	1.313363	-0.851219	0.068835
H128	H	1.322758	-0.790956	0.001996
H129	H	1.248065	-0.811078	0.051647
H130	H	1.292011	-0.882466	-0.044375
H131	H	1.217314	-0.902605	0.005285
H132	H	1.241711	-0.336451	-0.038520
H133	H	1.141937	-0.119294	-0.452017
C134	C	0.392541	0.052470	-0.038562
C135	C	0.429419	0.009654	0.013576
H136	H	0.358976	0.069992	-0.011101
H137	H	0.430213	0.086912	-0.065449
H138	H	0.363413	0.029539	-0.074488
H139	H	0.458551	0.032586	0.049498
H140	H	0.391742	-0.024794	0.040475
H141	H	1.322960	0.053932	-0.689132
C142	C	1.330036	0.136587	-0.623128
C143	C	1.363597	0.092826	-0.568869
H144	H	1.368471	0.173371	-0.643387
H145	H	1.308184	0.115665	-0.663924
H146	H	1.290700	0.150411	-0.598866
H147	H	1.402930	0.078998	-0.593133
H148	H	1.385461	0.113752	-0.528068
C149	C	1.098224	-0.518105	-0.254523
C150	C	1.090009	-0.452803	-0.266837
H151	H	1.071911	-0.538282	-0.294110
H152	H	1.151500	-0.520102	-0.255390
H153	H	1.076819	-0.540219	-0.205720
H154	H	1.111419	-0.430687	-0.315637
H155	H	1.036723	-0.450802	-0.265977
H156	H	0.900124	-0.184434	-0.290671
H157	H	1.101006	-0.325072	-0.250208
C158	C	0.857270	0.001096	-0.119060
C159	C	0.873058	-0.061964	-0.098662
H160	H	0.877518	0.025543	-0.080721
H161	H	0.880627	0.021811	-0.167470
H162	H	0.802956	-0.001302	-0.122810
H163	H	0.927373	-0.059566	-0.094918
H164	H	0.849705	-0.082684	-0.050239
C165	C	1.278603	-0.064392	-0.823958
C166	C	1.253944	-0.012115	-0.801439
H167	H	1.289503	-0.053952	-0.877780
H168	H	1.323962	-0.072449	-0.796125
H169	H	1.239060	-0.102224	-0.813251
H170	H	1.293490	0.025717	-0.812141
H171	H	1.208580	-0.004049	-0.829281
C172	C	1.382957	0.111370	-0.445332
C173	C	1.329857	0.060541	-0.402376
H174	H	1.410479	0.137718	-0.411772
H175	H	1.418253	0.093679	-0.470395
H176	H	1.356147	0.137192	-0.482952
H177	H	1.356668	0.034716	-0.364759
H178	H	1.294557	0.078233	-0.377300
C179	C	1.156152	-0.181602	-0.447025
C180	C	1.089277	-0.169724	-0.488045
H181	H	1.145245	-0.192036	-0.393204
H182	H	1.172879	-0.217058	-0.462308
H183	H	1.195681	-0.143759	-0.457735
H184	H	1.049749	-0.207569	-0.477340
H185	H	1.072538	-0.134264	-0.472757
C186	C	1.200262	-0.706004	0.018228
C187	C	1.252961	-0.728771	-0.021948
H188	H	1.226569	-0.685831	0.057821
H189	H	1.177156	-0.675159	-0.016508
H190	H	1.161327	-0.741587	0.040630
H191	H	1.291892	-0.693187	-0.044355
H192	H	1.276079	-0.759618	0.012794
C193	C	1.039415	-0.217422	-0.963031
C194	C	1.013355	-0.242368	-0.887110
H195	H	1.011885	-0.243770	-0.996586
H196	H	1.030967	-0.174035	-0.978273
H197	H	1.093067	-0.217554	-0.965723
H198	H	0.959704	-0.242232	-0.884417
H199	H	1.021797	-0.285767	-0.871864
H200	H	0.805906	-0.041622	-0.066775
H201	H	0.756242	-0.202965	-0.319741
