data_functionalizedCrystal
_audit_creation_method	'MofGen! by Chris Wilmer'
_symmetry_space_group_name_H-M	'P1'
_symmetry_Int_Tables_number	1
_symmetry_cell_setting	triclinic
loop_
_symmetry_equiv_pos_as_xyz
  x,y,z
_cell_length_a	10.489746
_cell_length_b	19.288867
_cell_length_c	17.766277
_cell_angle_alpha	90.007910
_cell_angle_beta	90.005469
_cell_angle_gamma	83.839185
loop_
_atom_site_label
_atom_site_type_symbol
_atom_site_fract_x
_atom_site_fract_y
_atom_site_fract_z
O1	O	0.159120	0.922421	0.062568
O2	O	0.659120	1.422421	0.562568
O3	O	0.180580	0.720305	0.062576
O4	O	0.680580	1.220305	0.562576
O5	O	-0.015851	0.825960	0.062566
O6	O	0.484149	1.325960	0.562566
O7	O	0.355551	0.816766	0.062578
O8	O	0.855551	1.316766	0.562578
O9	O	-0.015857	0.825941	-0.062622
O10	O	0.484143	1.325941	0.437378
O11	O	0.180575	0.720285	-0.062613
O12	O	0.680575	1.220285	0.437387
O13	O	0.159114	0.922402	-0.062620
O14	O	0.659114	1.422402	0.437380
Cu15	Cu	0.169844	0.821342	-0.074047
Cu16	Cu	0.669844	1.321342	0.425953
Cu17	Cu	0.169850	0.821365	0.074003
Cu18	Cu	0.669850	1.321365	0.574003
O19	O	0.355546	0.816746	-0.062611
O20	O	0.855546	1.316746	0.437389
C21	C	0.179887	0.694414	-0.000018
C22	C	0.679887	1.194414	0.499982
C23	C	0.177812	0.617297	-0.000015
C24	C	0.677812	1.117297	0.499985
C25	C	0.162875	0.061641	0.068216
C26	C	0.662875	0.561641	0.568216
C27	C	0.164816	0.134102	0.068219
C28	C	0.664816	0.634102	0.568219
C29	C	0.165790	0.170327	-0.000021
C30	C	0.665790	0.670327	0.499979
C31	C	0.164789	0.134087	-0.068269
C32	C	0.664789	0.634087	0.431731
C33	C	0.162835	0.061629	-0.068270
C34	C	0.662835	0.561629	0.431730
C35	C	0.243586	0.280168	-0.052299
C36	C	0.743586	0.780168	0.447701
C37	C	0.245548	0.352625	-0.052296
C38	C	0.745548	0.852625	0.447704
C39	C	0.171811	0.393813	-0.000021
C40	C	0.671811	0.893813	0.499979
C41	C	0.096129	0.362534	0.052263
C42	C	0.596129	0.862534	0.552263
C43	C	0.094175	0.290076	0.052262
C44	C	0.594175	0.790076	0.552262
C45	C	0.167908	0.248896	-0.000028
C46	C	0.667908	0.748896	0.499972
C47	C	0.174908	0.508614	0.068226
C48	C	0.674908	1.008614	0.568226
C49	C	0.176841	0.581077	0.068226
C50	C	0.676841	1.081077	0.568226
C51	C	0.176827	0.581060	-0.068264
C52	C	0.676827	1.081060	0.431736
C53	C	0.174881	0.508599	-0.068262
C54	C	0.674881	1.008599	0.431738
C55	C	0.173927	0.472381	-0.000015
C56	C	0.673927	0.972381	0.499985
C57	C	-0.063370	0.825255	-0.000028
C58	C	0.436630	1.325255	0.499972
C59	C	-0.204952	0.823175	-0.000027
C60	C	0.295048	1.323175	0.499973
C61	C	-0.356263	0.754719	-0.000015
C62	C	0.143737	1.254719	0.499985
C63	C	-0.279641	0.788954	0.061706
C64	C	0.220359	1.288954	0.561706
C65	C	-0.279688	0.788951	-0.061720
C66	C	0.220312	1.288951	0.438280
C67	C	-0.380597	0.853739	0.061762
C68	C	0.119403	1.353739	0.561762
C69	C	-0.380649	0.853727	-0.061719
C70	C	0.119351	1.353727	0.438281
C71	C	-0.304078	0.888009	0.000017
C72	C	0.195922	1.388009	0.500017
C73	C	0.403064	0.817451	-0.000015
C74	C	0.903064	1.317451	0.499985
C75	C	0.544646	0.819531	-0.000011
C76	C	1.044646	1.319531	0.499989
C77	C	0.159808	0.948292	-0.000025
C78	C	0.659808	1.448292	0.499975
C79	C	0.161882	1.025410	-0.000023
C80	C	0.661882	1.525410	0.499977
N81	N	0.169838	0.821331	-0.178177
N82	N	0.669838	1.321331	0.321823
C83	C	0.247006	0.863837	-0.217557
C84	C	0.747006	1.363837	0.282443
C85	C	0.247002	0.863848	-0.296359
C86	C	0.747002	1.363848	0.203641
C87	C	0.169846	0.821340	-0.335778
C88	C	0.669846	1.321340	0.164222
C89	C	0.092663	0.778832	-0.296389
C90	C	0.592663	1.278832	0.203611
C91	C	0.092659	0.778827	-0.217589
C92	C	0.592659	1.278827	0.282411
C93	C	0.166619	0.758706	-0.460635
C94	C	0.666619	1.258706	0.039365
C95	C	0.166632	0.758709	-0.539434
C96	C	0.666632	1.258709	-0.039434
C97	C	0.169850	0.821355	-0.578824
C98	C	0.669850	1.321355	-0.078824
C99	C	0.173082	0.883998	-0.539406
C100	C	0.673082	1.383998	-0.039406
C101	C	0.173078	0.883993	-0.460606
C102	C	0.673078	1.383993	0.039394
C103	C	0.169841	0.821341	-0.421224
C104	C	0.669841	1.321341	0.078776
C105	C	0.247017	0.863876	-0.703650
C106	C	0.747017	1.363876	-0.203650
C107	C	0.247004	0.863888	-0.782453
C108	C	0.747004	1.363888	-0.282453
C109	C	0.092673	0.778866	-0.782482
C110	C	0.592673	1.278866	-0.282482
C111	C	0.092678	0.778860	-0.703680
C112	C	0.592678	1.278860	-0.203680
C113	C	0.169857	0.821364	-0.664269
C114	C	0.669857	1.321364	-0.164269
N115	N	0.169846	0.821381	0.178133
N116	N	0.669846	1.321381	0.678133
H117	H	0.162031	0.032129	-0.123840
H118	H	0.662031	0.532129	0.376160
H119	H	0.164007	0.707701	-0.571522
H120	H	0.664007	1.207701	-0.071522
H121	H	-0.379708	0.698362	0.000048
H122	H	0.120292	1.198362	0.500048
H123	H	0.164007	0.707688	-0.428570
H124	H	0.664007	1.207688	0.071430
H125	H	-0.235628	0.761570	-0.113901
H126	H	0.264372	1.261570	0.386099
Br127	Br	-0.265400	0.982010	0.000066
Br128	Br	0.234600	1.482010	0.500066
H129	H	0.309839	0.898506	-0.814515
H130	H	0.809839	1.398506	-0.314515
H131	H	0.309860	0.898485	-0.671560
H132	H	0.809860	1.398485	-0.171560
H133	H	0.029819	0.744213	-0.185526
H134	H	0.529819	1.244213	0.314474
H135	H	0.032550	0.264612	0.094831
H136	H	0.532550	0.764612	0.594831
Br137	Br	0.351779	0.921503	-0.164074
Br138	Br	0.851779	1.421503	0.335926
H139	H	0.177615	0.610553	-0.123827
H140	H	0.677615	1.110553	0.376173
H141	H	-0.424768	0.881055	-0.113906
H142	H	0.075232	1.381055	0.386094
H143	H	0.303624	0.246639	-0.094876
H144	H	0.803624	0.746639	0.405124
H145	H	-0.235545	0.761601	0.113891
H146	H	0.264455	1.261601	0.613891
H147	H	0.029846	0.744244	-0.671617
H148	H	0.529846	1.244244	-0.171617
Br149	Br	0.351732	0.921540	-0.349815
Br150	Br	0.851732	1.421540	0.150185
H151	H	0.174127	0.479124	0.123797
H152	H	0.674127	0.979124	0.623797
H153	H	-0.424494	0.881089	0.114003
H154	H	0.075506	1.381089	0.614003
Br155	Br	-0.012061	0.721186	-0.835970
Br156	Br	0.487939	1.221186	-0.335970
Br157	Br	0.166100	0.183248	-0.160881
Br158	Br	0.666100	0.683248	0.339119
H159	H	0.175706	0.935000	-0.428515
H160	H	0.675706	1.435000	0.071485
H161	H	0.175708	0.935009	-0.571476
H162	H	0.675708	1.435009	-0.071476
H163	H	0.029841	0.744223	-0.328489
H164	H	0.529841	1.244223	0.171511
H165	H	0.165632	0.163607	0.123789
H166	H	0.665632	0.663607	0.623789
Br167	Br	0.161574	0.012491	0.160837
Br168	Br	0.661574	0.512491	0.660837
H169	H	0.036090	0.396068	0.094832
H170	H	0.536090	0.896068	0.594832
Br171	Br	0.178170	0.630251	0.160844
Br172	Br	0.678170	1.130251	0.660844
H173	H	0.307203	0.378084	-0.094852
H174	H	0.807203	0.878084	0.405148
Br175	Br	0.173550	0.459423	-0.160878
Br176	Br	0.673550	0.959423	0.339122
