data_functionalizedCrystal
_audit_creation_method	'MofGen! by Chris Wilmer'
_symmetry_space_group_name_H-M	'P1'
_symmetry_Int_Tables_number	1
_symmetry_cell_setting	triclinic
loop_
_symmetry_equiv_pos_as_xyz
  x,y,z
_cell_length_a	15.944551
_cell_length_b	19.188930
_cell_length_c	14.421503
_cell_angle_alpha	89.999163
_cell_angle_beta	89.996859
_cell_angle_gamma	83.321760
loop_
_atom_site_label
_atom_site_type_symbol
_atom_site_fract_x
_atom_site_fract_y
_atom_site_fract_z
O1	O	1.114192	0.090038	-0.077026
O2	O	0.869601	0.101140	-0.077050
O3	O	0.998955	-0.006048	-0.077019
O4	O	0.984838	0.197227	-0.077057
O5	O	0.998934	-0.006032	0.077204
O6	O	0.869580	0.101156	0.077173
O7	O	1.114171	0.090054	0.077198
Cu8	Cu	0.991873	0.095607	0.091267
Cu9	Cu	0.991899	0.095588	-0.091120
O10	O	0.984817	0.197243	0.077167
C11	C	0.838298	0.100687	0.000059
C12	C	0.745057	0.099306	0.000050
C13	C	0.530462	0.029563	0.000081
C14	C	0.469331	0.061941	-0.075965
C15	C	0.574341	0.096806	0.000062
C16	C	0.469332	0.061973	0.076087
C17	C	0.409437	0.094386	0.000077
C18	C	0.514438	0.129203	-0.076047
C19	C	0.514446	0.129225	0.076073
C20	C	0.453332	0.161652	0.000008
C21	C	0.669338	0.098198	0.000052
C22	C	0.314441	0.093000	0.000080
C23	C	0.998487	-0.032052	0.000095
C24	C	0.997115	-0.109560	0.000103
C25	C	1.073016	-0.154288	0.000115
C26	C	1.071726	-0.227115	0.000100
C27	C	0.994532	-0.255211	0.000092
C28	C	0.918622	-0.210474	0.000075
C29	C	0.919913	-0.137648	0.000080
N30	N	0.935519	-0.363364	0.052571
N31	N	0.934298	-0.432545	0.052568
C32	C	0.990637	-0.474630	0.000073
N33	N	1.048256	-0.444921	-0.052407
N34	N	1.049480	-0.375733	-0.052400
C35	C	0.993123	-0.334178	0.000085
C36	C	1.065145	-0.598326	0.000067
C37	C	1.063852	-0.671154	0.000046
C38	C	0.910745	-0.654511	0.000030
C39	C	0.912040	-0.581685	0.000041
C40	C	0.989242	-0.553597	0.000064
C41	C	1.145474	0.090507	0.000087
C42	C	1.238715	0.091889	0.000089
C43	C	0.985285	0.223247	0.000050
C44	C	0.986657	0.300755	0.000036
N45	N	0.991862	0.095619	0.219549
N46	N	0.991917	0.095569	-0.219401
C47	C	0.932038	0.145161	0.469188
C48	C	1.007887	0.158716	0.530995
C49	C	0.991882	0.095603	0.408710
C50	C	0.916052	0.082064	0.530997
C51	C	0.991895	0.095588	0.591431
C52	C	1.067770	0.109189	0.469157
C53	C	0.975885	0.032510	0.469153
C54	C	1.051789	0.046038	0.530932
C55	C	0.991874	0.095613	0.303449
C56	C	0.991913	0.095578	0.696690
H57	H	1.135880	-0.131424	0.000131
H58	H	1.021430	0.212066	0.558159
H59	H	1.131917	0.120698	0.442107
H60	H	0.534329	0.157616	-0.140409
C61	C	0.408876	0.236152	-0.000249
C62	C	0.431740	0.271016	-0.080013
C63	C	0.390794	0.339642	-0.080291
H64	H	0.424973	0.260306	0.053189
H65	H	0.349487	0.234899	0.000215
H66	H	0.491116	0.272273	-0.080468
H67	H	0.415642	0.246884	-0.133463
H68	H	0.331404	0.338388	-0.079828
H69	H	0.406894	0.363789	-0.026851
H70	H	0.406295	0.363303	-0.134414
C71	C	0.957971	-0.038633	0.432839
C72	C	1.026458	-0.068081	0.379478
C73	C	1.009979	-0.133621	0.346019
H74	H	0.908501	-0.033053	0.395610
H75	H	0.949820	-0.068703	0.483576
H76	H	1.034598	-0.038019	0.328749
H77	H	1.075935	-0.073679	0.416688
H78	H	1.001829	-0.163690	0.396755
H79	H	0.960508	-0.128034	0.308794
H80	H	1.056447	-0.153612	0.309817
C81	C	0.830458	0.066895	0.567085
C82	C	0.768048	0.118941	0.535778
C83	C	0.689185	0.104991	0.568989
H84	H	0.831114	0.066591	0.632946
H85	H	0.818634	0.022433	0.544971
H86	H	0.779868	0.163392	0.557897
H87	H	0.767364	0.119253	0.469921
H88	H	0.677361	0.060528	0.546875
H89	H	0.689851	0.104686	0.634850
H90	H	0.646830	0.140297	0.547745
H91	H	0.534462	0.157649	0.140358
C92	C	0.442546	0.024159	0.161846
C93	C	0.386854	0.070152	0.214439
C94	C	0.362157	0.035335	0.293435
H95	H	0.490913	0.008578	0.197995
H96	H	0.415188	-0.015072	0.143604
H97	H	0.414213	0.109370	0.232683
H98	H	0.338476	0.085736	0.178319
H99	H	0.334799	-0.003896	0.275193
H100	H	0.410528	0.019755	0.329575
H101	H	0.324362	0.066534	0.329124
H102	H	0.858103	-0.101230	0.000071
H103	H	0.449336	0.033493	-0.140247
C104	C	0.575122	-0.044870	-0.000197
C105	C	0.552410	-0.079762	-0.079998
C106	C	0.593547	-0.148323	-0.080299
H107	H	0.559073	-0.069082	0.053214
H108	H	0.634490	-0.043495	0.000302
H109	H	0.493054	-0.081140	-0.080489
H110	H	0.568460	-0.055571	-0.133423
H111	H	0.652915	-0.146949	-0.079800
H112	H	0.577495	-0.172529	-0.026884
H113	H	0.578149	-0.172004	-0.134447
C114	C	1.154228	-0.275572	0.000164
C115	C	1.222113	-0.235387	0.000205
C116	C	1.298124	-0.279998	0.000277
H117	H	1.157037	-0.304343	-0.053603
H118	H	1.156937	-0.304318	0.053966
H119	H	1.219405	-0.206654	-0.053592
H120	H	1.219331	-0.206618	0.053968
H121	H	1.300833	-0.308744	0.054080
H122	H	1.300925	-0.308767	-0.053490
H123	H	1.344193	-0.252739	0.000314
C124	C	0.834895	-0.241110	0.000113
C125	C	0.850009	-0.314462	0.000138
C126	C	0.772898	-0.342706	0.000181
H127	H	0.803598	-0.225833	-0.053657
H128	H	0.803637	-0.225796	0.053912
H129	H	0.881253	-0.329769	-0.053655
H130	H	0.881293	-0.329758	0.053904
H131	H	0.741640	-0.327392	0.053980
H132	H	0.741606	-0.327424	-0.053590
H133	H	0.783142	-0.392477	0.000207
H134	H	1.128007	-0.575456	0.000081
H135	H	0.881481	0.187105	0.442078
H136	H	1.125662	-0.707571	0.000051
H137	H	0.847892	-0.677386	0.000019
C138	C	1.119473	-0.009769	0.566813
C139	C	1.198683	0.004730	0.535327
C140	C	1.261056	-0.046655	0.568375
H141	H	1.108677	-0.054501	0.544722
H142	H	1.118857	-0.009720	0.632687
H143	H	1.199298	0.004674	0.469467
H144	H	1.209506	0.049453	0.557416
H145	H	1.260440	-0.046606	0.634249
H146	H	1.250251	-0.091383	0.546282
H147	H	1.314807	-0.036820	0.547024
C148	C	0.829541	-0.533234	0.000089
C149	C	0.761659	-0.573424	0.000103
C150	C	0.685644	-0.528815	0.000156
H151	H	0.826748	-0.504460	-0.053675
H152	H	0.826810	-0.504493	0.053895
H153	H	0.764388	-0.602153	-0.053698
H154	H	0.764423	-0.602196	0.053862
H155	H	0.682914	-0.500074	0.053962
H156	H	0.682861	-0.500043	-0.053608
H157	H	0.639578	-0.556077	0.000174
