data_functionalizedCrystal
_audit_creation_method	'MofGen! by Chris Wilmer'
_symmetry_space_group_name_H-M	'P1'
_symmetry_Int_Tables_number	1
_symmetry_cell_setting	triclinic
loop_
_symmetry_equiv_pos_as_xyz
  x,y,z
_cell_length_a	12.645330
_cell_length_b	12.759401
_cell_length_c	12.759393
_cell_angle_alpha	90.020938
_cell_angle_beta	89.971026
_cell_angle_gamma	89.980783
loop_
_atom_site_label
_atom_site_type_symbol
_atom_site_fract_x
_atom_site_fract_y
_atom_site_fract_z
Zn1	Zn	-0.421945	-1.606245	-0.594031
Zn2	Zn	-0.599246	-1.606126	-0.418356
Zn3	Zn	-0.422001	-1.430543	-0.418366
Zn4	Zn	-0.599172	-1.430526	-0.593993
O5	O	-0.510591	-1.518360	-0.506187
O6	O	-0.445472	-1.753250	-0.570739
O7	O	-0.575788	-1.582793	-0.271336
O8	O	-0.273647	-1.453907	-0.441689
O9	O	-0.575734	-1.753163	-0.441671
O10	O	-0.273605	-1.582994	-0.570749
O11	O	-0.445568	-1.453793	-0.271344
O12	O	-0.445496	-1.283520	-0.441652
O13	O	-0.575607	-1.453878	-0.741019
O14	O	-0.575662	-1.283507	-0.570684
O15	O	-0.445400	-1.582977	-0.741047
O16	O	-0.747583	-1.582776	-0.441634
O17	O	-0.747529	-1.453763	-0.570674
C18	C	-0.510578	-1.245393	-0.506166
C19	C	-0.510598	-1.128616	-0.506182
C20	C	-0.786021	-1.518283	-0.506172
C21	C	-0.903851	-1.518347	-0.506201
C22	C	-0.510489	-1.518439	-0.780220
C23	C	-0.510446	-1.518472	-0.896997
C24	C	-1.071424	-1.437519	-0.587630
C25	C	-0.948865	-1.437106	-0.587368
C26	C	-0.948453	-1.488371	-0.395479
C27	C	-1.071052	-1.487878	-0.395973
C28	C	-1.070935	-1.629644	-0.534596
C29	C	-0.948328	-1.628962	-0.537017
C30	C	-0.234086	-1.518466	-0.506224
C31	C	-0.116255	-1.518511	-0.506241
C32	C	-0.510605	-1.792393	-0.506208
C33	C	-0.510610	-1.909170	-0.506217
C34	C	-0.578479	-1.073775	-0.573263
C35	C	-0.578483	-0.964051	-0.573284
C36	C	-0.442722	-0.964019	-0.439133
C37	C	-0.442714	-1.073741	-0.439118
C38	C	-0.616521	-0.814153	-0.697146
C39	C	-0.684418	-0.759308	-0.764218
C40	C	-0.787874	-0.794901	-0.780168
C41	C	-0.823454	-0.885336	-0.729031
C42	C	-0.755562	-0.940175	-0.661951
C43	C	-0.652092	-0.904584	-0.646021
C44	C	-0.404686	-1.223641	-0.315255
C45	C	-0.336799	-1.278482	-0.248169
C46	C	-0.233342	-1.242892	-0.232208
C47	C	-0.197766	-1.152453	-0.283327
C48	C	-0.265653	-1.097612	-0.350413
C49	C	-0.369109	-1.133209	-0.366376
C50	C	-0.442636	-1.585699	-0.951875
C51	C	-0.442590	-1.585717	-1.061599
C52	C	-0.578173	-1.451278	-1.061557
C53	C	-0.578213	-1.451255	-0.951835
C54	C	-0.317515	-1.623336	-1.211574
C55	C	-0.249715	-1.690579	-1.266456
C56	C	-0.233459	-1.793093	-1.230864
C57	C	-0.285019	-1.828384	-1.140392
C58	C	-0.352827	-1.761146	-1.085516
C59	C	-0.369063	-1.658618	-1.121106
C60	C	-0.703289	-1.413648	-0.801858
C61	C	-0.771104	-1.346414	-0.746980
C62	C	-0.787370	-1.243899	-0.782570
C63	C	-0.735829	-1.208612	-0.873045
C64	C	-0.668014	-1.275845	-0.927924
C65	C	-0.651746	-1.378359	-0.892326
C66	C	-0.510616	-1.518342	-0.233219
C67	C	-0.510360	-1.518512	-0.116443
H68	H	-1.100830	-1.456102	-0.669999
H69	H	-0.843156	-0.750239	-0.834781
H70	H	-0.387452	-1.640429	-0.907229
H71	H	-0.918705	-1.455861	-0.669468
H72	H	-0.784531	-1.013805	-0.620316
N73	N	-0.408441	-1.799195	-0.987944
H74	H	-0.387860	-1.874345	-0.973724
H75	H	-0.387210	-1.754000	-0.926461
N76	N	-0.909684	-1.658912	-0.644944
H77	H	-0.867337	-1.725891	-0.640497
H78	H	-0.972303	-1.669775	-0.692828
H79	H	-0.178253	-1.847843	-1.275557
H80	H	-0.919298	-1.545491	-0.333180
N81	N	-1.109073	-1.380273	-0.364151
H82	H	-1.046193	-1.333605	-0.349937
H83	H	-1.152910	-1.349242	-0.422564
N84	N	-1.110369	-1.562604	-0.312904
H85	H	-1.083587	-1.635556	-0.328459
H86	H	-1.083612	-1.539372	-0.242043
H87	H	-0.365774	-1.352122	-0.206545
H88	H	-0.907702	-0.914302	-0.742015
H89	H	-0.271785	-1.911865	-1.111426
H90	H	-0.207734	-1.661836	-1.340119
H91	H	-1.099926	-1.689984	-0.475316
H92	H	-0.917680	-1.692482	-0.482054
H93	H	-0.330737	-1.539859	-1.240556
H94	H	-0.532276	-0.785172	-0.684175
N95	N	-0.227282	-1.000065	-0.405547
H96	H	-0.164632	-1.018057	-0.451277
H97	H	-0.286051	-0.970770	-0.450407
N98	N	-0.907935	-1.381877	-0.363076
H99	H	-0.866334	-1.388513	-0.295852
H100	H	-0.860739	-1.352952	-0.420010
H101	H	-0.633349	-1.396554	-1.106220
H102	H	-0.633752	-1.118451	-0.627873
H103	H	-1.102329	-1.355645	-0.569085
N104	N	-0.646050	-0.661770	-0.819370
H105	H	-0.570202	-0.647547	-0.799099
H106	H	-0.650763	-0.672275	-0.897686
N107	N	-0.086181	-1.114052	-0.266111
H108	H	-0.048573	-1.162516	-0.215858
H109	H	-0.047243	-1.112946	-0.335231
N110	N	-0.910132	-1.327978	-0.562478
H111	H	-0.972700	-1.279955	-0.551627
H112	H	-0.865970	-1.329849	-0.496573
N113	N	-0.516274	-1.262034	-0.332483
H114	H	-0.528512	-1.327643	-0.289913
H115	H	-0.567914	-1.206022	-0.309838
H116	H	-0.626047	-1.247106	-1.001594
N117	N	-0.753373	-1.098043	-0.911445
H118	H	-0.804152	-1.060805	-0.862951
H119	H	-0.683693	-1.059399	-0.912599
H120	H	-0.842600	-1.189162	-0.737883
N121	N	-1.111779	-1.665888	-0.639716
H122	H	-1.089484	-1.614486	-0.695697
H123	H	-1.081701	-1.737345	-0.656251
N124	N	-0.826710	-1.384474	-0.649403
H125	H	-0.806113	-1.459618	-0.635177
H126	H	-0.805494	-1.339271	-0.587920
H127	H	-0.387455	-0.919326	-0.384531
N128	N	-0.685733	-1.524219	-0.763465
H129	H	-0.755366	-1.562955	-0.762330
H130	H	-0.634912	-1.561362	-0.811983
N131	N	-0.160121	-1.302032	-0.159840
H132	H	-0.198355	-1.364721	-0.129868
H133	H	-0.096047	-1.326433	-0.200360
