data_functionalizedCrystal
_audit_creation_method	'MofGen! by Chris Wilmer'
_symmetry_space_group_name_H-M	'P1'
_symmetry_Int_Tables_number	1
_symmetry_cell_setting	triclinic
loop_
_symmetry_equiv_pos_as_xyz
  x,y,z
_cell_length_a	10.540535
_cell_length_b	10.540539
_cell_length_c	9.130313
_cell_angle_alpha	90.000859
_cell_angle_beta	90.002127
_cell_angle_gamma	84.524567
loop_
_atom_site_label
_atom_site_type_symbol
_atom_site_fract_x
_atom_site_fract_y
_atom_site_fract_z
O1	O	1.685883	0.178867	-0.121712
O2	O	1.316470	0.195729	-0.121731
O3	O	1.509604	0.002592	-0.121719
O4	O	1.492749	0.372005	-0.121724
O5	O	1.509602	0.002597	0.121880
O6	O	1.316467	0.195735	0.121867
O7	O	1.685881	0.178873	0.121887
Cu8	Cu	1.501174	0.187304	0.144120
Cu9	Cu	1.501177	0.187298	-0.143964
O10	O	1.492746	0.372010	0.121875
C11	C	1.269165	0.194469	0.000065
C12	C	1.128217	0.190689	0.000058
C13	C	1.508339	-0.044709	0.000077
C14	C	1.504557	-0.185657	0.000069
C15	C	1.091546	0.049675	0.000065
C16	C	0.944946	0.045698	0.000633
C17	C	0.918880	0.255062	0.138910
C18	C	1.065645	0.258063	0.139013
C19	C	1.065532	0.260109	-0.138015
C20	C	0.919185	0.253587	-0.139825
C21	C	1.359640	-0.369081	-0.000485
C22	C	1.363474	-0.222463	0.000063
C23	C	1.572452	-0.247312	0.139180
C24	C	1.567637	-0.393857	0.139297
C25	C	1.570509	-0.394381	-0.137720
C26	C	1.571808	-0.247399	-0.139560
C27	C	1.733185	0.180133	0.000087
C28	C	1.874134	0.183913	0.000085
C29	C	1.494011	0.419311	0.000075
C30	C	1.497793	0.560259	0.000074
N31	N	1.501181	0.187308	0.346742
N32	N	1.501179	0.187284	-0.346587
C33	C	1.586723	0.101816	0.423400
C34	C	1.586720	0.101800	0.576737
C35	C	1.415628	0.272780	0.576745
C36	C	1.415626	0.272788	0.423411
C37	C	1.672278	0.016335	0.346731
C38	C	1.757829	-0.069163	0.423388
C39	C	1.757825	-0.069178	0.576725
C40	C	1.672271	0.016304	0.653405
H41	H	0.915609	-0.009946	-0.098863
F42	F	1.324578	0.363777	0.341826
H43	H	1.672413	-0.441609	-0.138651
H44	H	1.672291	0.016342	0.221877
F45	F	1.510805	-0.191632	0.274486
F46	F	1.848863	-0.160180	0.658308
F47	F	1.672264	0.016271	0.816601
F48	F	1.324585	0.363753	0.658356
H49	H	1.133516	-0.004478	-0.099475
H50	H	0.916492	-0.009669	0.100738
F51	F	1.148343	-0.019920	0.130001
F52	F	1.118155	0.195264	0.275174
H53	H	1.088676	0.361437	0.144943
F54	F	0.856984	0.388079	0.145150
F55	F	1.507385	-0.193402	-0.274091
H56	H	0.887977	0.206252	0.242624
F57	F	1.121027	0.202591	-0.275600
H58	H	1.827477	-0.138768	0.360948
F59	F	1.286899	-0.408988	0.128813
H60	H	0.890584	0.201809	-0.242530
F61	F	0.855087	0.385443	-0.151343
F62	F	1.094483	0.395732	-0.139741
F63	F	1.286792	-0.406461	-0.130879
F64	F	1.293150	-0.167875	0.130612
F65	F	1.502044	-0.430715	0.275205
F66	F	1.700256	-0.456561	0.147568
F67	F	1.293646	-0.166775	-0.130278
H68	H	1.676059	-0.224960	0.144357
H69	H	1.524848	-0.425935	-0.243157
F70	F	1.706254	-0.215737	-0.150542
