data_functionalizedCrystal
_audit_creation_method	'MofGen! by Chris Wilmer'
_symmetry_space_group_name_H-M	'P1'
_symmetry_Int_Tables_number	1
_symmetry_cell_setting	triclinic
loop_
_symmetry_equiv_pos_as_xyz
  x,y,z
_cell_length_a	14.446369
_cell_length_b	19.851628
_cell_length_c	14.446369
_cell_angle_alpha	90.003064
_cell_angle_beta	59.995450
_cell_angle_gamma	59.999397
loop_
_atom_site_label
_atom_site_type_symbol
_atom_site_fract_x
_atom_site_fract_y
_atom_site_fract_z
Zr1	Zr	1.013144	0.648982	-0.121418
O2	O	1.206288	0.541415	-0.269254
O3	O	0.820017	0.681956	-0.076092
O4	O	1.013146	0.681955	-0.269222
O5	O	1.013150	0.541418	0.076212
O6	O	1.013129	0.792817	-0.269204
O7	O	1.013159	0.541416	-0.076125
O8	O	0.667655	0.792819	0.076270
O9	O	1.358624	0.541416	-0.269261
O10	O	0.899433	0.778756	-0.056755
O11	O	0.899440	0.696022	0.056919
O12	O	1.126825	0.696021	-0.170467
O13	O	1.126832	0.613287	-0.056793
Zr14	Zr	1.013102	0.825797	0.121571
Zr15	Zr	1.013115	0.825794	-0.121389
Zr16	Zr	1.013130	0.648985	0.121542
Zr17	Zr	1.256102	0.648984	-0.121429
Zr18	Zr	0.770144	0.825795	0.121583
O19	O	1.206229	0.792823	0.076246
O20	O	1.206248	0.792818	-0.269212
O21	O	1.206269	0.541419	0.076204
O22	O	0.819957	0.933365	0.269408
O23	O	0.819976	0.933360	-0.076050
O24	O	0.819998	0.681961	0.269366
O25	O	1.013095	0.933361	-0.076059
O26	O	1.013099	0.792824	0.269375
O27	O	1.013117	0.681962	0.269357
O28	O	1.013087	0.933363	0.076278
O29	O	1.358601	0.681957	-0.269238
O30	O	0.667644	0.792822	0.269391
O31	O	0.667621	0.933364	0.269415
O32	O	0.667632	0.933361	0.076294
O33	O	1.358613	0.541418	-0.076140
O34	O	1.358591	0.681960	-0.076117
O35	O	0.899420	0.778759	0.170620
O36	O	0.899413	0.861492	0.056946
O37	O	1.126806	0.778757	-0.056765
O38	O	1.126813	0.696024	0.056908
C39	C	0.709219	0.737388	0.000091
C40	C	0.606077	0.737387	0.000095
C41	C	1.013158	0.516225	0.000040
C42	C	1.013171	0.441164	0.000027
C43	C	0.459072	0.685457	0.072118
C44	C	0.566692	0.685175	0.071827
C45	C	0.655086	0.699320	-0.123453
C46	C	0.547854	0.698930	-0.123079
C47	C	0.372602	0.827421	0.050558
C48	C	0.478753	0.827288	0.053079
C49	C	1.137125	0.214708	-0.061935
C50	C	1.075154	0.192346	-0.106853
C51	C	1.013137	0.303757	0.000060
C52	C	1.075116	0.192379	0.044956
C53	C	1.013113	0.171025	0.000091
C54	C	0.951164	0.282384	-0.044920
C55	C	0.951145	0.282414	0.106948
C56	C	0.889082	0.260105	0.062057
C57	C	1.013154	0.380219	0.000039
C58	C	1.013086	0.094568	0.000109
C59	C	1.317026	0.737392	0.000063
C60	C	1.420168	0.737392	0.000058
C61	C	1.013139	0.737386	-0.303829
C62	C	1.013145	0.737384	-0.406972
C63	C	1.013087	0.958554	0.000114
C64	C	1.013075	1.033615	0.000126
C65	C	1.156546	0.684951	-0.625357
C66	C	1.156643	0.685173	-0.518125
C67	C	0.941899	0.827284	-0.410278
C68	C	0.942809	0.827002	-0.518047
C69	C	0.939876	0.700661	-0.516704
C70	C	0.942579	0.698837	-0.410735
C71	C	1.013106	0.737394	0.303983
C72	C	1.013100	0.737395	0.407126
C73	C	0.709184	0.958552	0.000128
C74	C	0.606030	1.033613	0.000145
C75	C	0.709203	0.737392	0.303997
C76	C	0.606055	0.737392	0.407144
C77	C	0.709167	0.958556	0.304034
C78	C	0.606007	1.033618	0.407194
C79	C	1.317078	0.516223	-0.303880
C80	C	1.420238	0.441161	-0.407040
C81	C	1.317062	0.516227	0.000026
C82	C	1.420216	0.441166	0.000009
C83	C	1.317043	0.737388	-0.303843
C84	C	1.420190	0.737387	-0.406991
C85	C	0.557597	1.025674	-0.059208
C86	C	0.460687	1.096195	-0.059215
C87	C	0.412203	1.174653	0.000139
C88	C	0.460645	1.182590	0.059494
C89	C	0.557560	1.112070	0.059493
C90	C	0.557559	1.112061	0.396302
C91	C	0.460642	1.182597	0.493223
C92	C	0.412170	1.174687	0.601034
C93	C	0.460628	1.096236	0.611923
C94	C	0.557549	1.025702	0.515004
C95	C	1.468699	0.362718	-0.396149
C96	C	1.565645	0.292182	-0.493070
C97	C	1.614122	0.300092	-0.600881
C98	C	1.565658	0.378544	-0.611770
C99	C	1.468720	0.449077	-0.514850
C100	C	1.468658	0.449105	0.059351
C101	C	1.565596	0.378584	0.059331
C102	C	1.614083	0.300126	-0.000026
C103	C	1.565636	0.292189	-0.059376
C104	C	1.468707	0.362709	-0.059362
C105	C	0.459741	0.684959	0.482129
C106	C	0.566673	0.685180	0.374789
C107	C	0.479179	0.827292	0.481723
C108	C	0.371793	0.827011	0.588592
C109	C	0.546786	0.700671	0.590149
C110	C	0.655268	0.698846	0.481467
H111	H	0.529973	0.710709	0.162802
H112	H	1.429268	0.356234	-0.107683
H113	H	1.693055	0.242652	-0.679790
H114	H	0.994528	0.632605	-0.411268
H115	H	1.605130	0.228299	-0.107703
H116	H	0.421257	1.089717	-0.107548
H117	H	0.333251	1.232127	0.679943
H118	H	1.605024	0.385063	0.107665
H119	H	0.500251	0.869244	0.006055
H120	H	0.656038	0.618981	0.320503
H121	H	1.429187	0.512983	0.107695
H122	H	0.496991	0.618591	0.479781
H123	H	1.429234	0.356262	-0.308373
H124	H	1.127540	0.153578	0.082914
H125	H	0.529206	0.710659	0.321007
H126	H	1.429264	0.512947	-0.523732
H127	H	0.421198	1.246469	0.484337
H128	H	1.605141	0.384974	-0.699561
H129	H	0.596981	1.118545	0.107832
H130	H	0.597010	1.118517	0.308526
H131	H	0.597072	0.961796	-0.107555
H132	H	0.333287	1.232068	0.000132
H133	H	1.693009	0.242711	-0.000029
H134	H	0.370071	0.710201	0.481102
H135	H	0.281034	0.856417	0.588327
H136	H	0.341825	0.868210	0.667185
H137	H	1.605088	0.228311	-0.484182
H138	H	0.993428	0.856408	-0.568389
H139	H	0.501418	0.868061	0.508961
H140	H	0.596984	0.961832	0.523887
H141	H	0.836389	0.868053	-0.331998
H142	H	0.421155	1.246480	0.107817
H143	H	0.586368	0.635473	0.594254
H144	H	0.747407	0.633705	-0.164155
H145	H	0.440620	0.856904	0.430120
H146	H	0.745776	0.632616	0.430029
H147	H	1.212555	0.618973	-0.519762
H148	H	0.687386	0.733074	0.506995
H149	H	0.521984	0.738688	0.668376
H150	H	0.370195	0.710857	0.163320
H151	H	1.127560	0.153535	-0.197235
H152	H	0.898802	0.321078	-0.082982
H153	H	0.421148	1.089808	0.699716
H154	H	0.655505	0.618767	0.036816
H155	H	0.494847	0.619441	0.037400
H156	H	0.991365	0.856898	-0.408134
H157	H	0.588565	0.632681	-0.163505
H158	H	0.525882	0.734314	-0.179686
H159	H	0.683869	0.735330	-0.179465
H160	H	1.212850	0.618581	-0.679322
H161	H	0.985783	0.635466	-0.566740
H162	H	0.278846	0.859225	0.140135
H163	H	0.439142	0.855727	0.144098
H164	H	0.837888	0.733064	-0.331567
H165	H	1.241964	0.196257	-0.114437
H166	H	0.784158	0.278711	0.114485
H167	H	0.346624	0.866298	-0.001678
H168	H	0.898783	0.321223	0.197311
H169	H	1.212562	0.710194	-0.680335
H170	H	1.212883	0.710652	-0.520576
H171	H	0.834203	0.738678	-0.489244
H172	H	0.837564	0.868199	-0.491381
