data_functionalizedCrystal
_audit_creation_method	'MofGen! by Chris Wilmer'
_symmetry_space_group_name_H-M	'P1'
_symmetry_Int_Tables_number	1
_symmetry_cell_setting	triclinic
loop_
_symmetry_equiv_pos_as_xyz
  x,y,z
_cell_length_a	16.974829
_cell_length_b	14.185328
_cell_length_c	16.974813
_cell_angle_alpha	108.342378
_cell_angle_beta	83.162295
_cell_angle_gamma	108.343499
loop_
_atom_site_label
_atom_site_type_symbol
_atom_site_fract_x
_atom_site_fract_y
_atom_site_fract_z
O1	O	1.083995	0.182443	0.135764
O2	O	0.850285	0.164230	0.145104
O3	O	0.971812	0.164224	0.023578
O4	O	0.962468	0.182448	0.257290
O5	O	0.938805	-0.007978	-0.009420
O6	O	0.817278	-0.007972	0.112106
O7	O	1.050988	0.010241	0.102766
Cu8	Cu	0.931119	-0.014589	0.104423
Cu9	Cu	0.970154	0.189060	0.143447
O10	O	0.929461	0.010246	0.224292
C11	C	0.803843	0.075620	0.127635
C12	C	0.714635	0.068143	0.124736
N13	N	0.903670	-0.157825	0.076975
C14	C	0.210556	0.015982	0.106511
C15	C	0.294376	0.023009	0.109236
C16	C	0.354280	0.120392	0.128580
C17	C	0.330359	0.210753	0.145208
C18	C	0.246539	0.203725	0.142489
C19	C	0.606894	0.151476	0.138645
C20	C	0.690719	0.158497	0.141361
C21	C	0.654730	-0.029247	0.105389
C22	C	0.570911	-0.036267	0.102667
C23	C	0.546997	0.054095	0.119300
N24	N	0.439958	0.127577	0.131363
N25	N	0.461319	0.046909	0.116523
C26	C	1.078189	-0.497086	0.251554
C27	C	1.057416	-0.605488	0.230750
C28	C	0.958549	-0.621535	0.131812
C29	C	0.979312	-0.513131	0.152610
C30	C	1.039133	-0.450915	0.212481
C31	C	0.940255	-0.466961	0.113537
C32	C	0.961019	-0.358567	0.134331
C33	C	1.020840	-0.296343	0.194197
C34	C	1.059897	-0.342521	0.233275
C35	C	0.880438	-0.529179	0.053662
C36	C	0.841382	-0.483009	0.014589
C37	C	0.862142	-0.374613	0.035387
C38	C	0.921962	-0.312389	0.095254
C39	C	0.823085	-0.328435	-0.003690
C40	C	0.843849	-0.220041	0.017104
C41	C	0.942727	-0.203995	0.116047
C42	C	1.097430	0.098853	0.120235
C43	C	1.186639	0.106337	0.123136
C44	C	0.954339	0.075615	-0.022860
C45	C	0.951443	0.068140	-0.112067
N46	N	0.997609	0.332295	0.170889
C47	C	0.968075	0.158496	-0.135985
C48	C	0.965348	0.151469	-0.219805
C49	C	0.945993	0.054087	-0.279706
C50	C	0.929356	-0.036276	-0.255784
C51	C	0.932078	-0.029248	-0.171964
C52	C	0.935917	0.023004	-0.532319
C53	C	0.933199	0.015984	-0.616143
C54	C	0.969189	0.203729	-0.580158
C55	C	0.971914	0.210748	-0.496340
C56	C	0.955274	0.120386	-0.472424
N57	N	0.943207	0.046902	-0.365384
N58	N	0.958054	0.127571	-0.386746
C59	C	0.946934	0.098858	0.270730
C60	C	0.949832	0.106339	0.359939
H61	H	0.161786	-0.063317	0.090762
C62	C	0.756612	0.265631	0.162654
N63	N	0.806242	0.346320	0.178694
C64	C	0.913783	-0.128647	-0.145657
N65	N	0.900000	-0.203517	-0.125843
H66	H	0.674211	-0.102814	0.091849
H67	H	1.108601	-0.291860	0.282036
C68	C	0.892743	-0.689985	0.065959
N69	N	0.843174	-0.741540	0.016360
H70	H	0.587435	0.225055	0.152186
C71	C	0.775576	-0.551458	-0.051264
N72	N	0.726007	-0.603014	-0.100862
C73	C	0.757285	-0.396887	-0.069549
N74	N	0.707723	-0.448445	-0.119153
C75	C	0.396256	0.317875	0.166485
N76	N	0.445890	0.398561	0.182507
C77	C	0.911904	-0.091150	-0.682035
N78	N	0.895865	-0.171838	-0.731664
C79	C	0.800882	-0.169250	-0.025876
N80	N	0.768520	-0.130995	-0.058251
H81	H	0.863539	-0.617440	0.036729
C82	C	0.989367	0.265625	-0.070100
N83	N	1.005401	0.346318	-0.020476
H84	H	0.978896	0.225047	-0.239274
C85	C	0.993206	0.317877	-0.430453
N86	N	1.009247	0.398568	-0.380827
H87	H	0.982736	0.277297	-0.599641
C88	C	0.917615	-0.076398	-0.506023
N89	N	0.903830	-0.151273	-0.486216
H90	H	0.913592	-0.115567	-0.304562
H91	H	0.522143	-0.115567	0.086898
C92	C	0.220233	0.303122	0.160775
N93	N	0.200421	0.377992	0.174551
C94	C	1.008529	-0.135551	0.181913
N95	N	1.058091	-0.083998	0.231520
C96	C	0.320679	-0.076389	0.090942
N97	N	0.340490	-0.151260	0.077162
C98	C	1.100394	-0.656271	0.273731
N99	N	1.132769	-0.694520	0.306099
H100	H	1.037747	-0.208082	0.211125
C101	C	1.143992	-0.428641	0.317419
N102	N	1.193553	-0.377089	0.367026
