data_functionalizedCrystal
_audit_creation_method	'MofGen! by Chris Wilmer'
_symmetry_space_group_name_H-M	'P1'
_symmetry_Int_Tables_number	1
_symmetry_cell_setting	triclinic
loop_
_symmetry_equiv_pos_as_xyz
  x,y,z
_cell_length_a	14.971486
_cell_length_b	9.130313
_cell_length_c	14.971486
_cell_angle_alpha	90.001462
_cell_angle_beta	83.614129
_cell_angle_gamma	89.995281
loop_
_atom_site_label
_atom_site_type_symbol
_atom_site_fract_x
_atom_site_fract_y
_atom_site_fract_z
O1	O	1.186940	0.121632	0.116559
O2	O	1.686940	0.621632	0.616559
O3	O	0.926539	0.121672	0.130518
O4	O	1.426539	0.621672	0.630518
O5	O	1.063719	0.121640	-0.006662
O6	O	1.563719	0.621640	0.493338
O7	O	1.049760	0.121663	0.253738
O8	O	1.549760	0.621663	0.753738
O9	O	1.063717	-0.121959	-0.006658
O10	O	1.563717	0.378041	0.493342
O11	O	0.926538	-0.121927	0.130521
O12	O	1.426538	0.378073	0.630521
O13	O	1.186938	-0.121967	0.116562
O14	O	1.686938	0.378033	0.616562
Cu15	Cu	1.056738	-0.144190	0.123542
Cu16	Cu	1.556738	0.355810	0.623542
Cu17	Cu	1.056740	0.143894	0.123538
Cu18	Cu	1.556740	0.643894	0.623538
O19	O	1.049758	-0.121936	0.253742
O20	O	1.549758	0.378064	0.753742
C21	C	0.893214	-0.000123	0.129895
C22	C	1.393214	0.499877	0.629895
C23	C	0.793917	-0.000108	0.128024
C24	C	1.293917	0.499892	0.628024
N25	N	1.056743	-0.346812	0.123545
N26	N	1.556743	0.153188	0.623545
C27	C	0.736692	-0.000103	0.208614
C28	C	1.236692	0.499897	0.708614
C29	C	0.643392	-0.000125	0.206850
C30	C	1.143392	0.499875	0.706850
C31	C	0.607320	-0.000141	0.124497
C32	C	1.107320	0.499859	0.624497
C33	C	0.664552	-0.000151	0.043902
C34	C	1.164552	0.499849	0.543902
C35	C	0.757850	-0.000139	0.045666
C36	C	1.257850	0.499861	0.545666
C37	C	0.470090	-0.000171	0.040231
C38	C	0.970090	0.499829	0.540231
C39	C	0.376786	-0.000180	0.038466
C40	C	0.876786	0.499820	0.538466
C41	C	0.355632	-0.000157	0.201415
C42	C	0.855632	0.499843	0.701415
C43	C	0.448930	-0.000145	0.203179
C44	C	0.948930	0.499855	0.703179
C45	C	0.506156	-0.000152	0.122584
C46	C	1.006156	0.499848	0.622584
C47	C	1.117501	-0.423478	0.062822
C48	C	1.617501	0.076522	0.562822
C49	C	1.117499	-0.576815	0.062811
C50	C	1.617499	-0.076815	0.562811
C51	C	0.995977	-0.576807	0.184254
C52	C	1.495977	-0.076807	0.684254
C53	C	0.995975	-0.423473	0.184259
C54	C	1.495975	0.076527	0.684259
C55	C	1.178269	-0.346818	0.002107
C56	C	1.678269	0.153182	0.502107
C57	C	1.239033	-0.423484	-0.058619
C58	C	1.739033	0.076516	0.441381
C59	C	1.239030	-0.576821	-0.058630
C60	C	1.739030	-0.076821	0.441370
C61	C	1.178264	-0.653492	0.002086
C62	C	1.678264	-0.153492	0.502086
C63	C	1.220263	-0.000170	0.117185
C64	C	1.720263	0.499830	0.617185
C65	C	1.319561	-0.000175	0.119056
C66	C	1.819561	0.499825	0.619056
C67	C	1.063094	-0.000159	-0.039985
C68	C	1.563094	0.499841	0.460015
C69	C	1.061223	-0.000157	-0.139282
C70	C	1.561223	0.499843	0.360718
N71	N	1.056742	0.346517	0.123528
N72	N	1.556742	0.846517	0.623528
C73	C	1.141812	-0.000171	-0.196507
C74	C	1.641812	0.499829	0.303493
C75	C	1.140049	-0.000156	-0.289807
C76	C	1.640049	0.499844	0.210193
C77	C	1.057696	-0.000138	-0.325879
C78	C	1.557696	0.499862	0.174121
C79	C	0.977101	-0.000120	-0.268646
C80	C	1.477101	0.499880	0.231354
C81	C	0.978865	-0.000124	-0.175349
C82	C	1.478865	0.499876	0.324651
C83	C	0.973430	-0.000114	-0.463109
C84	C	1.473430	0.499886	0.036891
C85	C	0.971665	-0.000112	-0.556413
C86	C	1.471665	0.499888	-0.056413
C87	C	1.134614	-0.000145	-0.577567
C88	C	1.634614	0.499855	-0.077567
C89	C	1.136378	-0.000150	-0.484269
C90	C	1.636378	0.499850	0.015731
C91	C	1.055782	-0.000135	-0.427043
C92	C	1.555782	0.499865	0.072957
C93	C	1.050384	-0.000134	0.287065
C94	C	1.550384	0.499866	0.787065
C95	C	1.052254	-0.000126	0.386362
C96	C	1.552254	0.499874	0.886362
H97	H	0.766054	-0.000088	0.275675
H98	H	1.266054	0.499912	0.775675
Cl99	Cl	0.872107	-0.000094	-0.391168
Cl100	Cl	1.372107	0.499906	0.108832
H101	H	1.200238	-0.000153	-0.624165
H102	H	1.700238	0.499847	-0.124165
H103	H	1.208874	-0.000194	-0.167145
H104	H	1.708874	0.499806	0.332855
H105	H	0.904606	-0.000121	-0.585780
H106	H	1.404606	0.499879	-0.085780
Cl107	Cl	0.873570	-0.000079	-0.313995
Cl108	Cl	1.373570	0.499921	0.186005
H109	H	0.946499	-0.361051	0.233704
H110	H	1.446499	0.138949	0.733704
Cl111	Cl	0.571455	-0.000109	0.308168
Cl112	Cl	1.071455	0.499891	0.808168
H113	H	0.309033	-0.000158	0.267039
H114	H	0.809033	0.499842	0.767039
H115	H	1.288501	-0.639241	-0.108082
H116	H	1.788501	-0.139241	0.391918
Cl117	Cl	1.178258	-0.846260	0.002061
Cl118	Cl	1.678258	-0.346260	0.502061
H119	H	1.205673	-0.000170	-0.336396
H120	H	1.705673	0.499830	0.163604
H121	H	0.946504	-0.639242	0.233687
H122	H	1.446504	-0.139242	0.733687
Cl123	Cl	1.315413	-0.327102	-0.134952
Cl124	Cl	1.815413	0.172898	0.365048
Cl125	Cl	1.239910	-0.000165	-0.438922
Cl126	Cl	1.739910	0.499835	0.061078
Cl127	Cl	0.877548	-0.000102	-0.103407
Cl128	Cl	1.377548	0.499898	0.396593
Cl129	Cl	1.178278	-0.154052	0.002121
Cl130	Cl	1.678278	0.345948	0.502121
H131	H	0.347419	-0.000195	-0.028593
H132	H	0.847419	0.499805	0.471407
H133	H	0.478296	-0.000118	0.270239
H134	H	0.978296	0.499882	0.770239
H135	H	0.516682	-0.000179	-0.025399
H136	H	1.016682	0.499821	0.474601
Cl137	Cl	0.619204	-0.000181	-0.059629
Cl138	Cl	1.119204	0.499819	0.440371
H139	H	0.804443	-0.000143	-0.019958
H140	H	1.304443	0.499857	0.480042
