data_functionalizedCrystal
_audit_creation_method	'MofGen! by Chris Wilmer'
_symmetry_space_group_name_H-M	'P1'
_symmetry_Int_Tables_number	1
_symmetry_cell_setting	triclinic
loop_
_symmetry_equiv_pos_as_xyz
  x,y,z
_cell_length_a	16.109301
_cell_length_b	10.654550
_cell_length_c	14.586319
_cell_angle_alpha	89.997374
_cell_angle_beta	89.999213
_cell_angle_gamma	83.973192
loop_
_atom_site_label
_atom_site_type_symbol
_atom_site_fract_x
_atom_site_fract_y
_atom_site_fract_z
O1	O	1.104091	0.161419	-0.076180
O2	O	1.604091	0.661419	0.423820
O3	O	0.862148	0.181507	-0.076194
O4	O	1.362148	0.681507	0.423806
O5	O	0.988682	-0.011352	-0.076183
O6	O	1.488682	0.488648	0.423817
O7	O	0.977557	0.354278	-0.076191
O8	O	1.477557	0.854278	0.423809
O9	O	0.988673	-0.011354	0.076297
O10	O	1.488673	0.488646	0.576297
O11	O	0.862139	0.181504	0.076287
O12	O	1.362139	0.681504	0.576287
O13	O	1.104082	0.161416	0.076301
O14	O	1.604082	0.661416	0.576301
Cu15	Cu	0.983110	0.171460	0.090216
Cu16	Cu	1.483110	0.671460	0.590216
Cu17	Cu	0.983120	0.171463	-0.090110
Cu18	Cu	1.483120	0.671463	0.409890
O19	O	0.977548	0.354275	0.076290
O20	O	1.477548	0.854275	0.576290
C21	C	0.831164	0.180692	0.000044
C22	C	1.331164	0.680692	0.500044
C23	C	0.738854	0.178253	0.000039
C24	C	1.238854	0.678253	0.500039
C25	C	0.517228	0.287019	0.000047
C26	C	1.017228	0.787019	0.500047
C27	C	0.430494	0.284717	0.000053
C28	C	0.930494	0.784717	0.500053
C29	C	0.449008	0.055896	0.000054
C30	C	0.949008	0.555896	0.500054
C31	C	0.535741	0.058199	0.000055
C32	C	1.035741	0.558199	0.500055
C33	C	0.569848	0.173764	0.000047
C34	C	1.069848	0.673764	0.500047
C35	C	0.396382	0.169159	0.000052
C36	C	0.896382	0.669159	0.500052
C37	C	0.302341	0.166662	0.000058
C38	C	0.802341	0.666662	0.500058
C39	C	0.663895	0.176262	0.000042
C40	C	1.163895	0.676262	0.500042
C41	C	0.987861	-0.058140	0.000056
C42	C	1.487861	0.441860	0.500056
C43	C	0.985417	-0.197550	0.000053
C44	C	1.485417	0.302450	0.500053
C45	C	1.059918	-0.278046	0.000060
C46	C	1.559918	0.221954	0.500060
C47	C	1.057616	-0.409036	0.000053
C48	C	1.557616	0.090964	0.500053
C49	C	0.906306	-0.379020	0.000036
C50	C	1.406306	0.120980	0.500036
C51	C	0.908608	-0.248033	0.000036
C52	C	1.408608	0.251967	0.500036
C53	C	1.136726	-0.227564	0.000076
C54	C	1.636726	0.272436	0.500076
C55	C	1.211233	-0.308061	0.000084
C56	C	1.711233	0.191939	0.500084
C57	C	1.208932	-0.439051	0.000078
C58	C	1.708932	0.060949	0.500078
C59	C	1.132123	-0.489543	0.000063
C60	C	1.632123	0.010457	0.500063
C61	C	1.135066	0.162231	0.000060
C62	C	1.635066	0.662231	0.500060
C63	C	1.227376	0.164671	0.000060
C64	C	1.727376	0.664671	0.500060
C65	C	0.978369	0.401063	0.000049
C66	C	1.478369	0.901063	0.500049
C67	C	0.980813	0.540473	0.000046
C68	C	1.480813	1.040473	0.500046
N69	N	0.983108	0.171457	0.217048
N70	N	1.483108	0.671457	0.717048
N71	N	0.983128	0.171457	-0.216942
N72	N	1.483128	0.671457	0.283058
C73	C	1.039156	0.086088	0.452059
C74	C	1.539156	0.586088	0.952059
C75	C	1.039159	0.086084	0.548041
C76	C	1.539159	0.586084	1.048041
C77	C	0.927074	0.256830	0.548040
C78	C	1.427074	0.756830	1.048040
C79	C	0.927068	0.256826	0.452061
C80	C	1.427068	0.756826	0.952061
C81	C	0.983114	0.171456	0.404073
C82	C	1.483114	0.671456	0.904073
C83	C	0.983122	0.171457	0.596034
C84	C	1.483122	0.671457	1.096034
C85	C	0.983124	0.171455	0.700101
C86	C	1.483124	0.671455	1.200101
C87	C	0.983111	0.171457	0.299999
C88	C	1.483111	0.671457	0.799999
H89	H	0.578586	-0.034032	0.000057
H90	H	1.078586	0.465968	0.500057
H91	H	1.084792	0.016568	0.587109
H92	H	1.584792	0.516568	1.087109
Cl93	Cl	0.809754	-0.442498	0.000020
Cl94	Cl	1.309754	0.057502	0.500020
H95	H	1.130255	-0.596205	0.000048
H96	H	1.630255	-0.096205	0.500048
H97	H	0.387654	0.376940	0.000056
H98	H	0.887654	0.876940	0.500056
H99	H	0.881444	0.326338	0.587122
H100	H	1.381444	0.826338	1.087122
H101	H	0.421227	-0.038193	0.000066
H102	H	0.921227	0.461807	0.500066
H103	H	0.847943	-0.182490	0.000031
H104	H	1.347943	0.317510	0.500031
H105	H	1.138609	-0.120907	0.000084
H106	H	1.638609	0.379093	0.500084
Cl107	Cl	1.109611	-0.021239	0.391735
Cl108	Cl	1.609611	0.478761	0.891735
H109	H	0.881428	0.326344	0.412988
H110	H	1.381428	0.826344	0.912988
H111	H	0.544995	0.381119	0.000048
H112	H	1.044995	0.881119	0.500048
H113	H	1.273768	-0.266942	0.000073
H114	H	1.773768	0.233058	0.500073
H115	H	1.269599	-0.504589	0.000075
H116	H	1.769599	-0.004589	0.500075
