data_functionalizedCrystal
_audit_creation_method	'MofGen! by Chris Wilmer'
_symmetry_space_group_name_H-M	'P1'
_symmetry_Int_Tables_number	1
_symmetry_cell_setting	triclinic
loop_
_symmetry_equiv_pos_as_xyz
  x,y,z
_cell_length_a	16.992697
_cell_length_b	23.532407
_cell_length_c	15.455313
_cell_angle_alpha	92.643560
_cell_angle_beta	92.856959
_cell_angle_gamma	93.241435
loop_
_atom_site_label
_atom_site_type_symbol
_atom_site_fract_x
_atom_site_fract_y
_atom_site_fract_z
O1	O	-1.042900	0.118386	-0.072020
O2	O	-0.814627	0.117061	-0.072049
O3	O	-0.935647	0.035134	-0.072018
O4	O	-0.921881	0.200313	-0.072051
O5	O	-0.928726	0.039798	0.072243
O6	O	-0.807707	0.121725	0.072211
O7	O	-1.035980	0.123051	0.072240
Cu8	Cu	-0.921212	0.122814	0.085398
Cu9	Cu	-0.929396	0.117298	-0.085206
O10	O	-0.914961	0.204977	0.072209
C11	C	-0.781968	0.117689	0.000078
C12	C	-0.694964	0.112605	0.000067
C13	C	-0.644342	0.161651	0.000057
C14	C	-0.562592	0.156872	0.000069
C15	C	-0.531466	0.103046	0.000084
C16	C	-0.582094	0.053996	0.000097
C17	C	-0.663842	0.058776	0.000092
C18	C	-0.288021	0.083234	0.000108
C19	C	-0.206267	0.078458	0.000110
C20	C	-0.186770	0.181334	0.000084
C21	C	-0.268521	0.186109	0.000073
C22	C	-0.319142	0.137060	0.000091
N23	N	-0.447905	0.098159	0.000094
N24	N	-0.402701	0.141947	0.000088
C25	C	-0.931836	0.016233	0.000115
C26	C	-0.930781	-0.047036	0.000121
C27	C	-0.995790	-0.442915	0.000082
C28	C	-0.994811	-0.502364	0.000075
O29	O	-1.055074	-0.536119	0.000051
N30	N	-0.922864	-0.528561	0.000067
C31	C	-0.851892	-0.495305	0.000056
O32	O	-0.790606	-0.523046	0.000047
C33	C	-0.852872	-0.435858	0.000057
C34	C	-0.924823	-0.409664	0.000074
C35	C	-1.067735	-0.416721	0.000098
C36	C	-1.068713	-0.357276	0.000107
C37	C	-0.997747	-0.324025	0.000099
C38	C	-0.925802	-0.350219	0.000082
C39	C	-0.781902	-0.402604	0.000040
C40	C	-0.782888	-0.343152	0.000040
C41	C	-0.854839	-0.316958	0.000057
C42	C	-0.855813	-0.257523	0.000083
N43	N	-0.927760	-0.231326	0.000091
C44	C	-0.998727	-0.264577	0.000099
C45	C	-0.849840	-0.620150	0.000054
C46	C	-0.848859	-0.679596	0.000059
C47	C	-0.991778	-0.686651	0.000077
C48	C	-0.992758	-0.627203	0.000077
C49	C	-0.921787	-0.593953	0.000062
C50	C	-1.000776	-0.139738	0.000117
C51	C	-1.001748	-0.080287	0.000129
C52	C	-0.858830	-0.073238	0.000107
C53	C	-0.857857	-0.132683	0.000100
C54	C	-0.928837	-0.165932	0.000102
O55	O	-0.795582	-0.223732	0.000103
O56	O	-1.060003	-0.236829	0.000096
C57	C	-0.068640	0.122422	0.000108
C58	C	-0.155645	0.127504	0.000100
C59	C	-0.918771	0.223879	0.000075
C60	C	-0.919826	0.287147	0.000063
N61	N	-0.915461	0.126693	0.205392
N62	N	-0.935152	0.113414	-0.205201
C63	C	-0.966892	0.091903	0.250800
C64	C	-0.962550	0.094842	0.341606
C65	C	-0.906781	0.132576	0.387004
C66	C	-0.855344	0.167368	0.341590
C67	C	-0.859683	0.164425	0.250785
C68	C	-0.888054	0.145263	0.658581
C69	C	-0.883721	0.148205	0.749392
C70	C	-0.990927	0.075677	0.749402
C71	C	-0.995264	0.072740	0.658595
C72	C	-0.943824	0.107530	0.613189
N73	N	-0.902343	0.135583	0.479823
N74	N	-0.948259	0.104520	0.520372
H75	H	-0.669677	0.205482	0.000044
H76	H	-1.051346	-0.605880	0.000091
H77	H	-0.846172	0.173592	0.621618
Cl78	Cl	-1.065375	0.025304	0.601524
H79	H	-1.032805	0.047352	0.786380
Cl80	Cl	-0.785229	0.214803	0.398660
Cl81	Cl	-0.760609	-0.578355	0.000044
H82	H	-0.521378	0.196810	0.000060
Cl83	Cl	-0.307644	0.253779	0.000048
Cl84	Cl	-0.123128	0.242992	0.000066
Cl85	Cl	-0.167138	0.010786	0.000149
Cl86	Cl	-1.092207	-0.047362	0.000149
Cl87	Cl	-0.351648	0.021571	0.000128
Cl88	Cl	-1.090009	-0.181527	0.000122
H89	H	-1.012309	0.061178	0.213843
H90	H	-0.556744	0.010170	0.000122
H91	H	-0.705058	0.018838	0.000099
H92	H	-1.127303	-0.335955	0.000117
H93	H	-0.838305	0.178934	0.786351
H94	H	-0.723312	-0.423920	0.000020
Cl95	Cl	-1.027207	0.051104	0.398692
Cl96	Cl	-1.156963	-0.458512	0.000110
H97	H	-1.049563	-0.713735	0.000080
H98	H	-0.790269	-0.700917	0.000060
Cl99	Cl	-0.693661	-0.301356	0.000019
H100	H	-0.799268	-0.154011	0.000110
H101	H	-0.801050	-0.046154	0.000104
H102	H	-0.817801	0.192755	0.213815
