data_functionalizedCrystal
_audit_creation_method	'MofGen! by Chris Wilmer'
_symmetry_space_group_name_H-M	'P1'
_symmetry_Int_Tables_number	1
_symmetry_cell_setting	triclinic
loop_
_symmetry_equiv_pos_as_xyz
  x,y,z
_cell_length_a	29.839134
_cell_length_b	17.077402
_cell_length_c	17.077396
_cell_angle_alpha	89.970216
_cell_angle_beta	89.970675
_cell_angle_gamma	90.017744
loop_
_atom_site_label
_atom_site_type_symbol
_atom_site_fract_x
_atom_site_fract_y
_atom_site_fract_z
Zn1	Zn	0.686810	-0.312616	-0.444041
Zn2	Zn	1.186810	0.187384	0.055959
Zn3	Zn	0.686757	-0.443891	-0.312772
Zn4	Zn	1.186757	0.056109	0.187228
Zn5	Zn	0.611683	-0.312631	-0.312767
Zn6	Zn	1.111683	0.187369	0.187233
Zn7	Zn	0.611665	-0.443832	-0.443973
Zn8	Zn	1.111665	0.056168	0.056027
O9	O	0.649229	-0.378242	-0.378388
O10	O	1.149229	0.121758	0.121612
O11	O	0.749670	-0.330048	-0.426659
O12	O	1.249670	0.169952	0.073341
O13	O	0.676784	-0.426510	-0.202925
O14	O	1.176784	0.073490	0.297075
O15	O	0.621679	-0.202782	-0.330207
O16	O	1.121679	0.297218	0.169793
O17	O	0.749631	-0.426495	-0.330216
O18	O	1.249631	0.073505	0.169784
O19	O	0.676874	-0.202771	-0.426654
O20	O	1.176874	0.297229	0.073346
O21	O	0.621627	-0.330074	-0.202921
O22	O	1.121627	0.169926	0.297079
O23	O	0.548814	-0.330017	-0.330141
O24	O	1.048814	0.169983	0.169859
O25	O	0.621648	-0.426395	-0.553829
O26	O	1.121648	0.073605	-0.053829
O27	O	0.548800	-0.426409	-0.426538
O28	O	1.048800	0.073591	0.073462
O29	O	0.676857	-0.329991	-0.553879
O30	O	1.176857	0.170009	-0.053879
O31	O	0.676766	-0.553730	-0.330150
O32	O	1.176766	-0.053730	0.169850
O33	O	0.621596	-0.553686	-0.426543
O34	O	1.121596	-0.053686	0.073457
C35	C	0.649185	-0.582190	-0.378357
C36	C	1.149185	-0.082190	0.121643
C37	C	0.649208	-0.669440	-0.378370
C38	C	1.149208	-0.169440	0.121630
C39	C	0.532506	-0.378209	-0.378332
C40	C	1.032506	0.121791	0.121668
C41	C	0.482572	-0.378214	-0.378326
C42	C	0.982572	0.121786	0.121674
C43	C	0.677964	-0.710426	-0.328232
C44	C	1.177964	-0.210426	0.171768
C45	C	0.677986	-0.792407	-0.328252
C46	C	1.177986	-0.292407	0.171748
C47	C	0.649249	-0.833399	-0.378407
C48	C	1.149249	-0.333399	0.121593
C49	C	0.620492	-0.792407	-0.428550
C50	C	1.120492	-0.292407	0.071450
C51	C	0.620472	-0.710428	-0.428533
C52	C	1.120472	-0.210428	0.071467
C53	C	0.620533	-0.963277	-0.428580
C54	C	1.120533	-0.463277	0.071420
C55	C	0.620552	-1.045261	-0.428596
C56	C	1.120552	-0.545261	0.071404
C57	C	0.678047	-1.045256	-0.328299
C58	C	1.178047	-0.545256	0.171701
C59	C	0.678028	-0.963277	-0.328282
C60	C	1.178028	-0.463277	0.171718
C61	C	0.649270	-0.922290	-0.378425
C62	C	1.149270	-0.422290	0.121575
C63	C	0.172931	-0.428508	-0.428521
C64	C	0.672931	0.071492	0.071479
C65	C	-0.014742	-0.428530	-0.428556
C66	C	0.485258	0.071470	0.071444
O67	O	-0.039005	-0.471255	-0.471199
O68	O	0.460995	0.028745	0.028801
N69	N	-0.038213	-0.378271	-0.378448
N70	N	0.461787	0.121729	0.121552
C71	C	-0.014763	-0.327999	-0.328331
C72	C	0.485237	0.172001	0.171669
O73	O	-0.039033	-0.285245	-0.285717
O74	O	0.460967	0.214755	0.214283
C75	C	0.172909	-0.327974	-0.328300
C76	C	0.672909	0.172026	0.171700
C77	C	0.196378	-0.378242	-0.378406
C78	C	0.696378	0.121758	0.121594
C79	C	0.196400	-0.478771	-0.478623
C80	C	0.696400	0.021229	0.021377
C81	C	0.243315	-0.478768	-0.478611
C82	C	0.743315	0.021232	0.021389
C83	C	0.266762	-0.428502	-0.428496
C84	C	0.766762	0.071498	0.071504
C85	C	0.243293	-0.378239	-0.378394
C86	C	0.743293	0.121761	0.121606
C87	C	0.196358	-0.277698	-0.278188
C88	C	0.696358	0.222302	0.221812
C89	C	0.243279	-0.277695	-0.278186
C90	C	0.743279	0.222305	0.221814
C91	C	0.266748	-0.327963	-0.328292
C92	C	0.766748	0.172037	0.171708
C93	C	0.313655	-0.327969	-0.328267
C94	C	0.813655	0.172031	0.171733
N95	N	0.337126	-0.378228	-0.378375
N96	N	0.837126	0.121772	0.121625
C97	C	0.313680	-0.428495	-0.428490
C98	C	0.813680	0.071505	0.071510
C99	C	-0.113294	-0.328017	-0.328349
C100	C	0.386706	0.171983	0.171651
C101	C	-0.160212	-0.328024	-0.328356
C102	C	0.339788	0.171976	0.171644
C103	C	-0.160187	-0.428555	-0.428582
C104	C	0.339813	0.071445	0.071418
C105	C	-0.113269	-0.428551	-0.428571
C106	C	0.386731	0.071449	0.071429
C107	C	-0.089823	-0.378276	-0.378457
C108	C	0.410177	0.121724	0.121543
C109	C	0.412205	-0.428485	-0.428460
C110	C	0.912205	0.071515	0.071540
C111	C	0.459125	-0.428480	-0.428441
C112	C	0.959125	0.071520	0.071559
C113	C	0.459097	-0.327947	-0.328218
C114	C	0.959097	0.172053	0.171782
C115	C	0.412181	-0.327955	-0.328234
C116	C	0.912181	0.172045	0.171766
C117	C	0.388737	-0.378227	-0.378361
C118	C	0.888737	0.121773	0.121639
O119	O	0.337947	-0.285260	-0.285652
O120	O	0.837947	0.214740	0.214348
O121	O	0.337958	-0.471230	-0.471109
O122	O	0.837958	0.028770	0.028891
C123	C	0.126015	-0.428511	-0.428533
C124	C	0.626015	0.071489	0.071467
C125	C	0.102547	-0.378248	-0.378431
C126	C	0.602547	0.121752	0.121569
C127	C	0.125993	-0.327981	-0.328316
C128	C	0.625993	0.172019	0.171684
C129	C	0.055629	-0.378255	-0.378437
C130	C	0.555629	0.121745	0.121563
C131	C	0.032182	-0.428521	-0.428552
C132	C	0.532182	0.071479	0.071448
C133	C	0.055653	-0.478781	-0.478660
C134	C	0.555653	0.021219	0.021340
C135	C	0.102569	-0.478778	-0.478648
C136	C	0.602569	0.021222	0.021352
C137	C	0.102522	-0.277722	-0.278208
C138	C	0.602522	0.222278	0.221792
C139	C	0.055607	-0.277730	-0.278224
C140	C	0.555607	0.222270	0.221776
C141	C	0.032160	-0.327996	-0.328338
C142	C	0.532160	0.172004	0.171662
C143	C	0.766407	-0.378276	-0.378446
C144	C	1.266407	0.121724	0.121554
C145	C	0.816342	-0.378291	-0.378470
C146	C	1.316342	0.121709	0.121530
C147	C	0.649256	-0.378184	-0.583133
C148	C	1.149256	0.121816	-0.083133
C149	C	0.649268	-0.378160	-0.670383
C150	C	1.149268	0.121840	-0.170383
C151	C	0.649285	-0.173498	-0.378437
C152	C	1.149285	0.326502	0.121563
C153	C	0.649308	-0.086248	-0.378458
C154	C	1.149308	0.413752	0.121542
C155	C	0.678016	-0.327958	-0.711400
C156	C	1.178016	0.172042	-0.211400
C157	C	0.678021	-0.327932	-0.793381
C158	C	1.178021	0.172068	-0.293381
C159	C	0.649280	-0.378112	-0.834342
C160	C	1.149280	0.121888	-0.334342
C161	C	0.620529	-0.428316	-0.793319
C162	C	1.120529	0.071684	-0.293319
C163	C	0.620522	-0.428337	-0.711340
C164	C	1.120522	0.071663	-0.211340
C165	C	0.620547	-0.428269	-0.964189
C166	C	1.120547	0.071731	-0.464189
C167	C	0.620555	-0.428248	-1.046174
C168	C	1.120555	0.071752	-0.546174
C169	C	0.678047	-0.327863	-1.046230
C170	C	1.178047	0.172137	-0.546230
C171	C	0.678039	-0.327885	-0.964251
C172	C	1.178039	0.172115	-0.464251
C173	C	0.649288	-0.378090	-0.923233
C174	C	1.149288	0.121910	-0.423233
C175	C	0.649228	-0.378243	-0.174441
C176	C	1.149228	0.121757	0.325559
C177	C	0.649303	-0.378047	-0.087191
C178	C	1.149303	0.121953	0.412809
H179	H	0.701363	-0.677056	-0.287387
H180	H	1.201363	-0.177056	0.212613
H181	H	0.701456	-0.286983	-1.079630
H182	H	1.201456	0.213017	-0.579630
H183	H	0.393123	-0.469419	-0.469280
H184	H	0.893123	0.030581	0.030720
H185	H	0.597150	-0.469108	-1.079523
H186	H	1.097150	0.030892	-0.579523
H187	H	-0.179286	-0.469483	-0.469387
H188	H	0.320714	0.030517	0.030613
H189	H	0.701422	-0.287098	-0.678055
H190	H	1.201422	0.212902	-0.178055
H191	H	0.478231	-0.469417	-0.469244
H192	H	0.978231	0.030583	0.030756
H193	H	0.701402	-0.825775	-0.287424
H194	H	1.201402	-0.325775	0.212576
H195	H	-0.179316	-0.287099	-0.287546
H196	H	0.320684	0.212901	0.212454
H197	H	0.597128	-0.469139	-0.930795
H198	H	1.097128	0.030861	-0.430795
H199	H	0.701432	-0.287055	-0.826773
H200	H	1.201432	0.212945	-0.326773
H201	H	0.478195	-0.287024	-0.287413
H202	H	0.978195	0.212976	0.212587
H203	H	0.701445	-0.287028	-0.930902
H204	H	1.201445	0.212972	-0.430902
H205	H	0.701465	-1.078631	-0.287473
H206	H	1.201465	-0.578631	0.212527
H207	H	0.597126	-0.469170	-0.826676
H208	H	1.097126	0.030830	-0.326676
H209	H	0.597107	-0.469209	-0.677945
H210	H	1.097107	0.030791	-0.177945
H211	H	0.262419	-0.519700	-0.519414
H212	H	0.762419	-0.019700	-0.019414
H213	H	0.177258	-0.236767	-0.237384
H214	H	0.677258	0.263233	0.262616
H215	H	0.121673	-0.519711	-0.519449
H216	H	0.621673	-0.019711	-0.019449
H217	H	0.701425	-0.929901	-0.287439
H218	H	1.201425	-0.429901	0.212561
H219	H	-0.094208	-0.287077	-0.287537
H220	H	0.405792	0.212923	0.212463
H221	H	0.177314	-0.519705	-0.519437
H222	H	0.677314	-0.019705	-0.019437
H223	H	0.597160	-1.078635	-0.469451
H224	H	1.097160	-0.578635	0.030549
H225	H	0.597117	-0.929908	-0.469414
H226	H	1.097117	-0.429908	0.030586
H227	H	0.597057	-0.677057	-0.469362
H228	H	1.097057	-0.177057	0.030638
H229	H	0.597096	-0.825789	-0.469390
H230	H	1.097096	-0.325789	0.030610
H231	H	0.262366	-0.236750	-0.237382
H232	H	0.762366	0.263250	0.262618
H233	H	-0.094164	-0.469482	-0.469373
H234	H	0.405836	0.030518	0.030627
H235	H	0.393072	-0.287024	-0.287432
H236	H	0.893072	0.212976	0.212568
H237	H	0.036555	-0.519712	-0.519463
H238	H	0.536555	-0.019712	-0.019463
H239	H	0.121608	-0.236788	-0.237398
H240	H	0.621608	0.263212	0.262602
H241	H	0.036503	-0.236796	-0.237414
H242	H	0.536503	0.263204	0.262586
