data_functionalizedCrystal
_audit_creation_method	'MofGen! by Chris Wilmer'
_symmetry_space_group_name_H-M	'P1'
_symmetry_Int_Tables_number	1
_symmetry_cell_setting	triclinic
loop_
_symmetry_equiv_pos_as_xyz
  x,y,z
_cell_length_a	12.645330
_cell_length_b	18.215407
_cell_length_c	18.215399
_cell_angle_alpha	90.019833
_cell_angle_beta	89.974835
_cell_angle_gamma	89.986906
loop_
_atom_site_label
_atom_site_type_symbol
_atom_site_fract_x
_atom_site_fract_y
_atom_site_fract_z
Zn1	Zn	-0.422038	-1.125135	-0.416130
Zn2	Zn	-0.599320	-1.125069	-0.293070
Zn3	Zn	-0.422072	-1.002067	-0.293077
Zn4	Zn	-0.599261	-1.002059	-0.416095
O5	O	-0.510673	-1.063583	-0.354593
O6	O	-0.445565	-1.228110	-0.399818
O7	O	-0.575847	-1.108729	-0.190087
O8	O	-0.273720	-1.018423	-0.309419
O9	O	-0.575813	-1.228062	-0.309406
O10	O	-0.273695	-1.108840	-0.399825
O11	O	-0.445624	-1.018360	-0.190092
O12	O	-0.445566	-0.899082	-0.309384
O13	O	-0.575713	-1.018410	-0.519084
O14	O	-0.575746	-0.899076	-0.399765
O15	O	-0.445507	-1.108832	-0.519110
O16	O	-0.747659	-1.108721	-0.309371
O17	O	-0.747616	-1.018346	-0.399757
C18	C	-0.510654	-0.872376	-0.354572
C19	C	-0.510672	-0.790577	-0.354580
C20	C	-0.786102	-1.063546	-0.354576
C21	C	-0.903932	-1.063597	-0.354593
C22	C	-0.510599	-1.063627	-0.546546
C23	C	-0.510568	-1.063646	-0.628345
C24	C	-1.071479	-1.120361	-0.297616
C25	C	-0.948919	-1.120546	-0.297755
C26	C	-0.948318	-1.084628	-0.432167
C27	C	-1.070916	-1.085079	-0.431865
C28	C	-1.071260	-0.985781	-0.334760
C29	C	-0.948655	-0.986153	-0.333020
C30	C	-0.234167	-1.063640	-0.354627
C31	C	-0.116337	-1.063664	-0.354641
C32	C	-0.510692	-1.255535	-0.354615
C33	C	-0.510700	-1.337334	-0.354624
C34	C	-0.578563	-0.602400	-0.401582
C35	C	-0.578567	-0.525541	-0.401591
C36	C	-0.442801	-0.525517	-0.307620
C37	C	-0.442793	-0.602375	-0.307615
C38	C	-0.510680	-0.640814	-0.354595
C39	C	-0.510692	-0.487098	-0.354609
C40	C	-0.510695	-0.403764	-0.354619
C41	C	-0.510676	-0.724153	-0.354587
C42	C	-0.442707	-1.110747	-0.816554
C43	C	-0.442676	-1.110755	-0.893413
C44	C	-0.578266	-1.016598	-0.893374
C45	C	-0.578290	-1.016586	-0.816517
C46	C	-0.510513	-1.063665	-0.778109
C47	C	-0.510457	-1.063685	-0.931825
C48	C	-0.510424	-1.063695	-1.015158
C49	C	-0.510544	-1.063655	-0.694770
C50	C	-0.510669	-1.063580	-0.163387
C51	C	-0.510401	-1.063704	-0.081588
H52	H	-1.101030	-1.107367	-0.239927
H53	H	-0.633450	-0.978271	-0.924656
N54	N	-0.373401	-1.158839	-0.932683
N55	N	-0.275584	-1.153974	-0.924110
H56	H	-0.226653	-1.187934	-0.951845
N57	N	-0.647555	-0.968481	-0.777252
N58	N	-0.708069	-0.926453	-0.811552
H59	H	-0.756983	-0.892477	-0.783822
N60	N	-0.912255	-0.966264	-0.261408
N61	N	-0.815337	-0.960874	-0.249068
H62	H	-0.789621	-0.946831	-0.198491
N63	N	-0.911286	-1.104035	-0.225595
N64	N	-0.975568	-1.092295	-0.174778
H65	H	-0.948996	-1.080637	-0.123811
H66	H	-1.102210	-1.177737	-0.310618
H67	H	-0.387531	-0.494211	-0.269369
H68	H	-0.633839	-0.633695	-0.439838
N69	N	-1.110126	-0.961793	-0.265023
N70	N	-1.046879	-0.948181	-0.214091
H71	H	-1.074327	-0.931247	-0.164836
H72	H	-0.387508	-0.633652	-0.269352
N73	N	-0.373469	-1.158838	-0.777331
N74	N	-0.312932	-1.200870	-0.811671
H75	H	-0.264028	-1.234836	-0.783972
N76	N	-0.912027	-1.192915	-0.314238
N77	N	-0.936322	-1.245391	-0.273378
H78	H	-0.910271	-1.296507	-0.285019
N79	N	-1.106676	-1.156497	-0.452992
N80	N	-1.041090	-1.205661	-0.467855
H81	H	-1.066340	-1.256103	-0.482776
N82	N	-0.647927	-0.486315	-0.449586
N83	N	-0.745736	-0.494890	-0.444584
H84	H	-0.794726	-0.467189	-0.478483
N85	N	-1.108128	-1.035518	-0.486981
N86	N	-1.043551	-1.000711	-0.525551
H87	H	-1.069827	-0.965711	-0.564478
N88	N	-0.911758	-1.034396	-0.486892
N89	N	-0.852439	-0.982412	-0.469287
H90	H	-0.826617	-0.946933	-0.507935
H91	H	-0.917530	-1.140914	-0.449288
H92	H	-0.918043	-0.941631	-0.371509
H93	H	-1.100270	-0.943537	-0.376294
