data_functionalizedCrystal
_audit_creation_method	'MofGen! by Chris Wilmer'
_symmetry_space_group_name_H-M	'P1'
_symmetry_Int_Tables_number	1
_symmetry_cell_setting	triclinic
loop_
_symmetry_equiv_pos_as_xyz
  x,y,z
_cell_length_a	18.627263
_cell_length_b	18.627226
_cell_length_c	18.627244
_cell_angle_alpha	120.004495
_cell_angle_beta	89.999255
_cell_angle_gamma	60.000314
loop_
_atom_site_label
_atom_site_type_symbol
_atom_site_fract_x
_atom_site_fract_y
_atom_site_fract_z
O1	O	-0.492468	-0.633258	-0.021364
O2	O	-0.388076	-0.486245	0.021251
O3	O	-0.388069	-0.633257	-0.125765
O4	O	-0.492475	-0.486246	0.125651
O5	O	-0.507475	-0.513847	-0.125752
O6	O	-0.507482	-0.366836	0.021264
O7	O	-0.611875	-0.513848	-0.021351
Zn8	Zn	-0.578637	-0.421383	-0.000042
Zn9	Zn	-0.421314	-0.578710	-0.000059
O10	O	-0.611882	-0.366837	0.125664
C11	C	-0.386971	-0.226054	0.030933
C12	C	-0.431268	-0.137459	0.024830
C13	C	-0.430377	-0.269044	0.031546
C14	C	-0.256973	-0.356050	0.030940
C15	C	-0.162276	-0.406447	0.024844
C16	C	-0.300577	-0.398843	0.031553
C17	C	-0.386975	-0.356047	0.030945
C18	C	-0.431277	-0.406441	0.024854
C19	C	-0.300572	-0.269047	0.031541
C20	C	-0.742970	-0.644057	-0.031059
C21	C	-0.837669	-0.593657	-0.024957
C22	C	-0.699371	-0.601256	-0.031662
C23	C	-0.612965	-0.774066	-0.031073
C24	C	-0.568662	-0.862673	-0.024986
C25	C	-0.569563	-0.731068	-0.031676
C26	C	-0.612970	-0.644056	-0.031060
C27	C	-0.568672	-0.593655	-0.024958
C28	C	-0.699365	-0.731069	-0.031676
C29	C	-0.256963	-0.774061	-0.387081
C30	C	-0.162262	-0.862667	-0.431393
C31	C	-0.300566	-0.731065	-0.300678
C32	C	-0.386970	-0.644051	-0.387065
C33	C	-0.431273	-0.593650	-0.431359
C34	C	-0.430375	-0.601252	-0.300661
C35	C	-0.386968	-0.644053	-0.257065
C36	C	-0.431270	-0.593653	-0.162362
C37	C	-0.300567	-0.731063	-0.430480
O38	O	0.125731	-0.513858	-0.021361
O39	O	-0.125671	-0.366851	0.021240
O40	O	0.021341	-0.513880	-0.125770
O41	O	-0.021281	-0.366828	0.125648
O42	O	0.021336	-0.633275	-0.125759
O43	O	-0.125676	-0.486245	0.021250
O44	O	0.125726	-0.633253	-0.021351
Zn45	Zn	0.000024	-0.578705	-0.000048
Zn46	Zn	0.000030	-0.421398	-0.000063
O47	O	-0.021286	-0.486223	0.125659
O48	O	-0.611860	0.104323	-0.021389
O49	O	-0.507470	-0.104457	0.021231
O50	O	-0.507455	-0.104492	-0.125787
O51	O	-0.611876	0.104358	0.125629
O52	O	-0.388051	-0.104494	-0.125791
O53	O	-0.388067	-0.104459	0.021226
O54	O	-0.492457	0.104321	-0.021393
Zn55	Zn	-0.421304	-0.000070	-0.000084
Zn56	Zn	-0.578623	-0.000067	-0.000078
O57	O	-0.492472	0.104356	0.125624
O58	O	-0.492486	-0.486235	-0.611944
O59	O	-0.388073	-0.633252	-0.507567
O60	O	-0.388083	-0.486238	-0.507548
O61	O	-0.492476	-0.633249	-0.611963
O62	O	-0.507488	-0.366830	-0.388131
O63	O	-0.507478	-0.513844	-0.388149
O64	O	-0.611891	-0.366828	-0.492526
Zn65	Zn	-0.578642	-0.421378	-0.421378
Zn66	Zn	-0.421321	-0.578702	-0.578716
O67	O	-0.611881	-0.513842	-0.492545
O68	O	0.125747	-1.104485	-0.492618
O69	O	-0.125660	-0.895672	-0.388197
O70	O	0.021339	-0.895670	-0.388196
O71	O	-0.021251	-1.104487	-0.492618
O72	O	0.021340	-0.895672	-0.507599
O73	O	-0.125658	-0.895673	-0.507600
O74	O	0.125749	-1.104486	-0.612021
Zn75	Zn	0.000046	-1.000080	-0.578768
Zn76	Zn	0.000043	-1.000078	-0.421450
O77	O	-0.021249	-1.104488	-0.612021
C78	C	-0.742994	-0.226026	0.386978
C79	C	-0.837695	-0.137420	0.431287
C80	C	-0.699393	-0.269021	0.430380
C81	C	-0.612986	-0.356037	0.256965
C82	C	-0.568682	-0.406439	0.162262
C83	C	-0.569582	-0.398835	0.300564
C84	C	-0.612990	-0.356033	0.386968
C85	C	-0.568690	-0.406431	0.431265
C86	C	-0.699389	-0.269025	0.300575
C87	C	0.031025	-0.774107	-0.387070
C88	C	0.024925	-0.862709	-0.431365
C89	C	0.031634	-0.731122	-0.430482
C90	C	0.031031	-0.644093	-0.257070
C91	C	0.024936	-0.593683	-0.162368
C92	C	0.031639	-0.601306	-0.300679
C93	C	0.031030	-0.644114	-0.387081
C94	C	0.024934	-0.593727	-0.431389
C95	C	0.031635	-0.731101	-0.300668
C96	C	-0.030976	-0.355989	0.386970
C97	C	-0.024881	-0.406376	0.431278
C98	C	-0.031579	-0.268981	0.430371
C99	C	-0.030976	-0.356010	0.256959
C100	C	-0.024882	-0.406420	0.162257
C101	C	-0.031580	-0.269003	0.300556
C102	C	-0.030970	-0.225997	0.386959
C103	C	-0.024870	-0.137395	0.431254
C104	C	-0.031585	-0.398797	0.300568
C105	C	-0.256926	-0.356149	-0.387104
C106	C	-0.162225	-0.406554	-0.431408
C107	C	-0.300524	-0.398954	-0.430509
C108	C	-0.386939	-0.226123	-0.257095
C109	C	-0.431248	-0.137504	-0.162393
C110	C	-0.430339	-0.269125	-0.300698
C111	C	-0.386927	-0.356148	-0.387101
C112	C	-0.431224	-0.406553	-0.431402
C113	C	-0.300536	-0.269126	-0.300701
O114	O	-0.021305	-0.366921	-0.492593
O115	O	0.021319	-0.513911	-0.388185
O116	O	-0.125694	-0.366935	-0.388194
O117	O	0.125708	-0.513897	-0.492584
O118	O	-0.125660	-0.486374	-0.507610
O119	O	0.021353	-0.633350	-0.507601
O120	O	-0.021271	-0.486360	-0.612009
Zn121	Zn	0.000046	-0.578818	-0.578765
Zn122	Zn	0.000002	-0.421453	-0.421429
O123	O	0.125742	-0.633336	-0.612000
C124	C	-0.613002	0.356012	0.386939
C125	C	-0.568706	0.406418	0.431240
C126	C	-0.699405	0.398817	0.430347
C127	C	-0.612989	0.225986	0.256933
C128	C	-0.568679	0.137367	0.162230
C129	C	-0.699392	0.268989	0.300537
C130	C	-0.743002	0.356011	0.386941
C131	C	-0.837704	0.406416	0.431244
C132	C	-0.569589	0.268989	0.300536
H133	H	-0.265571	-0.233059	0.032522
O134	O	0.032954	-0.774120	-0.515223
C135	C	0.109081	-0.803195	-0.568666
H136	H	0.161324	-0.813850	-0.535425
H137	H	0.135299	-0.877596	-0.635157
H138	H	0.092180	-0.741652	-0.578633
O139	O	-0.258727	-0.773921	-0.258896
C140	C	-0.182944	-0.774385	-0.254526
H141	H	-0.190887	-0.712810	-0.260178
H142	H	-0.173620	-0.759101	-0.189082
H143	H	-0.123045	-0.851615	-0.310781
H144	H	0.032607	-0.767077	-0.265658
O145	O	-0.515099	-0.517793	-0.258853
C146	C	-0.568576	-0.540458	-0.234518
H147	H	-0.526473	-0.607142	-0.229844
H148	H	-0.621441	-0.471350	-0.167980
H149	H	-0.601058	-0.561208	-0.286050
O150	O	-0.032624	-0.226249	0.258663
C151	C	0.042725	-0.297209	0.182898
H152	H	0.068667	-0.377361	0.161088
H153	H	0.024898	-0.288398	0.127919
H154	H	0.095539	-0.283248	0.198419
H155	H	-0.265553	-0.767044	-0.501470
H156	H	-0.498591	-0.468852	0.265548
H157	H	-0.734397	-0.233036	0.265575
H158	H	-0.498574	-0.767053	-0.032652
O159	O	-0.741163	-0.225914	0.515128
C160	C	-0.765466	-0.125441	0.568546
H161	H	-0.770176	-0.096227	0.526403
H162	H	-0.831977	-0.075104	0.621461
H163	H	-0.713899	-0.123746	0.600970
O164	O	0.032970	-0.517891	-0.258947
C165	C	0.109090	-0.540577	-0.234573
H166	H	0.161325	-0.626072	-0.278456
H167	H	0.135326	-0.500337	-0.242507
H168	H	0.092174	-0.513668	-0.163049
H169	H	-0.032562	-0.232987	0.501365
O170	O	-0.741230	0.482491	0.514975
C171	C	-0.745591	0.562610	0.519744
H172	H	-0.739874	0.548919	0.452478
H173	H	-0.811055	0.637392	0.569856
H174	H	-0.689372	0.566307	0.540753
O175	O	-0.032600	-0.482427	0.258714
C176	C	0.042713	-0.562567	0.182910
H177	H	0.096341	-0.548965	0.190854
H178	H	0.067333	-0.637354	0.173551
H179	H	0.025368	-0.566187	0.123028
H180	H	-0.501336	-0.233123	-0.265690
H181	H	-0.265504	-0.468988	-0.501498
H182	H	-0.265529	-0.233141	-0.265697
O183	O	-0.741065	0.225913	0.258810
C184	C	-0.693993	0.125418	0.234445
H185	H	-0.652383	0.117082	0.278326
H186	H	-0.742163	0.107114	0.242390
H187	H	-0.649372	0.070796	0.162919
O188	O	-0.741179	-0.517807	-0.032936
C189	C	-0.765521	-0.540499	-0.109077
H190	H	-0.770194	-0.607184	-0.133637
H191	H	-0.832058	-0.471401	-0.092836
H192	H	-0.713996	-0.561262	-0.162327
O193	O	-0.484845	0.225977	0.258857
C194	C	-0.431418	0.196938	0.305930
H195	H	-0.464676	0.186322	0.347545
H196	H	-0.364935	0.122524	0.257757
H197	H	-0.421441	0.258483	0.350550
H198	H	-0.501370	-0.233050	0.032536
O199	O	-0.258844	-0.482250	0.032888
C200	C	-0.234472	-0.459547	0.109013
H201	H	-0.278354	-0.374051	0.161247
H202	H	-0.242404	-0.499782	0.135256
H203	H	-0.162952	-0.486450	0.092094
H204	H	-0.734376	-0.767047	-0.032650
