data_functionalizedCrystal
_audit_creation_method	'MofGen! by Chris Wilmer'
_symmetry_space_group_name_H-M	'P1'
_symmetry_Int_Tables_number	1
_symmetry_cell_setting	triclinic
loop_
_symmetry_equiv_pos_as_xyz
  x,y,z
_cell_length_a	16.625548
_cell_length_b	18.050590
_cell_length_c	16.625539
_cell_angle_alpha	89.970044
_cell_angle_beta	89.979432
_cell_angle_gamma	90.019620
loop_
_atom_site_label
_atom_site_type_symbol
_atom_site_fract_x
_atom_site_fract_y
_atom_site_fract_z
Zn1	Zn	1.232702	-0.295637	-0.455900
Zn2	Zn	1.566036	0.037696	-0.122567
Zn3	Zn	1.899369	0.371030	0.210767
Zn4	Zn	1.232615	-0.419835	-0.321063
Zn5	Zn	1.565948	-0.086501	0.012270
Zn6	Zn	1.899281	0.246832	0.345603
Zn7	Zn	1.097864	-0.295665	-0.321081
Zn8	Zn	1.431198	0.037668	0.012253
Zn9	Zn	1.764531	0.371001	0.345586
Zn10	Zn	1.097844	-0.419792	-0.455853
Zn11	Zn	1.431177	-0.086459	-0.122520
Zn12	Zn	1.764511	0.246875	0.210813
O13	O	1.165256	-0.357732	-0.388474
O14	O	1.498590	-0.024399	-0.055141
O15	O	1.831923	0.308935	0.278192
O16	O	1.345523	-0.312118	-0.438026
O17	O	1.678856	0.021215	-0.104693
O18	O	2.012190	0.354549	0.228641
O19	O	1.214712	-0.403393	-0.208233
O20	O	1.548045	-0.070060	0.125100
O21	O	1.881378	0.263274	0.458433
O22	O	1.115796	-0.191737	-0.338992
O23	O	1.449129	0.141596	-0.005658
O24	O	1.782463	0.474930	0.327675
O25	O	1.345459	-0.403365	-0.338962
O26	O	1.678792	-0.070032	-0.005629
O27	O	2.012125	0.263301	0.327704
O28	O	1.214861	-0.191716	-0.438043
O29	O	1.548194	0.141617	-0.104709
O30	O	1.881528	0.474951	0.228624
O31	O	1.115711	-0.312166	-0.208246
O32	O	1.449044	0.021167	0.125087
O33	O	1.782378	0.354500	0.458421
O34	O	0.985029	-0.312125	-0.338946
O35	O	1.318362	0.021208	-0.005613
O36	O	1.651696	0.354542	0.327721
O37	O	1.115761	-0.403293	-0.568692
O38	O	1.449095	-0.069959	-0.235359
O39	O	1.782428	0.263374	0.097975
O40	O	0.985014	-0.403320	-0.437963
O41	O	1.318347	-0.069987	-0.104630
O42	O	1.651681	0.263346	0.228704
O43	O	1.214841	-0.312077	-0.568726
O44	O	1.548175	0.021257	-0.235393
O45	O	1.881508	0.354590	0.097940
O46	O	1.214692	-0.523754	-0.338917
O47	O	1.548025	-0.190420	-0.005583
O48	O	1.881359	0.142913	0.327750
O49	O	1.115676	-0.523722	-0.437946
O50	O	1.449010	-0.190389	-0.104613
O51	O	1.782343	0.142944	0.228720
C52	C	0.955765	-0.357722	-0.388452
C53	C	1.289099	-0.024388	-0.055119
C54	C	1.622432	0.308945	0.278215
C55	C	0.866144	-0.357735	-0.388461
C56	C	1.199478	-0.024402	-0.055128
C57	C	1.532811	0.308932	0.278205
C58	C	0.537969	-0.357740	-0.388496
C59	C	0.871302	-0.024406	-0.055162
C60	C	1.204635	0.308927	0.278171
C61	C	0.629277	-0.357736	-0.388484
C62	C	0.962611	-0.024403	-0.055150
C63	C	1.295944	0.308930	0.278183
C64	C	0.702054	-0.357738	-0.388478
C65	C	1.035387	-0.024404	-0.055145
C66	C	1.368720	0.308929	0.278189
C67	C	0.793368	-0.357734	-0.388467
C68	C	1.126701	-0.024400	-0.055134
C69	C	1.460035	0.308933	0.278200
C70	C	1.165194	-0.550684	-0.388442
C71	C	1.498528	-0.217351	-0.055109
C72	C	1.831861	0.115982	0.278224
C73	C	1.165242	-0.633230	-0.388455
C74	C	1.498575	-0.299897	-0.055122
C75	C	1.831908	0.033437	0.278211
C76	C	1.219198	-0.832671	-0.334678
C77	C	1.552532	-0.499337	-0.001345
C78	C	1.885865	-0.166004	0.331988
C79	C	1.238896	-0.882001	-0.408268
C80	C	1.572229	-0.548668	-0.074935
C81	C	1.905562	-0.215335	0.258398
C82	C	1.165287	-0.784360	-0.388488
C83	C	1.498621	-0.451027	-0.055154
C84	C	1.831954	-0.117694	0.278179
C85	C	1.145672	-0.882112	-0.314931
C86	C	1.479006	-0.548778	0.018403
C87	C	1.812339	-0.215445	0.351736
C88	C	1.165333	-0.930345	-0.388512
C89	C	1.498666	-0.597012	-0.055179
C90	C	1.832000	-0.263679	0.278154
C91	C	1.185022	-0.832604	-0.462116
C92	C	1.518356	-0.499270	-0.128783
C93	C	1.851689	-0.165937	0.204551
C94	C	1.091765	-0.832710	-0.368729
C95	C	1.425098	-0.499376	-0.035396
C96	C	1.758431	-0.166043	0.297938
C97	C	1.111434	-0.882018	-0.442370
C98	C	1.444767	-0.548684	-0.109036
C99	C	1.778101	-0.215351	0.224297
C100	C	1.165263	-0.700262	-0.388472
C101	C	1.498596	-0.366929	-0.055139
C102	C	1.831930	-0.033595	0.278194
C103	C	1.165357	-1.014442	-0.388536
C104	C	1.498691	-0.681109	-0.055202
C105	C	1.832024	-0.347775	0.278131
C106	C	1.375565	-0.357743	-0.388497
C107	C	1.708899	-0.024410	-0.055164
C108	C	2.042232	0.308923	0.278169
C109	C	1.465186	-0.357748	-0.388507
C110	C	1.798520	-0.024415	-0.055174
C111	C	2.131853	0.308919	0.278159
C112	C	1.165309	-0.357677	-0.598783
C113	C	1.498642	-0.024343	-0.265450
C114	C	1.831975	0.308990	0.067883
C115	C	1.165331	-0.357653	-0.688405
C116	C	1.498664	-0.024320	-0.355071
C117	C	1.831998	0.309013	-0.021738
C118	C	1.165341	-0.164027	-0.388524
C119	C	1.498674	0.169307	-0.055191
C120	C	1.832007	0.502640	0.278142
C121	C	1.165376	-0.081481	-0.388546
C122	C	1.498710	0.251853	-0.055212
C123	C	1.832043	0.585186	0.278121
C124	C	1.165368	-0.357570	-1.016580
C125	C	1.498702	-0.024237	-0.683247
C126	C	1.832035	0.309097	-0.349914
C127	C	1.165356	-0.357596	-0.925272
C128	C	1.498689	-0.024262	-0.591939
C129	C	1.832022	0.309071	-0.258605
C130	C	1.165350	-0.357612	-0.852495
C131	C	1.498683	-0.024279	-0.519162
C132	C	1.832017	0.309054	-0.185829
C133	C	1.165337	-0.357637	-0.761181
C134	C	1.498670	-0.024303	-0.427848
C135	C	1.832003	0.309030	-0.094514
C136	C	1.165250	-0.357734	-0.178984
C137	C	1.498584	-0.024400	0.154350
C138	C	1.831917	0.308933	0.487683
C139	C	1.165384	-0.357548	-0.089363
C140	C	1.498718	-0.024215	0.243970
C141	C	1.832051	0.309119	0.577304
H142	H	1.301092	-0.903655	-0.424996
H143	H	1.634425	-0.570322	-0.091663
H144	H	1.967758	-0.236988	0.241671
C145	C	1.049871	-0.911113	-0.503920
C146	C	1.383205	-0.577780	-0.170587
C147	C	1.716538	-0.244447	0.162747
H148	H	1.010475	-0.940124	-0.477019
H149	H	1.343808	-0.606791	-0.143686
H150	H	1.677142	-0.273458	0.189648
H151	H	1.076637	-0.940707	-0.542839
H152	H	1.409970	-0.607374	-0.209506
H153	H	1.743303	-0.274041	0.123828
H154	H	1.024513	-0.870453	-0.529866
H155	H	1.357846	-0.537120	-0.196533
H156	H	1.691179	-0.203787	0.136801
C157	C	1.280800	-0.803387	-0.273271
C158	C	1.614134	-0.470053	0.060062
C159	C	1.947467	-0.136720	0.393395
H160	H	1.253903	-0.774467	-0.233839
H161	H	1.587237	-0.441134	0.099495
H162	H	1.920570	-0.107801	0.432828
H163	H	1.319576	-0.773664	-0.300145
H164	H	1.652910	-0.440331	0.033188
H165	H	1.986243	-0.106998	0.366522
H166	H	1.306918	-0.843967	-0.247938
H167	H	1.640251	-0.510633	0.085396
H168	H	1.973584	-0.177300	0.418729
C169	C	1.123273	-0.911552	-0.230901
C170	C	1.456606	-0.578219	0.102433
C171	C	1.789939	-0.244885	0.435766
H172	H	1.075718	-0.940556	-0.234514
H173	H	1.409051	-0.607223	0.098820
H174	H	1.742385	-0.273889	0.432153
H175	H	1.114347	-0.871054	-0.195546
H176	H	1.447680	-0.537720	0.137787
H177	H	1.781014	-0.204387	0.471121
H178	H	1.165953	-0.941241	-0.210811
H179	H	1.499286	-0.607908	0.122523
H180	H	1.832619	-0.274574	0.455856
H181	H	1.201570	-0.810950	-0.524386
H182	H	1.534903	-0.477616	-0.191053
H183	H	1.868237	-0.144283	0.142281
H184	H	1.029587	-0.811040	-0.351980
H185	H	1.362920	-0.477707	-0.018646
H186	H	1.696253	-0.144373	0.314687
