data_functionalizedCrystal
_audit_creation_method	'MofGen! by Chris Wilmer'
_symmetry_space_group_name_H-M	'P1'
_symmetry_Int_Tables_number	1
_symmetry_cell_setting	triclinic
loop_
_symmetry_equiv_pos_as_xyz
  x,y,z
_cell_length_a	12.759401
_cell_length_b	19.805405
_cell_length_c	12.759393
_cell_angle_alpha	89.962372
_cell_angle_beta	89.981504
_cell_angle_gamma	90.026572
loop_
_atom_site_label
_atom_site_type_symbol
_atom_site_fract_x
_atom_site_fract_y
_atom_site_fract_z
Zn1	Zn	1.606170	-0.269420	-0.593937
Zn2	Zn	2.106170	0.230580	-0.093937
Zn3	Zn	1.606028	-0.382625	-0.418239
Zn4	Zn	2.106028	0.117375	0.081761
Zn5	Zn	1.430472	-0.269456	-0.418276
Zn6	Zn	1.930472	0.230544	0.081724
Zn7	Zn	1.430425	-0.382573	-0.593880
Zn8	Zn	1.930425	0.117427	-0.093880
O9	O	1.518274	-0.326019	-0.506083
O10	O	2.018274	0.173981	-0.006083
O11	O	1.753172	-0.284444	-0.570638
O12	O	2.253172	0.215556	-0.070638
O13	O	1.582701	-0.367650	-0.271222
O14	O	2.082701	0.132350	0.228778
O15	O	1.453858	-0.174735	-0.441618
O16	O	1.953858	0.325265	0.058382
O17	O	1.753068	-0.367615	-0.441553
O18	O	2.253068	0.132385	0.058447
O19	O	1.582942	-0.174708	-0.570675
O20	O	2.082942	0.325292	-0.070675
O21	O	1.453720	-0.284505	-0.271250
O22	O	1.953720	0.215495	0.228750
O23	O	1.283445	-0.284454	-0.441563
O24	O	1.783445	0.215546	0.058437
O25	O	1.453777	-0.367527	-0.740909
O26	O	1.953777	0.132473	-0.240909
O27	O	1.283410	-0.367561	-0.570578
O28	O	1.783410	0.132439	-0.070578
O29	O	1.582896	-0.284394	-0.740951
O30	O	2.082896	0.215606	-0.240951
O31	O	1.582655	-0.477335	-0.441498
O32	O	2.082655	0.022665	0.058502
O33	O	1.453640	-0.477297	-0.570541
O34	O	1.953640	0.022703	-0.070541
C35	C	1.245306	-0.326006	-0.506069
C36	C	1.745306	0.173994	-0.006069
C37	C	1.128530	-0.326017	-0.506088
C38	C	1.628530	0.173983	-0.006088
C39	C	1.073677	-0.369360	-0.573155
C40	C	1.573677	0.130640	-0.073155
C41	C	0.963953	-0.369369	-0.573166
C42	C	1.463953	0.130631	-0.073166
C43	C	0.963944	-0.282689	-0.439034
C44	C	1.463944	0.217311	0.060966
C45	C	1.073666	-0.282678	-0.439029
C46	C	1.573666	0.217322	0.060971
C47	C	1.073681	-0.419406	-0.650592
C48	C	1.573681	0.080594	-0.150592
C49	C	0.963957	-0.419414	-0.650603
C50	C	1.463957	0.080586	-0.150603
C51	C	1.518155	-0.501875	-0.506032
C52	C	2.018155	-0.001875	-0.006032
C53	C	1.518201	-0.577107	-0.506046
C54	C	2.018201	-0.077107	-0.006046
C55	C	1.585444	-0.612448	-0.438923
C56	C	2.085444	-0.112448	0.061077
C57	C	1.585489	-0.683137	-0.438946
C58	C	2.085489	-0.183137	0.061054
C59	C	1.518284	-0.718482	-0.506088
C60	C	2.018284	-0.218482	-0.006088
C61	C	1.451038	-0.683136	-0.573217
C62	C	1.951038	-0.183136	-0.073217
C63	C	1.450999	-0.612449	-0.573199
C64	C	1.950999	-0.112449	-0.073199
C65	C	1.451193	-0.968209	-0.573295
C66	C	1.951193	-0.468209	-0.073295
C67	C	1.451234	-1.038901	-0.573306
C68	C	1.951234	-0.538901	-0.073306
C69	C	1.585683	-1.038897	-0.439043
C70	C	2.085683	-0.538897	0.060957
C71	C	1.585644	-0.968210	-0.439024
C72	C	2.085644	-0.468210	0.060976
C73	C	1.518402	-0.932870	-0.506157
C74	C	2.018402	-0.432870	-0.006157
C75	C	1.518356	-0.856221	-0.506133
C76	C	2.018356	-0.356221	-0.006133
C77	C	1.518324	-0.795129	-0.506108
C78	C	2.018324	-0.295129	-0.006108
C79	C	1.792307	-0.326032	-0.506098
C80	C	2.292307	0.173968	-0.006098
C81	C	1.909084	-0.326037	-0.506104
C82	C	2.409084	0.173963	-0.006104
C83	C	1.518347	-0.325950	-0.780117
C84	C	2.018347	0.174050	-0.280117
C85	C	1.518379	-0.325921	-0.896893
C86	C	2.018379	0.174079	-0.396893
C87	C	1.518421	-0.149476	-0.506157
C88	C	2.018421	0.350524	-0.006157
C89	C	1.518484	-0.074244	-0.506189
C90	C	2.018484	0.425756	-0.006189
C91	C	1.585620	-0.282630	-0.951779
C92	C	2.085620	0.217370	-0.451779
C93	C	1.585645	-0.282605	-1.061503
C94	C	2.085645	0.217395	-0.561503
C95	C	1.451184	-0.369170	-1.061446
C96	C	1.951184	0.130830	-0.561446
C97	C	1.451154	-0.369190	-0.951724
C98	C	1.951154	0.130810	-0.451724
C99	C	1.663254	-0.232655	-0.951812
C100	C	2.163254	0.267345	-0.451812
C101	C	1.663279	-0.232630	-1.061537
C102	C	2.163279	0.267370	-0.561537
C103	C	1.518261	-0.326038	-0.233116
C104	C	2.018261	0.173962	0.266884
C105	C	1.518433	-0.325876	-0.116340
C106	C	2.018433	0.174124	0.383660
H107	H	0.919260	-0.247404	-0.384438
H108	H	1.419260	0.252596	0.115562
H109	H	1.396440	-0.939440	-0.627955
H110	H	1.896440	-0.439440	-0.127955
H111	H	1.396323	-0.711920	-0.627889
H112	H	1.896323	-0.211920	-0.127889
O113	O	1.658140	-0.930091	-0.366613
O114	O	2.158140	-0.430091	0.133387
H115	H	1.646812	-0.875000	-0.377874
H116	H	2.146812	-0.375000	0.122126
H117	H	1.640245	-0.711909	-0.384288
H118	H	2.140245	-0.211909	0.115712
O119	O	1.113188	-0.400880	-0.758416
O120	O	1.613188	0.099120	-0.258416
H121	H	1.045512	-0.391813	-0.811208
H122	H	1.545512	0.108187	-0.311208
O123	O	0.924456	-0.488830	-0.621532
O124	O	1.424456	0.011170	-0.121532
H125	H	0.876101	-0.485393	-0.549406
H126	H	1.376101	0.014607	-0.049406
H127	H	1.396244	-0.583674	-0.627858
H128	H	1.896244	-0.083674	-0.127858
O129	O	1.378577	-0.415847	-0.892521
O130	O	1.878577	0.084153	-0.392521
H131	H	1.331829	-0.445923	-0.949084
H132	H	1.831829	0.054077	-0.449084
H133	H	1.396450	-0.404396	-1.106103
H134	H	1.896450	0.095604	-0.606103
H135	H	0.929966	-0.400703	-0.727958
H136	H	1.429966	0.099297	-0.227958
H137	H	1.396509	-1.067677	-0.627989
H138	H	1.896509	-0.567677	-0.127989
O139	O	1.132819	-0.235932	-0.366678
O140	O	1.632819	0.264068	0.133322
H141	H	1.111785	-0.182826	-0.384841
H142	H	1.611785	0.317174	0.115159
H143	H	1.641502	-0.180237	-0.922065
H144	H	2.141502	0.319763	-0.422065
H145	H	1.740520	-0.251446	-0.917773
H146	H	2.240520	0.248554	-0.417773
O147	O	1.118732	-0.485328	-0.611798
O148	O	1.618732	0.014672	-0.111798
H149	H	1.053883	-0.520288	-0.591240
H150	H	1.553883	-0.020288	-0.091240
O151	O	1.624759	-0.166657	-1.106664
O152	O	2.124759	0.333343	-0.606664
H153	H	1.604321	-0.131697	-1.041856
H154	H	2.104321	0.368303	-0.541856
H155	H	1.744645	-0.246670	-1.091313
H156	H	2.244645	0.253330	-0.591313
H157	H	1.640166	-0.583675	-0.384245
H158	H	2.140166	-0.083675	0.115755
H159	H	1.640438	-1.067680	-0.384384
H160	H	2.140438	-0.567680	0.115616
