data_functionalizedCrystal
_audit_creation_method	'MofGen! by Chris Wilmer'
_symmetry_space_group_name_H-M	'P1'
_symmetry_Int_Tables_number	1
_symmetry_cell_setting	triclinic
loop_
_symmetry_equiv_pos_as_xyz
  x,y,z
_cell_length_a	15.995300
_cell_length_b	15.072220
_cell_length_c	10.654546
_cell_angle_alpha	89.989894
_cell_angle_beta	96.022334
_cell_angle_gamma	90.014083
loop_
_atom_site_label
_atom_site_type_symbol
_atom_site_fract_x
_atom_site_fract_y
_atom_site_fract_z
O1	O	1.111959	0.073833	-0.161564
O2	O	0.868294	0.073830	-0.181619
O3	O	0.995730	0.073805	0.011223
O4	O	0.984523	0.073858	-0.354406
O5	O	0.995699	-0.073760	0.011212
O6	O	0.868263	-0.073735	-0.181630
O7	O	1.111927	-0.073732	-0.161574
Zn8	Zn	0.990090	-0.097163	-0.171604
Zn9	Zn	0.990132	0.097261	-0.171590
O10	O	0.984491	-0.073707	-0.354416
C11	C	0.837078	0.000047	-0.180806
C12	C	0.744111	0.000044	-0.178354
N13	N	0.990068	-0.229851	-0.171613
C14	C	0.573902	0.000050	-0.173825
C15	C	0.527233	0.000068	-0.311133
C16	C	0.430530	0.000405	-0.308628
C17	C	0.406320	0.000055	-0.169368
C18	C	0.447075	0.084146	-0.101239
C19	C	0.543729	0.084215	-0.104713
C20	C	0.543960	-0.083600	-0.102693
C21	C	0.447016	-0.084703	-0.102705
C22	C	0.311610	0.000061	-0.166842
C23	C	0.668612	0.000051	-0.176348
C24	C	0.990130	-0.589053	-0.171585
C25	C	0.921708	-0.551433	-0.274425
C26	C	0.921869	-0.448607	-0.274800
C27	C	0.990098	-0.410849	-0.171599
C28	C	1.077631	-0.448134	-0.200194
C29	C	1.077248	-0.550992	-0.200925
C30	C	0.971796	-0.551173	-0.039844
C31	C	0.969797	-0.448309	-0.040723
C32	C	0.990086	-0.310136	-0.171604
C33	C	0.990148	-0.689766	-0.171582
C34	C	1.143143	0.000053	-0.162387
C35	C	1.236110	0.000062	-0.164839
C36	C	0.994892	0.000018	0.058005
C37	C	0.992432	0.000003	0.197415
N38	N	0.990161	0.229950	-0.171571
C39	C	1.067464	-0.000008	0.277902
C40	C	1.065147	-0.000018	0.408892
C41	C	0.912760	-0.000010	0.378896
C42	C	0.915077	0.000007	0.247909
C43	C	1.155444	-0.000016	0.295220
C44	C	1.153127	-0.000027	0.426211
C45	C	0.985331	0.000050	0.598802
C46	C	0.987798	-0.000024	0.459393
H47	H	0.402364	-0.059860	-0.362161
H48	H	0.564709	-0.147358	-0.147903
O49	O	0.834147	0.000032	0.161102
H50	H	0.848751	0.000052	0.061534
H51	H	0.849780	-0.000006	0.420025
O52	O	0.585293	-0.084706	0.031395
H53	H	0.567766	-0.023727	0.080827
H54	H	0.431088	-0.090045	-0.001175
H55	H	0.909312	-0.577169	-0.012341
O56	O	1.201031	0.081788	0.256924
H57	H	1.221504	0.121830	0.342056
O58	O	1.146773	-0.583963	-0.105497
H59	H	1.136158	-0.559310	-0.010298
O60	O	1.031441	-0.414270	0.065400
H61	H	1.015305	-0.441966	0.156340
H62	H	0.856460	-0.576198	-0.257671
O63	O	1.192548	-0.084396	0.248500
H64	H	1.210348	-0.129145	0.329663
H65	H	0.562346	0.147327	-0.153805
H66	H	0.856829	-0.423400	-0.257766
H67	H	0.933337	-0.577257	-0.371637
H68	H	0.547169	0.060295	-0.365486
O69	O	0.585704	0.088953	0.028841
H70	H	0.625860	0.029501	0.048702
O71	O	1.146731	-0.415734	-0.103623
H72	H	1.178208	-0.473475	-0.054262
H73	H	1.179730	0.063683	0.472213
O74	O	1.098494	-0.582751	-0.328185
H75	H	1.108939	-0.524644	-0.388628
H76	H	0.933655	-0.423979	-0.372563
H77	H	1.094034	-0.422351	-0.295176
O78	O	0.411183	-0.167117	-0.168610
H79	H	0.364577	-0.147803	-0.248505
O80	O	0.552136	-0.079785	-0.384253
H81	H	0.598046	-0.120339	-0.323520
H82	H	1.186264	-0.061786	0.468408
O83	O	0.884494	-0.416046	-0.011980
H84	H	0.884418	-0.342441	-0.008700
O85	O	0.394088	0.080707	-0.379320
H86	H	0.421336	0.141825	-0.333522
O87	O	0.427614	0.087973	0.034301
H88	H	0.388590	0.029843	0.054591
O89	O	1.037866	-0.583403	0.061541
H90	H	1.083546	-0.626193	0.018393
H91	H	0.418974	0.146976	-0.147938
