data_functionalizedCrystal
_audit_creation_method	'MofGen! by Chris Wilmer'
_symmetry_space_group_name_H-M	'P1'
_symmetry_Int_Tables_number	1
_symmetry_cell_setting	triclinic
loop_
_symmetry_equiv_pos_as_xyz
  x,y,z
_cell_length_a	21.295419
_cell_length_b	21.295417
_cell_length_c	11.169409
_cell_angle_alpha	89.959648
_cell_angle_beta	89.976836
_cell_angle_gamma	90.044503
loop_
_atom_site_label
_atom_site_type_symbol
_atom_site_fract_x
_atom_site_fract_y
_atom_site_fract_z
Zn1	Zn	0.962351	-0.250310	-0.678583
Zn2	Zn	1.462351	0.249690	-0.178583
Zn3	Zn	0.962257	-0.355598	-0.477872
Zn4	Zn	1.462257	0.144402	0.022128
Zn5	Zn	0.857076	-0.250374	-0.477906
Zn6	Zn	1.357076	0.249626	0.022094
Zn7	Zn	0.857045	-0.355572	-0.678505
Zn8	Zn	1.357045	0.144428	-0.178505
O9	O	0.909682	-0.302963	-0.578216
O10	O	1.409682	0.197037	-0.078216
O11	O	1.050428	-0.264260	-0.651977
O12	O	1.550428	0.235740	-0.151977
O13	O	0.948279	-0.341677	-0.309927
O14	O	1.448279	0.158323	0.190073
O15	O	0.871094	-0.162276	-0.504573
O16	O	1.371094	0.337724	-0.004573
O17	O	1.050359	-0.341615	-0.504515
O18	O	1.550359	0.158385	-0.004515
O19	O	0.948438	-0.162229	-0.652010
O20	O	1.448438	0.337771	-0.152010
O21	O	0.871003	-0.264369	-0.309951
O22	O	1.371003	0.235631	0.190049
O23	O	0.768983	-0.264344	-0.504497
O24	O	1.268983	0.235656	-0.004497
O25	O	0.871040	-0.341571	-0.846465
O26	O	1.371040	0.158429	-0.346465
O27	O	0.768959	-0.341633	-0.651877
O28	O	1.268959	0.158367	-0.151877
O29	O	0.948407	-0.264235	-0.846523
O30	O	1.448407	0.235765	-0.346523
O31	O	0.948248	-0.443684	-0.504440
O32	O	1.448248	0.056316	-0.004440
O33	O	0.870949	-0.443665	-0.651844
O34	O	1.370949	0.056335	-0.151844
C35	C	0.746131	-0.302993	-0.578183
C36	C	1.246131	0.197007	-0.078183
C37	C	0.676162	-0.303022	-0.578197
C38	C	1.176162	0.196978	-0.078197
C39	C	0.643354	-0.262809	-0.655099
C40	C	1.143354	0.237191	-0.155099
C41	C	0.577612	-0.262792	-0.655103
C42	C	1.077612	0.237208	-0.155103
C43	C	0.544680	-0.302999	-0.578219
C44	C	1.044680	0.197001	-0.078219
C45	C	0.577496	-0.343215	-0.501302
C46	C	1.077496	0.156785	-0.001302
C47	C	0.643237	-0.343226	-0.501291
C48	C	1.143237	0.156774	-0.001291
N49	N	0.441405	-0.358078	-0.568841
N50	N	0.941405	0.141922	-0.068841
N51	N	0.378954	-0.358065	-0.568858
N52	N	0.878954	0.141935	-0.068858
C53	C	0.346605	-0.302966	-0.578245
C54	C	0.846605	0.197034	-0.078245
N55	N	0.379067	-0.247879	-0.587638
N56	N	0.879067	0.252121	-0.087638
N57	N	0.441524	-0.247892	-0.587627
N58	N	0.941524	0.252108	-0.087627
C59	C	0.473395	-0.302991	-0.578222
C60	C	0.973395	0.197009	-0.078222
C61	C	0.242511	-0.262732	-0.655156
C62	C	0.742511	0.237268	-0.155156
C63	C	0.176768	-0.262714	-0.655153
C64	C	0.676768	0.237286	-0.155153
C65	C	0.176654	-0.343142	-0.501357
C66	C	0.676654	0.156858	-0.001357
C67	C	0.242396	-0.343155	-0.501355
C68	C	0.742396	0.156845	-0.001355
C69	C	0.275321	-0.302950	-0.578261
C70	C	0.775321	0.197050	-0.078261
C71	C	0.909602	-0.466515	-0.578156
C72	C	1.409602	0.033485	-0.078156
C73	C	0.909625	-0.536483	-0.578170
C74	C	1.409625	-0.036483	-0.078170
C75	C	0.949875	-0.569268	-0.654995
C76	C	1.449875	-0.069268	-0.154995
C77	C	0.949898	-0.635011	-0.655025
C78	C	1.449898	-0.135011	-0.155025
C79	C	0.909676	-0.667965	-0.578208
C80	C	1.409676	-0.167965	-0.078208
C81	C	0.869418	-0.635173	-0.501377
C82	C	1.369418	-0.135173	-0.001377
C83	C	0.869393	-0.569431	-0.501358
C84	C	1.369393	-0.069431	-0.001358
N85	N	0.904918	-0.771238	-0.473172
N86	N	1.404918	-0.271238	0.026828
N87	N	0.904946	-0.833689	-0.473193
N88	N	1.404946	-0.333689	0.026807
C89	C	0.909750	-0.866040	-0.578262
C90	C	1.409750	-0.366040	-0.078262
N91	N	0.914537	-0.833580	-0.683311
N92	N	1.414537	-0.333580	-0.183311
N93	N	0.914512	-0.771123	-0.683288
N94	N	1.414512	-0.271123	-0.183288
C95	C	0.909699	-0.739251	-0.578220
C96	C	1.409699	-0.239251	-0.078220
C97	C	0.950026	-0.970111	-0.655126
C98	C	1.450026	-0.470111	-0.155126
C99	C	0.950044	-1.035854	-0.655157
C100	C	1.450044	-0.535854	-0.155157
C101	C	0.869568	-1.036015	-0.501499
C102	C	1.369568	-0.536015	-0.001499
C103	C	0.869547	-0.970273	-0.501478
C104	C	1.369547	-0.470273	-0.001478
C105	C	0.909779	-0.937324	-0.578290
C106	C	1.409779	-0.437324	-0.078290
C107	C	1.073872	-0.302933	-0.578251
C108	C	1.573872	0.197067	-0.078251
C109	C	1.143841	-0.302921	-0.578266
C110	C	1.643841	0.197079	-0.078266
C111	C	0.909730	-0.302893	-0.891259
C112	C	1.409730	0.197107	-0.391259
C113	C	0.909751	-0.302864	-1.024659
C114	C	1.409751	0.197136	-0.524659
C115	C	0.909780	-0.138773	-0.578304
C116	C	1.409780	0.361227	-0.078304
C117	C	0.909821	-0.068805	-0.578341
C118	C	1.409821	0.431195	-0.078341
C119	C	0.909670	-0.302987	-0.266392
C120	C	1.409670	0.197013	0.233608
C121	C	0.909772	-0.302840	-0.132992
C122	C	1.409772	0.197160	0.367008
H123	H	0.150056	-0.229964	-0.717773
H124	H	0.650056	0.270036	-0.217773
O125	O	0.144575	-0.382181	-0.426785
O126	O	0.644575	0.117819	0.073215
C127	C	0.043246	-0.417783	-0.358591
C128	C	0.543246	0.082217	0.141409
C129	C	0.079500	-0.373550	-0.443129
C130	C	0.579500	0.126450	0.056871
H131	H	-0.009373	-0.410810	-0.371757
H132	H	0.490627	0.089190	0.128243
H133	H	0.056082	-0.468569	-0.379494
H134	H	0.556082	0.031431	0.120506
H135	H	0.056196	-0.406682	-0.261865
H136	H	0.556196	0.093318	0.238135
H137	H	0.066570	-0.384594	-0.539884
H138	H	0.566570	0.115406	-0.039884
H139	H	0.066661	-0.322776	-0.422123
H140	H	0.566661	0.177224	0.077877
O141	O	0.274338	-0.382256	-0.426829
O142	O	0.774338	0.117744	0.073171
C143	C	0.348445	-0.467276	-0.410386
C144	C	0.848445	0.032724	0.089614
C145	C	0.312322	-0.423023	-0.494927
C146	C	0.812322	0.076977	0.005073
H147	H	0.379154	-0.500256	-0.465410
H148	H	0.879154	-0.000256	0.034590
H149	H	0.379279	-0.438380	-0.347743
H150	H	0.879279	0.061620	0.152257
H151	H	0.313605	-0.495982	-0.355408
H152	H	0.813605	0.004018	0.144592
H153	H	0.347117	-0.394307	-0.549982
H154	H	0.847117	0.105693	-0.049982
H155	H	0.281479	-0.451955	-0.557490
H156	H	0.781479	0.048045	-0.057490
H157	H	0.670157	-0.230071	-0.717721
H158	H	1.170157	0.269929	-0.217721
H159	H	0.982634	-0.542443	-0.717543
H160	H	1.482634	-0.042443	-0.217543
O161	O	0.830314	-0.537483	-0.426834
O162	O	1.330314	-0.037483	0.073166
C163	C	0.794642	-0.436276	-0.358652
C164	C	1.294642	0.063724	0.141348
C165	C	0.838918	-0.472380	-0.443133
C166	C	1.338918	0.027620	0.056867
H167	H	0.801592	-0.383634	-0.371782
H168	H	1.301592	0.116366	0.128218
H169	H	0.743868	-0.449201	-0.379646
H170	H	1.243868	0.050799	0.120354
H171	H	0.805719	-0.449272	-0.261913
H172	H	1.305719	0.050728	0.238087
H173	H	0.827898	-0.459403	-0.539900
H174	H	1.327898	0.040597	-0.039900
H175	H	0.889679	-0.459452	-0.422036
H176	H	1.389679	0.040548	0.077964
O177	O	0.989116	-1.067633	-0.729955
O178	O	1.489116	-0.567633	-0.229955
C179	C	1.019618	-1.087645	-0.934163
C180	C	1.519618	-0.587645	-0.434163
C181	C	0.975337	-1.051606	-0.849591
C182	C	1.475337	-0.551606	-0.349591
H183	H	1.008484	-1.074710	-1.030908
H184	H	1.508484	-0.574710	-0.530908
H185	H	1.070385	-1.074657	-0.913255
H186	H	1.570385	-0.574657	-0.413255
H187	H	1.012737	-1.140289	-0.920929
H188	H	1.512737	-0.640289	-0.420929
H189	H	0.982161	-0.998953	-0.862778
H190	H	1.482161	-0.498953	-0.362778
H191	H	0.924585	-1.064646	-0.870520
H192	H	1.424585	-0.564646	-0.370520
H193	H	0.669950	-0.375973	-0.438666
H194	H	1.169950	0.124027	0.061334
H195	H	0.982669	-0.661709	-0.717599
H196	H	1.482669	-0.161709	-0.217599
H197	H	0.982784	-0.943283	-0.717674
H198	H	1.482784	-0.443283	-0.217674
O199	O	0.830317	-0.667251	-0.426922
O200	O	1.330317	-0.167251	0.073078
C201	C	0.745337	-0.741553	-0.410654
C202	C	1.245337	-0.241553	0.089346
C203	C	0.789594	-0.705276	-0.495105
C204	C	1.289594	-0.205276	0.004895
H205	H	0.712392	-0.772296	-0.465746
H206	H	1.212392	-0.272296	0.034254
H207	H	0.774231	-0.772367	-0.347973
H208	H	1.274231	-0.272367	0.152027
H209	H	0.716592	-0.706813	-0.355712
H210	H	1.216592	-0.206813	0.144288
H211	H	0.818348	-0.739971	-0.550124
H212	H	1.318348	-0.239971	-0.050124
H213	H	0.760663	-0.674453	-0.557706
H214	H	1.260663	-0.174453	-0.057706
H215	H	0.836815	-1.062846	-0.438961
H216	H	1.336815	-0.562846	0.061039
O217	O	0.830433	-0.938519	-0.426724
O218	O	1.330433	-0.438519	0.073276
C219	C	0.750592	-0.945618	-0.274368
C220	C	1.250592	-0.445618	0.225632
C221	C	0.794869	-0.981657	-0.358947
C222	C	1.294869	-0.481657	0.141053
H223	H	0.721817	-0.980480	-0.219565
H224	H	1.221817	-0.480480	0.280435
H225	H	0.779469	-0.914853	-0.211575
H226	H	1.279469	-0.414853	0.288425
H227	H	0.717676	-0.914835	-0.329419
H228	H	1.217676	-0.414835	0.170581
H229	H	0.827793	-1.012474	-0.303992
H230	H	1.327793	-0.512474	0.196008
H231	H	0.765952	-1.012383	-0.421743
H232	H	1.265952	-0.512383	0.078257
H233	H	0.550894	-0.230043	-0.717724
H234	H	1.050894	0.269957	-0.217724
H235	H	0.269320	-0.229991	-0.717770
H236	H	0.769320	0.270009	-0.217770
H237	H	0.550679	-0.375951	-0.438701
H238	H	1.050679	0.124049	0.061299
