data_functionalizedCrystal
_audit_creation_method	'MofGen! by Chris Wilmer'
_symmetry_space_group_name_H-M	'P1'
_symmetry_Int_Tables_number	1
_symmetry_cell_setting	triclinic
loop_
_symmetry_equiv_pos_as_xyz
  x,y,z
_cell_length_a	19.188930
_cell_length_b	23.532407
_cell_length_c	17.666332
_cell_angle_alpha	89.988854
_cell_angle_beta	89.976766
_cell_angle_gamma	82.996728
loop_
_atom_site_label
_atom_site_type_symbol
_atom_site_fract_x
_atom_site_fract_y
_atom_site_fract_z
O1	O	0.925923	0.071102	-0.063199
O2	O	0.722581	0.080673	-0.063148
O3	O	0.830384	-0.007031	-0.063161
O4	O	0.818120	0.158806	-0.063186
O5	O	0.830365	-0.007036	0.062735
O6	O	0.722562	0.080669	0.062748
O7	O	0.925904	0.071097	0.062697
Cu8	Cu	0.824231	0.075883	0.074218
Cu9	Cu	0.824253	0.075888	-0.074669
O10	O	0.818101	0.158802	0.062711
C11	C	0.696561	0.080361	-0.000193
C12	C	0.619060	0.079431	-0.000173
C13	C	0.573972	0.130893	-0.000193
C14	C	0.501151	0.130019	-0.000201
C15	C	0.473421	0.077680	-0.000205
C16	C	0.518519	0.026211	-0.000181
C17	C	0.591339	0.027086	-0.000165
N18	N	0.365575	0.037674	-0.043078
N19	N	0.296399	0.036846	-0.043094
C20	C	0.254021	0.075038	-0.000251
N21	N	0.283431	0.114099	0.042600
N22	N	0.352613	0.114929	0.042614
C23	C	0.394462	0.076724	-0.000222
C24	C	0.129971	0.125556	-0.000278
C25	C	0.057149	0.124680	-0.000282
C26	C	0.074520	0.020870	-0.000269
C27	C	0.147340	0.021748	-0.000258
C28	C	0.175061	0.074092	-0.000266
C29	C	0.830062	-0.028250	-0.000211
C30	C	0.829123	-0.091469	-0.000205
C31	C	0.887029	-0.490449	-0.000261
C32	C	0.886157	-0.549851	-0.000267
O33	O	0.939837	-0.586482	-0.000308
N34	N	0.822068	-0.572613	-0.000250
C35	C	0.758848	-0.535970	-0.000236
O36	O	0.704255	-0.560786	-0.000223
C37	C	0.759721	-0.476569	-0.000235
C38	C	0.823814	-0.453810	-0.000244
C39	C	0.951117	-0.467690	-0.000271
C40	C	0.951989	-0.408292	-0.000264
C41	C	0.888773	-0.371653	-0.000247
C42	C	0.824685	-0.394412	-0.000237
C43	C	0.696501	-0.439927	-0.000226
C44	C	0.697379	-0.380523	-0.000227
C45	C	0.761472	-0.357764	-0.000236
C46	C	0.762342	-0.298376	-0.000214
N47	N	0.826430	-0.275614	-0.000230
C48	C	0.889646	-0.312252	-0.000247
C49	C	0.757019	-0.660717	-0.000237
C50	C	0.756146	-0.720116	-0.000232
C51	C	0.883455	-0.733993	-0.000264
C52	C	0.884328	-0.674592	-0.000264
C53	C	0.821108	-0.637954	-0.000254
C54	C	0.891472	-0.187512	-0.000232
C55	C	0.892339	-0.128108	-0.000222
C56	C	0.765029	-0.114236	-0.000193
C57	C	0.764163	-0.173634	-0.000199
C58	C	0.827390	-0.210272	-0.000221
O59	O	0.708690	-0.261710	-0.000176
O60	O	0.944230	-0.287428	-0.000270
C61	C	0.951923	0.071410	-0.000259
C62	C	1.029425	0.072340	-0.000284
C63	C	0.818423	0.180021	-0.000241
C64	C	0.819362	0.243240	-0.000252
N65	N	0.824221	0.075878	0.178938
N66	N	0.824270	0.075888	-0.179389
C67	C	0.871971	0.037062	0.218542
C68	C	0.871975	0.037059	0.297789
C69	C	0.824236	0.075883	0.337430
C70	C	0.776476	0.114702	0.297816
C71	C	0.776469	0.114700	0.218570
N72	N	0.814998	0.126298	0.461842
N73	N	0.815010	0.126298	0.537123
C74	C	0.824254	0.075891	0.576194
N75	N	0.833500	0.025481	0.537141
N76	N	0.833493	0.025482	0.461853
C77	C	0.824238	0.075889	0.423359
C78	C	0.872011	0.037068	0.701727
C79	C	0.872010	0.037064	0.780976
C80	C	0.776515	0.114713	0.781002
C81	C	0.776512	0.114711	0.701754
C82	C	0.824264	0.075889	0.662122
H83	H	0.495937	-0.016404	-0.000195
O84	O	1.021121	-0.383753	-0.000281
H85	H	1.011119	-0.336291	-0.000270
H86	H	0.051943	-0.021745	-0.000319
H87	H	0.910892	0.005452	0.813222
O88	O	0.961472	-0.103564	-0.000244
H89	H	0.991826	-0.118308	0.051055
O90	O	0.724987	0.156581	0.340565
H91	H	0.733020	0.150066	0.402324
H92	H	0.713561	-0.084394	-0.000177
O93	O	0.195973	-0.033760	-0.000243
H94	H	0.251267	-0.024359	-0.000225
H95	H	0.942958	-0.217335	-0.000252
O96	O	1.019305	-0.507204	-0.000278
H97	H	1.064008	-0.481388	-0.000277
H98	H	0.936518	-0.656067	-0.000272
H99	H	0.628050	-0.014822	-0.000150
H100	H	0.910852	0.005450	0.186275
O101	O	0.923486	-0.004803	0.340520
H102	H	0.956693	-0.031794	0.299647
O103	O	0.724970	0.156572	0.175847
H104	H	0.691775	0.183572	0.216721
O105	O	0.159880	0.182009	-0.000271
H106	H	0.116290	0.217649	-0.000272
O107	O	0.725023	0.156590	0.823744
H108	H	0.733052	0.150073	0.885503
H109	H	0.910892	0.005455	0.669457
H110	H	0.020438	0.166588	-0.000293
O111	O	0.725018	0.156584	0.659030
H112	H	0.691825	0.183585	0.699906
H113	H	0.645897	-0.350694	-0.000220
H114	H	0.703955	-0.738641	-0.000211
O115	O	0.603873	0.187347	-0.000180
H116	H	0.560282	0.222985	-0.000183
O117	O	0.452506	0.185525	-0.000230
H118	H	0.484016	0.222070	-0.000238
H119	H	0.711973	-0.192165	-0.000171
O120	O	0.951642	-0.773516	-0.000290
H121	H	0.940262	-0.818643	-0.000298
O122	O	0.688826	-0.621203	-0.000204
H123	H	0.658136	-0.629273	-0.051504
O124	O	0.627372	-0.464466	-0.000219
H125	H	0.583568	-0.429001	-0.000217
