data_functionalizedCrystal
_audit_creation_method	'MofGen! by Chris Wilmer'
_symmetry_space_group_name_H-M	'P1'
_symmetry_Int_Tables_number	1
_symmetry_cell_setting	triclinic
loop_
_symmetry_equiv_pos_as_xyz
  x,y,z
_cell_length_a	12.759401
_cell_length_b	18.101395
_cell_length_c	18.101390
_cell_angle_alpha	89.968664
_cell_angle_beta	89.983835
_cell_angle_gamma	90.031265
loop_
_atom_site_label
_atom_site_type_symbol
_atom_site_fract_x
_atom_site_fract_y
_atom_site_fract_z
Zn1	Zn	1.606111	-0.294798	-0.418679
Zn2	Zn	1.605963	-0.418655	-0.294841
Zn3	Zn	1.430421	-0.294832	-0.294858
Zn4	Zn	1.430352	-0.418603	-0.418647
O5	O	1.518212	-0.356722	-0.356756
O6	O	1.753113	-0.311236	-0.402257
O7	O	1.582643	-0.402266	-0.191210
O8	O	1.453817	-0.191195	-0.311304
O9	O	1.753003	-0.402233	-0.311274
O10	O	1.582897	-0.191170	-0.402274
O11	O	1.453673	-0.311294	-0.191223
O12	O	1.283390	-0.311243	-0.311273
O13	O	1.453700	-0.402144	-0.522285
O14	O	1.283340	-0.402177	-0.402221
O15	O	1.582830	-0.311185	-0.522307
O16	O	1.582576	-0.522281	-0.311243
O17	O	1.453556	-0.522243	-0.402204
C18	C	1.245244	-0.356709	-0.356746
C19	C	1.128468	-0.356721	-0.356759
C20	C	1.073607	-0.404145	-0.404037
C21	C	0.963883	-0.404155	-0.404045
C22	C	0.963890	-0.309312	-0.309491
C23	C	1.073612	-0.309300	-0.309487
C24	C	1.073602	-0.458904	-0.458625
C25	C	0.963878	-0.458914	-0.458634
C26	C	1.518071	-0.549133	-0.356734
C27	C	1.518107	-0.631447	-0.356750
C28	C	1.518338	-0.930538	-0.356790
C29	C	1.437350	-0.899219	-0.414162
C30	C	1.436965	-0.813601	-0.413982
C31	C	1.518223	-0.782155	-0.356771
C32	C	1.488247	-0.813312	-0.278722
C33	C	1.487725	-0.898957	-0.279066
C34	C	1.629479	-0.898880	-0.376779
C35	C	1.628825	-0.813229	-0.378491
C36	C	1.518160	-0.698296	-0.356755
C37	C	1.518398	-1.014397	-0.356800
C38	C	1.792245	-0.356736	-0.356767
C39	C	1.909021	-0.356742	-0.356771
C40	C	1.518274	-0.356655	-0.549918
C41	C	1.518301	-0.356626	-0.632232
C42	C	1.518381	-0.163560	-0.356794
C43	C	1.518454	-0.081246	-0.356811
C44	C	1.518357	-0.356580	-0.931323
C45	C	1.599870	-0.299552	-0.900013
C46	C	1.599616	-0.299341	-0.814394
C47	C	1.518330	-0.356602	-0.782941
C48	C	1.407650	-0.335399	-0.814018
C49	C	1.408138	-0.334972	-0.899664
C50	C	1.546550	-0.434957	-0.899737
C51	C	1.548979	-0.434557	-0.814087
C52	C	1.518308	-0.356617	-0.699081
C53	C	1.518372	-0.356564	-1.015183
C54	C	1.518210	-0.356736	-0.164346
C55	C	1.518387	-0.356556	-0.082032
H56	H	0.929885	-0.438443	-0.513158
H57	H	1.118276	-0.270677	-0.270994
Cl58	Cl	1.669022	-0.464733	-0.933088
Cl59	Cl	0.917833	-0.547434	-0.434737
Cl60	Cl	1.311169	-0.396297	-0.931644
H61	H	1.455918	-0.919763	-0.472221
Cl62	Cl	1.119636	-0.435294	-0.547217
H63	H	1.692358	-0.791819	-0.339750
H64	H	1.689818	-0.919132	-0.334993
H65	H	1.406481	-0.919002	-0.262132
Cl66	Cl	1.674737	-0.459242	-0.782732
H67	H	1.384238	-0.277679	-0.919654
H68	H	1.455719	-0.792533	-0.471854
H69	H	1.681687	-0.312619	-0.793383
Cl70	Cl	1.454886	-0.500558	-0.930995
H71	H	1.355470	-0.920807	-0.401088
Cl72	Cl	1.309774	-0.782065	-0.393543
H73	H	0.919213	-0.270703	-0.271005
H74	H	1.107595	-0.513357	-0.437981
Cl75	Cl	1.574833	-0.930952	-0.210813
Cl76	Cl	1.576451	-0.781869	-0.210922
Cl77	Cl	1.364138	-0.780304	-0.252108
H78	H	1.651430	-0.792861	-0.435930
Cl79	Cl	1.671674	-0.932140	-0.463151
Cl80	Cl	1.727001	-0.319792	-0.931819
H81	H	1.581445	-0.241813	-0.921550
Cl82	Cl	1.570802	-0.209695	-0.782779
Cl83	Cl	1.311335	-0.397556	-0.782571
Cl84	Cl	1.463975	-0.503685	-0.781035
Cl85	Cl	1.370079	-0.247922	-0.780928
