data_functionalizedCrystal
_audit_creation_method	'MofGen! by Chris Wilmer'
_symmetry_space_group_name_H-M	'P1'
_symmetry_Int_Tables_number	1
_symmetry_cell_setting	triclinic
loop_
_symmetry_equiv_pos_as_xyz
  x,y,z
_cell_length_a	10.654550
_cell_length_b	10.489741
_cell_length_c	9.730223
_cell_angle_alpha	89.995878
_cell_angle_beta	89.999957
_cell_angle_gamma	84.512052
loop_
_atom_site_label
_atom_site_type_symbol
_atom_site_fract_x
_atom_site_fract_y
_atom_site_fract_z
O1	O	1.667923	0.179162	-0.114186
O2	O	1.302452	0.196231	-0.114212
O3	O	1.493504	0.002095	-0.114190
O4	O	1.476872	0.373298	-0.114208
O5	O	1.493491	0.002089	0.114390
O6	O	1.302440	0.196226	0.114368
O7	O	1.667911	0.179157	0.114393
Zn8	Zn	1.485173	0.187690	0.150673
Zn9	Zn	1.485190	0.187697	-0.150491
O10	O	1.476859	0.373293	0.114372
C11	C	1.255648	0.194975	0.000075
C12	C	1.116203	0.191225	0.000066
C13	C	1.036771	0.305530	0.000064
C14	C	0.905748	0.301999	0.000088
C15	C	0.933603	0.069849	0.000110
C16	C	1.064623	0.073381	0.000095
C17	C	1.492241	-0.045439	0.000099
C18	C	1.488483	-0.187067	0.000096
C19	C	1.366923	-0.255148	0.000078
C20	C	1.424341	-0.347301	0.112783
C21	C	1.424382	-0.347270	-0.112579
C22	C	1.545951	-0.277354	0.112895
C23	C	1.545975	-0.277314	-0.112568
C24	C	1.603481	-0.369439	0.000165
C25	C	1.714715	0.180413	0.000104
C26	C	1.854160	0.184162	0.000104
C27	C	1.478122	0.420827	0.000080
C28	C	1.481880	0.562454	0.000074
N29	N	1.485171	0.187685	0.356209
N30	N	1.485201	0.187693	-0.356027
C31	C	1.569798	0.101758	0.428145
C32	C	1.569811	0.101758	0.572028
C33	C	1.400566	0.273624	0.572027
C34	C	1.400548	0.273616	0.428147
H35	H	1.129300	-0.019705	0.000100
O36	O	1.363026	-0.383984	-0.226358
C37	C	1.322480	-0.275145	-0.305453
H38	H	1.383187	-0.194414	-0.280436
H39	H	1.219716	-0.243182	-0.280560
C40	C	1.260442	-0.407642	-0.490000
C41	C	1.335010	-0.308490	-0.459282
H42	H	1.268164	-0.428210	-0.584889
H43	H	1.287753	-0.480969	-0.436711
H44	H	1.174812	-0.380993	-0.469245
H45	H	1.420640	-0.335145	-0.480021
H46	H	1.307713	-0.235167	-0.512579
H47	H	1.266977	-0.205449	0.000184
O48	O	1.087085	0.419889	-0.000017
C49	C	1.219760	0.398503	0.000001
H50	H	1.249622	0.299230	-0.043268
H51	H	1.256293	0.405009	0.109657
C52	C	1.238323	0.622381	-0.036513
C53	C	1.275000	0.500457	-0.089668
H54	H	1.272400	0.685274	-0.091819
H55	H	1.148938	0.636791	-0.036520
H56	H	1.268770	0.627784	0.054866
H57	H	1.244540	0.495050	-0.181038
H58	H	1.364382	0.486048	-0.089678
O59	O	0.883556	-0.044651	0.000366
C60	C	0.924077	-0.114420	0.118732
H61	H	0.951947	-0.045537	0.201472
H62	H	1.008813	-0.184741	0.091964
C63	C	0.781996	-0.273293	0.070794
C64	C	0.816217	-0.188688	0.172422
H65	H	0.715466	-0.319110	0.103911
H66	H	0.754699	-0.226292	-0.008954
H67	H	0.852619	-0.331882	0.048497
H68	H	0.745599	-0.130091	0.194705
H69	H	0.843499	-0.235681	0.252176
O70	O	1.607332	-0.240840	0.226743
C71	C	1.646704	-0.349671	0.306377
H72	H	1.654186	-0.438415	0.238147
H73	H	1.575103	-0.360998	0.391515
C74	C	1.767141	-0.224378	0.454324
C75	C	1.776340	-0.333373	0.370521
H76	H	1.847103	-0.214323	0.493897
H77	H	1.740612	-0.151055	0.400677
H78	H	1.707468	-0.233830	0.525262
H79	H	1.836000	-0.323912	0.299576
H80	H	1.802882	-0.406694	0.424158
O81	O	1.722809	-0.428493	-0.000027
C82	C	1.741300	-0.504763	-0.118952
H83	H	1.671487	-0.467372	-0.201701
H84	H	1.725741	-0.608087	-0.093121
C85	C	1.962569	-0.544936	-0.070338
C86	C	1.876830	-0.499005	-0.171976
H87	H	2.046171	-0.541390	-0.103044
H88	H	1.950111	-0.493555	0.009787
H89	H	1.949587	-0.631035	-0.048821
H90	H	1.889803	-0.412902	-0.193479
H91	H	1.889293	-0.550371	-0.252107
O92	O	1.651899	0.018339	0.642118
C93	C	1.633793	0.036784	0.784537
H94	H	1.534375	0.083511	0.804198
H95	H	1.705452	0.101440	0.825352
C96	C	1.773619	-0.150917	0.834270
C97	C	1.651509	-0.093536	0.858418
H98	H	1.784552	-0.231303	0.879846
H99	H	1.785822	-0.163343	0.738320
H100	H	1.833321	-0.097025	0.868282
H101	H	1.591810	-0.147421	0.824391
H102	H	1.639296	-0.081123	0.954365
O103	O	1.318216	0.356918	0.358196
C104	C	1.240140	0.287864	0.274964
H105	H	1.237116	0.187249	0.318346
H106	H	1.279378	0.281537	0.165919
C107	C	1.109645	0.480469	0.219468
C108	C	1.105924	0.356896	0.272756
H109	H	1.026856	0.523053	0.218099
H110	H	1.162249	0.526994	0.275538
H111	H	1.142350	0.475180	0.128601
H112	H	1.073235	0.362187	0.363627
H113	H	1.053311	0.310373	0.216701
H114	H	0.841079	0.395078	0.000090
H115	H	1.372900	-0.378290	0.208061
H116	H	1.597372	-0.246292	-0.207851
H117	H	1.638702	0.031785	0.369576
H118	H	1.331669	0.343590	0.630613
