data_functionalizedCrystal
_audit_creation_method	'MofGen! by Chris Wilmer'
_symmetry_space_group_name_H-M	'P1'
_symmetry_Int_Tables_number	1
_symmetry_cell_setting	triclinic
loop_
_symmetry_equiv_pos_as_xyz
  x,y,z
_cell_length_a	18.215407
_cell_length_b	10.685194
_cell_length_c	18.215399
_cell_angle_alpha	85.603424
_cell_angle_beta	89.980167
_cell_angle_gamma	94.377432
loop_
_atom_site_label
_atom_site_type_symbol
_atom_site_fract_x
_atom_site_fract_y
_atom_site_fract_z
Zn1	Zn	1.102699	-0.502407	-0.393658
Zn2	Zn	1.093210	-0.713450	-0.261159
Zn3	Zn	0.979630	-0.502448	-0.270604
Zn4	Zn	0.970203	-0.713379	-0.384187
O5	O	1.036436	-0.607921	-0.327402
O6	O	1.204424	-0.530414	-0.376093
O7	O	1.078117	-0.685507	-0.159425
O8	O	1.003872	-0.325846	-0.294844
O9	O	1.197452	-0.685467	-0.278746
O10	O	1.094291	-0.325815	-0.385252
O11	O	0.994671	-0.530485	-0.166365
O12	O	0.875396	-0.530417	-0.285660
O13	O	0.987805	-0.685347	-0.488430
O14	O	0.868470	-0.685387	-0.369109
O15	O	1.085150	-0.530346	-0.495388
O16	O	1.068976	-0.890038	-0.269562
O17	O	0.978604	-0.889986	-0.359950
C18	C	0.845230	-0.607900	-0.327382
C19	C	0.763430	-0.607921	-0.327389
C20	C	1.021757	-0.935802	-0.312719
C21	C	1.015545	-1.076070	-0.306462
C22	C	0.571644	-0.688740	-0.370776
C23	C	0.494785	-0.688744	-0.370785
C24	C	0.501978	-0.527125	-0.284043
C25	C	0.578836	-0.527115	-0.284038
C26	C	0.613667	-0.607930	-0.327404
C27	C	0.459950	-0.607944	-0.327417
C28	C	0.376616	-0.607947	-0.327427
C29	C	0.697006	-0.607925	-0.327395
C30	C	1.228387	-0.607944	-0.327423
C31	C	1.310186	-0.607953	-0.327431
C32	C	1.036484	-0.607834	-0.519359
C33	C	1.036505	-0.607797	-0.601159
C34	C	1.051191	-0.278760	-0.342158
C35	C	1.057480	-0.138492	-0.348447
C36	C	1.087213	-0.527013	-0.792982
C37	C	1.087223	-0.526976	-0.869842
C38	C	0.985858	-0.688386	-0.862584
C39	C	0.985845	-0.688416	-0.785725
C40	C	1.036526	-0.607731	-0.750926
C41	C	1.036550	-0.607665	-0.904645
C42	C	1.036561	-0.607625	-0.987981
C43	C	1.036515	-0.607768	-0.667585
C44	C	1.036433	-0.607917	-0.136196
C45	C	1.036571	-0.607598	-0.054412
H46	H	0.600000	-0.754542	-0.406089
O47	O	0.967077	-1.140193	-0.257770
C48	C	0.984618	-1.108161	-0.185848
H49	H	1.017106	-1.012392	-0.188570
H50	H	0.931711	-1.103891	-0.152988
H51	H	1.019220	-1.182294	-0.157828
O52	O	1.136505	-0.448808	-0.759135
C53	C	1.180802	-0.520665	-0.711447
H54	H	1.180905	-0.620049	-0.730151
H55	H	1.239480	-0.475015	-0.712633
H56	H	1.157842	-0.525035	-0.652999
O57	O	0.936635	-0.766713	-0.744759
C58	C	0.947503	-0.749454	-0.669459
H59	H	0.975968	-0.652068	-0.663339
H60	H	0.891991	-0.758019	-0.639853
H61	H	0.983336	-0.824318	-0.644297
H62	H	0.944597	-0.754079	-0.890927
O63	O	0.453939	-0.767066	-0.413002
C64	C	0.412701	-0.695329	-0.463809
H65	H	0.440312	-0.595944	-0.472898
H66	H	0.409806	-0.741097	-0.518351
H67	H	0.354638	-0.690938	-0.441262
H68	H	0.613053	-0.461302	-0.248719
O69	O	0.468023	-0.448746	-0.241937
C70	C	0.391176	-0.466057	-0.251254
H71	H	0.376328	-0.563504	-0.270899
H72	H	0.362332	-0.457375	-0.196529
H73	H	0.372729	-0.391294	-0.293867
H74	H	1.098135	-1.084625	-0.389181
H75	H	1.128496	-0.461245	-0.904081
