data_functionalizedCrystal
_audit_creation_method	'MofGen! by Chris Wilmer'
_symmetry_space_group_name_H-M	'P1'
_symmetry_Int_Tables_number	1
_symmetry_cell_setting	triclinic
loop_
_symmetry_equiv_pos_as_xyz
  x,y,z
_cell_length_a	27.732064
_cell_length_b	27.732025
_cell_length_c	12.996460
_cell_angle_alpha	90.008388
_cell_angle_beta	90.002042
_cell_angle_gamma	82.641446
loop_
_atom_site_label
_atom_site_type_symbol
_atom_site_fract_x
_atom_site_fract_y
_atom_site_fract_z
O1	O	0.640918	0.057557	-0.085352
O2	O	1.140918	0.557557	0.414648
O3	O	0.500125	0.066294	-0.085390
O4	O	1.000125	0.566294	0.414610
O5	O	0.574900	-0.008472	-0.085401
O6	O	1.074900	0.491528	0.414599
O7	O	0.566143	0.132323	-0.085341
O8	O	1.066143	0.632323	0.414659
O9	O	0.574892	-0.008476	0.085732
O10	O	1.074892	0.491524	0.585732
O11	O	0.500117	0.066290	0.085744
O12	O	1.000117	0.566290	0.585744
O13	O	0.640910	0.057553	0.085781
O14	O	1.140910	0.557553	0.585781
Cu15	Cu	0.570513	0.061921	0.101388
Cu16	Cu	1.070513	0.561921	0.601388
Cu17	Cu	0.570522	0.061926	-0.100997
Cu18	Cu	1.070522	0.561926	0.399003
O19	O	0.566135	0.132318	0.085793
O20	O	1.066135	0.632318	0.585793
C21	C	0.482114	0.066107	0.000171
C22	C	0.982114	0.566107	0.500171
C23	C	0.428460	0.065551	0.000155
C24	C	0.928460	0.565551	0.500155
C25	C	0.051391	0.017584	0.000193
C26	C	0.551391	0.517584	0.500193
C27	C	0.253051	0.019630	0.000167
C28	C	0.753051	0.519630	0.500167
O29	O	0.284307	-0.017592	0.000190
O30	O	0.784307	0.482408	0.500190
N31	N	0.272175	0.063965	0.000182
N32	N	0.772175	0.563965	0.500182
C33	C	0.240880	0.107791	0.000209
C34	C	0.740880	0.607791	0.500209
O35	O	0.261774	0.145547	0.000232
O36	O	0.761774	0.645547	0.500232
C37	C	0.039221	0.105744	0.000243
C38	C	0.539221	0.605744	0.500243
C39	C	0.020100	0.061407	0.000218
C40	C	0.520100	0.561407	0.500218
C41	C	0.032270	-0.026751	0.000170
C42	C	0.532270	0.473249	0.500170
C43	C	-0.018143	-0.027262	0.000170
C44	C	0.481857	0.472738	0.500170
C45	C	-0.049433	0.016561	0.000195
C46	C	0.450567	0.516561	0.500195
C47	C	-0.030312	0.060895	0.000219
C48	C	0.469688	0.560895	0.500219
C49	C	0.007928	0.149570	0.000278
C50	C	0.507928	0.649570	0.500278
C51	C	-0.042490	0.149054	0.000288
C52	C	0.457510	0.649054	0.500288
C53	C	-0.061611	0.104717	0.000264
C54	C	0.438389	0.604717	0.500264
C55	C	-0.112014	0.104207	0.000244
C56	C	0.387986	0.604207	0.500244
N57	N	-0.131138	0.059873	0.000230
N58	N	0.368862	0.559873	0.500230
C59	C	-0.099848	0.016050	0.000205
C60	C	0.400152	0.516050	0.500205
C61	C	0.346755	0.108862	0.000190
C62	C	0.846755	0.608862	0.500190
C63	C	0.397169	0.109374	0.000180
C64	C	0.897169	0.609374	0.500180
C65	C	0.409337	0.021213	0.000140
C66	C	0.909337	0.521213	0.500140
C67	C	0.358921	0.020702	0.000142
C68	C	0.858921	0.520702	0.500142
C69	C	0.327631	0.064528	0.000175
C70	C	0.827631	0.564528	0.500175
C71	C	-0.205717	0.014980	0.000206
C72	C	0.294283	0.514980	0.500206
C73	C	-0.256134	0.014472	0.000203
C74	C	0.243866	0.514472	0.500203
C75	C	-0.268297	0.102633	0.000248
C76	C	0.231703	0.602633	0.500248
C77	C	-0.217884	0.103141	0.000246
C78	C	0.282116	0.603141	0.500246
C79	C	-0.186595	0.059310	0.000229
C80	C	0.313405	0.559310	0.500229
O81	O	-0.143298	0.141409	0.000233
O82	O	0.356702	0.641409	0.500233
O83	O	-0.120750	-0.021701	0.000206
O84	O	0.379250	0.478299	0.500206
C85	C	0.101803	0.018095	0.000192
C86	C	0.601803	0.518095	0.500192
C87	C	0.120924	0.062429	0.000216
C88	C	0.620924	0.562429	0.500216
C89	C	0.089634	0.106252	0.000241
C90	C	0.589634	0.606252	0.500241
C91	C	0.171339	0.062941	0.000206
C92	C	0.671339	0.562941	0.500206
C93	C	0.202630	0.019118	0.000181
C94	C	0.702630	0.519118	0.500181
C95	C	0.183506	-0.025217	0.000167
C96	C	0.683506	0.474783	0.500167
C97	C	0.133094	-0.025728	0.000168
C98	C	0.633094	0.474272	0.500168
C99	C	0.108758	0.150586	0.000255
C100	C	0.608758	0.650586	0.500255
C101	C	0.159170	0.151094	0.000253
C102	C	0.659170	0.651094	0.500253
C103	C	0.190461	0.107271	0.000228
C104	C	0.690461	0.607271	0.500228
C105	C	0.574714	-0.026481	0.000155
C106	C	1.074714	0.473519	0.500155
C107	C	0.574165	-0.080137	0.000125
C108	C	1.074165	0.419863	0.500125
C109	C	0.570273	-0.463300	-0.093102
C110	C	1.070273	0.036700	0.406898
C111	C	0.572325	-0.261641	-0.093134
C112	C	1.072325	0.238359	0.406866
O113	O	0.572614	-0.235571	-0.172472
O114	O	1.072614	0.264429	0.327528
N115	N	0.572578	-0.236422	0.000148
N116	N	1.072578	0.263578	0.500148
C117	C	0.572320	-0.261621	0.093445
C118	C	1.072320	0.238379	0.593445
O119	O	0.572587	-0.235544	0.172787
O120	O	1.072587	0.264456	0.672787
C121	C	0.570271	-0.463280	0.093477
C122	C	1.070271	0.036720	0.593477
C123	C	0.570014	-0.488496	0.000188
C124	C	1.070014	0.011504	0.500188
C125	C	0.570016	-0.488516	-0.186382
C126	C	1.070016	0.011484	0.313618
C127	C	0.569500	-0.538928	-0.186373
C128	C	1.069500	-0.038928	0.313627
C129	C	0.569241	-0.564123	-0.093083
C130	C	1.069241	-0.064123	0.406917
C131	C	0.569498	-0.538907	0.000197
C132	C	1.069498	-0.038907	0.500197
C133	C	0.570017	-0.488479	0.186773
C134	C	1.070017	0.011521	0.686773
C135	C	0.569506	-0.538897	0.186772
C136	C	1.069506	-0.038897	0.686772
C137	C	0.569249	-0.564113	0.093484
C138	C	1.069249	-0.064113	0.593484
C139	C	0.568723	-0.614514	0.093496
C140	C	1.068723	-0.114514	0.593496
N141	N	0.568471	-0.639733	0.000214
N142	N	1.068471	-0.139733	0.500214
C143	C	0.568730	-0.614538	-0.093076
C144	C	1.068730	-0.114538	0.406924
C145	C	0.573395	-0.155747	0.093422
C146	C	1.073395	0.344253	0.593422
C147	C	0.573906	-0.105332	0.093415
C148	C	1.073906	0.394668	0.593415
C149	C	0.573912	-0.105356	-0.093165
C150	C	1.073912	0.394644	0.406835
C151	C	0.573398	-0.155771	-0.093157
C152	C	1.073398	0.344229	0.406843
C153	C	0.573143	-0.180966	0.000140
C154	C	1.073143	0.319034	0.500140
C155	C	0.567646	-0.720406	-0.093050
C156	C	1.067646	-0.220406	0.406950
C157	C	0.567129	-0.770821	-0.093032
C158	C	1.067129	-0.270821	0.406968
C159	C	0.567125	-0.770794	0.093547
C160	C	1.067125	-0.270794	0.593547
C161	C	0.567640	-0.720382	0.093530
C162	C	1.067640	-0.220382	0.593530
C163	C	0.567903	-0.695190	0.000224
C164	C	1.067903	-0.195190	0.500224
O165	O	0.568440	-0.640616	0.172793
O166	O	1.068440	-0.140616	0.672793
O167	O	0.568474	-0.640625	-0.172406
O168	O	1.068474	-0.140625	0.327594
C169	C	0.570789	-0.412889	-0.093111
C170	C	1.070789	0.087111	0.406889
C171	C	0.571045	-0.387673	0.000170
C172	C	1.071045	0.112327	0.500170
C173	C	0.570786	-0.412868	0.093460
C174	C	1.070786	0.087132	0.593460
C175	C	0.571557	-0.337258	0.000163
C176	C	1.071557	0.162742	0.500163
C177	C	0.571816	-0.312063	-0.093127
C178	C	1.071816	0.187937	0.406873
C179	C	0.571563	-0.337282	-0.186410
C180	C	1.071563	0.162718	0.313590
C181	C	0.571048	-0.387693	-0.186401
C182	C	1.071048	0.112307	0.313599
C183	C	0.571039	-0.387649	0.186742
C184	C	1.071039	0.112351	0.686742
C185	C	0.571554	-0.337238	0.186726
C186	C	1.071554	0.162762	0.686726
C187	C	0.571813	-0.312042	0.093436
C188	C	1.071813	0.187958	0.593436
C189	C	0.658921	0.057739	0.000218
C190	C	1.158921	0.557739	0.500218
C191	C	0.712575	0.058295	0.000227
C192	C	1.212575	0.558295	0.500227
C193	C	0.566321	0.150328	0.000234
C194	C	1.066321	0.650328	0.500234
C195	C	0.566870	0.203983	0.000258
C196	C	1.066870	0.703983	0.500258
N197	N	0.570510	0.061917	0.243736
N198	N	1.070510	0.561917	0.743736
N199	N	0.570529	0.061925	-0.243344
N200	N	1.070529	0.561925	0.256656
C201	C	0.570521	0.061926	0.663550
C202	C	1.070521	0.561926	1.163550
C203	C	0.570517	0.061925	0.546745
C204	C	1.070517	0.561925	1.046745
C205	C	0.570516	0.061922	0.453646
C206	C	1.070516	0.561922	0.953646
C207	C	0.570511	0.061920	0.336834
C208	C	1.070511	0.561920	0.836834
H209	H	0.023486	0.185674	0.000293
H210	H	0.523486	0.685674	0.500293
Cl211	Cl	0.069428	0.205684	0.000280
Cl212	Cl	0.569428	0.705684	0.500280
H213	H	0.571759	-0.316711	0.262698
H214	H	1.071759	0.183289	0.762698
Cl215	Cl	0.566804	-0.802518	-0.210318
Cl216	Cl	1.066804	-0.302518	0.289682
Cl217	Cl	0.334889	-0.035039	0.000117
Cl218	Cl	0.834889	0.464961	0.500117
H219	H	0.208992	-0.060899	0.000141
H220	H	0.708992	0.439101	0.500141
H221	H	0.174733	0.187202	0.000266
H222	H	0.674733	0.687202	0.500266
Cl223	Cl	0.570335	-0.456791	0.304058
Cl224	Cl	1.070335	0.043209	0.804058
H225	H	0.573187	-0.176298	-0.169120
H226	H	1.073187	0.323702	0.330880
Cl227	Cl	-0.081823	0.204154	0.000334
Cl228	Cl	0.418177	0.704154	0.500334
H229	H	0.566912	-0.791317	0.169501
H230	H	1.066912	-0.291317	0.669501
H231	H	0.569299	-0.559409	0.262748
H232	H	1.069299	-0.059409	0.762748
H233	H	0.321282	0.144553	0.000215
H234	H	0.821282	0.644553	0.500215
Cl235	Cl	0.109064	-0.081470	0.000132
Cl236	Cl	0.609064	0.418530	0.500132
Cl237	Cl	0.573071	-0.187413	0.210722
Cl238	Cl	1.073071	0.312587	0.710722
Cl239	Cl	0.571889	-0.305597	-0.303687
Cl240	Cl	1.071889	0.194403	0.196313
H241	H	0.057742	-0.062439	0.000153
H242	H	0.557742	0.437561	0.500153
Cl243	Cl	0.570711	-0.419316	0.304034
Cl244	Cl	1.070711	0.080684	0.804034
Cl245	Cl	-0.307643	0.157722	0.000274
Cl246	Cl	0.192357	0.657722	0.500274
Cl247	Cl	-0.280168	-0.041271	0.000165
Cl248	Cl	0.219832	0.458729	0.500165
H249	H	0.434822	-0.014469	0.000116
H250	H	0.934822	0.485531	0.500116
Cl251	Cl	0.567975	-0.688742	-0.210351
Cl252	Cl	1.067975	-0.188742	0.289649
H253	H	0.567831	-0.699848	0.169493
H254	H	1.067831	-0.199848	0.669493
Cl255	Cl	0.570341	-0.456851	-0.303678
Cl256	Cl	1.070341	0.043149	0.196322
H257	H	-0.202316	0.139244	0.000265
H258	H	0.297684	0.639244	0.500265
Cl259	Cl	-0.166390	-0.040123	0.000181
Cl260	Cl	0.333610	0.459877	0.500181
Cl261	Cl	0.421200	0.165115	0.000190
Cl262	Cl	0.921200	0.665115	0.500190
Cl263	Cl	-0.042172	-0.083003	0.000130
Cl264	Cl	0.457828	0.416997	0.500130
H265	H	0.574107	-0.084805	0.169379
H266	H	1.074107	0.415195	0.669379
H267	H	0.574120	-0.084832	-0.169126
H268	H	1.074120	0.415168	0.330874
Cl269	Cl	0.569183	-0.570621	-0.303657
Cl270	Cl	1.069183	-0.070621	0.196343
Cl271	Cl	0.570726	-0.419385	-0.303684
Cl272	Cl	1.070726	0.080615	0.196316
