data_functionalizedCrystal
_audit_creation_method	'MofGen! by Chris Wilmer'
_symmetry_space_group_name_H-M	'P1'
_symmetry_Int_Tables_number	1
_symmetry_cell_setting	triclinic
loop_
_symmetry_equiv_pos_as_xyz
  x,y,z
_cell_length_a	15.537862
_cell_length_b	10.540510
_cell_length_c	14.185569
_cell_angle_alpha	76.714084
_cell_angle_beta	97.877082
_cell_angle_gamma	65.888872
loop_
_atom_site_label
_atom_site_type_symbol
_atom_site_fract_x
_atom_site_fract_y
_atom_site_fract_z
O1	O	1.226140	-0.372663	-0.083376
O2	O	0.952837	-0.226507	-0.083385
O3	O	1.095738	-0.487250	-0.083380
O4	O	1.083239	-0.111919	-0.083381
O5	O	1.137953	-0.564270	0.083456
O6	O	0.995051	-0.303526	0.083451
O7	O	1.268355	-0.449682	0.083460
Cu8	Cu	1.135558	-0.383637	0.098689
Cu9	Cu	1.085634	-0.292552	-0.098614
O10	O	1.125453	-0.188938	0.083455
C11	C	0.938948	-0.249724	0.000032
C12	C	0.834671	-0.204172	0.000028
C13	C	0.677268	-0.019537	0.000023
C14	C	0.775254	-0.062354	0.000026
C15	C	0.796119	-0.303233	0.000032
C16	C	0.698135	-0.260439	0.000033
C17	C	0.638716	-0.118589	0.000028
C18	C	0.659583	-0.359491	0.000038
C19	C	0.561606	-0.316698	0.000035
C20	C	0.502181	-0.174852	0.000027
C21	C	0.540739	-0.075795	0.000025
C22	C	0.719002	-0.501338	0.000037
C23	C	0.680450	-0.600390	0.000042
C24	C	0.582473	-0.557600	0.000045
C25	C	0.523048	-0.415754	0.000037
C26	C	0.543914	-0.656657	0.000047
C27	C	0.445937	-0.613863	0.000044
C28	C	0.425070	-0.372961	0.000033
C29	C	1.115914	-0.572622	0.000036
C30	C	1.113125	-0.712251	0.000030
C31	C	1.212495	-0.976849	0.000415
C32	C	1.215372	-0.831484	0.000034
C33	C	1.036679	-0.688266	-0.095241
C34	C	1.034412	-0.833929	-0.095316
C35	C	1.080288	-0.920316	0.094408
C36	C	1.085455	-0.776848	0.095662
C37	C	1.282243	-0.426464	0.000041
C38	C	1.386519	-0.472013	0.000038
C39	C	1.105277	-0.103566	0.000037
C40	C	1.108064	0.036066	0.000036
N41	N	1.170678	-0.447705	0.237461
N42	N	1.050521	-0.228497	-0.237386
C43	C	0.947337	-0.040320	0.605103
C44	C	0.973947	-0.088845	0.710126
C45	C	1.100513	-0.319682	0.710091
C46	C	1.073910	-0.271179	0.605067
C47	C	0.997323	-0.131496	0.552581
C48	C	1.123896	-0.362355	0.552544
C49	C	1.097299	-0.313852	0.447529
C50	C	1.020716	-0.174173	0.395036
C51	C	0.970725	-0.082993	0.447565
C52	C	1.200488	-0.502033	0.605032
C53	C	1.250473	-0.593209	0.552510
C54	C	1.223872	-0.544711	0.447492
C55	C	1.147289	-0.405032	0.394999
C56	C	1.273863	-0.635890	0.394963
C57	C	1.247266	-0.587388	0.289947
C58	C	1.120692	-0.356529	0.289984
H59	H	0.414548	-0.694521	0.000046
H60	H	1.012264	-0.695122	0.101412
F61	F	0.477500	0.075171	0.000037
H62	H	0.628889	0.095965	0.000032
F63	F	0.920738	0.008215	0.766017
F64	F	0.933026	-0.814090	-0.100976
H65	H	0.376691	-0.257458	0.000043
H66	H	1.058320	-0.242791	0.247248
F67	F	0.937121	-0.577636	-0.099882
F68	F	1.331984	-0.741864	0.608378
F69	F	1.287161	-1.097546	0.089721
F70	F	0.816278	0.043083	0.000020
F71	F	1.241796	-1.017210	-0.088380
H72	H	0.844510	-0.418727	0.000032
H73	H	1.287970	-0.661633	0.247183
F74	F	0.980162	-0.902187	0.095246
H75	H	1.052162	-0.858190	-0.166530
F76	F	1.146358	-1.039398	0.188794
F77	F	1.158538	-0.805519	0.187788
H78	H	0.908353	0.030744	0.404829
F79	F	1.291470	-0.859651	0.089311
H80	H	0.592305	-0.772147	0.000042
F81	F	0.397902	-0.129305	0.000019
F82	F	1.182023	-0.468337	0.765959
F83	F	1.228795	-0.553643	0.716800
H84	H	0.999065	-0.134681	0.309525
H85	H	1.239252	-0.790984	-0.068375
F86	F	1.355379	-0.784540	0.450833
H87	H	0.884965	0.073418	0.562367
H88	H	0.728841	-0.715883	0.000042
F89	F	0.823277	-0.546877	0.000034
H90	H	1.055088	-0.641876	-0.166140
