data_functionalizedCrystal
_audit_creation_method	'MofGen! by Chris Wilmer'
_symmetry_space_group_name_H-M	'P1'
_symmetry_Int_Tables_number	1
_symmetry_cell_setting	triclinic
loop_
_symmetry_equiv_pos_as_xyz
  x,y,z
_cell_length_a	14.044220
_cell_length_b	10.868271
_cell_length_c	11.792241
_cell_angle_alpha	90.005281
_cell_angle_beta	91.308853
_cell_angle_gamma	90.000690
loop_
_atom_site_label
_atom_site_type_symbol
_atom_site_fract_x
_atom_site_fract_y
_atom_site_fract_z
O1	O	1.259113	-0.102192	-0.273771
O2	O	1.592447	0.231141	0.059563
O3	O	1.925780	0.564474	0.392896
O4	O	0.983093	-0.102224	-0.263891
O5	O	1.316427	0.231110	0.069442
O6	O	1.649760	0.564443	0.402775
O7	O	1.127802	-0.102199	-0.104289
O8	O	1.461135	0.231135	0.229044
O9	O	1.794468	0.564468	0.562377
O10	O	1.114405	-0.102217	-0.433373
O11	O	1.447738	0.231116	-0.100039
O12	O	1.781072	0.564449	0.233294
O13	O	1.127790	0.102446	-0.104281
O14	O	1.461123	0.435779	0.229052
O15	O	1.794456	0.769113	0.562385
O16	O	0.983081	0.102421	-0.263883
O17	O	1.316415	0.435754	0.069450
O18	O	1.649748	0.769088	0.402783
O19	O	1.259101	0.102452	-0.273763
O20	O	1.592435	0.435786	0.059571
O21	O	1.925768	0.769119	0.392904
Zn22	Zn	1.121089	0.134928	-0.268822
Zn23	Zn	1.454423	0.468262	0.064512
Zn24	Zn	1.787756	0.801595	0.397845
Zn25	Zn	1.121105	-0.134700	-0.268832
Zn26	Zn	1.454439	0.198634	0.064501
Zn27	Zn	1.787772	0.531967	0.397834
O28	O	1.114393	0.102427	-0.433365
O29	O	1.447726	0.435761	-0.100031
O30	O	1.781060	0.769094	0.233302
C31	C	0.947751	0.000095	-0.259563
C32	C	1.281084	0.333428	0.073770
C33	C	1.614417	0.666762	0.407104
C34	C	0.842459	0.000083	-0.246664
C35	C	1.175792	0.333417	0.086669
C36	C	1.509125	0.666750	0.420003
N37	N	1.121086	0.318942	-0.268815
N38	N	1.454419	0.652276	0.064519
N39	N	1.787752	0.985609	0.397852
N40	N	1.121117	-0.318714	-0.268831
N41	N	1.454450	0.014620	0.064502
N42	N	1.787783	0.347953	0.397836
C43	C	0.649676	0.000109	-0.223082
C44	C	0.983009	0.333442	0.110251
C45	C	1.316343	0.666776	0.443585
C46	C	0.592513	0.000109	-0.314567
C47	C	0.925846	0.333442	0.018766
C48	C	1.259180	0.666776	0.352100
C49	C	0.485242	0.000123	-0.301445
C50	C	0.818575	0.333457	0.031888
C51	C	1.151909	0.666790	0.365221
C52	C	0.756957	0.000095	-0.236202
C53	C	1.090290	0.333428	0.097132
C54	C	1.423624	0.666761	0.430465
C55	C	1.294444	0.000131	-0.278091
C56	C	1.627777	0.333464	0.055242
C57	C	1.961111	0.666798	0.388576
C58	C	1.399736	0.000135	-0.290990
C59	C	1.733069	0.333468	0.042343
C60	C	2.066403	0.666801	0.375677
C61	C	1.126954	0.000123	-0.061915
C62	C	1.460287	0.333457	0.271418
C63	C	1.793621	0.666790	0.604751
C64	C	1.124435	0.000122	0.064335
C65	C	1.457769	0.333455	0.397668
C66	C	1.791102	0.666788	0.731001
C67	C	1.121100	0.569949	-0.268829
C68	C	1.454434	0.903282	0.064504
C69	C	1.787767	1.236615	0.397837
C70	C	1.121089	0.430271	-0.268824
C71	C	1.454422	0.763604	0.064509
C72	C	1.787756	1.096938	0.397842
C73	C	1.115241	0.000103	-0.475739
C74	C	1.448574	0.333436	-0.142405
C75	C	1.781907	0.666769	0.190928
C76	C	1.117759	0.000096	-0.601989
C77	C	1.451093	0.333429	-0.268655
C78	C	1.784426	0.666763	0.064678
C79	C	1.119804	0.000101	0.295482
C80	C	1.453137	0.333434	0.628815
C81	C	1.786471	0.666767	0.962148
C82	C	1.122377	0.000112	0.166855
C83	C	1.455711	0.333445	0.500188
C84	C	1.789044	0.666779	0.833522
H85	H	0.618054	0.000121	-0.134912
H86	H	0.951387	0.333454	0.198421
H87	H	1.284720	0.666787	0.531755
H88	H	0.624137	0.000098	-0.402744
H89	H	0.957471	0.333431	-0.069411
H90	H	1.290804	0.666765	0.263923
