data_functionalizedCrystal
_audit_creation_method	'MofGen! by Chris Wilmer'
_symmetry_space_group_name_H-M	'P1'
_symmetry_Int_Tables_number	1
_symmetry_cell_setting	triclinic
loop_
_symmetry_equiv_pos_as_xyz
  x,y,z
_cell_length_a	12.759401
_cell_length_b	12.759399
_cell_length_c	21.395355
_cell_angle_alpha	90.012690
_cell_angle_beta	90.021478
_cell_angle_gamma	90.016172
loop_
_atom_site_label
_atom_site_type_symbol
_atom_site_fract_x
_atom_site_fract_y
_atom_site_fract_z
Zn1	Zn	1.606277	-0.418376	0.354235
Zn2	Zn	1.606160	-0.594041	0.249469
Zn3	Zn	1.430571	-0.418378	0.249478
Zn4	Zn	1.430565	-0.594015	0.354214
O5	O	1.518393	-0.506202	0.301849
O6	O	1.753283	-0.441688	0.340343
O7	O	1.582821	-0.570750	0.161792
O8	O	1.453930	-0.271356	0.263387
O9	O	1.753196	-0.570748	0.263371
O10	O	1.583021	-0.271355	0.340352
O11	O	1.453816	-0.441691	0.161799
O12	O	1.283549	-0.441666	0.263366
O13	O	1.453920	-0.570705	0.441895
O14	O	1.283545	-0.570706	0.340316
O15	O	1.583015	-0.441664	0.441911
O16	O	1.582815	-0.741058	0.263351
O17	O	1.453806	-0.741039	0.340307
C18	C	1.245426	-0.506184	0.301840
C19	C	1.128649	-0.506202	0.301851
C20	C	1.073833	-0.439122	0.341992
C21	C	0.964109	-0.439132	0.341996
C22	C	0.964027	-0.573312	0.261717
C23	C	1.073749	-0.573295	0.261710
C24	C	0.814193	-0.315306	0.364519
C25	C	0.759373	-0.248235	0.404669
C26	C	0.795035	-0.232252	0.465819
C27	C	0.885515	-0.283356	0.486831
C28	C	0.940329	-0.350434	0.446683
C29	C	0.904669	-0.366397	0.385525
C30	C	1.223667	-0.697123	0.239194
C31	C	1.278484	-0.764208	0.199050
C32	C	1.242824	-0.780202	0.137899
C33	C	1.152340	-0.729117	0.116889
C34	C	1.097523	-0.662032	0.157034
C35	C	1.133191	-0.646037	0.218184
C36	C	1.518326	-0.779170	0.301839
C37	C	1.518393	-0.895946	0.301856
C38	C	1.451208	-0.950837	0.341898
C39	C	1.451274	-1.060561	0.341910
C40	C	1.585718	-1.060494	0.261836
C41	C	1.585647	-0.950772	0.261821
C42	C	1.327448	-1.210610	0.364253
C43	C	1.260272	-1.265504	0.404305
C44	C	1.244070	-1.229863	0.465428
C45	C	1.295058	-1.139329	0.486511
C46	C	1.362242	-1.084441	0.446463
C47	C	1.378424	-1.120081	0.385331
C48	C	1.709473	-0.800721	0.239485
C49	C	1.776663	-0.745831	0.199439
C50	C	1.792877	-0.781470	0.138315
C51	C	1.741907	-0.872007	0.117234
C52	C	1.674717	-0.926897	0.157280
C53	C	1.658502	-0.891250	0.218403
C54	C	1.792426	-0.506221	0.301858
C55	C	1.909203	-0.506229	0.301862
C56	C	1.518480	-0.506181	0.465272
C57	C	1.518517	-0.506172	0.534914
C58	C	1.518489	-0.232169	0.301873
C59	C	1.518530	-0.115392	0.301883
C60	C	1.518367	-0.506148	0.139061
C61	C	1.518533	-0.505861	0.069421
C62	C	1.585734	-0.438977	0.567636
C63	C	1.585733	-0.438932	0.633071
C64	C	1.518526	-0.506100	0.665782
C65	C	1.451296	-0.573300	0.633052
C66	C	1.451291	-0.573335	0.567618
C67	C	1.510207	-0.600699	0.769454
C68	C	1.510218	-0.600665	0.834887
C69	C	1.518532	-0.505989	0.867603
C70	C	1.526857	-0.411344	0.834878
C71	C	1.526853	-0.411380	0.769444
C72	C	1.518522	-0.506069	0.736734
C73	C	1.585751	-0.438740	0.971278
C74	C	1.585742	-0.438693	1.036714
C75	C	1.451310	-0.573070	1.036694
C76	C	1.451314	-0.573107	0.971258
C77	C	1.518540	-0.505944	0.938554
H78	H	0.785155	-0.328302	0.314723
F79	F	1.657297	-1.118853	0.219235
H80	H	1.023846	-0.620437	0.139923
H81	H	1.396578	-0.627749	1.063326
F82	F	0.736684	-0.160874	0.508551
H83	H	0.919314	-0.627939	0.229036
F84	F	1.620474	-1.023259	0.134843
H85	H	1.755113	-0.901029	0.067463
H86	H	1.281870	-1.110324	0.536286
H87	H	1.396584	-0.627831	0.944616
H88	H	1.252716	-0.684098	0.288987
F89	F	0.923453	-0.266355	0.551920
F90	F	1.114378	-0.746146	0.051807
F91	F	1.535707	-0.310655	0.734618
F92	F	1.416506	-0.988095	0.468898
H93	H	1.287445	-0.834858	0.105220
F94	F	1.864398	-0.723052	0.095698
F95	F	1.379765	-0.644781	0.667866
H96	H	1.189373	-1.274565	0.498038
H97	H	1.218758	-1.339217	0.387133
F98	F	1.344664	-1.248533	0.299193
H99	H	1.533629	-0.334250	0.861514
H100	H	1.014000	-0.392036	0.463789
H101	H	1.640477	-0.383969	1.063356
F102	F	1.830917	-0.649476	0.221879
H103	H	1.696260	-0.771682	0.289253
F104	F	1.657294	-0.367256	0.936469
F105	F	1.379747	-0.644856	0.532791
H106	H	1.503446	-0.677731	0.861526
H107	H	1.352171	-0.805790	0.216157
F108	F	1.132258	-0.367712	0.384712
F109	F	0.663069	-0.193864	0.382309
F110	F	1.379628	-0.892490	0.384505
F111	F	1.501381	-0.701476	0.734641
H112	H	1.640474	-0.384286	0.541012
H113	H	1.640467	-0.384209	0.659719
