data_functionalizedCrystal
_audit_creation_method	'MofGen! by Chris Wilmer'
_symmetry_space_group_name_H-M	'P1'
_symmetry_Int_Tables_number	1
_symmetry_cell_setting	triclinic
loop_
_symmetry_equiv_pos_as_xyz
  x,y,z
_cell_length_a	14.908571
_cell_length_b	16.959454
_cell_length_c	14.908294
_cell_angle_alpha	93.269774
_cell_angle_beta	90.175425
_cell_angle_gamma	86.716421
loop_
_atom_site_label
_atom_site_type_symbol
_atom_site_fract_x
_atom_site_fract_y
_atom_site_fract_z
Zn1	Zn	1.345293	-0.412497	-0.587603
Zn2	Zn	1.353875	-0.537521	-0.437250
Zn3	Zn	1.203610	-0.397315	-0.428600
Zn4	Zn	1.194902	-0.536582	-0.578901
O5	O	1.274420	-0.470979	-0.508089
O6	O	1.472258	-0.435829	-0.574920
O7	O	1.341178	-0.512962	-0.310277
O8	O	1.222457	-0.288722	-0.449714
O9	O	1.478563	-0.527683	-0.464456
O10	O	1.326551	-0.299876	-0.566533
O11	O	1.230778	-0.409952	-0.303922
O12	O	1.076629	-0.409042	-0.441276
O13	O	1.207616	-0.526083	-0.705881
O14	O	1.070231	-0.511361	-0.551702
O15	O	1.318108	-0.434918	-0.712274
O16	O	1.332734	-0.648004	-0.456018
O17	O	1.215938	-0.647314	-0.560089
C18	C	1.040805	-0.458453	-0.494607
C19	C	0.940862	-0.453114	-0.488861
C20	C	0.746454	-0.549777	-0.592895
C21	C	0.652548	-0.544764	-0.587499
C22	C	0.659143	-0.438071	-0.472678
C23	C	0.753049	-0.443084	-0.478074
C24	C	0.796701	-0.498940	-0.538183
C25	C	0.890608	-0.503957	-0.543574
C26	C	0.897201	-0.397261	-0.428758
C27	C	0.803295	-0.392247	-0.423363
C28	C	1.274346	-0.676340	-0.508069
C29	C	1.274394	-0.764201	-0.508095
C30	C	1.213688	-1.135352	-0.562277
C31	C	1.335398	-1.136020	-0.454006
C32	C	1.335367	-1.053472	-0.453996
C33	C	1.274494	-1.011860	-0.508126
C34	C	1.213653	-1.052796	-0.562267
C35	C	1.396201	-1.012529	-0.399850
C36	C	1.396172	-0.929976	-0.399837
C37	C	1.335303	-0.888363	-0.453973
C38	C	1.274460	-0.929305	-0.508116
C39	C	1.213588	-0.887693	-0.562246
C40	C	1.152748	-0.928633	-0.616395
C41	C	1.152784	-1.011184	-0.616402
C42	C	1.335267	-0.805813	-0.453965
C43	C	1.213553	-0.805137	-0.562236
C44	C	1.508948	-0.483554	-0.521624
C45	C	1.608890	-0.488913	-0.527391
C46	C	1.260933	-0.482090	-0.742615
C47	C	1.255186	-0.486824	-0.842556
C48	C	1.274518	-0.264818	-0.508129
C49	C	1.274560	-0.176964	-0.508147
C50	C	1.189561	-0.540953	-0.980091
C51	C	1.194959	-0.536510	-0.886187
C52	C	1.310017	-0.441577	-0.892835
C53	C	1.304619	-0.446020	-0.986738
C54	C	1.244390	-0.495710	-1.030363
C55	C	1.238996	-0.500157	-1.124269
C56	C	1.354049	-0.405220	-1.130914
C57	C	1.359448	-0.400777	-1.037010
C58	C	1.287906	-0.459857	-0.274478
C59	C	1.293827	-0.454909	-0.174547
H60	H	1.163986	-0.771262	-0.606319
C61	C	0.755267	-0.330809	-0.357246
N62	N	0.719094	-0.284534	-0.307443
H63	H	1.164156	-1.168690	-0.606366
H64	H	1.189957	-0.540619	-1.159786
H65	H	1.103251	-1.044524	-0.660486
C66	C	1.414368	-0.355452	-1.186221
N67	N	1.459800	-0.317970	-1.227880
H68	H	1.445711	-0.896648	-0.355748
C69	C	0.597280	-0.600694	-0.647679
N70	N	0.555652	-0.642824	-0.693009
C71	C	1.402345	-1.181795	-0.394457
N72	N	1.452771	-1.216276	-0.349601
C73	C	1.085790	-0.882849	-0.675935
N74	N	1.035360	-0.848362	-0.720781
H75	H	1.445753	-1.046415	-0.355773
C76	C	1.123313	-0.595616	-1.028080
N77	N	1.073413	-0.636788	-1.064225
C78	C	0.938624	-0.565398	-0.609697
N79	N	0.974786	-0.611674	-0.659505
C80	C	1.425696	-0.346120	-0.989012
N81	N	1.475598	-0.304953	-0.952861
H82	H	0.781996	-0.595261	-0.641833
H83	H	1.384797	-0.772482	-0.409874
C84	C	1.134644	-0.586281	-0.830891
N85	N	1.089211	-0.623770	-0.789242
C86	C	1.376254	-0.386913	-0.844830
N87	N	1.426144	-0.345738	-0.808672
H88	H	0.623585	-0.392591	-0.423746
H89	H	0.938122	-0.355867	-0.384206
