data_functionalizedCrystal
_audit_creation_method	'MofGen! by Chris Wilmer'
_symmetry_space_group_name_H-M	'P1'
_symmetry_Int_Tables_number	1
_symmetry_cell_setting	triclinic
loop_
_symmetry_equiv_pos_as_xyz
  x,y,z
_cell_length_a	31.640172
_cell_length_b	27.440280
_cell_length_c	27.440280
_cell_angle_alpha	89.999489
_cell_angle_beta	60.004579
_cell_angle_gamma	119.998727
loop_
_atom_site_label
_atom_site_type_symbol
_atom_site_fract_x
_atom_site_fract_y
_atom_site_fract_z
Zr1	Zr	0.462540	-0.469569	-0.063951
O2	O	0.550705	-0.391764	-0.141758
O3	O	0.374374	-0.493411	-0.040099
O4	O	0.462530	-0.493424	-0.141761
O5	O	0.462557	-0.391752	0.040097
O6	O	0.462523	-0.573626	-0.141762
O7	O	0.462549	-0.391751	-0.040097
O8	O	0.304827	-0.573603	0.040092
O9	O	0.620253	-0.391775	-0.141757
O10	O	0.410633	-0.563445	-0.029927
O11	O	0.410644	-0.503592	0.029921
O12	O	0.514437	-0.503607	-0.089772
O13	O	0.514448	-0.443754	-0.029924
Zr14	Zr	0.462542	-0.597484	0.063947
Zr15	Zr	0.462529	-0.597482	-0.063953
Zr16	Zr	0.462553	-0.469571	0.063948
Zr17	Zr	0.573460	-0.469587	-0.063949
Zr18	Zr	0.351622	-0.597466	0.063945
O19	O	0.550708	-0.573642	0.040095
O20	O	0.550690	-0.573639	-0.141761
O21	O	0.550724	-0.391766	0.040098
O22	O	0.374377	-0.675289	0.141754
O23	O	0.374358	-0.675287	-0.040102
O24	O	0.374392	-0.493414	0.141757
O25	O	0.462525	-0.675301	-0.040101
O26	O	0.462552	-0.573630	0.141757
O27	O	0.462559	-0.493428	0.141758
O28	O	0.462533	-0.675302	0.040092
O29	O	0.620244	-0.493448	-0.141759
O30	O	0.304838	-0.573605	0.141755
O31	O	0.304829	-0.675278	0.141753
O32	O	0.304819	-0.675277	0.040090
O33	O	0.620263	-0.391776	-0.040095
O34	O	0.620255	-0.493450	-0.040096
O35	O	0.410645	-0.563447	0.089768
O36	O	0.410634	-0.623300	0.029920
O37	O	0.514438	-0.563461	-0.029926
O38	O	0.514449	-0.503608	0.029923
C39	C	0.323797	-0.533505	-0.000004
C40	C	0.276708	-0.533497	-0.000005
C41	C	-0.015340	-0.564781	-0.031237
C42	C	-0.192335	-0.564793	-0.031236
O43	O	-0.215245	-0.591386	-0.057784
N44	N	-0.214459	-0.533550	0.000003
C45	C	-0.192333	-0.502305	0.031247
O46	O	-0.215216	-0.475736	0.057823
C47	C	-0.015341	-0.502296	0.031250
C48	C	0.006784	-0.533537	0.000004
C49	C	0.006785	-0.596020	-0.062480
C50	C	0.051034	-0.596014	-0.062482
C51	C	0.073158	-0.564769	-0.031242
C52	C	0.051033	-0.533531	0.000001
C53	C	0.006781	-0.471055	0.062497
C54	C	0.051030	-0.471056	0.062496
C55	C	0.073156	-0.502297	0.031250
C56	C	0.117405	-0.502280	0.031239
N57	N	0.139528	-0.533523	0.000000
C58	C	0.117405	-0.564768	-0.031240
C59	C	-0.285255	-0.502310	0.031242
C60	C	-0.329502	-0.502311	0.031241
C61	C	-0.329503	-0.564801	-0.031242
C62	C	-0.285252	-0.564796	-0.031243
C63	C	-0.263132	-0.533554	0.000003
C64	C	0.210330	-0.564752	-0.031243
C65	C	0.254584	-0.564742	-0.031245
C66	C	0.254578	-0.502255	0.031240
C67	C	0.210330	-0.502263	0.031239
C68	C	0.188206	-0.533516	-0.000004
O69	O	0.140337	-0.475707	0.057778
O70	O	0.140286	-0.591344	-0.057801
C71	C	-0.059588	-0.564787	-0.031234
C72	C	-0.081713	-0.533549	0.000009
C73	C	-0.059589	-0.502304	0.031249
C74	C	-0.125960	-0.533550	0.000007
C75	C	-0.148084	-0.564794	-0.031233
C76	C	-0.125961	-0.596038	-0.062472
C77	C	-0.081712	-0.596032	-0.062475
C78	C	-0.081713	-0.471061	0.062488
C79	C	-0.125961	-0.471069	0.062487
C80	C	-0.148084	-0.502313	0.031247
C81	C	0.462555	-0.373527	0.000000
C82	C	0.462559	-0.319225	0.000001
C83	C	0.462546	-0.084536	0.044184
C84	C	0.462546	-0.135556	0.044186
O85	O	0.462530	-0.161957	0.081770
N86	N	0.462546	-0.161068	0.000004
C87	C	0.462539	-0.135562	-0.044179
O88	O	0.462538	-0.161948	-0.081759
C89	C	0.462534	-0.084545	-0.044178
C90	C	0.462541	-0.059032	0.000003
C91	C	0.462552	-0.059022	0.088362
C92	C	0.462552	-0.008005	0.088359
C93	C	0.462547	0.017499	0.044178
C94	C	0.462541	-0.008015	0.000000
C95	C	0.462523	-0.059042	-0.088358
C96	C	0.462518	-0.008022	-0.088353
C97	C	0.462524	0.017491	-0.044172
C98	C	0.462537	0.068507	-0.044183
N99	N	0.462537	0.094019	-0.000001
C100	C	0.462542	0.068515	0.044180
C101	C	0.462548	-0.242701	-0.044178
C102	C	0.462557	-0.293714	-0.044182
C103	C	0.462563	-0.293705	0.044184
C104	C	0.462559	-0.242689	0.044185
C105	C	0.462548	-0.217188	0.000004
C106	C	0.462544	0.175656	0.044170
C107	C	0.462547	0.226679	0.044162
C108	C	0.462538	0.226663	-0.044201
C109	C	0.462538	0.175646	-0.044195
C110	C	0.462539	0.150143	-0.000004
O111	O	0.462551	0.094939	-0.081747
O112	O	0.462535	0.094903	0.081757
C113	C	0.601285	-0.533549	-0.000000
C114	C	0.648374	-0.533556	0.000000
C115	C	0.462525	-0.533524	-0.159985
C116	C	0.462519	-0.533523	-0.214281
C117	C	0.462532	0.306477	-0.000008
C118	C	0.462542	0.252183	-0.000018
C119	C	0.516735	-0.502297	-0.582254
C120	C	0.516739	-0.502299	-0.633276
O121	O	0.562821	-0.475753	-0.686231
N122	N	0.462555	-0.533532	-0.627555
C123	C	0.408364	-0.564772	-0.570807
O124	O	0.362276	-0.591339	-0.570626
C125	C	0.408361	-0.564773	-0.519786
C126	C	0.462549	-0.533532	-0.525512
C127	C	0.570919	-0.471059	-0.587977
C128	C	0.570915	-0.471057	-0.536958
C129	C	0.516728	-0.502292	-0.480216
C130	C	0.462545	-0.533530	-0.474493
C131	C	0.354171	-0.596015	-0.463039
C132	C	0.354173	-0.596014	-0.412017
C133	C	0.408361	-0.564773	-0.417743
C134	C	0.408355	-0.564762	-0.366732
N135	N	0.462539	-0.533529	-0.372453
C136	C	0.516726	-0.502293	-0.429195
C137	C	0.408374	-0.564767	-0.677957
C138	C	0.408376	-0.564763	-0.728976
C139	C	0.516751	-0.502290	-0.791442
C140	C	0.516748	-0.502292	-0.740421
C141	C	0.462558	-0.533533	-0.683678
C142	C	0.516714	-0.502290	-0.322049
C143	C	0.516706	-0.502288	-0.271023
C144	C	0.408331	-0.564763	-0.208562
C145	C	0.408339	-0.564762	-0.259583
C146	C	0.462535	-0.533525	-0.316329
O147	O	0.362297	-0.591297	-0.313758
O148	O	0.562805	-0.475737	-0.429366
C149	C	0.462557	-0.533529	0.159980
C150	C	0.462563	-0.533530	0.214277
C151	C	0.323783	-0.693504	-0.000006
C152	C	0.276690	-0.747799	-0.000008
C153	C	0.323813	-0.533507	0.159978
C154	C	0.276730	-0.533500	0.214274
C155	C	0.323799	-0.693506	0.159976
C156	C	0.276712	-0.747802	0.214271
C157	C	0.601283	-0.373547	-0.159980
C158	C	0.648370	-0.319251	-0.214275
C159	C	0.601299	-0.373549	0.000002
C160	C	0.648392	-0.319254	0.000004
C161	C	0.601269	-0.533546	-0.159983
C162	C	0.648352	-0.533553	-0.214279
C163	C	0.254574	-0.742053	-0.031253
C164	C	0.210331	-0.793064	-0.031266
C165	C	0.188202	-0.849820	-0.000031
C166	C	0.210322	-0.855565	0.031216
C167	C	0.254567	-0.804555	0.031225
C168	C	0.254620	-0.564741	0.271017
C169	C	0.210386	-0.564732	0.322039
C170	C	0.188261	-0.533486	0.316317
C171	C	0.210376	-0.502242	0.259568
C172	C	0.254611	-0.502247	0.208548
C173	C	0.254593	-0.804548	0.208529
C174	C	0.210355	-0.855570	0.259540
C175	C	0.188234	-0.849844	0.316293
C176	C	0.210357	-0.793092	0.322034
C177	C	0.254597	-0.742072	0.271024
C178	C	0.670494	-0.262505	-0.208533
C179	C	0.714746	-0.211484	-0.259544
C180	C	0.736869	-0.217209	-0.316297
C181	C	0.714743	-0.273961	-0.322039
C182	C	0.670496	-0.324981	-0.271028
C183	C	0.670513	-0.325000	0.031244
C184	C	0.714768	-0.273989	0.031243
C185	C	0.736898	-0.217233	0.000005
C186	C	0.714776	-0.211488	-0.031239
C187	C	0.670525	-0.262498	-0.031241
C188	C	0.670463	-0.564805	-0.208537
C189	C	0.714697	-0.564823	-0.259549
C190	C	0.736821	-0.533585	-0.316302
C191	C	0.714706	-0.502332	-0.322042
C192	C	0.670470	-0.502318	-0.271031
H193	H	-0.347522	-0.590241	-0.056680
H194	H	0.772898	-0.175660	-0.357828
N195	N	0.647905	-0.470377	-0.276913
N196	N	0.682494	-0.415296	-0.303539
H197	H	0.666561	-0.392734	-0.307699
N198	N	0.737274	-0.470440	-0.380005
N199	N	0.761956	-0.415358	-0.395249
H200	H	0.777881	-0.392841	-0.436183
H201	H	0.652456	-0.590242	-0.162331
N202	N	0.187728	-0.787187	-0.063169
N203	N	0.133412	-0.808676	-0.035976
H204	H	0.117448	-0.804524	-0.058506
H205	H	0.462563	-0.221919	0.080161
H206	H	0.462507	0.012736	-0.124330
N207	N	0.277159	-0.810429	0.063139
N208	N	0.301839	-0.837056	0.049895
H209	H	0.317794	-0.841208	0.072435
N210	N	0.353014	-0.596665	-0.619995
N211	N	0.340921	-0.569467	-0.584560
H212	H	0.301823	-0.591994	-0.543627
N213	N	0.277205	-0.596666	0.276882
N214	N	0.257453	-0.624552	0.327554
H215	H	0.273403	-0.647100	0.331702
H216	H	-0.011226	-0.621465	-0.087919
H217	H	0.462554	0.247451	0.080140
N218	N	0.277176	-0.684104	0.276884
N219	N	0.316667	-0.638549	0.231341
H220	H	0.332609	-0.597609	0.235482
N221	N	0.647906	-0.256637	-0.150569
N222	N	0.667674	-0.205961	-0.145461
H223	H	0.651726	-0.201811	-0.104526
N224	N	0.352984	-0.596665	-0.253728
N225	N	0.304607	-0.624546	-0.203059
H226	H	0.265511	-0.647081	-0.198919
H227	H	0.152174	-0.891352	-0.000043
N228	N	0.143044	-0.901957	0.368402
N229	N	0.152922	-0.910792	0.405124
H230	H	0.121005	-0.947598	0.441926
H231	H	0.272599	-0.590181	-0.056691
H232	H	0.732753	-0.165279	-0.254857
H233	H	0.772931	-0.175702	0.000012
N234	N	0.647917	-0.382967	0.063160
N235	N	0.667682	-0.388078	0.091045
H236	H	0.651729	-0.429015	0.113586
N237	N	0.737375	-0.153516	-0.063147
N238	N	0.762059	-0.138284	-0.118229
H239	H	0.778016	-0.097340	-0.140761
N240	N	0.187795	-0.596646	0.380005
N241	N	0.192746	-0.569458	0.415447
H242	H	0.176791	-0.591998	0.456386
H243	H	0.652483	-0.371185	-0.275711
N244	N	0.073638	-0.439136	0.094404
N245	N	0.113149	-0.439130	0.094398
H246	H	0.129117	-0.416585	0.116930
N247	N	0.462543	0.149615	0.089315
N248	N	0.462548	0.172409	0.128753
H249	H	0.462549	0.154020	0.160636
H250	H	0.652515	-0.257811	-0.056679
N251	N	0.277194	-0.810407	0.150561
N252	N	0.331511	-0.788915	0.115128
H253	H	0.347474	-0.793057	0.074189
N254	N	-0.148569	-0.439169	0.094423
N255	N	-0.202884	-0.466374	0.135565
H256	H	-0.218855	-0.443852	0.158126
H257	H	0.462566	-0.314480	0.080159
N258	N	0.187740	-0.596682	-0.063157
N259	N	0.207506	-0.624569	-0.091048
H260	H	0.191554	-0.647117	-0.113590
N261	N	0.277189	-0.470349	0.150583
N262	N	0.316681	-0.470358	0.105028
H263	H	0.332625	-0.447829	0.064091
H264	H	0.192347	-0.901775	0.254854
N265	N	0.737354	-0.279794	-0.380017
N266	N	0.776859	-0.234231	-0.425552
H267	H	0.792828	-0.238348	-0.466501
H268	H	0.152242	-0.533487	0.357865
H269	H	0.192298	-0.901783	0.056647
N270	N	0.187765	-0.470330	0.253739
N271	N	0.148267	-0.470338	0.299302
H272	H	0.132294	-0.447803	0.295188
H273	H	0.192340	-0.788439	0.368250
H274	H	0.732772	-0.278678	0.056687
N275	N	0.737275	-0.596752	-0.253667
N276	N	0.717517	-0.624633	-0.202989
H277	H	0.733461	-0.647183	-0.198833
N278	N	0.572079	-0.470381	-0.380003
N279	N	0.620449	-0.442495	-0.385094
H280	H	0.659550	-0.419957	-0.426024
N281	N	0.073620	-0.627933	-0.094398
N282	N	0.053850	-0.655830	-0.122282
H283	H	0.069796	-0.678378	-0.144821
N284	N	0.782001	-0.533611	-0.368405
N285	N	0.772107	-0.581732	-0.377218
H286	H	0.804015	-0.581753	-0.414013
N287	N	-0.262656	-0.596706	-0.063168
N288	N	-0.282415	-0.624594	-0.091062
H289	H	-0.266459	-0.647131	-0.113612
H290	H	0.364214	-0.590192	-0.162354
H291	H	0.192322	-0.476816	0.056674
H292	H	-0.347506	-0.476865	0.056677
N293	N	-0.262672	-0.470392	0.063167
N294	N	-0.282435	-0.442501	0.091053
H295	H	-0.266486	-0.419957	0.113599
H296	H	-0.011227	-0.445616	0.087942
N297	N	0.277166	-0.684081	-0.063152
N298	N	0.242597	-0.668855	-0.049908
H299	H	0.258552	-0.627913	-0.072439
N300	N	0.277178	-0.470336	0.063150
N301	N	0.301863	-0.415252	0.049913
H302	H	0.317823	-0.392712	0.072454
N303	N	0.298822	-0.627917	-0.354050
N304	N	0.298822	-0.627912	-0.308498
H305	H	0.259731	-0.650442	-0.267559
N306	N	-0.059120	-0.627945	-0.094397
N307	N	-0.078885	-0.655836	-0.122286
H308	H	-0.062933	-0.678377	-0.144834
H309	H	-0.063705	-0.445619	0.087930
N310	N	-0.148565	-0.627944	-0.094387
N311	N	-0.188072	-0.627938	-0.094378
H312	H	-0.204040	-0.650471	-0.116916
H313	H	0.462554	-0.079784	0.124342
N314	N	0.462560	0.018051	0.133490
N315	N	0.504460	0.036508	0.138922
H316	H	0.504463	0.054906	0.170800
N317	N	0.462562	-0.319758	-0.089323
N318	N	0.462560	-0.296973	-0.128766
H319	H	0.462561	-0.315366	-0.160647
N320	N	0.572101	-0.470398	-0.849411
N321	N	0.608378	-0.483655	-0.864628
H322	H	0.647466	-0.461133	-0.905569
H323	H	0.462517	-0.079809	-0.124334
N324	N	0.462540	-0.216661	-0.089316
N325	N	0.462539	-0.239451	-0.128758
H326	H	0.462533	-0.221064	-0.160637
H327	H	0.615040	-0.445620	-0.541628
H328	H	0.462541	0.154878	-0.080177
H329	H	0.560834	-0.476846	-0.275692
N330	N	0.462527	0.252726	-0.089320
N331	N	0.420622	0.257038	-0.075012
H332	H	0.420611	0.275445	-0.106875
N333	N	0.626279	-0.439150	-0.645931
N334	N	0.674648	-0.411267	-0.651020
H335	H	0.713751	-0.388726	-0.691949
H336	H	0.560872	-0.476852	-0.745089
N337	N	0.298813	-0.627930	-0.457170
N338	N	0.250442	-0.655817	-0.406497
H339	H	0.211341	-0.678360	-0.402349
H340	H	0.364251	-0.590194	-0.724307
