data_functionalizedCrystal
_audit_creation_method	'MofGen! by Chris Wilmer'
_symmetry_space_group_name_H-M	'P1'
_symmetry_Int_Tables_number	1
_symmetry_cell_setting	triclinic
loop_
_symmetry_equiv_pos_as_xyz
  x,y,z
_cell_length_a	15.944551
_cell_length_b	13.339070
_cell_length_c	11.804365
_cell_angle_alpha	105.124870
_cell_angle_beta	101.830656
_cell_angle_gamma	80.435984
loop_
_atom_site_label
_atom_site_type_symbol
_atom_site_fract_x
_atom_site_fract_y
_atom_site_fract_z
O1	O	0.408901	-1.362759	-0.099080
O2	O	0.353629	-1.068226	-0.099072
O3	O	0.260866	-1.223533	-0.099066
O4	O	0.501664	-1.207452	-0.099087
O5	O	0.285253	-1.182647	0.098989
O6	O	0.378016	-1.027340	0.098982
O7	O	0.433288	-1.321872	0.098974
Cu8	Cu	0.407879	-1.170873	0.117062
Cu9	Cu	0.379038	-1.219226	-0.117160
O10	O	0.526051	-1.166565	0.098968
C11	C	0.356486	-1.010093	-0.000044
C12	C	0.328657	-0.897788	-0.000040
C13	C	0.241610	-1.202422	-0.000038
C14	C	0.147897	-1.200420	-0.000038
C15	C	0.430430	-1.380006	-0.000057
C16	C	0.458259	-1.492312	-0.000068
C17	C	-0.090508	-1.099370	-0.000051
C18	C	-0.128567	-1.126136	0.097600
C19	C	-0.023674	-1.196800	-0.000047
C20	C	-0.152588	-1.166470	-0.097666
C21	C	-0.189405	-1.193297	-0.000060
C22	C	-0.060489	-1.223576	0.097685
C23	C	-0.084518	-1.263915	-0.097668
C24	C	-0.122540	-1.290747	0.000007
C25	C	0.071799	-1.198815	-0.000038
C26	C	-0.284874	-1.191288	-0.000061
C27	C	0.545307	-1.187677	-0.000062
C28	C	0.639019	-1.189681	-0.000071
N29	N	0.428165	-1.136871	0.281801
C30	C	0.545045	-0.533018	-0.000078
C31	C	0.571194	-0.638534	-0.000085
C32	C	0.510562	-0.703352	-0.000073
C33	C	0.423776	-0.662645	-0.000055
C34	C	0.397622	-0.557121	-0.000058
C35	C	0.363140	-0.727455	-0.000053
C36	C	0.276354	-0.686748	-0.000035
C37	C	0.250205	-0.581234	-0.000037
C38	C	0.310837	-0.516415	-0.000048
C39	C	0.389293	-0.832980	-0.000051
C40	C	0.241871	-0.857083	-0.000031
C41	C	0.215721	-0.751567	-0.000024
N42	N	0.358748	-1.253235	-0.281899
C43	C	0.310017	-1.334885	0.655758
C44	C	0.294667	-1.360606	0.531097
C45	C	0.328040	-1.304674	0.468767
C46	C	0.376766	-1.223018	0.531110
C47	C	0.392123	-1.197300	0.655783
C48	C	0.410146	-1.167089	0.468792
C49	C	0.458872	-1.085432	0.531135
C50	C	0.474226	-1.059718	0.655795
C51	C	0.440854	-1.115650	0.718126
C52	C	0.394789	-1.192807	0.344119
C53	C	0.476895	-1.055221	0.344144
C54	C	0.492245	-1.029500	0.468805
H55	H	-0.076032	-1.018477	0.000049
H56	H	0.531858	-0.789268	-0.000082
H57	H	0.282855	-1.380423	0.706515
H58	H	-0.148112	-1.067883	0.180159
H59	H	-0.020727	-1.247689	0.180333
H60	H	0.315540	-1.325620	0.367263
H61	H	0.254996	-1.427091	0.480342
H62	H	0.145057	-0.718410	-0.000019
H63	H	0.453348	-1.094705	0.819635
H64	H	0.513910	-0.993236	0.706555
H65	H	-0.136831	-1.371679	0.000060
H66	H	0.641854	-0.671672	-0.000109
H67	H	0.289550	-0.430494	-0.000042
H68	H	0.179536	-0.548096	-0.000035
H69	H	0.192498	-0.909859	-0.000026
H70	H	0.355116	-1.259292	0.293371
H71	H	-0.064960	-1.322133	-0.180231
H72	H	0.531919	-0.963014	0.519580
H73	H	0.594401	-0.480236	-0.000097
H74	H	0.504072	-1.009678	0.293396
H75	H	-0.192437	-1.142292	-0.180228
H76	H	0.459956	-0.866112	-0.000061
