data_functionalizedCrystal
_audit_creation_method	'MofGen! by Chris Wilmer'
_symmetry_space_group_name_H-M	'P1'
_symmetry_Int_Tables_number	1
_symmetry_cell_setting	triclinic
loop_
_symmetry_equiv_pos_as_xyz
  x,y,z
_cell_length_a	12.759401
_cell_length_b	25.639239
_cell_length_c	12.759393
_cell_angle_alpha	89.964658
_cell_angle_beta	89.980804
_cell_angle_gamma	90.039113
loop_
_atom_site_label
_atom_site_type_symbol
_atom_site_fract_x
_atom_site_fract_y
_atom_site_fract_z
Zn1	Zn	1.606086	-0.208123	-0.593945
Zn2	Zn	1.605905	-0.295567	-0.418248
Zn3	Zn	1.430386	-0.208148	-0.418284
Zn4	Zn	1.430303	-0.295530	-0.593889
O5	O	1.518170	-0.251842	-0.506091
O6	O	1.753083	-0.219728	-0.570646
O7	O	1.582581	-0.283997	-0.271232
O8	O	1.453804	-0.134979	-0.441624
O9	O	1.752950	-0.283972	-0.441563
O10	O	1.582890	-0.134961	-0.570681
O11	O	1.453628	-0.219770	-0.271258
O12	O	1.283354	-0.219734	-0.441570
O13	O	1.453662	-0.283909	-0.740918
O14	O	1.283293	-0.283933	-0.570586
O15	O	1.582809	-0.219691	-0.740958
O16	O	1.582501	-0.368727	-0.441509
O17	O	1.453487	-0.368700	-0.570552
C18	C	1.245203	-0.251833	-0.506076
C19	C	1.128426	-0.251842	-0.506095
C20	C	1.073634	-0.218450	-0.573413
C21	C	0.963910	-0.218455	-0.573419
C22	C	0.963780	-0.285249	-0.438789
C23	C	1.073502	-0.285240	-0.438777
C24	C	1.517994	-0.387684	-0.506043
C25	C	1.518014	-0.445799	-0.506058
C26	C	1.585523	-0.806163	-0.439013
C27	C	1.585564	-0.860767	-0.439027
O28	O	1.642779	-0.889006	-0.381971
N29	N	1.518355	-0.888081	-0.506161
C30	C	1.451108	-0.860787	-0.573292
O31	O	1.393946	-0.889033	-0.630397
C32	C	1.451074	-0.806184	-0.573283
C33	C	1.518280	-0.778873	-0.506137
C34	C	1.652724	-0.778853	-0.371874
C35	C	1.652682	-0.724252	-0.371859
C36	C	1.585438	-0.696962	-0.438983
C37	C	1.518237	-0.724273	-0.506122
C38	C	1.383833	-0.778891	-0.640419
C39	C	1.383805	-0.724284	-0.640404
C40	C	1.451011	-0.696974	-0.573259
C41	C	1.450951	-0.642382	-0.573231
N42	N	1.518160	-0.615069	-0.506097
C43	C	1.585404	-0.642359	-0.438973
C44	C	1.451188	-0.975458	-0.573309
C45	C	1.451216	-1.030060	-0.573314
C46	C	1.585673	-1.030037	-0.439050
C47	C	1.585639	-0.975433	-0.439040
C48	C	1.518397	-0.948144	-0.506175
C49	C	1.585309	-0.527694	-0.438946
C50	C	1.585258	-0.473088	-0.438934
C51	C	1.450805	-0.473117	-0.573201
C52	C	1.450852	-0.527717	-0.573210
C53	C	1.518113	-0.555004	-0.506079
O54	O	1.393768	-0.614110	-0.630261
O55	O	1.642566	-0.614106	-0.381888
C56	C	1.792204	-0.251851	-0.506107
C57	C	1.908980	-0.251855	-0.506113
C58	C	1.518247	-0.251793	-0.780125
C59	C	1.518279	-0.251772	-0.896902
C60	C	1.518376	-0.115469	-0.506163
C61	C	1.518464	-0.057355	-0.506193
C62	C	1.585453	-0.285176	-1.061485
C63	C	1.585427	-0.285201	-0.951761
C64	C	1.451145	-0.218321	-0.951772
C65	C	1.451166	-0.218299	-1.061494
C66	C	1.518155	-0.251853	-0.233124
C67	C	1.518326	-0.251726	-0.116348
H68	H	0.919047	-0.312441	-0.383982
O69	O	1.385764	-0.185906	-0.898529
C70	C	1.207087	-0.160506	-0.864985
C71	C	1.281010	-0.197258	-0.925326
H72	H	1.122379	-0.169664	-0.886645
H73	H	1.218514	-0.166269	-0.777127
H74	H	1.225658	-0.118347	-0.886567
H75	H	1.262485	-0.239432	-0.903832
H76	H	1.269570	-0.191450	-1.013169
H77	H	1.118350	-0.191253	-0.628224
H78	H	1.396498	-0.191059	-1.106164
O79	O	1.718025	-0.697668	-0.306788
C80	C	1.859895	-0.635985	-0.292770
C81	C	1.785937	-0.666046	-0.366579
H82	H	1.914836	-0.610420	-0.341082
H83	H	1.811740	-0.610429	-0.237796
H84	H	1.907912	-0.664885	-0.244781
H85	H	1.737905	-0.637183	-0.414637
H86	H	1.834153	-0.691609	-0.421484
O87	O	1.650716	-0.317698	-1.114609
C88	C	1.783942	-0.384017	-1.103013
C89	C	1.710069	-0.347219	-1.042724
H90	H	1.831963	-0.407887	-1.044920
H91	H	1.735724	-0.411378	-1.154334
H92	H	1.838881	-0.359997	-1.154428
H93	H	1.655114	-0.371197	-0.991252
H94	H	1.758351	-0.319856	-0.991469
O95	O	1.126572	-0.317729	-0.373348
C96	C	1.114873	-0.383957	-0.239768
C97	C	1.054642	-0.347204	-0.313828
H98	H	1.056744	-0.407790	-0.191611
H99	H	1.166207	-0.411355	-0.287847
H100	H	1.166271	-0.359905	-0.184964
H101	H	1.003187	-0.371214	-0.368648
H102	H	1.003374	-0.319804	-0.265684
O103	O	0.910848	-0.186003	-0.638914
C104	C	0.922564	-0.119732	-0.772407
C105	C	0.982786	-0.156468	-0.698305
H106	H	0.980699	-0.095836	-0.820428
H107	H	0.871219	-0.143748	-0.827327
H108	H	0.871177	-0.092388	-0.724262
H109	H	1.034229	-0.183819	-0.746365
H110	H	1.034064	-0.132420	-0.643382
O111	O	1.650769	-0.554214	-0.373891
C112	C	1.792667	-0.615795	-0.359894
C113	C	1.718614	-0.585787	-0.433687
H114	H	1.847523	-0.641337	-0.408208
H115	H	1.840758	-0.586906	-0.311940
H116	H	1.744481	-0.641384	-0.304887
H117	H	1.766718	-0.560197	-0.488757
H118	H	1.670519	-0.614703	-0.481568
H119	H	1.639985	-0.450854	-0.384252
H120	H	1.707488	-0.801066	-0.317213
H121	H	1.396481	-1.052292	-0.627980
O122	O	1.651024	-0.948987	-0.373786
C123	C	1.784338	-0.954742	-0.240565
C124	C	1.710356	-0.984753	-0.314431
H125	H	1.832311	-0.983646	-0.192541
H126	H	1.839309	-0.929149	-0.288787
H127	H	1.736101	-0.929206	-0.185626
H128	H	1.758507	-1.010317	-0.369384
H129	H	1.655382	-1.010313	-0.266143
H130	H	1.640430	-1.052266	-0.384397
O131	O	1.385755	-0.949032	-0.638552
C132	C	1.252440	-0.954830	-0.771765
C133	C	1.326467	-0.984817	-0.697913
H134	H	1.204501	-0.983749	-0.819794
H135	H	1.197439	-0.929325	-0.723531
H136	H	1.300639	-0.929208	-0.826700
H137	H	1.278353	-1.010467	-0.642964
H138	H	1.381471	-1.010289	-0.746212
H139	H	1.329102	-0.801118	-0.695091
H140	H	1.329050	-0.702068	-0.695077
O141	O	1.385533	-0.554169	-0.638529
C142	C	1.252132	-0.548423	-0.771664
C143	C	1.326059	-0.518407	-0.697749
H144	H	1.204012	-0.519522	-0.819547
H145	H	1.300314	-0.573922	-0.826722
H146	H	1.197287	-0.574053	-0.723380
H147	H	1.380918	-0.492749	-0.745948
H148	H	1.277811	-0.492941	-0.642689
H149	H	1.396053	-0.450889	-0.627850
O150	O	1.650486	-0.317749	-0.898422
C151	C	1.664496	-0.388346	-0.774473
C152	C	1.590695	-0.351524	-0.834832
H153	H	1.616185	-0.415655	-0.723029
H154	H	1.712478	-0.412271	-0.832483
H155	H	1.719476	-0.364344	-0.723166
H156	H	1.535651	-0.375487	-0.886140
H157	H	1.542787	-0.327598	-0.776765
