data_functionalizedCrystal
_audit_creation_method	'MofGen! by Chris Wilmer'
_symmetry_space_group_name_H-M	'P1'
_symmetry_Int_Tables_number	1
_symmetry_cell_setting	triclinic
loop_
_symmetry_equiv_pos_as_xyz
  x,y,z
_cell_length_a	19.805407
_cell_length_b	16.120484
_cell_length_c	19.805398
_cell_angle_alpha	87.130307
_cell_angle_beta	90.013121
_cell_angle_gamma	92.925608
loop_
_atom_site_label
_atom_site_type_symbol
_atom_site_fract_x
_atom_site_fract_y
_atom_site_fract_z
Zn1	Zn	1.021031	-0.331919	0.396377
Zn2	Zn	1.354364	0.001415	0.729710
Zn3	Zn	1.687698	0.334748	1.063043
Zn4	Zn	1.015220	-0.471340	0.288925
Zn5	Zn	1.348553	-0.138006	0.622258
Zn6	Zn	1.681887	0.195327	0.955592
Zn7	Zn	0.907857	-0.331944	0.283202
Zn8	Zn	1.241191	0.001389	0.616536
Zn9	Zn	1.574524	0.334722	0.949869
Zn10	Zn	0.902073	-0.471293	0.402070
Zn11	Zn	1.235406	-0.137959	0.735403
Zn12	Zn	1.568739	0.195374	1.068736
O13	O	0.961545	-0.401624	0.342643
O14	O	1.294879	-0.068290	0.675977
O15	O	1.628212	0.265043	1.009310
O16	O	1.114976	-0.350422	0.382135
O17	O	1.448310	-0.017089	0.715469
O18	O	1.781643	0.316245	1.048802
O19	O	1.000967	-0.452879	0.193451
O20	O	1.334301	-0.119545	0.526784
O21	O	1.667634	0.213788	0.860117
O22	O	0.927723	-0.215275	0.293438
O23	O	1.261056	0.118058	0.626771
O24	O	1.594390	0.451392	0.960104
O25	O	1.110707	-0.452854	0.303191
O26	O	1.444040	-0.119521	0.636524
O27	O	1.777374	0.213813	0.969858
O28	O	1.010871	-0.215256	0.376586
O29	O	1.344204	0.118077	0.709920
O30	O	1.677538	0.451411	1.043253
O31	O	0.922088	-0.350466	0.189246
O32	O	1.255422	-0.017132	0.522579
O33	O	1.588755	0.316201	0.855913
O34	O	0.812374	-0.350420	0.298958
O35	O	1.145707	-0.017087	0.632291
O36	O	1.479040	0.316246	0.965625
O37	O	0.917864	-0.452774	0.496030
O38	O	1.251197	-0.119441	0.829363
O39	O	1.584530	0.213892	1.162697
O40	O	0.808124	-0.452799	0.386289
O41	O	1.141457	-0.119466	0.719623
O42	O	1.474790	0.213868	1.052956
O43	O	1.005262	-0.350377	0.491847
O44	O	1.338595	-0.017043	0.825181
O45	O	1.671929	0.316290	1.158514
O46	O	0.995358	-0.587999	0.308711
O47	O	1.328691	-0.254666	0.642045
O48	O	1.662025	0.078667	0.975378
O49	O	0.912229	-0.587965	0.391838
O50	O	1.245562	-0.254632	0.725172
O51	O	1.578896	0.078702	1.058505
C52	C	0.785690	-0.401608	0.342621
C53	C	1.119023	-0.068275	0.675954
C54	C	1.452357	0.265059	1.009288
C55	C	0.710457	-0.401621	0.342628
C56	C	1.043791	-0.068288	0.675961
C57	C	1.377124	0.265046	1.009295
C58	C	0.672915	-0.455010	0.388035
C59	C	1.006248	-0.121677	0.721368
C60	C	1.339581	0.211657	1.054702
C61	C	0.602226	-0.455011	0.388044
C62	C	0.935559	-0.121678	0.721378
C63	C	1.268893	0.211655	1.054711
C64	C	0.569081	-0.401628	0.342644
C65	C	0.902415	-0.068294	0.675977
C66	C	1.235748	0.265039	1.009310
C67	C	0.606629	-0.348233	0.297235
C68	C	0.939963	-0.014900	0.630568
C69	C	1.273296	0.318434	0.963901
C70	C	0.677317	-0.348228	0.297229
C71	C	1.010650	-0.014894	0.630562
C72	C	1.343983	0.318439	0.963896
C73	C	0.321555	-0.348251	0.297258
C74	C	0.654889	-0.014918	0.630591
C75	C	0.988222	0.318415	0.963925
C76	C	0.250863	-0.348262	0.297266
C77	C	0.584196	-0.014929	0.630599
C78	C	0.917529	0.318404	0.963932
C79	C	0.246465	-0.455035	0.388073
C80	C	0.579798	-0.121702	0.721407
C81	C	0.913131	0.211632	1.054740
C82	C	0.317152	-0.455030	0.388068
C83	C	0.650485	-0.121697	0.721401
C84	C	0.983819	0.211637	1.054734
C85	C	0.354694	-0.401632	0.342661
C86	C	0.688027	-0.068299	0.675995
C87	C	1.021361	0.265034	1.009328
C88	C	0.431342	-0.401630	0.342652
C89	C	0.764676	-0.068297	0.675986
C90	C	1.098009	0.265036	1.009319
C91	C	0.492434	-0.401633	0.342649
C92	C	0.825767	-0.068300	0.675982
C93	C	1.159101	0.265033	1.009315
C94	C	0.952554	-0.618232	0.351529
C95	C	1.285887	-0.284899	0.684862
C96	C	1.619220	0.048434	1.018195
C97	C	0.948769	-0.710898	0.355352
C98	C	1.282102	-0.377565	0.688686
C99	C	1.615436	-0.044232	1.022019
C100	C	0.941863	-0.880560	0.362347
C101	C	1.275196	-0.547227	0.695680
C102	C	1.608530	-0.213893	1.029014
C103	C	0.981349	-0.921847	0.322951
C104	C	1.314682	-0.588514	0.656284
C105	C	1.648016	-0.255180	0.989618
C106	C	0.977506	-1.016253	0.326843
C107	C	1.310840	-0.682919	0.660176
C108	C	1.644173	-0.349586	0.993510
C109	C	0.945704	-0.786146	0.358456
C110	C	1.279038	-0.452813	0.691789
C111	C	1.612371	-0.119479	1.025123
C112	C	1.138087	-0.401640	0.342666
C113	C	1.471421	-0.068307	0.676000
C114	C	1.804754	0.265026	1.009333
C115	C	1.213319	-0.401648	0.342676
C116	C	1.546652	-0.068314	0.676010
C117	C	1.879986	0.265019	1.009343
C118	C	0.961566	-0.401567	0.519184
C119	C	1.294899	-0.068234	0.852517
C120	C	1.628232	0.265099	1.185851
C121	C	0.961574	-0.401543	0.594415
C122	C	1.294908	-0.068210	0.927748
C123	C	1.628241	0.265123	1.261082
C124	C	0.970590	-0.184170	0.333739
C125	C	1.303924	0.149164	0.667072
C126	C	1.637257	0.482497	1.000405
C127	C	0.974445	-0.091503	0.329944
C128	C	1.307778	0.241830	0.663277
C129	C	1.641112	0.575163	0.996610
C130	C	0.961566	-0.401620	0.166787
C131	C	1.294900	-0.068286	0.500121
C132	C	1.628233	0.265047	0.833454
C133	C	0.961698	-0.401409	0.091547
C134	C	1.295032	-0.068076	0.424880
C135	C	1.628365	0.265258	0.758214
C136	C	1.002759	-0.454737	1.058388
C137	C	1.336092	-0.121404	1.391721
C138	C	1.669425	0.211929	1.725054
C139	C	1.002739	-0.454760	0.987700
C140	C	1.336072	-0.121427	1.321033
C141	C	1.669406	0.211907	1.654367
C142	C	0.961662	-0.401449	0.950173
C143	C	1.294996	-0.068116	1.283506
C144	C	1.628329	0.265217	1.616840
C145	C	0.920597	-0.348119	0.983337
C146	C	1.253931	-0.014785	1.316671
C147	C	1.587264	0.318548	1.650004
C148	C	0.920614	-0.348101	1.054024
C149	C	1.253947	-0.014768	1.387357
C150	C	1.587280	0.318566	1.720690
C151	C	0.920529	-0.348190	0.698267
C152	C	1.253862	-0.014857	1.031600
C153	C	1.587196	0.318477	1.364933
C154	C	0.920517	-0.348210	0.627576
C155	C	1.253850	-0.014877	0.960909
C156	C	1.587184	0.318456	1.294242
C157	C	1.002654	-0.454849	0.631943
C158	C	1.335988	-0.121516	0.965276
C159	C	1.669321	0.211817	1.298610
C160	C	1.002671	-0.454831	0.702630
C161	C	1.336004	-0.121498	1.035963
C162	C	1.669338	0.211835	1.369296
C163	C	0.961604	-0.401504	0.735788
C164	C	1.294937	-0.068171	1.069121
C165	C	1.628270	0.265163	1.402454
C166	C	0.961624	-0.401481	0.812435
C167	C	1.294958	-0.068148	1.145769
C168	C	1.628291	0.265185	1.479102
C169	C	0.961645	-0.401467	0.873527
C170	C	1.294978	-0.068134	1.206860
C171	C	1.628311	0.265199	1.540193
H172	H	0.223879	-0.304786	0.260295
H173	H	0.557212	0.028548	0.593628
H174	H	0.890546	0.361881	0.926961
Cl175	Cl	0.868869	-0.281187	0.739944
Cl176	Cl	1.202203	0.052146	1.073277
Cl177	Cl	1.535536	0.385479	1.406611
H178	H	0.352113	-0.304778	0.260280
H179	H	0.685447	0.028555	0.593614
H180	H	1.018780	0.361889	0.926947
Cl181	Cl	1.054313	-0.521852	0.749803
Cl182	Cl	1.387646	-0.188519	1.083136
Cl183	Cl	1.720980	0.144814	1.416469
H184	H	1.018039	-0.886293	0.286299
H185	H	1.351373	-0.552959	0.619633
H186	H	1.684706	-0.219626	0.952966
H187	H	0.905174	-0.916112	0.398995
H188	H	1.238508	-0.582779	0.732328
H189	H	1.571841	-0.249445	1.065662
H190	H	1.036212	-0.498145	1.088937
H191	H	1.369545	-0.164812	1.422270
H192	H	1.702878	0.168521	1.755604
H193	H	1.036166	-0.498195	0.960705
H194	H	1.369499	-0.164862	1.294039
H195	H	1.702833	0.168471	1.627372
Cl196	Cl	0.564962	-0.281116	0.240163
Cl197	Cl	0.898295	0.052218	0.573496
Cl198	Cl	1.231629	0.385551	0.906830
Cl199	Cl	1.054281	-0.521893	0.590254
Cl200	Cl	1.387614	-0.188560	0.923588
Cl201	Cl	1.720948	0.144774	1.256921
H202	H	0.571662	-0.498487	0.425019
H203	H	0.904995	-0.165153	0.758352
H204	H	1.238328	0.168180	1.091685
Cl205	Cl	0.868997	-0.281052	1.095710
Cl206	Cl	1.202330	0.052281	1.429043
Cl207	Cl	1.535663	0.385614	1.762377
Cl208	Cl	0.868967	-0.281088	0.936160
Cl209	Cl	1.202300	0.052246	1.269493
Cl210	Cl	1.535634	0.385579	1.602827
Cl211	Cl	0.714575	-0.522129	0.445111
Cl212	Cl	1.047908	-0.188796	0.778444
Cl213	Cl	1.381242	0.144537	1.111777
H214	H	0.887065	-0.304796	0.597023
H215	H	1.220399	0.028538	0.930356
H216	H	1.553732	0.361871	1.263689
H217	H	0.344135	-0.498503	0.425036
H218	H	0.677468	-0.165170	0.758369
H219	H	1.010801	0.168163	1.091702
Cl220	Cl	0.724514	-0.281105	0.240145
Cl221	Cl	1.057847	0.052228	0.573479
Cl222	Cl	1.391180	0.385561	0.906812
Cl223	Cl	0.199265	-0.522164	0.445157
Cl224	Cl	0.532598	-0.188831	0.778490
Cl225	Cl	0.865932	0.144503	1.111824
