data_functionalizedCrystal
_audit_creation_method	'MofGen! by Chris Wilmer'
_symmetry_space_group_name_H-M	'P1'
_symmetry_Int_Tables_number	1
_symmetry_cell_setting	triclinic
loop_
_symmetry_equiv_pos_as_xyz
  x,y,z
_cell_length_a	13.635800
_cell_length_b	23.752930
_cell_length_c	25.237185
_cell_angle_alpha	85.431682
_cell_angle_beta	112.073875
_cell_angle_gamma	79.933953
loop_
_atom_site_label
_atom_site_type_symbol
_atom_site_fract_x
_atom_site_fract_y
_atom_site_fract_z
V1	V	-2.017147	0.178720	-0.079916
O2	O	-1.987643	0.174985	0.003064
O3	O	-2.015182	0.177818	-0.157713
O4	O	-1.984415	0.256519	-0.079027
O5	O	-2.018624	0.095738	-0.076167
V6	V	-2.257185	0.168756	-0.069950
O7	O	-2.151556	0.200577	-0.101776
O8	O	-2.347875	0.146898	-0.048090
O9	O	-2.147548	0.169658	0.007847
O10	O	-2.345387	0.172491	-0.152930
O11	O	-2.314407	0.251737	-0.073700
O12	O	-2.178315	0.090956	-0.070839
V13	V	-1.517147	0.178720	-0.079916
O14	O	-1.487643	0.174985	0.003064
O15	O	-1.515182	0.177818	-0.157713
O16	O	-1.484415	0.256519	-0.079027
O17	O	-1.518624	0.095738	-0.076167
V18	V	-1.757185	0.168756	-0.069950
O19	O	-1.651556	0.200577	-0.101776
O20	O	-1.847875	0.146898	-0.048090
O21	O	-1.647548	0.169658	0.007847
O22	O	-1.845387	0.172491	-0.152930
O23	O	-1.814407	0.251737	-0.073700
O24	O	-1.678315	0.090956	-0.070839
C25	C	-1.943367	0.175081	-0.176668
C26	C	-1.982347	0.174862	-0.240271
C27	C	-1.904120	0.275472	-0.076295
C28	C	-1.918146	0.339076	-0.076084
C29	C	-2.051034	0.172393	0.026799
C30	C	-2.001673	0.172615	0.090401
C31	C	-2.090281	0.072000	-0.073573
C32	C	-2.065873	0.008396	-0.073782
C33	C	-2.092248	0.177630	-0.273069
C34	C	-2.128890	0.177433	-0.332832
C35	C	-2.055629	0.174464	-0.359795
C36	C	-1.945718	0.171698	-0.326993
C37	C	-1.909079	0.171899	-0.267232
C38	C	-2.096763	0.736407	-0.077585
C39	C	-2.109951	0.796168	-0.077379
O40	O	-2.194627	0.829562	-0.079691
N41	N	-2.024985	0.823132	-0.074411
C42	C	-1.926820	0.790331	-0.071644
O43	O	-1.855760	0.818753	-0.069100
C44	C	-1.913630	0.730569	-0.071846
C45	C	-1.998607	0.703609	-0.074820
C46	C	-2.181732	0.709446	-0.080559
C47	C	-2.168544	0.649689	-0.080766
C48	C	-2.070388	0.616892	-0.078001
C49	C	-1.985419	0.643852	-0.075028
C50	C	-1.815463	0.697768	-0.069074
C51	C	-1.802280	0.638003	-0.069277
C52	C	-1.887257	0.611043	-0.072251
C53	C	-1.874076	0.551298	-0.072470
N54	N	-1.959042	0.524333	-0.075438
C55	C	-2.057198	0.557131	-0.078203
C56	C	-1.954526	0.915833	-0.071218
C57	C	-1.967717	0.975594	-0.071019
C58	C	-2.150847	0.981427	-0.076754
C59	C	-2.137658	0.921666	-0.076956
C60	C	-2.039492	0.888869	-0.074186
C61	C	-2.029498	0.431636	-0.078639
C62	C	-2.016303	0.371873	-0.078849
C63	C	-1.833172	0.366044	-0.073112
C64	C	-1.846367	0.425802	-0.072905
C65	C	-1.944537	0.458596	-0.075667
O66	O	-1.789430	0.517867	-0.070156
O67	O	-2.128239	0.528699	-0.080739
C68	C	-1.443367	0.175081	-0.176668
C69	C	-1.482347	0.174862	-0.240271
C70	C	-1.781427	0.171062	0.487740
C71	C	-1.735056	0.171262	0.547503
O72	O	-1.784004	0.168907	0.580903
N73	N	-1.626094	0.174232	0.574466
C74	C	-1.563498	0.176997	0.541664
O75	O	-1.466559	0.179541	0.570087
C76	C	-1.609866	0.176793	0.481903
C77	C	-1.718834	0.173828	0.454942
C78	C	-1.890387	0.168097	0.460779
C79	C	-1.936755	0.167899	0.401020
C80	C	-1.874162	0.170665	0.368222
C81	C	-1.765202	0.173630	0.395183
C82	C	-1.547268	0.179554	0.449103
C83	C	-1.593647	0.179349	0.389339
C84	C	-1.702614	0.176385	0.362378
C85	C	-1.748977	0.176198	0.302627
N86	N	-1.857938	0.173228	0.275664
C87	C	-1.920531	0.170461	0.308461
C88	C	-1.466126	0.177424	0.667167
C89	C	-1.419759	0.177632	0.726926
C90	C	-1.591320	0.171896	0.732760
C91	C	-1.637689	0.171692	0.672999
C92	C	-1.575087	0.174453	0.640203
C93	C	-2.017900	0.170045	0.182963
C94	C	-2.064266	0.169849	0.123198
C95	C	-1.892700	0.175582	0.117370
C96	C	-1.846339	0.175781	0.177129
C97	C	-1.908947	0.173010	0.209925
O98	O	-1.700095	0.178548	0.269190
O99	O	-2.017459	0.167910	0.280033
C100	C	-1.404120	0.275472	-0.076295
C101	C	-1.418146	0.339076	-0.076084
C102	C	-1.551034	0.172393	0.026799
C103	C	-1.501673	0.172615	0.090401
C104	C	-1.590281	0.072000	-0.073573
C105	C	-1.565873	0.008396	-0.073782
C106	C	-1.516303	0.371873	-0.078849
C107	C	-1.529491	0.431635	-0.078643
C108	C	-1.444525	0.458599	-0.075675
C109	C	-1.346360	0.425797	-0.072907
C110	C	-1.333170	0.366036	-0.073110
C111	C	-1.564266	0.169849	0.123198
C112	C	-1.517895	0.170049	0.182961
C113	C	-1.408934	0.173019	0.209925
C114	C	-1.346337	0.175784	0.177123
C115	C	-1.392706	0.175580	0.117362
C116	C	-1.468606	-0.018554	-0.076743
C117	C	-1.445652	-0.078317	-0.076933
C118	C	-1.519971	-0.111130	-0.074165
C119	C	-1.617246	-0.084177	-0.071201
C120	C	-1.640194	-0.024415	-0.071008
H121	H	-2.151916	0.180044	-0.251123
H122	H	-1.819586	0.169642	-0.240531
H123	H	-1.677748	-0.110902	-0.068946
H124	H	-2.025480	0.165483	0.379074
H125	H	-1.585499	0.349927	-0.081267
H126	H	-1.501278	-0.159790	-0.074330
H127	H	-1.408078	0.008155	-0.078997
H128	H	-1.886077	0.169281	-0.348956
H129	H	-2.218387	0.179684	-0.359531
H130	H	-1.371190	0.173184	0.258586
H131	H	-1.366442	-0.100254	-0.079346
H132	H	-1.941368	0.165842	0.487477
H133	H	-1.455279	0.507261	-0.075511
H134	H	-1.253239	0.339337	-0.070859
H135	H	-1.257616	0.178201	0.199086
H136	H	-1.652990	0.167431	0.101253
H137	H	-1.609430	0.458334	-0.080898
H138	H	-2.230773	1.008142	-0.079005
H139	H	-1.726415	0.169277	0.651052
H140	H	-1.777176	0.447755	-0.070490
H141	H	-1.341729	0.177838	0.090661
H142	H	-1.722332	0.611300	-0.067006
H143	H	-1.277185	0.447760	-0.070491
H144	H	-1.719403	-0.002477	-0.068600
H145	H	-2.085477	0.174301	-0.408457
H146	H	-2.085507	0.349926	-0.081273
H147	H	-2.109435	0.458330	-0.080889
H148	H	-2.206855	0.899720	-0.079377
H149	H	-2.261663	0.736144	-0.082809
H150	H	-2.237742	0.627743	-0.083185
H151	H	-1.757615	0.178205	0.199080
H152	H	-1.898524	0.997541	-0.068606
H153	H	-1.746263	0.719708	-0.066653
H154	H	-1.874584	0.889133	-0.068961
H155	H	-1.331038	0.180055	0.748871
H156	H	-1.753255	0.339331	-0.070863
H157	H	-2.152999	0.167436	0.101250
H158	H	-1.642279	0.169641	0.759475
H159	H	-2.068888	0.167786	0.209659
H160	H	-1.458544	0.181966	0.471045
H161	H	-1.415143	0.179682	0.640466
H162	H	-1.542668	0.181609	0.362637
H163	H	-1.841749	0.177837	0.090655
H164	H	-1.568881	0.167798	0.209660
