data_functionalizedCrystal
_audit_creation_method	'MofGen! by Chris Wilmer'
_symmetry_space_group_name_H-M	'P1'
_symmetry_Int_Tables_number	1
_symmetry_cell_setting	triclinic
loop_
_symmetry_equiv_pos_as_xyz
  x,y,z
_cell_length_a	27.731994
_cell_length_b	27.732048
_cell_length_c	9.130307
_cell_angle_alpha	89.991788
_cell_angle_beta	90.004579
_cell_angle_gamma	82.631595
loop_
_atom_site_label
_atom_site_type_symbol
_atom_site_fract_x
_atom_site_fract_y
_atom_site_fract_z
O1	O	0.640942	0.057391	-0.121606
O2	O	0.500145	0.066164	-0.121657
O3	O	0.574917	-0.008620	-0.121602
O4	O	0.566171	0.132175	-0.121661
O5	O	0.574914	-0.008620	0.121997
O6	O	0.500143	0.066164	0.121942
O7	O	0.640940	0.057391	0.121993
Cu8	Cu	0.570541	0.061777	0.144210
Cu9	Cu	0.570544	0.061778	-0.143874
O10	O	0.566168	0.132175	0.121938
C11	C	0.482137	0.065984	0.000136
C12	C	0.428480	0.065442	0.000118
C13	C	0.095760	0.062025	0.132962
C14	C	-0.105898	0.059964	0.132979
O15	O	-0.131971	0.059676	0.245908
N16	N	-0.131111	0.059708	0.000194
C17	C	-0.105907	0.059965	-0.132606
O18	O	-0.131979	0.059695	-0.245548
C19	C	0.095751	0.062023	-0.132622
C20	C	0.120961	0.062283	0.000173
C21	C	0.120971	0.062285	0.265745
C22	C	0.171382	0.062803	0.265740
C23	C	0.196583	0.063062	0.132950
C24	C	0.171372	0.062801	0.000167
C25	C	0.120955	0.062276	-0.265420
C26	C	0.171373	0.062789	-0.265412
C27	C	0.196583	0.063050	-0.132617
C28	C	0.246984	0.063578	-0.132628
N29	N	0.272198	0.063833	0.000158
C30	C	0.246997	0.063575	0.132947
C31	C	-0.211780	0.058885	-0.132588
C32	C	-0.262194	0.058372	-0.132584
C33	C	-0.262182	0.058370	0.133001
C34	C	-0.211767	0.058887	0.132996
C35	C	-0.186566	0.059141	0.000198
C36	C	0.352864	0.064663	0.132925
C37	C	0.403279	0.065184	0.132907
C38	C	0.403263	0.065183	-0.132677
C39	C	0.352852	0.064665	-0.132661
C40	C	0.327654	0.064404	0.000152
O41	O	0.273090	0.063860	-0.245498
O42	O	0.273079	0.063834	0.245872
C43	C	0.045349	0.061507	0.132968
C44	C	0.020139	0.061247	0.000184
C45	C	0.045340	0.061505	-0.132605
C46	C	-0.030275	0.060734	0.000188
C47	C	-0.055476	0.060476	0.132977
C48	C	-0.030263	0.060731	0.265762
C49	C	0.020149	0.061249	0.265757
C50	C	0.020126	0.061250	-0.265391
C51	C	-0.030285	0.060732	-0.265374
C52	C	-0.055486	0.060474	-0.132585
C53	C	0.574732	-0.026627	0.000201
C54	C	0.574179	-0.080282	0.000213
C55	C	0.614884	-0.419105	0.000153
C56	C	0.612833	-0.620764	0.000132
O57	O	0.650055	-0.652027	0.000081
N58	N	0.568496	-0.639879	0.000117
C59	C	0.524670	-0.608576	0.000098
O60	O	0.486912	-0.629462	0.000070
C61	C	0.526721	-0.406918	0.000109
C62	C	0.571061	-0.387805	0.000138
C63	C	0.659220	-0.399992	0.000181
C64	C	0.659732	-0.349580	0.000194
C65	C	0.615908	-0.318281	0.000179
C66	C	0.571573	-0.337394	0.000151
C67	C	0.482895	-0.375615	0.000079
C68	C	0.483412	-0.325198	0.000078
C69	C	0.527751	-0.306086	0.000108
C70	C	0.528262	-0.255683	0.000150
N71	N	0.572598	-0.236567	0.000165
C72	C	0.616421	-0.267867	0.000179
C73	C	0.523596	-0.714450	0.000095
C74	C	0.523083	-0.764864	0.000095
C75	C	0.611246	-0.777049	0.000126
C76	C	0.611759	-0.726633	0.000137
C77	C	0.567932	-0.695335	0.000110
C78	C	0.617494	-0.161998	0.000208
C79	C	0.618002	-0.111581	0.000228
C80	C	0.529839	-0.099401	0.000189
C81	C	0.529331	-0.149813	0.000178
C82	C	0.573162	-0.181111	0.000182
O83	O	0.491060	-0.224391	0.000184
O84	O	0.654174	-0.246971	0.000175
C85	C	0.614372	-0.469517	0.000139
C86	C	0.570036	-0.488629	0.000112
C87	C	0.526213	-0.457330	0.000097
C88	C	0.569523	-0.539043	0.000111
C89	C	0.613346	-0.570343	0.000126
C90	C	0.657683	-0.551228	0.000141
C91	C	0.658195	-0.500816	0.000154
C92	C	0.481876	-0.476445	0.000082
C93	C	0.481367	-0.526857	0.000071
C94	C	0.525191	-0.558157	0.000085
C95	C	0.658949	0.057571	0.000196
C96	C	0.712605	0.058114	0.000205
C97	C	0.566353	0.150182	0.000131
C98	C	0.566906	0.203837	0.000110
N99	N	0.570543	0.061776	0.346833
N100	N	0.570546	0.061775	-0.346497
C101	C	0.636779	-0.004426	0.346871
C102	C	0.669901	-0.037526	0.423557
C103	C	0.669906	-0.037527	0.576891
C104	C	0.636784	-0.004424	0.653542
C105	C	0.603663	0.028675	0.576856
C106	C	0.603663	0.028673	0.423519
C107	C	0.537425	0.094875	0.576817
C108	C	0.537421	0.094878	0.423484
C109	C	0.504304	0.127977	0.653468
C110	C	0.471184	0.161080	0.576782
C111	C	0.471180	0.161079	0.423439
C112	C	0.504300	0.127978	0.346798
H113	H	-0.191244	0.059100	0.241129
C114	C	0.199110	0.063084	0.411811
H115	H	0.232745	0.063430	0.392810
H116	H	0.194745	0.034799	0.466375
H117	H	0.186948	0.091201	0.466359
H118	H	0.636783	-0.004425	0.222019
H119	H	0.040640	0.061458	-0.373526
H120	H	0.694908	-0.425472	0.000187
H121	H	0.504307	0.127973	0.778320
H122	H	0.444207	0.188032	0.361009
C123	C	0.434743	0.197477	0.661090
H124	H	0.415012	0.217186	0.593462
H125	H	0.451967	0.217480	0.720926
H126	H	0.414758	0.180211	0.720883
H127	H	0.504302	0.127977	0.221945
H128	H	0.447722	-0.299716	0.000054
H129	H	0.486977	-0.780420	0.000096
H130	H	0.647863	-0.711076	0.000159
H131	H	0.493226	-0.165375	0.000194
H132	H	0.696867	-0.064479	0.361135
C133	C	0.481638	-0.064966	0.000165
H134	H	0.488297	-0.032205	0.000158
H135	H	0.463435	-0.070725	0.085097
H136	H	0.463446	-0.070718	-0.084811
H137	H	0.696874	-0.064481	0.639329
H138	H	0.487905	-0.688970	0.000074
H139	H	0.636787	-0.004431	0.778394
C140	C	0.430991	0.065462	-0.278734
H141	H	0.464626	0.065802	-0.259707
H142	H	0.418831	0.093574	-0.333327
H143	H	0.426628	0.037172	-0.333267
C144	C	-0.289906	0.058083	0.279070
H145	H	-0.267674	0.058311	0.358163
H146	H	-0.305674	0.029683	0.284586
H147	H	-0.313472	0.086085	0.284580
H148	H	-0.282717	0.058167	-0.240719
C149	C	0.666777	-0.090560	0.000252
H150	H	0.692802	-0.116424	0.000242
H151	H	0.668812	-0.071153	0.085203
H152	H	0.668811	-0.071142	-0.084704
C153	C	0.431009	0.065464	0.278987
H154	H	0.408778	0.065230	0.358068
H155	H	0.446777	0.093864	0.284508
H156	H	0.454575	0.037462	0.284511
C157	C	0.325117	0.064395	-0.278729
H158	H	0.347348	0.064624	-0.357813
H159	H	0.301550	0.092393	-0.284243
H160	H	0.309351	0.035991	-0.284257
H161	H	0.446789	-0.391167	0.000046
H162	H	0.332353	0.064455	0.241074
H163	H	0.100458	0.062074	0.373884
C164	C	0.705887	-0.585663	0.000146
H165	H	0.699227	-0.618424	0.000122
H166	H	0.724088	-0.579916	0.085096
H167	H	0.724081	-0.579900	-0.084811
C168	C	-0.058011	0.060445	-0.411458
H169	H	-0.035777	0.060668	-0.490536
H170	H	-0.081581	0.088440	-0.417009
H171	H	-0.073772	0.032038	-0.416959
H172	H	0.694301	-0.485260	0.000178
H173	H	0.100438	0.062063	-0.373555
C174	C	-0.184066	0.059170	-0.278676
H175	H	-0.206308	0.058950	-0.357746
H176	H	-0.160500	0.031173	-0.284206
H177	H	-0.168302	0.087575	-0.284211
H178	H	0.445258	-0.542413	0.000059
H179	H	0.040670	0.061462	0.373892
C180	C	0.665707	-0.196418	0.000226
H181	H	0.692182	-0.177809	0.000258
H182	H	0.667347	-0.216334	-0.084722
H183	H	0.667339	-0.216342	0.085186
H184	H	0.446189	-0.450966	0.000067
H185	H	0.695837	-0.334024	0.000212
H186	H	-0.050790	0.060524	0.373884
C187	C	0.659451	-0.811484	0.000119
H188	H	0.652791	-0.844244	0.000099
H189	H	0.677655	-0.805736	0.085062
H190	H	0.677641	-0.805720	-0.084845
H191	H	0.191889	0.062996	-0.373555
