data_functionalizedCrystal
_audit_creation_method	'MofGen! by Chris Wilmer'
_symmetry_space_group_name_H-M	'P1'
_symmetry_Int_Tables_number	1
_symmetry_cell_setting	triclinic
loop_
_symmetry_equiv_pos_as_xyz
  x,y,z
_cell_length_a	23.532407
_cell_length_b	27.732048
_cell_length_c	22.610064
_cell_angle_alpha	89.999096
_cell_angle_beta	89.997161
_cell_angle_gamma	82.745667
loop_
_atom_site_label
_atom_site_type_symbol
_atom_site_fract_x
_atom_site_fract_y
_atom_site_fract_z
O1	O	0.755138	0.058672	-0.049117
O2	O	1.255138	0.558672	0.450883
O3	O	0.589257	0.067162	-0.049135
O4	O	1.089257	0.567162	0.450865
O5	O	0.677349	-0.007472	-0.049114
O6	O	1.177349	0.492528	0.450886
O7	O	0.667046	0.133306	-0.049138
O8	O	1.167046	0.633306	0.450862
O9	O	0.677334	-0.007461	0.049255
O10	O	1.177334	0.492539	0.549255
O11	O	0.589241	0.067173	0.049234
O12	O	1.089241	0.567173	0.549234
O13	O	0.755123	0.058683	0.049252
O14	O	1.255123	0.558683	0.549252
Zn15	Zn	0.672179	0.062930	0.064861
Zn16	Zn	1.172179	0.562930	0.564861
Zn17	Zn	0.672200	0.062915	-0.064744
Zn18	Zn	1.172200	0.562915	0.435256
O19	O	0.667030	0.133317	0.049231
O20	O	1.167030	0.633317	0.549231
C21	C	0.568033	0.066952	0.000047
C22	C	1.068033	0.566952	0.500047
C23	C	0.504818	0.066302	0.000041
C24	C	1.004818	0.566302	0.500041
C25	C	0.105629	0.106391	0.000061
C26	C	0.605629	0.606391	0.500061
C27	C	0.046230	0.105787	0.000064
C28	C	0.546230	0.605787	0.500064
O29	O	0.009406	0.142951	0.000080
O30	O	0.509406	0.642951	0.500080
N31	N	0.023699	0.061418	0.000071
N32	N	0.523699	0.561418	0.500071
C33	C	0.060570	0.017649	0.000080
C34	C	0.560570	0.517649	0.500080
O35	O	0.035951	-0.020147	0.000086
O36	O	0.535951	0.479853	0.500086
C37	C	0.119967	0.018253	0.000080
C38	C	0.619967	0.518253	0.500080
C39	C	0.142495	0.062626	0.000068
C40	C	0.642495	0.562626	0.500068
C41	C	0.128158	0.150760	0.000049
C42	C	0.628158	0.650760	0.500049
C43	C	0.187552	0.151364	0.000044
C44	C	0.687552	0.651364	0.500044
C45	C	0.224419	0.107599	0.000051
C46	C	0.724419	0.607599	0.500051
C47	C	0.201890	0.063229	0.000063
C48	C	0.701890	0.563229	0.500063
C49	C	0.156837	-0.025515	0.000093
C50	C	0.656837	0.474485	0.500093
C51	C	0.216239	-0.024907	0.000094
C52	C	0.716239	0.475093	0.500094
C53	C	0.238766	0.019466	0.000082
C54	C	0.738766	0.519466	0.500082
C55	C	0.298151	0.020068	0.000065
C56	C	0.798151	0.520068	0.500065
N57	N	0.320683	0.064437	0.000059
N58	N	0.820683	0.564437	0.500059
C59	C	0.283817	0.108203	0.000052
C60	C	0.783817	0.608203	0.500052
C61	C	-0.064170	0.016383	0.000080
C62	C	0.435830	0.516383	0.500080
C63	C	-0.123567	0.015778	0.000075
C64	C	0.376433	0.515778	0.500075
C65	C	-0.137902	0.103917	0.000061
C66	C	0.362098	0.603917	0.500061
C67	C	-0.078505	0.104521	0.000061
C68	C	0.421495	0.604521	0.500061
C69	C	-0.041639	0.060753	0.000073
C70	C	0.458361	0.560753	0.500073
C71	C	0.408551	0.109467	0.000041
C72	C	0.908551	0.609467	0.500041
C73	C	0.467951	0.110067	0.000034
C74	C	0.967951	0.610067	0.500034
C75	C	0.482282	0.021928	0.000051
C76	C	0.982282	0.521928	0.500051
C77	C	0.422886	0.021328	0.000055
C78	C	0.922886	0.521328	0.500055
C79	C	0.386021	0.065102	0.000052
C80	C	0.886021	0.565102	0.500052
O81	O	0.335010	-0.017077	0.000052
O82	O	0.835010	0.482923	0.500052
O83	O	0.308444	0.145992	0.000053
O84	O	0.808444	0.645992	0.500053
C85	C	0.677125	-0.025473	0.000072
C86	C	1.177125	0.474527	0.500072
C87	C	0.676474	-0.079129	0.000077
C88	C	1.176474	0.420871	0.500077
C89	C	0.724431	-0.417871	0.000052
C90	C	1.224431	0.082129	0.500052
C91	C	0.722014	-0.619534	0.000043
C92	C	1.222014	-0.119534	0.500043
O93	O	0.765867	-0.650722	0.000022
O94	O	1.265867	-0.150722	0.500022
N95	N	0.669779	-0.638738	0.000038
N96	N	1.169779	-0.138738	0.500038
C97	C	0.618144	-0.607523	0.000031
C98	C	1.118144	-0.107523	0.500031
O99	O	0.573659	-0.628484	0.000020
O100	O	1.073659	-0.128484	0.500020
C101	C	0.620561	-0.405860	0.000035
C102	C	1.120561	0.094140	0.500035
C103	C	0.672800	-0.386659	0.000046
C104	C	1.172800	0.113341	0.500046
C105	C	0.776665	-0.398669	0.000062
C106	C	1.276665	0.101331	0.500062
C107	C	0.777269	-0.348256	0.000067
C108	C	1.277269	0.151744	0.500067
C109	C	0.725638	-0.317045	0.000062
C110	C	1.225638	0.182955	0.500062
C111	C	0.673403	-0.336247	0.000052
C112	C	1.173403	0.163753	0.500052
C113	C	0.568927	-0.374646	0.000024
C114	C	1.068927	0.125354	0.500024
C115	C	0.569536	-0.324228	0.000024
C116	C	1.069536	0.175772	0.500024
C117	C	0.621775	-0.305027	0.000035
C118	C	1.121775	0.194973	0.500035
C119	C	0.622376	-0.254622	0.000052
C120	C	1.122376	0.245378	0.500052
N121	N	0.674611	-0.235418	0.000057
N122	N	1.174611	0.264582	0.500057
C123	C	0.726242	-0.266630	0.000062
C124	C	1.226242	0.233370	0.500062
C125	C	0.616879	-0.713399	0.000030
C126	C	1.116879	-0.213399	0.500030
C127	C	0.616274	-0.763814	0.000030
C128	C	1.116274	-0.263814	0.500030
C129	C	0.720145	-0.775822	0.000041
C130	C	1.220145	-0.275822	0.500041
C131	C	0.720749	-0.725406	0.000045
C132	C	1.220749	-0.225406	0.500045
C133	C	0.669114	-0.694195	0.000035
C134	C	1.169114	-0.194195	0.500035
C135	C	0.727506	-0.160758	0.000074
C136	C	1.227506	0.339242	0.500074
C137	C	0.728105	-0.110341	0.000082
C138	C	1.228105	0.389659	0.500082
C139	C	0.624235	-0.098337	0.000068
C140	C	1.124235	0.401663	0.500068
C141	C	0.623635	-0.148751	0.000063
C142	C	1.123635	0.351249	0.500063
C143	C	0.675276	-0.179961	0.000064
C144	C	1.175276	0.320039	0.500064
O145	O	0.578547	-0.223406	0.000066
O146	O	1.078547	0.276594	0.500066
O147	O	0.770721	-0.245659	0.000060
O148	O	1.270721	0.254341	0.500060
C149	C	0.723827	-0.468283	0.000046
C150	C	1.223827	0.031717	0.500046
C151	C	0.671593	-0.487485	0.000036
C152	C	1.171593	0.012515	0.500036
C153	C	0.619962	-0.456274	0.000030
C154	C	1.119962	0.043726	0.500030
C155	C	0.670988	-0.537900	0.000036
C156	C	1.170988	-0.037900	0.500036
C157	C	0.722619	-0.569112	0.000041
C158	C	1.222619	-0.069112	0.500041
C159	C	0.774855	-0.549908	0.000046
C160	C	1.274855	-0.049908	0.500046
C161	C	0.775458	-0.499495	0.000051
C162	C	1.275458	0.000505	0.500051
C163	C	0.567727	-0.475478	0.000025
C164	C	1.067727	0.024522	0.500025
C165	C	0.567127	-0.525891	0.000021
C166	C	1.067127	-0.025891	0.500021
C167	C	0.618758	-0.557103	0.000026
C168	C	1.118758	-0.057103	0.500026
C169	C	0.776346	0.058894	0.000068
C170	C	1.276346	0.558894	0.500068
C171	C	0.839562	0.059544	0.000071
C172	C	1.339562	0.559544	0.500071
C173	C	0.667254	0.151319	0.000044
C174	C	1.167254	0.651319	0.500044
C175	C	0.667905	0.204975	0.000035
C176	C	1.167905	0.704975	0.500035
N177	N	0.672170	0.062939	0.153314
N178	N	1.172170	0.562939	0.653314
N179	N	0.672214	0.062902	-0.153197
N180	N	1.172214	0.562902	0.346803
C181	C	0.711209	0.029873	0.561964
C182	C	1.211209	0.529873	1.061964
C183	C	0.711212	0.029869	0.623884
C184	C	1.211212	0.529869	1.123884
O185	O	0.744380	0.001762	0.655911
O186	O	1.244380	0.501762	1.155911
N187	N	0.672200	0.062905	0.654851
N188	N	1.172200	0.562905	1.154851
C189	C	0.633178	0.095944	0.623894
C190	C	1.133178	0.595944	1.123894
O191	O	0.599995	0.124044	0.655919
O192	O	1.099995	0.624044	1.155919
C193	C	0.633173	0.095945	0.561975
C194	C	1.133173	0.595945	1.061975
C195	C	0.672191	0.062910	0.531012
C196	C	1.172191	0.562910	1.031012
C197	C	0.750224	-0.003160	0.531001
C198	C	1.250224	0.496840	1.031001
C199	C	0.750222	-0.003156	0.469085
C200	C	1.250222	0.496844	0.969085
C201	C	0.711204	0.029881	0.438133
C202	C	1.211204	0.529881	0.938133
C203	C	0.672189	0.062914	0.469096
C204	C	1.172189	0.562914	0.969096
C205	C	0.594149	0.128981	0.531020
C206	C	1.094149	0.628981	1.031020
C207	C	0.594146	0.128979	0.469097
C208	C	1.094146	0.628979	0.969097
C209	C	0.633165	0.095944	0.438134
C210	C	1.133165	0.595944	0.938134
C211	C	0.633169	0.095955	0.376229
C212	C	1.133169	0.595955	0.876229
N213	N	0.672182	0.062919	0.345262
N214	N	1.172182	0.562919	0.845262
C215	C	0.711199	0.029882	0.376214
C216	C	1.211199	0.529882	0.876214
C217	C	0.633191	0.095939	0.753928
C218	C	1.133191	0.595939	1.253928
C219	C	0.633198	0.095941	0.815846
C220	C	1.133198	0.595941	1.315846
C221	C	0.711232	0.029865	0.815831
C222	C	1.211232	0.529865	1.315831
C223	C	0.711227	0.029866	0.753912
C224	C	1.211227	0.529866	1.253912
C225	C	0.672203	0.062903	0.722961
C226	C	1.172203	0.562903	1.222961
C227	C	0.711192	0.029894	0.246187
C228	C	1.211192	0.529894	0.746187
C229	C	0.711187	0.029902	0.184266
C230	C	1.211187	0.529902	0.684266
C231	C	0.633152	0.095976	0.184286
C232	C	1.133152	0.595976	0.684286
C233	C	0.633158	0.095969	0.246201
C234	C	1.133158	0.595969	0.746201
C235	C	0.672180	0.062924	0.277150
C236	C	1.172180	0.562924	0.777150
O237	O	0.600016	0.124047	0.344163
O238	O	1.100016	0.624047	0.844163
O239	O	0.744372	0.001783	0.344182
O240	O	1.244372	0.501783	0.844182
H241	H	0.512309	-0.013704	0.000054
H242	H	1.012309	0.486296	0.500054
C243	C	0.590270	0.132289	0.719887
C244	C	1.090270	0.632289	1.219887
H245	H	0.567043	0.151965	0.747202
H246	H	1.067043	0.651965	1.247202
H247	H	0.566712	0.115008	0.695733
H248	H	1.066712	0.615008	1.195733
H249	H	0.610580	0.152326	0.695733
H250	H	1.110580	0.652326	1.195733
C251	C	0.834730	-0.327139	0.000076
C252	C	1.334730	0.172861	0.500076
H253	H	0.827703	-0.292643	0.000082
H254	H	1.327703	0.207357	0.500082
H255	H	0.855975	-0.337871	-0.034225
H256	H	1.355975	0.162129	0.465775
H257	H	0.855961	-0.337872	0.034387
H258	H	1.355961	0.162128	0.534387
C259	C	0.087613	0.198907	0.000036
C260	C	0.587613	0.698907	0.500036
H261	H	0.109546	0.225414	0.000024
H262	H	0.609546	0.725414	0.500024
H263	H	0.064137	0.200516	0.034336
H264	H	0.564137	0.700516	0.534336
H265	H	0.064150	0.200499	-0.034275
H266	H	0.564150	0.700499	0.465725
H267	H	-0.060167	0.140653	0.000054
H268	H	0.439833	0.640653	0.500054
H269	H	0.816894	-0.575329	0.000053
H270	H	1.316894	-0.075329	0.500053
H271	H	0.743002	0.002964	0.841044
H272	H	1.243002	0.502964	1.341044
C273	C	0.590232	0.132311	0.150230
C274	C	1.090232	0.632311	0.650230
H275	H	0.595817	0.127574	0.108920
H276	H	1.095817	0.627574	0.608920
H277	H	0.596122	0.164548	0.160373
H278	H	1.096122	0.664548	0.660373
H279	H	0.552271	0.127215	0.160381
H280	H	1.052271	0.627215	0.660381
H281	H	0.486290	0.146202	0.000023
H282	H	0.986290	0.646202	0.500023
C283	C	0.754116	-0.006431	0.150207
C284	C	1.254116	0.493569	0.650207
H285	H	0.748535	-0.001694	0.108896
H286	H	1.248535	0.498306	0.608896
H287	H	0.748226	-0.038669	0.160349
H288	H	1.248226	0.461331	0.660349
H289	H	0.792075	-0.001334	0.160358
H290	H	1.292075	0.498666	0.660358
C291	C	0.368008	0.157617	0.000030
C292	C	0.868008	0.657617	0.500030
H293	H	0.389939	0.184124	0.000016
H294	H	0.889939	0.684124	0.500016
H295	H	0.344535	0.159225	0.034332
H296	H	0.844535	0.659225	0.534332
H297	H	0.344543	0.159208	-0.034279
H298	H	0.844543	0.659208	0.465721
C299	C	0.793136	-0.039501	0.435033
C300	C	1.293136	0.460499	0.935033
H301	H	0.816367	-0.059178	0.462343
H302	H	1.316367	0.440822	0.962343
H303	H	0.816692	-0.022220	0.410874
H304	H	1.316692	0.477780	0.910874
H305	H	0.772822	-0.059537	0.410885
H306	H	1.272822	0.440463	0.910885
C307	C	0.776938	-0.810160	0.000037
C308	C	1.276938	-0.310160	0.500037
H309	H	0.769091	-0.842934	0.000029
H310	H	1.269091	-0.342934	0.500029
H311	H	0.798380	-0.804372	0.034338
H312	H	1.298380	-0.304372	0.534338
H313	H	0.798373	-0.804364	-0.034273
H314	H	1.298373	-0.304364	0.465727
C315	C	0.833464	-0.432994	0.000073
C316	C	1.333464	0.067006	0.500073
H317	H	0.864655	-0.414331	0.000083
H318	H	1.364655	0.085669	0.500083
H319	H	0.835403	-0.452914	-0.034228
H320	H	1.335403	0.047086	0.465772
H321	H	0.835383	-0.452908	0.034383
H322	H	1.335383	0.047092	0.534383
C323	C	0.509661	-0.547007	0.000006
C324	C	1.009661	-0.047007	0.500006
H325	H	0.479001	-0.521194	-0.000002
H326	H	0.979001	-0.021194	0.499998
H327	H	0.507252	-0.566428	0.034305
H328	H	1.007252	-0.066428	0.534305
H329	H	0.507274	-0.566419	-0.034307
H330	H	1.007274	-0.066419	0.465693
H331	H	0.763286	-0.709776	0.000054
H332	H	1.263286	-0.209776	0.500054
H333	H	0.781997	-0.030065	0.556197
H334	H	1.281997	0.469935	1.056197
C335	C	0.566175	-0.169873	0.000049
C336	C	1.066175	0.330127	0.500049
H337	H	0.535512	-0.144062	0.000043
H338	H	1.035512	0.355938	0.500043
H339	H	0.563769	-0.189297	0.034346
H340	H	1.063769	0.310703	0.534346
H341	H	0.563790	-0.189283	-0.034266
H342	H	1.063790	0.310717	0.465734
H343	H	-0.167930	0.139553	0.000058
H344	H	0.332070	0.639553	0.500058
C345	C	0.754117	-0.006453	0.280222
C346	C	1.254117	0.493547	0.780222
H347	H	0.777353	-0.026121	0.252907
H348	H	1.277353	0.473879	0.752907
H349	H	0.733816	-0.026492	0.304379
H350	H	1.233816	0.473508	0.804379
H351	H	0.777674	0.010834	0.304374
H352	H	1.277674	0.510834	0.804374
H353	H	0.562376	0.155881	0.556222
H354	H	1.062376	0.655881	1.056222
H355	H	0.246253	-0.060550	0.000104
H356	H	0.746253	0.439450	0.500104
H357	H	0.742999	0.002966	0.728706
H358	H	1.242999	0.502966	1.228706
C359	C	-0.148341	-0.033032	0.000083
C360	C	0.351659	0.466968	0.500083
H361	H	-0.117873	-0.059008	0.000090
H362	H	0.382127	0.440992	0.500090
H363	H	-0.171215	-0.035107	-0.034218
H364	H	0.328785	0.464893	0.465782
H365	H	-0.171212	-0.035097	0.034394
H366	H	0.328788	0.464903	0.534394
H367	H	0.562367	0.155881	0.443900
H368	H	1.062367	0.655881	0.943900
C369	C	0.510929	-0.441152	0.000026
C370	C	1.010929	0.058848	0.500026
H371	H	0.479738	-0.459814	0.000027
H372	H	0.979738	0.040186	0.500027
H373	H	0.509003	-0.421230	-0.034274
H374	H	1.009003	0.078770	0.465726
H375	H	0.509001	-0.421241	0.034338
H376	H	1.009001	0.078759	0.534338
C377	C	0.590217	0.132289	0.280262
C378	C	1.090217	0.632289	0.780262
H379	H	0.566971	0.151957	0.252958
H380	H	1.066971	0.651957	0.752958
H381	H	0.610497	0.152330	0.304435
H382	H	1.110497	0.652330	0.804435
H383	H	0.566673	0.114974	0.304399
H384	H	1.066673	0.614974	0.804399
H385	H	0.601432	0.122847	0.841052
H386	H	1.101432	0.622847	1.341052
C387	C	0.558812	-0.784930	0.000022
C388	C	1.058812	-0.284930	0.500022
H389	H	0.528152	-0.759117	0.000013
H390	H	1.028152	-0.259117	0.500013
H391	H	0.556406	-0.804348	0.034324
H392	H	1.056406	-0.304348	0.534324
H393	H	0.556423	-0.804345	-0.034288
H394	H	1.056423	-0.304345	0.465712
H395	H	-0.034156	-0.019261	0.000084
H396	H	0.465844	0.480739	0.500084
C397	C	0.212326	0.200174	0.000042
C398	C	0.712326	0.700174	0.500042
H399	H	0.181856	0.226149	0.000045
H400	H	0.681856	0.726149	0.500045
H401	H	0.235202	0.202247	-0.034260
H402	H	0.735202	0.702247	0.465740
H403	H	0.235193	0.202244	0.034352
H404	H	0.735193	0.702244	0.534352
C405	C	0.132070	-0.074326	0.000115
C406	C	0.632070	0.425674	0.500115
H407	H	0.162540	-0.100300	0.000128
H408	H	0.662540	0.399700	0.500128
H409	H	0.109197	-0.076408	-0.034184
H410	H	0.609197	0.423592	0.465816
H411	H	0.109200	-0.076388	0.034427
H412	H	0.609200	0.423612	0.534427
C413	C	0.398104	-0.027480	0.000062
C414	C	0.898104	0.472520	0.500062
H415	H	0.428570	-0.053458	0.000067
H416	H	0.928570	0.446542	0.500067
H417	H	0.375228	-0.029552	-0.034237
H418	H	0.875228	0.470448	0.465763
H419	H	0.375235	-0.029544	0.034375
H420	H	0.875235	0.470456	0.534375
H421	H	0.770646	-0.094710	0.000092
H422	H	1.270646	0.405290	0.500092
H423	H	0.526389	-0.390270	0.000011
H424	H	1.026389	0.109730	0.500011
C425	C	0.784309	-0.195082	0.000080
C426	C	1.284309	0.304918	0.500080
H427	H	0.815500	-0.176419	0.000093
H428	H	1.315500	0.323581	0.500093
H429	H	0.786246	-0.214999	-0.034223
H430	H	1.286246	0.285001	0.465777
H431	H	0.786227	-0.214998	0.034388
H432	H	1.286227	0.285002	0.534388
C433	C	0.512736	-0.289899	0.000015
C434	C	1.012736	0.210101	0.500015
H435	H	0.481542	-0.308558	0.000012
H436	H	0.981542	0.191442	0.500012
H437	H	0.510818	-0.269980	-0.034287
H438	H	1.010818	0.230020	0.465713
H439	H	0.510805	-0.269985	0.034325
H440	H	1.010805	0.230015	0.534325
C441	C	0.560077	-0.679073	0.000027
C442	C	1.060077	-0.179073	0.500027
H443	H	0.528886	-0.697735	0.000030
H444	H	1.028886	-0.197735	0.500030
H445	H	0.558151	-0.659154	-0.034275
H446	H	1.058151	-0.159154	0.465725
H447	H	0.558149	-0.659158	0.034336
H448	H	1.058149	-0.159158	0.534336
H449	H	0.582198	-0.072916	0.000066
H450	H	1.082198	0.427084	0.500066
H451	H	0.817996	-0.483866	0.000060
H452	H	1.317996	0.016134	0.500060
