data_functionalizedCrystal
_audit_creation_method	'MofGen! by Chris Wilmer'
_symmetry_space_group_name_H-M	'P1'
_symmetry_Int_Tables_number	1
_symmetry_cell_setting	triclinic
loop_
_symmetry_equiv_pos_as_xyz
  x,y,z
_cell_length_a	14.971482
_cell_length_b	17.000383
_cell_length_c	14.048226
_cell_angle_alpha	89.994219
_cell_angle_beta	89.994098
_cell_angle_gamma	79.606456
loop_
_atom_site_label
_atom_site_type_symbol
_atom_site_fract_x
_atom_site_fract_y
_atom_site_fract_z
O1	O	1.178669	0.103704	-0.079146
O2	O	1.678669	0.603704	0.420854
O3	O	0.917277	0.116127	-0.079150
O4	O	1.417277	0.616127	0.420850
O5	O	1.064202	-0.005935	-0.079144
O6	O	1.564202	0.494065	0.420856
O7	O	1.031744	0.225767	-0.079152
O8	O	1.531744	0.725767	0.420848
O9	O	1.064186	-0.005942	0.079177
O10	O	1.564186	0.494058	0.579177
O11	O	0.917261	0.116120	0.079171
O12	O	1.417261	0.616120	0.579171
O13	O	1.178653	0.103697	0.079175
O14	O	1.678653	0.603697	0.579175
Zn15	Zn	1.047954	0.109907	0.104310
Zn16	Zn	1.547954	0.609907	0.604310
Zn17	Zn	1.047975	0.109917	-0.104285
Zn18	Zn	1.547975	0.609917	0.395715
O19	O	1.031728	0.225759	0.079169
O20	O	1.531728	0.725759	0.579169
C21	C	0.883988	0.115569	0.000010
C22	C	1.383988	0.615569	0.500010
C23	C	0.784824	0.113905	0.000008
C24	C	1.284824	0.613905	0.500008
C25	C	0.738233	0.113118	0.086310
C26	C	1.238233	0.613118	0.586310
C27	C	0.645060	0.111542	0.086311
C28	C	1.145060	0.611542	0.586311
C29	C	0.598479	0.110760	0.000009
C30	C	1.098479	0.610760	0.500009
C31	C	0.645077	0.111545	-0.086300
C32	C	1.145077	0.611545	0.413700
C33	C	0.738249	0.113115	-0.086300
C34	C	1.238249	0.613115	0.413700
C35	C	0.450876	0.108275	-0.086293
C36	C	0.950876	0.608275	0.413707
C37	C	0.357697	0.106706	-0.086294
C38	C	0.857697	0.606706	0.413706
C39	C	0.357687	0.106702	0.086317
C40	C	0.857687	0.606702	0.586317
C41	C	0.450860	0.108272	0.086317
C42	C	0.950860	0.608272	0.586317
C43	C	0.497451	0.109059	0.000008
C44	C	0.997451	0.609059	0.500008
C45	C	1.065937	-0.035591	0.000015
C46	C	1.565937	0.464409	0.500015
C47	C	1.071121	-0.123944	0.000012
C48	C	1.571121	0.376056	0.500012
C49	C	1.104592	-0.624130	0.000009
C50	C	1.604592	-0.124130	0.500009
C51	C	1.099715	-0.541111	0.000015
C52	C	1.599715	-0.041111	0.500015
C53	C	1.015053	-0.490196	0.000009
C54	C	1.515053	0.009804	0.500009
C55	C	0.935264	-0.522303	0.000007
C56	C	1.435264	-0.022303	0.500007
C57	C	0.940142	-0.605320	0.000008
C58	C	1.440142	-0.105320	0.500008
C59	C	0.996210	-0.239068	0.000011
C60	C	1.496210	0.260932	0.500011
C61	C	0.991338	-0.156046	0.000007
C62	C	1.491338	0.343954	0.500007
C63	C	1.155789	-0.174860	0.000017
C64	C	1.655789	0.325140	0.500017
C65	C	1.160660	-0.257878	0.000012
C66	C	1.660660	0.242122	0.500012
C67	C	1.080871	-0.289977	0.000015
C68	C	1.580871	0.210023	0.500015
C69	C	1.010065	-0.405338	0.000012
C70	C	1.510065	0.094662	0.500012
C71	C	1.085860	-0.374834	0.000019
C72	C	1.585860	0.125166	0.500019
C73	C	1.211942	0.104255	0.000013
C74	C	1.711942	0.604255	0.500013
C75	C	1.311106	0.105919	0.000008
C76	C	1.811106	0.605919	0.500008
C77	C	1.029993	0.255415	0.000007
C78	C	1.529993	0.755415	0.500007
C79	C	1.024809	0.343768	0.000004
C80	C	1.524809	0.843768	0.500004
N81	N	1.047947	0.109900	0.246671
N82	N	1.547947	0.609900	0.746671
N83	N	1.047991	0.109918	-0.246646
N84	N	1.547991	0.609918	0.253354
C85	C	1.113023	0.055873	0.296491
C86	C	1.613023	0.555873	0.796491
C87	C	1.113029	0.055873	0.396149
C88	C	1.613029	0.555873	0.896149
C89	C	1.047962	0.109904	0.445984
C90	C	1.547962	0.609904	0.945984
C91	C	0.982879	0.163933	0.396156
C92	C	1.482879	0.663933	0.896156
C93	C	0.982870	0.163929	0.296501
C94	C	1.482870	0.663929	0.796501
C95	C	0.982905	0.163939	0.603871
C96	C	1.482905	0.663939	1.103871
C97	C	0.982915	0.163944	0.703533
C98	C	1.482915	0.663944	1.203533
C99	C	1.113063	0.055883	0.703519
C100	C	1.613063	0.555883	1.203519
C101	C	1.113054	0.055879	0.603863
C102	C	1.613054	0.555879	1.103863
C103	C	1.047972	0.109910	0.554042
C104	C	1.547972	0.609910	1.054042
H105	H	0.319773	0.106070	-0.156568
H106	H	0.819773	0.606070	0.343432
H107	H	0.866330	-0.480841	0.000008
H108	H	1.366330	0.019159	0.500008
H109	H	0.922392	-0.114592	0.000006
H110	H	1.422392	0.385408	0.500006
N111	N	0.501132	0.109118	-0.179382
N112	N	1.001132	0.609118	0.320618
H113	H	0.457486	0.108386	-0.234054
H114	H	0.957486	0.608386	0.265946
H115	H	0.528658	0.159069	-0.183142
H116	H	1.028658	0.659069	0.316858
N117	N	0.788469	0.113958	0.179396
N118	N	1.288469	0.613958	0.679396
H119	H	0.854563	0.115074	0.166304
H120	H	1.354563	0.615074	0.666304
H121	H	0.761046	0.162981	0.217082
H122	H	1.261046	0.662981	0.717082
H123	H	0.488783	0.108914	0.156592
H124	H	0.988783	0.608914	0.656592
H125	H	0.607144	0.110902	-0.156568
H126	H	1.107144	0.610902	0.343432
H127	H	1.173533	-0.665580	0.000006
H128	H	1.673533	-0.165580	0.500006
H129	H	0.607133	0.110888	0.156587
H130	H	1.107133	0.610888	0.656587
H131	H	0.776182	0.113757	-0.156576
H132	H	1.276182	0.613757	0.343424
H133	H	1.164683	-0.514979	0.000020
H134	H	1.664683	-0.014979	0.500020
N135	N	0.307437	0.105857	0.179407
N136	N	0.807437	0.605857	0.679407
H137	H	0.241103	0.105864	0.166316
H138	H	0.741103	0.605864	0.666316
H139	H	0.334033	0.056264	0.216521
H140	H	0.834033	0.556264	0.716521
N141	N	1.183266	-0.002380	0.757258
N142	N	1.683266	0.497620	1.257258
H143	H	1.246007	0.006899	0.739898
H144	H	1.746007	0.506899	1.239898
H145	H	1.173313	0.005859	0.827932
H146	H	1.673313	0.505859	1.327932
H147	H	1.229601	-0.299328	0.000021
H148	H	1.729601	0.200672	0.500021
H149	H	1.166040	0.011887	0.563288
H150	H	1.666040	0.511887	1.063288
H151	H	1.154791	-0.416293	0.000029
H152	H	1.654791	0.083707	0.500029
H153	H	1.220749	-0.148715	0.000007
H154	H	1.720749	0.351285	0.500007
N155	N	0.910156	-0.273684	0.000028
N156	N	1.410156	0.226316	0.500028
H157	H	0.855786	-0.228831	0.000025
H158	H	1.355786	0.271169	0.500025
H159	H	0.908594	-0.307721	-0.058656
H160	H	1.408594	0.192279	0.441344
N161	N	0.854091	-0.639948	0.000011
N162	N	1.354091	-0.139948	0.500011
H163	H	0.799717	-0.595098	0.000007
H164	H	1.299717	-0.095098	0.500007
H165	H	0.852538	-0.673983	-0.058677
H166	H	1.352538	-0.173983	0.441323
N167	N	0.918762	-0.350408	-0.000001
N168	N	1.418762	0.149592	0.499999
H169	H	0.883668	-0.360728	-0.058694
H170	H	1.383668	0.139272	0.441306
H171	H	0.883722	-0.360764	0.058724
H172	H	1.383722	0.139236	0.558724
H173	H	1.166011	0.011879	0.255922
H174	H	1.666011	0.511879	0.755922
N175	N	1.183246	-0.002371	0.449886
N176	N	1.683246	0.497629	0.949886
H177	H	1.224477	-0.036587	0.403193
H178	H	1.724477	0.463413	0.903193
H179	H	1.220367	0.028191	0.491201
H180	H	1.720367	0.528191	0.991201
N181	N	0.912746	0.222226	0.757288
N182	N	1.412746	0.722226	1.257288
H183	H	0.871514	0.256452	0.710607
H184	H	1.371514	0.756452	1.210607
H185	H	0.875616	0.191703	0.798658
H186	H	1.375616	0.691703	1.298658
N187	N	0.912707	0.222210	0.550132
N188	N	1.412707	0.722210	1.050132
H189	H	0.871491	0.256442	0.596822
H190	H	1.371491	0.756442	1.096822
H191	H	0.944173	0.257443	0.508770
H192	H	1.444173	0.757443	1.008770
H193	H	0.929897	0.207924	0.436738
H194	H	1.429897	0.707924	0.936738
H195	H	0.929878	0.207923	0.255937
H196	H	1.429878	0.707923	0.755937
