data_functionalizedCrystal
_audit_creation_method	'MofGen! by Chris Wilmer'
_symmetry_space_group_name_H-M	'P1'
_symmetry_Int_Tables_number	1
_symmetry_cell_setting	triclinic
loop_
_symmetry_equiv_pos_as_xyz
  x,y,z
_cell_length_a	23.532407
_cell_length_b	15.500227
_cell_length_c	17.038272
_cell_angle_alpha	86.966746
_cell_angle_beta	93.019883
_cell_angle_gamma	87.178713
loop_
_atom_site_label
_atom_site_type_symbol
_atom_site_fract_x
_atom_site_fract_y
_atom_site_fract_z
O1	O	0.762716	-0.071836	-0.091231
O2	O	1.096049	0.261497	0.242102
O3	O	1.429383	0.594831	0.575436
O4	O	0.597575	-0.071862	-0.104957
O5	O	0.930908	0.261472	0.228376
O6	O	1.264242	0.594805	0.561709
O7	O	0.679164	-0.071842	0.015714
O8	O	1.012497	0.261491	0.349047
O9	O	1.345830	0.594824	0.682380
O10	O	0.681127	-0.071856	-0.211902
O11	O	1.014460	0.261478	0.121431
O12	O	1.347794	0.594811	0.454765
O13	O	0.674211	0.072045	0.008420
O14	O	1.007545	0.405379	0.341753
O15	O	1.340878	0.738712	0.675086
O16	O	0.592623	0.072026	-0.112251
O17	O	0.925956	0.405359	0.221082
O18	O	1.259289	0.738693	0.554415
O19	O	0.757763	0.072051	-0.098525
O20	O	1.091097	0.405385	0.234808
O21	O	1.424430	0.738718	0.568142
Cu22	Cu	0.674741	0.085177	-0.106054
Cu23	Cu	1.008074	0.418510	0.227279
Cu24	Cu	1.341408	0.751843	0.560612
Cu25	Cu	0.680598	-0.084987	-0.097428
Cu26	Cu	1.013931	0.248346	0.235905
Cu27	Cu	1.347264	0.581680	0.569238
O28	O	0.676175	0.072032	-0.219196
O29	O	1.009508	0.405365	0.114137
O30	O	1.342841	0.738699	0.447471
C31	C	0.573865	0.000079	-0.108255
C32	C	0.907198	0.333412	0.225079
C33	C	1.240531	0.666746	0.558412
C34	C	0.510593	0.000069	-0.107203
C35	C	0.843926	0.333403	0.226130
C36	C	1.177259	0.666736	0.559464
N37	N	0.670626	0.204861	-0.112121
N38	N	1.003959	0.538194	0.221213
N39	N	1.337292	0.871527	0.554546
C40	C	0.674902	0.000101	0.041182
C41	C	1.008236	0.333435	0.374515
C42	C	1.341569	0.666768	0.707848
C43	C	0.669576	0.000100	0.127935
C44	C	1.002909	0.333433	0.461268
C45	C	1.336242	0.666767	0.794602
C46	C	0.114896	0.000105	-0.172024
C47	C	0.448229	0.333438	0.161309
C48	C	0.781563	0.666771	0.494643
C49	C	0.055444	0.000110	-0.171048
C50	C	0.388778	0.333443	0.162286
C51	C	0.722111	0.666777	0.495619
O52	O	0.021858	0.000138	-0.231137
O53	O	0.355191	0.333471	0.102196
O54	O	0.688524	0.666805	0.435530
N55	N	0.029046	0.000113	-0.099309
N56	N	0.362380	0.333446	0.234025
N57	N	0.695713	0.666780	0.567358
C58	C	0.062103	0.000119	-0.028541
C59	C	0.395437	0.333452	0.304792
C60	C	0.728770	0.666786	0.638125
O61	O	0.034191	0.000123	0.032568
O62	O	0.367524	0.333456	0.365901
O63	O	0.700858	0.666789	0.699235
C64	C	0.121554	0.000120	-0.029518
C65	C	0.454887	0.333453	0.303815
C66	C	0.788221	0.666787	0.637148
C67	C	0.147949	0.000108	-0.101262
C68	C	0.481282	0.333442	0.232071
C69	C	0.814615	0.666775	0.565405
C70	C	0.141291	0.000094	-0.243762
C71	C	0.474624	0.333428	0.089572
C72	C	0.807958	0.666761	0.422905
C73	C	0.200739	0.000087	-0.244737
C74	C	0.534072	0.333421	0.088596
C75	C	0.867405	0.666754	0.421929
C76	C	0.233791	0.000091	-0.173975
C77	C	0.567125	0.333424	0.159358
C78	C	0.900458	0.666758	0.492691
C79	C	0.207396	0.000101	-0.102238
C80	C	0.540730	0.333435	0.231096
C81	C	0.874063	0.666768	0.564429
C82	C	0.154610	0.000132	0.041248
C83	C	0.487943	0.333466	0.374581
C84	C	0.821276	0.666799	0.707914
C85	C	0.214064	0.000134	0.040264
C86	C	0.547397	0.333467	0.373598
C87	C	0.880730	0.666801	0.706931
C88	C	0.240458	0.000122	-0.031479
C89	C	0.573792	0.333456	0.301854
C90	C	0.907125	0.666789	0.635188
C91	C	0.299897	0.000098	-0.032451
C92	C	0.633230	0.333431	0.300882
C93	C	0.966563	0.666765	0.634216
N94	N	0.326294	0.000095	-0.104190
N95	N	0.659628	0.333429	0.229143
N96	N	0.992961	0.666762	0.562476
C97	C	0.293242	0.000092	-0.174952
C98	C	0.626575	0.333425	0.158381
C99	C	0.959908	0.666758	0.491714
C100	C	-0.062747	0.000119	-0.026495
C101	C	0.270587	0.333452	0.306839
C102	C	0.603920	0.666786	0.640172
C103	C	-0.122196	0.000112	-0.025516
C104	C	0.211138	0.333445	0.307817
C105	C	0.544471	0.666779	0.641150
C106	C	-0.128851	0.000104	-0.168023
C107	C	0.204482	0.333438	0.165310
C108	C	0.537816	0.666771	0.498643
C109	C	-0.069401	0.000105	-0.169000
C110	C	0.263933	0.333439	0.164333
C111	C	0.597266	0.666772	0.497666
C112	C	-0.036349	0.000116	-0.098234
C113	C	0.296984	0.333449	0.235100
C114	C	0.630318	0.666783	0.568433
C115	C	0.418087	0.000076	-0.176996
C116	C	0.751420	0.333410	0.156337
C117	C	1.084753	0.666743	0.489671
C118	C	0.477540	0.000066	-0.177965
C119	C	0.810873	0.333399	0.155368
C120	C	1.144207	0.666732	0.488702
C121	C	0.484190	0.000078	-0.035459
C122	C	0.817523	0.333411	0.297875
C123	C	1.150856	0.666744	0.631208
C124	C	0.424742	0.000084	-0.034489
C125	C	0.758075	0.333417	0.298844
C126	C	1.091408	0.666750	0.632178
C127	C	0.391691	0.000086	-0.105264
C128	C	0.725025	0.333419	0.228069
C129	C	1.058358	0.666753	0.561403
O130	O	0.333519	0.000074	0.027606
O131	O	0.666853	0.333407	0.360940
O132	O	1.000186	0.666740	0.694273
O133	O	0.321162	0.000099	-0.236052
O134	O	0.654495	0.333433	0.097281
O135	O	0.987828	0.666766	0.430614
C136	C	0.781474	0.000109	-0.095228
C137	C	1.114807	0.333442	0.238106
C138	C	1.448141	0.666776	0.571439
C139	C	0.844746	0.000113	-0.096279
C140	C	1.178080	0.333446	0.237054
C141	C	1.511413	0.666779	0.570388
N142	N	0.684717	-0.204671	-0.091355
N143	N	1.018050	0.128662	0.241978
N144	N	1.351384	0.461996	0.575311
C145	C	0.705211	0.250146	-0.061007
C146	C	1.038545	0.583479	0.272326
C147	C	1.371878	0.916812	0.605660
C148	C	0.702105	0.340718	-0.065602
C149	C	1.035438	0.674051	0.267731
C150	C	1.368771	1.007384	0.601064
C151	C	0.664415	0.386003	-0.121316
C152	C	0.997748	0.719337	0.212018
C153	C	1.331081	1.052670	0.545351
C154	C	0.629825	0.340712	-0.172432
C155	C	0.963159	0.674045	0.160902
C156	C	1.296492	1.007379	0.494235
C157	C	0.632929	0.250142	-0.167832
C158	C	0.966263	0.583475	0.165501
C159	C	1.299596	0.916808	0.498834
C160	C	0.653232	0.659467	-0.137872
C161	C	0.986565	0.992801	0.195461
C162	C	1.319898	1.326134	0.528795
C163	C	0.650131	0.750044	-0.142469
C164	C	0.983465	1.083378	0.190864
C165	C	1.316798	1.416711	0.524197
C166	C	0.722410	0.750044	-0.035638
C167	C	1.055744	1.083377	0.297695
C168	C	1.389077	1.416710	0.631028
C169	C	0.725514	0.659471	-0.031047
C170	C	1.058847	0.992805	0.302287
C171	C	1.392180	1.326138	0.635620
C172	C	0.690922	0.614188	-0.082160
C173	C	1.024255	0.947521	0.251173
C174	C	1.357589	1.280855	0.584507
C175	C	0.661240	0.478582	-0.126016
C176	C	0.994573	0.811916	0.207318
C177	C	1.327906	1.145249	0.540651
C178	C	0.694095	0.521611	-0.077456
C179	C	1.027428	0.854944	0.255878
C180	C	1.360761	1.188277	0.589211
C181	C	0.680436	0.000087	-0.244664
C182	C	1.013770	0.333420	0.088669
C183	C	1.347103	0.666753	0.422003
C184	C	0.685763	0.000082	-0.331417
C185	C	1.019097	0.333415	0.001916
C186	C	1.352430	0.666749	0.335250
C187	C	0.718480	0.000109	0.178411
C188	C	1.051813	0.333442	0.511744
C189	C	1.385147	0.666775	0.845078
C190	C	0.713472	0.000100	0.259925
C191	C	1.046805	0.333433	0.593258
C192	C	1.380139	0.666766	0.926592
C193	C	0.659559	0.000088	0.290961
C194	C	0.992892	0.333422	0.624294
C195	C	1.326225	0.666755	0.957628
C196	C	0.610651	0.000077	0.240479
C197	C	0.943984	0.333411	0.573812
C198	C	1.277318	0.666744	0.907145
C199	C	0.615660	0.000080	0.158967
C200	C	0.948993	0.333413	0.492300
C201	C	1.282326	0.666747	0.825633
C202	C	0.641864	0.000074	0.536589
C203	C	0.975197	0.333407	0.869922
C204	C	1.308531	0.666740	1.203255
C205	C	0.636859	0.000074	0.618107
C206	C	0.970192	0.333407	0.951440
C207	C	1.303525	0.666740	1.284774
C208	C	0.739681	0.000094	0.637548
C209	C	1.073014	0.333428	0.970881
C210	C	1.406347	0.666761	1.304214
C211	C	0.744684	0.000102	0.556033
C212	C	1.078018	0.333436	0.889366
C213	C	1.411351	0.666769	1.222700
C214	C	0.695777	0.000087	0.505558
C215	C	1.029110	0.333420	0.838891
C216	C	1.362443	0.666753	1.172225
C217	C	0.654438	0.000082	0.374281
C218	C	0.987772	0.333415	0.707614
C219	C	1.321105	0.666749	1.040948
C220	C	0.700898	0.000087	0.422240
C221	C	1.034231	0.333420	0.755573
C222	C	1.367564	0.666754	1.088907
H223	H	0.499027	0.000056	-0.236390
H224	H	0.832361	0.333389	0.096944
H225	H	1.165694	0.666723	0.430277
H226	H	0.599134	0.377589	-0.217792
H227	H	0.932468	0.710922	0.115541
H228	H	1.265801	1.044255	0.448874
H229	H	0.730267	0.377588	-0.023981
H230	H	1.063600	0.710921	0.309353
H231	H	1.396933	1.044255	0.642686
F232	F	0.589811	0.000055	0.482880
F233	F	0.923145	0.333388	0.816213
F234	F	1.256478	0.666722	1.149546
H235	H	0.750573	0.786922	0.005977
H236	H	1.083906	1.120255	0.339310
H237	H	1.417239	1.453588	0.672643
F238	F	-0.150280	0.000105	0.050844
F239	F	0.183054	0.333438	0.384177
F240	F	0.516387	0.666771	0.717510
H241	H	0.114385	0.000094	-0.301388
H242	H	0.447718	0.333428	0.031945
H243	H	0.781052	0.666761	0.365279
F244	F	0.596116	0.201947	-0.222233
F245	F	0.929450	0.535281	0.111100
F246	F	1.262783	0.868614	0.444434
H247	H	0.744794	0.000077	0.396968
H248	H	1.078127	0.333410	0.730301
H249	H	1.411461	0.666744	1.063635
F250	F	0.791728	0.000110	0.691272
F251	F	1.125061	0.333443	1.024605
F252	F	1.458395	0.666776	1.357938
H253	H	0.610542	0.000075	0.399560
H254	H	0.943875	0.333408	0.732893
H255	H	1.277209	0.666741	1.066226
F256	F	0.228822	0.000079	-0.321097
F257	F	0.562155	0.333412	0.012236
F258	F	0.895489	0.666746	0.345569
H259	H	0.403251	0.000080	0.023931
H260	H	0.736584	0.333414	0.357264
H261	H	1.069917	0.666747	0.690598
F262	F	0.126532	0.000133	0.117609
F263	F	0.459865	0.333466	0.450942
F264	F	0.793198	0.666799	0.784275
H265	H	-0.035839	0.000120	0.031136
H266	H	0.297494	0.333453	0.364470
H267	H	0.630828	0.666787	0.697803
F268	F	0.734204	0.473413	-0.018160
F269	F	1.067537	0.806747	0.315173
F270	F	1.400870	1.140080	0.648506
H271	H	0.575836	0.000073	0.117869
H272	H	0.909170	0.333406	0.451203
H273	H	1.242503	0.666740	0.784536
F274	F	0.519377	0.000083	0.039847
F275	F	0.852710	0.333416	0.373180
F276	F	1.186044	0.666750	0.706514
F277	F	0.745329	0.201958	-0.001712
F278	F	1.078663	0.535291	0.331621
F279	F	1.411996	0.868624	0.664955
F280	F	0.765628	0.611276	0.028248
F281	F	1.098961	0.944610	0.361582
F282	F	1.432294	1.277943	0.694915
H283	H	0.619438	0.786912	-0.187841
H284	H	0.952771	1.120245	0.145492
H285	H	1.286105	1.453578	0.478826
H286	H	0.630553	0.515461	-0.171380
H287	H	0.963886	0.848795	0.161953
H288	H	1.297219	1.182128	0.495287
F289	F	0.382920	0.000079	-0.252323
F290	F	0.716253	0.333413	0.081010
F291	F	1.049586	0.666746	0.414344
H292	H	0.625067	0.622605	-0.179492
H293	H	0.958400	0.955938	0.153841
H294	H	1.291733	1.289272	0.487175
H295	H	0.753295	0.000108	0.301020
H296	H	1.086629	0.333442	0.634353
H297	H	1.419962	0.666775	0.967686
H298	H	0.762382	0.000123	0.153148
H299	H	1.095715	0.333456	0.486482
H300	H	1.429048	0.666790	0.819815
F301	F	0.802067	0.000092	0.523010
F302	F	1.135400	0.333426	0.856343
F303	F	1.468733	0.666759	1.189676
H304	H	-0.047914	0.000101	-0.227420
H305	H	0.285419	0.333434	0.105913
H306	H	0.618752	0.666767	0.439246
F307	F	-0.164039	0.000104	-0.243335
F308	F	0.169295	0.333437	0.089998
F309	F	0.502628	0.666771	0.423331
F310	F	0.579474	0.000066	0.651135
F311	F	0.912808	0.333399	0.984468
F312	F	1.246141	0.666733	1.317802
F313	F	0.553272	0.000056	0.273512
F314	F	0.886606	0.333389	0.606846
F315	F	1.219939	0.666722	0.940179
F316	F	0.249236	0.000148	0.115586
F317	F	0.582570	0.333481	0.448919
F318	F	0.915903	0.666814	0.782253
