data_functionalizedCrystal
_audit_creation_method	'MofGen! by Chris Wilmer'
_symmetry_space_group_name_H-M	'P1'
_symmetry_Int_Tables_number	1
_symmetry_cell_setting	triclinic
loop_
_symmetry_equiv_pos_as_xyz
  x,y,z
_cell_length_a	10.654551
_cell_length_b	10.654550
_cell_length_c	9.730223
_cell_angle_alpha	90.000649
_cell_angle_beta	90.002058
_cell_angle_gamma	95.514820
loop_
_atom_site_label
_atom_site_type_symbol
_atom_site_fract_x
_atom_site_fract_y
_atom_site_fract_z
O1	O	0.176398	-1.667839	0.114181
O2	O	0.676398	-1.167839	0.614181
O3	O	0.193204	-1.302360	0.114206
O4	O	0.693204	-0.802360	0.614206
O5	O	0.002061	-1.493502	0.114190
O6	O	0.502061	-0.993502	0.614190
O7	O	0.367540	-1.476697	0.114197
O8	O	0.867540	-0.976697	0.614197
O9	O	0.002058	-1.493492	-0.114390
O10	O	0.502058	-0.993492	0.385610
O11	O	0.193200	-1.302350	-0.114374
O12	O	0.693200	-0.802350	0.385626
O13	O	0.176394	-1.667829	-0.114398
O14	O	0.676394	-1.167829	0.385602
Zn15	Zn	0.184797	-1.485088	-0.150678
Zn16	Zn	0.684797	-0.985088	0.349322
Zn17	Zn	0.184801	-1.485101	0.150486
Zn18	Zn	0.684801	-0.985101	0.650486
O19	O	0.367536	-1.476687	-0.114383
O20	O	0.867536	-0.976687	0.385617
C21	C	0.191968	-1.255557	-0.000081
C22	C	0.691968	-0.755557	0.499919
C23	C	0.188276	-1.116114	-0.000071
C24	C	0.688276	-0.616114	0.499929
C25	C	-0.044738	-1.492262	-0.000097
C26	C	0.455262	-0.992262	0.499903
C27	C	-0.184181	-1.488570	-0.000091
C28	C	0.315819	-0.988570	0.499909
C29	C	0.177630	-1.714632	-0.000109
C30	C	0.677630	-1.214632	0.499891
C31	C	0.181322	-1.854075	-0.000109
C32	C	0.681322	-1.354075	0.499891
C33	C	-0.249683	-1.486842	0.124510
C34	C	0.250317	-0.986842	0.624510
C35	C	-0.380704	-1.483362	0.124511
C36	C	0.119296	-0.983362	0.624511
C37	C	-0.380709	-1.483343	-0.124699
C38	C	0.119291	-0.983343	0.375301
C39	C	-0.249690	-1.486814	-0.124699
C40	C	0.250310	-0.986814	0.375301
C41	C	0.414336	-1.477926	-0.000092
C42	C	0.914336	-0.977926	0.499908
C43	C	0.553779	-1.481619	-0.000089
C44	C	1.053779	-0.981619	0.499911
N45	N	0.184793	-1.485088	-0.356214
N46	N	0.684793	-0.985088	0.143786
C47	C	0.300818	-1.036629	-0.000073
C48	C	0.800818	-0.536629	0.499927
C49	C	0.297341	-0.905608	-0.000097
C50	C	0.797341	-0.405608	0.499903
C51	C	0.068772	-0.933570	-0.000112
C52	C	0.568772	-0.433570	0.499888
C53	C	0.072249	-1.064589	-0.000097
C54	C	0.572249	-0.564589	0.499903
C55	C	0.100187	-1.569761	-0.572040
C56	C	0.600187	-1.069761	-0.072040
C57	C	0.100189	-1.569753	-0.428157
C58	C	0.600189	-1.069753	0.071843
C59	C	0.269410	-1.400434	-0.428163
C60	C	0.769410	-0.900434	0.071837
C61	C	0.269413	-1.400449	-0.572043
C62	C	0.769413	-0.900449	-0.072043
N63	N	0.184795	-1.485111	0.356022
N64	N	0.684795	-0.985111	0.856022
H65	H	-0.196350	-1.488269	0.225974
H66	H	0.303650	-0.988269	0.725974
H67	H	-0.434029	-1.481953	0.225973
H68	H	0.065971	-0.981953	0.725973
Br69	Br	-0.160783	-1.489138	-0.293813
Br70	Br	0.339217	-0.989138	0.206187
Br71	Br	-0.469621	-1.480956	-0.293803
Br72	Br	0.030379	-0.980956	0.206197
Br73	Br	0.458281	-1.106553	-0.000042
Br74	Br	0.958281	-0.606553	0.499958
Br75	Br	0.450083	-0.797739	-0.000106
Br76	Br	0.950083	-0.297739	0.499894
Br77	Br	0.384256	-1.285569	-0.669685
Br78	Br	0.884256	-0.785569	-0.169685
Br79	Br	-0.080497	-1.172471	-0.000112
Br80	Br	0.419503	-0.672471	0.499888
Br81	Br	-0.088685	-0.863634	-0.000142
Br82	Br	0.411315	-0.363634	0.499858
H83	H	0.031288	-1.638699	-0.630606
H84	H	0.531288	-1.138699	-0.130606
H85	H	0.031295	-1.638683	-0.369589
H86	H	0.531295	-1.138683	0.130411
H87	H	0.338303	-1.331503	-0.369579
H88	H	0.838303	-0.831503	0.130421
