data_functionalizedCrystal
_audit_creation_method	'MofGen! by Chris Wilmer'
_symmetry_space_group_name_H-M	'P1'
_symmetry_Int_Tables_number	1
_symmetry_cell_setting	triclinic
loop_
_symmetry_equiv_pos_as_xyz
  x,y,z
_cell_length_a	21.395362
_cell_length_b	13.031981
_cell_length_c	21.395356
_cell_angle_alpha	82.790965
_cell_angle_beta	89.957023
_cell_angle_gamma	97.204883
loop_
_atom_site_label
_atom_site_type_symbol
_atom_site_fract_x
_atom_site_fract_y
_atom_site_fract_z
Zn1	Zn	0.926276	-0.415708	-0.322907
Zn2	Zn	1.426276	0.084292	0.177093
Zn3	Zn	0.912902	-0.590500	-0.204810
Zn4	Zn	1.412902	-0.090500	0.295190
Zn5	Zn	0.821486	-0.415784	-0.218103
Zn6	Zn	1.321486	0.084216	0.281897
Zn7	Zn	0.808183	-0.590494	-0.309515
Zn8	Zn	1.308183	-0.090494	0.190485
O9	O	0.867212	-0.503122	-0.263834
O10	O	1.367212	-0.003122	0.236166
O11	O	1.012182	-0.438865	-0.307283
O12	O	1.512182	0.061135	0.192717
O13	O	0.900747	-0.567359	-0.118893
O14	O	1.400747	-0.067359	0.381107
O15	O	0.846551	-0.269506	-0.243173
O16	O	1.346551	0.230494	0.256827
O17	O	1.002356	-0.567284	-0.220517
O18	O	1.502356	-0.067284	0.279483
O19	O	0.923540	-0.269450	-0.320172
O20	O	1.423540	0.230550	0.179828
O21	O	0.833584	-0.438995	-0.128659
O22	O	1.333584	0.061005	0.371341
O23	O	0.732041	-0.438989	-0.230187
O24	O	1.232041	0.061011	0.269813
O25	O	0.823877	-0.567273	-0.398972
O26	O	1.323877	-0.067273	0.101028
O27	O	0.722267	-0.567348	-0.297347
O28	O	1.222267	-0.067348	0.202653
O29	O	0.910639	-0.438859	-0.408811
O30	O	1.410639	0.061141	0.091189
O31	O	0.887846	-0.736768	-0.207532
O32	O	1.387846	-0.236768	0.292468
O33	O	0.810909	-0.736763	-0.284458
O34	O	1.310909	-0.236763	0.215542
C35	C	0.704420	-0.503177	-0.263757
C36	C	1.204420	-0.003177	0.236243
C37	C	0.634775	-0.503226	-0.263737
C38	C	1.134775	-0.003226	0.236263
C39	C	0.846500	-0.774691	-0.243113
C40	C	1.346500	-0.274691	0.256887
C41	C	0.837697	-0.890870	-0.234269
C42	C	1.337697	-0.390870	0.265731
C43	C	0.596982	-0.570151	-0.298641
C44	C	1.096982	-0.070151	0.201359
C45	C	0.531548	-0.570125	-0.298670
C46	C	1.031548	-0.070125	0.201330
C47	C	0.503910	-0.503185	-0.263785
C48	C	1.003910	-0.003185	0.236215
C49	C	0.541711	-0.436248	-0.228879
C50	C	1.041711	0.063752	0.271121
C51	C	0.607144	-0.436268	-0.228855
C52	C	1.107144	0.063732	0.271145
C53	C	0.400824	-0.494780	-0.208020
C54	C	0.900824	0.005220	0.291980
C55	C	0.335392	-0.494767	-0.208042
C56	C	0.835392	0.005233	0.291958
C57	C	0.302094	-0.503117	-0.263859
C58	C	0.802094	-0.003117	0.236141
C59	C	0.334234	-0.511502	-0.319654
C60	C	0.834234	-0.011502	0.180346
C61	C	0.399667	-0.511522	-0.319630
C62	C	0.899667	-0.011522	0.180370
C63	C	0.432959	-0.503156	-0.263807
C64	C	0.932959	-0.003156	0.236193
C65	C	0.193350	-0.570018	-0.298798
C66	C	0.693350	-0.070018	0.201202
C67	C	0.127916	-0.569985	-0.298830
C68	C	0.627916	-0.069985	0.201170
C69	C	0.138080	-0.436113	-0.229032
C70	C	0.638080	0.063887	0.270968
C71	C	0.203513	-0.436140	-0.229007
C72	C	0.703513	0.063860	0.270993
C73	C	0.231144	-0.503098	-0.263888
C74	C	0.731144	-0.003098	0.236112
C75	C	0.871839	-0.942554	-0.268462
C76	C	1.371839	-0.442554	0.231538
C77	C	0.862742	-1.062631	-0.259322
C78	C	1.362742	-0.562631	0.240678
C79	C	1.030639	-0.503067	-0.263911
C80	C	1.530639	-0.003067	0.236089
C81	C	1.100282	-0.503043	-0.263944
C82	C	1.600282	-0.003043	0.236056
C83	C	0.867266	-0.503057	-0.427262
C84	C	1.367266	-0.003057	0.072738
C85	C	0.867289	-0.503029	-0.496905
C86	C	1.367289	-0.003029	0.003095
C87	C	0.888021	-0.230492	-0.284649
C88	C	1.388021	0.269508	0.215351
C89	C	0.896889	-0.114313	-0.293520
C90	C	1.396889	0.385687	0.206480
C91	C	0.832329	-0.436183	-0.534694
C92	C	1.332329	0.063817	-0.034694
C93	C	0.832328	-0.436163	-0.600131
C94	C	1.332328	0.063837	-0.100131
C95	C	0.867300	-0.502979	-0.627778
C96	C	1.367300	-0.002979	-0.127778
C97	C	0.902262	-0.569839	-0.589980
C98	C	1.402262	-0.069839	-0.089980
C99	C	0.902256	-0.569864	-0.524544
C100	C	1.402256	-0.069864	-0.024544
C101	C	0.923129	-0.511171	-0.730859
C102	C	1.423129	-0.011171	-0.230859
C103	C	0.923136	-0.511139	-0.796294
C104	C	1.423136	-0.011139	-0.296294
C105	C	0.867315	-0.502909	-0.829604
C106	C	1.367315	-0.002909	-0.329604
C107	C	0.811487	-0.494689	-0.797472
C108	C	1.311487	0.005311	-0.297472
C109	C	0.811482	-0.494714	-0.732036
C110	C	1.311482	0.005286	-0.232036
C111	C	0.867309	-0.502960	-0.698731
C112	C	1.367309	-0.002960	-0.198731
C113	C	0.832351	-0.436038	-0.938347
C114	C	1.332351	0.063962	-0.438347
C115	C	0.832349	-0.436026	-1.003785
C116	C	1.332349	0.063974	-0.503785
C117	C	0.902289	-0.569696	-0.993632
C118	C	1.402289	-0.069696	-0.493632
C119	C	0.902285	-0.569713	-0.928196
C120	C	1.402285	-0.069713	-0.428196
C121	C	0.867318	-0.502879	-0.900557
C122	C	1.367318	-0.002879	-0.400557
C123	C	0.867199	-0.503111	-0.101047
C124	C	1.367199	-0.003111	0.398953
C125	C	0.867320	-0.502844	-0.031426
C126	C	1.367320	-0.002844	0.468574
H127	H	0.619474	-0.624672	-0.327045
H128	H	1.119474	-0.124672	0.172955
H129	H	0.930728	-0.624297	-0.493776
H130	H	1.430728	-0.124297	0.006224
F131	F	0.752074	-0.485925	-0.832917
F132	F	1.252074	0.014075	-0.332917
H133	H	0.307124	-0.518299	-0.365105
H134	H	0.807124	-0.018299	0.134895
H135	H	0.968590	-0.517864	-0.703744
H136	H	1.468590	-0.017864	-0.203744
F137	F	0.943903	-1.055968	-0.340631
F138	F	1.443903	-0.555968	0.159369
F139	F	0.918845	-0.884203	-0.315575
F140	F	1.418845	-0.384203	0.184425
H141	H	0.803878	-0.381618	-0.915843
H142	H	1.303878	0.118382	-0.415843
F143	F	0.790682	-0.949221	-0.187165
F144	F	1.290682	-0.449221	0.312835
F145	F	0.815724	-1.120978	-0.212215
F146	F	1.315724	-0.620978	0.287785
F147	F	0.222760	-0.641274	-0.335925
F148	F	0.722760	-0.141274	0.164075
F149	F	0.647368	-0.365033	-0.191705
F150	F	1.147368	0.134967	0.308295
F151	F	0.795110	-0.365055	-0.505284
F152	F	1.295110	0.134945	-0.005284
H153	H	0.803861	-0.381724	-0.630905
H154	H	1.303861	0.118276	-0.130905
H155	H	0.766025	-0.488023	-0.705876
H156	H	1.266025	0.011977	-0.205876
F157	F	0.795121	-0.364899	-1.044001
F158	F	1.295121	0.135101	-0.544001
H159	H	0.097146	-0.624481	-0.327256
H160	H	0.597146	-0.124481	0.172744
H161	H	0.930765	-0.624096	-1.016141
H162	H	1.430765	-0.124096	-0.516141
H163	H	0.930755	-0.624144	-0.897427
H164	H	1.430755	-0.124144	-0.397427
F165	F	0.982552	-0.519895	-0.830485
F166	F	1.482552	-0.019895	-0.330485
H167	H	0.500772	-0.624623	-0.327095
H168	H	1.000772	-0.124623	0.172905
F169	F	0.433871	-0.520441	-0.379009
F170	F	0.933871	-0.020441	0.120991
F171	F	0.108670	-0.364865	-0.191908
F172	F	0.608670	0.135135	0.308092
H173	H	0.234285	-0.381648	-0.200581
H174	H	0.734285	0.118352	0.299419
F175	F	0.301192	-0.485844	-0.148661
F176	F	0.801192	0.014156	0.351339
F177	F	0.436256	-0.485895	-0.148607
F178	F	0.936256	0.014105	0.351393
H179	H	0.519204	-0.381743	-0.200476
H180	H	1.019204	0.118257	0.299524
H181	H	0.930736	-0.624241	-0.612493
H182	H	1.430736	-0.124241	-0.112493
