data_functionalizedCrystal
_audit_creation_method	'MofGen! by Chris Wilmer'
_symmetry_space_group_name_H-M	'P1'
_symmetry_Int_Tables_number	1
_symmetry_cell_setting	triclinic
loop_
_symmetry_equiv_pos_as_xyz
  x,y,z
_cell_length_a	9.616153
_cell_length_b	10.540558
_cell_length_c	10.540539
_cell_angle_alpha	84.529314
_cell_angle_beta	90.000094
_cell_angle_gamma	90.005583
loop_
_atom_site_label
_atom_site_type_symbol
_atom_site_fract_x
_atom_site_fract_y
_atom_site_fract_z
O1	O	-0.115597	-1.685878	-0.179008
O2	O	-0.115608	-1.316468	-0.195839
O3	O	-0.115601	-1.509601	-0.002718
O4	O	-0.115605	-1.492746	-0.372130
O5	O	0.115691	-1.509575	-0.002722
O6	O	0.115683	-1.316442	-0.195843
O7	O	0.115694	-1.685852	-0.179012
Zn8	Zn	0.152411	-1.501143	-0.187429
Zn9	Zn	-0.152325	-1.501178	-0.187423
O10	O	0.115687	-1.492719	-0.372134
C11	C	0.000036	-1.269152	-0.194574
C12	C	0.000031	-1.128206	-0.190783
N13	N	0.360386	-1.501128	-0.187431
N14	N	-0.360300	-1.501202	-0.187410
C15	C	0.000576	-0.944780	-0.045853
C16	C	0.000038	-1.091397	-0.049697
C17	C	-0.132042	-1.066549	-0.258672
C18	C	-0.132136	-0.920005	-0.253847
C19	C	0.130885	-0.919487	-0.256722
C20	C	0.132615	-1.066467	-0.258031
C21	C	0.580752	-1.397499	-0.290392
C22	C	0.419584	-1.397727	-0.290778
C23	C	0.418839	-1.633850	-0.217574
C24	C	0.580057	-1.633286	-0.218303
C25	C	0.580297	-1.473356	-0.053991
C26	C	0.419071	-1.470309	-0.054856
C27	C	0.000042	-1.508324	0.044583
C28	C	0.000035	-1.504542	0.185531
C29	C	0.000050	-0.733170	-0.180261
C30	C	0.000057	-0.874123	-0.184002
C31	C	0.000040	-1.493996	-0.419435
C32	C	0.000039	-1.497778	-0.560383
C33	C	-0.000489	-1.359626	0.368968
C34	C	0.000032	-1.363460	0.222350
C35	C	0.132115	-1.572422	0.247182
C36	C	0.132227	-1.567607	0.393727
C37	C	-0.130795	-1.570507	0.394250
C38	C	-0.132541	-1.571806	0.247268
H39	H	0.094714	-1.134000	0.003721
Cl40	Cl	0.359639	-1.755909	-0.104933
H41	H	0.380868	-1.372672	-0.032009
Cl42	Cl	0.132265	-0.846574	-0.414047
Cl43	Cl	0.356885	-1.579209	0.069150
Cl44	Cl	0.360009	-1.425311	-0.443618
Cl45	Cl	0.638096	-1.670884	-0.368587
Cl46	Cl	-0.285357	-1.500014	0.442952
H47	H	0.619048	-1.712927	-0.146318
H48	H	0.621032	-1.378620	-0.025305
H49	H	0.378448	-1.658748	-0.313813
H50	H	0.380066	-1.299111	-0.272640
Cl51	Cl	0.139711	-1.732383	0.212662
H52	H	-0.230862	-0.891807	-0.203663
Cl53	Cl	0.283868	-1.499589	0.181422
H54	H	0.618416	-1.548967	0.022659
Cl55	Cl	0.146448	-1.280379	0.157874
H56	H	-0.094649	-1.310047	0.179752
H57	H	0.095294	-0.916184	0.009883
Cl58	Cl	-0.283803	-1.132311	-0.185857
Cl59	Cl	-0.139668	-1.101097	-0.418624
H60	H	-0.230251	-1.522139	0.206414
H61	H	-0.131680	-1.672410	0.441469
Cl62	Cl	-0.146727	-1.273591	0.413129
Cl63	Cl	0.144493	-1.273672	0.416152
H64	H	0.230957	-1.517418	0.421928
H65	H	0.140588	-1.090692	-0.360892
H66	H	-0.140514	-1.674667	0.223040
Cl67	Cl	-0.144835	-0.898155	0.039851
Cl68	Cl	-0.146638	-1.155830	0.033000
H69	H	0.138222	-1.669071	0.441689
H70	H	-0.138131	-0.872037	-0.355309
H71	H	0.230997	-0.887929	-0.211063
H72	H	0.230322	-1.107418	-0.208435
Cl73	Cl	0.640634	-1.244756	-0.262803
Cl74	Cl	0.643245	-1.424789	-0.442360
