data_functionalizedCrystal
_audit_creation_method	'MofGen! by Chris Wilmer'
_symmetry_space_group_name_H-M	'P1'
_symmetry_Int_Tables_number	1
_symmetry_cell_setting	triclinic
loop_
_symmetry_equiv_pos_as_xyz
  x,y,z
_cell_length_a	16.992694
_cell_length_b	19.188925
_cell_length_c	15.455313
_cell_angle_alpha	92.656281
_cell_angle_beta	87.142206
_cell_angle_gamma	86.905386
loop_
_atom_site_label
_atom_site_type_symbol
_atom_site_fract_x
_atom_site_fract_y
_atom_site_fract_z
O1	O	1.043322	0.145161	-0.072021
O2	O	0.815043	0.143536	-0.072046
O3	O	0.935772	0.043078	-0.072028
O4	O	0.922593	0.245619	-0.072039
O5	O	0.928869	0.048798	0.072233
O6	O	0.808140	0.149255	0.072215
O7	O	1.036418	0.150880	0.072240
Cu8	Cu	0.921649	0.150590	0.085400
Cu9	Cu	0.929813	0.143826	-0.085206
O10	O	0.915689	0.251338	0.072222
C11	C	0.782386	0.144307	0.000081
C12	C	0.695364	0.138073	0.000071
C13	C	0.931894	0.019902	0.000102
C14	C	0.930615	-0.057678	0.000100
C15	C	0.644916	0.198213	0.000068
C16	C	0.563149	0.192353	0.000081
C17	C	0.531832	0.126352	0.000090
C18	C	0.582286	0.066208	0.000095
C19	C	0.664051	0.072069	0.000089
C20	C	0.288317	0.102060	0.000114
C21	C	0.206546	0.096203	0.000118
C22	C	0.187414	0.222349	0.000105
C23	C	0.269182	0.228204	0.000094
C24	C	0.319629	0.168060	0.000104
N25	N	0.448253	0.120360	0.000099
N26	N	0.403205	0.174053	0.000100
C27	C	0.992891	-0.615804	0.000085
C28	C	0.994100	-0.542910	0.000093
C29	C	0.923260	-0.502121	0.000085
C30	C	0.851205	-0.534231	0.000091
C31	C	0.849998	-0.607124	0.000092
N32	N	0.874324	-0.386389	-0.049024
N33	N	0.875476	-0.317144	-0.049026
C34	C	0.926891	-0.282499	0.000085
N35	N	0.977124	-0.319717	0.049187
N36	N	0.975975	-0.388968	0.049186
C37	C	0.924560	-0.423081	0.000085
C38	C	1.000251	-0.171357	0.000093
C39	C	1.001456	-0.098461	0.000107
C40	C	0.858560	-0.089784	0.000096
C41	C	0.857356	-0.162679	0.000091
C42	C	0.928204	-0.203461	0.000086
C43	C	1.069075	0.150110	0.000111
C44	C	1.156098	0.156343	0.000115
C45	C	0.919567	0.274514	0.000090
C46	C	0.920847	0.352094	0.000086
N47	N	0.915912	0.155347	0.205394
N48	N	0.935556	0.139064	-0.205201
C49	C	0.967219	0.112687	0.250796
C50	C	0.962888	0.116292	0.341603
C51	C	0.907252	0.162560	0.387007
C52	C	0.855939	0.205222	0.341599
C53	C	0.860268	0.201614	0.250793
C54	C	0.888571	0.178117	0.658586
C55	C	0.884248	0.181724	0.749398
C56	C	0.991197	0.092792	0.749396
C57	C	0.995523	0.089191	0.658589
C58	C	0.944207	0.131850	0.613188
N59	N	0.902826	0.166247	0.479827
N60	N	0.948631	0.128159	0.520370
H61	H	0.670408	0.251957	0.000061
H62	H	0.818487	0.236351	0.213828
C63	C	1.027532	0.062320	0.201574
C64	C	1.013970	-0.006105	0.223690
C65	C	1.069507	-0.052532	0.178368
H66	H	1.079150	0.073339	0.216418
H67	H	1.022775	0.066216	0.140977
H68	H	1.018734	-0.009998	0.284273
H69	H	0.962363	-0.017146	0.208844
H70	H	1.064750	-0.048637	0.117772
H71	H	1.121121	-0.041507	0.193216
H72	H	1.060308	-0.098964	0.193362
H73	H	0.181051	0.042455	0.000124
C74	C	0.795573	0.255565	0.390777
C75	C	0.809081	0.323999	0.368654
C76	C	0.753480	0.370394	0.413928
H77	H	0.800284	0.251703	0.451375
H78	H	0.743977	0.244483	0.375884
H79	H	0.860664	0.335077	0.383553
H80	H	0.804364	0.327883	0.308065
H81	H	0.701884	0.359312	0.399034
H82	H	0.758195	0.366525	0.474523
H83	H	0.762633	0.416830	0.398918
C84	C	0.132775	0.287725	0.000058
C85	C	0.177703	0.346778	0.000029
C86	C	0.127398	0.407018	-0.000023
H87	H	0.098063	0.290155	0.050354
H88	H	0.102893	0.286106	-0.050267
H89	H	0.207572	0.348398	0.050349
H90	H	0.212413	0.344372	-0.050263
H91	H	0.097516	0.405398	-0.050349
H92	H	0.092688	0.409441	0.050273
H93	H	0.157874	0.447092	-0.000051
C94	C	1.077102	-0.215719	0.000235
C95	C	1.077024	-0.254897	0.074440
C96	C	1.147802	-0.295775	0.074595
H97	H	1.120246	-0.186239	0.000287
H98	H	1.082015	-0.246366	-0.050048
H99	H	1.072120	-0.224253	0.124710
H100	H	1.033896	-0.284391	0.074404
H101	H	1.152715	-0.326421	0.024312
H102	H	1.190940	-0.266289	0.074645
H103	H	1.147756	-0.322366	0.124938
H104	H	0.329382	0.053086	0.000123
H105	H	1.040826	0.051515	0.621623
C106	C	0.771759	-0.641951	-0.000094
C107	C	0.732507	-0.624554	-0.074326
C108	C	0.660435	-0.656632	-0.074534
H109	H	0.740102	-0.626259	0.050153
H110	H	0.781156	-0.691211	-0.000143
H111	H	0.723108	-0.575304	-0.074269
H112	H	0.764140	-0.640246	-0.124584
H113	H	0.669832	-0.705892	-0.074583
H114	H	0.628786	-0.640937	-0.024284
H115	H	0.633797	-0.644838	-0.124903
H116	H	1.050581	-0.649005	0.000085
H117	H	0.846789	0.212854	0.621628
C118	C	1.079764	-0.063737	0.000065
C119	C	1.141547	-0.115059	0.000037
C120	C	1.213697	-0.083097	-0.000013
H121	H	1.080916	-0.033497	0.050360
H122	H	1.085650	-0.037491	-0.050261
H123	H	1.135663	-0.141294	0.050357
H124	H	1.140422	-0.145302	-0.050255
H125	H	1.219583	-0.056851	-0.050339
H126	H	1.214840	-0.052857	0.050283
H127	H	1.255625	-0.117914	-0.000040
H128	H	0.800880	-0.056575	0.000097
H129	H	1.004666	0.081554	0.378569
C130	C	1.046864	0.046353	0.798581
C131	C	1.035451	-0.023835	0.776488
C132	C	1.086723	-0.066640	0.821771
H133	H	1.036373	0.055032	0.859177
H134	H	1.099884	0.056242	0.783675
H135	H	0.982443	-0.033720	0.791400
H136	H	1.045948	-0.032536	0.715900
H137	H	1.139743	-0.056751	0.806865
H138	H	1.076228	-0.057954	0.882365
H139	H	1.078991	-0.114267	0.806782
H140	H	0.798690	-0.188817	0.000086
H141	H	0.838941	0.219404	0.786361
H142	H	0.793527	-0.501016	0.000087
C143	C	0.508509	0.257729	0.000033
C144	C	0.553437	0.316782	-0.000004
C145	C	0.503131	0.377021	-0.000058
H146	H	0.473800	0.260161	0.050330
H147	H	0.478625	0.256106	-0.050291
H148	H	0.583309	0.318405	0.050314
H149	H	0.588145	0.314374	-0.050298
H150	H	0.473247	0.375399	-0.050382
H151	H	0.468424	0.379446	0.050240
H152	H	0.533608	0.417096	-0.000091
H153	H	0.294674	0.281948	0.000077
H154	H	0.556781	0.012469	0.000114
H155	H	1.052769	-0.516767	0.000092
C156	C	0.718699	0.006689	0.000042
C157	C	0.673776	-0.052367	0.000026
C158	C	0.724089	-0.112609	-0.000025
H159	H	0.748612	0.008249	0.050333
H160	H	0.753383	0.004320	-0.050287
H161	H	0.639106	-0.049998	0.050351
H162	H	0.643864	-0.053950	-0.050261
H163	H	0.758773	-0.114979	-0.050355
H164	H	0.754000	-0.111042	0.050267
H165	H	0.693617	-0.152687	-0.000044
