data_functionalizedCrystal
_audit_creation_method	'MofGen! by Chris Wilmer'
_symmetry_space_group_name_H-M	'P1'
_symmetry_Int_Tables_number	1
_symmetry_cell_setting	triclinic
loop_
_symmetry_equiv_pos_as_xyz
  x,y,z
_cell_length_a	17.077404
_cell_length_b	12.594516
_cell_length_c	17.077396
_cell_angle_alpha	89.975251
_cell_angle_beta	89.982940
_cell_angle_gamma	90.016278
loop_
_atom_site_label
_atom_site_type_symbol
_atom_site_fract_x
_atom_site_fract_y
_atom_site_fract_z
Zn1	Zn	1.200073	-0.423719	-0.443872
Zn2	Zn	1.700073	0.076281	0.056128
Zn3	Zn	1.200001	-0.601725	-0.312618
Zn4	Zn	1.700001	-0.101725	0.187382
Zn5	Zn	1.068810	-0.423761	-0.312620
Zn6	Zn	1.568810	0.076239	0.187380
Zn7	Zn	1.068788	-0.601656	-0.443842
Zn8	Zn	1.568788	-0.101656	0.056158
O9	O	1.134418	-0.512715	-0.378238
O10	O	1.634418	-0.012715	0.121762
O11	O	1.309910	-0.447343	-0.426473
O12	O	1.809910	0.052657	0.073527
O13	O	1.182578	-0.578164	-0.202771
O14	O	1.682578	-0.078164	0.297229
O15	O	1.086262	-0.274810	-0.330044
O16	O	1.586262	0.225190	0.169956
O17	O	1.309858	-0.578123	-0.330041
O18	O	1.809858	-0.078123	0.169959
O19	O	1.182700	-0.274779	-0.426474
O20	O	1.682700	0.225221	0.073526
O21	O	1.086192	-0.447415	-0.202773
O22	O	1.586192	0.052585	0.297227
O23	O	0.958961	-0.447349	-0.330015
O24	O	1.458961	0.052651	0.169985
O25	O	1.086224	-0.578006	-0.553693
O26	O	1.586224	-0.078006	-0.053693
O27	O	0.958944	-0.578047	-0.426423
O28	O	1.458944	-0.078047	0.073577
O29	O	1.182679	-0.447276	-0.553715
O30	O	1.682679	0.052724	-0.053715
O31	O	1.182556	-0.750661	-0.330012
O32	O	1.682556	-0.250661	0.169988
O33	O	1.086155	-0.750611	-0.426421
O34	O	1.586155	-0.250611	0.073579
C35	C	0.930470	-0.512696	-0.378216
C36	C	1.430470	-0.012696	0.121784
C37	C	0.843221	-0.512713	-0.378226
C38	C	1.343221	-0.012713	0.121774
C39	C	0.802243	-0.580871	-0.428345
C40	C	1.302243	-0.080871	0.071655
C41	C	0.720262	-0.580873	-0.428357
C42	C	1.220262	-0.080873	0.071643
C43	C	0.679261	-0.512723	-0.378246
C44	C	1.179261	-0.012723	0.121754
C45	C	0.720245	-0.444557	-0.328125
C46	C	1.220245	0.055443	0.171875
C47	C	0.802224	-0.444551	-0.328117
C48	C	1.302224	0.055449	0.171883
C49	C	0.549375	-0.444578	-0.328144
C50	C	1.049375	0.055422	0.171856
C51	C	0.467390	-0.444586	-0.328150
C52	C	0.967390	0.055414	0.171850
C53	C	0.467413	-0.580901	-0.428384
C54	C	0.967413	-0.080901	0.071616
C55	C	0.549392	-0.580894	-0.428376
C56	C	1.049392	-0.080894	0.071624
C57	C	0.590370	-0.512730	-0.378253
C58	C	1.090370	-0.012730	0.121747
C59	C	1.134367	-0.789256	-0.378230
C60	C	1.634367	-0.289256	0.121770
C61	C	1.134417	-0.907562	-0.378253
C62	C	1.634417	-0.407562	0.121747
C63	C	1.081979	-0.976826	-0.430653
C64	C	1.581979	-0.476826	0.069347
C65	C	1.062858	-1.047689	-0.359026
C66	C	1.562858	-0.547689	0.140974
C67	C	1.153609	-1.047498	-0.449893
C68	C	1.653609	-0.547498	0.050107
C69	C	1.115258	-0.976866	-0.306587
C70	C	1.615258	-0.476866	0.193413
C71	C	1.206042	-0.976669	-0.397503
C72	C	1.706042	-0.476669	0.102497
C73	C	1.186949	-1.047500	-0.325826
C74	C	1.686949	-0.547500	0.174174
C75	C	1.339163	-0.512735	-0.378260
C76	C	1.839163	-0.012735	0.121740
C77	C	1.426412	-0.512744	-0.378269
C78	C	1.926412	-0.012744	0.121731
C79	C	1.134457	-0.512629	-0.582982
C80	C	1.634457	-0.012629	-0.082982
C81	C	1.134474	-0.512592	-0.670232
C82	C	1.634474	-0.012592	-0.170232
C83	C	1.134491	-0.235094	-0.378263
C84	C	1.634491	0.264906	0.121737
C85	C	1.134522	-0.116789	-0.378273
C86	C	1.634522	0.383211	0.121727
C87	C	1.184733	-0.580549	-1.046048
C88	C	1.684733	-0.080549	-0.546048
C89	C	1.184713	-0.580580	-0.964068
C90	C	1.684713	-0.080580	-0.464068
C91	C	1.134524	-0.512517	-0.923081
C92	C	1.634524	-0.012517	-0.423081
C93	C	1.084346	-0.444426	-0.964079
C94	C	1.584346	0.055574	-0.464079
C95	C	1.084363	-0.444401	-1.046058
C96	C	1.584363	0.055599	-0.546058
C97	C	1.084317	-0.444481	-0.793209
C98	C	1.584317	0.055519	-0.293209
C99	C	1.084301	-0.444504	-0.711224
C100	C	1.584301	0.055496	-0.211224
C101	C	1.184667	-0.580660	-0.711219
C102	C	1.684667	-0.080660	-0.211219
C103	C	1.184684	-0.580635	-0.793198
C104	C	1.684684	-0.080635	-0.293198
C105	C	1.134506	-0.512543	-0.834190
C106	C	1.634506	-0.012543	-0.334190
C107	C	1.134425	-0.512724	-0.174290
C108	C	1.634425	-0.012724	0.325710
C109	C	1.134560	-0.512461	-0.087041
C110	C	1.634560	-0.012461	0.412959
H111	H	0.686902	-0.636375	-0.469169
H112	H	1.186902	-0.136375	0.030831
H113	H	1.002334	-1.078908	-0.342760
H114	H	1.502334	-0.578908	0.157240
H115	H	1.098998	-0.945969	-0.245994
H116	H	1.598998	-0.445969	0.254006
Cl117	Cl	1.255486	-1.095111	-0.257348
Cl118	Cl	1.755486	-0.595111	0.242652
Cl119	Cl	1.013395	-0.928909	-0.498971
Cl120	Cl	1.513395	-0.428909	0.001029
H121	H	0.686855	-0.389063	-0.287327
H122	H	1.186855	0.110937	0.212673
Cl123	Cl	0.853739	-0.358860	-0.265109
Cl124	Cl	1.353739	0.141140	0.234891
Cl125	Cl	1.299465	-0.928468	-0.422669
Cl126	Cl	1.799465	-0.428468	0.077331
Cl127	Cl	0.415899	-0.666578	-0.491407
Cl128	Cl	0.915899	-0.166578	0.008593
H129	H	1.225523	-0.636104	-0.677839
H130	H	1.725523	-0.136104	-0.177839
H131	H	1.169799	-1.078523	-0.510470
H132	H	1.669799	-0.578523	-0.010470
H133	H	1.225606	-0.635969	-1.079414
H134	H	1.725606	-0.135969	-0.579414
H135	H	0.582737	-0.389063	-0.287335
H136	H	1.082737	0.110937	0.212665
Cl137	Cl	1.247792	-0.666179	-0.912538
Cl138	Cl	1.747792	-0.166179	-0.412538
H139	H	1.225556	-0.636053	-0.826567
H140	H	1.725556	-0.136053	-0.326567
Cl141	Cl	1.021203	-0.358941	-0.659699
Cl142	Cl	1.521203	0.141059	-0.159699
H143	H	0.434010	-0.389079	-0.287355
H144	H	0.934010	0.110921	0.212645
H145	H	1.043457	-0.389033	-0.826582
H146	H	1.543457	0.110967	-0.326582
Cl147	Cl	1.021262	-0.358846	-0.912553
Cl148	Cl	1.521262	0.141154	-0.412553
H149	H	0.835620	-0.636371	-0.469149
H150	H	1.335620	-0.136371	0.030851
Cl151	Cl	0.600935	-0.666578	-0.491369
Cl152	Cl	1.100935	-0.166578	0.008631
H153	H	1.043508	-0.388956	-1.079433
H154	H	1.543508	0.111044	-0.579433
