data_functionalizedCrystal
_audit_creation_method	'MofGen! by Chris Wilmer'
_symmetry_space_group_name_H-M	'P1'
_symmetry_Int_Tables_number	1
_symmetry_cell_setting	triclinic
loop_
_symmetry_equiv_pos_as_xyz
  x,y,z
_cell_length_a	21.295420
_cell_length_b	21.295417
_cell_length_c	21.295411
_cell_angle_alpha	89.979403
_cell_angle_beta	89.975307
_cell_angle_gamma	90.027953
loop_
_atom_site_label
_atom_site_type_symbol
_atom_site_fract_x
_atom_site_fract_y
_atom_site_fract_z
Zn1	Zn	0.962359	-0.250710	-0.355918
Zn2	Zn	1.462359	0.249290	0.144082
Zn3	Zn	0.962263	-0.355962	-0.250646
Zn4	Zn	1.462263	0.144038	0.249354
Zn5	Zn	0.857082	-0.250708	-0.250663
Zn6	Zn	1.357082	0.249292	0.249337
Zn7	Zn	0.857053	-0.355942	-0.355877
Zn8	Zn	1.357053	0.144058	0.144123
O9	O	0.909689	-0.303331	-0.303276
O10	O	1.409689	0.196669	0.196724
O11	O	1.050435	-0.264682	-0.341964
O12	O	1.550435	0.235318	0.158036
O13	O	0.948282	-0.342007	-0.162558
O14	O	1.448282	0.157993	0.337442
O15	O	0.871100	-0.162619	-0.264650
O16	O	1.371100	0.337381	0.235350
O17	O	1.050365	-0.342010	-0.264620
O18	O	1.550365	0.157990	0.235380
O19	O	0.948446	-0.162621	-0.341980
O20	O	1.448446	0.337379	0.158020
O21	O	0.871006	-0.264677	-0.162571
O22	O	1.371006	0.235323	0.337429
O23	O	0.768989	-0.264658	-0.264610
O24	O	1.268989	0.235342	0.235390
O25	O	0.871050	-0.341976	-0.443972
O26	O	1.371050	0.158024	0.056028
O27	O	0.768967	-0.341973	-0.341910
O28	O	1.268967	0.158027	0.158090
O29	O	0.948418	-0.264662	-0.444002
O30	O	1.448418	0.235338	0.055998
O31	O	0.948254	-0.444049	-0.264580
O32	O	1.448254	0.055951	0.235420
O33	O	0.870957	-0.444034	-0.341893
O34	O	1.370957	0.055966	0.158107
C35	C	0.746138	-0.303314	-0.303258
C36	C	1.246138	0.196686	0.196742
C37	C	0.676169	-0.303321	-0.303265
C38	C	1.176169	0.196679	0.196735
C39	C	0.909609	-0.466882	-0.303244
C40	C	1.409609	0.033118	0.196756
C41	C	0.909632	-0.536850	-0.303251
C42	C	1.409632	-0.036850	0.196749
C43	C	0.176717	-0.343663	-0.343487
C44	C	0.676717	0.156337	0.156513
C45	C	0.242459	-0.343663	-0.343480
C46	C	0.742459	0.156337	0.156520
C47	C	0.275330	-0.303345	-0.303296
C48	C	0.775330	0.196655	0.196704
C49	C	0.242453	-0.263035	-0.263103
C50	C	0.742453	0.236965	0.236897
C51	C	0.176711	-0.263040	-0.263106
C52	C	0.676711	0.236960	0.236894
N53	N	0.378570	-0.248227	-0.298562
N54	N	0.878570	0.251773	0.201438
N55	N	0.441021	-0.248224	-0.298563
N56	N	0.941021	0.251776	0.201437
C57	C	0.473405	-0.303327	-0.303282
C58	C	0.973405	0.196673	0.196718
N59	N	0.440977	-0.358435	-0.308014
N60	N	0.940977	0.141565	0.191986
N61	N	0.378520	-0.358438	-0.308017
N62	N	0.878520	0.141562	0.191983
C63	C	0.346615	-0.303335	-0.303287
C64	C	0.846615	0.196665	0.196713
C65	C	0.577560	-0.343638	-0.343462
C66	C	1.077560	0.156362	0.156538
C67	C	0.643303	-0.343639	-0.343451
C68	C	1.143303	0.156361	0.156549
C69	C	0.643295	-0.263005	-0.263077
C70	C	1.143295	0.236995	0.236923
C71	C	0.577553	-0.263010	-0.263085
C72	C	1.077553	0.236990	0.236915
C73	C	0.544689	-0.303325	-0.303281
C74	C	1.044689	0.196675	0.196719
C75	C	0.949883	-0.569661	-0.343546
C76	C	1.449883	-0.069661	0.156454
C77	C	0.949906	-0.635403	-0.343562
C78	C	1.449906	-0.135403	0.156438
C79	C	0.909683	-0.668333	-0.303271
C80	C	1.409683	-0.168333	0.196729
C81	C	0.869424	-0.635514	-0.262974
C82	C	1.369424	-0.135514	0.237026
C83	C	0.869399	-0.569773	-0.262964
C84	C	1.369399	-0.069773	0.237036
N85	N	0.904924	-0.771585	-0.248180
N86	N	1.404924	-0.271585	0.251820
N87	N	0.904952	-0.834036	-0.248191
N88	N	1.404952	-0.334036	0.251809
C89	C	0.909757	-0.866407	-0.303300
C90	C	1.409757	-0.366407	0.196700
N91	N	0.914545	-0.833968	-0.358398
N92	N	1.414545	-0.333968	0.141602
N93	N	0.914520	-0.771511	-0.358386
N94	N	1.414520	-0.271511	0.141614
C95	C	0.909706	-0.739618	-0.303278
C96	C	1.409706	-0.239618	0.196722
C97	C	0.950034	-0.970504	-0.343615
C98	C	1.450034	-0.470504	0.156385
C99	C	0.950052	-1.036247	-0.343631
C100	C	1.450052	-0.536247	0.156369
C101	C	0.869574	-1.036357	-0.263038
C102	C	1.369574	-0.536357	0.236962
C103	C	0.869553	-0.970615	-0.263027
C104	C	1.369553	-0.470615	0.236973
C105	C	0.909786	-0.937692	-0.303314
C106	C	1.409786	-0.437692	0.196686
C107	C	1.073879	-0.303348	-0.303294
C108	C	1.573879	0.196652	0.196706
C109	C	1.143847	-0.303356	-0.303302
C110	C	1.643847	0.196644	0.196698
C111	C	0.909741	-0.303317	-0.467466
C112	C	1.409741	0.196683	0.032534
C113	C	0.909764	-0.303312	-0.537434
C114	C	1.409764	0.196688	-0.037434
C115	C	0.909787	-0.139140	-0.303322
C116	C	1.409787	0.360860	0.196678
C117	C	0.909828	-0.069172	-0.303341
C118	C	1.409828	0.430828	0.196659
C119	C	0.950047	-0.263053	-0.570318
C120	C	1.450047	0.236947	-0.070318
C121	C	0.950046	-0.263025	-0.636060
C122	C	1.450046	0.236975	-0.136060
C123	C	0.909769	-0.303268	-0.668917
C124	C	1.409769	0.196732	-0.168917
C125	C	0.869477	-0.343530	-0.636026
C126	C	1.369477	0.156470	-0.136026
C127	C	0.869475	-0.343552	-0.570284
C128	C	1.369475	0.156448	-0.070284
N129	N	0.904913	-0.358336	-0.772133
N130	N	1.404913	0.141664	-0.272133
N131	N	0.904919	-0.358314	-0.834585
N132	N	1.404919	0.141686	-0.334585
C133	C	0.909773	-0.303204	-0.866992
C134	C	1.409773	0.196796	-0.366992
N135	N	0.914632	-0.248117	-0.834588
N136	N	1.414632	0.251883	-0.334588
N137	N	0.914630	-0.248141	-0.772131
N138	N	1.414630	0.251859	-0.272131
C139	C	0.909766	-0.303249	-0.740202
C140	C	1.409766	0.196751	-0.240202
C141	C	0.950057	-0.262913	-0.971161
C142	C	1.450057	0.237087	-0.471161
C143	C	0.950052	-0.262884	-1.036905
C144	C	1.450052	0.237116	-0.536905
C145	C	0.869486	-0.343394	-1.036869
C146	C	1.369486	0.156606	-0.536869
C147	C	0.869488	-0.343417	-0.971126
C148	C	1.369488	0.156583	-0.471126
C149	C	0.909777	-0.303177	-0.938276
C150	C	1.409777	0.196823	-0.438276
C151	C	0.909673	-0.303298	-0.139724
C152	C	1.409673	0.196702	0.360276
C153	C	0.909773	-0.303127	-0.069757
C154	C	1.409773	0.196873	0.430243
H155	H	0.269227	-0.376486	-0.376206
H156	H	0.769227	0.123514	0.123794
O157	O	0.830384	-0.667430	-0.223748
O158	O	1.330384	-0.167430	0.276252
C159	C	0.844173	-0.651396	-0.161017
C160	C	1.344173	-0.151396	0.338983
H161	H	0.868353	-0.603642	-0.159728
H162	H	1.368353	-0.103642	0.340272
H163	H	0.876562	-0.688377	-0.139849
H164	H	1.376562	-0.188377	0.360151
C165	C	0.753124	-0.707085	-0.124416
C166	C	1.253124	-0.207085	0.375584
C167	C	0.782817	-0.648430	-0.122831
C168	C	1.282817	-0.148430	0.377169
H169	H	0.715278	-0.705258	-0.100859
H170	H	1.215278	-0.205258	0.399141
H171	H	0.743835	-0.717889	-0.166678
H172	H	1.243835	-0.217889	0.333322
H173	H	0.780121	-0.737896	-0.106777
H174	H	1.280121	-0.237896	0.393223
H175	H	0.755823	-0.617621	-0.140477
H176	H	1.255823	-0.117621	0.359523
H177	H	0.792101	-0.637620	-0.080571
H178	H	1.292101	-0.137620	0.419429
O179	O	0.989101	-0.223793	-0.939175
O180	O	1.489101	0.276207	-0.439175
C181	C	0.953287	-0.183136	-0.901140
C182	C	1.453287	0.316864	-0.401140
H183	H	0.905568	-0.205335	-0.891273
H184	H	1.405568	0.294665	-0.391273
H185	H	0.946401	-0.136474	-0.926470
H186	H	1.446401	0.363526	-0.426470
C187	C	1.046538	-0.144507	-0.850826
C188	C	1.546538	0.355493	-0.350826
C189	C	0.987931	-0.171774	-0.838702
C190	C	1.487931	0.328226	-0.338702
H191	H	1.067909	-0.137495	-0.812312
H192	H	1.567909	0.362505	-0.312312
H193	H	1.070668	-0.171896	-0.876451
H194	H	1.570668	0.328104	-0.376451
H195	H	1.040791	-0.105625	-0.871935
H196	H	1.540791	0.394375	-0.371935
H197	H	0.993679	-0.210658	-0.817600
H198	H	1.493679	0.289342	-0.317600
H199	H	0.963803	-0.144391	-0.813071
H200	H	1.463803	0.355609	-0.313071
H201	H	0.836621	-0.543058	-0.230150
H202	H	1.336621	-0.043058	0.269850
H203	H	0.836779	-0.943898	-0.230212
H204	H	1.336779	-0.443898	0.269788
H205	H	0.269220	-0.230208	-0.230383
H206	H	0.769220	0.269792	0.269617
O207	O	0.675264	-0.382861	-0.382399
O208	O	1.175264	0.117139	0.117601
C209	C	0.713268	-0.423460	-0.346491
C210	C	1.213268	0.076540	0.153509
H211	H	0.693429	-0.427287	-0.296908
H212	H	1.193429	0.072713	0.203092
H213	H	0.763099	-0.403989	-0.344349
H214	H	1.263099	0.096011	0.155651
C215	C	0.738635	-0.484238	-0.438036
C216	C	1.238635	0.015762	0.061964
C217	C	0.714265	-0.488943	-0.377139
C218	C	1.214265	0.011057	0.122861
H219	H	0.739253	-0.524630	-0.456942
H220	H	1.239253	-0.024630	0.043058
H221	H	0.713033	-0.456885	-0.462229
H222	H	1.213033	0.043115	0.037771
H223	H	0.780159	-0.468010	-0.436243
H224	H	1.280159	0.031990	0.063757
H225	H	0.672740	-0.505162	-0.378933
H226	H	1.172740	-0.005162	0.121067
H227	H	0.739860	-0.516300	-0.352947
H228	H	1.239860	-0.016300	0.147053
H229	H	0.982642	-0.542857	-0.376352
H230	H	1.482642	-0.042857	0.123648
O231	O	0.830339	-0.382588	-0.939277
O232	O	1.330339	0.117412	-0.439277
C233	C	0.794775	-0.418090	-0.982371
C234	C	1.294775	0.081910	-0.482371
H235	H	0.820559	-0.420260	-1.029244
H236	H	1.320559	0.079740	-0.529244
H237	H	0.746981	-0.395029	-0.989346
H238	H	1.246981	0.104971	-0.489346
C239	C	0.753988	-0.482429	-0.899137
C240	C	1.253988	0.017571	-0.399137
C241	C	0.785660	-0.485098	-0.956706
C242	C	1.285660	0.014902	-0.456706
H243	H	0.748363	-0.523762	-0.883305
H244	H	1.248363	-0.023762	-0.383305
H245	H	0.777947	-0.458509	-0.870103
H246	H	1.277947	0.041491	-0.370103
H247	H	0.714164	-0.463208	-0.904957
H248	H	1.214164	0.036792	-0.404957
H249	H	0.825486	-0.504311	-0.950884
H250	H	1.325486	-0.004311	-0.450884
H251	H	0.761708	-0.509023	-0.985738
H252	H	1.261708	-0.009023	-0.485738
O253	O	0.144705	-0.223860	-0.224154
O254	O	0.644705	0.276140	0.275846
C255	C	0.106718	-0.183244	-0.260062
C256	C	0.606718	0.316756	0.239938
H257	H	0.096891	-0.205505	-0.307733
H258	H	0.596891	0.294495	0.192267
H259	H	0.132069	-0.136596	-0.267047
H260	H	0.632069	0.363404	0.232953
C261	C	0.056324	-0.144481	-0.166901
C262	C	0.556324	0.355519	0.333099
C263	C	0.044250	-0.171824	-0.225451
C264	C	0.544250	0.328176	0.274549
H265	H	0.017791	-0.137433	-0.145551
H266	H	0.517791	0.362567	0.354449
H267	H	0.081917	-0.171842	-0.142709
H268	H	0.581917	0.328158	0.357291
H269	H	0.077451	-0.105610	-0.172730
H270	H	0.577451	0.394390	0.327270
H271	H	0.023130	-0.210697	-0.219620
H272	H	0.523130	0.289303	0.280380
H273	H	0.018651	-0.144469	-0.249641
H274	H	0.518651	0.355531	0.250359
H275	H	0.550800	-0.376466	-0.376191
H276	H	1.050800	0.123534	0.123809
O277	O	0.675286	-0.223928	-0.224009
O278	O	1.175286	0.276072	0.275991
C279	C	0.713266	-0.259707	-0.183273
C280	C	1.213266	0.240293	0.316727
H281	H	0.723106	-0.307443	-0.205389
H282	H	1.223106	0.192557	0.294611
H283	H	0.687902	-0.266559	-0.136614
H284	H	1.187902	0.233441	0.363386
C285	C	0.763635	-0.166422	-0.144767
C286	C	1.263635	0.333578	0.355233
C287	C	0.775726	-0.225050	-0.171933
C288	C	1.275726	0.274950	0.328067
H289	H	0.802162	-0.145043	-0.137769
H290	H	1.302162	0.354957	0.362231
H291	H	0.738046	-0.142316	-0.172210
H292	H	1.238046	0.357684	0.327790
H293	H	0.742497	-0.172140	-0.105888
H294	H	1.242497	0.327860	0.394112
H295	H	0.796856	-0.219330	-0.210816
H296	H	1.296856	0.280670	0.289184
H297	H	0.801320	-0.249154	-0.144497
H298	H	1.301320	0.250846	0.355503
H299	H	0.550790	-0.230185	-0.230364
H300	H	1.050790	0.269815	0.269636
O301	O	0.989185	-1.068192	-0.382688
O302	O	1.489185	-0.568192	0.117312
C303	C	1.029879	-1.106193	-0.346888
C304	C	1.529879	-0.606193	0.153112
H305	H	1.007699	-1.116085	-0.299166
H306	H	1.507699	-0.616085	0.200834
H307	H	1.076523	-1.080823	-0.340006
H308	H	1.576523	-0.580823	0.159994
C309	C	1.068525	-1.156465	-0.440154
C310	C	1.568525	-0.656465	0.059846
C311	C	1.041281	-1.168618	-0.381544
C312	C	1.541281	-0.668618	0.118456
H313	H	1.075561	-1.194971	-0.461532
H314	H	1.575561	-0.694971	0.038468
H315	H	1.041110	-1.130861	-0.464274
H316	H	1.541110	-0.630861	0.035726
H317	H	1.107392	-1.135322	-0.434411
H318	H	1.607392	-0.635322	0.065589
H319	H	1.002411	-1.189754	-0.387288
H320	H	1.502411	-0.689754	0.112712
H321	H	1.068689	-1.194227	-0.357425
H322	H	1.568689	-0.694227	0.142575
O323	O	0.989061	-0.667187	-0.382732
O324	O	1.489061	-0.167187	0.117268
C325	C	1.024548	-0.624031	-0.418305
C326	C	1.524548	-0.124031	0.081695
H327	H	1.026732	-0.577181	-0.392516
H328	H	1.526732	-0.077181	0.107484
H329	H	1.001465	-0.617031	-0.466088
H330	H	1.501465	-0.117031	0.033912
C331	C	1.088865	-0.707176	-0.459129
C332	C	1.588865	-0.207176	0.040871
C333	C	1.091551	-0.649635	-0.427451
C334	C	1.591551	-0.149635	0.072549
H335	H	1.130194	-0.722970	-0.464773
H336	H	1.630194	-0.222970	0.035227
H337	H	1.064955	-0.736252	-0.435164
H338	H	1.564955	-0.236252	0.064836
H339	H	1.069625	-0.701335	-0.498945
H340	H	1.569625	-0.201335	0.001055
H341	H	1.110782	-0.655478	-0.387633
H342	H	1.610782	-0.155478	0.112367
H343	H	1.115465	-0.620561	-0.451409
H344	H	1.615465	-0.120561	0.048591
O345	O	0.989126	-0.938615	-0.382816
O346	O	1.489126	-0.438615	0.117184
C347	C	1.024663	-0.981676	-0.418382
C348	C	1.524663	-0.481676	0.081618
H349	H	0.998897	-1.028560	-0.420541
H350	H	1.498897	-0.528560	0.079459
H351	H	1.072490	-0.988637	-0.395382
H352	H	1.572490	-0.488637	0.104618
C353	C	1.065330	-0.898392	-0.482733
C354	C	1.565330	-0.398392	0.017267
C355	C	1.033680	-0.955975	-0.485389
C356	C	1.533680	-0.455975	0.014611
H357	H	1.070895	-0.882538	-0.524066
H358	H	1.570895	-0.382538	-0.024066
H359	H	1.041390	-0.869381	-0.458771
H360	H	1.541390	-0.369381	0.041229
H361	H	1.105182	-0.904201	-0.463564
H362	H	1.605182	-0.404201	0.036436
H363	H	0.993827	-0.950164	-0.504551
H364	H	1.493827	-0.450164	-0.004551
H365	H	1.057614	-0.984985	-0.509357
H366	H	1.557614	-0.484985	-0.009357
O367	O	0.830424	-0.382472	-1.068875
O368	O	1.330424	0.117528	-0.568875
C369	C	0.839052	-0.373810	-1.133952
C370	C	1.339052	0.126190	-0.633952
H371	H	0.887642	-0.353189	-1.142950
H372	H	1.387642	0.146811	-0.642950
H373	H	0.801730	-0.340285	-1.152597
H374	H	1.301730	0.159715	-0.652597
C375	C	0.773580	-0.462821	-1.156646
C376	C	1.273580	0.037179	-0.656646
C377	C	0.833260	-0.437498	-1.167698
C378	C	1.333260	0.062502	-0.667698
H379	H	0.770004	-0.502105	-1.177463
H380	H	1.270004	-0.002105	-0.677463
H381	H	0.767764	-0.468655	-1.112802
H382	H	1.267764	0.031345	-0.612802
H383	H	0.742484	-0.434877	-1.172184
H384	H	1.242484	0.065123	-0.672184
H385	H	0.864354	-0.465439	-1.152153
H386	H	1.364354	0.034561	-0.652153
H387	H	0.839081	-0.431670	-1.211540
H388	H	1.339081	0.068330	-0.711540
H389	H	0.836820	-1.063168	-0.230236
H390	H	1.336820	-0.563168	0.269764
O391	O	0.144891	-0.382892	-0.382544
O392	O	0.644891	0.117108	0.117456
C393	C	0.188006	-0.418460	-0.418020
C394	C	0.688006	0.081540	0.081980
H395	H	0.234857	-0.420591	-0.392232
H396	H	0.734857	0.079409	0.107768
H397	H	0.195025	-0.395480	-0.465872
H398	H	0.695025	0.104520	0.034128
C399	C	0.104788	-0.482857	-0.458639
C400	C	0.604788	0.017143	0.041361
C401	C	0.162330	-0.485479	-0.426963
C402	C	0.662330	0.014521	0.073037
H403	H	0.088950	-0.524197	-0.464159
H404	H	0.588950	-0.024197	0.035841
H405	H	0.075741	-0.458893	-0.434740
H406	H	0.575741	0.041107	0.065260
H407	H	0.110646	-0.463704	-0.498512
H408	H	0.610646	0.036296	0.001488
H409	H	0.156471	-0.504624	-0.387088
H410	H	0.656471	-0.004624	0.112912
H411	H	0.191376	-0.509448	-0.450855
H412	H	0.691376	-0.009448	0.049145
O413	O	0.989241	-0.223898	-0.667915
O414	O	1.489241	0.276102	-0.167915
C415	C	1.024787	-0.188374	-0.624823
C416	C	1.524787	0.311626	-0.124823
H417	H	1.026948	-0.214170	-0.577959
H418	H	1.526948	0.285830	-0.077959
H419	H	1.001769	-0.140562	-0.617827
H420	H	1.501769	0.359438	-0.117827
C421	C	1.089137	-0.147626	-0.708070
C422	C	1.589137	0.352374	-0.208070
C423	C	1.091795	-0.179312	-0.650511
C424	C	1.591795	0.320688	-0.150511
H425	H	1.130470	-0.142034	-0.723915
H426	H	1.630470	0.357966	-0.223915
H427	H	1.065188	-0.171558	-0.737102
H428	H	1.565188	0.328442	-0.237102
H429	H	1.069953	-0.107786	-0.702232
H430	H	1.569953	0.392214	-0.202232
H431	H	1.110972	-0.219154	-0.656351
H432	H	1.610972	0.280846	-0.156351
H433	H	1.115749	-0.155387	-0.621480
H434	H	1.615749	0.344613	-0.121480
H435	H	0.836681	-0.376294	-0.662782
H436	H	1.336681	0.123706	-0.162782
H437	H	0.982853	-0.230285	-0.543575
H438	H	1.482853	0.269715	-0.043575
H439	H	0.836668	-0.376335	-0.543511
H440	H	1.336668	0.123665	-0.043511
H441	H	0.982855	-0.230097	-1.063677
H442	H	1.482855	0.269903	-0.563677
