data_functionalizedCrystal
_audit_creation_method	'MofGen! by Chris Wilmer'
_symmetry_space_group_name_H-M	'P1'
_symmetry_Int_Tables_number	1
_symmetry_cell_setting	triclinic
loop_
_symmetry_equiv_pos_as_xyz
  x,y,z
_cell_length_a	13.897448
_cell_length_b	10.686220
_cell_length_c	10.686551
_cell_angle_alpha	90.308082
_cell_angle_beta	94.407384
_cell_angle_gamma	85.600540
loop_
_atom_site_label
_atom_site_type_symbol
_atom_site_fract_x
_atom_site_fract_y
_atom_site_fract_z
Zn1	Zn	-0.235165	-1.972272	0.562377
Zn2	Zn	-0.409754	-1.956032	0.352612
Zn3	Zn	-0.259840	-1.746389	0.368693
Zn4	Zn	-0.407799	-1.762462	0.578389
O5	O	-0.328139	-1.859289	0.465518
O6	O	-0.248816	-2.145660	0.521120
O7	O	-0.401012	-1.914699	0.179199
O8	O	-0.121579	-1.776423	0.394415
O9	O	-0.377086	-2.133728	0.367006
O10	O	-0.103450	-1.942379	0.536713
O11	O	-0.290871	-1.760675	0.191014
O12	O	-0.288976	-1.572979	0.409942
O13	O	-0.373754	-1.803817	0.751811
O14	O	-0.397681	-1.584787	0.564004
O15	O	-0.246920	-1.957964	0.740047
O16	O	-0.544482	-1.930284	0.382532
O17	O	-0.543046	-1.788069	0.548410
C18	C	-0.578761	-1.859194	0.465489
C19	C	-0.685969	-1.859272	0.465509
C20	C	-0.345794	-1.533367	0.490456
C21	C	-0.353368	-1.393938	0.501155
C22	C	-0.307367	-1.884495	0.792719
C23	C	-0.298514	-1.895236	0.932152
C24	C	-0.882252	-1.859410	0.465578
C25	C	-0.773026	-1.859330	0.465544
C26	C	-0.076535	-1.859420	0.465572
C27	C	0.030683	-1.859475	0.465595
C28	C	-0.310416	-2.186483	0.440483
C29	C	-0.302864	-2.325914	0.429814
C30	C	-0.348758	-1.834253	0.139584
C31	C	-0.357325	-1.823755	0.000133
H32	H	-0.253831	-1.374343	0.360550
H33	H	-0.241392	-1.964662	0.980628
C34	C	-0.418669	-1.329139	0.593484
C35	C	-0.413434	-1.199092	0.586127
C36	C	-0.473564	-1.139360	0.671171
H37	H	-0.483525	-1.348968	0.573449
H38	H	-0.398139	-1.356995	0.676210
H39	H	-0.433969	-1.171246	0.503419
H40	H	-0.348593	-1.179226	0.606174
H41	H	-0.453034	-1.167216	0.753898
H42	H	-0.538416	-1.159198	0.651129
H43	H	-0.470014	-1.051118	0.666200
C44	C	-0.433549	-1.731385	0.935332
C45	C	-0.496232	-1.796656	0.854635
C46	C	-0.566454	-1.711606	0.794897
H47	H	-0.469363	-1.687938	0.996529
H48	H	-0.402846	-1.672872	0.888330
H49	H	-0.526933	-1.855147	0.901635
H50	H	-0.460446	-1.840099	0.793415
H51	H	-0.535751	-1.653093	0.747895
H52	H	-0.602261	-1.668164	0.856103
H53	H	-0.608987	-1.755879	0.740129
