data_functionalizedCrystal
_audit_creation_method	'MofGen! by Chris Wilmer'
_symmetry_space_group_name_H-M	'P1'
_symmetry_Int_Tables_number	1
_symmetry_cell_setting	triclinic
loop_
_symmetry_equiv_pos_as_xyz
  x,y,z
_cell_length_a	27.732048
_cell_length_b	27.732048
_cell_length_c	9.130313
_cell_angle_alpha	89.993840
_cell_angle_beta	90.005287
_cell_angle_gamma	82.642655
loop_
_atom_site_label
_atom_site_type_symbol
_atom_site_fract_x
_atom_site_fract_y
_atom_site_fract_z
O1	O	0.640924	0.057515	-0.121626
O2	O	0.500131	0.066260	-0.121673
O3	O	0.574900	-0.008509	-0.121620
O4	O	0.566155	0.132284	-0.121679
O5	O	0.574899	-0.008507	0.121979
O6	O	0.500130	0.066262	0.121926
O7	O	0.640923	0.057517	0.121973
Cu8	Cu	0.570527	0.061890	0.144192
Cu9	Cu	0.570528	0.061887	-0.143892
O10	O	0.566154	0.132286	0.121920
C11	C	0.482124	0.066078	0.000121
C12	C	0.428469	0.065525	0.000105
C13	C	0.089654	0.106229	0.000151
C14	C	-0.112006	0.104178	0.000165
O15	O	-0.143262	0.141398	0.000213
N16	N	-0.131130	0.059843	0.000181
C17	C	-0.099835	0.016017	0.000203
O18	O	-0.120728	-0.021740	0.000232
C19	C	0.101824	0.018068	0.000199
C20	C	0.120944	0.062407	0.000169
C21	C	0.108775	0.150563	0.000122
C22	C	0.159187	0.151075	0.000111
C23	C	0.190477	0.107253	0.000128
C24	C	0.171356	0.062919	0.000157
C25	C	0.133117	-0.025757	0.000232
C26	C	0.183535	-0.025240	0.000235
C27	C	0.202655	0.019098	0.000204
C28	C	0.253059	0.019609	0.000163
N29	N	0.272183	0.063944	0.000148
C30	C	0.240892	0.107766	0.000130
C31	C	-0.205709	0.014943	0.000202
C32	C	-0.256124	0.014430	0.000200
C33	C	-0.268291	0.102591	0.000165
C34	C	-0.217876	0.103104	0.000156
C35	C	-0.186585	0.059278	0.000186
C36	C	0.346761	0.108839	0.000105
C37	C	0.397178	0.109347	0.000087
C38	C	0.409341	0.021186	0.000130
C39	C	0.358929	0.020678	0.000140
C40	C	0.327639	0.064508	0.000132
O41	O	0.284343	-0.017592	0.000132
O42	O	0.261794	0.145518	0.000133
C43	C	0.039242	0.105716	0.000163
C44	C	0.020120	0.061382	0.000192
C45	C	0.051411	0.017560	0.000209
C46	C	-0.030294	0.060869	0.000190
C47	C	-0.061585	0.104691	0.000172
C48	C	-0.042461	0.149026	0.000156
C49	C	0.007951	0.149539	0.000145
C50	C	0.032287	-0.026775	0.000225
C51	C	-0.018125	-0.027284	0.000235
C52	C	-0.049416	0.016538	0.000217
C53	C	0.574716	-0.026515	0.000183
C54	C	0.574164	-0.080170	0.000195
C55	C	0.614867	-0.418985	0.000133
C56	C	0.612816	-0.620645	0.000112
O57	O	0.650037	-0.651900	0.000060
N58	N	0.568481	-0.639768	0.000099
C59	C	0.524656	-0.608474	0.000081
O60	O	0.486899	-0.629367	0.000055
C61	C	0.526707	-0.406815	0.000092
C62	C	0.571045	-0.387694	0.000120
C63	C	0.659202	-0.399864	0.000160
C64	C	0.659714	-0.349452	0.000173
C65	C	0.615892	-0.318161	0.000160
C66	C	0.571557	-0.337282	0.000133
C67	C	0.482882	-0.375521	0.000064
C68	C	0.483399	-0.325104	0.000063
C69	C	0.527737	-0.305983	0.000091
C70	C	0.528248	-0.255580	0.000133
N71	N	0.572583	-0.236456	0.000147
C72	C	0.616405	-0.267747	0.000160
C73	C	0.523582	-0.714348	0.000079
C74	C	0.523069	-0.764762	0.000079
C75	C	0.611230	-0.776930	0.000107
C76	C	0.611742	-0.726514	0.000117
C77	C	0.567917	-0.695224	0.000092
C78	C	0.617477	-0.161878	0.000189
C79	C	0.617986	-0.111461	0.000208
C80	C	0.529825	-0.099298	0.000172
C81	C	0.529316	-0.149710	0.000161
C82	C	0.573147	-0.180999	0.000164
O83	O	0.491047	-0.224296	0.000169
O84	O	0.654156	-0.246844	0.000154
C85	C	0.614355	-0.469397	0.000120
C86	C	0.570021	-0.488518	0.000094
C87	C	0.526198	-0.457228	0.000080
C88	C	0.569508	-0.538933	0.000094
C89	C	0.613330	-0.570223	0.000107
C90	C	0.657665	-0.551100	0.000120
C91	C	0.658177	-0.500688	0.000133
C92	C	0.481863	-0.476351	0.000067
C93	C	0.481355	-0.526764	0.000056
C94	C	0.525177	-0.558054	0.000069
C95	C	0.658931	0.057699	0.000176
C96	C	0.712586	0.058252	0.000182
C97	C	0.566338	0.150292	0.000113
C98	C	0.566891	0.203947	0.000092
N99	N	0.570529	0.061891	0.346815
N100	N	0.570529	0.061882	-0.346515
C101	C	0.603646	0.028794	0.423490
C102	C	0.603644	0.028788	0.576827
C103	C	0.537409	0.094981	0.576799
C104	C	0.537408	0.094984	0.423465
C105	C	0.641887	-0.009420	0.423507
C106	C	0.641886	-0.009426	0.576844
H107	H	0.117558	-0.061861	0.000258
N108	N	-0.300257	0.147356	0.000191
N109	N	-0.298698	0.176921	0.102883
H110	H	-0.321276	0.208535	0.102916
N111	N	0.632270	-0.055858	0.371273
N112	N	0.595930	-0.059018	0.292550
H113	H	0.589134	-0.091813	0.255650
H114	H	0.209009	-0.060929	0.000260
H115	H	0.174750	0.187180	0.000085
H116	H	0.694889	-0.425336	0.000165
N117	N	0.076811	0.195327	0.000124
N118	N	0.047326	0.204884	0.102803
H119	H	0.024754	0.236502	0.102800
H120	H	-0.202311	0.139207	0.000139
H121	H	0.510439	0.121930	0.361038
H122	H	0.510443	0.121924	0.639225
N123	N	0.685675	0.004656	0.363862
N124	N	0.718468	0.015193	0.447420
H125	H	0.749391	0.025142	0.405297
N126	N	0.627865	-0.053234	0.636543
N127	N	0.626108	-0.058709	0.772246
H128	H	0.616202	-0.089646	0.814414
H129	H	0.678904	-0.001743	0.618468
N130	N	-0.275644	-0.030865	0.000199
N131	N	-0.247694	-0.069986	0.000214
H132	H	-0.261478	-0.101977	0.000218
N133	N	-0.074422	0.193794	0.000129
N134	N	-0.072876	0.223369	-0.102562
H135	H	-0.095451	0.254985	-0.102575
H136	H	0.412743	0.145454	0.000061
N137	N	0.703468	-0.481160	0.000183
N138	N	0.732923	-0.490875	0.102880
H139	H	0.764912	-0.477087	0.102916
N140	N	0.438631	-0.293142	0.000007
N141	N	0.409065	-0.294694	-0.102701
H142	H	0.377448	-0.272121	-0.102743
N143	N	0.314812	0.153614	0.000105
N144	N	0.331899	0.193192	0.000080
H145	H	0.309336	0.224815	0.000073
H146	H	0.057760	-0.062462	0.000243
N147	N	-0.173757	-0.029831	0.000233
N148	N	-0.190845	-0.069409	0.000245
H149	H	-0.168281	-0.101032	0.000262
H150	H	0.434827	-0.014492	0.000139
N151	N	0.339402	-0.024615	0.000147
N152	N	0.367348	-0.063739	0.000154
H153	H	0.353561	-0.095729	0.000171
H154	H	-0.033688	-0.063392	0.000248
N155	N	0.027470	0.194834	0.000108
N156	N	-0.000481	0.233954	0.000091
H157	H	0.013301	0.265946	0.000066
N158	N	0.485059	-0.067337	0.000126
N159	N	0.445474	-0.084411	0.000084
H160	H	0.413857	-0.061838	0.000036
H161	H	0.654093	-0.095896	0.000235
H162	H	0.653168	-0.187348	0.000186
H163	H	0.646911	-0.802415	0.000118
N164	N	0.705005	-0.329925	0.000213
N165	N	0.734463	-0.339640	0.102903
H166	H	0.766452	-0.325852	0.102929
N167	N	0.657036	-0.706993	0.000153
N168	N	0.696157	-0.734943	0.000176
H169	H	0.728149	-0.721159	0.000201
N170	N	0.477779	-0.784291	0.000099
N171	N	0.448323	-0.774587	0.102775
H172	H	0.416335	-0.788378	0.102786
N173	N	0.478807	-0.682396	0.000053
N174	N	0.439229	-0.699483	0.000044
H175	H	0.407607	-0.676919	0.000032
N176	N	0.437587	-0.395036	0.000032
N177	N	0.398468	-0.367083	0.000004
H178	H	0.366474	-0.380864	-0.000024
H179	H	0.493213	-0.165279	0.000179
H180	H	0.693347	-0.576585	0.000137
N181	N	0.436056	-0.546283	0.000044
N182	N	0.396935	-0.518334	0.000031
H183	H	0.364944	-0.532118	0.000014
H184	H	0.446177	-0.450879	0.000053
