data_functionalizedCrystal
_audit_creation_method	'MofGen! by Chris Wilmer'
_symmetry_space_group_name_H-M	'P1'
_symmetry_Int_Tables_number	1
_symmetry_cell_setting	triclinic
loop_
_symmetry_equiv_pos_as_xyz
  x,y,z
_cell_length_a	14.519731
_cell_length_b	14.519709
_cell_length_c	8.140239
_cell_angle_alpha	89.995533
_cell_angle_beta	89.997185
_cell_angle_gamma	83.684499
loop_
_atom_site_label
_atom_site_type_symbol
_atom_site_fract_x
_atom_site_fract_y
_atom_site_fract_z
O1	O	1.223853	0.120983	-0.136621
O2	O	1.723853	0.620983	0.363379
O3	O	0.955379	0.135199	-0.136624
O4	O	1.455379	0.635199	0.363376
O5	O	1.096734	-0.006147	-0.136607
O6	O	1.596734	0.493853	0.363393
O7	O	1.082498	0.262329	-0.136637
O8	O	1.582498	0.762329	0.363363
O9	O	1.096726	-0.006148	0.136620
O10	O	1.596726	0.493852	0.636620
O11	O	0.955371	0.135198	0.136604
O12	O	1.455371	0.635198	0.636604
O13	O	1.223845	0.120982	0.136607
O14	O	1.723845	0.620982	0.636607
Zn15	Zn	1.089607	0.128090	0.179986
Zn16	Zn	1.589607	0.628090	0.679986
Zn17	Zn	1.089617	0.128092	-0.180003
Zn18	Zn	1.589617	0.628092	0.319997
O19	O	1.082490	0.262328	0.136590
O20	O	1.582490	0.762328	0.636590
C21	C	0.921016	0.134532	-0.000010
C22	C	1.421016	0.634532	0.499990
C23	C	0.818635	0.132536	-0.000011
C24	C	1.318635	0.632536	0.499989
C25	C	0.735491	0.130915	-0.000017
C26	C	1.235491	0.630915	0.499983
C27	C	0.631182	0.128888	-0.000018
C28	C	1.131182	0.628888	0.499982
C29	C	0.548043	0.127280	-0.000017
C30	C	1.048043	0.627280	0.499983
C31	C	0.443728	0.125253	-0.000021
C32	C	0.943728	0.625253	0.499979
C33	C	1.096067	-0.040507	0.000007
C34	C	1.596067	0.459493	0.500007
C35	C	1.094079	-0.142889	0.000008
C36	C	1.594079	0.357111	0.500008
C37	C	1.086759	-0.517785	-0.000035
C38	C	1.586759	-0.017785	0.499965
C39	C	1.088792	-0.413477	-0.000023
C40	C	1.588792	0.086523	0.499977
C41	C	1.090419	-0.330340	-0.000012
C42	C	1.590419	0.169660	0.499988
C43	C	1.092452	-0.226025	-0.000003
C44	C	1.592452	0.273975	0.499997
C45	C	1.258209	0.121649	-0.000010
C46	C	1.758209	0.621649	0.499990
C47	C	1.360589	0.123645	-0.000021
C48	C	1.860589	0.623645	0.499979
C49	C	1.083157	0.296688	-0.000027
C50	C	1.583157	0.796688	0.499973
C51	C	1.085146	0.399070	-0.000039
C52	C	1.585146	0.899070	0.499961
N53	N	1.089607	0.128088	0.425668
N54	N	1.589607	0.628088	0.925668
N55	N	1.089625	0.128086	-0.425685
N56	N	1.589625	0.628086	0.074315
