data_functionalizedCrystal
_audit_creation_method	'MofGen! by Chris Wilmer'
_symmetry_space_group_name_H-M	'P1'
_symmetry_Int_Tables_number	1
_symmetry_cell_setting	triclinic
loop_
_symmetry_equiv_pos_as_xyz
  x,y,z
_cell_length_a	15.995350
_cell_length_b	14.971486
_cell_length_c	13.448316
_cell_angle_alpha	90.006811
_cell_angle_beta	89.996887
_cell_angle_gamma	96.446748
loop_
_atom_site_label
_atom_site_type_symbol
_atom_site_fract_x
_atom_site_fract_y
_atom_site_fract_z
O1	O	1.111103	-0.115296	-0.082608
O2	O	1.611103	0.384704	0.417392
O3	O	0.867342	-0.129533	-0.082629
O4	O	1.367342	0.370467	0.417371
O5	O	0.995756	0.007793	-0.082611
O6	O	1.495756	0.507793	0.417389
O7	O	0.982690	-0.252622	-0.082626
O8	O	1.482690	0.247378	0.417374
O9	O	0.995740	0.007802	0.082773
O10	O	1.495740	0.507802	0.582773
O11	O	0.867326	-0.129524	0.082755
O12	O	1.367326	0.370476	0.582755
O13	O	1.111087	-0.115287	0.082776
O14	O	1.611087	0.384713	0.582776
Cu15	Cu	0.989205	-0.122405	0.097866
Cu16	Cu	1.489205	0.377595	0.597866
Cu17	Cu	0.989224	-0.122415	-0.097719
Cu18	Cu	1.489224	0.377585	0.402281
O19	O	0.982673	-0.252613	0.082758
O20	O	1.482673	0.247387	0.582758
C21	C	0.836139	-0.128940	0.000061
C22	C	1.336139	0.371060	0.500061
C23	C	0.743187	-0.127175	0.000053
C24	C	1.243187	0.372825	0.500053
C25	C	0.995164	0.041122	0.000081
C26	C	1.495164	0.541122	0.500081
C27	C	0.993413	0.140417	0.000080
C28	C	1.493413	0.640417	0.500080
N29	N	0.989198	-0.122397	0.235431
N30	N	1.489198	0.377603	0.735431
C31	C	0.405433	-0.120838	0.000074
C32	C	0.905433	0.379162	0.500074
C33	C	0.452769	-0.023037	0.000449
C34	C	0.952769	0.476963	0.500449
C35	C	0.549461	-0.024802	0.000069
C36	C	1.049461	0.475198	0.500069
C37	C	0.572997	-0.123982	0.000064
C38	C	1.072997	0.376018	0.500064
C39	C	0.531967	-0.172225	-0.094377
C40	C	1.031967	0.327775	0.405623
C41	C	0.435329	-0.169768	-0.094449
C42	C	0.935329	0.330232	0.405551
C43	C	0.434974	-0.171780	0.093623
C44	C	0.934974	0.328220	0.593623
C45	C	0.531919	-0.171756	0.094865
C46	C	1.031919	0.328244	0.594865
C47	C	0.667696	-0.125763	0.000055
C48	C	1.167696	0.374237	0.500055
C49	C	0.310733	-0.119060	0.000076
C50	C	0.810733	0.380940	0.500076
C51	C	1.142291	-0.115880	0.000084
C52	C	1.642291	0.384120	0.500084
C53	C	1.235243	-0.117645	0.000085
C54	C	1.735243	0.382355	0.500085
C55	C	0.983266	-0.285942	0.000064
C56	C	1.483266	0.214058	0.500064
C57	C	0.985017	-0.385237	0.000059
C58	C	1.485017	0.114763	0.500059
C59	C	1.068852	0.197728	0.000087
C60	C	1.568852	0.697728	0.500087
C61	C	1.067202	0.291026	0.000077
C62	C	1.567202	0.791026	0.500077
C63	C	0.990111	0.327010	0.000067
C64	C	1.490111	0.827010	0.500067
C65	C	0.914666	0.269691	0.000057
C66	C	1.414666	0.769691	0.500057
C67	C	0.916317	0.176395	0.000060
C68	C	1.416317	0.676395	0.500060
C69	C	0.911229	0.464150	0.000053
C70	C	1.411229	0.964150	0.500053
C71	C	0.909577	0.557452	0.000052
C72	C	1.409577	1.057452	0.500052
C73	C	1.062114	0.578780	0.000070
C74	C	1.562114	1.078780	0.500070
C75	C	1.063766	0.485484	0.000073
C76	C	1.563766	0.985484	0.500073
C77	C	0.988320	0.428172	0.000065
C78	C	1.488320	0.928172	0.500065
N79	N	0.989238	-0.122415	-0.235284
N80	N	1.489238	0.377585	0.264716
C81	C	1.046077	-0.061614	0.287479
C82	C	1.546077	0.438386	0.787479
C83	C	1.046083	-0.061614	0.391582
C84	C	1.546083	0.438386	0.891582
C85	C	0.989212	-0.122401	0.443635
C86	C	1.489212	0.377599	0.943635
C87	C	0.932326	-0.183187	0.391580
C88	C	1.432326	0.316813	0.891580
C89	C	0.932318	-0.183183	0.287478
C90	C	1.432318	0.316817	0.787478
C91	C	0.932350	-0.183193	0.608560
C92	C	1.432350	0.316807	1.108560
C93	C	0.932359	-0.183199	0.712668
C94	C	1.432359	0.316801	1.212668
C95	C	1.046114	-0.061624	0.712664
C96	C	1.546114	0.438376	1.212664
C97	C	1.046106	-0.061620	0.608562
C98	C	1.546106	0.438380	1.108562
C99	C	0.989221	-0.122407	0.556514
C100	C	1.489221	0.377593	1.056514
H101	H	0.577845	0.013120	0.067769
H102	H	1.077845	0.513120	0.567769
F103	F	0.871795	-0.247878	0.446979
F104	F	1.371795	0.252122	0.946979
F105	F	0.567485	-0.125652	0.186186
F106	F	1.067485	0.374348	0.686186
H107	H	1.128633	0.337686	0.000085
H108	H	1.628633	0.837686	0.500085
H109	H	0.886048	-0.232697	0.755045
H110	H	1.386048	0.267303	1.255045
H111	H	1.123545	0.625449	0.000073
H112	H	1.623545	1.125449	0.500073
H113	H	0.547356	-0.244081	0.100565
H114	H	1.047356	0.255919	0.600565
F115	F	1.106655	0.003069	0.768061
F116	F	1.606655	0.503069	1.268061
H117	H	1.126540	0.456189	0.000088
H118	H	1.626540	0.956189	0.500088
H119	H	0.403284	-0.243888	0.094259
H120	H	0.903284	0.256112	0.594259
F121	F	1.106638	0.003071	0.553163
F122	F	1.606638	0.503071	1.053163
H123	H	0.846803	0.586747	0.000059
H124	H	1.346803	1.086747	0.500059
H125	H	0.886000	-0.232677	0.245101
H126	H	1.386000	0.267323	0.745101
H127	H	1.092392	-0.012118	0.245104
H128	H	1.592392	0.487882	0.745104
F129	F	0.428496	0.028065	0.088975
F130	F	0.928496	0.528065	0.588975
F131	F	0.408086	-0.129981	0.187190
F132	F	0.908086	0.370019	0.687190
H133	H	1.131629	0.168438	0.000101
H134	H	1.631629	0.668438	0.500101
F135	F	0.830930	0.403155	0.000042
F136	F	1.330930	0.903155	0.500042
F137	F	0.871803	-0.247888	0.553170
F138	F	1.371803	0.252112	1.053170
H139	H	0.433143	0.015873	-0.066901
H140	H	0.933143	0.515873	0.433099
H141	H	0.854886	0.129732	0.000054
H142	H	1.354886	0.629732	0.500054
F143	F	0.585811	0.024888	-0.088708
F144	F	1.085811	0.524888	0.411292
F145	F	1.106619	0.003079	0.446976
F146	F	1.606619	0.503079	0.946976
F147	F	0.832619	0.307991	0.000035
F148	F	1.332619	0.807991	0.500035
H149	H	0.403153	-0.241573	-0.098738
H150	H	0.903153	0.258427	0.401262
F151	F	0.411359	-0.123793	-0.186719
F152	F	0.911359	0.376207	0.313281
F153	F	0.550544	-0.267458	-0.098991
F154	F	1.050544	0.232542	0.401009
H155	H	0.560315	-0.138724	-0.164658
H156	H	1.060315	0.361276	0.335342
