data_functionalizedCrystal
_audit_creation_method	'MofGen! by Chris Wilmer'
_symmetry_space_group_name_H-M	'P1'
_symmetry_Int_Tables_number	1
_symmetry_cell_setting	triclinic
loop_
_symmetry_equiv_pos_as_xyz
  x,y,z
_cell_length_a	19.288859
_cell_length_b	15.995292
_cell_length_c	17.766277
_cell_angle_alpha	89.989466
_cell_angle_beta	89.993887
_cell_angle_gamma	83.301171
loop_
_atom_site_label
_atom_site_type_symbol
_atom_site_fract_x
_atom_site_fract_y
_atom_site_fract_z
O1	O	0.089340	1.110682	-0.062614
O2	O	0.589340	1.610682	0.437386
O3	O	0.100438	0.866858	-0.062611
O4	O	0.600438	1.366858	0.437389
O5	O	-0.006225	0.995818	-0.062608
O6	O	0.493775	1.495818	0.437392
O7	O	0.196002	0.981722	-0.062617
O8	O	0.696002	1.481722	0.437383
O9	O	-0.006230	0.995796	0.062580
O10	O	0.493770	1.495796	0.562580
O11	O	0.100432	0.866836	0.062577
O12	O	0.600432	1.366836	0.562577
O13	O	0.089334	1.110660	0.062574
O14	O	0.589334	1.610660	0.562574
Cu15	Cu	0.094883	0.988746	0.074007
Cu16	Cu	0.594883	1.488746	0.574007
Cu17	Cu	0.094889	0.988772	-0.074043
Cu18	Cu	0.594889	1.488772	0.425957
O19	O	0.195997	0.981700	0.062572
O20	O	0.695997	1.481700	0.562572
C21	C	0.099983	0.835653	-0.000016
C22	C	0.599983	1.335653	0.499984
C23	C	0.098629	0.742705	-0.000015
C24	C	0.598629	1.242705	0.499985
C25	C	0.093651	0.404986	-0.000023
C26	C	0.593651	0.904986	0.499977
C27	C	0.170637	0.428006	-0.000306
C28	C	0.670637	0.928006	0.499694
C29	C	0.172100	0.524676	-0.000021
C30	C	0.672100	1.024676	0.499979
C31	C	0.096121	0.572532	-0.000020
C32	C	0.596121	1.072532	0.499980
C33	C	0.057629	0.543564	0.071468
C34	C	0.557629	1.043564	0.571468
C35	C	0.056702	0.446777	0.071525
C36	C	0.556702	0.946777	0.571525
C37	C	0.055136	0.446953	-0.070838
C38	C	0.555136	0.946953	0.429162
C39	C	0.057989	0.543435	-0.071780
C40	C	0.557989	1.043435	0.428220
C41	C	0.097513	0.667223	-0.000015
C42	C	0.597513	1.167223	0.499985
C43	C	0.092257	0.310295	-0.000023
C44	C	0.592257	0.810295	0.499977
C45	C	-0.032105	0.995354	-0.000014
C46	C	0.467895	1.495354	0.499986
C47	C	-0.109212	0.993995	-0.000016
C48	C	0.390788	1.493995	0.499984
C49	C	-0.673092	1.060470	-0.000036
C50	C	-0.173092	1.560470	0.499964
C51	C	-0.600642	1.061754	-0.000030
C52	C	-0.100642	1.561754	0.499970
C53	C	-0.556119	0.986087	-0.000029
C54	C	-0.056119	1.486087	0.499971
C55	C	-0.584050	0.909129	-0.000016
C56	C	-0.084050	1.409129	0.499984
C57	C	-0.656499	0.907847	-0.000015
C58	C	-0.156499	1.407847	0.499985
C59	C	-0.434980	0.929662	-0.043886
C60	C	0.065020	1.429662	0.456114
C61	C	-0.362533	0.930947	-0.043892
C62	C	0.137467	1.430947	0.456108
C63	C	-0.332663	0.990038	-0.000028
C64	C	0.167337	1.490038	0.499972
C65	C	-0.375251	1.047857	0.043831
C66	C	0.124749	1.547857	0.543831
C67	C	-0.447699	1.046575	0.043832
C68	C	0.052301	1.546575	0.543832
C69	C	-0.477560	0.987468	-0.000030
C70	C	0.022440	1.487468	0.499970
C71	C	-0.226182	1.068383	-0.000029
C72	C	0.273818	1.568383	0.499971
C73	C	-0.153731	1.069664	-0.000018
C74	C	0.346269	1.569664	0.499982
C75	C	-0.137140	0.917036	-0.000011
C76	C	0.362860	1.417036	0.499989
C77	C	-0.209590	0.915757	-0.000015
C78	C	0.290410	1.415757	0.499985
C79	C	-0.254107	0.991433	-0.000028
C80	C	0.245893	1.491433	0.499972
C81	C	0.221877	0.982164	-0.000024
C82	C	0.721877	1.482164	0.499976
C83	C	0.298984	0.983523	-0.000027
C84	C	0.798984	1.483523	0.499973
N85	N	0.094878	0.988733	0.178137
N86	N	0.594878	1.488733	0.678137
C87	C	0.089789	1.141865	-0.000022
C88	C	0.589789	1.641865	0.499978
C89	C	0.091143	1.234813	-0.000028
C90	C	0.591143	1.734813	0.499972
N91	N	0.094889	0.988792	-0.178174
N92	N	0.594889	1.488792	0.321826
C93	C	0.047671	1.045855	0.217525
C94	C	0.547671	1.545855	0.717525
C95	C	0.047668	1.045860	0.296327
C96	C	0.547668	1.545860	0.796327
C97	C	0.094883	0.988751	0.335738
C98	C	0.594883	1.488751	0.835738
C99	C	0.142094	0.931618	0.296340
C100	C	0.642094	1.431618	0.796340
C101	C	0.142091	0.931609	0.217540
C102	C	0.642091	1.431609	0.717540
C103	C	0.158144	0.977539	0.460573
C104	C	0.658144	1.477539	0.960573
C105	C	0.158148	0.977554	0.539372
C106	C	0.658148	1.477554	1.039372
C107	C	0.094892	0.988773	0.578784
C108	C	0.594892	1.488773	1.078784
C109	C	0.031629	0.999995	0.539387
C110	C	0.531629	1.499995	1.039387
C111	C	0.031627	0.999986	0.460587
C112	C	0.531627	1.499986	0.960587
C113	C	0.094891	0.988753	0.421183
C114	C	0.594891	1.488753	0.921183
C115	C	0.047677	1.045903	0.703618
C116	C	0.547677	1.545903	1.203618
C117	C	0.047673	1.045902	0.782421
C118	C	0.547673	1.545902	1.282421
C119	C	0.142106	0.931664	0.782433
C120	C	0.642106	1.431664	1.282433
C121	C	0.142104	0.931661	0.703631
C122	C	0.642104	1.431661	1.203631
C123	C	0.094890	0.988785	0.664228
C124	C	0.594890	1.488785	1.164228
H125	H	0.000255	0.432440	0.074773
H126	H	0.500255	0.932440	0.574773
O127	O	0.187865	0.876109	0.334704
O128	O	0.687865	1.376109	0.834704
C129	C	0.150649	0.824594	0.380293
C130	C	0.650649	1.324594	0.880293
H131	H	0.096308	0.858155	0.392097
H132	H	0.596308	1.358155	0.892097
H133	H	0.179639	0.811244	0.435704
H134	H	0.679639	1.311244	0.935704
H135	H	0.145908	0.762727	0.349943
H136	H	0.645908	1.262727	0.849943
O137	O	0.208362	0.546520	0.061139
O138	O	0.708362	1.046520	0.561139
C139	C	0.266169	0.586127	0.037348
C140	C	0.766169	1.086127	0.537348
H141	H	0.280444	0.566212	-0.022820
H142	H	0.780444	1.066212	0.477180
H143	H	0.312454	0.566846	0.076002
H144	H	0.812454	1.066846	0.576002
H145	H	0.252355	0.657351	0.039624
H146	H	0.752355	1.157351	0.539624
H147	H	0.180533	0.885093	0.185469
H148	H	0.680533	1.385093	0.685469
H149	H	-0.327864	0.883871	-0.079608
H150	H	0.172136	1.383871	0.420392
O151	O	0.219552	0.966763	0.422205
O152	O	0.719552	1.466763	0.922205
C153	C	0.225177	1.037820	0.376620
C154	C	0.725177	1.537820	0.876620
H155	H	0.170865	1.071467	0.364821
H156	H	0.670865	1.571467	0.864821
H157	H	0.251530	1.016940	0.321206
H158	H	0.751530	1.516940	0.821206
H159	H	0.257683	1.082512	0.406970
H160	H	0.757683	1.582512	0.906970
O161	O	0.084010	0.413230	-0.135465
O162	O	0.584010	0.913230	0.364535
C163	C	0.154950	0.426470	-0.138588
C164	C	0.654950	0.926470	0.361412
H165	H	0.163875	0.482408	-0.101543
H166	H	0.663875	0.982408	0.398457
H167	H	0.169706	0.439906	-0.199166
H168	H	0.669706	0.939906	0.300834
H169	H	0.188634	0.367802	-0.117583
H170	H	0.688634	0.867802	0.382417
O171	O	0.208175	0.547192	-0.061094
O172	O	0.708175	1.047192	0.438906
C173	C	0.277003	0.506439	-0.058355
C174	C	0.777003	1.006439	0.441645
H175	H	0.291101	0.488463	0.002299
H176	H	0.791101	0.988463	0.502299
H177	H	0.314551	0.550649	-0.080563
H178	H	0.814551	1.050649	0.419437
H179	H	0.281013	0.447254	-0.094587
H180	H	0.781013	0.947254	0.405413
O181	O	0.187903	0.876072	0.820672
O182	O	0.687903	1.376072	1.320672
C183	C	0.176596	0.793231	0.801422
C184	C	0.676596	1.293231	1.301422
H185	H	0.120983	0.793036	0.779770
H186	H	0.620983	1.293036	1.279770
H187	H	0.184574	0.751183	0.853253
H188	H	0.684574	1.251183	1.353253
H189	H	0.215086	0.768487	0.755681
H190	H	0.715086	1.268487	1.255681
O191	O	-0.009044	0.581936	0.074552
O192	O	0.490956	1.081936	0.574552
C193	C	-0.021923	0.635652	0.011923
C194	C	0.478077	1.135652	0.511923
H195	H	0.029659	0.653817	-0.010443
H196	H	0.529659	1.153817	0.489557
H197	H	-0.056850	0.694820	0.029611
H198	H	0.443150	1.194820	0.529611
H199	H	-0.048992	0.601758	-0.034041
H200	H	0.451008	1.101758	0.465959
H201	H	0.002532	0.576616	-0.076096
H202	H	0.502532	1.076616	0.423904
H203	H	0.084355	0.563512	0.124668
H204	H	0.584355	1.063512	0.624668
O205	O	0.001617	1.101253	0.179399
O206	O	0.501617	1.601253	0.679399
C207	C	-0.067074	1.087776	0.198851
C208	C	0.432926	1.587776	0.698851
H209	H	-0.067306	1.020697	0.220458
H210	H	0.432694	1.520697	0.720458
H211	H	-0.102063	1.097568	0.147136
H212	H	0.397937	1.597568	0.647136
H213	H	-0.087398	1.134165	0.244688
H214	H	0.412602	1.634165	0.744688
O215	O	0.219659	0.966607	0.577521
O216	O	0.719659	1.466607	1.077521
C217	C	0.275490	0.956712	0.525840
C218	C	0.775490	1.456712	1.025840
H219	H	0.256268	0.933776	0.469679
H220	H	0.756268	1.433776	0.969679
H221	H	0.318698	0.908659	0.548615
H222	H	0.818698	1.408659	1.048615
H223	H	0.296650	1.019696	0.517437
H224	H	0.796650	1.519696	1.017437
H225	H	0.086016	0.561907	-0.124666
H226	H	0.586016	1.061907	0.375334
O227	O	-0.093871	0.843552	-0.000145
O228	O	0.406129	1.343552	0.499855
C229	C	-0.051449	0.839744	-0.064970
C230	C	0.448551	1.339744	0.435030
H231	H	-0.077984	0.882670	-0.110289
H232	H	0.422016	1.382670	0.389711
H233	H	-0.043289	0.772269	-0.086731
H234	H	0.456711	1.272269	0.413269
H235	H	0.001229	0.861213	-0.050312
H236	H	0.501229	1.361213	0.449688
O237	O	0.206152	0.394461	-0.061391
O238	O	0.706152	0.894461	0.438609
C239	C	0.264393	0.339405	-0.037427
C240	C	0.764393	0.839405	0.462573
H241	H	0.279414	0.356934	0.022084
H242	H	0.779414	0.856934	0.522084
H243	H	0.310128	0.344805	-0.077079
H244	H	0.810128	0.844805	0.422921
H245	H	0.250731	0.271959	-0.037910
H246	H	0.750731	0.771959	0.462090
H247	H	-0.019884	1.009121	0.428514
H248	H	0.480116	1.509121	0.928514
O249	O	-0.126638	1.144437	-0.000158
O250	O	0.373362	1.644437	0.499842
C251	C	-0.149394	1.190559	-0.064992
C252	C	0.350606	1.690559	0.435008
H253	H	-0.164448	1.145558	-0.110305
H254	H	0.335552	1.645558	0.389695
H255	H	-0.105510	1.226020	-0.086756
H256	H	0.394490	1.726020	0.413244
H257	H	-0.196623	1.237396	-0.050342
H258	H	0.303377	1.737396	0.449658
O259	O	-0.716407	1.133923	0.000056
O260	O	-0.216407	1.633923	0.500056
C261	C	-0.758803	1.137752	0.064902
C262	C	-0.258803	1.637752	0.564902
H263	H	-0.762454	1.071303	0.086525
H264	H	-0.262454	1.571303	0.586525
H265	H	-0.813260	1.169148	0.050317
H266	H	-0.313260	1.669148	0.550317
H267	H	-0.734981	1.175903	0.110299
H268	H	-0.234981	1.675903	0.610299
O269	O	-0.236754	0.841031	0.000115
O270	O	0.263246	1.341031	0.500115
C271	C	-0.278185	0.835720	0.064941
C272	C	0.221815	1.335720	0.564941
H273	H	-0.261064	0.879401	0.110259
H274	H	0.238936	1.379401	0.610259
H275	H	-0.271674	0.768208	0.086704
H276	H	0.228326	1.268208	0.586704
H277	H	-0.335320	0.855256	0.050281
H278	H	0.164680	1.355256	0.550281
O279	O	-0.463881	0.872233	-0.086576
O280	O	0.036119	1.372233	0.413424
C281	C	-0.410760	0.821474	-0.125281
C282	C	0.089240	1.321474	0.374719
H283	H	-0.362828	0.856558	-0.130568
H284	H	0.137172	1.356558	0.369432
H285	H	-0.430081	0.806367	-0.183806
H286	H	0.069919	1.306367	0.316194
H287	H	-0.396416	0.760453	-0.092769
H288	H	0.103584	1.260453	0.407231
H289	H	-0.019880	1.009130	0.571475
H290	H	0.480120	1.509130	1.071475
O291	O	-0.573623	1.136578	-0.000081
O292	O	-0.073623	1.636578	0.499919
C293	C	-0.628450	1.203095	-0.000073
C294	C	-0.128450	1.703095	0.499927
H295	H	-0.677663	1.179812	-0.023762
H296	H	-0.177663	1.679812	0.476238
H297	H	-0.613316	1.256832	-0.036434
H298	H	-0.113316	1.756832	0.463566
H299	H	-0.638706	1.226430	0.059981
H300	H	-0.138706	1.726430	0.559981
O301	O	0.088436	0.414758	0.135346
O302	O	0.588436	0.914758	0.635346
C303	C	0.052194	0.450382	0.198713
C304	C	0.552194	0.950382	0.698713
H305	H	0.021753	0.513165	0.182404
H306	H	0.521753	1.013165	0.682404
H307	H	0.091073	0.460939	0.245093
H308	H	0.591073	0.960939	0.745093
H309	H	0.014451	0.405850	0.219884
H310	H	0.514451	0.905850	0.719884
O311	O	0.188064	0.876262	0.665401
O312	O	0.688064	1.376262	1.165401
C313	C	0.256827	0.889598	0.684658
C314	C	0.756827	1.389598	1.184658
H315	H	0.257186	0.956635	0.706303
H316	H	0.757186	1.456635	1.206303
H317	H	0.291684	0.879828	0.632835
H318	H	0.791684	1.379828	1.132835
H319	H	0.277215	0.843117	0.730408
H320	H	0.777215	1.343117	1.230408
O321	O	-0.488964	1.102766	0.086507
O322	O	0.011036	1.602766	0.586507
C323	C	-0.447075	1.155214	0.125209
C324	C	0.052925	1.655214	0.625209
H325	H	-0.391714	1.121959	0.130507
H326	H	0.108286	1.621959	0.630507
H327	H	-0.469619	1.169592	0.183730
H328	H	0.030381	1.669592	0.683730
H329	H	-0.446018	1.216501	0.092688
H330	H	0.053982	1.716501	0.592688
O331	O	0.001928	1.101515	0.665328
O332	O	0.501928	1.601515	1.165328
C333	C	0.039179	1.153005	0.619752
C334	C	0.539179	1.653005	1.119752
H335	H	0.093967	1.154131	0.643493
H336	H	0.593967	1.654131	1.143493
H337	H	0.010905	1.219688	0.618894
H338	H	0.510905	1.719688	1.118894
H339	H	0.042787	1.126834	0.560018
H340	H	0.542787	1.626834	1.060018
O341	O	0.205729	0.393230	0.060571
O342	O	0.705729	0.893230	0.560571
C343	C	0.161017	0.348134	0.103402
C344	C	0.661017	0.848134	0.603402
H345	H	0.104422	0.373482	0.091239
H346	H	0.604422	0.873482	0.591239
H347	H	0.172325	0.355858	0.165836
H348	H	0.672325	0.855858	0.665836
H349	H	0.170150	0.278598	0.087765
H350	H	0.670150	0.778598	0.587765
H351	H	-0.001531	0.433175	-0.071320
H352	H	0.498469	0.933175	0.428680
H353	H	-0.547795	0.847519	-0.000013
H354	H	-0.047795	1.347519	0.499987
H355	H	-0.350933	1.095969	0.079554
H356	H	0.149067	1.595969	0.579554
O357	O	-0.269460	1.141867	-0.000165
O358	O	0.230540	1.641867	0.499835
C359	C	-0.311868	1.145694	-0.064993
C360	C	0.188132	1.645694	0.435007
H361	H	-0.285321	1.102786	-0.110309
H362	H	0.214679	1.602786	0.389691
H363	H	-0.320027	1.213177	-0.086756
H364	H	0.179973	1.713177	0.413244
H365	H	-0.364548	1.124216	-0.050337
H366	H	0.135452	1.624216	0.449663
O367	O	-0.683512	0.833023	-0.000045
O368	O	-0.183512	1.333023	0.499955
C369	C	-0.628682	0.766508	-0.000020
C370	C	-0.128682	1.266508	0.499980
H371	H	-0.579466	0.789794	-0.023718
H372	H	-0.079466	1.289794	0.476282
H373	H	-0.643809	0.712771	-0.036364
H374	H	-0.143809	1.212771	0.463636
H375	H	-0.618435	0.743172	0.060041
H376	H	-0.118435	1.243172	0.560041
O377	O	0.001904	1.101388	0.334679
O378	O	0.501904	1.601388	0.834679
C379	C	0.039126	1.152914	0.380224
C380	C	0.539126	1.652914	0.880224
H381	H	0.093466	1.119352	0.392029
H382	H	0.593466	1.619352	0.892029
H383	H	0.010141	1.166283	0.435638
H384	H	0.510141	1.666283	0.935638
H385	H	0.043868	1.214771	0.349836
H386	H	0.543868	1.714771	0.849836
H387	H	0.009228	1.092415	0.814492
H388	H	0.509228	1.592415	1.314492
