data_functionalizedCrystal
_audit_creation_method	'MofGen! by Chris Wilmer'
_symmetry_space_group_name_H-M	'P1'
_symmetry_Int_Tables_number	1
_symmetry_cell_setting	triclinic
loop_
_symmetry_equiv_pos_as_xyz
  x,y,z
_cell_length_a	29.839131
_cell_length_b	25.639242
_cell_length_c	25.639234
_cell_angle_alpha	90.029352
_cell_angle_beta	89.974256
_cell_angle_gamma	89.963053
loop_
_atom_site_label
_atom_site_type_symbol
_atom_site_fract_x
_atom_site_fract_y
_atom_site_fract_z
Zn1	Zn	-0.178934	-0.799252	-0.295739
Zn2	Zn	-0.254057	-0.799161	-0.208302
Zn3	Zn	-0.178936	-0.711818	-0.208303
Zn4	Zn	-0.254032	-0.711769	-0.295692
O5	O	-0.216490	-0.755500	-0.252009
O6	O	-0.188909	-0.872405	-0.284160
O7	O	-0.244103	-0.787556	-0.135137
O8	O	-0.116068	-0.723474	-0.219922
O9	O	-0.244101	-0.872338	-0.219920
O10	O	-0.116067	-0.787712	-0.284161
O11	O	-0.188912	-0.723386	-0.135138
O12	O	-0.188888	-0.638646	-0.219876
O13	O	-0.244059	-0.723392	-0.368864
O14	O	-0.244061	-0.638611	-0.284081
O15	O	-0.188885	-0.787666	-0.368898
O16	O	-0.316921	-0.787509	-0.219875
O17	O	-0.316903	-0.723304	-0.284080
C18	C	-0.216472	-0.619657	-0.251974
C19	C	-0.216475	-0.561543	-0.251971
C20	C	-0.333212	-0.755406	-0.251983
C21	C	-0.383147	-0.755413	-0.251990
C22	C	-0.216469	-0.755534	-0.388382
C23	C	-0.216461	-0.755548	-0.446496
C24	C	-0.692787	-0.788993	-0.218627
C25	C	-0.880460	-0.789057	-0.218647
O26	O	-0.904722	-0.817533	-0.190260
N27	N	-0.903932	-0.755608	-0.252049
C28	C	-0.880482	-0.722143	-0.285450
O29	O	-0.904753	-0.693698	-0.313865
C30	C	-0.692810	-0.722082	-0.285432
C31	C	-0.669341	-0.755529	-0.252024
C32	C	-0.669318	-0.822438	-0.185222
C33	C	-0.622402	-0.822419	-0.185215
C34	C	-0.598956	-0.788956	-0.218613
C35	C	-0.622425	-0.755511	-0.252018
C36	C	-0.669362	-0.688620	-0.318836
C37	C	-0.622441	-0.688608	-0.318829
C38	C	-0.598971	-0.722056	-0.285422
C39	C	-0.552064	-0.722029	-0.285409
N40	N	-0.528592	-0.755478	-0.252007
C41	C	-0.552038	-0.788941	-0.218609
C42	C	-0.979013	-0.722177	-0.285457
C43	C	-1.025931	-0.722192	-0.285461
C44	C	-1.025905	-0.789107	-0.218658
C45	C	-0.978986	-0.789089	-0.218652
C46	C	-0.955541	-0.755626	-0.252055
C47	C	-0.453512	-0.788899	-0.218597
C48	C	-0.406593	-0.788877	-0.218592
C49	C	-0.406623	-0.721964	-0.285396
C50	C	-0.453538	-0.721985	-0.285400
C51	C	-0.476982	-0.755457	-0.251999
O52	O	-0.527773	-0.693572	-0.313785
O53	O	-0.527760	-0.817390	-0.190207
C54	C	-0.739702	-0.789011	-0.218633
C55	C	-0.763172	-0.755566	-0.252038
C56	C	-0.739726	-0.722103	-0.285436
C57	C	-0.810090	-0.755581	-0.252042
C58	C	-0.833536	-0.789044	-0.218644
C59	C	-0.810064	-0.822493	-0.185242
C60	C	-0.763148	-0.822475	-0.185235
C61	C	-0.763198	-0.688654	-0.318838
C62	C	-0.810113	-0.688675	-0.318841
C63	C	-0.833559	-0.722138	-0.285443
C64	C	-0.099311	-0.755609	-0.252047
C65	C	-0.049377	-0.755655	-0.252063
C66	C	-0.216508	-0.891873	-0.252045
C67	C	-0.216516	-0.949987	-0.252060
C68	C	-0.245266	-0.201171	-0.285409
C69	C	-0.245269	-0.146566	-0.285417
O70	O	-0.269726	-0.118322	-0.313817
N71	N	-0.216502	-0.119261	-0.252043
C72	C	-0.187727	-0.146562	-0.218663
O73	O	-0.163259	-0.118323	-0.190277
C74	C	-0.187723	-0.201166	-0.218658
C75	C	-0.216495	-0.228469	-0.252030
C76	C	-0.274036	-0.228474	-0.318778
C77	C	-0.274033	-0.283074	-0.318769
C78	C	-0.245262	-0.310372	-0.285391
C79	C	-0.216492	-0.283069	-0.252021
C80	C	-0.158946	-0.228466	-0.185281
C81	C	-0.158943	-0.283073	-0.185279
C82	C	-0.187716	-0.310376	-0.218651
C83	C	-0.187719	-0.364967	-0.218633
N84	N	-0.216485	-0.392273	-0.252007
C85	C	-0.245257	-0.364975	-0.285385
C86	C	-0.187739	-0.031892	-0.218677
C87	C	-0.187745	0.022711	-0.218679
C88	C	-0.245287	0.022703	-0.285434
C89	C	-0.245282	-0.031901	-0.285429
C90	C	-0.216506	-0.059197	-0.252051
C91	C	-0.245250	-0.479640	-0.285363
C92	C	-0.245247	-0.534246	-0.285350
C93	C	-0.187704	-0.534233	-0.218597
C94	C	-0.187709	-0.479632	-0.218609
C95	C	-0.216484	-0.452337	-0.251996
O96	O	-0.163273	-0.393247	-0.190249
O97	O	-0.269717	-0.393221	-0.313771
C98	C	-0.187669	-0.722150	-0.806865
C99	C	-0.187661	-0.722152	-0.861470
O100	O	-0.163231	-0.693729	-0.889712
N101	N	-0.216390	-0.755566	-0.888779
C102	C	-0.245132	-0.788975	-0.861481
O103	O	-0.269568	-0.817396	-0.889724
C104	C	-0.245143	-0.788969	-0.806878
C105	C	-0.216408	-0.755557	-0.779571
C106	C	-0.158937	-0.688740	-0.779559
C107	C	-0.158945	-0.688738	-0.724958
C108	C	-0.187684	-0.722146	-0.697664
C109	C	-0.216416	-0.755555	-0.724971
C110	C	-0.273887	-0.822375	-0.779581
C111	C	-0.273895	-0.822366	-0.724974
C112	C	-0.245160	-0.788954	-0.697667
C113	C	-0.245163	-0.788961	-0.643076
N114	N	-0.216434	-0.755547	-0.615767
C115	C	-0.187694	-0.722140	-0.643061
C116	C	-0.245110	-0.788984	-0.976152
C117	C	-0.245098	-0.788993	-1.030754
C118	C	-0.187627	-0.722169	-1.030739
C119	C	-0.187637	-0.722164	-0.976136
C120	C	-0.216381	-0.755571	-0.948843
C121	C	-0.187712	-0.722138	-0.528396
C122	C	-0.187721	-0.722141	-0.473790
C123	C	-0.245194	-0.788962	-0.473810
C124	C	-0.245184	-0.788962	-0.528411
C125	C	-0.216441	-0.755546	-0.555702
O126	O	-0.269582	-0.817368	-0.614800
O127	O	-0.163267	-0.693719	-0.614812
C128	C	-0.216478	-0.755496	-0.116167
C129	C	-0.216360	-0.755583	-0.058053
H130	H	-0.387485	-0.816113	-0.191385
H131	H	-0.164307	-0.694928	-0.550610
Br132	Br	-0.284089	-0.834348	-1.067806
H133	H	-0.164306	-0.054114	-0.191493
H134	H	-0.164280	-0.556469	-0.191419
H135	H	-0.297465	-0.206254	-0.345962
Br136	Br	-0.841893	-0.867905	-0.139915
H137	H	-1.045036	-0.694951	-0.312660
Br138	Br	-0.485322	-0.834326	-0.173266
Br139	Br	-0.119886	-0.320116	-0.139979
Br140	Br	-0.284299	-0.571296	-0.330641
H141	H	-0.164238	-0.694957	-0.953906
H142	H	-0.135548	-0.661528	-0.702730
H143	H	-0.688402	-0.849691	-0.158025
H144	H	-0.297462	-0.305299	-0.345945
H145	H	-0.829218	-0.661433	-0.346045
Br146	Br	-0.947201	-0.676759	-0.330794
H147	H	-0.268576	-0.816174	-0.550645
Br148	Br	-0.590558	-0.867822	-0.139881
H149	H	-0.164321	0.044936	-0.191499
H150	H	-0.959880	-0.816325	-0.191448
H151	H	-0.268710	-0.054127	-0.312604
H152	H	-0.268713	0.044938	-0.312615
H153	H	-0.164226	-0.694967	-1.052972
H154	H	-0.268514	-0.816194	-0.953933
H155	H	-1.045003	-0.816354	-0.191464
Br156	Br	-0.119893	-0.191426	-0.139990
Br157	Br	-0.284302	-0.442605	-0.330675
Br158	Br	-0.312889	-0.867719	-0.816626
H159	H	-0.297299	-0.849574	-0.702754
H160	H	-0.268591	-0.816163	-0.451578
H161	H	-0.688463	-0.661381	-0.346038
H162	H	-0.603354	-0.661360	-0.346032
Br163	Br	-0.119936	-0.643387	-0.816591
H164	H	-0.164282	-0.457401	-0.191433
H165	H	-0.164320	-0.694933	-0.451560
H166	H	-0.472648	-0.694751	-0.312605
H167	H	-0.387526	-0.694717	-0.312587
Br168	Br	-0.731385	-0.643235	-0.364169
H169	H	-0.744043	-0.849711	-0.158032
