data_functionalizedCrystal
_audit_creation_method	'MofGen! by Chris Wilmer'
_symmetry_space_group_name_H-M	'P1'
_symmetry_Int_Tables_number	1
_symmetry_cell_setting	triclinic
loop_
_symmetry_equiv_pos_as_xyz
  x,y,z
_cell_length_a	16.109301
_cell_length_b	11.026607
_cell_length_c	15.186229
_cell_angle_alpha	89.998222
_cell_angle_beta	89.999362
_cell_angle_gamma	96.023749
loop_
_atom_site_label
_atom_site_type_symbol
_atom_site_fract_x
_atom_site_fract_y
_atom_site_fract_z
O1	O	1.126503	0.155971	-0.073169
O2	O	0.887350	0.175382	-0.073183
O3	O	0.987106	-0.010969	-0.073174
O4	O	1.026747	0.342322	-0.073178
O5	O	0.987097	-0.010971	0.073283
O6	O	0.887341	0.175379	0.073274
O7	O	1.126494	0.155969	0.073288
Zn8	Zn	1.006916	0.165674	0.096534
Zn9	Zn	1.006928	0.165677	-0.096429
O10	O	1.026738	0.342319	0.073279
C11	C	0.856253	0.174594	0.000044
C12	C	0.763604	0.172237	0.000039
C13	C	0.557080	0.277333	0.000048
C14	C	0.470027	0.275108	0.000053
C15	C	0.456769	0.054010	0.000052
C16	C	0.543821	0.056235	0.000053
C17	C	0.593975	0.167900	0.000046
C18	C	0.419869	0.163450	0.000051
C19	C	0.325481	0.161038	0.000057
C20	C	0.688369	0.170314	0.000042
C21	C	0.979788	-0.056178	0.000053
C22	C	0.957987	-0.190883	0.000049
C23	C	1.018183	-0.264713	0.000051
C24	C	0.995652	-0.403938	0.000046
C25	C	1.157591	0.156756	0.000059
C26	C	1.250240	0.159114	0.000059
C27	C	1.034056	0.387529	0.000050
C28	C	1.055857	0.522234	0.000049
N29	N	1.006914	0.165670	0.228227
N30	N	1.006935	0.165671	-0.228122
C31	C	1.051109	0.083182	0.453954
C32	C	1.051112	0.083179	0.546144
C33	C	0.962734	0.248163	0.546145
C34	C	0.962728	0.248159	0.453957
C35	C	1.006920	0.165670	0.407864
C36	C	1.006929	0.165671	0.592241
C37	C	1.006931	0.165669	0.692198
C38	C	1.006917	0.165671	0.307901
H39	H	0.573861	-0.032883	0.000054
H40	H	0.927432	-0.443797	0.000037
H41	H	1.124077	-0.437909	-0.000014
H42	H	0.926755	0.315325	0.583683
H43	H	0.889771	-0.230748	0.000039
O44	O	1.093884	0.002950	0.409101
C45	C	1.038117	-0.071945	0.355829
H46	H	0.980315	-0.023595	0.342000
H47	H	1.069930	-0.091211	0.291008
H48	H	1.019012	-0.161590	0.391398
H49	H	0.926740	0.315331	0.416428
O50	O	1.094112	0.003008	0.590779
C51	C	1.133095	-0.069817	0.530323
H52	H	1.141475	-0.020063	0.464608
H53	H	1.196723	-0.088300	0.556955
H54	H	1.092610	-0.159972	0.520522
O55	O	0.605922	0.385693	0.000008
C56	C	0.690670	0.364198	0.000027
H57	H	0.696864	0.269498	-0.027702
H58	H	0.727986	0.435649	-0.042493
H59	H	0.715688	0.370065	0.070290
O60	O	0.434228	0.381444	-0.000105
C61	C	0.459549	0.449252	-0.075948
H62	H	0.479598	0.385180	-0.128963
H63	H	0.405308	0.497937	-0.101407
H64	H	0.514215	0.519470	-0.058802
O65	O	0.407926	-0.054350	0.000013
C66	C	0.323180	-0.032852	0.000032
H67	H	0.316988	0.061852	-0.027694
H68	H	0.285864	-0.104295	-0.042491
H69	H	0.298158	-0.038729	0.070294
H70	H	1.086399	-0.224848	0.000060
