data_functionalizedCrystal
_audit_creation_method	'MofGen! by Chris Wilmer'
_symmetry_space_group_name_H-M	'P1'
_symmetry_Int_Tables_number	1
_symmetry_cell_setting	triclinic
loop_
_symmetry_equiv_pos_as_xyz
  x,y,z
_cell_length_a	10.654562
_cell_length_b	19.188924
_cell_length_c	9.130313
_cell_angle_alpha	89.996698
_cell_angle_beta	89.996930
_cell_angle_gamma	83.816034
loop_
_atom_site_label
_atom_site_type_symbol
_atom_site_fract_x
_atom_site_fract_y
_atom_site_fract_z
O1	O	1.665745	0.098101	-0.121903
O2	O	1.300070	0.107435	-0.121886
O3	O	1.493464	0.001181	-0.121878
O4	O	1.472350	0.204355	-0.121911
O5	O	1.493462	0.001184	0.121721
O6	O	1.300068	0.107438	0.121713
O7	O	1.665742	0.098104	0.121696
Cu8	Cu	1.482905	0.102771	0.143947
Cu9	Cu	1.482908	0.102768	-0.144137
O10	O	1.472348	0.204357	0.121688
C11	C	1.253286	0.106749	-0.000084
C12	C	1.113887	0.104693	-0.000076
C13	C	1.048375	0.103736	0.132698
C14	C	0.917394	0.101809	0.132674
C15	C	0.917447	0.101801	-0.132911
C16	C	1.048427	0.103722	-0.132885
C17	C	1.113835	0.104706	0.265507
C18	C	1.048323	0.103750	0.398292
C19	C	0.917342	0.101824	0.398268
C20	C	0.851873	0.100854	0.265459
C21	C	1.492781	-0.024833	-0.000077
C22	C	1.490733	-0.102351	-0.000073
C23	C	1.489778	-0.138758	-0.132859
C24	C	1.487836	-0.211593	-0.132870
C25	C	1.486873	-0.248021	-0.000087
C26	C	1.487821	-0.211605	0.132716
C27	C	1.489751	-0.138770	0.132724
N28	N	1.555305	-0.367234	0.098736
N29	N	1.553474	-0.436424	0.098720
C30	C	1.481057	-0.467468	-0.000101
N31	N	1.410554	-0.426709	-0.098928
N32	N	1.412391	-0.357513	-0.098917
C33	C	1.484780	-0.326998	-0.000080
C34	C	1.477994	-0.582851	-0.132908
C35	C	1.476044	-0.655688	-0.132914
C36	C	1.476042	-0.655699	0.132676
C37	C	1.477979	-0.582863	0.132678
C38	C	1.478961	-0.546444	-0.000118
C39	C	1.712527	0.098790	-0.000109
C40	C	1.851925	0.100846	-0.000126
C41	C	1.473031	0.230372	-0.000116
C42	C	1.475080	0.307890	-0.000130
N43	N	1.482912	0.102773	0.346570
N44	N	1.482910	0.102760	-0.346759
C45	C	1.568568	0.055740	0.423225
C46	C	1.568565	0.055732	0.576562
C47	C	1.397245	0.149795	0.576574
C48	C	1.397243	0.149800	0.423240
C49	C	1.654237	0.008713	0.346555
C50	C	1.739902	-0.038323	0.423210
C51	C	1.739899	-0.038331	0.576547
C52	C	1.654231	0.008697	0.653228
H53	H	1.490574	-0.109110	-0.240992
H54	H	0.864007	0.101039	0.506388
H55	H	1.101638	0.104534	0.506420
H56	H	1.327492	0.188098	0.360827
H57	H	1.101767	0.104505	-0.241002
H58	H	1.327499	0.188084	0.639018
H59	H	1.809643	-0.076615	0.360769
H60	H	1.220486	0.106277	0.265541
H61	H	0.745219	0.099284	0.265450
H62	H	1.809641	-0.076634	0.638959
H63	H	1.654250	0.008717	0.221700
H64	H	1.475260	-0.685328	-0.241049
H65	H	1.487051	-0.241241	-0.241004
H66	H	0.864131	0.101013	-0.241038
H67	H	1.487034	-0.241269	0.240829
H68	H	1.478767	-0.553221	0.240807
H69	H	1.478787	-0.553197	-0.241039
H70	H	1.475249	-0.685357	0.240790
H71	H	1.654227	0.008681	0.778086
H72	H	1.490523	-0.109128	0.240857
