data_functionalizedCrystal
_audit_creation_method	'MofGen! by Chris Wilmer'
_symmetry_space_group_name_H-M	'P1'
_symmetry_Int_Tables_number	1
_symmetry_cell_setting	triclinic
loop_
_symmetry_equiv_pos_as_xyz
  x,y,z
_cell_length_a	18.101397
_cell_length_b	15.297621
_cell_length_c	15.296720
_cell_angle_alpha	88.384271
_cell_angle_beta	80.360149
_cell_angle_gamma	80.324031
loop_
_atom_site_label
_atom_site_type_symbol
_atom_site_fract_x
_atom_site_fract_y
_atom_site_fract_z
Zn1	Zn	0.576387	-1.253388	-0.726570
Zn2	Zn	0.683023	-1.278649	-0.580074
Zn3	Zn	0.534781	-1.132267	-0.554812
Zn4	Zn	0.675739	-1.106876	-0.701198
O5	O	0.617482	-1.192795	-0.640663
O6	O	0.610993	-1.379316	-0.728327
O7	O	0.648994	-1.280429	-0.454151
O8	O	0.436681	-1.148388	-0.577641
O9	O	0.689338	-1.397875	-0.620697
O10	O	0.467249	-1.237375	-0.703831
O11	O	0.540082	-1.172883	-0.435590
O12	O	0.533019	-1.006322	-0.553040
O13	O	0.676923	-1.105114	-0.827136
O14	O	0.636580	-0.987667	-0.660589
O15	O	0.603930	-1.212755	-0.845777
O16	O	0.785675	-1.255809	-0.596096
O17	O	0.780324	-1.129608	-0.685085
C18	C	0.809873	-1.192715	-0.640602
C19	C	0.892195	-1.192756	-0.640619
C20	C	0.579495	-0.965212	-0.601321
C21	C	0.563264	-0.867847	-0.584510
C22	C	1.042912	-1.192794	-0.640644
C23	C	1.077620	-1.272249	-0.584729
C24	C	1.163180	-1.272118	-0.584443
C25	C	1.191304	-1.192832	-0.640669
C26	C	1.141959	-1.104756	-0.599867
C27	C	1.056317	-1.105211	-0.599429
C28	C	1.089257	-1.200586	-0.737397
C29	C	1.175194	-1.202731	-0.737270
C30	C	1.275168	-1.192848	-0.640684
C31	C	0.959047	-1.192772	-0.640626
C32	C	1.424341	-1.192879	-0.640726
C33	C	1.342021	-1.192870	-0.640695
C34	C	0.733458	-0.554700	-0.760772
C35	C	0.748713	-0.646180	-0.776564
C36	C	0.702352	-0.701601	-0.728552
C37	C	0.640733	-0.665534	-0.664745
C38	C	0.625480	-0.574046	-0.648947
C39	C	0.594374	-0.720947	-0.616727
C40	C	0.532756	-0.684879	-0.552921
C41	C	0.517505	-0.593400	-0.537126
C42	C	0.563866	-0.537979	-0.585138
C43	C	0.609627	-0.812434	-0.632525
C44	C	0.501650	-0.831780	-0.520701
C45	C	0.486394	-0.740300	-0.504909
C46	C	0.644255	-1.153284	-0.869127
C47	C	0.655664	-1.136447	-0.966484
C48	C	0.655612	-0.421269	-0.680153
C49	C	0.671844	-0.518634	-0.696962
C50	C	0.535816	-1.313166	-1.279740
C51	C	0.525099	-1.328991	-1.188269
C52	C	0.557739	-1.280856	-1.132818
C53	C	0.601099	-1.216894	-1.168848
C54	C	0.611822	-1.201072	-1.260328
C55	C	0.633745	-1.168763	-1.113407
C56	C	0.677104	-1.104801	-1.149436
C57	C	0.687825	-1.088982	-1.240908
C58	C	0.655185	-1.137116	-1.296359
C59	C	0.623022	-1.184584	-1.021926
C60	C	0.699027	-1.072491	-1.002514
C61	C	0.709745	-1.056666	-1.093986
C62	C	0.590769	-1.232203	-0.413098
C63	C	0.579179	-1.249210	-0.315770
H64	H	1.197397	-1.337924	-0.611793
O65	O	0.783478	-0.494941	-0.812535
H66	H	0.781879	-0.500620	-0.884349
O67	O	1.067825	-1.359731	-0.620738
H68	H	1.038113	-1.347520	-0.678872
O69	O	0.547443	-0.439307	-0.568115
H70	H	0.489687	-0.412098	-0.581784
H71	H	0.659797	-0.841791	-0.684478
O72	O	0.451049	-0.554494	-0.468305
H73	H	0.421368	-0.608396	-0.437579
O74	O	1.035125	-1.267239	-0.490753
H75	H	1.060077	-1.323623	-0.451862
H76	H	0.436224	-0.710921	-0.452957
O77	O	1.014944	-1.094040	-0.505125
H78	H	0.971453	-1.033095	-0.500142
O79	O	0.734228	-1.020548	-0.942727
H80	H	0.773560	-1.066926	-0.907796
H81	H	0.549011	-1.293745	-1.058339
O82	O	0.666741	-1.120048	-1.395021
H83	H	0.702373	-1.067485	-1.410762
O84	O	0.756508	-0.987678	-1.132849
H85	H	0.805613	-1.019652	-1.181284
H86	H	0.798885	-0.675539	-0.828513
H87	H	0.723139	-1.036907	-1.270241
H88	H	1.173031	-1.268221	-0.513083
H89	H	1.032407	-1.044844	-0.637532
H90	H	1.159269	-1.044649	-0.638653
O91	O	1.155484	-1.092950	-0.506472
H92	H	1.197298	-1.149682	-0.488946
O93	O	0.451636	-0.891542	-0.468913
H94	H	0.472588	-0.961213	-0.490625
H95	H	0.587717	-1.236662	-0.992600
H96	H	1.081305	-1.262866	-0.771481
O97	O	0.718807	-0.800269	-0.745583
H98	H	0.669088	-0.821334	-0.767576
O99	O	0.478338	-1.397974	-1.149407
H100	H	0.457438	-1.428783	-1.203329
H101	H	1.209002	-1.267469	-0.767752
O102	O	1.201651	-1.130000	-0.797108
H103	H	1.226805	-1.085460	-0.758758
H104	H	1.066666	-1.142525	-0.779254
O105	O	0.500618	-1.365063	-1.339560
H106	H	0.522738	-1.436841	-1.333901
