data_functionalizedCrystal
_audit_creation_method	'MofGen! by Chris Wilmer'
_symmetry_space_group_name_H-M	'P1'
_symmetry_Int_Tables_number	1
_symmetry_cell_setting	triclinic
loop_
_symmetry_equiv_pos_as_xyz
  x,y,z
_cell_length_a	17.699097
_cell_length_b	10.967829
_cell_length_c	16.176319
_cell_angle_alpha	77.865348
_cell_angle_beta	89.988988
_cell_angle_gamma	84.014498
loop_
_atom_site_label
_atom_site_type_symbol
_atom_site_fract_x
_atom_site_fract_y
_atom_site_fract_z
O1	O	1.005071	0.157880	-0.091305
O2	O	1.338404	0.491213	0.242028
O3	O	1.671737	0.824546	0.575362
O4	O	0.784823	0.178392	-0.094214
O5	O	1.118157	0.511726	0.239120
O6	O	1.451490	0.845059	0.572453
O7	O	0.900025	-0.013531	-0.066876
O8	O	1.233358	0.319803	0.266457
O9	O	1.566691	0.653136	0.599791
O10	O	0.889869	0.349803	-0.118642
O11	O	1.223203	0.683136	0.214691
O12	O	1.556536	1.016469	0.548024
O13	O	0.900009	-0.013543	0.070619
O14	O	1.233342	0.319790	0.403952
O15	O	1.566675	0.653124	0.737286
O16	O	0.784807	0.178380	0.043281
O17	O	1.118141	0.511714	0.376615
O18	O	1.451474	0.845047	0.709948
O19	O	1.005055	0.157867	0.046190
O20	O	1.338388	0.491201	0.379523
O21	O	1.671721	0.824534	0.712857
Cu22	Cu	0.894929	0.168123	0.057290
Cu23	Cu	1.228263	0.501456	0.390623
Cu24	Cu	1.561596	0.834789	0.723957
Cu25	Cu	0.894948	0.168137	-0.105314
Cu26	Cu	1.228282	0.501470	0.228020
Cu27	Cu	1.561615	0.834804	0.561353
O28	O	0.889853	0.349791	0.018853
O29	O	1.223187	0.683124	0.352186
O30	O	1.556520	1.016457	0.685519
C31	C	0.756614	0.177648	-0.025359
C32	C	1.089947	0.510982	0.307974
C33	C	1.423280	0.844315	0.641307
C34	C	0.672582	0.175435	-0.025039
C35	C	1.005916	0.508768	0.308295
C36	C	1.339249	0.842102	0.641628
C37	C	0.156787	0.161874	-0.098087
C38	C	0.490120	0.495207	0.235246
C39	C	0.823454	0.828541	0.568579
C40	C	0.235744	0.163945	-0.098378
C41	C	0.569078	0.497279	0.234955
C42	C	0.902411	0.830612	0.568288
C43	C	0.275208	0.164976	-0.023574
C44	C	0.608541	0.498310	0.309759
C45	C	0.941875	0.831643	0.643092
C46	C	0.235711	0.163923	0.051527
C47	C	0.569045	0.497257	0.384861
C48	C	0.902378	0.830590	0.718194
C49	C	0.156756	0.161843	0.051819
C50	C	0.490090	0.495176	0.385152
C51	C	0.823423	0.828510	0.718485
C52	C	0.554128	0.172311	0.050354
C53	C	0.887462	0.505644	0.383687
C54	C	1.220795	0.838977	0.717021
C55	C	0.633089	0.174395	0.050056
C56	C	0.966422	0.507728	0.383390
C57	C	1.299755	0.841061	0.716723
C58	C	0.633116	0.174413	-0.099843
C59	C	0.966450	0.507746	0.233490
C60	C	1.299783	0.841080	0.566824
C61	C	0.554161	0.172333	-0.099552
C62	C	0.887495	0.505666	0.233782
C63	C	1.220828	0.838999	0.567115
C64	C	0.514672	0.171273	-0.024450
C65	C	0.848005	0.504607	0.308884
C66	C	1.181339	0.837940	0.642217
C67	C	0.429058	0.169025	-0.024135
C68	C	0.762391	0.502358	0.309199
C69	C	1.095725	0.835692	0.642532
C70	C	0.360820	0.167233	-0.023890
C71	C	0.694153	0.500567	0.309444
C72	C	1.027487	0.833900	0.642777
C73	C	0.899276	-0.060025	0.008493
C74	C	1.232610	0.273308	0.341827
C75	C	1.565943	0.606642	0.675160
C76	C	0.897062	-0.198544	0.028224
C77	C	1.230395	0.134789	0.361557
C78	C	1.563729	0.468122	0.694891
C79	C	0.896083	-0.260288	-0.034207
C80	C	1.229417	0.073045	0.299127
C81	C	1.562750	0.406378	0.632460
C82	C	0.893795	-0.403455	-0.013815
C83	C	1.227128	-0.070122	0.319518
C84	C	1.560461	0.263211	0.652851
C85	C	1.033264	0.158611	-0.022666
C86	C	1.366597	0.491945	0.310667
C87	C	1.699931	0.825278	0.644001
C88	C	1.117296	0.160825	-0.022992
C89	C	1.450629	0.494158	0.310341
C90	C	1.783962	0.827491	0.643675
C91	C	0.890601	0.396285	-0.056519
C92	C	1.223935	0.729618	0.276815
C93	C	1.557268	1.062951	0.610148
C94	C	0.892816	0.534804	-0.076255
C95	C	1.226149	0.868137	0.257078
C96	C	1.559482	1.201471	0.590412
N97	N	0.894922	0.168112	0.171657
N98	N	1.228255	0.501445	0.504990
N99	N	1.561588	0.834778	0.838324
N100	N	0.894962	0.168138	-0.219679
N101	N	1.228296	0.501471	0.113654
N102	N	1.561629	0.834805	0.446988
C103	C	0.945948	0.083163	0.227021
C104	C	1.279282	0.416496	0.560354
C105	C	1.612615	0.749829	0.893688
C106	C	0.945952	0.083161	0.313568
C107	C	1.279286	0.416495	0.646902
C108	C	1.612619	0.749828	0.980235
C109	C	0.894932	0.168116	0.344749
C110	C	1.228266	0.501449	0.678082
C111	C	1.561599	0.834783	1.011416
C112	C	0.843900	0.253069	0.289378
C113	C	1.177233	0.586402	0.622711
C114	C	1.510567	0.919736	0.956045
C115	C	0.843893	0.253063	0.202833
C116	C	1.177227	0.586397	0.536167
C117	C	1.510560	0.919730	0.869500
C118	C	0.843926	0.253092	0.638403
C119	C	1.177259	0.586426	0.971736
C120	C	1.510593	0.919759	1.305070
C121	C	0.843938	0.253094	0.724954
C122	C	1.177272	0.586427	1.058288
C123	C	1.510605	0.919761	1.391621
C124	C	0.945985	0.083191	0.749138
C125	C	1.279319	0.416524	1.082471
C126	C	1.612652	0.749857	1.415805
C127	C	0.945978	0.083185	0.662593
C128	C	1.279312	0.416518	0.995927
C129	C	1.612645	0.749852	1.329260
C130	C	0.894944	0.168133	0.607231
C131	C	1.228277	0.501466	0.940564
C132	C	1.561610	0.834800	1.273897
C133	C	0.894939	0.168132	0.513387
C134	C	1.228273	0.501465	0.846720
C135	C	1.561606	0.834798	1.180053
C136	C	0.894940	0.168124	0.438590
C137	C	1.228273	0.501457	0.771924
C138	C	1.561607	0.834791	1.105257
H139	H	0.665278	0.175270	-0.160994
H140	H	0.998612	0.508604	0.172339
H141	H	1.331945	0.841937	0.505672
H142	H	0.892934	-0.456579	0.054735
H143	H	1.226267	-0.123246	0.388068
H144	H	1.559600	0.210088	0.721401
H145	H	0.896201	-0.251673	0.096769
H146	H	1.229534	0.081661	0.430103
H147	H	1.562868	0.414994	0.763436
H148	H	0.893663	-0.412071	-0.144805
H149	H	1.226996	-0.078738	0.188528
H150	H	1.560330	0.254596	0.521861
Br151	Br	0.103236	0.160489	-0.199615
Br152	Br	0.436569	0.493822	0.133718
Br153	Br	0.769902	0.827155	0.467052
H154	H	0.987498	0.013988	0.201640
H155	H	1.320831	0.347322	0.534974
H156	H	1.654164	0.680655	0.868307
H157	H	0.522033	0.171500	-0.160466
H158	H	0.855367	0.504833	0.172868
H159	H	1.188700	0.838166	0.506201
Br160	Br	1.015201	-0.032132	0.388709
Br161	Br	1.348534	0.301201	0.722043
Br162	Br	1.681868	0.634534	1.055376
H163	H	0.896936	-0.207158	-0.102752
H164	H	1.230270	0.126175	0.230581
H165	H	1.563603	0.459509	0.563915
H166	H	0.521987	0.171430	0.111509
H167	H	0.855321	0.504763	0.444843
H168	H	1.188654	0.838096	0.778176
Br169	Br	1.015225	-0.032107	0.620279
Br170	Br	1.348559	0.301227	0.953612
Br171	Br	1.681892	0.634560	1.286946
H172	H	0.665218	0.175234	0.110975
H173	H	0.998551	0.508567	0.444308
H174	H	1.331885	0.841901	0.777641
Br175	Br	0.774693	0.368398	0.767270
Br176	Br	1.108027	0.701732	1.100603
Br177	Br	1.441360	1.035065	1.433936
Br178	Br	0.289269	0.165316	0.153050
Br179	Br	0.622602	0.498649	0.486383
Br180	Br	0.955936	0.831983	0.819716
H181	H	0.124602	0.161002	0.112967
H182	H	0.457936	0.494335	0.446301
H183	H	0.791269	0.827668	0.779634
H184	H	0.987538	0.014017	0.794225
H185	H	1.320872	0.347350	1.127558
H186	H	1.654205	0.680684	1.460891
H187	H	0.802373	0.322262	0.593333
H188	H	1.135707	0.655596	0.926666
H189	H	1.469040	0.988929	1.259999
Br190	Br	0.774651	0.368359	0.331692
Br191	Br	1.107985	0.701692	0.665025
Br192	Br	1.441318	1.035026	0.998358
H193	H	0.267895	0.164792	-0.159528
H194	H	0.601228	0.498125	0.173806
H195	H	0.934562	0.831459	0.507139
Br196	Br	0.774634	0.368348	0.127696
Br197	Br	1.107968	0.701682	0.461030
Br198	Br	1.441301	1.035015	0.794363
