data_functionalizedCrystal
_audit_creation_method	'MofGen! by Chris Wilmer'
_symmetry_space_group_name_H-M	'P1'
_symmetry_Int_Tables_number	1
_symmetry_cell_setting	triclinic
loop_
_symmetry_equiv_pos_as_xyz
  x,y,z
_cell_length_a	10.686220
_cell_length_b	19.076919
_cell_length_c	19.076919
_cell_angle_alpha	89.876430
_cell_angle_beta	83.535312
_cell_angle_gamma	83.121766
loop_
_atom_site_label
_atom_site_type_symbol
_atom_site_fract_x
_atom_site_fract_y
_atom_site_fract_z
Zn1	Zn	1.891495	0.211580	0.308598
Zn2	Zn	2.391495	0.711580	0.808598
Zn3	Zn	1.892007	0.324351	0.186344
Zn4	Zn	2.392007	0.824351	0.686344
Zn5	Zn	1.688043	0.215931	0.199437
Zn6	Zn	2.188043	0.715931	0.699437
Zn7	Zn	1.670922	0.338870	0.312863
Zn8	Zn	2.170922	0.838870	0.812863
O9	O	1.785617	0.272683	0.251810
O10	O	2.285617	0.772683	0.751810
O11	O	2.069233	0.218641	0.285117
O12	O	2.569233	0.718641	0.785117
O13	O	1.872329	0.305714	0.089447
O14	O	2.372329	0.805714	0.589447
O15	O	1.721982	0.116708	0.217612
O16	O	2.221982	0.616708	0.717612
O17	O	2.069609	0.301494	0.195297
O18	O	2.569609	0.801494	0.695297
O19	O	1.871458	0.113511	0.297813
O20	O	2.371458	0.613511	0.797813
O21	O	1.722478	0.226059	0.099067
O22	O	2.222478	0.726059	0.599067
O23	O	1.508101	0.240137	0.221748
O24	O	2.008101	0.740137	0.721748
O25	O	1.692802	0.326240	0.410930
O26	O	2.192802	0.826240	0.910930
O27	O	1.495523	0.330460	0.305081
O28	O	1.995523	0.830460	0.805081
O29	O	1.854856	0.232720	0.407797
O30	O	2.354856	0.732720	0.907797
O31	O	1.855728	0.424923	0.199432
O32	O	2.355728	0.924923	0.699432
O33	O	1.693298	0.435590	0.292385
O34	O	2.193298	0.935590	0.792385
C35	C	1.455744	0.287347	0.265298
C36	C	1.955744	0.787347	0.765298
C37	C	1.314621	0.293638	0.271084
C38	C	1.814621	0.793638	0.771084
C39	C	1.772744	0.455834	0.244964
C40	C	2.272744	0.955834	0.744964
C41	C	1.767351	0.534182	0.242054
C42	C	2.267351	1.034182	0.742054
C43	C	1.842578	0.569269	0.282482
C44	C	2.342578	1.069269	0.782482
C45	C	1.837506	0.642886	0.279749
C46	C	2.337506	1.142886	0.779749
C47	C	1.757213	0.681414	0.236584
C48	C	2.257213	1.181414	0.736584
C49	C	1.681978	0.646322	0.196155
C50	C	2.181978	1.146322	0.696155
C51	C	1.687044	0.572707	0.198892
C52	C	2.187044	1.072707	0.698892
C53	C	1.733717	0.901765	0.223920
C54	C	2.233717	1.401765	0.723920
C55	C	1.728659	0.975385	0.221184
C56	C	2.228659	1.475385	0.721184
C57	C	1.884186	0.971944	0.304779
C58	C	2.384186	1.471944	0.804779
C59	C	1.889251	0.898327	0.307510
C60	C	2.389251	1.398327	0.807510
C61	C	1.814011	0.863242	0.267083
C62	C	2.314011	1.363242	0.767083
N63	N	1.752030	0.756662	0.233788
N64	N	2.252030	1.256662	0.733788
N65	N	1.819189	0.787996	0.269884
N66	N	2.319189	1.287996	0.769884
C67	C	2.116777	0.257963	0.238270
C68	C	2.616777	0.757963	0.738270
C69	C	2.257898	0.251690	0.232500
C70	C	2.757898	0.751690	0.732500
C71	C	1.771863	0.280614	0.435653
C72	C	2.271863	0.780614	0.935653
C73	C	1.766001	0.283994	0.513996
C74	C	2.266001	0.783994	1.013996
C75	C	1.798521	1.088819	0.258692
C76	C	2.298521	1.588819	0.758692
C77	C	1.803886	1.010472	0.261612
C78	C	2.303886	1.510472	0.761612
C79	C	1.799394	0.264729	0.068682
C80	C	2.299394	0.764729	0.568682
C81	C	1.805515	0.261140	-0.009663
C82	C	2.305515	0.761140	0.490337
C83	C	1.847616	0.236893	0.549172
C84	C	2.347616	0.736893	1.049172
C85	C	1.842094	0.240067	0.622784
C86	C	2.342094	0.740067	1.122784
C87	C	1.754962	0.290345	0.661219
C88	C	2.254962	0.790345	1.161219
C89	C	1.673338	0.337448	0.626038
C90	C	2.173338	0.837448	1.126038
C91	C	1.678855	0.334270	0.552428
C92	C	2.178855	0.834270	1.052428
C93	C	1.729408	0.305066	0.881546
C94	C	2.229408	0.805066	1.381546
C95	C	1.723900	0.308241	0.955161
C96	C	2.223900	0.808241	1.455161
C97	C	1.892655	0.210858	0.951902
C98	C	2.392655	0.710858	1.451902
C99	C	1.898169	0.207688	0.878290
C100	C	2.398169	0.707688	1.378290
C101	C	1.816541	0.254789	0.843116
C102	C	2.316541	0.754789	1.343116
N103	N	1.749318	0.293591	0.736462
N104	N	2.249318	0.793591	1.236462
N105	N	1.822180	0.251538	0.767874
N106	N	2.322180	0.751538	1.267874
H107	H	1.317299	0.210965	0.195040
H108	H	1.817299	0.710965	0.695040
O109	O	1.235946	0.347590	0.320711
O110	O	1.735946	0.847590	0.820711
H111	H	1.133729	0.344231	0.317625
H112	H	1.633729	0.844231	0.817625
H113	H	1.652942	0.349185	0.986453
H114	H	2.152942	0.849185	1.486453
O115	O	1.590822	0.385073	0.514489
O116	O	2.090822	0.885073	1.014489
H117	H	1.609285	0.374412	0.456847
H118	H	2.109285	0.874412	0.956847
H119	H	1.959110	0.172511	0.980548
H120	H	2.459110	0.672511	1.480548
H121	H	1.616596	0.677697	0.161012
H122	H	2.116596	1.177697	0.661012
O123	O	1.929193	0.527714	0.329032
O124	O	2.429193	1.027714	0.829032
H125	H	1.980645	0.564484	0.356687
H126	H	2.480645	1.064484	0.856687
O127	O	1.918642	0.680732	0.323355
O128	O	2.418642	1.180732	0.823355
H129	H	2.020183	0.661612	0.307757
H130	H	2.520183	1.161612	0.807757
O131	O	1.975896	0.856769	0.354041
O132	O	2.475896	1.356769	0.854041
H133	H	2.027365	0.893535	0.381690
H134	H	2.527365	1.393535	0.881690
O135	O	1.605919	0.534856	0.155282
O136	O	2.105919	1.034856	0.655282
H137	H	1.549245	0.574012	0.124800
H138	H	2.049245	1.074012	0.624800
O139	O	1.641372	0.355870	0.843617
O140	O	2.141372	0.855870	1.343617
H141	H	1.659828	0.345212	0.785974
H142	H	2.159828	0.845212	1.285974
H143	H	1.663268	1.006752	0.186033
H144	H	2.163268	1.506752	0.686033
O145	O	1.579348	0.391675	0.667488
O146	O	2.079348	0.891675	1.167488
H147	H	1.589228	0.385976	0.724584
H148	H	2.089228	0.885976	1.224584
O149	O	1.965316	1.009785	0.348393
O150	O	2.465316	1.509785	0.848393
H151	H	1.948296	1.067448	0.339247
H152	H	2.448296	1.567448	0.839247
H153	H	1.672456	0.873204	0.191001
H154	H	2.172456	1.373204	0.691001
H155	H	1.918573	0.195953	0.517883
H156	H	2.418573	0.695953	1.017883
H157	H	1.908557	0.201714	0.651420
H158	H	2.408557	0.701714	1.151420
H159	H	1.969125	0.166748	0.847001
H160	H	2.469125	0.666748	1.347001
