data_functionalizedCrystal
_audit_creation_method	'MofGen! by Chris Wilmer'
_symmetry_space_group_name_H-M	'P1'
_symmetry_Int_Tables_number	1
_symmetry_cell_setting	triclinic
loop_
_symmetry_equiv_pos_as_xyz
  x,y,z
_cell_length_a	18.050591
_cell_length_b	18.050589
_cell_length_c	12.759387
_cell_angle_alpha	90.029785
_cell_angle_beta	89.971092
_cell_angle_gamma	89.969296
loop_
_atom_site_label
_atom_site_type_symbol
_atom_site_fract_x
_atom_site_fract_y
_atom_site_fract_z
Zn1	Zn	1.135318	0.295699	-0.594248
Zn2	Zn	1.135197	0.419908	-0.418571
Zn3	Zn	1.011120	0.295728	-0.418559
Zn4	Zn	1.011071	0.419843	-0.594185
O5	O	1.073176	0.357795	-0.506391
O6	O	1.239226	0.312191	-0.570976
O7	O	1.118708	0.403474	-0.271548
O8	O	1.027666	0.191799	-0.441886
O9	O	1.239138	0.403447	-0.441907
O10	O	1.118913	0.191779	-0.570964
O11	O	1.027549	0.312240	-0.271539
O12	O	0.907189	0.312177	-0.441824
O13	O	1.027583	0.403336	-0.741214
O14	O	0.907153	0.403364	-0.570856
O15	O	1.118866	0.312128	-0.741261
O16	O	1.118661	0.523824	-0.441846
O17	O	1.027466	0.523777	-0.570868
C18	C	0.880224	0.357767	-0.506333
C19	C	0.797678	0.357773	-0.506333
C20	C	0.598226	0.308128	-0.436327
C21	C	0.548796	0.375868	-0.410480
C22	C	0.646548	0.357796	-0.506380
C23	C	0.548896	0.290079	-0.532225
C24	C	0.500563	0.357811	-0.506424
C25	C	0.598205	0.425571	-0.480483
C26	C	0.598310	0.339737	-0.602273
C27	C	0.548903	0.407523	-0.576462
C28	C	0.730646	0.357786	-0.506352
C29	C	0.416466	0.357829	-0.506452
C30	C	1.073065	0.550747	-0.506374
C31	C	1.073085	0.633293	-0.506402
C32	C	1.023519	0.832744	-0.576541
C33	C	1.005407	0.882191	-0.480669
C34	C	1.073141	0.784423	-0.506417
C35	C	1.091274	0.882058	-0.602301
C36	C	1.073194	0.930408	-0.506439
C37	C	1.054993	0.832782	-0.410494
C38	C	1.140891	0.832645	-0.532190
C39	C	1.122804	0.882069	-0.436252
C40	C	1.073109	0.700325	-0.506405
C41	C	1.073226	1.014505	-0.506440
C42	C	1.266882	0.357823	-0.506450
C43	C	1.349428	0.357835	-0.506475
C44	C	1.073232	0.357722	-0.780424
C45	C	1.073256	0.357691	-0.897201
C46	C	1.073280	1.164089	-0.506432
C47	C	1.073252	1.081543	-0.506452
C48	C	1.168316	0.262722	-0.897269
C49	C	1.215857	0.215227	-0.952164
C50	C	1.215875	0.215200	-1.061886
C51	C	1.168346	0.262672	-1.116715
C52	C	1.120805	0.310167	-1.061820
C53	C	1.120794	0.310191	-0.952096
C54	C	1.025743	0.405131	-1.061752
C55	C	1.025727	0.405163	-0.952030
C56	C	0.978214	0.452603	-1.116582
C57	C	0.930676	0.500103	-1.061687
C58	C	0.930660	0.500129	-0.951958
C59	C	0.978187	0.452658	-0.897136
C60	C	1.073163	0.357814	-0.233423
C61	C	1.073283	0.357635	-0.116647
H62	H	0.527382	0.449581	-0.635722
H63	H	0.619882	0.266171	-0.377021
Br64	Br	1.116800	0.918141	-0.737434
H65	H	0.948138	0.903970	-0.458890
Br66	Br	1.168362	0.262625	-1.265624
H67	H	0.978229	0.452575	-1.205923
H68	H	0.891939	0.538798	-0.907269
H69	H	0.620075	0.324430	-0.683324
H70	H	1.254553	0.176575	-0.907510
H71	H	0.527197	0.232814	-0.554030
Br72	Br	0.512547	0.401348	-0.275351
H73	H	0.981502	0.811086	-0.635759
H74	H	0.978182	0.452678	-0.807794
H75	H	0.619775	0.482861	-0.458552
H76	H	1.039610	0.811227	-0.329392
H77	H	0.891978	0.538747	-1.106337
Br78	Br	1.192787	0.917940	-0.337320
H79	H	1.168313	0.262746	-0.807928
Br80	Br	1.236323	0.796345	-0.568566
Br81	Br	1.280379	0.150727	-1.136391
