data_functionalizedCrystal
_audit_creation_method	'MofGen! by Chris Wilmer'
_symmetry_space_group_name_H-M	'P1'
_symmetry_Int_Tables_number	1
_symmetry_cell_setting	triclinic
loop_
_symmetry_equiv_pos_as_xyz
  x,y,z
_cell_length_a	18.050591
_cell_length_b	18.050590
_cell_length_c	12.759401
_cell_angle_alpha	90.014675
_cell_angle_beta	90.011379
_cell_angle_gamma	90.014558
loop_
_atom_site_label
_atom_site_type_symbol
_atom_site_fract_x
_atom_site_fract_y
_atom_site_fract_z
Zn1	Zn	1.135272	-0.295849	0.594208
Zn2	Zn	1.135225	-0.420014	0.418516
Zn3	Zn	1.011112	-0.295833	0.418519
Zn4	Zn	1.011061	-0.419993	0.594129
O5	O	1.073168	-0.357922	0.506343
O6	O	1.239191	-0.312335	0.570934
O7	O	1.118763	-0.403543	0.271495
O8	O	1.027624	-0.191911	0.441860
O9	O	1.239156	-0.403558	0.441853
O10	O	1.118844	-0.191923	0.570938
O11	O	1.027578	-0.312308	0.271498
O12	O	0.907181	-0.312288	0.441783
O13	O	1.027536	-0.403523	0.741160
O14	O	0.907143	-0.403508	0.570802
O15	O	1.118794	-0.312315	0.741219
O16	O	1.118713	-0.523936	0.441776
O17	O	1.027490	-0.523921	0.570798
C18	C	0.880215	-0.357895	0.506285
C19	C	0.797670	-0.357901	0.506285
C20	C	1.073110	-0.550875	0.506301
C21	C	1.073154	-0.633420	0.506318
C22	C	0.598218	-0.308238	0.436286
C23	C	0.548813	-0.375971	0.410430
C24	C	0.646539	-0.357923	0.506332
C25	C	0.548863	-0.290214	0.532186
C26	C	0.500554	-0.357939	0.506376
C27	C	0.598221	-0.425692	0.480426
C28	C	0.598276	-0.339889	0.602227
C29	C	0.548893	-0.407669	0.576407
C30	C	0.730638	-0.357913	0.506304
C31	C	0.416458	-0.357957	0.506404
C32	C	1.122864	-0.832852	0.436254
C33	C	1.140988	-0.882202	0.532144
C34	C	1.073196	-0.784551	0.506360
C35	C	1.055148	-0.882282	0.410513
C36	C	1.073238	-0.930536	0.506392
C37	C	1.091355	-0.832814	0.602301
C38	C	1.005483	-0.832889	0.480605
C39	C	1.023581	-0.882217	0.576561
C40	C	1.073174	-0.700452	0.506340
C41	C	1.073260	-1.014632	0.506423
C42	C	1.266873	-0.357951	0.506402
C43	C	1.349419	-0.357963	0.506427
C44	C	1.073164	-0.357919	0.780376
C45	C	1.073163	-0.357917	0.897153
C46	C	1.073245	-0.164217	0.506408
C47	C	1.073278	-0.081671	0.506436
C48	C	1.120676	-0.310435	0.952047
C49	C	1.120672	-0.310437	1.061771
C50	C	1.025639	-0.405409	1.061697
C51	C	1.025640	-0.405403	0.951975
C52	C	1.175546	-0.255605	0.952090
C53	C	1.175541	-0.255607	1.061815
C54	C	1.073163	-0.357938	1.233376
C55	C	1.073157	-0.357925	1.116599
H56	H	0.619876	-0.266266	0.376986
H57	H	1.233053	-0.271023	1.091604
F58	F	0.520519	-0.215362	0.560742
H59	H	1.154958	-0.200967	1.095863
F60	F	1.215862	-0.910504	0.560660
H61	H	1.160168	-0.198083	0.922337
H62	H	0.986947	-0.444065	0.907284
H63	H	0.620019	-0.324603	0.683280
F64	F	0.520414	-0.395925	0.304457
H65	H	0.619812	-0.482977	0.458488
H66	H	0.527371	-0.449741	0.635662
H67	H	1.164881	-0.811177	0.377029
F68	F	0.975064	-0.455944	1.120052
F69	F	1.111426	-0.804535	0.708294
F70	F	0.968704	-0.910372	0.654158
H71	H	1.039865	-0.904011	0.329443
H72	H	1.230172	-0.276219	0.918065
H73	H	0.948217	-0.811210	0.458771
