data_functionalizedCrystal
_audit_creation_method	'MofGen! by Chris Wilmer'
_symmetry_space_group_name_H-M	'P1'
_symmetry_Int_Tables_number	1
_symmetry_cell_setting	triclinic
loop_
_symmetry_equiv_pos_as_xyz
  x,y,z
_cell_length_a	10.540539
_cell_length_b	14.044191
_cell_length_c	13.101018
_cell_angle_alpha	93.666878
_cell_angle_beta	86.605148
_cell_angle_gamma	88.858634
loop_
_atom_site_label
_atom_site_type_symbol
_atom_site_fract_x
_atom_site_fract_y
_atom_site_fract_z
O1	O	0.299894	1.264955	0.085156
O2	O	0.288832	0.988912	0.085169
O3	O	0.110294	1.133231	0.085161
O4	O	0.478433	1.120636	0.085164
O5	O	0.123115	1.122865	-0.085269
O6	O	0.301653	0.978545	-0.085261
O7	O	0.312715	1.254589	-0.085274
Zn8	Zn	0.309220	1.114921	-0.112327
Zn9	Zn	0.292328	1.128579	0.112222
O10	O	0.491254	1.110269	-0.085266
C11	C	0.290404	0.948381	-0.000044
C12	C	0.275970	0.843058	-0.000039
C13	C	0.351949	0.593285	-0.000048
C14	C	0.249604	0.650221	-0.000047
C15	C	0.264277	0.757525	-0.000043
C16	C	0.337277	0.485971	-0.000053
C17	C	0.069305	1.127103	-0.000052
C18	C	-0.071929	1.124278	-0.000046
C19	C	-0.266336	1.016012	0.000341
C20	C	-0.119400	1.018853	-0.000042
C21	C	-0.121134	1.169093	-0.097373
C22	C	-0.268036	1.165490	-0.097454
C23	C	-0.282917	1.179423	0.096356
C24	C	-0.135934	1.180472	0.097643
C25	C	0.532242	1.116397	-0.000050
C26	C	0.673475	1.119223	-0.000049
C27	C	0.311143	1.295119	-0.000058
C28	C	0.325577	1.400443	-0.000057
N29	N	0.320748	1.105606	-0.265575
C30	C	0.265100	1.150570	-0.525487
C31	C	0.336434	1.092941	-0.474611
C32	C	0.327704	1.099990	-0.358293
C33	C	0.273829	1.143522	-0.641816
N34	N	0.280790	1.137902	0.265470
H35	H	-0.086082	0.983176	0.069725
Cl36	Cl	-0.074115	1.288285	-0.102972
Cl37	Cl	-0.345508	1.133661	0.210248
Cl38	Cl	0.504233	0.642447	-0.000034
H39	H	0.404063	1.038311	-0.518413
H40	H	-0.076651	1.129444	-0.169796
Cl41	Cl	-0.329749	1.282130	-0.104292
Cl42	Cl	0.097309	0.601062	-0.000048
H43	H	0.197477	1.205198	-0.481690
H44	H	-0.304398	0.978612	0.070136
H45	H	-0.295518	0.970315	-0.069058
H46	H	-0.294555	1.123569	-0.170204
Cl47	Cl	-0.086215	1.130400	0.208823
Cl48	Cl	-0.053083	0.950221	-0.107930
Cl49	Cl	-0.087215	1.299695	0.106719
H50	H	-0.322491	1.255610	0.097007
