data_functionalizedCrystal
_audit_creation_method	'MofGen! by Chris Wilmer'
_symmetry_space_group_name_H-M	'P1'
_symmetry_Int_Tables_number	1
_symmetry_cell_setting	triclinic
loop_
_symmetry_equiv_pos_as_xyz
  x,y,z
_cell_length_a	6.817900
_cell_length_b	11.102288
_cell_length_c	16.418042
_cell_angle_alpha	93.889468
_cell_angle_beta	103.389568
_cell_angle_gamma	108.605689
loop_
_atom_site_label
_atom_site_type_symbol
_atom_site_fract_x
_atom_site_fract_y
_atom_site_fract_z
V1	V	-4.051821	-0.176872	-0.261154
O2	O	-4.011990	0.007436	-0.256182
O3	O	-4.029007	-0.349685	-0.259368
O4	O	-4.002561	-0.174618	-0.375052
O5	O	-4.038619	-0.168843	-0.139697
V6	V	-4.532245	-0.154772	-0.246627
O7	O	-4.319877	-0.225351	-0.293020
O8	O	-4.714386	-0.106292	-0.214760
O9	O	-4.331853	0.018042	-0.248413
O10	O	-4.689473	-0.339080	-0.251598
O11	O	-4.662844	-0.162801	-0.368083
O12	O	-4.358299	-0.157026	-0.132728
C13	C	-3.880259	-0.391799	-0.255248
C14	C	-3.942887	-0.533079	-0.254547
C15	C	-4.155362	-0.605942	-0.258396
C16	C	-4.214199	-0.738691	-0.257744
C17	C	-3.848063	-0.725700	-0.249390
C18	C	-3.789232	-0.592955	-0.250048
C19	C	-3.846524	-0.168481	-0.402814
C20	C	-3.887701	-0.167782	-0.495926
C21	C	-4.165424	-0.172509	-0.714412
C22	C	-4.204093	-0.171841	-0.801899
C23	C	-3.837997	-0.159128	-0.793357
C24	C	-3.799326	-0.159787	-0.705870
C25	C	-3.963050	-0.166484	-0.666400
C26	C	-4.040390	-0.165157	-0.841375
C27	C	-4.082316	-0.164432	-0.936232
C28	C	-3.921121	-0.167207	-0.571536
C29	C	-4.143943	0.060149	-0.252530
C30	C	-4.060554	0.201427	-0.253237
C31	C	-4.177678	-0.163166	-0.104962
C32	C	-4.115739	-0.163860	-0.011849
H33	H	-4.298739	-0.177961	-0.682279
O34	O	-4.400834	-0.177763	-0.848418
C35	C	-4.537017	-0.183781	-0.794814
H36	H	-4.475734	-0.222829	-0.735355
H37	H	-4.706803	-0.250051	-0.829451
H38	H	-4.538637	-0.083333	-0.776290
O39	O	-3.602908	-0.154161	-0.659175
C40	C	-3.624228	-0.264828	-0.619722
H41	H	-3.795548	-0.307283	-0.614098
H42	H	-3.507255	-0.237770	-0.553845
H43	H	-3.587120	-0.338919	-0.659319
H44	H	-3.722970	-0.774467	-0.245725
H45	H	-4.387212	-0.798012	-0.260880
O46	O	-3.679239	-0.152696	-0.831840
C47	C	-3.756748	-0.153378	-0.919351
H48	H	-3.939292	-0.199187	-0.939125
H49	H	-3.685142	-0.211086	-0.956244
H50	H	-3.708487	-0.050416	-0.933448
H51	H	-4.280480	-0.557195	-0.262059
O52	O	-3.582707	-0.522187	-0.246155
C53	C	-3.445193	-0.533163	-0.170584
H54	H	-3.540162	-0.561203	-0.121909
H55	H	-3.309872	-0.437032	-0.144660
H56	H	-3.374349	-0.610127	-0.184073
