data_functionalizedCrystal
_audit_creation_method	'MofGen! by Chris Wilmer'
_symmetry_space_group_name_H-M	'P1'
_symmetry_Int_Tables_number	1
_symmetry_cell_setting	triclinic
loop_
_symmetry_equiv_pos_as_xyz
  x,y,z
_cell_length_a	14.519731
_cell_length_b	12.996460
_cell_length_c	10.723024
_cell_angle_alpha	89.995205
_cell_angle_beta	84.078361
_cell_angle_gamma	89.993791
loop_
_atom_site_label
_atom_site_type_symbol
_atom_site_fract_x
_atom_site_fract_y
_atom_site_fract_z
O1	O	1.224694	-0.085566	0.163703
O2	O	1.558027	0.247767	0.497036
O3	O	1.891360	0.581100	0.830370
O4	O	0.956318	-0.085568	0.182938
O5	O	1.289651	0.247766	0.516272
O6	O	1.622984	0.581099	0.849605
O7	O	1.096696	-0.085563	-0.008313
O8	O	1.430029	0.247770	0.325020
O9	O	1.763363	0.581103	0.658354
O10	O	1.084315	-0.085571	0.354954
O11	O	1.417648	0.247762	0.688287
O12	O	1.750982	0.581096	1.021621
O13	O	1.096680	0.085571	-0.008323
O14	O	1.430013	0.418904	0.325011
O15	O	1.763346	0.752237	0.658344
O16	O	0.956301	0.085566	0.182928
O17	O	1.289635	0.418899	0.516262
O18	O	1.622968	0.752233	0.849595
O19	O	1.224677	0.085567	0.163693
O20	O	1.558011	0.418901	0.497026
O21	O	1.891344	0.752234	0.830360
Cu22	Cu	1.090488	0.101193	0.173310
Cu23	Cu	1.423821	0.434526	0.506643
Cu24	Cu	1.757154	0.767859	0.839977
Cu25	Cu	1.090507	-0.101193	0.173321
Cu26	Cu	1.423840	0.232140	0.506655
Cu27	Cu	1.757174	0.565474	0.839988
O28	O	1.084299	0.085563	0.354944
O29	O	1.417632	0.418896	0.688278
O30	O	1.750965	0.752230	1.021611
C31	C	0.921945	-0.000001	0.182032
C32	C	1.255279	0.333332	0.515365
C33	C	1.588612	0.666666	0.848699
C34	C	0.819551	-0.000001	0.179331
C35	C	1.152885	0.333332	0.512665
C36	C	1.486218	0.666665	0.845998
C37	C	0.736396	-0.000006	0.177137
C38	C	1.069729	0.333328	0.510470
C39	C	1.403063	0.666661	0.843803
C40	C	0.632073	-0.000006	0.174395
C41	C	0.965407	0.333327	0.507728
C42	C	1.298740	0.666661	0.841061
C43	C	0.548923	-0.000006	0.172218
C44	C	0.882256	0.333328	0.505552
C45	C	1.215590	0.666661	0.838885
C46	C	0.444594	-0.000008	0.169476
C47	C	0.777927	0.333325	0.502810
C48	C	1.111260	0.666659	0.836143
N49	N	1.090481	0.243540	0.173301
N50	N	1.423814	0.576873	0.506634
N51	N	1.757148	0.910206	0.839968
C52	C	1.090499	0.663354	0.173326
C53	C	1.423832	0.996687	0.506660
C54	C	1.757166	1.330021	0.839993
C55	C	1.090491	0.546549	0.173324
C56	C	1.423825	0.879882	0.506657
C57	C	1.757158	1.213216	0.839990
C58	C	1.090490	0.453451	0.173315
C59	C	1.423824	0.786784	0.506648
C60	C	1.757157	1.120117	0.839981
C61	C	1.090482	0.336638	0.173310
C62	C	1.423815	0.669971	0.506643
C63	C	1.757148	1.003305	0.839977
C64	C	1.259049	-0.000002	0.164599
C65	C	1.592383	0.333332	0.497933
C66	C	1.925716	0.666665	0.831266
C67	C	1.361443	-0.000008	0.167300
C68	C	1.694777	0.333326	0.500633
C69	C	2.028110	0.666659	0.833967
C70	C	1.095787	0.000003	-0.054809
C71	C	1.429120	0.333336	0.278524
C72	C	1.762454	0.666669	0.611858
C73	C	1.093091	-0.000001	-0.193338
C74	C	1.426425	0.333332	0.139995
C75	C	1.759758	0.666666	0.473328
N76	N	1.090512	0.756460	0.173325
N77	N	1.423846	1.089793	0.506659
N78	N	1.757179	1.423127	0.839992
C79	C	1.171640	-0.000002	-0.269047
C80	C	1.504973	0.333331	0.064286
C81	C	1.838306	0.666664	0.397619
C82	C	1.168855	-0.000006	-0.412225
C83	C	1.502189	0.333327	-0.078892
C84	C	1.835522	0.666661	0.254442
C85	C	1.085208	-0.000005	0.401440
C86	C	1.418541	0.333328	0.734774
C87	C	1.751875	0.666662	1.068107
C88	C	1.087904	-0.000008	0.539970
C89	C	1.421237	0.333325	0.873303
C90	C	1.754570	0.666659	1.206636
H91	H	1.240949	0.000004	-0.227866
H92	H	1.574282	0.333338	0.105467
H93	H	1.907616	0.666671	0.438800
H94	H	1.236099	-0.000002	-0.477280
H95	H	1.569432	0.333331	-0.143946
H96	H	1.902766	0.666664	0.189387
O97	O	0.998818	-0.000000	-0.373882
O98	O	1.332152	0.333333	-0.040549
O99	O	1.665485	0.666666	0.292784
H100	H	0.996013	-0.069753	-0.313877
H101	H	1.329346	0.263581	0.019457
H102	H	1.662679	0.596914	0.352790
O103	O	1.001280	0.000003	-0.247880
O104	O	1.334613	0.333337	0.085454
O105	O	1.667946	0.666670	0.418787
H106	H	0.961505	-0.069750	-0.215927
H107	H	1.294838	0.263583	0.117406
H108	H	1.628171	0.596917	0.450739
