data_functionalizedCrystal
_audit_creation_method	'MofGen! by Chris Wilmer'
_symmetry_space_group_name_H-M	'P1'
_symmetry_Int_Tables_number	1
_symmetry_cell_setting	triclinic
loop_
_symmetry_equiv_pos_as_xyz
  x,y,z
_cell_length_a	19.188930
_cell_length_b	18.266242
_cell_length_c	11.792241
_cell_angle_alpha	90.006463
_cell_angle_beta	83.669098
_cell_angle_gamma	90.022918
loop_
_atom_site_label
_atom_site_type_symbol
_atom_site_fract_x
_atom_site_fract_y
_atom_site_fract_z
O1	O	0.926952	0.061117	0.141695
O2	O	0.723749	0.061067	0.160770
O3	O	0.830281	0.061088	-0.014012
O4	O	0.820419	0.061096	0.316477
O5	O	0.830263	-0.060674	-0.014021
O6	O	0.723730	-0.060695	0.160761
O7	O	0.926934	-0.060645	0.141686
Zn8	Zn	0.825329	-0.080003	0.151222
Zn9	Zn	0.825353	0.080424	0.151234
O10	O	0.820401	-0.060666	0.316468
C11	C	0.697725	0.000179	0.160148
C12	C	0.620210	0.000160	0.158293
C13	C	0.575867	0.000174	0.260849
C14	C	0.503033	0.000182	0.259107
C15	C	0.474546	0.000191	0.154803
C16	C	0.518899	0.000173	0.052234
C17	C	0.591731	0.000157	0.053979
N18	N	0.366120	0.041659	0.075079
N19	N	0.296932	0.041675	0.073429
C20	C	0.255107	0.000235	0.149540
N21	N	0.285083	-0.041212	0.227381
N22	N	0.354277	-0.041225	0.229035
C23	C	0.395573	0.000207	0.152900
C24	C	0.131789	0.000257	0.250214
C25	C	0.058955	0.000260	0.248468
C26	C	0.074822	0.000258	0.041591
C27	C	0.147655	0.000248	0.043341
C28	C	0.176134	0.000250	0.147655
N29	N	0.825318	-0.189490	0.151214
C30	C	0.872506	-0.227789	0.073858
C31	C	0.872511	-0.304434	0.073853
C32	C	0.825333	-0.342776	0.151222
C33	C	0.778136	-0.304468	0.228584
C34	C	0.778128	-0.227824	0.228579
N35	N	0.816827	-0.463108	0.251692
N36	N	0.816838	-0.535916	0.251693
C37	C	0.825353	-0.573699	0.151239
N38	N	0.833869	-0.535923	0.050781
N39	N	0.833861	-0.463108	0.050781
C40	C	0.825336	-0.425883	0.151235
C41	C	0.872549	-0.695105	0.073871
C42	C	0.872548	-0.771752	0.073864
C43	C	0.778177	-0.771784	0.228605
C44	C	0.778174	-0.695139	0.228602
C45	C	0.825364	-0.656805	0.151237
C46	C	0.952957	0.000244	0.142309
C47	C	1.030472	0.000268	0.144163
N48	N	0.825370	0.189911	0.151234
C49	C	0.829653	0.000207	-0.056298
C50	C	0.827799	0.000207	-0.182284
C51	C	0.824389	0.000219	-0.412945
C52	C	0.826283	0.000212	-0.284588
C53	C	0.821029	0.000216	0.358754
C54	C	0.822884	0.000221	0.484740
H55	H	0.599050	0.000177	0.345790
C56	C	0.043493	0.000269	-0.073145
C57	C	0.060086	0.063493	-0.158233
C58	C	0.028753	0.063501	-0.272972
C59	C	-0.019172	0.000284	-0.302624
C60	C	-0.035766	-0.062946	-0.217534
C61	C	-0.004434	-0.062953	-0.102795
H62	H	0.095565	0.110295	-0.136284
H63	H	0.041038	0.110308	-0.335961
H64	H	-0.042366	0.000289	-0.387561
H65	H	-0.071246	-0.109747	-0.239483
H66	H	-0.016719	-0.109760	-0.039806
H67	H	0.739752	-0.663954	0.291597
H68	H	0.739762	-0.803002	0.291597
H69	H	0.022850	0.000267	0.331985
H70	H	0.910938	-0.335623	0.010858
H71	H	0.739722	-0.335690	0.291578
C72	C	0.196437	0.000241	-0.069475
C73	C	0.276550	0.000222	-0.067560
C74	C	0.325333	0.000212	-0.180381
C75	C	0.294003	0.000220	-0.295116
C76	C	0.213886	0.000238	-0.297035
C77	C	0.165103	0.000249	-0.184214
H78	H	0.299746	0.000216	0.017378
H79	H	0.384641	0.000198	-0.178960
H80	H	0.330115	0.000212	-0.378633
H81	H	0.190690	0.000244	-0.381973
H82	H	0.105795	0.000262	-0.185635
H83	H	0.627836	0.000146	-0.029537
H84	H	0.154978	0.000248	0.335153
H85	H	0.466922	0.000191	0.342624
H86	H	0.739701	-0.196640	0.291573
C87	C	0.487566	0.000183	-0.062502
C88	C	0.504083	-0.063051	-0.147596
C89	C	0.472751	-0.063045	-0.262336
C90	C	0.424902	0.000195	-0.291982
C91	C	0.408382	0.063434	-0.206885
C92	C	0.439714	0.063428	-0.092145
H93	H	0.539507	-0.109869	-0.125652
H94	H	0.484981	-0.109858	-0.325330
H95	H	0.401708	0.000200	-0.376919
H96	H	0.372958	0.110252	-0.228829
H97	H	0.427484	0.110241	-0.029152
C98	C	0.924449	-0.652933	-0.011239
C99	C	0.976349	-0.695069	-0.096344
C100	C	1.028250	-0.652900	-0.181455
C101	C	1.028250	-0.568595	-0.181462
C102	C	0.976348	-0.526455	-0.096354
C103	C	0.924448	-0.568624	-0.011242
H104	H	0.976351	-0.757480	-0.096341
H105	H	1.066671	-0.684095	-0.244457
H106	H	1.066670	-0.537379	-0.244466
H107	H	0.976347	-0.464043	-0.096356
H108	H	0.886027	-0.537428	0.051760
H109	H	0.910929	-0.196579	0.010860
H110	H	0.910973	-0.802936	0.010866
