data_functionalizedCrystal
_audit_creation_method	'MofGen! by Chris Wilmer'
_symmetry_space_group_name_H-M	'P1'
_symmetry_Int_Tables_number	1
_symmetry_cell_setting	triclinic
loop_
_symmetry_equiv_pos_as_xyz
  x,y,z
_cell_length_a	16.974885
_cell_length_b	9.482944
_cell_length_c	16.992695
_cell_angle_alpha	99.814932
_cell_angle_beta	87.023153
_cell_angle_gamma	96.880553
loop_
_atom_site_label
_atom_site_type_symbol
_atom_site_fract_x
_atom_site_fract_y
_atom_site_fract_z
O1	O	1.055143	-0.003130	0.099619
O2	O	0.828333	0.023534	0.114754
O3	O	0.940828	0.010298	-0.006946
O4	O	0.942649	0.010107	0.221320
O5	O	0.917601	-0.228766	-0.028476
O6	O	0.805107	-0.215530	0.093224
O7	O	1.031916	-0.242194	0.078089
Cu8	Cu	0.916391	-0.250690	0.083691
Cu9	Cu	0.943859	0.032031	0.109153
O10	O	0.919422	-0.228957	0.199790
C11	C	0.787564	-0.092570	0.103815
C12	C	0.700689	-0.082358	0.103285
C13	C	0.213043	-0.010783	0.101544
C14	C	0.294670	-0.020399	0.102040
C15	C	0.322814	-0.155521	0.090558
C16	C	0.269326	-0.281037	0.078571
C17	C	0.187702	-0.271420	0.078069
C18	C	0.565577	-0.198256	0.090795
C19	C	0.647208	-0.207864	0.091301
C20	C	0.672546	0.052776	0.114769
C21	C	0.590918	0.062380	0.114271
C22	C	0.537438	-0.063135	0.102279
N23	N	0.406249	-0.165353	0.091067
N24	N	0.454005	-0.053302	0.101764
N25	N	0.897077	-0.449541	0.065782
C26	C	0.938157	-0.526567	0.103870
C27	C	0.922093	-0.692097	0.088962
C28	C	1.072686	-0.126086	0.089029
C29	C	1.159562	-0.136289	0.089560
C30	C	0.926875	-0.108959	-0.046897
C31	C	0.919895	-0.108138	-0.133859
N32	N	0.963179	0.230881	0.127055
C33	C	0.987241	-0.116057	-0.184888
C34	C	0.980679	-0.115272	-0.266596
C35	C	0.906770	-0.106578	-0.297275
C36	C	0.839420	-0.098654	-0.246240
C37	C	0.845984	-0.099429	-0.164532
C38	C	0.879569	-0.103360	-0.540553
C39	C	0.873010	-0.102590	-0.622268
C40	C	1.014270	-0.119205	-0.642619
C41	C	1.020826	-0.119988	-0.560909
C42	C	0.953477	-0.112056	-0.509880
N43	N	0.900061	-0.105780	-0.380795
N44	N	0.960187	-0.112844	-0.426361
C45	C	0.933375	-0.109697	0.239740
C46	C	0.940356	-0.110509	0.326703
H47	H	0.144157	-0.373621	0.068318
H48	H	0.522043	-0.300460	0.081020
C49	C	1.025871	-0.693401	0.185262
C50	C	1.029321	-0.544270	0.188503
C51	C	1.087052	-0.474472	0.242123
H52	H	1.076092	-0.723981	0.167831
H53	H	1.012462	-0.716617	0.236876
H54	H	1.042735	-0.521064	0.136900
H55	H	0.979115	-0.513648	0.205942
H56	H	1.073643	-0.497689	0.293737
H57	H	1.137269	-0.505064	0.224687
H58	H	1.089395	-0.373280	0.244334
C59	C	0.759112	-0.089129	-0.279386
C60	C	0.701543	-0.082318	-0.217201
C61	C	0.627554	-0.073524	-0.247701
H62	H	0.745404	-0.171812	-0.318333
H63	H	0.761680	-0.005076	-0.303300
H64	H	0.698973	-0.166361	-0.193300
H65	H	0.715224	0.000362	-0.178249
H66	H	0.630122	0.010529	-0.271615
H67	H	0.613854	-0.156209	-0.286648
H68	H	0.588486	-0.068888	-0.205513
H69	H	0.568010	0.172412	0.123620
H70	H	0.875030	-0.748694	0.045311
C71	C	0.834327	-0.525259	0.007644
C72	C	0.830726	-0.674371	0.004569
C73	C	0.772922	-0.744162	-0.048972
H74	H	0.847725	-0.502304	-0.044017
H75	H	0.784154	-0.494424	0.025082
H76	H	0.880888	-0.705196	-0.012873
H77	H	0.817318	-0.697369	0.056216
H78	H	0.722748	-0.713327	-0.031534
H79	H	0.786325	-0.721195	-0.100629
H80	H	0.770465	-0.845340	-0.051060
C81	C	1.067565	-0.125426	-0.151729
C82	C	1.125142	-0.132150	-0.213907
C83	C	1.199149	-0.140755	-0.183392
H84	H	1.065079	-0.209429	-0.127799
H85	H	1.081203	-0.042676	-0.112787
H86	H	1.111507	-0.214892	-0.252835
H87	H	1.127653	-0.048156	-0.237842
H88	H	1.212788	-0.058004	-0.144450
H89	H	1.196655	-0.224758	-0.159463
H90	H	1.238225	-0.145305	-0.225573
H91	H	0.292248	-0.391057	0.069217
C92	C	1.053803	-0.123568	-0.322007
C93	C	1.066131	-0.000592	-0.358407
C94	C	1.133496	-0.008171	-0.409445
H95	H	1.046163	-0.206884	-0.361885
H96	H	1.098786	-0.128787	-0.292051
H97	H	1.021159	0.004612	-0.388361
H98	H	1.073786	0.082742	-0.318548
H99	H	1.178478	-0.013390	-0.379489
H100	H	1.125848	-0.091491	-0.449319
H101	H	1.141873	0.075271	-0.434143
C102	C	0.792752	-0.093442	-0.655645
C103	C	0.772893	-0.215527	-0.713021
C104	C	0.698964	-0.207164	-0.743777
H105	H	0.795268	-0.009520	-0.679650
H106	H	0.753550	-0.088902	-0.613578
H107	H	0.812084	-0.220052	-0.755082
H108	H	0.770360	-0.299467	-0.689035
H109	H	0.659763	-0.202624	-0.701710
H110	H	0.701488	-0.123237	-0.767779
H111	H	0.685478	-0.290001	-0.782705
C112	C	0.352813	0.115755	0.115171
C113	C	0.395844	0.118381	0.183602
C114	C	0.449418	0.243780	0.195717
H115	H	0.324456	0.197712	0.121994
H116	H	0.388334	0.117066	0.070146
H117	H	0.360328	0.117083	0.228616
H118	H	0.424217	0.036452	0.176796
H119	H	0.484939	0.245091	0.150692
H120	H	0.421055	0.325728	0.202536
H121	H	0.478626	0.245573	0.242143
H122	H	0.985222	-0.469964	0.147512
C123	C	1.087392	-0.127499	-0.698032
C124	C	1.099711	-0.004527	-0.734436
C125	C	1.167073	-0.012103	-0.785479
H126	H	1.079751	-0.210818	-0.737908
H127	H	1.132377	-0.132710	-0.668079
H128	H	1.054737	0.000669	-0.764388
H129	H	1.107366	0.078810	-0.694579
H130	H	1.212058	-0.017313	-0.755526
H131	H	1.159426	-0.095426	-0.825350
H132	H	1.175445	0.071337	-0.810179
C133	C	0.806346	-0.094834	-0.485295
C134	C	0.740214	-0.087104	-0.529659
C135	C	0.672742	-0.079273	-0.478781
H136	H	0.813950	-0.011435	-0.445468
H137	H	0.797825	-0.178188	-0.460524
H138	H	0.748733	-0.003759	-0.554417
H139	H	0.732584	-0.170494	-0.569483
H140	H	0.664221	-0.162627	-0.454010
H141	H	0.680354	0.004127	-0.438956
H142	H	0.627862	-0.074041	-0.508875
H143	H	0.791143	-0.092981	-0.122984
C144	C	0.182649	0.136059	0.113989
C145	C	0.246961	0.243911	0.124569
C146	C	0.218997	0.379202	0.136024
H147	H	0.148244	0.145807	0.160020
H148	H	0.154467	0.144932	0.068538
H149	H	0.275131	0.235042	0.170016
H150	H	0.281372	0.234210	0.078545
H151	H	0.190815	0.388075	0.090573
H152	H	0.184592	0.388936	0.182055
H153	H	0.262629	0.452396	0.143197
C154	C	0.730693	0.188924	0.127894
C155	C	0.773724	0.191557	0.196326
C156	C	0.827304	0.316949	0.208433
H157	H	0.702341	0.270886	0.134711
H158	H	0.766214	0.190220	0.082869
H159	H	0.738207	0.190274	0.241341
H160	H	0.802092	0.109623	0.189526
H161	H	0.862825	0.318245	0.163408
H162	H	0.798945	0.398902	0.215248
H163	H	0.856511	0.318746	0.254861
H164	H	1.081010	-0.127067	-0.535937
H165	H	0.670118	-0.317902	0.081955
