data_functionalizedCrystal
_audit_creation_method	'MofGen! by Chris Wilmer'
_symmetry_space_group_name_H-M	'P1'
_symmetry_Int_Tables_number	1
_symmetry_cell_setting	triclinic
loop_
_symmetry_equiv_pos_as_xyz
  x,y,z
_cell_length_a	6.817900
_cell_length_b	9.582889
_cell_length_c	9.582880
_cell_angle_alpha	89.899755
_cell_angle_beta	111.207034
_cell_angle_gamma	111.207298
loop_
_atom_site_label
_atom_site_type_symbol
_atom_site_fract_x
_atom_site_fract_y
_atom_site_fract_z
V1	V	-4.156354	-0.206425	-0.466328
V2	V	-3.823021	0.126909	-0.132995
V3	V	-3.489688	0.460242	0.200339
O4	O	-4.100353	0.010569	-0.457733
O5	O	-3.767019	0.343903	-0.124400
O6	O	-3.433686	0.677236	0.208934
O7	O	-4.146464	-0.409930	-0.462868
O8	O	-3.813130	-0.076597	-0.129534
O9	O	-3.479797	0.256736	0.203799
O10	O	-4.146462	-0.202964	-0.669834
O11	O	-3.813129	0.130369	-0.336500
O12	O	-3.479796	0.463702	-0.003167
O13	O	-4.100354	-0.197829	-0.249334
O14	O	-3.767021	0.135504	0.083999
O15	O	-3.433687	0.468837	0.417332
V16	V	-4.630003	-0.180503	-0.440407
V17	V	-4.296669	0.152830	-0.107074
V18	V	-3.963336	0.486163	0.226260
O19	O	-4.439274	-0.263285	-0.523189
O20	O	-4.105940	0.070048	-0.189855
O21	O	-3.772607	0.403381	0.143478
O22	O	-4.797280	-0.123643	-0.383546
O23	O	-4.463947	0.209690	-0.050213
O24	O	-4.130614	0.543024	0.283120
O25	O	-4.416687	0.023002	-0.443867
O26	O	-4.083353	0.356336	-0.110534
O27	O	-3.750020	0.689669	0.222799
O28	O	-4.803401	-0.397497	-0.449002
O29	O	-4.470068	-0.064164	-0.115669
O30	O	-4.136735	0.269169	0.217665
O31	O	-4.803400	-0.189099	-0.657401
O32	O	-4.470067	0.144235	-0.324067
O33	O	-4.136733	0.477568	0.009266
O34	O	-4.416688	-0.183964	-0.236901
O35	O	-4.083355	0.149370	0.096432
O36	O	-3.750021	0.482703	0.429765
C37	C	-3.999587	-0.459550	-0.455441
C38	C	-3.666253	-0.126216	-0.122108
C39	C	-3.332920	0.207117	0.211226
C40	C	-4.073043	-0.625916	-0.453968
C41	C	-3.739710	-0.292583	-0.120635
C42	C	-3.406377	0.040750	0.212698
C43	C	-3.999583	-0.195542	-0.719445
C44	C	-3.666250	0.137791	-0.386112
C45	C	-3.332917	0.471125	-0.052778
C46	C	-4.073034	-0.194059	-0.885810
C47	C	-3.739700	0.139274	-0.552477
C48	C	-3.406367	0.472607	-0.219143
C49	C	-4.226906	0.072614	-0.451290
C50	C	-3.893573	0.405947	-0.117956
C51	C	-3.560240	0.739280	0.215377
C52	C	-4.132690	0.238979	-0.452772
C53	C	-3.799357	0.572312	-0.119439
C54	C	-3.466024	0.905646	0.213894
C55	C	-4.226909	-0.191391	-0.187282
C56	C	-3.893575	0.141942	0.146051
C57	C	-3.560242	0.475276	0.479384
C58	C	-4.132695	-0.192866	-0.020916
C59	C	-3.799362	0.140467	0.312418
C60	C	-3.466028	0.473801	0.645751
