data_functionalizedCrystal
_audit_creation_method	'MofGen! by Chris Wilmer'
_symmetry_space_group_name_H-M	'P1'
_symmetry_Int_Tables_number	1
_symmetry_cell_setting	triclinic
loop_
_symmetry_equiv_pos_as_xyz
  x,y,z
_cell_length_a	18.101398
_cell_length_b	13.897448
_cell_length_c	13.897441
_cell_angle_alpha	89.969401
_cell_angle_beta	90.027215
_cell_angle_gamma	89.987041
loop_
_atom_site_label
_atom_site_type_symbol
_atom_site_fract_x
_atom_site_fract_y
_atom_site_fract_z
Zn1	Zn	1.132211	0.384106	0.545548
Zn2	Zn	1.465545	0.717439	0.878881
Zn3	Zn	1.798878	1.050773	1.212215
Zn4	Zn	1.132130	0.545428	0.384249
Zn5	Zn	1.465463	0.878761	0.717583
Zn6	Zn	1.798796	1.212094	1.050916
Zn7	Zn	1.008364	0.384135	0.384248
Zn8	Zn	1.341697	0.717468	0.717581
Zn9	Zn	1.675031	1.050802	1.050915
Zn10	Zn	1.008350	0.545347	0.545484
Zn11	Zn	1.341683	0.878681	0.878817
Zn12	Zn	1.675016	1.212014	1.212150
O13	O	1.070264	0.464754	0.464882
O14	O	1.403597	0.798087	0.798216
O15	O	1.736930	1.131421	1.131549
O16	O	1.235833	0.405527	0.524179
O17	O	1.569167	0.738860	0.857512
O18	O	1.902500	1.072194	1.190845
O19	O	1.115684	0.524077	0.249267
O20	O	1.449017	0.857411	0.582601
O21	O	1.782350	1.190744	0.915934
O22	O	1.024832	0.249149	0.405671
O23	O	1.358166	0.582483	0.739005
O24	O	1.691499	0.915816	1.072338
O25	O	1.235773	0.524049	0.405673
O26	O	1.569107	0.857383	0.739007
O27	O	1.902440	1.190716	1.072340
O28	O	1.115823	0.249128	0.524178
O29	O	1.449156	0.582461	0.857511
O30	O	1.782489	0.915795	1.190844
O31	O	1.024753	0.405576	0.249267
O32	O	1.358087	0.738910	0.582600
O33	O	1.691420	1.072243	0.915933
O34	O	0.904729	0.405499	0.405609
O35	O	1.238062	0.738832	0.738942
O36	O	1.571396	1.072165	1.072276
O37	O	1.024808	0.523913	0.680474
O38	O	1.358142	0.857246	1.013807
O39	O	1.691475	1.190579	1.347141
O40	O	0.904719	0.523941	0.524068
O41	O	1.238052	0.857274	0.857401
O42	O	1.571385	1.190607	1.190735
O43	O	1.115809	0.405449	0.680521
O44	O	1.449142	0.738782	1.013854
O45	O	1.782476	1.072116	1.347188
O46	O	1.115670	0.680399	0.405611
O47	O	1.449004	1.013732	0.738944
O48	O	1.782337	1.347065	1.072278
O49	O	1.024730	0.680340	0.524069
O50	O	1.358063	1.013673	0.857403
O51	O	1.691396	1.347006	1.190736
C52	C	1.070210	0.715368	0.464854
C53	C	1.403543	1.048702	0.798188
C54	C	1.736876	1.382035	1.131521
C55	C	1.070254	0.822582	0.464875
C56	C	1.403588	1.155915	0.798208
C57	C	1.736921	1.489249	1.131541
C58	C	0.877853	0.464715	0.464832
C59	C	1.211186	0.798048	0.798165
C60	C	1.544520	1.131381	1.131499
C61	C	0.795539	0.464721	0.464833
C62	C	1.128872	0.798055	0.798167
C63	C	1.462206	1.131388	1.131500
C64	C	1.070316	0.464669	0.716475
C65	C	1.403650	0.798002	1.049809
C66	C	1.736983	1.131335	1.383142
C67	C	1.070339	0.464632	0.823689
C68	C	1.403672	0.797966	1.157023
C69	C	1.737005	1.131299	1.490356
C70	C	0.496448	0.464781	0.464914
C71	C	0.829781	0.798115	0.798248
C72	C	1.163115	1.131448	1.131581
C73	C	0.527755	0.389888	0.390747
C74	C	0.861088	0.723222	0.724080
C75	C	1.194422	1.056555	1.057413
C76	C	0.613373	0.390089	0.390430
C77	C	0.946706	0.723423	0.723763
C78	C	1.280040	1.056756	1.057097
C79	C	0.644831	0.464751	0.464874
C80	C	0.978164	0.798084	0.798207
C81	C	1.311497	1.131417	1.131541
C82	C	0.613730	0.566363	0.437102
C83	C	0.947063	0.899696	0.770435
C84	C	1.280396	1.233029	1.103769
C85	C	0.528084	0.565946	0.436586
C86	C	0.861418	0.899280	0.769920
C87	C	1.194751	1.232613	1.103253
C88	C	0.528062	0.438946	0.567029
C89	C	0.861395	0.772279	0.900362
C90	C	1.194729	1.105613	1.233695
C91	C	0.613712	0.436683	0.566471
C92	C	0.947046	0.770017	0.899805
C93	C	1.280379	1.103350	1.233138
C94	C	0.728690	0.464740	0.464853
C95	C	1.062023	0.798073	0.798186
C96	C	1.395357	1.131406	1.131520
C97	C	0.412589	0.464799	0.464933
C98	C	0.745922	0.798133	0.798266
C99	C	1.079255	1.131466	1.131600
C100	C	1.263426	0.464794	0.464933
C101	C	1.596759	0.798127	0.798267
C102	C	1.930092	1.131461	1.131600
C103	C	1.345740	0.464811	0.464955
C104	C	1.679073	0.798144	0.798288
C105	C	2.012406	1.131478	1.131622
C106	C	1.070338	0.213161	0.464931
C107	C	1.403671	0.546494	0.798265
C108	C	1.737005	0.879828	1.131598
C109	C	1.070370	0.105947	0.464952
C110	C	1.403703	0.439280	0.798286
C111	C	1.737036	0.772614	1.131619
C112	C	1.070332	1.018877	0.464935
C113	C	1.403665	1.352211	0.798268
C114	C	1.736999	1.685544	1.131602
C115	C	1.070287	0.909645	0.464904
C116	C	1.403620	1.242978	0.798238
C117	C	1.736953	1.576311	1.131571
C118	C	1.070254	0.464769	0.214268
C119	C	1.403587	0.798103	0.547601
C120	C	1.736921	1.131436	0.880935
C121	C	1.070375	0.464534	0.107055
C122	C	1.403708	0.797867	0.440388
C123	C	1.737042	1.131201	0.773721
C124	C	1.070359	0.464567	1.019985
C125	C	1.403692	0.797900	1.353318
C126	C	1.737025	1.131234	1.686651
C127	C	1.070345	0.464606	0.910752
C128	C	1.403679	0.797939	1.244085
C129	C	1.737012	1.131273	1.577419
H130	H	0.634401	0.314740	0.407838
H131	H	0.967734	0.648073	0.741171
H132	H	1.301068	0.981407	1.074505
H133	H	0.507817	0.493495	0.622290
H134	H	0.841151	0.826828	0.955624
H135	H	1.174484	1.160162	1.288957
H136	H	0.507172	0.314309	0.407963
H137	H	0.840505	0.647642	0.741296
H138	H	1.173838	0.980976	1.074629
F139	F	0.640111	0.412410	0.291528
F140	F	0.973444	0.745743	0.624862
F141	F	1.306778	1.079076	0.958195
H142	H	0.634106	0.623659	0.489432
H143	H	0.967440	0.956992	0.822765
H144	H	1.300773	1.290326	1.156098
F145	F	0.641719	0.595498	0.340581
F146	F	0.975052	0.928831	0.673915
F147	F	1.308385	1.262164	1.007248
F148	F	0.501013	0.641355	0.504110
F149	F	0.834346	0.974688	0.837443
F150	F	1.167680	1.308022	1.170777
F151	F	0.499577	0.411945	0.292424
F152	F	0.832910	0.745278	0.625757
F153	F	1.166243	1.078611	0.959090
H154	H	0.634044	0.361908	0.587413
H155	H	0.967377	0.695242	0.920746
H156	H	1.300710	1.028575	1.254079
H157	H	0.635129	0.487256	0.624693
H158	H	0.968462	0.820589	0.958026
H159	H	1.301796	1.153922	1.291359
H160	H	0.506478	0.366140	0.592280
H161	H	0.839811	0.699473	0.925613
H162	H	1.173145	1.032807	1.258946
H163	H	0.508074	0.587856	0.361936
H164	H	0.841407	0.921189	0.695269
H165	H	1.174740	1.254522	1.028602
