data_functionalizedCrystal
_audit_creation_method	'MofGen! by Chris Wilmer'
_symmetry_space_group_name_H-M	'P1'
_symmetry_Int_Tables_number	1
_symmetry_cell_setting	triclinic
loop_
_symmetry_equiv_pos_as_xyz
  x,y,z
_cell_length_a	11.026607
_cell_length_b	10.654550
_cell_length_c	9.730223
_cell_angle_alpha	90.001969
_cell_angle_beta	89.996785
_cell_angle_gamma	83.464527
loop_
_atom_site_label
_atom_site_type_symbol
_atom_site_fract_x
_atom_site_fract_y
_atom_site_fract_z
O1	O	-1.614597	0.526882	0.114256
O2	O	-1.114597	1.026882	0.614256
O3	O	-1.260786	0.466886	0.114262
O4	O	-0.760786	0.966886	0.614262
O5	O	-1.445826	0.315911	0.114265
O6	O	-0.945826	0.815911	0.614265
O7	O	-1.429557	0.677858	0.114254
O8	O	-0.929557	1.177858	0.614254
O9	O	-1.445811	0.315896	-0.114315
O10	O	-0.945811	0.815896	0.385685
O11	O	-1.260771	0.466871	-0.114318
O12	O	-0.760771	0.966871	0.385682
O13	O	-1.614582	0.526867	-0.114324
O14	O	-1.114582	1.026867	0.385676
Zn15	Zn	-1.437674	0.496867	-0.150613
Zn16	Zn	-0.937674	0.996867	0.349387
Zn17	Zn	-1.437694	0.496886	0.150551
Zn18	Zn	-0.937694	0.996886	0.650551
O19	O	-1.429542	0.677843	-0.114326
O20	O	-0.929542	1.177843	0.385674
C21	C	-1.215474	0.455811	-0.000027
C22	C	-0.715474	0.955811	0.499973
C23	C	-1.080483	0.422816	-0.000024
C24	C	-0.580483	0.922816	0.499976
C25	C	-1.444624	0.268846	-0.000021
C26	C	-0.944624	0.768846	0.499979
C27	C	-1.441050	0.128627	-0.000008
C28	C	-0.941050	0.628627	0.499992
C29	C	-1.659894	0.537943	-0.000032
C30	C	-1.159894	1.037943	0.499968
C31	C	-1.794885	0.570937	-0.000025
C32	C	-1.294885	1.070937	0.499975
C33	C	-1.007444	0.513920	-0.000026
C34	C	-0.507444	1.013920	0.499974
C35	C	-0.867923	0.479820	-0.000023
C36	C	-0.367923	0.979820	0.499977
C37	C	-1.430744	0.724907	-0.000038
C38	C	-0.930744	1.224907	0.499962
C39	C	-1.434318	0.865126	-0.000042
C40	C	-0.934318	1.365126	0.499958
C41	C	-1.325369	0.920963	-0.000037
C42	C	-0.825369	1.420963	0.499963
C43	C	-1.328735	1.052714	-0.000015
C44	C	-0.828735	1.552714	0.499985
C45	C	-1.550007	1.072782	-0.000009
C46	C	-1.050007	1.572782	0.499991
C47	C	-1.546641	0.941033	-0.000021
C48	C	-1.046641	1.441033	0.499979
N49	N	-1.437670	0.496855	-0.356149
N50	N	-0.937670	0.996855	0.143851
C51	C	-1.363324	0.403857	-0.572008
C52	C	-0.863324	0.903857	-0.072008
C53	C	-1.363308	0.403836	-0.428125
C54	C	-0.863308	0.903836	0.071875
C55	C	-1.512062	0.589893	-0.428063
C56	C	-1.012062	1.089893	0.071937
C57	C	-1.512084	0.589908	-0.571944
C58	C	-1.012084	1.089908	-0.071944
N59	N	-1.437708	0.496891	0.356088
N60	N	-0.937708	0.996891	0.856088
H61	H	-1.048204	0.617161	-0.000037
H62	H	-0.548204	1.117161	0.499963
H63	H	-1.302763	0.328115	-0.630601
H64	H	-0.802763	0.828115	-0.130601
H65	H	-0.827168	0.376572	0.000015
H66	H	-0.327168	0.876572	0.500015
H67	H	-1.641457	1.134601	-0.000005
H68	H	-1.141457	1.634601	0.499995
Cl69	Cl	-0.857796	0.730347	-0.000049
Cl70	Cl	-0.357796	1.230347	0.499951
H71	H	-1.302738	0.328077	-0.369588
H72	H	-0.802738	0.828077	0.130412
Cl73	Cl	-1.184164	0.825541	-0.000056
Cl74	Cl	-0.684164	1.325541	0.499944
H75	H	-1.240017	1.098169	-0.000009
H76	H	-0.740017	1.598169	0.499991
H77	H	-1.635365	0.895572	-0.000020
H78	H	-1.135365	1.395572	0.499980
Cl79	Cl	-1.605552	0.706828	-0.337578
Cl80	Cl	-1.105552	1.206828	0.162422
Cl81	Cl	-1.605608	0.706870	-0.662344
Cl82	Cl	-1.105608	1.206870	-0.162344
H83	H	-1.039722	0.319575	0.000014
H84	H	-0.539722	0.819575	0.500014
