data_functionalizedCrystal
_audit_creation_method	'MofGen! by Chris Wilmer'
_symmetry_space_group_name_H-M	'P1'
_symmetry_Int_Tables_number	1
_symmetry_cell_setting	triclinic
loop_
_symmetry_equiv_pos_as_xyz
  x,y,z
_cell_length_a	14.971490
_cell_length_b	26.809956
_cell_length_c	14.971494
_cell_angle_alpha	89.993934
_cell_angle_beta	96.383397
_cell_angle_gamma	89.988826
loop_
_atom_site_label
_atom_site_type_symbol
_atom_site_fract_x
_atom_site_fract_y
_atom_site_fract_z
O1	O	-1.186953	0.041505	0.116565
O2	O	-0.926554	0.041499	0.130521
O3	O	-1.063729	0.041501	-0.006656
O4	O	-1.049778	0.041503	0.253743
O5	O	-1.063703	-0.041458	-0.006635
O6	O	-0.926528	-0.041460	0.130542
O7	O	-1.186927	-0.041455	0.116586
Zn8	Zn	-1.056724	-0.054629	0.123567
Zn9	Zn	-1.056758	0.054674	0.123540
O10	O	-1.049752	-0.041456	0.253763
C11	C	-0.893216	0.000019	0.129907
C12	C	-0.793919	0.000017	0.128034
N13	N	-1.056707	-0.129225	0.123586
C14	C	-0.366227	0.045248	0.119945
C15	C	-0.459528	0.045246	0.121701
C16	C	-0.506159	0.000024	0.122597
C17	C	-0.459487	-0.045200	0.121727
C18	C	-0.366189	-0.045198	0.119964
C19	C	-0.653949	-0.045201	0.125403
C20	C	-0.747253	-0.045203	0.127167
C21	C	-0.747288	0.045244	0.127140
C22	C	-0.653990	0.045246	0.125377
C23	C	-0.607324	0.000021	0.124509
C24	C	-1.117491	-0.473850	0.062813
C25	C	-1.117512	-0.682728	0.062799
O26	O	-1.169157	-0.709731	0.011133
N27	N	-1.056762	-0.708852	0.123520
C28	C	-0.995999	-0.682753	0.184245
O29	O	-0.944322	-0.709766	0.235885
C30	C	-0.995974	-0.473877	0.184253
C31	C	-1.056734	-0.447755	0.123535
C32	C	-1.178245	-0.447729	0.002098
C33	C	-1.178243	-0.395512	0.002106
C34	C	-1.117486	-0.369417	0.062827
C35	C	-1.056732	-0.395539	0.123542
C36	C	-0.935208	-0.447779	0.244973
C37	C	-0.935205	-0.395556	0.244968
C38	C	-0.995965	-0.369435	0.184249
C39	C	-0.995972	-0.317228	0.184271
N40	N	-1.056722	-0.291104	0.123550
C41	C	-1.117479	-0.317199	0.062828
C42	C	-0.996018	-0.792417	0.184237
C43	C	-0.996025	-0.844635	0.184236
C44	C	-1.117537	-0.844606	0.062789
C45	C	-1.117533	-0.792386	0.062795
C46	C	-1.056767	-0.766292	0.123516
C47	C	-1.117469	-0.207541	0.062849
C48	C	-1.117464	-0.155320	0.062864
C49	C	-0.995949	-0.155353	0.184307
C50	C	-0.995957	-0.207570	0.184296
C51	C	-1.056721	-0.233662	0.123559
O52	O	-0.944348	-0.290192	0.235903
O53	O	-1.169135	-0.290177	0.011182
C54	C	-1.117494	-0.526066	0.062806
C55	C	-1.056740	-0.552188	0.123520
C56	C	-0.995983	-0.526093	0.184242
C57	C	-1.056747	-0.604407	0.123519
C58	C	-1.117503	-0.630502	0.062797
C59	C	-1.178253	-0.604378	0.002076
C60	C	-1.178250	-0.552161	0.002084
C61	C	-0.935233	-0.552217	0.244963
C62	C	-0.935241	-0.604433	0.244951
C63	C	-0.995998	-0.630528	0.184229
C64	C	-0.220265	0.000026	0.117202
C65	C	-0.319561	0.000027	0.119078
C66	C	-1.063091	0.000022	-0.039970
C67	C	-1.061217	0.000025	-0.139267
N68	N	-1.056782	0.129270	0.123514
C69	C	-1.060353	0.045246	-0.185923
C70	C	-1.058587	0.045247	-0.279222
C71	C	-1.057691	0.000025	-0.325864
C72	C	-1.058552	-0.045200	-0.279201
C73	C	-1.060312	-0.045200	-0.185903
C74	C	-1.054886	-0.045197	-0.473665
C75	C	-1.053128	-0.045197	-0.566970
C76	C	-1.053161	0.045250	-0.566984
C77	C	-1.054921	0.045250	-0.473686
C78	C	-1.055784	0.000025	-0.427029
C79	C	-1.050390	0.000024	0.287078
C80	C	-1.052264	0.000025	0.386374
H81	H	-0.328266	0.082073	0.119222
H82	H	-1.057818	-0.082020	-0.317184
N83	N	-1.061278	0.091435	-0.138270
N84	N	-1.125264	0.101526	-0.094387
H85	H	-1.125917	0.134148	-0.060732
H86	H	-0.328194	-0.082022	0.119267
N87	N	-0.933967	-0.871307	0.246278
N88	N	-0.879727	-0.847995	0.300486
H89	H	-0.835894	-0.866830	0.344304
H90	H	-1.052391	-0.082020	-0.604942
N91	N	-0.606372	0.091444	0.124456
N92	N	-0.624983	0.121721	0.061643
H93	H	-0.591355	0.154350	0.060990
N94	N	-1.240299	-0.631045	-0.059957
N95	N	-1.211846	-0.660181	-0.115521
H96	H	-1.255658	-0.679017	-0.159335
N97	N	-0.873160	-0.631104	0.306980
N98	N	-0.790491	-0.625273	0.305606
H99	H	-0.746641	-0.644107	0.349408
H100	H	-1.055657	0.082073	-0.435713
N101	N	-0.933950	-0.765757	0.246261
N102	N	-0.878393	-0.736624	0.217801
H103	H	-0.834561	-0.717797	0.261607
H104	H	-0.785287	0.082067	0.127848
H105	H	-1.057887	0.082071	-0.317206
N106	N	-0.507095	-0.091402	0.122646
N107	N	-0.504836	-0.121689	0.059468
H108	H	-0.538453	-0.154321	0.060124
H109	H	-1.052456	0.082074	-0.604976
H110	H	-0.497520	0.082070	0.122402
N111	N	-0.794875	-0.091401	0.128064
N112	N	-0.855108	-0.101499	0.066052
H113	H	-0.888736	-0.134129	0.066685
H114	H	-1.166945	-0.134053	0.013419
H115	H	-0.885731	-0.469040	0.294415
H116	H	-1.166947	-0.228779	0.013390
H117	H	-1.227716	-0.374247	-0.047339
N118	N	-0.606294	-0.091401	0.124509
N119	N	-0.647937	-0.131775	0.125311
H120	H	-0.614281	-0.164403	0.124683
N121	N	-1.240314	-0.474371	-0.059943
N122	N	-1.294547	-0.451032	-0.114144
H123	H	-1.338391	-0.469844	-0.157962
H124	H	-1.055570	-0.082024	-0.435677
N125	N	-0.933887	-0.234257	0.246305
N126	N	-0.878339	-0.263395	0.217817
H127	H	-0.834495	-0.282241	0.261606
N128	N	-1.179558	-0.765714	0.000721
N129	N	-1.233769	-0.789026	-0.053515
H130	H	-1.277558	-0.770191	-0.097377
N131	N	-0.873123	-0.368911	0.306998
N132	N	-0.818883	-0.392244	0.361200
H133	H	-0.775037	-0.373427	0.405011
N134	N	-1.179580	-0.871275	0.000755
N135	N	-1.179557	-0.917898	0.000759
H136	H	-1.223363	-0.936735	-0.043060
H137	H	-0.946484	-0.134099	0.233749
H138	H	-0.885756	-0.530974	0.294409
N139	N	-1.061185	-0.091397	-0.138255
N140	N	-1.060381	-0.131771	-0.179907
H141	H	-1.060992	-0.164400	-0.146256
N142	N	-1.240322	-0.525491	-0.059946
N143	N	-1.294558	-0.548805	-0.114153
H144	H	-1.338399	-0.529972	-0.157967
