data_functionalizedCrystal
_audit_creation_method	'MofGen! by Chris Wilmer'
_symmetry_space_group_name_H-M	'P1'
_symmetry_Int_Tables_number	1
_symmetry_cell_setting	triclinic
loop_
_symmetry_equiv_pos_as_xyz
  x,y,z
_cell_length_a	12.645330
_cell_length_b	14.908618
_cell_length_c	14.908308
_cell_angle_alpha	90.173623
_cell_angle_beta	86.729519
_cell_angle_gamma	93.287528
loop_
_atom_site_label
_atom_site_type_symbol
_atom_site_fract_x
_atom_site_fract_y
_atom_site_fract_z
Zn1	Zn	-0.553274	-1.345314	0.587645
Zn2	Zn	-0.720953	-1.353901	0.437294
Zn3	Zn	-0.532907	-1.203629	0.428638
Zn4	Zn	-0.719688	-1.194929	0.578941
O5	O	-0.631705	-1.274443	0.508130
O6	O	-0.584570	-1.472280	0.574966
O7	O	-0.688014	-1.341202	0.310321
O8	O	-0.387266	-1.222471	0.449751
O9	O	-0.707763	-1.478588	0.464503
O10	O	-0.402229	-1.326567	0.566573
O11	O	-0.549858	-1.230798	0.303961
O12	O	-0.548631	-1.076649	0.441311
O13	O	-0.705607	-1.207643	0.705921
O14	O	-0.685858	-1.070257	0.551738
O15	O	-0.583343	-1.318131	0.712315
O16	O	-0.869128	-1.332766	0.456064
O17	O	-0.868198	-1.215969	0.560131
C18	C	-0.614898	-1.040827	0.494641
C19	C	-0.607734	-0.940884	0.488892
C20	C	-0.737369	-0.746482	0.592923
C21	C	-0.730641	-0.652576	0.587524
C22	C	-0.587549	-0.659165	0.472702
C23	C	-0.594276	-0.753071	0.478100
C24	C	-0.669189	-0.796726	0.538212
C25	C	-0.675921	-0.890634	0.543605
C26	C	-0.532824	-0.897221	0.428788
C27	C	-0.526097	-0.803315	0.423390
C28	C	-0.907130	-1.274378	0.508113
C29	C	-1.024965	-1.274431	0.508141
C30	C	-1.192023	-1.201229	0.573841
C31	C	-1.069424	-1.200888	0.573596
C32	C	-1.061664	-1.254253	0.411904
C33	C	-1.184259	-1.253806	0.412303
C34	C	-1.200451	-1.368280	0.537934
C35	C	-1.077934	-1.367576	0.539972
C36	C	-0.355209	-1.274532	0.508167
C37	C	-0.237382	-1.274570	0.508183
C38	C	-0.646606	-1.260959	0.742655
C39	C	-0.652955	-1.255212	0.842596
C40	C	-0.648571	-0.508972	0.521664
C41	C	-0.655735	-0.608915	0.527415
C42	C	-0.616790	-1.287927	0.274519
C43	C	-0.610154	-1.293848	0.174589
C44	C	-0.537549	-1.359463	1.037056
C45	C	-0.543512	-1.354066	1.130959
C46	C	-0.670837	-1.239019	1.124308
C47	C	-0.664874	-1.244416	1.030405
C48	C	-0.598229	-1.304640	0.986782
C49	C	-0.592273	-1.310041	0.892877
C50	C	-0.719592	-1.194990	0.886227
C51	C	-0.725555	-1.189594	0.980131
H52	H	-0.477309	-0.938140	0.384237
H53	H	-0.769005	-1.150352	0.845284
H54	H	-0.736921	-0.926176	0.592550
H55	H	-0.798372	-0.782027	0.641863
H56	H	-0.538009	-1.359080	0.857361
N57	N	-1.212366	-1.168076	0.381502
N58	N	-1.307820	-1.152244	0.376232
H59	H	-1.327668	-1.091695	0.354480
H60	H	-0.786158	-0.611671	0.632077
H61	H	-1.229909	-1.422853	0.490180
N62	N	-0.738891	-1.177481	1.168855
N63	N	-0.836474	-1.183980	1.158710
H64	H	-0.884530	-1.140505	1.190164
H65	H	-0.526551	-0.623605	0.423768
N66	N	-1.038681	-1.215932	0.662903
N67	N	-1.107834	-1.226755	0.725849
H68	H	-1.086128	-1.237377	0.788926
N69	N	-0.469483	-1.420989	0.992505
N70	N	-0.415315	-1.469940	1.037405
H71	H	-0.367241	-1.513395	1.005943
H72	H	-1.213959	-1.305203	0.361420
N73	N	-1.025222	-1.319450	0.348562
N74	N	-0.971666	-1.381661	0.373701
H75	H	-0.945927	-1.427709	0.328968
H76	H	-1.227079	-1.213059	0.645250
N77	N	-1.223210	-1.114480	0.548860
N78	N	-1.278697	-1.106435	0.482911
H79	H	-1.300727	-1.045169	0.465266
N80	N	-0.481514	-1.410053	1.182314
N81	N	-0.382602	-1.404713	1.171493
H82	H	-0.338810	-1.444254	1.207762
H83	H	-0.779813	-1.140559	1.015661
N84	N	-1.025112	-1.113593	0.548330
N85	N	-1.084744	-1.052733	0.530815
H86	H	-1.053451	-0.991077	0.512969
N87	N	-1.048692	-1.386784	0.628856
N88	N	-0.989066	-1.332124	0.668663
H89	H	-0.968408	-1.345685	0.731439
N90	N	-0.449579	-0.758704	0.362001
N91	N	-0.443578	-0.674860	0.357190
H92	H	-0.389537	-0.643354	0.313832
H93	H	-1.024773	-1.186659	0.387008
N94	N	-1.246705	-1.392708	0.624832
N95	N	-1.307460	-1.341341	0.665895
H96	H	-1.340131	-1.358584	0.727269
N97	N	-1.040643	-1.439199	0.484901
N98	N	-1.074583	-1.518306	0.500664
H99	H	-1.048248	-1.568890	0.461763
