data_functionalizedCrystal
_audit_creation_method	'MofGen! by Chris Wilmer'
_symmetry_space_group_name_H-M	'P1'
_symmetry_Int_Tables_number	1
_symmetry_cell_setting	triclinic
loop_
_symmetry_equiv_pos_as_xyz
  x,y,z
_cell_length_a	17.699083
_cell_length_b	12.837942
_cell_length_c	16.176319
_cell_angle_alpha	89.994101
_cell_angle_beta	89.998611
_cell_angle_gamma	89.055978
loop_
_atom_site_label
_atom_site_type_symbol
_atom_site_fract_x
_atom_site_fract_y
_atom_site_fract_z
O1	O	1.013708	0.131067	-0.068629
O2	O	0.794582	0.148119	-0.068656
O3	O	0.899286	-0.011297	-0.068638
O4	O	0.909004	0.290484	-0.068647
O5	O	0.899269	-0.011307	0.068855
O6	O	0.794565	0.148109	0.068837
O7	O	1.013691	0.131057	0.068864
Cu8	Cu	0.904126	0.139582	0.081405
Cu9	Cu	0.904146	0.139594	-0.081197
O10	O	0.908987	0.290474	0.068846
C11	C	0.766332	0.147503	0.000087
C12	C	0.682179	0.145670	0.000077
C13	C	0.640432	0.239245	0.000074
C14	C	0.561362	0.237516	0.000085
C15	C	0.524040	0.142212	0.000092
C16	C	0.565792	0.048631	0.000097
C17	C	0.644861	0.050360	0.000093
C18	C	0.246916	0.041653	0.000118
C19	C	0.167842	0.039931	0.000120
C20	C	0.163418	0.228809	0.000111
C21	C	0.242486	0.230539	0.000106
C22	C	0.284232	0.136958	0.000115
C23	C	0.369969	0.138833	0.000105
C24	C	0.438304	0.140336	0.000097
C25	C	0.895995	-0.049915	0.000108
C26	C	0.886204	-0.164967	0.000105
C27	C	1.003908	-0.406222	0.000102
C28	C	0.994712	-0.514324	0.000100
C29	C	0.858617	-0.489277	0.000092
C30	C	0.867813	-0.381174	0.000094
C31	C	0.940461	-0.339651	0.000101
C32	C	0.949656	-0.231546	0.000109
C33	C	0.813561	-0.206501	0.000095
C34	C	0.804365	-0.314604	0.000093
C35	C	1.041941	0.131673	0.000119
C36	C	1.126094	0.133506	0.000124
C37	C	0.912278	0.329091	0.000099
C38	C	0.922069	0.444144	0.000096
N39	N	0.904118	0.139573	0.195770
N40	N	0.904160	0.139595	-0.195562
C41	C	0.950499	0.069012	0.239042
C42	C	0.950502	0.069011	0.325589
C43	C	0.904129	0.139577	0.368863
C44	C	0.857743	0.210141	0.325584
C45	C	0.857736	0.210136	0.239039
C46	C	0.857771	0.210161	0.674613
C47	C	0.857783	0.210162	0.761164
C48	C	0.950537	0.069035	0.761163
C49	C	0.950530	0.069031	0.674617
C50	C	0.904141	0.139591	0.631347
C51	C	0.904137	0.139590	0.537503
C52	C	0.904137	0.139584	0.462705
H53	H	0.535398	-0.028967	0.000115
H54	H	0.678850	-0.025837	0.000094
N55	N	0.680677	0.342043	0.000067
H56	H	0.713386	0.346969	0.051033
H57	H	0.713339	0.346917	-0.050939
H58	H	0.820001	0.267615	0.639388
N59	N	0.807719	0.286246	0.372253
H60	H	0.814762	0.275545	0.433646
H61	H	0.821757	0.359757	0.357114
N62	N	0.807707	0.286235	0.192362
H63	H	0.778331	0.330940	0.232907
H64	H	0.839974	0.332006	0.156442
H65	H	0.280896	-0.034546	0.000126
H66	H	0.745217	-0.348427	0.000084
N67	N	1.063148	-0.586119	0.000109
H68	H	1.062362	-0.631536	0.051078
H69	H	1.062335	-0.631456	-0.050894
N70	N	0.516334	0.338442	0.000176
H71	H	0.551976	0.399078	0.000196
H72	H	0.483392	0.341919	-0.050761
N73	N	1.028008	-0.186759	0.000122
H74	H	1.056161	-0.211035	-0.050847
H75	H	1.024144	-0.108182	0.000158
N76	N	1.082258	-0.361426	0.000122
H77	H	1.121058	-0.420004	0.000127
H78	H	1.089046	-0.317111	-0.050846
H79	H	0.799470	-0.523105	0.000077
N80	N	0.745122	-0.134700	0.000098
H81	H	0.761969	-0.059915	0.000102
H82	H	0.713803	-0.148116	-0.050875
N83	N	1.000521	-0.007092	0.192372
H84	H	1.029902	-0.051793	0.232920
H85	H	0.968246	-0.052865	0.156472
N86	N	1.000555	-0.007058	0.372262
H87	H	1.029944	-0.051744	0.331716
H88	H	1.036860	0.032610	0.408146
N89	N	1.000550	-0.007074	0.627944
H90	H	1.029932	-0.051777	0.668490
H91	H	0.968272	-0.052845	0.592045
H92	H	0.988306	0.011578	0.796403
H93	H	0.129419	0.305007	0.000107
N94	N	0.807759	0.286269	0.807841
H95	H	0.778368	0.330965	0.767297
H96	H	0.771456	0.246635	0.843758
H97	H	0.137457	-0.037681	0.000128
N98	N	0.282741	0.333329	0.000087
H99	H	0.244296	0.392348	0.000086
H100	H	0.315455	0.338161	0.051053
