data_functionalizedCrystal
_audit_creation_method	'MofGen! by Chris Wilmer'
_symmetry_space_group_name_H-M	'P1'
_symmetry_Int_Tables_number	1
_symmetry_cell_setting	triclinic
loop_
_symmetry_equiv_pos_as_xyz
  x,y,z
_cell_length_a	14.519731
_cell_length_b	19.288865
_cell_length_c	18.366186
_cell_angle_alpha	90.011479
_cell_angle_beta	90.009136
_cell_angle_gamma	83.412550
loop_
_atom_site_label
_atom_site_type_symbol
_atom_site_fract_x
_atom_site_fract_y
_atom_site_fract_z
O1	O	-1.223283	-0.091121	-0.060560
O2	O	-0.954741	-0.101828	-0.060562
O3	O	-1.096772	0.004627	-0.060547
O4	O	-1.081253	-0.197577	-0.060575
O5	O	-1.096748	0.004633	0.060553
O6	O	-0.954717	-0.101823	0.060537
O7	O	-1.223259	-0.091116	0.060539
Zn8	Zn	-1.088984	-0.096469	0.079766
Zn9	Zn	-1.089016	-0.096476	-0.079788
O10	O	-1.081229	-0.197571	0.060524
C11	C	-0.920373	-0.101324	-0.000012
C12	C	-0.818002	-0.099820	-0.000013
C13	C	-1.096260	0.030508	0.000005
C14	C	-1.094761	0.107617	0.000012
C15	C	-1.257627	-0.091620	-0.000012
C16	C	-1.359998	-0.093124	-0.000016
C17	C	-0.734866	-0.098599	-0.000015
C18	C	-0.630567	-0.097073	-0.000015
C19	C	-0.547435	-0.095861	-0.000015
C20	C	-0.443130	-0.094335	-0.000017
N21	N	-1.088969	-0.096463	0.188657
C22	C	-1.081740	-0.223452	-0.000030
C23	C	-1.083239	-0.300561	-0.000041
C24	C	-1.178099	0.152009	0.000016
C25	C	-1.176690	0.224461	0.000004
C26	C	-1.091940	0.252518	0.000003
C27	C	-1.008592	0.208117	-0.000005
C28	C	-1.010003	0.135666	-0.000001
C29	C	-1.025308	0.361051	0.042421
C30	C	-1.023901	0.433501	0.042422
C31	C	-1.087586	0.475980	-0.000013
C32	C	-1.152693	0.446002	-0.042438
C33	C	-1.154104	0.373551	-0.042434
C34	C	-1.090401	0.331078	-0.000002
C35	C	-1.169402	0.598933	-0.000022
C36	C	-1.167990	0.671386	-0.000038
C37	C	-0.999889	0.655041	-0.000041
C38	C	-1.001303	0.582589	-0.000032
C39	C	-1.086062	0.554540	-0.000019
N40	N	-1.089038	-0.096475	-0.188679
C41	C	-1.151881	-0.049348	0.226764
C42	C	-1.151887	-0.049345	0.302992
C43	C	-1.088990	-0.096469	0.341109
C44	C	-1.026066	-0.143588	0.302993
C45	C	-1.026056	-0.143585	0.226767
C46	C	-1.076645	-0.159712	0.461861
C47	C	-1.076661	-0.159716	0.538086
C48	C	-1.089016	-0.096478	0.576217
C49	C	-1.101374	-0.033234	0.538114
C50	C	-1.101364	-0.033231	0.461888
C51	C	-1.088994	-0.096477	0.423764
C52	C	-1.151938	-0.049356	0.696979
C53	C	-1.151937	-0.049351	0.773208
C54	C	-1.026121	-0.143600	0.773208
C55	C	-1.026117	-0.143598	0.696980
C56	C	-1.089030	-0.096477	0.658870
H57	H	-1.247116	0.129176	0.000024
H58	H	-0.974853	-0.181956	0.334032
H59	H	-1.066568	-0.211211	0.430820
H60	H	-1.066605	-0.211213	0.569103
H61	H	-1.203164	-0.010981	0.804236
H62	H	-0.942137	0.099522	-0.000004
N63	N	-0.911413	0.534710	-0.000024
H64	H	-0.908244	0.504297	0.044870
H65	H	-0.908310	0.504320	-0.044943
N66	N	-0.958276	-0.194423	0.814312
H67	H	-0.918418	-0.224271	0.778601
H68	H	-0.917628	-0.167753	0.845949
H69	H	-0.974892	-0.181967	0.665951
H70	H	-0.974825	-0.181953	0.195739
H71	H	-1.244556	0.260612	0.000005
N72	N	-1.257879	0.719270	-0.000037
H73	H	-1.311783	0.690504	-0.000026
H74	H	-1.260938	0.749697	0.044854
H75	H	-1.238417	0.576094	-0.000015
N76	N	-0.917178	0.238369	-0.000005
H77	H	-0.912855	0.268057	-0.044897
H78	H	-0.912889	0.268037	0.044916
H79	H	-1.203106	-0.010977	0.195737
H80	H	-1.203163	-0.010984	0.665949
H81	H	-1.111423	0.018265	0.430867
N82	N	-1.224318	0.341216	-0.088190
H83	H	-1.264452	0.379115	-0.115074
H84	H	-1.190973	0.307848	-0.124426
H85	H	-1.111434	0.018261	0.569159
N86	N	-1.221392	0.491807	-0.088209
H87	H	-1.210619	0.542253	-0.081779
H88	H	-1.213028	0.478289	-0.141127
H89	H	-1.203119	-0.010977	0.334024
H90	H	-0.930884	0.677884	-0.000045
H91	H	-0.970883	0.457903	0.076963
H92	H	-0.973446	0.326470	0.076981
