data_functionalizedCrystal
_audit_creation_method	'MofGen! by Chris Wilmer'
_symmetry_space_group_name_H-M	'P1'
_symmetry_Int_Tables_number	1
_symmetry_cell_setting	triclinic
loop_
_symmetry_equiv_pos_as_xyz
  x,y,z
_cell_length_a	16.625547
_cell_length_b	13.034570
_cell_length_c	13.034296
_cell_angle_alpha	89.081773
_cell_angle_beta	82.792246
_cell_angle_gamma	82.840857
loop_
_atom_site_label
_atom_site_type_symbol
_atom_site_fract_x
_atom_site_fract_y
_atom_site_fract_z
Zn1	Zn	1.327716	-0.335422	-0.633700
Zn2	Zn	1.827716	0.164578	-0.133700
Zn3	Zn	1.331902	-0.529226	-0.483599
Zn4	Zn	1.831902	-0.029226	0.016401
Zn5	Zn	1.178159	-0.357312	-0.461732
Zn6	Zn	1.678159	0.142688	0.038268
Zn7	Zn	1.211841	-0.507317	-0.655501
Zn8	Zn	1.711841	-0.007317	-0.155501
O9	O	1.262404	-0.432319	-0.558633
O10	O	1.762404	0.067681	-0.058633
O11	O	1.441107	-0.361138	-0.613817
O12	O	1.941107	0.138862	-0.113817
O13	O	1.299163	-0.524751	-0.336788
O14	O	1.799163	-0.024751	0.163212
O15	O	1.182151	-0.210523	-0.466268
O16	O	1.682151	0.289477	0.033732
O17	O	1.444182	-0.503525	-0.503538
O18	O	1.944182	-0.003525	-0.003538
O19	O	1.292029	-0.194440	-0.592613
O20	O	1.792029	0.305560	-0.092613
O21	O	1.186209	-0.398447	-0.320722
O22	O	1.686209	0.101553	0.179278
O23	O	1.069791	-0.377203	-0.487408
O24	O	1.569791	0.122797	0.012592
O25	O	1.239556	-0.466185	-0.796520
O26	O	1.739556	0.033815	-0.296520
O27	O	1.094537	-0.487411	-0.629769
O28	O	1.594537	0.012589	-0.129769
O29	O	1.324689	-0.339894	-0.780503
O30	O	1.824689	0.160106	-0.280503
O31	O	1.331823	-0.670205	-0.524678
O32	O	1.831823	-0.170205	-0.024678
O33	O	1.243615	-0.654109	-0.650973
O34	O	1.743615	-0.154109	-0.150973
C35	C	1.291852	-0.699462	-0.592587
C36	C	1.791852	-0.199462	-0.092587
C37	C	1.304526	-0.813742	-0.607147
C38	C	1.804526	-0.313742	-0.107147
C39	C	1.052907	-0.432305	-0.558582
C40	C	1.552907	0.067695	-0.058582
C41	C	0.963288	-0.432321	-0.558588
C42	C	1.463288	0.067679	-0.058588
C43	C	1.268949	-0.990850	-0.566118
C44	C	1.768949	-0.490850	-0.066118
C45	C	1.255849	-0.872735	-0.551075
C46	C	1.755849	-0.372735	-0.051075
C47	C	0.890507	-0.432321	-0.558601
C48	C	1.390507	0.067679	-0.058601
C49	C	0.799201	-0.432324	-0.558627
C50	C	1.299201	0.067676	-0.058627
C51	C	0.726428	-0.432330	-0.558654
C52	C	1.226428	0.067670	-0.058654
C53	C	0.635117	-0.432334	-0.558680
C54	C	1.135117	0.067666	-0.058680
C55	C	1.472720	-0.432334	-0.558685
C56	C	1.972720	0.067666	-0.058685
C57	C	1.562344	-0.432340	-0.558707
C58	C	2.062344	0.067660	-0.058707
C59	C	1.285413	-0.398154	-0.826869
C60	C	1.785413	0.101846	-0.326869
C61	C	1.295218	-0.383595	-0.941176
C62	C	1.795218	0.116405	-0.441176
C63	C	1.232866	-0.164131	-0.524570
C64	C	1.732866	0.335869	-0.024570
C65	C	1.220279	-0.049845	-0.510054
C66	C	1.720279	0.450155	-0.010054
C67	C	1.257467	-0.439590	-1.000062
C68	C	1.757467	0.060410	-0.500062
C69	C	1.267599	-0.424544	-1.118204
C70	C	1.767599	0.075456	-0.618204
C71	C	1.239524	-0.466277	-0.291431
C72	C	1.739524	0.033723	0.208569
C73	C	1.229843	-0.480547	-0.177088
C74	C	1.729843	0.019453	0.322912
H75	H	1.320318	-1.027788	-0.625249
H76	H	1.820318	-0.527788	-0.125249
O77	O	1.372571	-0.862645	-0.685492
O78	O	1.872571	-0.362645	-0.185492
H79	H	1.372179	-0.947742	-0.685023
H80	H	1.872179	-0.447742	-0.185023
H81	H	1.190022	-0.539633	-1.140046
H82	H	1.690022	-0.039633	-0.640046
H83	H	1.307427	-0.365464	-1.155249
H84	H	1.807427	0.134536	-0.655249
H85	H	1.335042	-0.324520	-0.978225
H86	H	1.835042	0.175480	-0.478225
H87	H	1.204482	-0.835804	-0.491931
H88	H	1.704482	-0.335804	0.008069
O89	O	1.152233	-1.000934	-0.431719
O90	O	1.652233	-0.500934	0.068281
H91	H	1.152619	-0.915836	-0.432201
H92	H	1.652619	-0.415836	0.067799
O93	O	1.204712	-0.517847	-0.951002
O94	O	1.704712	-0.017847	-0.451002
H95	H	1.205026	-0.517377	-0.865907
H96	H	1.705026	-0.017377	-0.365907
