data_functionalizedCrystal
_audit_creation_method	'MofGen! by Chris Wilmer'
_symmetry_space_group_name_H-M	'P1'
_symmetry_Int_Tables_number	1
_symmetry_cell_setting	triclinic
loop_
_symmetry_equiv_pos_as_xyz
  x,y,z
_cell_length_a	11.792254
_cell_length_b	23.532357
_cell_length_c	10.868271
_cell_angle_alpha	90.006944
_cell_angle_beta	90.004308
_cell_angle_gamma	83.513444
loop_
_atom_site_label
_atom_site_type_symbol
_atom_site_fract_x
_atom_site_fract_y
_atom_site_fract_z
O1	O	1.505035	0.078088	0.102337
O2	O	1.838368	0.411421	0.435671
O3	O	2.171701	0.744755	0.769004
O4	O	1.174503	0.086125	0.102342
O5	O	1.507837	0.419458	0.435675
O6	O	1.841170	0.752792	0.769009
O7	O	1.349766	-0.000768	0.102314
O8	O	1.683099	0.332565	0.435648
O9	O	2.016432	0.665899	0.768981
O10	O	1.329772	0.164981	0.102365
O11	O	1.663106	0.498314	0.435698
O12	O	1.996439	0.831647	0.769032
O13	O	1.349750	-0.000765	-0.102330
O14	O	1.683083	0.332568	0.231003
O15	O	2.016417	0.665902	0.564336
O16	O	1.174488	0.086128	-0.102303
O17	O	1.507821	0.419461	0.231031
O18	O	1.841154	0.752794	0.564364
O19	O	1.505019	0.078091	-0.102307
O20	O	1.838352	0.411424	0.231026
O21	O	2.171685	0.744757	0.564359
Zn22	Zn	1.339751	0.082110	-0.134797
Zn23	Zn	1.673084	0.415443	0.198537
Zn24	Zn	2.006417	0.748776	0.531870
Zn25	Zn	1.339771	0.082106	0.134831
Zn26	Zn	1.673105	0.415439	0.468165
Zn27	Zn	2.006438	0.748773	0.801498
O28	O	1.329756	0.164983	-0.102280
O29	O	1.663090	0.498317	0.231054
O30	O	1.996423	0.831650	0.564387
C31	C	1.132217	0.085620	0.000020
C32	C	1.465550	0.418953	0.333353
C33	C	1.798884	0.752287	0.666686
C34	C	1.006240	0.084105	0.000020
C35	C	1.339573	0.417438	0.333354
C36	C	1.672907	0.750771	0.666687
C37	C	0.903933	0.082873	0.000025
C38	C	1.237266	0.416207	0.333358
C39	C	1.570600	0.749540	0.666692
C40	C	0.775583	0.081334	0.000025
C41	C	1.108916	0.414667	0.333359
C42	C	1.442250	0.748000	0.666692
C43	C	1.349258	-0.021986	-0.000012
C44	C	1.682591	0.311347	0.333321
C45	C	2.015924	0.644681	0.666655
C46	C	1.347754	-0.085214	-0.000023
C47	C	1.681087	0.248120	0.333310
C48	C	2.014421	0.581453	0.666643
C49	C	1.338324	-0.477283	0.111595
C50	C	1.671657	-0.143949	0.444928
C51	C	2.004990	0.189384	0.778262
C52	C	1.336894	-0.536690	0.111602
C53	C	1.670228	-0.203357	0.444935
C54	C	2.003561	0.129976	0.778269
O55	O	1.336124	-0.567413	0.206472
O56	O	1.669457	-0.234079	0.539806
O57	O	2.002791	0.099254	0.873139
N58	N	1.336177	-0.566404	0.000052
N59	N	1.669510	-0.233071	0.333385
N60	N	2.002844	0.100262	0.666718
C61	C	1.336877	-0.536707	-0.111513
C62	C	1.670211	-0.203373	0.221820
C63	C	2.003544	0.129960	0.555154
O64	O	1.336135	-0.567435	-0.206394
O65	O	1.669468	-0.234102	0.126939
O66	O	2.002801	0.099231	0.460272
C67	C	1.338298	-0.477299	-0.111519
C68	C	1.671632	-0.143966	0.221815
C69	C	2.004965	0.189368	0.555148
C70	C	1.339027	-0.447589	0.000039
C71	C	1.672361	-0.114256	0.333372
C72	C	2.005694	0.219078	0.666706
C73	C	1.339051	-0.447572	0.223143
C74	C	1.672384	-0.114239	0.556477
C75	C	2.005718	0.219094	0.889810
C76	C	1.340482	-0.388169	0.223136
C77	C	1.673816	-0.054835	0.556469
C78	C	2.007149	0.278498	0.889803
C79	C	1.341186	-0.358475	0.111580
C80	C	1.674520	-0.025142	0.444913
C81	C	2.007853	0.308192	0.778247
C82	C	1.340459	-0.388185	0.000031
C83	C	1.673792	-0.054852	0.333365
C84	C	2.007125	0.278481	0.666698
C85	C	1.338991	-0.447602	-0.223082
C86	C	1.672324	-0.114269	0.110251
C87	C	2.005657	0.219065	0.443585
C88	C	1.340411	-0.388190	-0.223078
C89	C	1.673744	-0.054857	0.110255
C90	C	2.007078	0.278476	0.443589
C91	C	1.341140	-0.358480	-0.111521
C92	C	1.674473	-0.025147	0.221813
C93	C	2.007806	0.308186	0.555146
C94	C	1.342594	-0.299088	-0.111532
C95	C	1.675927	0.034245	0.221801
C96	C	2.009260	0.367579	0.555135
N97	N	1.343311	-0.269374	0.000018
N98	N	1.676644	0.063959	0.333352
N99	N	2.009978	0.397292	0.666685
C100	C	1.342607	-0.299068	0.111574
C101	C	1.675941	0.034266	0.444907
C102	C	2.009274	0.367599	0.778241
C103	C	1.333891	-0.661466	-0.111492
C104	C	1.667224	-0.328133	0.221841
C105	C	2.000557	0.005201	0.555174
C106	C	1.332478	-0.720873	-0.111488
C107	C	1.665811	-0.387539	0.221845
C108	C	1.999145	-0.054206	0.555179
C109	C	1.332493	-0.720852	0.111627
C110	C	1.665826	-0.387519	0.444961
C111	C	1.999159	-0.054186	0.778294
C112	C	1.333914	-0.661445	0.111622
C113	C	1.667247	-0.328112	0.444955
C114	C	2.000581	0.005222	0.778288
C115	C	1.334608	-0.631752	0.000058
C116	C	1.667942	-0.298419	0.333391
C117	C	2.001275	0.034915	0.666725
C118	C	1.345614	-0.174316	0.111550
C119	C	1.678948	0.159018	0.444883
C120	C	2.012281	0.492351	0.778217
C121	C	1.347050	-0.114907	0.111533
C122	C	1.680384	0.218426	0.444866
C123	C	2.013717	0.551760	0.778199
C124	C	1.347029	-0.114932	-0.111582
C125	C	1.680363	0.218401	0.221751
C126	C	2.013696	0.551735	0.555085
C127	C	1.345599	-0.174336	-0.111565
C128	C	1.678933	0.158997	0.221768
C129	C	2.012266	0.492331	0.555101
C130	C	1.344888	-0.204026	0.000011
C131	C	1.678221	0.129307	0.333344
C132	C	2.011555	0.462641	0.666677
O133	O	1.343360	-0.268328	-0.206354
O134	O	1.676694	0.065005	0.126979
O135	O	2.010027	0.398339	0.460313
O136	O	1.343335	-0.268331	0.206440
O137	O	1.676668	0.065003	0.539773
O138	O	2.010002	0.398336	0.873106
C139	C	1.547305	0.078596	0.000018
C140	C	1.880639	0.411929	0.333351
C141	C	2.213972	0.745262	0.666684
C142	C	1.673282	0.080111	0.000025
C143	C	2.006615	0.413444	0.333359
C144	C	2.339949	0.746778	0.666692
C145	C	1.330264	0.186202	0.000049
C146	C	1.663598	0.519535	0.333383
C147	C	1.996931	0.852868	0.666716
C148	C	1.331768	0.249429	0.000069
C149	C	1.665101	0.582762	0.333402
C150	C	1.998435	0.916096	0.666736
N151	N	1.339745	0.082112	-0.318811
N152	N	1.673078	0.415445	0.014523
N153	N	2.006411	0.748778	0.347856
C154	C	1.339754	0.082112	-0.430148
C155	C	1.673087	0.415445	-0.096815
C156	C	2.006420	0.748779	0.236518
C157	C	1.339768	0.082107	-0.569826
C158	C	1.673102	0.415440	-0.236493
C159	C	2.006435	0.748773	0.096841
N160	N	1.339786	0.082099	0.318845
N161	N	1.673120	0.415433	0.652179
N162	N	2.006453	0.748766	0.985512
H163	H	1.347647	-0.090720	0.202380
H164	H	1.680980	0.242613	0.535713
H165	H	2.014313	0.575947	0.869047
H166	H	1.340959	-0.364016	-0.313929
H167	H	1.674293	-0.030683	0.019404
H168	H	2.007626	0.302650	0.352738
O169	O	1.334672	-0.629445	-0.231833
O170	O	1.668005	-0.296112	0.101501
O171	O	2.001339	0.037221	0.434834
H172	H	1.257041	-0.636019	-0.285335
H173	H	1.590374	-0.302686	0.047999
H174	H	1.923708	0.030647	0.381332
O175	O	1.338193	-0.479633	-0.343412
O176	O	1.671527	-0.146299	-0.010078
O177	O	2.004860	0.187034	0.323255
H178	H	1.414910	-0.511536	-0.348779
H179	H	1.748243	-0.178202	-0.015445
H180	H	2.081576	0.155131	0.317888
H181	H	1.345016	-0.198528	-0.202405
H182	H	1.678350	0.134805	0.130929
H183	H	2.011683	0.468139	0.464262
H184	H	1.347608	-0.090745	-0.202408
H185	H	1.680941	0.242588	0.130925
H186	H	2.014274	0.575921	0.464259
H187	H	1.338474	-0.471742	0.313991
H188	H	1.671807	-0.138409	0.647324
H189	H	2.005141	0.194924	0.980657
O190	O	1.341238	-0.356130	0.343464
O191	O	1.674572	-0.022796	0.676798
O192	O	2.007905	0.310537	1.010131
H193	H	1.418321	-0.372372	0.396970
H194	H	1.751654	-0.039039	0.730304
H195	H	2.084988	0.294295	1.063637
H196	H	1.331902	-0.745059	-0.202329
H197	H	1.665235	-0.411725	0.131004
H198	H	1.998568	-0.078392	0.464337
O199	O	1.344837	-0.206334	0.231888
O200	O	1.678170	0.126999	0.565222
O201	O	2.011504	0.460332	0.898555
H202	H	1.345587	-0.175687	0.309444
H203	H	1.678921	0.157646	0.642777
H204	H	2.012254	0.490980	0.976110
H205	H	1.334506	-0.637259	0.202462
H206	H	1.667839	-0.303926	0.535795
H207	H	2.001172	0.029408	0.869128
H208	H	1.331916	-0.745039	0.202463
H209	H	1.665249	-0.411706	0.535796
H210	H	1.998583	-0.078373	0.869129
