data_functionalizedCrystal
_audit_creation_method	'MofGen! by Chris Wilmer'
_symmetry_space_group_name_H-M	'P1'
_symmetry_Int_Tables_number	1
_symmetry_cell_setting	triclinic
loop_
_symmetry_equiv_pos_as_xyz
  x,y,z
_cell_length_a	16.109302
_cell_length_b	12.837942
_cell_length_c	14.586319
_cell_angle_alpha	89.996741
_cell_angle_beta	89.994552
_cell_angle_gamma	89.145360
loop_
_atom_site_label
_atom_site_type_symbol
_atom_site_fract_x
_atom_site_fract_y
_atom_site_fract_z
O1	O	1.113716	0.133244	-0.076281
O2	O	0.872971	0.149825	-0.076274
O3	O	0.988005	-0.009367	-0.076272
O4	O	0.998681	0.292435	-0.076284
O5	O	0.987996	-0.009369	0.076209
O6	O	0.872962	0.149822	0.076207
O7	O	1.113707	0.133242	0.076199
Cu8	Cu	0.993333	0.141532	0.090126
Cu9	Cu	0.993344	0.141535	-0.090201
O10	O	0.998672	0.292433	0.076197
C11	C	0.841938	0.149152	-0.000033
C12	C	0.749483	0.147138	-0.000030
C13	C	0.536767	0.142479	0.083078
C14	C	0.449896	0.140576	0.083075
C15	C	0.449917	0.140584	-0.083168
C16	C	0.536786	0.142480	-0.083164
C17	C	0.580209	0.143433	-0.000038
C18	C	0.406468	0.139633	-0.000045
C19	C	0.312278	0.137569	-0.000049
C20	C	0.674405	0.145495	-0.000034
C21	C	0.984394	-0.047987	-0.000032
C22	C	0.973637	-0.163061	-0.000033
C23	C	1.102954	-0.404062	-0.000056
C24	C	1.092851	-0.512185	-0.000057
C25	C	0.943328	-0.487430	-0.000044
C26	C	0.953431	-0.379308	-0.000042
C27	C	1.033247	-0.337628	-0.000047
C28	C	1.043349	-0.229504	-0.000039
C29	C	0.893827	-0.204751	-0.000032
C30	C	0.883724	-0.312873	-0.000033
C31	C	1.144739	0.133914	-0.000044
C32	C	1.237195	0.135929	-0.000053
C33	C	1.002284	0.331054	-0.000045
C34	C	1.013040	0.446127	-0.000050
N35	N	0.993332	0.141529	0.216957
N36	N	0.993352	0.141529	-0.217032
C37	C	1.044290	0.071063	0.451965
C38	C	1.044292	0.071060	0.547946
C39	C	0.942388	0.211999	0.547954
C40	C	0.942382	0.211995	0.451974
C41	C	0.993338	0.141529	0.403982
C42	C	0.993346	0.141529	0.595943
C43	C	0.993348	0.141527	0.700010
C44	C	0.993335	0.141529	0.299908
H45	H	0.572158	0.143253	-0.150851
H46	H	0.818741	-0.346824	-0.000033
O47	O	1.093743	0.002470	0.594455
C48	C	1.128156	-0.177759	0.623864
C49	C	1.072109	-0.100190	0.571121
H50	H	1.110674	-0.260776	0.605033
H51	H	1.195826	-0.164310	0.604964
H52	H	1.119424	-0.165606	0.700703
H53	H	1.080769	-0.112297	0.494270
H54	H	1.004461	-0.113658	0.590098
O55	O	0.407604	0.139710	-0.163830
C56	C	0.273787	0.136737	-0.237514
C57	C	0.321599	0.137744	-0.146098
H58	H	0.204245	0.135125	-0.223210
H59	H	0.288946	0.209628	-0.278515
H60	H	0.292787	0.064629	-0.278503
H61	H	0.302627	0.209803	-0.105035
H62	H	0.306438	0.064805	-0.105166
O63	O	1.093838	0.002729	0.405283
C64	C	1.205532	-0.019387	0.296795
C65	C	1.149512	0.058133	0.349630
H66	H	1.250546	0.025376	0.251773
H67	H	1.242009	-0.069770	0.347516
H68	H	1.165467	-0.071169	0.251933
H69	H	1.189516	0.109982	0.394494
H70	H	1.113030	0.108443	0.298861
O71	O	0.892774	0.280346	0.594536
C72	C	0.753028	0.341073	0.623887
C73	C	0.809118	0.263594	0.571094
H74	H	0.685382	0.327571	0.604939
H75	H	0.761714	0.328973	0.700740
H76	H	0.770477	0.424095	0.605019
H77	H	0.791704	0.180542	0.589886
H78	H	0.800424	0.275786	0.494255
H79	H	0.900887	0.269378	0.412904
H80	H	0.837067	-0.150648	-0.000017
O81	O	1.120937	-0.189185	-0.000090
C82	C	1.268175	-0.225155	-0.000064
C83	C	1.180354	-0.270950	-0.000023
H84	H	1.316238	-0.291240	0.000010
H85	H	1.276694	-0.175187	-0.063893
H86	H	1.276606	-0.175123	0.063733
H87	H	1.171862	-0.321028	-0.063777
H88	H	1.171876	-0.320859	0.063848
O89	O	1.160627	-0.576614	-0.000186
C90	C	1.285306	-0.630889	-0.079223
C91	C	1.208592	-0.557847	-0.079179
H92	H	1.324098	-0.615756	-0.143092
H93	H	1.324218	-0.615727	-0.015457
H94	H	1.264359	-0.715319	-0.079179
H95	H	1.229466	-0.473391	-0.079256
H96	H	1.169698	-0.573098	-0.142939
H97	H	0.878346	-0.521385	-0.000049
H98	H	0.572119	0.143255	0.150765
H99	H	0.414529	0.139800	0.150757
H100	H	1.167943	-0.370127	-0.000051
