data_functionalizedCrystal
_audit_creation_method	'MofGen! by Chris Wilmer'
_symmetry_space_group_name_H-M	'P1'
_symmetry_Int_Tables_number	1
_symmetry_cell_setting	triclinic
loop_
_symmetry_equiv_pos_as_xyz
  x,y,z
_cell_length_a	18.101398
_cell_length_b	21.395361
_cell_length_c	21.395355
_cell_angle_alpha	90.021511
_cell_angle_beta	90.029870
_cell_angle_gamma	90.025974
loop_
_atom_site_label
_atom_site_type_symbol
_atom_site_fract_x
_atom_site_fract_y
_atom_site_fract_z
Zn1	Zn	1.132164	-0.249590	0.354337
Zn2	Zn	1.132048	-0.354350	0.249554
Zn3	Zn	1.008310	-0.249582	0.249564
Zn4	Zn	1.008274	-0.354325	0.354285
O5	O	1.070199	-0.301962	0.301935
O6	O	1.235781	-0.263501	0.340455
O7	O	1.115601	-0.340459	0.161878
O8	O	1.024803	-0.161905	0.263489
O9	O	1.235696	-0.340467	0.263472
O10	O	1.115798	-0.161911	0.340465
O11	O	1.024692	-0.263486	0.161885
O12	O	0.904673	-0.263462	0.263438
O13	O	1.024741	-0.340425	0.441970
O14	O	0.904646	-0.340417	0.340376
O15	O	1.115762	-0.263477	0.442008
O16	O	1.115566	-0.442025	0.263421
O17	O	1.024629	-0.442006	0.340366
C18	C	1.070101	-0.464749	0.301900
C19	C	1.070127	-0.534391	0.301906
C20	C	0.877789	-0.301936	0.301902
C21	C	0.795474	-0.301941	0.301903
C22	C	1.117520	-0.567092	0.261882
C23	C	1.117554	-0.632528	0.261896
C24	C	1.070183	-0.665259	0.301928
C25	C	1.022787	-0.632549	0.341960
C26	C	1.022759	-0.567115	0.341949
C27	C	1.003502	-0.768969	0.306832
C28	C	1.003529	-0.834402	0.306839
C29	C	1.070269	-0.867080	0.301965
C30	C	1.136985	-0.834316	0.297071
C31	C	1.136957	-0.768882	0.297060
C32	C	1.070208	-0.736211	0.301944
C33	C	1.117703	-0.970734	0.261953
C34	C	1.117739	-1.036171	0.261972
C35	C	1.022965	-1.036191	0.342032
C36	C	1.022936	-0.970755	0.342017
C37	C	1.070304	-0.938031	0.301974
C38	C	0.496383	-0.301980	0.301956
C39	C	0.527701	-0.253320	0.253785
C40	C	0.613319	-0.253450	0.253579
C41	C	0.644766	-0.301960	0.301930
C42	C	0.613646	-0.367957	0.283884
C43	C	0.528001	-0.367687	0.283549
C44	C	0.528006	-0.285215	0.368286
C45	C	0.613656	-0.283746	0.367925
C46	C	0.728626	-0.301953	0.301916
C47	C	0.412524	-0.301991	0.301968
C48	C	1.263361	-0.301988	0.301968
C49	C	1.345675	-0.301999	0.301982
C50	C	1.070261	-0.301949	0.465358
C51	C	1.070287	-0.301944	0.535000
C52	C	1.070317	-0.138538	0.301984
C53	C	1.070368	-0.068897	0.302005
C54	C	1.070180	-0.301929	0.139148
C55	C	1.070298	-0.301758	0.069507
C56	C	1.117679	-0.261875	0.567734
C57	C	1.117678	-0.261848	0.633169
C58	C	1.070293	-0.301901	0.665868
C59	C	1.022891	-0.341973	0.633126
C60	C	1.022888	-0.341994	0.567692
C61	C	1.064411	-0.358316	0.769530
C62	C	1.064419	-0.358296	0.834963
C63	C	1.070297	-0.301835	0.867689
C64	C	1.076183	-0.245393	0.834974
C65	C	1.076180	-0.245414	0.769540
C66	C	1.070290	-0.301882	0.736821
C67	C	1.117691	-0.261734	0.971376
C68	C	1.117685	-0.261706	1.036812
C69	C	1.022901	-0.341836	1.036768
C70	C	1.022904	-0.341858	0.971332
C71	C	1.070302	-0.301808	0.938640
H72	H	1.156091	-0.540450	0.229278
C73	C	0.642562	-0.387498	0.219079
N74	N	0.664338	-0.402212	0.170265
H75	H	0.634360	-0.204510	0.264892
H76	H	1.080970	-0.199457	0.742905
C77	C	0.970857	-1.072191	0.386069
N78	N	0.931609	-1.099310	0.419240
H79	H	1.156282	-0.229119	0.944756
C80	C	0.930076	-0.733031	0.312180
N81	N	0.874773	-0.705963	0.316202
H82	H	1.156150	-0.659159	0.229304
H83	H	0.507753	-0.320657	0.404178
H84	H	1.191279	-0.742207	0.293077
C85	C	1.210406	-0.870256	0.291714
N86	N	1.265705	-0.897329	0.287680
C87	C	0.930141	-0.870436	0.312220
N88	N	0.874862	-0.897575	0.316275
H89	H	1.059426	-0.404281	0.742891
H90	H	0.506435	-0.237928	0.384693
C91	C	0.970752	-0.386076	0.531683
N92	N	0.931483	-0.419280	0.504560
C93	C	0.642573	-0.328141	0.419011
N94	N	0.664351	-0.361587	0.457488
H95	H	0.634002	-0.235179	0.381532
C96	C	1.169810	-0.217810	0.531777
N97	N	1.209072	-0.184617	0.504692
C98	C	0.498570	-0.268112	0.187773
N99	N	0.476626	-0.279254	0.138053
H100	H	1.156270	-0.229216	0.659827
H101	H	0.984311	-0.374441	1.063390
H102	H	1.156275	-0.944089	0.229350
H103	H	1.080970	-0.199417	0.861618
C104	C	1.169877	-1.072142	0.217939
N105	N	1.209146	-1.099237	0.184771
H106	H	0.984341	-0.944128	0.374606
C107	C	1.169822	-0.217623	1.072820
N108	N	1.209094	-0.184420	1.099941
C109	C	0.970770	-0.385940	0.935323
N110	N	0.931499	-0.419143	0.908202
C111	C	0.970676	-0.668555	0.385993
N112	N	0.931425	-0.695674	0.419160
H113	H	1.059631	-0.404254	0.861595
H114	H	0.984306	-0.374582	0.659754
C115	C	0.970631	-0.531142	0.385989
N116	N	0.931370	-0.504046	0.419163
H117	H	0.507131	-0.204230	0.264973
C118	C	0.500957	-0.386888	0.218037
N119	N	0.480591	-0.401348	0.168691
H120	H	0.633767	-0.264532	0.204429
H121	H	0.507283	-0.405169	0.317104
H122	H	0.634015	-0.405183	0.317871
