data_functionalizedCrystal
_audit_creation_method	'MofGen! by Chris Wilmer'
_symmetry_space_group_name_H-M	'P1'
_symmetry_Int_Tables_number	1
_symmetry_cell_setting	triclinic
loop_
_symmetry_equiv_pos_as_xyz
  x,y,z
_cell_length_a	12.759401
_cell_length_b	11.169416
_cell_length_c	11.169409
_cell_angle_alpha	89.969126
_cell_angle_beta	89.979897
_cell_angle_gamma	90.010767
loop_
_atom_site_label
_atom_site_type_symbol
_atom_site_fract_x
_atom_site_fract_y
_atom_site_fract_z
Zn1	Zn	1.606303	-0.477696	-0.678564
Zn2	Zn	1.606206	-0.678437	-0.477886
Zn3	Zn	1.430600	-0.477768	-0.477897
Zn4	Zn	1.430607	-0.678338	-0.678530
O5	O	1.518429	-0.578060	-0.578219
O6	O	1.753311	-0.504337	-0.651953
O7	O	1.582868	-0.651889	-0.309938
O8	O	1.453945	-0.309809	-0.504535
O9	O	1.753240	-0.651820	-0.504516
O10	O	1.583033	-0.309756	-0.651964
O11	O	1.453851	-0.504459	-0.309946
O12	O	1.283580	-0.504362	-0.504502
O13	O	1.453956	-0.651651	-0.846484
O14	O	1.283585	-0.651720	-0.651906
O15	O	1.583039	-0.504240	-0.846509
O16	O	1.582874	-0.846373	-0.504483
O17	O	1.453862	-0.846300	-0.651895
C18	C	1.245461	-0.578039	-0.578202
C19	C	1.128685	-0.578059	-0.578223
C20	C	1.518387	-0.889884	-0.578210
C21	C	1.518465	-1.023284	-0.578246
C22	C	1.073860	-0.501403	-0.655112
C23	C	0.964136	-0.501416	-0.655120
C24	C	0.964071	-0.654750	-0.501347
C25	C	1.073793	-0.654730	-0.501334
C26	C	0.814208	-0.359947	-0.698258
C27	C	0.759380	-0.283302	-0.775166
C28	C	0.795038	-0.265003	-0.892300
C29	C	0.885522	-0.323367	-0.932550
C30	C	0.940345	-0.400021	-0.855649
C31	C	0.904688	-0.418297	-0.738498
C32	C	1.223723	-0.796200	-0.458209
C33	C	1.278548	-0.872861	-0.381313
C34	C	1.242892	-0.891173	-0.264176
C35	C	1.152404	-0.832830	-0.223931
C36	C	1.097580	-0.756169	-0.300827
C37	C	1.133243	-0.737856	-0.417962
C38	C	1.792462	-0.578081	-0.578237
C39	C	1.909239	-0.578090	-0.578244
C40	C	1.518509	-0.577926	-0.891262
C41	C	1.518544	-0.577870	-1.024662
C42	C	1.518499	-0.265017	-0.578255
C43	C	1.518529	-0.131617	-0.578270
C44	C	1.518409	-0.578106	-0.266394
C45	C	1.518578	-0.577824	-0.132995
H46	H	1.014019	-0.447534	-0.888417
H47	H	0.785174	-0.374826	-0.602874
O48	O	1.117783	-0.850828	-0.110168
C49	C	1.095455	-0.973314	-0.093292
H50	H	1.141682	-1.028630	-0.160864
H51	H	1.118612	-1.000904	0.001349
H52	H	1.008019	-0.989455	-0.106715
H53	H	0.919364	-0.717174	-0.438748
O54	O	1.296293	-0.965650	-0.189620
C55	C	1.383784	-1.013262	-0.250267
H56	H	1.406282	-0.951420	-0.327332
H57	H	1.452457	-1.021296	-0.185496
H58	H	1.363361	-1.105566	-0.287010
H59	H	1.023899	-0.708663	-0.268049
O60	O	1.366342	-0.929631	-0.420585
C61	C	1.341044	-1.002447	-0.519520
H62	H	1.266570	-0.967517	-0.563756
H63	H	1.408174	-1.000338	-0.586869
H64	H	1.327933	-1.098365	-0.487938
O65	O	1.258193	-0.778441	-0.572071
C66	C	1.180027	-0.814663	-0.653571
H67	H	1.100296	-0.812242	-0.607547
H68	H	1.179483	-0.751385	-0.733684
H69	H	1.197093	-0.909649	-0.685383
O70	O	1.127232	-0.427093	-0.729919
C71	C	1.190747	-0.495497	-0.807297
H72	H	1.157681	-0.590037	-0.814558
H73	H	1.192029	-0.452192	-0.899732
H74	H	1.273889	-0.499575	-0.770173
O75	O	0.920278	-0.305763	-1.046318
C76	C	1.011911	-0.373681	-1.065338
H77	H	1.014131	-0.451463	-0.999264
H78	H	1.012019	-0.410009	-1.160699
H79	H	1.083678	-0.314492	-1.051431
H80	H	0.750389	-0.202596	-0.954918
H81	H	0.685707	-0.235782	-0.742383
