data_functionalizedCrystal
_audit_creation_method	'MofGen! by Chris Wilmer'
_symmetry_space_group_name_H-M	'P1'
_symmetry_Int_Tables_number	1
_symmetry_cell_setting	triclinic
loop_
_symmetry_equiv_pos_as_xyz
  x,y,z
_cell_length_a	16.109301
_cell_length_b	17.699083
_cell_length_c	15.186229
_cell_angle_alpha	89.995368
_cell_angle_beta	89.999362
_cell_angle_gamma	83.372248
loop_
_atom_site_label
_atom_site_type_symbol
_atom_site_fract_x
_atom_site_fract_y
_atom_site_fract_z
O1	O	1.102963	0.097285	-0.073175
O2	O	1.602963	0.597285	0.426825
O3	O	0.860880	0.109391	-0.073189
O4	O	1.360880	0.609391	0.426811
O5	O	0.988761	-0.006841	-0.073174
O6	O	1.488761	0.493159	0.426826
O7	O	0.975082	0.213517	-0.073190
O8	O	1.475082	0.713517	0.426810
O9	O	0.988753	-0.006843	0.073284
O10	O	1.488753	0.493157	0.573284
O11	O	0.860872	0.109390	0.073268
O12	O	1.360872	0.609390	0.573268
O13	O	1.102955	0.097283	0.073283
O14	O	1.602955	0.597283	0.573283
Zn15	Zn	0.981912	0.103336	0.096529
Zn16	Zn	1.481912	0.603336	0.596529
Zn17	Zn	0.981923	0.103338	-0.096435
Zn18	Zn	1.481923	0.603338	0.403565
O19	O	0.975074	0.213516	0.073267
O20	O	1.475074	0.713516	0.573267
C21	C	0.829902	0.108900	0.000038
C22	C	1.329902	0.608900	0.500038
C23	C	0.737609	0.107430	0.000033
C24	C	1.237609	0.607430	0.500033
C25	C	0.515224	0.172981	0.000038
C26	C	1.015224	0.672981	0.500038
C27	C	0.428506	0.171594	0.000044
C28	C	0.928506	0.671594	0.500044
C29	C	0.448618	0.033688	0.000050
C30	C	0.948618	0.533688	0.500050
C31	C	0.535334	0.035076	0.000051
C32	C	1.035334	0.535076	0.500051
C33	C	0.568635	0.104725	0.000040
C34	C	1.068635	0.604725	0.500040
C35	C	0.395200	0.101949	0.000046
C36	C	0.895200	0.601949	0.500046
C37	C	0.301177	0.100445	0.000052
C38	C	0.801177	0.600445	0.500052
C39	C	0.662664	0.106230	0.000036
C40	C	1.162664	0.606230	0.500036
C41	C	0.988267	-0.035040	0.000055
C42	C	1.488267	0.464960	0.500055
C43	C	0.986796	-0.119060	0.000055
C44	C	1.486796	0.380940	0.500055
C45	C	1.061860	-0.167574	0.000061
C46	C	1.561860	0.332426	0.500061
C47	C	1.060473	-0.246519	0.000053
C48	C	1.560473	0.253481	0.500053
C49	C	0.984022	-0.276949	0.000046
C50	C	1.484022	0.223051	0.500046
C51	C	0.908953	-0.228429	0.000038
C52	C	1.408953	0.271571	0.500038
C53	C	0.910341	-0.149485	0.000039
C54	C	1.410341	0.350515	0.500039
C55	C	0.903356	-0.546800	0.000030
C56	C	1.403356	-0.046800	0.500030
C57	C	0.901974	-0.625750	0.000031
C58	C	1.401974	-0.125750	0.500031
C59	C	1.053488	-0.643834	0.000044
C60	C	1.553488	-0.143834	0.500044
C61	C	1.054876	-0.564890	0.000046
C62	C	1.554876	-0.064890	0.500046
C63	C	0.979807	-0.516377	0.000033
C64	C	1.479807	-0.016377	0.500033
C65	C	0.981312	-0.430776	0.000040
C66	C	1.481312	0.069224	0.500040
C67	C	0.982517	-0.362549	0.000045
C68	C	1.482517	0.137451	0.500045
C69	C	1.133933	0.097774	0.000054
C70	C	1.633933	0.597774	0.500054
C71	C	1.226226	0.099244	0.000053
C72	C	1.726226	0.599244	0.500053
C73	C	0.975568	0.241714	0.000037
C74	C	1.475568	0.741714	0.500037
C75	C	0.977039	0.325734	0.000031
C76	C	1.477039	0.825734	0.500031
N77	N	0.981910	0.103334	0.228221
N78	N	1.481910	0.603334	0.728221
N79	N	0.981931	0.103334	-0.228128
N80	N	1.481931	0.603334	0.271872
C81	C	1.038555	0.051884	0.453951
C82	C	1.538555	0.551884	0.953951
C83	C	1.038558	0.051882	0.546141
C84	C	1.538558	0.551882	1.046141
C85	C	0.925280	0.154787	0.546136
C86	C	1.425280	0.654787	1.046136
C87	C	0.925274	0.154785	0.453948
C88	C	1.425274	0.654785	0.953948
C89	C	0.981916	0.103334	0.407858
C90	C	1.481916	0.603334	0.907858
C91	C	0.981925	0.103334	0.592236
C92	C	1.481925	0.603334	1.092236
C93	C	0.981927	0.103333	0.692192
C94	C	1.481927	0.603333	1.192192
C95	C	0.981913	0.103334	0.307896
C96	C	1.481913	0.603334	0.807896
H97	H	0.578824	-0.020510	0.000055
H98	H	1.078824	0.479490	0.500055
C99	C	1.125626	-0.375565	0.000038
C100	C	1.625626	0.124435	0.500038
C101	C	1.142985	-0.299847	0.000053
C102	C	1.642985	0.200153	0.500053
H103	H	1.176569	-0.408485	0.000029
H104	H	1.676569	0.091515	0.500029
H105	H	1.094277	-0.384792	0.051105
H106	H	1.594277	0.115208	0.551105
H107	H	1.094272	-0.384770	-0.051041
H108	H	1.594272	0.115230	0.448959
H109	H	1.174334	-0.290640	0.051135
H110	H	1.674334	0.209360	0.551135
H111	H	1.174347	-0.290616	-0.051020
H112	H	1.674347	0.209384	0.448980
C113	C	1.139849	-0.743094	-0.075248
C114	C	1.639849	-0.243094	0.424752
C115	C	1.136009	-0.697161	0.000045
C116	C	1.636009	-0.197161	0.500045
H117	H	1.190795	-0.776010	-0.075247
H118	H	1.690795	-0.276010	0.424753
H119	H	1.094128	-0.772514	-0.075248
H120	H	1.594128	-0.272514	0.424752
H121	H	1.137243	-0.711907	-0.126312
H122	H	1.637243	-0.211907	0.373688
H123	H	1.138609	-0.728348	0.051109
H124	H	1.638609	-0.228348	0.551109
H125	H	1.181743	-0.667739	0.000053
H126	H	1.681743	-0.167739	0.500053
C127	C	0.752335	-0.599948	-0.000006
C128	C	1.252335	-0.099948	0.499994
C129	C	0.817933	-0.659200	0.000012
C130	C	1.317933	-0.159200	0.500012
H131	H	0.700456	-0.620601	-0.000023
H132	H	1.200456	-0.120601	0.499977
H133	H	0.756013	-0.569537	0.051065
H134	H	1.256013	-0.069537	0.551065
H135	H	0.756041	-0.569530	-0.051082
H136	H	1.256041	-0.069530	0.448918
H137	H	0.814230	-0.689615	0.051091
H138	H	1.314230	-0.189615	0.551091
H139	H	0.814253	-0.689624	-0.051064
H140	H	1.314253	-0.189624	0.448936
C141	C	0.417343	0.308046	0.000024
C142	C	0.917343	0.808046	0.500024
C143	C	0.369797	0.246624	0.000035
C144	C	0.869797	0.746624	0.500035
H145	H	0.381096	0.354367	0.000014
H146	H	0.881096	0.854367	0.500014
H147	H	0.451582	0.305719	0.051093
H148	H	0.951582	0.805719	0.551093
H149	H	0.451586	0.305712	-0.051053
H150	H	0.951586	0.805712	0.448947
H151	H	0.335558	0.248955	0.051116
H152	H	0.835558	0.748955	0.551116
H153	H	0.335543	0.248952	-0.051039
H154	H	0.835543	0.748952	0.448961
C155	C	0.817006	-0.447542	-0.075271
C156	C	1.317006	0.052458	0.424729
C157	C	0.820839	-0.493485	0.000020
C158	C	1.320839	0.006515	0.500020
H159	H	0.766057	-0.414630	-0.075278
H160	H	1.266057	0.085370	0.424722
H161	H	0.862724	-0.418117	-0.075262
H162	H	1.362724	0.081883	0.424738
H163	H	0.819624	-0.478722	-0.126336
H164	H	1.319624	0.021278	0.373664
H165	H	0.818227	-0.462305	0.051086
H166	H	1.318227	0.037695	0.551086
H167	H	0.775108	-0.522912	0.000019
H168	H	1.275108	-0.022912	0.500019
C169	C	1.056749	-0.051150	0.350339
C170	C	1.556749	0.448850	0.850339
C171	C	1.100787	-0.004711	0.403309
C172	C	1.600787	0.495289	0.903309
H173	H	1.095164	-0.086098	0.319080
H174	H	1.595164	0.413902	0.819080
H175	H	1.022184	-0.078343	0.386326
H176	H	1.522184	0.421657	0.886326
H177	H	1.023041	-0.020501	0.309676
H178	H	1.523041	0.479499	0.809676
H179	H	1.134490	-0.035360	0.443977
H180	H	1.634490	0.464640	0.943977
H181	H	1.135366	0.022484	0.367319
H182	H	1.635366	0.522484	0.867319
C183	C	0.439054	-0.084288	0.075342
C184	C	0.939054	0.415712	0.575342
C185	C	0.412011	-0.042868	0.000052
C186	C	0.912011	0.457132	0.500052
H187	H	0.416451	-0.131550	0.075341
H188	H	0.916451	0.368450	0.575341
H189	H	0.498336	-0.093228	0.075338
H190	H	0.998336	0.406772	0.575338
H191	H	0.420702	-0.056181	0.126408
H192	H	0.920702	0.443819	0.626408
H193	H	0.430368	-0.070974	-0.051014
H194	H	0.930368	0.429026	0.448986
H195	H	0.352716	-0.033931	0.000048
H196	H	0.852716	0.466069	0.500048
C197	C	1.151321	-0.089279	-0.075217
C198	C	1.651321	0.410721	0.424783
C199	C	1.145896	-0.134126	0.000068
C200	C	1.645896	0.365874	0.500068
H201	H	1.203201	-0.068629	-0.075210
H202	H	1.703201	0.431371	0.424790
H203	H	1.147637	-0.119697	-0.126281
H204	H	1.647637	0.380303	0.373719
H205	H	1.106810	-0.049089	-0.075208
H206	H	1.606810	0.450911	0.424792
H207	H	1.190404	-0.174320	0.000056
H208	H	1.690404	0.325680	0.500056
H209	H	1.149589	-0.103706	0.051145
H210	H	1.649589	0.396294	0.551145
H211	H	1.117130	-0.540119	0.000056
H212	H	1.617130	-0.040119	0.500056
H213	H	0.879165	0.196679	0.583672
H214	H	1.379165	0.696679	1.083672
H215	H	0.846705	-0.253211	0.000026
H216	H	1.346705	0.246789	0.500026
C217	C	1.056820	-0.051123	0.649815
C218	C	1.556820	0.448877	1.149815
C219	C	1.100818	-0.004674	0.596805
C220	C	1.600818	0.495326	1.096805
H221	H	1.095259	-0.086043	0.681088
H222	H	1.595259	0.413957	1.181088
H223	H	1.023100	-0.020482	0.690457
H224	H	1.523100	0.479518	1.190457
H225	H	1.022271	-0.078354	0.613846
H226	H	1.522271	0.421646	1.113846
H227	H	1.135362	0.022562	0.632775
H228	H	1.635362	0.522562	1.132775
H229	H	1.134553	-0.035318	0.556158
H230	H	1.634553	0.464682	1.056158
C231	C	0.813306	0.256513	0.463196
C232	C	1.313306	0.756513	0.963196
C233	C	0.863014	0.211346	0.403276
C234	C	1.363014	0.711346	0.903276
H235	H	0.774875	0.291430	0.431911
H236	H	1.274875	0.791430	0.931911
H237	H	0.783468	0.225003	0.499158
H238	H	1.283468	0.725003	0.999158
H239	H	0.847867	0.283747	0.499148
H240	H	1.347867	0.783747	0.999148
H241	H	0.828454	0.184107	0.367328
H242	H	1.328454	0.684107	0.867328
H243	H	0.892855	0.242860	0.367299
H244	H	1.392855	0.742860	0.867299
C245	C	0.760431	-0.139534	0.000032
C246	C	1.260431	0.360466	0.500032
C247	C	0.827828	-0.096156	0.000035
C248	C	1.327828	0.403844	0.500035
H249	H	0.709491	-0.106609	0.000032
H250	H	1.209491	0.393391	0.500032
H251	H	0.763046	-0.170697	-0.051037
H252	H	1.263046	0.329303	0.448963
H253	H	0.763042	-0.170706	0.051110
H254	H	1.263042	0.329294	0.551110
H255	H	0.825221	-0.064988	-0.051046
H256	H	1.325221	0.435012	0.448954
H257	H	0.825212	-0.064980	0.051109
H258	H	1.325212	0.435020	0.551109
H259	H	0.542334	0.229694	0.000036
H260	H	1.042334	0.729694	0.500036
