data_functionalizedCrystal
_audit_creation_method	'MofGen! by Chris Wilmer'
_symmetry_space_group_name_H-M	'P1'
_symmetry_Int_Tables_number	1
_symmetry_cell_setting	triclinic
loop_
_symmetry_equiv_pos_as_xyz
  x,y,z
_cell_length_a	19.077236
_cell_length_b	16.625546
_cell_length_c	19.077174
_cell_angle_alpha	92.270997
_cell_angle_beta	85.294282
_cell_angle_gamma	92.315185
loop_
_atom_site_label
_atom_site_type_symbol
_atom_site_fract_x
_atom_site_fract_y
_atom_site_fract_z
Zn1	Zn	1.093747	-0.291122	-0.441966
Zn2	Zn	1.088936	-0.420756	-0.324074
Zn3	Zn	0.971129	-0.291134	-0.319349
Zn4	Zn	0.975827	-0.431112	-0.437178
O5	O	1.032410	-0.358531	-0.380641
O6	O	1.191762	-0.303979	-0.430308
O7	O	1.069329	-0.399233	-0.224797
O8	O	0.987441	-0.178299	-0.335640
O9	O	1.188227	-0.399221	-0.343694
O10	O	1.077529	-0.178290	-0.425726
O11	O	0.982776	-0.304000	-0.221325
O12	O	0.873099	-0.314042	-0.330998
O13	O	0.995449	-0.416871	-0.536463
O14	O	0.876551	-0.416883	-0.417566
O15	O	1.082085	-0.314021	-0.539981
O16	O	1.073885	-0.534963	-0.339051
O17	O	0.990784	-0.542572	-0.422148
C18	C	0.849245	-0.366588	-0.373250
C19	C	0.770887	-0.370055	-0.370105
C20	C	0.735918	-0.322181	-0.413792
C21	C	0.662293	-0.325434	-0.410830
C22	C	0.623637	-0.376566	-0.364185
C23	C	0.658611	-0.424441	-0.320494
C24	C	0.732236	-0.421183	-0.323452
C25	C	0.403246	-0.391614	-0.350491
C26	C	0.329617	-0.394871	-0.347537
C27	C	0.333303	-0.295862	-0.437873
C28	C	0.406929	-0.292612	-0.440831
C29	C	0.441896	-0.340484	-0.397137
N30	N	0.548380	-0.379895	-0.361159
N31	N	0.517152	-0.337151	-0.400160
C32	C	1.032342	-0.568024	-0.380609
C33	C	1.032378	-0.657644	-0.380622
C34	C	1.032504	-0.985817	-0.380700
C35	C	1.032467	-0.894509	-0.380680
C36	C	1.032441	-0.821733	-0.380660
C37	C	1.032405	-0.730420	-0.380641
C38	C	1.216289	-0.350444	-0.388062
C39	C	1.294648	-0.346997	-0.391224
C40	C	1.039828	-0.366599	-0.564516
C41	C	1.042989	-0.370038	-0.642872
C42	C	1.032498	-0.148220	-0.380690
C43	C	1.032535	-0.058598	-0.380711
C44	C	0.999412	-0.322071	-0.677876
C45	C	1.002380	-0.325309	-0.751500
C46	C	1.048928	-0.376509	-0.790119
C47	C	1.092506	-0.424480	-0.755110
C48	C	1.089534	-0.421247	-0.681487
C49	C	1.062643	-0.391501	-1.010502
C50	C	1.065613	-0.394729	-1.084130
C51	C	0.975486	-0.295558	-1.080515
C52	C	0.972522	-0.292325	-1.006891
C53	C	1.016097	-0.340300	-0.971888
N54	N	1.051964	-0.379817	-0.865375
N55	N	1.013057	-0.336995	-0.896633
C56	C	1.025061	-0.350434	-0.197484
C57	C	1.022037	-0.346763	-0.119134
H58	H	0.760706	-0.460167	-0.287877
O59	O	0.954132	-0.272318	-0.640471
C60	C	0.916318	-0.230664	-0.687159
H61	H	0.915985	-0.266103	-0.739533
H62	H	0.942474	-0.168633	-0.696045
C63	C	0.840541	-0.177559	-0.591078
C64	C	0.840126	-0.221089	-0.655402
H65	H	0.793543	-0.171648	-0.571489
H66	H	0.866018	-0.205619	-0.559623
H67	H	0.862341	-0.125871	-0.598492
H68	H	0.818335	-0.272779	-0.647986
H69	H	0.814644	-0.193037	-0.686856
O70	O	0.959967	-0.278838	-0.785525
C71	C	0.916140	-0.328622	-0.826265
H72	H	0.910877	-0.391345	-0.803886
H73	H	0.940175	-0.332888	-0.882946
C74	C	0.849375	-0.215477	-0.851918
C75	C	0.842905	-0.292512	-0.824428
H76	H	0.804200	-0.193202	-0.850788
H77	H	0.878903	-0.181935	-0.824472
H78	H	0.869406	-0.219042	-0.899149
H79	H	0.822882	-0.288945	-0.777195
H80	H	0.813371	-0.326053	-0.851865
H81	H	0.767387	-0.280546	-0.451777
H82	H	1.125024	-0.460300	-0.652988
O83	O	0.621092	-0.474021	-0.275083
C84	C	0.636252	-0.452411	-0.205573
H85	H	0.656361	-0.386942	-0.202927
H86	H	0.678231	-0.492903	-0.188795
C87	C	0.544242	-0.542957	-0.159134
C88	C	0.568935	-0.462544	-0.155882
H89	H	0.502719	-0.549210	-0.128481
H90	H	0.534029	-0.557518	-0.205964
H91	H	0.579231	-0.576691	-0.145154
H92	H	0.533950	-0.428813	-0.169870
H93	H	0.579140	-0.447977	-0.109053
H94	H	0.633824	-0.286452	-0.446406
O95	O	1.104875	-0.438186	-0.976474
C96	C	1.063004	-0.490153	-0.932243
H97	H	1.008371	-0.498550	-0.952184
H98	H	1.058339	-0.462886	-0.876352
C99	C	1.164470	-0.562096	-0.908001
C100	C	1.097371	-0.572414	-0.932496
H101	H	1.185670	-0.612837	-0.908153
H102	H	1.192680	-0.527083	-0.937797
H103	H	1.160573	-0.539371	-0.861427
H104	H	1.101269	-0.595129	-0.979072
H105	H	1.069162	-0.607433	-0.902707
H106	H	0.934616	-0.250635	-0.975452
O107	O	0.444368	-0.242865	-0.486154
C108	C	0.397716	-0.201318	-0.524089
H109	H	0.344063	-0.199536	-0.493113
H110	H	0.392051	-0.233628	-0.577272
C111	C	0.492781	-0.116888	-0.573577
C112	C	0.426885	-0.114693	-0.535528
H113	H	0.510775	-0.063454	-0.580636
H114	H	0.524213	-0.144880	-0.548021
H115	H	0.488051	-0.143817	-0.617891
H116	H	0.431617	-0.087774	-0.491211
H117	H	0.395455	-0.086694	-0.561077
H118	H	1.130402	-0.466173	-0.786559
H119	H	0.940009	-0.256501	-1.109022
O120	O	1.110922	-0.444423	-1.121575
C121	C	1.180472	-0.422921	-1.106442
H122	H	1.179797	-0.389522	-1.053051
H123	H	1.205906	-0.382237	-1.148844
C124	C	1.223827	-0.540527	-1.170334
C125	C	1.222998	-0.499512	-1.104755
H126	H	1.250061	-0.587770	-1.169296
H127	H	1.176970	-0.555012	-1.180532
H128	H	1.245020	-0.506615	-1.205662
H129	H	1.201797	-0.533419	-1.069430
H130	H	1.269852	-0.485033	-1.094551
O131	O	0.437097	-0.438198	-0.308023
C132	C	0.387188	-0.484011	-0.266210
H133	H	0.335879	-0.490444	-0.292977
H134	H	0.377192	-0.452386	-0.212403
C135	C	0.478505	-0.560184	-0.224186
C136	C	0.415487	-0.568091	-0.257065
H137	H	0.495961	-0.612047	-0.218541
H138	H	0.512130	-0.529317	-0.252354
H139	H	0.470166	-0.533827	-0.179350
H140	H	0.423828	-0.594438	-0.301903
H141	H	0.381863	-0.598964	-0.228904
O142	O	0.299259	-0.249474	-0.480342
C143	C	0.258517	-0.299338	-0.524104
H144	H	0.246462	-0.359793	-0.498703
H145	H	0.289006	-0.309325	-0.577473
C146	C	0.203918	-0.184401	-0.565326
C147	C	0.189107	-0.258650	-0.534125
H148	H	0.161104	-0.159302	-0.571511
H149	H	0.231368	-0.150806	-0.535845
H150	H	0.229327	-0.192733	-0.609797
H151	H	0.163706	-0.250316	-0.489652
H152	H	0.161650	-0.292243	-0.563599
H153	H	0.298145	-0.436512	-0.309553
