data_functionalizedCrystal
_audit_creation_method	'MofGen! by Chris Wilmer'
_symmetry_space_group_name_H-M	'P1'
_symmetry_Int_Tables_number	1
_symmetry_cell_setting	triclinic
loop_
_symmetry_equiv_pos_as_xyz
  x,y,z
_cell_length_a	16.109301
_cell_length_b	14.853567
_cell_length_c	15.186229
_cell_angle_alpha	90.000050
_cell_angle_beta	89.999362
_cell_angle_gamma	83.548205
loop_
_atom_site_label
_atom_site_type_symbol
_atom_site_fract_x
_atom_site_fract_y
_atom_site_fract_z
O1	O	1.103293	0.115881	-0.073165
O2	O	1.603293	0.615881	0.426835
O3	O	0.861252	0.130302	-0.073178
O4	O	1.361252	0.630302	0.426822
O5	O	0.988738	-0.008149	-0.073174
O6	O	1.488738	0.491851	0.426826
O7	O	0.975807	0.254332	-0.073170
O8	O	1.475807	0.754332	0.426830
O9	O	0.988729	-0.008151	0.073283
O10	O	1.488729	0.491849	0.573283
O11	O	0.861243	0.130300	0.073279
O12	O	1.361243	0.630300	0.573279
O13	O	1.103285	0.115879	0.073292
O14	O	1.603285	0.615879	0.573292
Zn15	Zn	0.982263	0.123089	0.096539
Zn16	Zn	1.482263	0.623089	0.596539
Zn17	Zn	0.982274	0.123092	-0.096425
Zn18	Zn	1.482274	0.623092	0.403575
O19	O	0.975799	0.254330	0.073288
O20	O	1.475799	0.754330	0.573288
C21	C	0.830272	0.129717	0.000048
C22	C	1.330272	0.629717	0.500048
C23	C	0.737974	0.127965	0.000043
C24	C	1.237974	0.627965	0.500043
C25	C	0.515811	0.206047	0.000055
C26	C	1.015811	0.706047	0.500055
C27	C	0.429089	0.204395	0.000060
C28	C	0.929089	0.704395	0.500060
C29	C	0.448732	0.040127	0.000054
C30	C	0.948732	0.540127	0.500054
C31	C	0.535453	0.041781	0.000054
C32	C	1.035453	0.541781	0.500054
C33	C	0.568990	0.124743	0.000050
C34	C	1.068990	0.624743	0.500050
C35	C	0.395546	0.121437	0.000055
C36	C	0.895546	0.621437	0.500055
C37	C	0.301518	0.119645	0.000061
C38	C	0.801518	0.619645	0.500061
C39	C	0.663025	0.126536	0.000046
C40	C	1.163025	0.626536	0.500046
C41	C	0.988148	-0.041738	0.000052
C42	C	1.488148	0.458262	0.500052
C43	C	0.986392	-0.141819	0.000044
C44	C	1.486392	0.358181	0.500044
C45	C	0.903241	-0.554215	0.000056
C46	C	1.403241	-0.054215	0.500056
C47	C	1.054697	-0.575746	0.000064
C48	C	1.554697	-0.075746	0.500064
C49	C	1.056348	-0.481715	0.000059
C50	C	1.556348	0.018285	0.500059
C51	C	0.981444	-0.423930	0.000054
C52	C	1.481444	0.076070	0.500054
C53	C	0.904889	-0.460175	0.000054
C54	C	1.404889	0.039825	0.500054
C55	C	1.132901	-0.445463	0.000068
C56	C	1.632901	0.054537	0.500068
C57	C	1.134555	-0.351426	0.000064
C58	C	1.634555	0.148574	0.500064
C59	C	1.059650	-0.293639	0.000053
C60	C	1.559650	0.206361	0.500053
C61	C	0.983093	-0.329890	0.000052
C62	C	1.483093	0.170110	0.500052
C63	C	0.908189	-0.272104	0.000046
C64	C	1.408189	0.227896	0.500046
C65	C	0.831630	-0.308353	0.000039
C66	C	1.331630	0.191647	0.500039
C67	C	0.829984	-0.402388	0.000042
C68	C	1.329984	0.097612	0.500042
C69	C	1.061296	-0.199604	0.000049
C70	C	1.561296	0.300396	0.500049
C71	C	0.909837	-0.178064	0.000044
C72	C	1.409837	0.321936	0.500044
C73	C	1.134265	0.116464	0.000063
C74	C	1.634265	0.616464	0.500063
C75	C	1.226563	0.118215	0.000063
C76	C	1.726563	0.618215	0.500063
C77	C	0.976389	0.287918	0.000060
C78	C	1.476389	0.787918	0.500060
C79	C	0.978145	0.387999	0.000062
C80	C	1.478145	0.887999	0.500062
N81	N	0.982261	0.123087	0.228231
N82	N	1.482261	0.623087	0.728231
N83	N	0.982282	0.123087	-0.228118
N84	N	1.482282	0.623087	0.271882
C85	C	1.038731	0.061801	0.453956
C86	C	1.538731	0.561801	0.953956
C87	C	1.038734	0.061799	0.546146
C88	C	1.538734	0.561799	1.046146
C89	C	0.925806	0.184375	0.546151
C90	C	1.425806	0.684375	1.046151
C91	C	0.925800	0.184372	0.453963
C92	C	1.425800	0.684372	0.953963
C93	C	0.982267	0.123086	0.407868
C94	C	1.482267	0.623086	0.907868
C95	C	0.982276	0.123087	0.592246
C96	C	1.482276	0.623087	1.092246
C97	C	0.982278	0.123085	0.692202
C98	C	1.482278	0.623085	1.192202
C99	C	0.982264	0.123087	0.307905
C100	C	1.482264	0.623087	0.807905
H101	H	0.770643	-0.261292	0.000041
H102	H	1.270643	0.238708	0.500041
H103	H	0.848840	-0.131020	0.000036
H104	H	1.348840	0.368980	0.500036
H105	H	0.385793	0.270600	0.000066
H106	H	0.885793	0.770600	0.500066
N107	N	0.592822	-0.045913	0.000044
N108	N	1.092822	0.454087	0.500044
H109	H	0.629238	-0.048886	0.054338
H110	H	1.129238	0.451114	0.554338
H111	H	0.558365	-0.098672	0.000007
H112	H	1.058365	0.401328	0.500007
H113	H	1.084711	0.011894	0.583668
H114	H	1.584711	0.511894	1.083668
H115	H	0.543114	0.273601	0.000058
H116	H	1.043114	0.773601	0.500058
N117	N	0.412560	-0.049350	0.000063
N118	N	0.912560	0.450650	0.500063
H119	H	0.349553	-0.038063	0.000062
H120	H	0.849553	0.461937	0.500062
H121	H	0.432007	-0.084929	-0.054230
H122	H	0.932007	0.415071	0.445770
N123	N	0.747417	-0.441484	0.000038
N124	N	1.247417	0.058516	0.500038
H125	H	0.757740	-0.509822	0.000046
H126	H	1.257740	-0.009822	0.500046
H127	H	0.714634	-0.420341	0.054330
H128	H	1.214634	0.079659	0.554330
H129	H	1.084709	0.011897	0.416427
H130	H	1.584709	0.511897	0.916427
N131	N	0.820669	-0.593304	0.000044
N132	N	1.320669	-0.093304	0.500044
H133	H	0.830986	-0.661643	0.000044
H134	H	1.330986	-0.161643	0.500044
H135	H	0.787885	-0.572164	0.054336
H136	H	1.287885	-0.072164	0.554336
H137	H	0.879833	0.234274	0.583691
H138	H	1.379833	0.734274	1.083691
N139	N	0.864890	0.250468	0.404246
N140	N	1.364890	0.750468	0.904246
H141	H	0.829122	0.289296	0.447434
H142	H	1.329122	0.789296	0.947434
H143	H	0.896757	0.290333	0.365988
H144	H	1.396757	0.790333	0.865988
H145	H	1.193884	-0.492518	0.000081
H146	H	1.693884	0.007482	0.500081
N147	N	1.135483	-0.638066	0.000084
N148	N	1.635483	-0.138066	0.500084
H149	H	1.122822	-0.703137	0.000090
H150	H	1.622822	-0.203137	0.500090
H151	H	1.168847	-0.626340	-0.054207
H152	H	1.668847	-0.126340	0.445793
N153	N	1.217128	-0.312340	0.000070
N154	N	1.717128	0.187660	0.500070
H155	H	1.249949	-0.333419	-0.054220
H156	H	1.749949	0.166581	0.445780
H157	H	1.206743	-0.244007	0.000098
H158	H	1.706743	0.255993	0.500098
N159	N	1.143859	-0.160506	0.000068
N160	N	1.643859	0.339494	0.500068
H161	H	1.176691	-0.181578	-0.054217
H162	H	1.676691	0.318422	0.445783
H163	H	1.133466	-0.092174	0.000099
H164	H	1.633466	0.407826	0.500099
