data_functionalizedCrystal
_audit_creation_method	'MofGen! by Chris Wilmer'
_symmetry_space_group_name_H-M	'P1'
_symmetry_Int_Tables_number	1
_symmetry_cell_setting	triclinic
loop_
_symmetry_equiv_pos_as_xyz
  x,y,z
_cell_length_a	10.723024
_cell_length_b	14.421503
_cell_length_c	10.723024
_cell_angle_alpha	89.994498
_cell_angle_beta	84.467869
_cell_angle_gamma	90.007403
loop_
_atom_site_label
_atom_site_type_symbol
_atom_site_fract_x
_atom_site_fract_y
_atom_site_fract_z
O1	O	1.657196	0.077103	0.175010
O2	O	2.157196	0.577103	0.675010
O3	O	1.294044	0.077106	0.191763
O4	O	1.794044	0.577106	0.691763
O5	O	1.483996	0.077101	0.001811
O6	O	1.983996	0.577101	0.501811
O7	O	1.467243	0.077108	0.364963
O8	O	1.967243	0.577108	0.864963
O9	O	1.483965	-0.077122	0.001839
O10	O	1.983965	0.422878	0.501839
O11	O	1.294012	-0.077117	0.191792
O12	O	1.794012	0.422883	0.691792
O13	O	1.657164	-0.077120	0.175038
O14	O	2.157164	0.422880	0.675038
Cu15	Cu	1.475585	-0.091201	0.183418
Cu16	Cu	1.975585	0.408799	0.683418
Cu17	Cu	1.475623	0.091186	0.183384
Cu18	Cu	1.975623	0.591186	0.683384
O19	O	1.467212	-0.077115	0.364991
O20	O	1.967212	0.422885	0.864991
C21	C	1.247528	-0.000005	0.190558
C22	C	1.747528	0.499995	0.690558
C23	C	1.108974	-0.000004	0.186911
C24	C	1.608974	0.499996	0.686911
N25	N	1.475568	-0.219482	0.183440
N26	N	1.975568	0.280518	0.683440
C27	C	1.033991	-0.000002	0.293198
C28	C	1.533991	0.499998	0.793198
C29	C	0.890788	-0.000000	0.289431
C30	C	1.390788	0.500000	0.789431
C31	C	1.387718	-0.469133	0.271235
C32	C	1.887718	0.030867	0.771235
C33	C	1.500687	-0.530936	0.296421
C34	C	2.000687	-0.030936	0.796421
C35	C	1.475598	-0.408643	0.183411
C36	C	1.975598	0.091357	0.683411
C37	C	1.362659	-0.530934	0.158254
C38	C	1.862659	-0.030934	0.658254
C39	C	1.475617	-0.591365	0.183385
C40	C	1.975617	-0.091365	0.683385
C41	C	1.588625	-0.469086	0.208654
C42	C	2.088625	0.030914	0.708654
C43	C	1.450522	-0.469078	0.070437
C44	C	1.950522	0.030922	0.570437
C45	C	1.563572	-0.530853	0.095576
C46	C	2.063572	-0.030853	0.595576
C47	C	1.475586	-0.303382	0.183429
C48	C	1.975586	0.196618	0.683429
C49	C	1.475643	-0.696624	0.183366
C50	C	1.975643	-0.196624	0.683366
C51	C	1.703680	-0.000007	0.176243
C52	C	2.203680	0.499993	0.676243
C53	C	1.842234	-0.000002	0.179891
C54	C	2.342234	0.499998	0.679891
C55	C	1.482762	-0.000010	-0.044675
C56	C	1.982762	0.499990	0.455325
C57	C	1.479114	-0.000006	-0.183229
C58	C	1.979114	0.499994	0.316771
N59	N	1.475650	0.219468	0.183352
N60	N	1.975650	0.719468	0.683352
C61	C	1.585401	-0.000006	-0.258212
C62	C	2.085401	0.499994	0.241788
C63	C	1.581634	-0.000002	-0.401415
C64	C	2.081634	0.499998	0.098585
C65	C	1.468447	-0.000003	0.411477
C66	C	1.968447	0.499997	0.911477
C67	C	1.472094	0.000000	0.550031
C68	C	1.972094	0.500000	1.050031
H69	H	1.075814	-0.000005	0.386984
H70	H	1.575814	0.499995	0.886984
H71	H	1.684165	-0.442032	0.230034
H72	H	2.184165	0.057968	0.730034
H73	H	1.672624	-0.000006	-0.465848
H74	H	2.172624	0.499994	0.034152
H75	H	1.385328	0.000001	-0.225051
H76	H	1.885328	0.500001	0.274949
H77	H	1.313477	-0.442034	0.345565
H78	H	1.813477	0.057966	0.845565
H79	H	1.381099	-0.000007	-0.385544
H80	H	1.881099	0.499993	0.114456
H81	H	0.906659	0.000002	0.088896
H82	H	1.406659	0.500002	0.588896
H83	H	1.267140	-0.558104	0.136988
H84	H	1.767140	-0.058104	0.636988
H85	H	0.826355	0.000006	0.380421
H86	H	1.326355	0.500006	0.880421
H87	H	1.067152	0.000018	0.093125
H88	H	1.567152	0.500018	0.593125
H89	H	1.637979	-0.557783	0.021292
H90	H	2.137979	-0.057783	0.521292
H91	H	1.521915	-0.558107	0.391949
H92	H	2.021915	-0.058107	0.891949
H93	H	1.429259	-0.441886	-0.025061
H94	H	1.929259	0.058114	0.474939
H95	H	1.679187	-0.000012	-0.216390
H96	H	2.179187	0.499988	0.283610
