data_functionalizedCrystal
_audit_creation_method	'MofGen! by Chris Wilmer'
_symmetry_space_group_name_H-M	'P1'
_symmetry_Int_Tables_number	1
_symmetry_cell_setting	triclinic
loop_
_symmetry_equiv_pos_as_xyz
  x,y,z
_cell_length_a	23.532407
_cell_length_b	23.532407
_cell_length_c	9.016244
_cell_angle_alpha	89.993097
_cell_angle_beta	89.998017
_cell_angle_gamma	82.848678
loop_
_atom_site_label
_atom_site_type_symbol
_atom_site_fract_x
_atom_site_fract_y
_atom_site_fract_z
O1	O	0.755262	0.069132	-0.123170
O2	O	1.255262	0.569132	0.376830
O3	O	0.589399	0.079136	-0.123216
O4	O	1.089399	0.579136	0.376784
O5	O	0.677332	-0.008798	-0.123164
O6	O	1.177332	0.491202	0.376836
O7	O	0.667329	0.157066	-0.123221
O8	O	1.167329	0.657066	0.376779
O9	O	0.677319	-0.008796	0.123516
O10	O	1.177319	0.491204	0.623516
O11	O	0.589386	0.079138	0.123465
O12	O	1.089386	0.579138	0.623465
O13	O	0.755249	0.069135	0.123511
O14	O	1.255249	0.569135	0.623511
Cu15	Cu	0.672316	0.074136	0.146012
Cu16	Cu	1.172316	0.574136	0.646012
Cu17	Cu	0.672332	0.074134	-0.145717
Cu18	Cu	1.172332	0.574134	0.354283
O19	O	0.667316	0.157068	0.123459
O20	O	1.167316	0.657068	0.623459
C21	C	0.568176	0.078882	0.000119
C22	C	1.068176	0.578882	0.500119
C23	C	0.504959	0.078116	0.000103
C24	C	1.004959	0.578116	0.500103
C25	C	0.105856	0.125350	0.000154
C26	C	0.605856	0.625350	0.500154
C27	C	0.046456	0.124638	0.000163
C28	C	0.546456	0.624638	0.500163
O29	O	0.009711	0.168424	0.000202
O30	O	0.509711	0.668424	0.500202
N31	N	0.023830	0.072362	0.000179
N32	N	0.523830	0.572362	0.500179
C33	C	0.060607	0.020794	0.000200
C34	C	0.560607	0.520794	0.500200
O35	O	0.035908	-0.023737	0.000215
O36	O	0.535908	0.476263	0.500215
C37	C	0.120006	0.021506	0.000201
C38	C	0.620006	0.521506	0.500201
C39	C	0.142629	0.073785	0.000171
C40	C	0.642629	0.573785	0.500171
C41	C	0.128479	0.177625	0.000125
C42	C	0.628479	0.677625	0.500125
C43	C	0.187876	0.178336	0.000113
C44	C	0.687876	0.678336	0.500113
C45	C	0.224649	0.126772	0.000130
C46	C	0.724649	0.626772	0.500130
C47	C	0.202025	0.074497	0.000159
C48	C	0.702025	0.574497	0.500159
C49	C	0.156783	-0.030062	0.000233
C50	C	0.656783	0.469938	0.500233
C51	C	0.216185	-0.029345	0.000236
C52	C	0.716185	0.470655	0.500236
C53	C	0.238808	0.022934	0.000205
C54	C	0.738808	0.522934	0.500205
C55	C	0.298194	0.023643	0.000163
C56	C	0.798194	0.523643	0.500163
N57	N	0.320820	0.075920	0.000148
N58	N	0.820820	0.575920	0.500148
C59	C	0.284048	0.127484	0.000131
C60	C	0.784048	0.627484	0.500131
C61	C	-0.064135	0.019302	0.000200
C62	C	0.435865	0.519302	0.500200
C63	C	-0.123533	0.018589	0.000188
C64	C	0.376467	0.518589	0.500188
C65	C	-0.137680	0.122434	0.000154
C66	C	0.362320	0.622434	0.500154
C67	C	-0.078281	0.123146	0.000155
C68	C	0.421719	0.623146	0.500155
C69	C	-0.041509	0.071578	0.000184
C70	C	0.458491	0.571578	0.500184
C71	C	0.408784	0.128974	0.000104
C72	C	0.908784	0.628974	0.500104
C73	C	0.468186	0.129680	0.000086
C74	C	0.968186	0.629680	0.500086
C75	C	0.482329	0.025836	0.000128
C76	C	0.982329	0.525836	0.500128
C77	C	0.422932	0.025129	0.000138
C78	C	0.922932	0.525129	0.500138
C79	C	0.386160	0.076702	0.000132
C80	C	0.886160	0.576702	0.500132
O81	O	0.334974	-0.020119	0.000131
O82	O	0.834974	0.479881	0.500131
O83	O	0.308755	0.172007	0.000135
O84	O	0.808755	0.672007	0.500135
C85	C	0.677071	-0.030013	0.000180
C86	C	1.177071	0.469987	0.500180
C87	C	0.676305	-0.093230	0.000191
C88	C	1.176305	0.406770	0.500191
C89	C	0.723539	-0.492333	0.000123
C90	C	1.223539	0.007667	0.500123
C91	C	0.722827	-0.551733	0.000111
C92	C	1.222827	-0.051733	0.500111
O93	O	0.766613	-0.588478	0.000068
O94	O	1.266613	-0.088478	0.500068
N95	N	0.670551	-0.574359	0.000098
N96	N	1.170551	-0.074359	0.500098
C97	C	0.618983	-0.537582	0.000081
C98	C	1.118983	-0.037582	0.500081
O99	O	0.574452	-0.562281	0.000067
O100	O	1.074452	-0.062281	0.500067
C101	C	0.619695	-0.478182	0.000082
C102	C	1.119695	0.021818	0.500082
C103	C	0.671974	-0.455560	0.000110
C104	C	1.171974	0.044440	0.500110
C105	C	0.775814	-0.469710	0.000149
C106	C	1.275814	0.030290	0.500149
C107	C	0.776525	-0.410313	0.000164
C108	C	1.276525	0.089687	0.500164
C109	C	0.724961	-0.373540	0.000151
C110	C	1.224961	0.126460	0.500151
C111	C	0.672685	-0.396164	0.000124
C112	C	1.172685	0.103836	0.500124
C113	C	0.568127	-0.441406	0.000054
C114	C	1.068127	0.058594	0.500054
C115	C	0.568844	-0.382004	0.000054
C116	C	1.068844	0.117996	0.500054
C117	C	0.621123	-0.359381	0.000082
C118	C	1.121123	0.140619	0.500082
C119	C	0.621832	-0.299995	0.000126
C120	C	1.121832	0.200005	0.500126
N121	N	0.674109	-0.277368	0.000139
N122	N	1.174109	0.222632	0.500139
C123	C	0.725673	-0.314141	0.000152
C124	C	1.225673	0.185859	0.500152
C125	C	0.617491	-0.662324	0.000077
C126	C	1.117491	-0.162324	0.500077
C127	C	0.616778	-0.721722	0.000086
C128	C	1.116778	-0.221722	0.500086
C129	C	0.720623	-0.735869	0.000114
C130	C	1.220623	-0.235869	0.500114
C131	C	0.721335	-0.676470	0.000115
C132	C	1.221335	-0.176470	0.500115
C133	C	0.669767	-0.639698	0.000090
C134	C	1.169767	-0.139698	0.500090
C135	C	0.727163	-0.189405	0.000183
C136	C	1.227163	0.310595	0.500183
C137	C	0.727869	-0.130003	0.000203
C138	C	1.227869	0.369997	0.500203
C139	C	0.624025	-0.115860	0.000168
C140	C	1.124025	0.384140	0.500168
C141	C	0.623318	-0.175257	0.000156
C142	C	1.123318	0.324743	0.500156
C143	C	0.674891	-0.212029	0.000158
C144	C	1.174891	0.287971	0.500158
O145	O	0.578070	-0.263215	0.000163
O146	O	1.078070	0.236785	0.500163
O147	O	0.770196	-0.289433	0.000146
O148	O	1.270196	0.210567	0.500146
C149	C	0.776472	0.069388	0.000172
C150	C	1.276472	0.569388	0.500172
C151	C	0.839689	0.070154	0.000179
C152	C	1.339689	0.570154	0.500179
C153	C	0.667577	0.178283	0.000112
C154	C	1.167577	0.678283	0.500112
C155	C	0.668343	0.241500	0.000091
C156	C	1.168343	0.741500	0.500091
N157	N	0.672310	0.074138	0.351198
N158	N	1.172310	0.574138	0.851198
N159	N	0.672343	0.074128	-0.350903
N160	N	1.172343	0.574128	0.149097
C161	C	0.625132	0.121023	0.586203
C162	C	1.125132	0.621023	1.086203
C163	C	0.625232	0.121194	0.414312
C164	C	1.125232	0.621194	0.914312
C165	C	0.731662	0.086782	0.413547
C166	C	1.231662	0.586782	0.913547
C167	C	0.731404	0.087113	0.585492
C168	C	1.231404	0.587113	1.085492
C169	C	0.660730	0.014449	0.585758
C170	C	1.160730	0.514449	1.085758
C171	C	0.659358	0.014857	0.413803
C172	C	1.159358	0.514857	0.913803
H173	H	0.206289	0.220908	0.000087
H174	H	0.706289	0.720908	0.500087
C175	C	0.398046	-0.032381	0.000153
C176	C	0.898046	0.467619	0.500153
N177	N	0.379307	-0.075699	0.000176
N178	N	0.879307	0.424301	0.500176
H179	H	0.762610	-0.765821	0.000118
H180	H	1.262610	-0.265821	0.500118
H181	H	0.512280	-0.016146	0.000136
H182	H	1.012280	0.483854	0.500136
C183	C	0.565808	-0.200143	0.000134
C184	C	1.065808	0.299857	0.500134
N185	N	0.522490	-0.218882	0.000102
N186	N	1.022490	0.281118	0.500102
C187	C	0.780236	0.041850	0.358313
C188	C	1.280236	0.541850	0.858313
N189	N	0.816820	0.008008	0.316707
N190	N	1.316820	0.508008	0.816707
C191	C	0.565613	0.111094	0.357361
C192	C	1.065613	0.611094	0.857361
N193	N	0.520704	0.103490	0.314474
N194	N	1.020704	0.603490	0.814474
H195	H	0.615699	0.005253	0.373053
H196	H	1.115699	0.505253	0.873053
C197	C	0.834037	-0.385437	0.000179
C198	C	1.334037	0.114563	0.500179
N199	N	0.877359	-0.366704	0.000184
N200	N	1.377359	0.133296	0.500184
H201	H	0.763906	-0.658056	0.000136
H202	H	1.263906	-0.158056	0.500136
H203	H	0.378851	0.170970	0.000103
H204	H	0.878851	0.670970	0.500103
C205	C	0.783896	-0.229845	0.000199
C206	C	1.283896	0.270155	0.500199
N207	N	0.826628	-0.260304	0.000224
N208	N	1.326628	0.239696	0.500224
H209	H	0.817806	-0.499645	0.000154
H210	H	1.317806	0.000355	0.500154
H211	H	0.098544	0.219617	0.000117
H212	H	0.598544	0.719617	0.500117
C213	C	-0.148411	-0.038922	0.000212
C214	C	0.351589	0.461078	0.500212
N215	N	-0.167146	-0.082242	0.000242
N216	N	0.332854	0.417758	0.500242
C217	C	0.603546	-0.002078	0.644390
C218	C	1.103546	0.497922	1.144390
N219	N	0.560473	-0.014519	0.688550
N220	N	1.060473	0.485481	1.188550
H221	H	0.574207	-0.740136	0.000089
H222	H	1.074207	-0.240136	0.500089
H223	H	0.695162	-0.020445	0.626431
H224	H	1.195162	0.479555	1.126431
H225	H	-0.059867	0.165717	0.000139
H226	H	0.440133	0.665717	0.500139
H227	H	0.582043	-0.085909	0.000163
H228	H	1.082043	0.414091	0.500163
H229	H	0.575496	-0.632386	0.000069
H230	H	1.075496	-0.132386	0.500069
C231	C	0.745287	0.145901	0.639638
C232	C	1.245287	0.645901	1.139638
N233	N	0.755739	0.190184	0.680414
N234	N	1.255739	0.690184	1.180414
C235	C	0.635202	0.181034	0.358701
C236	C	1.135202	0.681034	0.858701
N237	N	0.642715	0.226108	0.316816
N238	N	1.142715	0.726108	0.816816
C239	C	0.745893	0.144899	0.355357
C240	C	1.245893	0.644899	0.855357
N241	N	0.756607	0.188676	0.311535
N242	N	1.256607	0.688676	0.811535
H243	H	0.767614	0.054285	0.627095
H244	H	1.267614	0.554285	1.127095
H245	H	0.580863	0.113666	0.627587
H246	H	1.080863	0.613666	1.127587
H247	H	0.691533	-0.021648	0.370848
H248	H	1.191533	0.478352	0.870848
C249	C	0.510614	-0.466277	0.000013
C250	C	1.010614	0.033723	0.500013
N251	N	0.467292	-0.485008	-0.000023
N252	N	0.967292	0.014992	0.499977
H253	H	-0.167632	0.164421	0.000147
H254	H	0.332368	0.664421	0.500147
C255	C	-0.023690	-0.037431	0.000208
C256	C	0.476310	0.462569	0.500208
N257	N	0.006771	-0.080162	0.000213
N258	N	0.506771	0.419838	0.500213
C259	C	0.512113	-0.341557	0.000032
C260	C	1.012113	0.158443	0.500032
N261	N	0.469384	-0.311094	0.000021
N262	N	0.969384	0.188906	0.500021
C263	C	0.131912	-0.087575	0.000296
C264	C	0.631912	0.412425	0.500296
N265	N	0.113181	-0.130897	0.000356
N266	N	0.613181	0.369103	0.500356
C267	C	0.493067	0.187194	0.000064
C268	C	0.993067	0.687194	0.500064
N269	N	0.511805	0.230513	0.000053
N270	N	1.011805	0.730513	0.500053
C271	C	0.256632	-0.086076	0.000261
C272	C	0.756632	0.413924	0.500261
N273	N	0.287095	-0.128805	0.000275
N274	N	0.787095	0.371195	0.500275
C275	C	0.634961	0.180527	0.644535
C276	C	1.134961	0.680527	1.144535
N277	N	0.642366	0.225345	0.688473
N278	N	1.142366	0.725345	1.188473
H279	H	0.770443	-0.111587	0.000230
H280	H	1.270443	0.388413	0.500230
