data_functionalizedCrystal
_audit_creation_method	'MofGen! by Chris Wilmer'
_symmetry_space_group_name_H-M	'P1'
_symmetry_Int_Tables_number	1
_symmetry_cell_setting	triclinic
loop_
_symmetry_equiv_pos_as_xyz
  x,y,z
_cell_length_a	10.654550
_cell_length_b	15.944551
_cell_length_c	9.130313
_cell_angle_alpha	89.994529
_cell_angle_beta	89.999724
_cell_angle_gamma	83.991834
loop_
_atom_site_label
_atom_site_type_symbol
_atom_site_fract_x
_atom_site_fract_y
_atom_site_fract_z
O1	O	1.666313	0.117977	-0.121694
O2	O	1.300689	0.129217	-0.121721
O3	O	1.493485	0.001379	-0.121693
O4	O	1.473517	0.245814	-0.121721
O5	O	1.493472	0.001376	0.121906
O6	O	1.300676	0.129213	0.121878
O7	O	1.666300	0.117973	0.121905
Cu8	Cu	1.483487	0.123592	0.144134
Cu9	Cu	1.483502	0.123597	-0.143950
O10	O	1.473503	0.245810	0.121878
C11	C	1.253895	0.128389	0.000075
C12	C	1.114484	0.125920	0.000065
C13	C	1.034024	0.201189	0.000061
C14	C	0.903034	0.198863	0.000087
C15	C	0.932975	0.045995	0.000115
C16	C	1.063963	0.048321	0.000100
C17	C	1.492650	-0.029921	0.000106
C18	C	1.490165	-0.123182	0.000107
C19	C	1.364720	-0.338764	0.000077
C20	C	1.422966	-0.399446	0.120191
C21	C	1.485668	-0.293933	0.000095
C22	C	1.423007	-0.399426	-0.119979
C23	C	1.481317	-0.458871	0.000078
C24	C	1.543947	-0.353387	0.120308
C25	C	1.543972	-0.353360	-0.119969
C26	C	1.602306	-0.414024	0.000173
C27	C	1.488172	-0.198917	0.000107
C28	C	1.478822	-0.553887	0.000077
C29	C	1.713094	0.118800	0.000106
C30	C	1.852505	0.121269	0.000106
C31	C	1.474339	0.277110	0.000075
C32	C	1.476824	0.370371	0.000065
N33	N	1.483485	0.123589	0.346757
N34	N	1.483514	0.123594	-0.346572
C35	C	1.568884	0.067007	0.423421
C36	C	1.568896	0.067007	0.576758
C37	C	1.398106	0.180179	0.576753
C38	C	1.398089	0.180174	0.423419
H39	H	0.891824	-0.017184	0.000152
H40	H	1.264327	-0.306038	0.000190
C41	C	1.305510	0.241748	0.340252
C42	C	1.325896	0.324420	0.377490
C43	C	1.240649	0.381159	0.300892
H44	H	1.221649	0.232218	0.365334
H45	H	1.317733	0.233696	0.237938
H46	H	1.313663	0.332468	0.479781
H47	H	1.409740	0.333977	0.352404
H48	H	1.252873	0.373107	0.198579
H49	H	1.156794	0.371621	0.325980
H50	H	1.254478	0.437258	0.326137
C51	C	1.354799	-0.426439	-0.255507
C52	C	1.313670	-0.355223	-0.339154
C53	C	1.250839	-0.380072	-0.464015
H54	H	1.284144	-0.454284	-0.226835
H55	H	1.410747	-0.463751	-0.312156
H56	H	1.257725	-0.317925	-0.282516
H57	H	1.384300	-0.327370	-0.367864
H58	H	1.306787	-0.417384	-0.520664
H59	H	1.180189	-0.407917	-0.435329
H60	H	1.222936	-0.331757	-0.520792
H61	H	1.075154	0.264375	0.000044
C62	C	1.611996	-0.326176	0.255810
C63	C	1.613450	-0.238475	0.254287
C64	C	1.676104	-0.213374	0.379097
H65	H	1.696183	-0.352533	0.256293
H66	H	1.569303	-0.342271	0.341032
H67	H	1.656145	-0.222387	0.169088
H68	H	1.529280	-0.212096	0.253826
H69	H	1.633411	-0.229470	0.464318
H70	H	1.760287	-0.239737	0.379569
H71	H	1.677088	-0.153867	0.378087
H72	H	0.837528	0.260155	0.000086
H73	H	1.638433	0.020931	0.639173
H74	H	1.129477	-0.012976	0.000108
C75	C	1.305199	0.241516	0.659917
C76	C	1.181797	0.227105	0.622675
C77	C	1.096178	0.283587	0.699270
H78	H	1.318657	0.297697	0.634835
H79	H	1.317358	0.233410	0.762231
H80	H	1.169643	0.235218	0.520384
H81	H	1.168299	0.170935	0.647761
H82	H	1.108337	0.275481	0.801584
H83	H	1.109648	0.339764	0.674182
H84	H	1.012441	0.273812	0.674022
C85	C	1.736306	-0.457427	0.000569
C86	C	1.799022	-0.434080	0.126552
C87	C	1.922456	-0.474057	0.126983
H88	H	1.779746	-0.440982	-0.083840
H89	H	1.734050	-0.516834	-0.000161
H90	H	1.801285	-0.374686	0.127268
H91	H	1.755620	-0.450526	0.210982
H92	H	1.920200	-0.533464	0.126254
H93	H	1.965884	-0.457609	0.042568
H94	H	1.965021	-0.458228	0.212467
H95	H	1.371804	-0.419852	0.221729
C96	C	1.612346	-0.326082	-0.255185
C97	C	1.717629	-0.286415	-0.212284
C98	C	1.780643	-0.261282	-0.336816
H99	H	1.556963	-0.287875	-0.310847
H100	H	1.639079	-0.374157	-0.313092
H101	H	1.690895	-0.238346	-0.154401
H102	H	1.773042	-0.324607	-0.156639
H103	H	1.807376	-0.309357	-0.394723
H104	H	1.725250	-0.223077	-0.392469
H105	H	1.852091	-0.234372	-0.307725
H106	H	1.638416	0.020930	0.361006
