data_functionalizedCrystal
_audit_creation_method	'MofGen! by Chris Wilmer'
_symmetry_space_group_name_H-M	'P1'
_symmetry_Int_Tables_number	1
_symmetry_cell_setting	triclinic
loop_
_symmetry_equiv_pos_as_xyz
  x,y,z
_cell_length_a	27.440280
_cell_length_b	12.970454
_cell_length_c	27.440280
_cell_angle_alpha	119.994885
_cell_angle_beta	89.993636
_cell_angle_gamma	59.998424
loop_
_atom_site_label
_atom_site_type_symbol
_atom_site_fract_x
_atom_site_fract_y
_atom_site_fract_z
Zr1	Zr	0.469502	1.128389	0.063893
O2	O	0.391685	1.343479	0.141714
O3	O	0.493358	0.913298	0.040037
O4	O	0.493359	1.128363	0.141700
O5	O	0.391682	1.128434	-0.040143
O6	O	0.573562	1.128343	0.141690
O7	O	0.391683	1.128414	0.040050
O8	O	0.573559	0.743631	-0.040167
O9	O	0.391685	1.513147	0.141714
O10	O	0.563386	1.001753	0.029856
O11	O	0.503531	1.001783	-0.029984
O12	O	0.503533	1.254995	0.089711
O13	O	0.443677	1.255024	0.029871
Zr14	Zr	0.597415	1.128389	-0.064022
Zr15	Zr	0.597417	1.128357	0.063877
Zr16	Zr	0.469501	1.128421	-0.064006
Zr17	Zr	0.469502	1.398988	0.063894
Zr18	Zr	0.597415	0.857789	-0.064022
O19	O	0.573559	1.343480	-0.040165
O20	O	0.573562	1.343434	0.141691
O21	O	0.391682	1.343525	-0.040142
O22	O	0.675233	0.913298	-0.141842
O23	O	0.675235	0.913253	0.040014
O24	O	0.493355	0.913343	-0.141819
O25	O	0.675235	1.128344	0.040015
O26	O	0.573558	1.128414	-0.141829
O27	O	0.493355	1.128434	-0.141819
O28	O	0.675234	1.128364	-0.040179
O29	O	0.493359	1.513121	0.141701
O30	O	0.573558	0.743656	-0.141829
O31	O	0.675233	0.743631	-0.141842
O32	O	0.675234	0.743605	-0.040179
O33	O	0.391683	1.513172	0.040051
O34	O	0.493358	1.513147	0.040039
O35	O	0.563385	1.001783	-0.089839
O36	O	0.623240	1.001753	-0.029999
O37	O	0.563386	1.254995	0.029856
O38	O	0.503531	1.255024	-0.029984
C39	C	0.533459	0.789909	-0.000065
C40	C	0.533459	0.675033	-0.000065
C41	C	0.373457	1.128428	-0.000044
C42	C	0.319155	1.128442	-0.000037
C43	C	0.013700	0.996175	-0.031325
C44	C	-0.037319	0.996167	-0.031330
O45	O	-0.037136	0.883745	-0.057920
N46	N	-0.094078	1.128355	-0.000085
C47	C	-0.099819	1.260560	0.031162
O48	O	-0.152782	1.372995	0.057737
C49	C	-0.048801	1.260566	0.031163
C50	C	0.007958	1.128370	-0.000079
C51	C	0.070456	0.863989	-0.062564
C52	C	0.121471	0.863998	-0.062558
C53	C	0.115729	0.996192	-0.031312
C54	C	0.058973	1.128378	-0.000072
C55	C	-0.054542	1.392770	0.062406
C56	C	-0.003518	1.392765	0.062405
C57	C	0.053241	1.260568	0.031163
C58	C	0.104246	1.260581	0.031180
N59	N	0.161006	1.128393	-0.000064
C60	C	0.166747	0.996199	-0.031310
C61	C	-0.206957	1.260536	0.031155
C62	C	-0.257975	1.260531	0.031158
C63	C	-0.195471	0.996138	-0.031335
C64	C	-0.144453	0.996144	-0.031333
C65	C	-0.150198	1.128348	-0.000089
C66	C	0.273880	0.996227	-0.031294
C67	C	0.324896	0.996247	-0.031283
C68	C	0.262388	1.260640	0.031206
C69	C	0.211376	1.260620	0.031198
C70	C	0.217126	1.128402	-0.000057
O71	O	0.104109	1.372946	0.057754
O72	O	0.219712	0.883782	-0.057887
C73	C	0.693460	1.128349	-0.000084
C74	C	0.747763	1.128336	-0.000091
C75	C	0.533461	1.128349	0.159918
C76	C	0.533462	1.128335	0.214215
C77	C	0.533459	1.466868	-0.000063
C78	C	0.533459	1.581745	-0.000063
C79	C	0.564709	0.996175	0.417679
C80	C	0.564711	0.996167	0.366656
O81	O	0.591299	0.883745	0.313697
N82	N	0.533466	1.128355	0.372383
C83	C	0.502221	1.260560	0.429137
O84	O	0.475645	1.372995	0.429322
C85	C	0.502223	1.260566	0.480158
C86	C	0.533465	1.128370	0.474426
C87	C	0.595950	0.863989	0.411950
C88	C	0.595946	0.863998	0.462969
C89	C	0.564703	0.996192	0.519717
C90	C	0.533462	1.128378	0.525445
C91	C	0.470982	1.392769	0.536910
C92	C	0.470986	1.392765	0.587932
C93	C	0.502229	1.260568	0.582200
C94	C	0.502215	1.260581	0.633212
N95	N	0.533460	1.128393	0.627485
C96	C	0.564704	0.996199	0.570738
C97	C	0.502221	1.260536	0.321987
C98	C	0.502215	1.260531	0.270967
C99	C	0.564706	0.996137	0.208490
C100	C	0.564708	0.996144	0.259511
C101	C	0.533466	1.128348	0.316260
C102	C	0.564695	0.996227	0.677883
C103	C	0.564687	0.996247	0.728909
C104	C	0.502198	1.260640	0.791381
C105	C	0.502203	1.260620	0.740360
C106	C	0.533456	1.128402	0.683609
O107	O	0.475643	1.372946	0.686190
O108	O	0.591282	0.883782	0.570562
C109	C	0.533453	1.128429	0.839954
C110	C	0.533443	1.128442	0.785657
C111	C	0.693460	0.789870	-0.000085
C112	C	0.747763	0.674980	-0.000092
C113	C	0.533456	0.789949	-0.160047
C114	C	0.533455	0.675086	-0.214344
C115	C	0.693457	0.789910	-0.160067
C116	C	0.747759	0.675033	-0.214371
C117	C	0.373460	1.466868	0.159939
C118	C	0.319158	1.581744	0.214243
C119	C	0.373458	1.466908	-0.000043
C120	C	0.319155	1.581798	-0.000036
C121	C	0.533461	1.466828	0.159919
C122	C	0.533462	1.581691	0.214216
C123	C	0.742021	0.621026	0.031154
C124	C	0.793039	0.513089	0.031159
C125	C	0.849799	0.459101	-0.000085
C126	C	0.855540	0.513065	-0.031332
C127	C	0.804522	0.621007	-0.031333
C128	C	0.564698	0.621145	-0.271091
C129	C	0.564695	0.513234	-0.322114
C130	C	0.533453	0.459259	-0.316388
C131	C	0.502206	0.513210	-0.259634
C132	C	0.502206	0.621127	-0.208613
C133	C	0.804510	0.621070	-0.208637
C134	C	0.855537	0.513146	-0.259656
C135	C	0.849813	0.459180	-0.316409
C136	C	0.793057	0.513154	-0.322142
C137	C	0.742031	0.621083	-0.271123
C138	C	0.262408	1.635720	0.208508
C139	C	0.211380	1.743678	0.259528
C140	C	0.217104	1.797650	0.316280
C141	C	0.273860	1.743669	0.322013
C142	C	0.324886	1.635721	0.270995
C143	C	0.324896	1.635763	-0.031277
C144	C	0.273878	1.743729	-0.031268
C145	C	0.217118	1.797721	-0.000022
C146	C	0.211378	1.743752	0.031223
C147	C	0.262396	1.635795	0.031217
C148	C	0.564710	1.635633	0.208471
C149	C	0.564723	1.743544	0.259483
C150	C	0.533483	1.797520	0.316241
C151	C	0.502233	1.743568	0.321985
C152	C	0.502225	1.635651	0.270973
H153	H	0.278570	0.888562	-0.056746
O154	O	0.595037	0.673685	-0.276556
C155	C	0.588331	0.780533	-0.219360
H156	H	0.576833	0.762796	-0.185542
H157	H	0.631818	0.771764	-0.219933
H158	H	0.550921	0.893438	-0.206354
H159	H	0.075142	0.756334	-0.088011
O160	O	0.594966	1.583344	0.153327
C161	C	0.554862	1.609706	0.121943
H162	H	0.507789	1.704317	0.155049
H163	H	0.568411	1.638287	0.093732
H164	H	0.555956	1.507836	0.091671
O165	O	0.471827	0.460768	-0.254157
C166	C	0.427969	0.487173	-0.281784
H167	H	0.441088	0.500671	-0.316537
H168	H	0.424209	0.391269	-0.304455
H169	H	0.383147	0.590925	-0.246699
O170	O	0.595044	0.867849	0.153315
C171	C	0.588325	0.896206	0.109516
H172	H	0.576826	1.009807	0.129395
H173	H	0.631807	0.811769	0.070163
H174	H	0.550911	0.889971	0.093573
O175	O	0.533450	1.902314	0.365853
C176	C	0.499163	1.938429	0.417185
H177	H	0.496810	1.843781	0.405490
H178	H	0.520803	1.960849	0.453206
H179	H	0.452151	2.039859	0.434367
O180	O	0.471878	1.795805	0.377076
C181	C	0.444277	1.725093	0.371218
H182	H	0.468774	1.615682	0.325694
H183	H	0.445958	1.706510	0.407815
H184	H	0.395783	1.795904	0.375408
O185	O	0.899445	0.354285	-0.365904
C186	C	0.950759	0.318262	-0.348665
H187	H	0.939036	0.348009	-0.301571
H188	H	0.986796	0.196267	-0.380894
H189	H	0.967937	0.381377	-0.349591
H190	H	0.476776	1.591744	0.275659
H191	H	-0.100750	1.500419	0.087846
H192	H	0.371108	1.591811	-0.056725
H193	H	0.278564	1.787653	-0.056713
O194	O	0.910722	0.460402	-0.061675
C195	C	0.954514	0.353582	-0.054959
H196	H	0.934616	0.306414	-0.043443
H197	H	0.993861	0.262751	-0.098444
H198	H	0.970476	0.405202	-0.017559
H199	H	0.695809	0.664982	0.056604
H200	H	0.590144	0.888562	0.631680
O201	O	0.595011	0.461082	-0.377207
C202	C	0.572035	0.576281	-0.383739
H203	H	0.549151	0.684245	-0.337808
H204	H	0.610064	0.560006	-0.410567
H205	H	0.538311	0.577744	-0.408125
H206	H	0.175550	1.885547	0.357818
H207	H	0.590169	1.787461	0.254795
H208	H	0.257712	1.591859	0.056655
O209	O	0.533541	0.354377	-0.366014
C210	C	0.567808	0.318376	-0.417326
H211	H	0.600840	0.348119	-0.405609
H212	H	0.593246	0.196385	-0.453364
H213	H	0.537047	0.381509	-0.434498
O214	O	0.256733	1.583524	0.153427
C215	C	0.195697	1.654316	0.159319
H216	H	0.168491	1.763709	0.204851
H217	H	0.188588	1.672944	0.122735
H218	H	0.180656	1.583542	0.155135
H219	H	0.476767	0.665031	-0.162409
O220	O	0.156208	1.388945	0.061466
C221	C	0.124837	1.396897	0.021357
H222	H	0.144322	1.282129	-0.019767
H223	H	0.075733	1.452853	0.044020
H224	H	0.129088	1.462138	0.007386
O225	O	0.379988	0.867694	-0.061687
C226	C	0.374110	0.751020	-0.089255
H227	H	0.328583	0.789781	-0.095442
H228	H	0.410708	0.658570	-0.134638
H229	H	0.378288	0.710361	-0.059981
H230	H	0.788354	0.469165	0.056604
O231	O	0.910620	0.460835	-0.253972
C232	C	0.904724	0.531630	-0.192940
H233	H	0.859190	0.576099	-0.165739
H234	H	0.941312	0.450654	-0.185829
H235	H	0.908901	0.625380	-0.177899
H236	H	0.167683	0.756349	-0.087995
H237	H	0.175581	1.885627	-0.000022
H238	H	0.809181	0.664994	-0.162430
H239	H	0.788405	0.469198	-0.368357
H240	H	0.695824	0.665005	-0.275800
O241	O	0.809997	0.673595	-0.061646
C242	C	0.752802	0.780410	-0.054971
H243	H	0.718972	0.827661	-0.012769
H244	H	0.753376	0.871185	-0.051411
H245	H	0.739808	0.728760	-0.095333
O246	O	-0.089365	0.867600	-0.061738
C247	C	-0.095246	0.750930	-0.089300
H248	H	-0.140776	0.789698	-0.095480
H249	H	-0.058652	0.658479	-0.134686
H250	H	-0.091064	0.710272	-0.060025
H251	H	0.278514	1.787627	0.368228
H252	H	0.165172	1.787610	0.254848
H253	H	0.165157	1.787729	0.056662
O254	O	-0.313063	1.389077	0.061522
C255	C	-0.307182	1.505747	0.089113
H256	H	-0.261650	1.466989	0.064609
H257	H	-0.343773	1.598214	0.087436
H258	H	-0.311366	1.546379	0.137603
O259	O	-0.212466	1.388875	0.061557
C260	C	-0.184843	1.396803	0.105416
H261	H	-0.150064	1.282027	0.092282
H262	H	-0.162199	1.452775	0.109206
H263	H	-0.219929	1.462018	0.150226
O264	O	0.379978	1.583549	0.276652
C265	C	0.386514	1.698733	0.308114
H266	H	0.340581	1.806711	0.336260
H267	H	0.413332	1.682476	0.338455
H268	H	0.410915	1.700154	0.275071
H269	H	-0.008202	1.500424	0.087840
O270	O	0.256924	1.388917	0.061505
C271	C	0.314127	1.360561	0.054817
H272	H	0.347949	1.246948	0.012622
H273	H	0.313568	1.444980	0.051236
H274	H	0.327119	1.366824	0.095183
H275	H	-0.190804	0.888497	-0.056775
H276	H	0.891336	0.371206	-0.000080
H277	H	0.621390	0.756349	0.458295
O278	O	0.626310	0.735434	0.356872
C279	C	0.653893	0.618784	0.362772
H280	H	0.629384	0.657576	0.408308
H281	H	0.652208	0.526328	0.326194
H282	H	0.702388	0.578122	0.358583
O283	O	0.595091	0.867696	0.723235
C284	C	0.622657	0.751018	0.662205
H285	H	0.628844	0.789768	0.634992
H286	H	0.668042	0.658559	0.655093
H287	H	0.593377	0.710378	0.647178
H288	H	0.590149	0.888498	0.254839
H289	H	0.476766	1.368179	0.275641
H290	H	0.476774	1.368199	0.368194
H291	H	0.445546	1.500424	0.634138
O292	O	0.440627	1.521318	0.542592
C293	C	0.413047	1.637978	0.603625
H294	H	0.437555	1.599194	0.630825
H295	H	0.414735	1.730424	0.610735
H296	H	0.364551	1.678650	0.618668
O297	O	0.471946	1.389009	0.846523
C298	C	0.512062	1.396870	0.877895
H299	H	0.559132	1.321843	0.844782
H300	H	0.498525	1.513780	0.906106
H301	H	0.510968	1.361346	0.908167
H302	H	0.476754	1.368266	0.745028
