data_functionalizedCrystal
_audit_creation_method	'MofGen! by Chris Wilmer'
_symmetry_space_group_name_H-M	'P1'
_symmetry_Int_Tables_number	1
_symmetry_cell_setting	triclinic
loop_
_symmetry_equiv_pos_as_xyz
  x,y,z
_cell_length_a	10.654550
_cell_length_b	10.654550
_cell_length_c	9.130313
_cell_angle_alpha	89.999890
_cell_angle_beta	89.996220
_cell_angle_gamma	84.484903
loop_
_atom_site_label
_atom_site_type_symbol
_atom_site_fract_x
_atom_site_fract_y
_atom_site_fract_z
O1	O	1.667834	0.176393	-0.121916
O2	O	1.302356	0.193199	-0.121892
O3	O	1.493498	0.002057	-0.121899
O4	O	1.476692	0.367535	-0.121909
O5	O	1.493496	0.002062	0.121700
O6	O	1.302353	0.193204	0.121707
O7	O	1.667832	0.176398	0.121683
Cu8	Cu	1.485092	0.184802	0.143937
Cu9	Cu	1.485095	0.184796	-0.144146
O10	O	1.476689	0.367540	0.121690
C11	C	1.255556	0.191968	-0.000089
C12	C	1.116113	0.188276	-0.000080
C13	C	1.492263	-0.044739	-0.000101
C14	C	1.488571	-0.184182	-0.000106
C15	C	1.036627	0.300817	-0.000105
C16	C	0.905607	0.297341	-0.000130
C17	C	0.933570	0.068771	-0.000113
C18	C	1.064588	0.072249	-0.000077
C19	C	1.020482	0.432780	-0.000121
C20	C	0.889461	0.429304	-0.000146
C21	C	1.601112	-0.263668	-0.000109
C22	C	1.597636	-0.394688	-0.000119
C23	C	1.369066	-0.366725	-0.000117
C24	C	1.372544	-0.235707	-0.000118
C25	C	1.733075	-0.279813	-0.000104
C26	C	1.729599	-0.410834	-0.000114
C27	C	1.714631	0.177630	-0.000123
C28	C	1.854074	0.181321	-0.000141
C29	C	1.477925	0.414336	-0.000111
C30	C	1.481616	0.553779	-0.000116
N31	N	1.485099	0.184805	0.346560
N32	N	1.485098	0.184782	-0.346769
C33	C	1.569759	0.100196	0.423209
C34	C	1.569756	0.100181	0.576546
C35	C	1.400429	0.269395	0.576571
C36	C	1.400427	0.269403	0.423237
C37	C	1.667523	0.002506	0.423195
C38	C	1.667519	0.002491	0.576532
H39	H	0.891602	-0.025694	-0.000132
C40	C	1.079063	-0.154028	-0.000044
C41	C	1.151961	-0.051460	-0.000034
H42	H	1.133006	-0.230402	-0.000025
H43	H	1.027358	-0.150618	0.084883
H44	H	1.027400	-0.150633	-0.085015
H45	H	1.203617	-0.054849	0.084942
H46	H	1.203687	-0.054871	-0.084970
H47	H	1.280902	-0.170993	-0.000136
C48	C	1.328538	0.486125	0.623800
C49	C	1.307360	0.362386	0.660854
H50	H	1.271073	0.543532	0.675824
H51	H	1.412457	0.500540	0.648941
H52	H	1.316426	0.498223	0.521507
H53	H	1.319481	0.350285	0.763146
H54	H	1.223420	0.347965	0.635723
C55	C	1.173187	-0.383233	-0.125352
C56	C	1.241535	-0.423369	-0.000127
H57	H	1.094457	-0.418209	-0.125359
H58	H	1.159152	-0.293839	-0.125334
H59	H	1.219594	-0.410453	-0.210291
H60	H	1.195132	-0.396140	0.084813
H61	H	1.255566	-0.512782	-0.000131
H62	H	1.049812	0.484393	0.101829
H63	H	1.056138	0.474797	-0.105294
C64	C	1.723754	-0.178998	0.727079
C65	C	1.626347	-0.120647	0.640769
H66	H	1.698332	-0.255009	0.766750
H67	H	1.796875	-0.197459	0.668503
H68	H	1.742098	-0.124102	0.804533
H69	H	1.608009	-0.175539	0.563308
H70	H	1.553204	-0.102190	0.699348
H71	H	0.843789	0.469187	0.105021
H72	H	1.784692	-0.250457	-0.102046
H73	H	0.847729	0.479023	-0.102101
C74	C	1.849040	-0.053485	0.272570
C75	C	1.790583	0.043836	0.358932
H76	H	1.924998	-0.027947	0.232881
H77	H	1.867612	-0.126602	0.331116
H78	H	1.794160	-0.071891	0.195129
H79	H	1.845459	0.062236	0.436380
H80	H	1.772015	0.116976	0.300383
H81	H	1.775096	-0.244184	0.105075
H82	H	1.769481	-0.456479	-0.105296
C83	C	1.520019	-0.154223	0.418142
C84	C	1.638559	-0.127801	0.367007
H85	H	1.502135	-0.234663	0.383448
H86	H	1.520031	-0.154223	0.522172
H87	H	1.457494	-0.091710	0.383463
H88	H	1.701086	-0.190309	0.401695
H89	H	1.638557	-0.127811	0.262956
C90	C	1.784626	0.141278	0.717939
C91	C	1.797800	0.031539	0.632717
H92	H	1.865053	0.159204	0.752629
H93	H	1.748898	0.209748	0.660149
H94	H	1.731007	0.129295	0.798852
H95	H	1.851412	0.043526	0.551798
H96	H	1.833546	-0.036947	0.690510
H97	H	1.779319	-0.452592	0.101827
H98	H	1.331480	0.338287	0.360831
