data_functionalizedCrystal
_audit_creation_method	'MofGen! by Chris Wilmer'
_symmetry_space_group_name_H-M	'P1'
_symmetry_Int_Tables_number	1
_symmetry_cell_setting	triclinic
loop_
_symmetry_equiv_pos_as_xyz
  x,y,z
_cell_length_a	10.723024
_cell_length_b	15.995350
_cell_length_c	9.798715
_cell_angle_alpha	89.999084
_cell_angle_beta	89.996609
_cell_angle_gamma	83.980122
loop_
_atom_site_label
_atom_site_type_symbol
_atom_site_fract_x
_atom_site_fract_y
_atom_site_fract_z
O1	O	1.655689	0.117435	-0.113475
O2	O	1.292393	0.128675	-0.113479
O3	O	1.483972	0.001224	-0.113475
O4	O	1.464110	0.244886	-0.113478
O5	O	1.483958	0.001224	0.113507
O6	O	1.292379	0.128675	0.113503
O7	O	1.655675	0.117434	0.113507
Zn8	Zn	1.474025	0.123055	0.149544
Zn9	Zn	1.474044	0.123055	-0.149515
O10	O	1.464096	0.244885	0.113504
C11	C	1.245897	0.127857	0.000012
C12	C	1.107374	0.125410	0.000010
C13	C	1.031482	0.196725	0.000008
C14	C	0.888310	0.194197	0.000007
C15	C	1.483144	-0.029975	0.000013
C16	C	1.480682	-0.122940	0.000005
C17	C	1.471842	-0.460738	0.000010
C18	C	1.335403	-0.414088	-0.000501
C19	C	1.337865	-0.317383	0.000011
C20	C	1.476227	-0.293152	0.000007
C21	C	1.543515	-0.333843	0.129623
C22	C	1.540088	-0.430499	0.129732
C23	C	1.542922	-0.430840	-0.128390
C24	C	1.542890	-0.333895	-0.130103
C25	C	1.478712	-0.198441	0.000010
C26	C	1.469360	-0.555450	0.000016
C27	C	1.702171	0.118252	0.000014
C28	C	1.840694	0.120700	0.000007
C29	C	1.464924	0.276085	0.000013
C30	C	1.467386	0.369049	0.000011
N31	N	1.474021	0.123054	0.353643
N32	N	1.474057	0.123049	-0.353615
C33	C	1.554463	0.069305	0.421422
C34	C	1.554483	0.069302	0.578584
H35	H	1.284971	-0.289265	-0.092903
H36	H	1.623314	0.023287	0.363100
C37	C	1.646253	0.007804	0.656120
C38	C	1.625715	-0.074556	0.621441
C39	C	1.710241	-0.131232	0.692829
H40	H	1.634148	0.015841	0.751443
H41	H	1.729636	0.017182	0.632725
H42	H	1.542352	-0.083930	0.644845
H43	H	1.637829	-0.082620	0.526131
H44	H	1.793624	-0.121854	0.669434
H45	H	1.698129	-0.123188	0.788148
H46	H	1.696325	-0.187120	0.669300
C47	C	1.483661	-0.458689	-0.259429
C48	C	1.572639	-0.510459	-0.333730
C49	C	1.518074	-0.536138	-0.454431
H50	H	1.455337	-0.410732	-0.312505
H51	H	1.414618	-0.488964	-0.237822
H52	H	1.641659	-0.480185	-0.355339
H53	H	1.600969	-0.558428	-0.280694
H54	H	1.449031	-0.566412	-0.432825
H55	H	1.489752	-0.488176	-0.507495
H56	H	1.578433	-0.571272	-0.504853
H57	H	1.640259	-0.462172	0.135610
C58	C	1.382063	0.184448	0.431151
C59	C	1.307825	0.234022	0.338164
C60	C	1.223085	0.290580	0.409510
H61	H	1.427012	0.219530	0.486893
H62	H	1.329969	0.154100	0.486872
H63	H	1.359912	0.264367	0.282467
H64	H	1.262848	0.198963	0.282419
H65	H	1.170991	0.260233	0.465230
H66	H	1.268045	0.325656	0.465248
H67	H	1.172696	0.324217	0.346429
H68	H	1.066355	0.062483	-0.000024
H69	H	1.280875	-0.432932	-0.093451
C70	C	1.085993	0.280695	-0.000203
C71	C	1.045429	0.326142	-0.116965
C72	C	1.095603	0.403505	-0.117197
H73	H	1.174948	0.271359	-0.000271
H74	H	1.058566	0.311689	0.078908
H75	H	1.072862	0.295154	-0.196056
H76	H	0.956480	0.335500	-0.116922
H77	H	1.068176	0.434499	-0.038085
H78	H	1.184556	0.394161	-0.117260
H79	H	1.068078	0.434354	-0.196410
C80	C	1.477493	-0.297714	-0.257923
C81	C	1.482636	-0.210631	-0.261123
C82	C	1.422416	-0.177267	-0.378854
H83	H	1.392411	-0.309309	-0.257222
H84	H	1.518257	-0.322550	-0.336324
H85	H	1.441869	-0.185803	-0.182742
H86	H	1.567701	-0.199012	-0.261845
H87	H	1.463180	-0.202103	-0.457255
H88	H	1.337339	-0.188869	-0.378142
H89	H	1.425908	-0.118180	-0.381047
H90	H	0.905898	0.059646	-0.000001
H91	H	0.823099	0.255248	-0.000000
H92	H	1.643790	-0.317954	-0.137932
H93	H	1.281106	-0.433994	0.091931
H94	H	1.284604	-0.289825	0.093082
H95	H	1.643518	-0.462023	-0.129264
H96	H	1.491009	-0.449082	0.226625
C97	C	1.679003	-0.314103	0.135857
C98	C	1.704546	-0.264914	0.023083
C99	C	1.829338	-0.246703	0.028787
H100	H	1.733239	-0.365019	0.134594
H101	H	1.692085	-0.284185	0.217488
H102	H	1.691476	-0.294833	-0.058528
H103	H	1.650342	-0.213989	0.024323
H104	H	1.842421	-0.216784	0.110418
H105	H	1.883563	-0.297622	0.027526
H106	H	1.846683	-0.213320	-0.047721
C107	C	1.481181	-0.296535	0.258360
C108	C	1.435328	-0.360515	0.335126
C109	C	1.377906	-0.326182	0.453731
H110	H	1.413759	-0.255908	0.234244
H111	H	1.540770	-0.270483	0.310873
H112	H	1.375744	-0.386554	0.282624
H113	H	1.502726	-0.401146	0.359277
H114	H	1.437495	-0.300129	0.506245
H115	H	1.310489	-0.285555	0.429603
H116	H	1.346798	-0.369587	0.505838
H117	H	1.405188	0.169072	0.588108
