data_functionalizedCrystal
_audit_creation_method	'MofGen! by Chris Wilmer'
_symmetry_space_group_name_H-M	'P1'
_symmetry_Int_Tables_number	1
_symmetry_cell_setting	triclinic
loop_
_symmetry_equiv_pos_as_xyz
  x,y,z
_cell_length_a	14.395555
_cell_length_b	14.395555
_cell_length_c	19.377372
_cell_angle_alpha	89.999543
_cell_angle_beta	131.376938
_cell_angle_gamma	120.005721
loop_
_atom_site_label
_atom_site_type_symbol
_atom_site_fract_x
_atom_site_fract_y
_atom_site_fract_z
Zr1	Zr	-1.071292	0.867567	-0.114391
O2	O	-1.331453	0.686044	-0.253662
O3	O	-0.857148	0.923226	-0.071700
O4	O	-1.137638	0.879865	-0.253657
O5	O	-0.982582	0.763595	0.071829
O6	O	-1.137627	1.032741	-0.253649
O7	O	-1.050963	0.729405	-0.071705
O8	O	-0.635882	1.110307	0.071838
O9	O	-1.484327	0.686030	-0.253658
O10	O	-0.928177	1.061039	-0.053483
O11	O	-0.877153	0.972465	0.053629
O12	O	-1.207394	0.921413	-0.160602
O13	O	-1.156370	0.832839	-0.053489
Zr14	Zr	-0.962216	1.165916	0.114542
Zr15	Zr	-1.071275	1.111387	-0.114379
Zr16	Zr	-0.962232	0.922097	0.114530
Zr17	Zr	-1.315109	0.867545	-0.114385
Zr18	Zr	-0.718399	1.165939	0.114536
O19	O	-1.176360	1.110257	0.071851
O20	O	-1.331429	1.032723	-0.253645
O21	O	-1.176384	0.763577	0.071834
O22	O	-0.702055	1.347440	0.253813
O23	O	-0.857124	1.269906	-0.071683
O24	O	-0.702079	1.000760	0.253796
O25	O	-1.050926	1.269889	-0.071678
O26	O	-0.895870	1.153618	0.253808
O27	O	-0.895881	1.000743	0.253800
O28	O	-0.982545	1.304079	0.071856
O29	O	-1.484314	0.879834	-0.253649
O30	O	-0.549194	1.153650	0.253799
O31	O	-0.549181	1.347454	0.253809
O32	O	-0.635868	1.304110	0.071848
O33	O	-1.397639	0.729373	-0.071697
O34	O	-1.397626	0.923177	-0.071687
O35	O	-0.826114	1.112071	0.160753
O36	O	-0.877138	1.200645	0.053640
O37	O	-1.156354	1.061018	-0.053478
O38	O	-1.105330	0.972445	0.053634
C39	C	-0.711776	1.016770	0.000068
C40	C	-0.608269	1.016779	0.000066
C41	C	-0.575517	1.065063	-0.058349
C42	C	-0.389424	1.134141	0.042367
C43	C	-0.609925	0.947716	-0.100646
C44	C	-0.423448	1.085934	0.100841
C45	C	-0.644058	0.899432	-0.042245
C46	C	-0.457945	0.968498	0.058531
C47	C	-1.016775	0.711761	0.000060
C48	C	-1.016782	0.608253	0.000055
C49	C	-0.321735	1.016722	0.000074
C50	C	-0.425252	1.016738	0.000051
C51	C	-1.169019	0.471536	-0.058341
C52	C	-1.126986	0.430625	-0.100665
C53	C	-1.058813	0.464739	0.042371
C54	C	-0.974777	0.568691	-0.042328
C55	C	-0.906595	0.602816	0.100765
C56	C	-0.864460	0.561984	0.058466
C57	C	-1.153171	0.948534	-0.286269
C58	C	-1.199470	0.925385	-0.383452
C59	C	-1.016733	1.321723	0.000091
C60	C	-1.016726	1.425231	0.000096
C61	C	-0.623017	1.213629	-0.423508
C62	C	-0.666560	1.191852	-0.514841
C63	C	-0.958040	1.046093	-0.626654
C64	C	-0.914522	1.067862	-0.535330
C65	C	-0.747007	1.151630	-0.433761
C66	C	-1.038512	1.005864	-0.545583
C67	C	-0.994996	1.027626	-0.454265
C68	C	-0.827490	1.111387	-0.352695
C69	C	-0.703491	1.173393	-0.342444
C70	C	-1.206026	0.922089	-0.647152
C71	C	-1.330016	0.860091	-0.657405
C72	C	-1.286501	0.881860	-0.566087
C73	C	-1.118995	0.965621	-0.464516
C74	C	-1.410500	0.819854	-0.576338
C75	C	-1.366984	0.841617	-0.485021
C76	C	-1.075479	0.987383	-0.373199
C77	C	-0.880337	1.084950	0.286420
C78	C	-0.834038	1.108099	0.383603
C79	C	-0.711755	1.321751	0.000083
C80	C	-0.608241	1.425268	0.000086
C81	C	-0.575359	1.084978	0.286413
C82	C	-0.425554	1.108136	0.383593
C83	C	-0.575338	1.389959	0.286428
C84	C	-0.425525	1.516625	0.383614
C85	C	-1.458170	0.643525	-0.286277
C86	C	-1.607982	0.516859	-0.383463
C87	C	-1.321753	0.711733	0.000068
C88	C	-1.425266	0.608216	0.000065
C89	C	-1.458149	0.948506	-0.286262
C90	C	-1.607954	0.925348	-0.383442
C91	C	-0.328557	1.191886	0.485157
C92	C	-0.187808	1.213644	0.576477
C93	C	-0.144053	1.151657	0.566231
C94	C	-0.241064	1.067897	0.464656
C95	C	-0.381817	1.046134	0.373339
C96	C	-0.381806	1.622354	0.373341
C97	C	-0.241059	1.741377	0.464649
C98	C	-0.144027	1.754670	0.566227
C99	C	-0.187757	1.648929	0.576498
C100	C	-0.328508	1.529908	0.485191
C101	C	-1.651714	0.411130	-0.373191
C102	C	-1.792491	0.292106	-0.464498
C103	C	-1.889528	0.278814	-0.566076
C104	C	-1.845792	0.384555	-0.576347
C105	C	-1.705023	0.503576	-0.485040
C106	C	-1.651662	0.987354	-0.373162
C107	C	-1.792403	0.965619	-0.464464
C108	C	-1.889440	0.881869	-0.566046
C109	C	-1.845722	0.819861	-0.576325
C110	C	-1.704976	0.841604	-0.485023
C111	C	-0.519865	1.561974	0.058465
C112	C	-0.361598	1.602925	0.100764
C113	C	-0.582151	1.568745	-0.042269
C114	C	-0.451246	1.464869	0.042445
C115	C	-0.671900	1.430679	-0.100644
C116	C	-0.513654	1.471550	-0.058369
H117	H	-0.345464	1.144438	0.186046
C118	C	-0.508948	1.421011	-0.125109
H119	H	-0.554270	1.436321	-0.182763
H120	H	-0.397304	1.461629	-0.081347
H121	H	-0.572395	1.333892	-0.152405
H122	H	-0.813498	0.676614	0.185899
H123	H	-0.752775	0.800221	-0.078054
H124	H	-0.029422	1.851591	0.640566
H125	H	-0.687699	0.889326	-0.185810
H126	H	-0.939072	1.055602	-0.290493
H127	H	-0.205417	1.017432	0.456329
C128	C	-1.656929	0.773373	-0.496345
H129	H	-1.734897	0.720374	-0.569922
H130	H	-1.549246	0.832694	-0.463054
H131	H	-1.657042	0.724930	-0.463063
H132	H	-1.094430	0.977887	-0.709361
C133	C	-1.544940	1.079486	-0.261434
H134	H	-1.591136	1.113303	-0.268403
H135	H	-1.542806	1.037127	-0.223485
H136	H	-1.435036	1.144890	-0.223491
H137	H	-0.523367	1.599197	0.107936
H138	H	-1.572713	0.421930	-0.290488
C139	C	-0.488495	0.954018	0.261621
H140	H	-0.578599	0.949920	0.208695
H141	H	-0.422464	0.981537	0.253632
H142	H	-0.530259	0.873752	0.253612
C143	C	-1.252817	0.330915	-0.215692
H144	H	-1.360950	0.298012	-0.257108
H145	H	-1.223988	0.367445	-0.246143
H146	H	-1.251165	0.265754	-0.214789
H147	H	-0.460794	1.611554	0.290639
C148	C	-1.253903	0.898145	-0.747603
H149	H	-1.371423	0.839365	-0.809561
H150	H	-1.209923	0.974016	-0.747618
H151	H	-1.209917	0.866256	-0.747610
H152	H	-1.827979	1.016116	-0.456074
C153	C	-0.182994	1.702669	0.215778
H154	H	-0.184511	1.735564	0.257202
H155	H	-0.136471	1.666169	0.246235
H156	H	-0.117823	1.767829	0.214849
C157	C	-0.850526	1.330944	-0.215634
H158	H	-0.897741	1.367119	-0.245598
H159	H	-0.848905	1.299120	-0.257440
H160	H	-0.915154	1.265070	-0.214802
C161	C	-0.690418	0.612574	0.125210
H162	H	-0.648445	0.597254	0.182859
H163	H	-0.697231	0.572004	0.081455
H164	H	-0.618190	0.699698	0.152514
C165	C	-0.519227	1.265540	-0.230715
H166	H	-0.451608	1.299349	-0.237682
H167	H	-0.496195	1.330935	-0.192767
H168	H	-0.496202	1.223168	-0.192773
C169	C	-1.503362	0.773425	-0.496289
H170	H	-1.453451	0.798375	-0.427356
H171	H	-1.570379	0.793789	-0.534224
H172	H	-1.570380	0.686026	-0.534226
C173	C	-0.530158	1.260032	-0.503556
H174	H	-0.424165	1.313033	-0.429986
H175	H	-0.541106	1.200671	-0.536858
H176	H	-0.541042	1.308466	-0.536849
C177	C	-0.081000	1.663566	0.688237
H178	H	0.009095	1.749597	0.741136
H179	H	-0.146974	1.625065	0.696269
H180	H	-0.039222	1.625083	0.696247
C181	C	-0.655478	1.629469	-0.090612
H182	H	-0.684370	1.621528	-0.152088
H183	H	-0.751778	1.589140	-0.110198
H184	H	-0.575495	1.715218	-0.039366
C185	C	-2.044348	0.147887	-0.666504
H186	H	-2.056471	0.086828	-0.645828
H187	H	-2.139928	0.138010	-0.707824
H188	H	-2.032132	0.138041	-0.707805
H189	H	-1.094379	0.419749	0.078143
C190	C	-0.643844	1.120369	-0.124933
H191	H	-0.554018	1.203776	-0.094696
H192	H	-0.709268	1.072160	-0.196194
H193	H	-0.710377	1.119320	-0.124958
C194	C	-1.952524	0.369924	-0.688083
H195	H	-1.906333	0.449936	-0.681135
H196	H	-1.954658	0.325410	-0.726018
H197	H	-2.062427	0.325414	-0.726027
C198	C	-0.376581	1.413612	0.496498
H199	H	-0.474308	1.340816	0.427577
H200	H	-0.288669	1.414147	0.534446
H201	H	-0.396450	1.414120	0.534440
C202	C	-0.779609	1.135332	-0.252242
H203	H	-0.662088	1.194092	-0.190286
H204	H	-0.823587	1.167218	-0.252228
H205	H	-0.823592	1.059452	-0.252232
C206	C	-1.594752	0.727713	-0.688063
H207	H	-1.602909	0.723635	-0.740980
H208	H	-1.647513	0.647454	-0.696069
H209	H	-1.647501	0.755223	-0.696073
C210	C	-2.044263	0.857953	-0.666468
H211	H	-2.056395	0.906873	-0.645787
H212	H	-2.032083	0.879999	-0.707785
H213	H	-2.139840	0.772229	-0.707775
C214	C	-1.952484	0.727730	-0.688068
H215	H	-2.042573	0.723659	-0.740963
H216	H	-1.886510	0.755215	-0.696101
H217	H	-1.994270	0.647460	-0.696084
C218	C	-0.377582	1.404388	0.090929
H219	H	-0.444165	1.338582	0.090709
H220	H	-0.375311	1.372178	0.049752
H221	H	-0.267820	1.465100	0.162259
H222	H	-0.280740	1.233366	0.078153
H223	H	-0.407357	0.927678	0.107993
H224	H	-1.297787	0.434301	-0.107801
C225	C	-0.926891	0.629224	-0.090793
H226	H	-0.927261	0.695032	-0.090547
H227	H	-0.819127	0.661441	-0.049618
H228	H	-1.004777	0.568539	-0.162130
H229	H	-0.486609	1.281847	-0.340802
H230	H	-1.466406	0.791884	-0.740112
H231	H	-0.364162	1.242369	0.493521
H232	H	-0.108835	1.281852	0.659175
H233	H	-0.029439	1.169389	0.640596
H234	H	-0.205473	1.827463	0.456268
H235	H	-1.669424	0.589659	-0.493417
H236	H	-1.828074	0.206022	-0.456115
