data_functionalizedCrystal
_audit_creation_method	'MofGen! by Chris Wilmer'
_symmetry_space_group_name_H-M	'P1'
_symmetry_Int_Tables_number	1
_symmetry_cell_setting	triclinic
loop_
_symmetry_equiv_pos_as_xyz
  x,y,z
_cell_length_a	14.519709
_cell_length_b	12.837942
_cell_length_c	11.892113
_cell_angle_alpha	86.039625
_cell_angle_beta	94.355608
_cell_angle_gamma	90.745457
loop_
_atom_site_label
_atom_site_type_symbol
_atom_site_fract_x
_atom_site_fract_y
_atom_site_fract_z
O1	O	1.241383	-0.141822	0.093854
O2	O	0.974291	-0.157829	0.093888
O3	O	1.101914	0.001089	0.093865
O4	O	1.113760	-0.300740	0.093877
O5	O	1.090340	0.012939	-0.094141
O6	O	0.962717	-0.145979	-0.094118
O7	O	1.229809	-0.129971	-0.094152
Zn8	Zn	1.094426	-0.136093	-0.123985
Zn9	Zn	1.109675	-0.151707	0.123721
O10	O	1.102186	-0.288889	-0.094129
C11	C	0.934080	-0.151158	-0.000110
C12	C	0.831507	-0.148924	-0.000097
N13	N	1.084025	-0.125437	-0.293039
C14	C	1.092126	0.045642	-0.000137
C15	C	1.080192	0.160741	-0.000134
C16	C	0.455897	-0.140692	-0.000149
C17	C	0.560403	-0.142978	-0.000134
C18	C	0.643699	-0.144808	-0.000122
C19	C	0.748211	-0.147094	-0.000110
C20	C	1.270020	-0.136642	-0.000151
C21	C	1.372594	-0.138877	-0.000157
C22	C	1.111975	-0.333442	-0.000124
C23	C	1.123909	-0.448542	-0.000120
C24	C	1.223663	0.401433	-0.000129
C25	C	1.212454	0.509579	-0.000125
C26	C	1.046567	0.485182	-0.000116
C27	C	1.057776	0.377035	-0.000119
C28	C	1.146326	0.335165	-0.000127
C29	C	1.157534	0.227017	-0.000139
C30	C	0.991648	0.202621	-0.000121
C31	C	0.980440	0.310768	-0.000118
C32	C	1.192447	-0.236561	-0.529696
C33	C	1.185184	-0.229103	-0.648037
C34	C	1.062241	-0.103059	-0.648064
C35	C	1.069504	-0.110516	-0.529723
C36	C	1.134608	-0.177271	-0.470543
C37	C	1.141867	-0.184733	-0.352200
C38	C	1.018928	-0.058684	-0.352229
C39	C	1.011665	-0.051226	-0.470570
N40	N	1.120082	-0.162355	0.292774
H41	H	1.229636	0.192929	-0.000149
Cl42	Cl	0.869126	0.363414	-0.000098
H43	H	1.275430	0.563531	-0.000123
Cl44	Cl	1.334978	0.348794	-0.000167
Cl45	Cl	0.935258	0.537835	-0.000072
H46	H	1.232283	-0.277383	-0.696195
Cl47	Cl	0.894419	0.119307	-0.000133
Cl48	Cl	0.980403	-0.019144	-0.722481
H49	H	1.194874	-0.239093	-0.304017
H50	H	1.245450	-0.290925	-0.481511
Cl51	Cl	0.929823	0.032687	-0.544979
Cl52	Cl	0.946207	0.015850	-0.277859
