data_functionalizedCrystal
_audit_creation_method	'MofGen! by Chris Wilmer'
_symmetry_space_group_name_H-M	'P1'
_symmetry_Int_Tables_number	1
_symmetry_cell_setting	triclinic
loop_
_symmetry_equiv_pos_as_xyz
  x,y,z
_cell_length_a	16.625548
_cell_length_b	16.625546
_cell_length_c	12.759387
_cell_angle_alpha	89.964768
_cell_angle_beta	89.978560
_cell_angle_gamma	90.023536
loop_
_atom_site_label
_atom_site_type_symbol
_atom_site_fract_x
_atom_site_fract_y
_atom_site_fract_z
Zn1	Zn	1.232687	-0.320939	-0.594037
Zn2	Zn	1.732687	0.179061	-0.094037
Zn3	Zn	1.232589	-0.455793	-0.418343
Zn4	Zn	1.732589	0.044207	0.081657
Zn5	Zn	1.097847	-0.320981	-0.418366
Zn6	Zn	1.597847	0.179019	0.081634
Zn7	Zn	1.097820	-0.455736	-0.593974
Zn8	Zn	1.597820	0.044264	-0.093974
O9	O	1.165236	-0.388362	-0.506180
O10	O	1.665236	0.111638	-0.006180
O11	O	1.345507	-0.338834	-0.570747
O12	O	1.845507	0.161166	-0.070747
O13	O	1.214685	-0.437952	-0.271325
O14	O	1.714685	0.062048	0.228675
O15	O	1.115787	-0.208143	-0.441705
O16	O	1.615787	0.291857	0.058295
O17	O	1.345434	-0.437911	-0.441665
O18	O	1.845434	0.062089	0.058335
O19	O	1.214853	-0.208112	-0.570770
O20	O	1.714853	0.291888	-0.070770
O21	O	1.115691	-0.338906	-0.271342
O22	O	1.615691	0.161094	0.228658
O23	O	0.985011	-0.338850	-0.441645
O24	O	1.485011	0.161150	0.058355
O25	O	1.115740	-0.437813	-0.741004
O26	O	1.615740	0.062187	-0.241004
O27	O	0.984991	-0.437854	-0.570663
O28	O	1.484991	0.062146	-0.070663
O29	O	1.214827	-0.338778	-0.741050
O30	O	1.714827	0.161222	-0.241050
O31	O	1.214658	-0.568618	-0.441604
O32	O	1.714658	-0.068618	0.058396
O33	O	1.115644	-0.568576	-0.570640
O34	O	1.615644	-0.068576	-0.070640
C35	C	0.955745	-0.388351	-0.506151
C36	C	1.455745	0.111649	-0.006151
C37	C	0.866124	-0.388365	-0.506163
C38	C	1.366124	0.111635	-0.006163
C39	C	0.537948	-0.388370	-0.506208
C40	C	1.037948	0.111630	-0.006208
C41	C	0.629257	-0.388367	-0.506192
C42	C	1.129257	0.111633	-0.006192
C43	C	0.702033	-0.388368	-0.506185
C44	C	1.202033	0.111632	-0.006185
C45	C	0.793347	-0.388364	-0.506170
C46	C	1.293347	0.111636	-0.006170
C47	C	1.165159	-0.597853	-0.506136
C48	C	1.665159	-0.097853	-0.006136
C49	C	1.165201	-0.687474	-0.506152
C50	C	1.665201	-0.187474	-0.006152
C51	C	1.165341	-1.015650	-0.506262
C52	C	1.665341	-0.515650	-0.006262
C53	C	1.165299	-0.924341	-0.506234
C54	C	1.665299	-0.424341	-0.006234
C55	C	1.165270	-0.851565	-0.506207
C56	C	1.665270	-0.351565	-0.006207
C57	C	1.165230	-0.760250	-0.506180
C58	C	1.665230	-0.260250	-0.006180
C59	C	1.375545	-0.388374	-0.506210
C60	C	1.875545	0.111626	-0.006210
C61	C	1.465166	-0.388379	-0.506223
C62	C	1.965166	0.111621	-0.006223
C63	C	1.165291	-0.388284	-0.780214
C64	C	1.665291	0.111716	-0.280214
C65	C	1.165315	-0.388251	-0.896990
C66	C	1.665315	0.111749	-0.396990
C67	C	1.165334	-0.178053	-0.506247
C68	C	1.665334	0.321947	-0.006247
C69	C	1.165376	-0.088432	-0.506276
C70	C	1.665376	0.411568	-0.006276
C71	C	1.268545	-0.285070	-1.116482
C72	C	1.768545	0.214930	-0.616482
C73	C	1.320124	-0.233523	-1.061643
C74	C	1.820124	0.266477	-0.561643
C75	C	1.320102	-0.233549	-0.951922
C76	C	1.820102	0.266451	-0.451922
C77	C	1.268496	-0.285130	-0.897036
C78	C	1.768496	0.214870	-0.397036
C79	C	1.216917	-0.336677	-0.951874
C80	C	1.716917	0.163323	-0.451874
C81	C	1.216944	-0.336643	-1.061598
C82	C	1.716944	0.163357	-0.561598
C83	C	1.113736	-0.439798	-0.951829
C84	C	1.613736	0.060202	-0.451829
C85	C	1.113754	-0.439769	-1.061550
C86	C	1.613754	0.060231	-0.561550
C87	C	1.062130	-0.491379	-0.896943
C88	C	1.562130	0.008621	-0.396943
C89	C	1.010546	-0.542923	-0.951781
C90	C	1.510546	-0.042923	-0.451781
C91	C	1.010570	-0.542894	-1.061509
C92	C	1.510570	-0.042894	-0.561509
C93	C	1.062174	-0.491316	-1.116389
C94	C	1.562174	0.008684	-0.616389
C95	C	1.165227	-0.388381	-0.233212
C96	C	1.665227	0.111619	0.266788
C97	C	1.165359	-0.388187	-0.116436
C98	C	1.665359	0.111813	0.383564
H99	H	1.268559	-0.285032	-1.205823
H100	H	1.768559	0.214968	-0.705823
H101	H	0.968537	-0.584920	-0.907084
H102	H	1.468537	-0.084920	-0.407084
H103	H	1.062119	-0.491401	-0.807601
H104	H	1.562119	0.008599	-0.307601
H105	H	0.968571	-0.584873	-1.106152
H106	H	1.468571	-0.084873	-0.606152
H107	H	1.062194	-0.491281	-1.205730
H108	H	1.562194	0.008719	-0.705730
H109	H	1.362142	-0.191528	-1.106344
H110	H	1.862142	0.308472	-0.606344
F111	F	1.375001	-0.178692	-0.893557
F112	F	1.875001	0.321308	-0.393557
H113	H	1.268489	-0.285155	-0.807694
H114	H	1.768489	0.214845	-0.307694
