data_functionalizedCrystal
_audit_creation_method	'MofGen! by Chris Wilmer'
_symmetry_space_group_name_H-M	'P1'
_symmetry_Int_Tables_number	1
_symmetry_cell_setting	triclinic
loop_
_symmetry_equiv_pos_as_xyz
  x,y,z
_cell_length_a	14.519709
_cell_length_b	10.723024
_cell_length_c	9.798715
_cell_angle_alpha	90.003391
_cell_angle_beta	89.995905
_cell_angle_gamma	95.925993
loop_
_atom_site_label
_atom_site_type_symbol
_atom_site_fract_x
_atom_site_fract_y
_atom_site_fract_z
O1	O	0.129347	-1.655978	-0.113485
O2	O	0.141728	-1.292710	-0.113490
O3	O	0.001349	-1.483975	-0.113475
O4	O	0.269727	-1.464712	-0.113500
O5	O	0.001348	-1.483961	0.113507
O6	O	0.141728	-1.292695	0.113492
O7	O	0.129347	-1.655963	0.113497
Zn8	Zn	0.135537	-1.474327	0.149533
Zn9	Zn	0.135538	-1.474346	-0.149526
O10	O	0.269727	-1.464698	0.113482
C11	C	0.140827	-1.246211	0.000000
C12	C	0.138132	-1.107682	-0.000001
C13	C	-0.033016	-1.483070	0.000016
C14	C	-0.135411	-1.480380	0.000017
C15	C	0.130248	-1.702462	0.000003
C16	C	0.132944	-1.840991	-0.000004
C17	C	-0.510357	-1.470476	-0.000019
C18	C	-0.406035	-1.473227	-0.000009
C19	C	-0.322887	-1.475428	0.000000
C20	C	-0.218559	-1.478179	0.000008
C21	C	0.304091	-1.465603	-0.000012
C22	C	0.406486	-1.468293	-0.000022
N23	N	0.135537	-1.474323	0.353632
C24	C	0.216681	-1.031965	-0.000009
C25	C	0.213896	-0.888788	-0.000011
N26	N	0.135532	-1.474359	-0.353626
C27	C	0.076335	-1.554633	0.421415
C28	C	0.076332	-1.554653	0.578578
H29	H	0.281141	-0.823726	-0.000024
H30	H	0.025649	-1.623371	0.363098
H31	H	0.186222	-1.405604	0.588092
H32	H	0.025651	-1.623414	0.636869
H33	H	0.186216	-1.405577	0.411951
O34	O	0.299451	-1.080865	0.000042
C35	C	0.371946	-0.982665	-0.000004
H36	H	0.345627	-0.894125	0.042970
H37	H	0.431338	-1.010104	0.065888
H38	H	0.397492	-0.964357	-0.108903
O39	O	0.052688	-0.918540	-0.000239
C40	C	0.000977	-0.895744	-0.117773
H41	H	0.049349	-0.851295	-0.199942
H42	H	-0.035342	-0.988056	-0.157230
H43	H	-0.052890	-0.829449	-0.091189
O44	O	0.055361	-1.058782	0.000064
C45	C	-0.017133	-1.156983	0.000033
H46	H	0.009185	-1.245517	0.043005
H47	H	-0.076526	-1.129534	0.065934
H48	H	-0.042679	-1.175304	-0.108861
