data_functionalizedCrystal
_audit_creation_method	'MofGen! by Chris Wilmer'
_symmetry_space_group_name_H-M	'P1'
_symmetry_Int_Tables_number	1
_symmetry_cell_setting	triclinic
loop_
_symmetry_equiv_pos_as_xyz
  x,y,z
_cell_length_a	12.759401
_cell_length_b	29.839132
_cell_length_c	12.759393
_cell_angle_alpha	89.960970
_cell_angle_beta	90.020938
_cell_angle_gamma	89.953212
loop_
_atom_site_label
_atom_site_type_symbol
_atom_site_fract_x
_atom_site_fract_y
_atom_site_fract_z
Zn1	Zn	1.606043	0.178813	0.593958
Zn2	Zn	1.605841	0.253950	0.418252
Zn3	Zn	1.430342	0.178837	0.418293
Zn4	Zn	1.430240	0.253919	0.593889
O5	O	1.518117	0.216380	0.506098
O6	O	1.753037	0.188784	0.570662
O7	O	1.582518	0.244010	0.271236
O8	O	1.453777	0.115967	0.441641
O9	O	1.752889	0.243986	0.441571
O10	O	1.582864	0.115949	0.570702
O11	O	1.453580	0.188824	0.271266
O12	O	1.283307	0.188794	0.441575
O13	O	1.453603	0.243933	0.740919
O14	O	1.283233	0.243956	0.570584
O15	O	1.582765	0.188753	0.740970
O16	O	1.582419	0.316813	0.441504
O17	O	1.453407	0.316790	0.570544
C18	C	1.245149	0.216375	0.506077
C19	C	1.128373	0.216383	0.506093
C20	C	1.073499	0.245150	0.573162
C21	C	0.963775	0.245151	0.573183
C22	C	0.963808	0.187618	0.439056
C23	C	1.073530	0.187615	0.439041
C24	C	0.813859	0.261272	0.697038
C25	C	0.758982	0.290045	0.764099
C26	C	0.794525	0.333888	0.780031
C27	C	0.884943	0.348966	0.728888
C28	C	0.939815	0.320195	0.661820
C29	C	0.904273	0.276346	0.645907
C30	C	1.223448	0.171499	0.315185
C31	C	1.278321	0.142730	0.248111
C32	C	1.242780	0.098886	0.232168
C33	C	1.152358	0.083810	0.283292
C34	C	1.097485	0.112579	0.350366
C35	C	1.133033	0.156422	0.366311
C36	C	1.517908	0.333103	0.506035
C37	C	1.517916	0.383037	0.506043
C38	C	1.585341	0.692680	0.438962
C39	C	1.585441	0.880353	0.438986
O40	O	1.642656	0.904617	0.381932
N41	N	1.518227	0.903822	0.506115
C42	C	1.450987	0.880370	0.573248
O43	O	1.393827	0.904639	0.630354
C44	C	1.450893	0.692698	0.573229
C45	C	1.518104	0.669231	0.506087
C46	C	1.652548	0.669213	0.371827
C47	C	1.652518	0.622297	0.371818
C48	C	1.585281	0.598849	0.438943
C49	C	1.518074	0.622316	0.506078
C50	C	1.383659	0.669247	0.640366
C51	C	1.383643	0.622326	0.640357
C52	C	1.450855	0.598859	0.573216
C53	C	1.450808	0.551952	0.573194
N54	N	1.518023	0.528482	0.506065
C55	C	1.585259	0.551931	0.438940
C56	C	1.451040	0.978901	0.573252
C57	C	1.451062	1.025819	0.573255
C58	C	1.585518	1.025798	0.438994
C59	C	1.585490	0.978879	0.438986
C60	C	1.518254	0.955432	0.506122
C61	C	1.585191	0.453405	0.438924
C62	C	1.585152	0.406486	0.438918
C63	C	1.450701	0.406510	0.573182
C64	C	1.450735	0.453426	0.573185
C65	C	1.517989	0.476872	0.506053
O66	O	1.393632	0.527659	0.630226
O67	O	1.642428	0.527655	0.381859
C68	C	1.585371	0.739595	0.438971
C69	C	1.518164	0.763062	0.506106
C70	C	1.450927	0.739614	0.573232
C71	C	1.518186	0.809980	0.506110
C72	C	1.585423	0.833428	0.438984
C73	C	1.652637	0.809959	0.371855
C74	C	1.652607	0.763044	0.371846
C75	C	1.383712	0.763083	0.640361
C76	C	1.383747	0.809998	0.640364
C77	C	1.450984	0.833447	0.573238
C78	C	1.792150	0.216386	0.506119
C79	C	1.908926	0.216388	0.506129
C80	C	1.518195	0.216337	0.780131
C81	C	1.518229	0.216319	0.896908
C82	C	1.518315	1.099202	0.506161
C83	C	1.518298	1.049267	0.506130
C84	C	1.518099	0.216391	0.233130
C85	C	1.518269	0.216282	0.116354
C86	C	1.585488	0.187582	0.951798
C87	C	1.585506	0.187562	1.061522
C88	C	1.451002	0.245020	1.061457
C89	C	1.450980	0.245037	0.951735
C90	C	1.623184	0.134558	1.211519
C91	C	1.690460	0.105825	1.266412
C92	C	1.792982	0.098936	1.230824
C93	C	1.828248	0.120786	1.140343
C94	C	1.760978	0.149523	1.085454
C95	C	1.658442	0.156403	1.121042
C96	C	1.413312	0.298042	0.801736
C97	C	1.346046	0.326781	0.746846
C98	C	1.243523	0.333675	0.782433
C99	C	1.208261	0.311832	0.872917
C100	C	1.275526	0.283093	0.927807
C101	C	1.378049	0.276199	0.892213
H102	H	1.287463	0.075464	0.177541
H103	H	1.118149	0.268573	0.627763
H104	H	1.351947	0.155009	0.206482
H105	H	1.395954	0.387411	0.627832
H106	H	1.707250	0.603193	0.317149
H107	H	1.328893	0.603237	0.695031
C108	C	0.735026	0.365079	0.853022
C109	C	0.732558	0.346529	0.953813
C110	C	0.677767	0.375249	1.021087
H111	H	0.665434	0.368872	0.828061
H112	H	0.769142	0.393351	0.855259
H113	H	0.698439	0.318265	0.951572
H114	H	0.802135	0.342737	0.978805
H115	H	0.711883	0.403521	1.023325
H116	H	0.608178	0.379040	0.996117
H117	H	0.676093	0.362669	1.089483
H118	H	1.396286	0.959813	0.627924
C119	C	1.378112	0.276185	1.121175
C120	C	1.392546	0.270029	1.229014
C121	C	1.325429	0.298736	1.284056
H122	H	1.307489	0.269639	1.103314
H123	H	1.393432	0.306383	1.103232
H124	H	1.377219	0.239838	1.246950
H125	H	1.463156	0.276578	1.246906
H126	H	1.340749	0.328934	1.266113
H127	H	1.254810	0.292187	1.266187
H128	H	1.335220	0.294566	1.357230
C129	C	1.725799	0.835440	0.299168
C130	C	1.793129	0.862308	0.358756
C131	C	1.860562	0.885782	0.291849
H132	H	1.685794	0.853818	0.253326
H133	H	1.765891	0.814756	0.259213
H134	H	1.753041	0.882990	0.398693
H135	H	1.833157	0.843941	0.404595
H136	H	1.900655	0.865098	0.251895
H137	H	1.820549	0.904158	0.246011
H138	H	1.906260	0.904012	0.332270
H139	H	0.919141	0.164197	0.384463
H140	H	1.013431	0.332471	0.620180
H141	H	1.252401	0.207199	0.328170
H142	H	1.124779	0.317447	0.901896
C143	C	1.658246	0.381089	0.365980
C144	C	1.717155	0.411670	0.307221
C145	C	1.784507	0.388293	0.240034
H146	H	1.618189	0.362818	0.320068
H147	H	1.704049	0.362762	0.406183
H148	H	1.671358	0.429990	0.267021
H149	H	1.757233	0.429942	0.353105
H150	H	1.830310	0.369966	0.280237
H151	H	1.744442	0.370023	0.194129
H152	H	1.824492	0.409039	0.200165
H153	H	1.707338	0.743940	0.317173
H154	H	1.396009	0.472534	0.627860
C155	C	0.999366	0.096120	0.405828
C156	C	0.979995	0.051562	0.377533
C157	C	0.889628	0.036383	0.428614
H158	H	0.941375	0.114221	0.385997
H159	H	1.009209	0.097941	0.479511
H160	H	0.970145	0.049744	0.303866
H161	H	1.037962	0.033450	0.397366
H162	H	0.899470	0.038205	0.502297
H163	H	0.831644	0.054488	0.408779
H164	H	0.876478	0.006148	0.409431
C165	C	1.658293	0.953379	0.365966
C166	C	1.598833	0.926498	0.298550
C167	C	1.665866	0.903008	0.231259
H168	H	1.704065	0.935009	0.406070
H169	H	1.698316	0.974054	0.325928
H170	H	1.558827	0.905826	0.338584
H171	H	1.553063	0.944857	0.258423
H172	H	1.705890	0.923683	0.191222
H173	H	1.711636	0.884640	0.271372
H174	H	1.625532	0.884770	0.185504
H175	H	1.123408	0.048112	0.270294
C176	C	1.658353	0.478875	0.366219
C177	C	1.725706	0.505747	0.425772
C178	C	1.793128	0.529210	0.358833
H179	H	1.618341	0.497250	0.320376
H180	H	1.698429	0.458185	0.326267
H181	H	1.685634	0.526435	0.465706
H182	H	1.765741	0.487383	0.471612
H183	H	1.833204	0.508519	0.318881
H184	H	1.753107	0.547582	0.312993
H185	H	1.838841	0.547442	0.399230
C186	C	1.170633	0.364880	0.722667
C187	C	1.223447	0.382531	0.635799
C188	C	1.156329	0.411272	0.580716
H189	H	1.149016	0.388634	0.767241
H190	H	1.110899	0.348644	0.699635
H191	H	1.283162	0.398766	0.658831
H192	H	1.245062	0.358787	0.591200
H193	H	1.096594	0.395036	0.557684
H194	H	1.134715	0.435023	0.625298
H195	H	1.192150	0.423248	0.521765
C196	C	0.923736	0.396538	0.746210
C197	C	1.025071	0.395294	0.788254
C198	C	1.060851	0.439108	0.804214
H199	H	0.878228	0.411556	0.793501
H200	H	0.924792	0.412083	0.681212
H201	H	1.024009	0.379755	0.853242
H202	H	1.070604	0.380284	0.740978
H203	H	1.061907	0.454653	0.739217
H204	H	1.015336	0.454123	0.851504
H205	H	1.129613	0.438270	0.832734
H206	H	1.661737	0.088034	1.340082
H207	H	1.707306	0.688300	0.317165
H208	H	0.685363	0.277764	0.805740
H209	H	1.640244	0.164196	0.907162
H210	H	0.784918	0.225570	0.684083
C211	C	1.378040	1.051213	0.646259
C212	C	1.319178	1.020630	0.705060
C213	C	1.251913	1.044004	0.772338
H214	H	1.332196	1.069550	0.606153
H215	H	1.418190	1.069473	0.692133
H216	H	1.279031	1.002377	0.659192
H217	H	1.364995	1.002291	0.745187
H218	H	1.292063	1.062265	0.818212
H219	H	1.206076	1.062341	0.732224
H220	H	1.211974	1.023257	0.812249
H221	H	1.640265	1.044898	0.384338
C222	C	1.310649	0.694636	0.713384
C223	C	1.251796	0.664050	0.772184
C224	C	1.184535	0.687420	0.839475
H225	H	1.264799	0.712975	0.673287
H226	H	1.350803	0.712895	0.759258
H227	H	1.211645	0.645798	0.726315
H228	H	1.297617	0.645710	0.812302
H229	H	1.224689	0.705679	0.885349
H230	H	1.138693	0.705758	0.799369
H231	H	1.144602	0.666671	0.879385
C232	C	1.799431	0.173186	0.987215
C233	C	1.903612	0.160998	0.967781
C234	C	1.939067	0.182780	0.877279
H235	H	1.795219	0.204696	0.996895
H236	H	1.757028	0.164711	0.929316
H237	H	1.946004	0.169475	1.025666
H238	H	1.907852	0.129491	0.958081
H239	H	1.896663	0.174305	0.819380
H240	H	1.934849	0.214289	0.886968
H241	H	2.009753	0.174510	0.864076
C242	C	1.310728	0.835392	0.713381
C243	C	1.251865	0.804809	0.772181
C244	C	1.184610	0.828184	0.839469
H245	H	1.264884	0.853733	0.673283
H246	H	1.350886	0.853650	0.759255
H247	H	1.211710	0.786560	0.726312
H248	H	1.297681	0.786468	0.812300
H249	H	1.224767	0.846441	0.885344
H250	H	1.138773	0.846523	0.799363
H251	H	1.144670	0.807437	0.879379
H252	H	1.539701	0.140161	1.240499
C253	C	1.939586	0.113234	1.101848
C254	C	1.990942	0.083383	1.169267
C255	C	2.093504	0.076410	1.133827
H256	H	1.976071	0.140967	1.100786
H257	H	1.937834	0.101012	1.033135
H258	H	1.992700	0.095607	1.237961
H259	H	1.954489	0.055646	1.170336
H260	H	2.091751	0.064188	1.065114
H261	H	2.129979	0.104145	1.132766
H262	H	2.128358	0.056153	1.179559
H263	H	1.847758	0.075541	1.275526
H264	H	1.328961	0.743995	0.695024
C265	C	1.237157	0.259458	1.026122
C266	C	1.207356	0.291417	1.100698
C267	C	1.171995	0.269662	1.191272
H268	H	1.291822	0.241358	1.053850
H269	H	1.178702	0.241125	1.009247
H270	H	1.265805	0.309742	1.117573
H271	H	1.152683	0.309519	1.073005
H272	H	1.113540	0.251329	1.174396
H273	H	1.226665	0.251562	1.218989
H274	H	1.151762	0.291343	1.241878
H275	H	1.374770	0.344570	0.673175
H276	H	1.496793	0.292428	0.772747
