data_functionalizedCrystal
_audit_creation_method	'MofGen! by Chris Wilmer'
_symmetry_space_group_name_H-M	'P1'
_symmetry_Int_Tables_number	1
_symmetry_cell_setting	triclinic
loop_
_symmetry_equiv_pos_as_xyz
  x,y,z
_cell_length_a	16.120530
_cell_length_b	16.625546
_cell_length_c	16.625539
_cell_angle_alpha	90.028532
_cell_angle_beta	87.085995
_cell_angle_gamma	92.882099
loop_
_atom_site_label
_atom_site_type_symbol
_atom_site_fract_x
_atom_site_fract_y
_atom_site_fract_z
Zn1	Zn	1.274529	0.383605	-0.518325
Zn2	Zn	1.524529	0.633605	-0.268325
Zn3	Zn	1.774529	0.883605	-0.018325
Zn4	Zn	2.024529	1.133605	0.231675
Zn5	Zn	1.274437	0.518439	-0.383483
Zn6	Zn	1.524437	0.768439	-0.133483
Zn7	Zn	1.774437	1.018439	0.116517
Zn8	Zn	2.024437	1.268439	0.366517
Zn9	Zn	1.135119	0.376783	-0.376677
Zn10	Zn	1.385119	0.626783	-0.126677
Zn11	Zn	1.635119	0.876783	0.123323
Zn12	Zn	1.885119	1.126783	0.373323
Zn13	Zn	1.135079	0.511551	-0.511447
Zn14	Zn	1.385079	0.761551	-0.261447
Zn15	Zn	1.635079	1.011551	-0.011447
Zn16	Zn	1.885079	1.261551	0.238553
O17	O	1.204791	0.447595	-0.447483
O18	O	1.454791	0.697595	-0.197483
O19	O	1.704791	0.947595	0.052517
O20	O	1.954791	1.197595	0.302517
O21	O	1.391182	0.407229	-0.506164
O22	O	1.641182	0.657229	-0.256164
O23	O	1.891182	0.907229	-0.006164
O24	O	2.141182	1.157229	0.243836
O25	O	1.255935	0.499676	-0.269746
O26	O	1.505935	0.749676	-0.019746
O27	O	1.755935	0.999676	0.230254
O28	O	2.005935	1.249676	0.480254
O29	O	1.153666	0.264858	-0.395497
O30	O	1.403666	0.514858	-0.145497
O31	O	1.653666	0.764858	0.104503
O32	O	1.903666	1.014858	0.354503
O33	O	1.391115	0.506291	-0.407096
O34	O	1.641115	0.756291	-0.157096
O35	O	1.891115	1.006291	0.092904
O36	O	2.141115	1.256291	0.342904
O37	O	1.256091	0.269870	-0.499565
O38	O	1.506091	0.519870	-0.249565
O39	O	1.756091	0.769870	0.000435
O40	O	2.006091	1.019870	0.250435
O41	O	1.153578	0.395601	-0.264746
O42	O	1.403578	0.645601	-0.014746
O43	O	1.653578	0.895601	0.235254
O44	O	1.903578	1.145601	0.485254
O45	O	1.018448	0.388922	-0.388828
O46	O	1.268448	0.638922	-0.138828
O47	O	1.518448	0.888922	0.111172
O48	O	1.768448	1.138922	0.361172
O49	O	1.153600	0.494552	-0.625192
O50	O	1.403600	0.744552	-0.375192
O51	O	1.653600	0.994552	-0.125192
O52	O	1.903600	1.244552	0.124808
O53	O	1.018419	0.487936	-0.487842
O54	O	1.268419	0.737936	-0.237842
O55	O	1.518419	0.987936	0.012158
O56	O	1.768419	1.237936	0.262158
O57	O	1.256053	0.400550	-0.630246
O58	O	1.506053	0.650550	-0.380246
O59	O	1.756053	0.900550	-0.130246
O60	O	2.006053	1.150550	0.119754
O61	O	1.255897	0.630355	-0.400427
O62	O	1.505897	0.880355	-0.150427
O63	O	1.755897	1.130355	0.099573
O64	O	2.005897	1.380355	0.349573
O65	O	1.153511	0.625295	-0.494442
O66	O	1.403511	0.875295	-0.244442
O67	O	1.653511	1.125295	0.005558
O68	O	1.903511	1.375295	0.255558
C69	C	1.204712	0.657082	-0.447445
C70	C	1.454712	0.907082	-0.197445
C71	C	1.704712	1.157082	0.052555
C72	C	1.954712	1.407082	0.302555
C73	C	1.204755	0.746705	-0.447460
C74	C	1.454755	0.996705	-0.197460
C75	C	1.704755	1.246705	0.052540
C76	C	1.954755	1.496705	0.302540
C77	C	0.988183	0.436942	-0.436851
C78	C	1.238183	0.686942	-0.186851
C79	C	1.488183	0.936942	0.063149
C80	C	1.738183	1.186942	0.313149
C81	C	0.895517	0.432404	-0.432321
C82	C	1.145517	0.682404	-0.182321
C83	C	1.395517	0.932404	0.067679
C84	C	1.645517	1.182404	0.317679
C85	C	1.204832	0.447543	-0.657794
C86	C	1.454832	0.697543	-0.407794
C87	C	1.704832	0.947543	-0.157794
C88	C	1.954832	1.197543	0.092206
C89	C	1.204849	0.447522	-0.747416
C90	C	1.454849	0.697522	-0.497416
C91	C	1.704849	0.947522	-0.247416
C92	C	1.954849	1.197522	0.002584
C93	C	0.725856	0.424100	-0.424059
C94	C	0.975856	0.674100	-0.174059
C95	C	1.225856	0.924100	0.075941
C96	C	1.475856	1.174100	0.325941
C97	C	0.684567	0.471148	-0.470965
C98	C	0.934567	0.721148	-0.220965
C99	C	1.184567	0.971148	0.029035
C100	C	1.434567	1.221148	0.279035
C101	C	0.590161	0.466528	-0.466368
C102	C	0.840161	0.716528	-0.216368
C103	C	1.090161	0.966528	0.033632
C104	C	1.340161	1.216528	0.283632
C105	C	0.820270	0.428720	-0.428655
C106	C	1.070270	0.678720	-0.178655
C107	C	1.320270	0.928720	0.071345
C108	C	1.570270	1.178720	0.321345
C109	C	1.422245	0.458290	-0.458157
C110	C	1.672245	0.708290	-0.208157
C111	C	1.922245	0.958290	0.041843
C112	C	2.172245	1.208290	0.291843
C113	C	1.514910	0.462847	-0.462705
C114	C	1.764910	0.712847	-0.212705
C115	C	2.014910	0.962847	0.037295
C116	C	2.264910	1.212847	0.287295
C117	C	1.204893	0.237291	-0.447539
C118	C	1.454893	0.487291	-0.197539
C119	C	1.704893	0.737291	0.052461
C120	C	1.954893	0.987291	0.302461
C121	C	1.204936	0.147672	-0.447563
C122	C	1.454936	0.397672	-0.197563
C123	C	1.704936	0.647672	0.052437
C124	C	1.954936	0.897672	0.302437
C125	C	1.204900	1.074888	-0.447551
C126	C	1.454900	1.324888	-0.197551
C127	C	1.704900	1.574888	0.052449
C128	C	1.954900	1.824888	0.302449
C129	C	1.204857	0.983577	-0.447527
C130	C	1.454857	1.233577	-0.197527
C131	C	1.704857	1.483577	0.052473
C132	C	1.954857	1.733577	0.302473
C133	C	1.204827	0.910799	-0.447505
C134	C	1.454827	1.160799	-0.197505
C135	C	1.704827	1.410799	0.052495
C136	C	1.954827	1.660799	0.302495
C137	C	1.204785	0.819483	-0.447482
C138	C	1.454785	1.069483	-0.197482
C139	C	1.704785	1.319483	0.052518
C140	C	1.954785	1.569483	0.302518
C141	C	1.204863	0.447504	-0.820199
C142	C	1.454863	0.697504	-0.570199
C143	C	1.704863	0.947504	-0.320199
C144	C	1.954863	1.197504	-0.070199
C145	C	1.204882	0.447475	-0.911508
C146	C	1.454882	0.697475	-0.661508
C147	C	1.704882	0.947475	-0.411508
C148	C	1.954882	1.197475	-0.161508
C149	C	1.204902	0.447448	-0.984286
C150	C	1.454902	0.697448	-0.734286
C151	C	1.704902	0.947448	-0.484286
C152	C	1.954902	1.197448	-0.234286
C153	C	1.204923	0.447420	-1.075601
C154	C	1.454923	0.697420	-0.825601
C155	C	1.704923	0.947420	-0.575601
C156	C	1.954923	1.197420	-0.325601
C157	C	1.204798	0.447590	-0.237992
C158	C	1.454798	0.697590	0.012008
C159	C	1.704798	0.947590	0.262008
C160	C	1.954798	1.197590	0.512008
C161	C	1.204942	0.447392	-0.148379
C162	C	1.454942	0.697392	0.101621
C163	C	1.704942	0.947392	0.351621
C164	C	1.954942	1.197392	0.601621
H165	H	0.720118	0.514896	-0.514577
H166	H	0.970118	0.764896	-0.264577
H167	H	1.220118	1.014896	-0.014577
H168	H	1.470118	1.264896	0.235423
H169	H	0.690307	0.380355	-0.380451
H170	H	0.940307	0.630355	-0.130451
H171	H	1.190307	0.880355	0.119549
H172	H	1.440307	1.130355	0.369549
