data_functionalizedCrystal
_audit_creation_method	'MofGen! by Chris Wilmer'
_symmetry_space_group_name_H-M	'P1'
_symmetry_Int_Tables_number	1
_symmetry_cell_setting	triclinic
loop_
_symmetry_equiv_pos_as_xyz
  x,y,z
_cell_length_a	16.625548
_cell_length_b	19.121063
_cell_length_c	16.625539
_cell_angle_alpha	87.591339
_cell_angle_beta	90.020568
_cell_angle_gamma	92.470058
loop_
_atom_site_label
_atom_site_type_symbol
_atom_site_fract_x
_atom_site_fract_y
_atom_site_fract_z
Zn1	Zn	1.218959	-0.279593	0.469577
Zn2	Zn	1.213098	-0.397050	0.340486
Zn3	Zn	1.084119	-0.279620	0.334759
Zn4	Zn	1.078329	-0.397010	0.475274
O5	O	1.148626	-0.338318	0.405024
O6	O	1.331013	-0.295179	0.452466
O7	O	1.195959	-0.381501	0.226895
O8	O	1.106883	-0.181331	0.347862
O9	O	1.326707	-0.381475	0.357623
O10	O	1.205949	-0.181312	0.446912
O11	O	1.101199	-0.295225	0.222688
O12	O	0.970519	-0.295186	0.353386
O13	O	1.097013	-0.381406	0.587349
O14	O	0.966265	-0.381432	0.456622
O15	O	1.200333	-0.295140	0.583164
O16	O	1.190344	-0.495330	0.363147
O17	O	1.091330	-0.495300	0.462175
C18	C	0.939136	-0.338308	0.405001
C19	C	0.849514	-0.338321	0.405011
C20	C	1.139594	-0.520799	0.413918
C21	C	1.135804	-0.598865	0.417750
C22	C	0.521338	-0.338325	0.405046
C23	C	0.612647	-0.338322	0.405034
C24	C	0.685423	-0.338323	0.405028
C25	C	0.776738	-0.338319	0.405017
C26	C	1.185615	-0.635533	0.368035
C27	C	1.182055	-0.708884	0.371644
C28	C	1.128680	-0.745566	0.424964
C29	C	1.078867	-0.708893	0.474685
C30	C	1.082431	-0.635543	0.471080
C31	C	1.115340	-0.967036	0.438431
C32	C	1.111778	-1.040391	0.442031
C33	C	1.214967	-1.040377	0.338989
C34	C	1.218524	-0.967025	0.335386
C35	C	1.168714	-0.930359	0.385109
C36	C	1.125038	-0.820543	0.428653
C37	C	1.172360	-0.855383	0.381425
C38	C	1.358934	-0.338329	0.405048
C39	C	1.448555	-0.338333	0.405058
C40	C	1.148681	-0.338266	0.615331
C41	C	1.148705	-0.338244	0.704951
C42	C	1.157715	-0.155125	0.396113
C43	C	1.161589	-0.077059	0.392315
C44	C	1.148620	-0.338320	0.195533
C45	C	1.148763	-0.338144	0.105904
C46	C	1.148746	-0.338165	1.033123
C47	C	1.148732	-0.338189	0.941815
C48	C	1.148725	-0.338205	0.869040
C49	C	1.148711	-0.338228	0.777726
H50	H	1.222616	-0.738735	0.331159
C51	C	1.012965	-0.974429	0.540622
C52	C	1.060574	-0.926739	0.493071
H53	H	0.979147	-0.949547	0.574349
H54	H	1.046687	-1.002987	0.572907
H55	H	0.980763	-1.003087	0.506857
H56	H	1.092780	-0.898084	0.526837
H57	H	1.026848	-0.898168	0.460784
C58	C	1.187613	-0.772958	0.268931
C59	C	1.231027	-0.815065	0.322812
H60	H	1.223831	-0.748066	0.232742
H61	H	1.158465	-0.740628	0.298031
H62	H	1.151110	-0.801625	0.239469
H63	H	1.267527	-0.786396	0.352278
H64	H	1.260188	-0.847398	0.293709
C65	C	1.063598	-0.791329	0.587181
C66	C	1.020196	-0.749215	0.533296
H67	H	1.027373	-0.816223	0.623360
H68	H	1.100095	-0.762670	0.616647
H69	H	1.092751	-0.823662	0.558077
H70	H	0.991047	-0.716879	0.562399
H71	H	0.983684	-0.777876	0.503827
C72	C	0.980076	-0.642920	0.573293
C73	C	1.027679	-0.595235	0.525731
H74	H	0.946273	-0.618035	0.607032
H75	H	1.013802	-0.671486	0.605565
H76	H	0.947857	-0.671573	0.539535
H77	H	1.059902	-0.566586	0.559488
H78	H	0.993949	-0.566658	0.493455
C79	C	1.255339	-1.152810	0.298776
C80	C	1.269730	-1.080682	0.284349
H81	H	1.289157	-1.177691	0.265048
H82	H	1.200594	-1.164878	0.287507
H83	H	1.266520	-1.164778	0.353555
H84	H	1.258543	-1.068713	0.229571
H85	H	1.324488	-1.068609	0.295612
H86	H	1.081578	-0.850418	0.472065
H87	H	1.229075	-0.605671	0.324612
C88	C	1.320181	-0.974382	0.233912
C89	C	1.277206	-0.926706	0.276783
H90	H	1.356412	-0.949489	0.197737
H91	H	1.283679	-1.003031	0.204440
H92	H	1.349608	-1.002950	0.270485
H93	H	1.247773	-0.898141	0.240210
H94	H	1.313713	-0.898045	0.306256
H95	H	1.068323	-1.070256	0.485465
