data_functionalizedCrystal
_audit_creation_method	'MofGen! by Chris Wilmer'
_symmetry_space_group_name_H-M	'P1'
_symmetry_Int_Tables_number	1
_symmetry_cell_setting	triclinic
loop_
_symmetry_equiv_pos_as_xyz
  x,y,z
_cell_length_a	12.759401
_cell_length_b	29.839131
_cell_length_c	12.759393
_cell_angle_alpha	89.954251
_cell_angle_beta	89.982549
_cell_angle_gamma	90.034273
loop_
_atom_site_label
_atom_site_type_symbol
_atom_site_fract_x
_atom_site_fract_y
_atom_site_fract_z
Zn1	Zn	1.606094	-0.178837	-0.593881
Zn2	Zn	1.605929	-0.253976	-0.418158
Zn3	Zn	1.430399	-0.178860	-0.418220
Zn4	Zn	1.430322	-0.253940	-0.593800
O5	O	1.518186	-0.216403	-0.506015
O6	O	1.753093	-0.188811	-0.570579
O7	O	1.582608	-0.244036	-0.271146
O8	O	1.453807	-0.115990	-0.441582
O9	O	1.752972	-0.244015	-0.441477
O10	O	1.582889	-0.115973	-0.570639
O11	O	1.453647	-0.188849	-0.271191
O12	O	1.283368	-0.188813	-0.441503
O13	O	1.453675	-0.243953	-0.740832
O14	O	1.283311	-0.243974	-0.570501
O15	O	1.582814	-0.188775	-0.740892
O16	O	1.582532	-0.316839	-0.441398
O17	O	1.453515	-0.316812	-0.570441
C18	C	1.245219	-0.216393	-0.506000
C19	C	1.128442	-0.216399	-0.506019
C20	C	1.073636	-0.187709	-0.573347
C21	C	0.963912	-0.187717	-0.573354
C22	C	0.963809	-0.245111	-0.438701
C23	C	1.073531	-0.245099	-0.438690
C24	C	1.128547	-0.159008	-0.640676
C25	C	1.073741	-0.130316	-0.708010
C26	C	0.964017	-0.130324	-0.708016
C27	C	0.909098	-0.159025	-0.640689
C28	C	1.518026	-0.333126	-0.505926
C29	C	1.518053	-0.383060	-0.505924
C30	C	1.585384	-0.692660	-0.573311
C31	C	1.585498	-0.880333	-0.573374
O32	O	1.642589	-0.904561	-0.630603
N33	N	1.518364	-0.903845	-0.506132
C34	C	1.451192	-0.880436	-0.438873
O35	O	1.394086	-0.904741	-0.381689
C36	C	1.451074	-0.692764	-0.438816
C37	C	1.518220	-0.669254	-0.506056
C38	C	1.652524	-0.669151	-0.640545
C39	C	1.652499	-0.622235	-0.640525
C40	C	1.585334	-0.598829	-0.573270
C41	C	1.518194	-0.622339	-0.506035
C42	C	1.383897	-0.669356	-0.371564
C43	C	1.383871	-0.622435	-0.371558
C44	C	1.451017	-0.598925	-0.438797
C45	C	1.451004	-0.552018	-0.438760
N46	N	1.518138	-0.528506	-0.506002
C47	C	1.585303	-0.551912	-0.573257
C48	C	1.451261	-0.978967	-0.438907
C49	C	1.451291	-1.025885	-0.438919
C50	C	1.585596	-1.025778	-0.573422
C51	C	1.585570	-0.978860	-0.573403
C52	C	1.518395	-0.955455	-0.506149
C53	C	1.585246	-0.453386	-0.573208
C54	C	1.585218	-0.406466	-0.573179
C55	C	1.450910	-0.406576	-0.438681
C56	C	1.450941	-0.453492	-0.438706
C57	C	1.518113	-0.476895	-0.505978
O58	O	1.393936	-0.527761	-0.381569
O59	O	1.642385	-0.527599	-0.630450
C60	C	1.585409	-0.739576	-0.573331
C61	C	1.518270	-0.763085	-0.506097
C62	C	1.451105	-0.739680	-0.438842
C63	C	1.518301	-0.810003	-0.506109
C64	C	1.585465	-0.833409	-0.573365
C65	C	1.652599	-0.809897	-0.640607
C66	C	1.652574	-0.762981	-0.640586
C67	C	1.383971	-0.763192	-0.371599
C68	C	1.384003	-0.810107	-0.371624
C69	C	1.451167	-0.833513	-0.438879
C70	C	1.792219	-0.216414	-0.506030
C71	C	1.908996	-0.216419	-0.506037
C72	C	1.518254	-0.216358	-0.780048
C73	C	1.518283	-0.216338	-0.896825
C74	C	1.518375	-0.099225	-0.506127
C75	C	1.518456	-0.049290	-0.506175
C76	C	1.451162	-0.187596	-0.951717
C77	C	1.451194	-0.187583	-1.061441
C78	C	1.585477	-0.245054	-1.061372
C79	C	1.585439	-0.245069	-0.951650
C80	C	1.384006	-0.158865	-0.896892
C81	C	1.316880	-0.130121	-0.951784
C82	C	1.316912	-0.130107	-1.061508
C83	C	1.384069	-0.158838	-1.116341
C84	C	1.518178	-0.216416	-0.233048
C85	C	1.518353	-0.216309	-0.116272
H86	H	1.639900	-0.387326	-0.627933
O87	O	1.650694	-0.272926	-0.898209
C88	C	1.718591	-0.247362	-0.834784
H89	H	1.681592	-0.213316	-0.818385
H90	H	1.796474	-0.242425	-0.877071
C91	C	1.782976	-0.313913	-0.750674
C92	C	1.737528	-0.272099	-0.730525
H93	H	1.794662	-0.329172	-0.686364
H94	H	1.737236	-0.331136	-0.793407
H95	H	1.847873	-0.309793	-0.785916
H96	H	1.672627	-0.276219	-0.695296
H97	H	1.783258	-0.254876	-0.687783
H98	H	1.262248	-0.106706	-1.106198
H99	H	1.217889	-0.158998	-0.640678
H100	H	0.819754	-0.159020	-0.640677
H101	H	1.396557	-0.959914	-0.384138
H102	H	1.262197	-0.106732	-0.907133
O103	O	1.650830	-0.272894	-1.114679
C104	C	1.718732	-0.247309	-1.178189
H105	H	1.725265	-0.211931	-1.145158
H106	H	1.686281	-0.245747	-1.261348
C107	C	1.819895	-0.312711	-1.220414
C108	C	1.827925	-0.269260	-1.179841
H109	H	1.887249	-0.326252	-1.221438
H110	H	1.774146	-0.329949	-1.177630
H111	H	1.792848	-0.311404	-1.289710
H112	H	1.854959	-0.270568	-1.110542
H113	H	1.873681	-0.252023	-1.222613
H114	H	1.707171	-0.603096	-0.695280
H115	H	1.384087	-0.158826	-1.205685
H116	H	0.919397	-0.106958	-0.762836
O117	O	1.127131	-0.102501	-0.773517
C118	C	1.190618	-0.128107	-0.841234
H119	H	1.157520	-0.163496	-0.847561
H120	H	1.273761	-0.129632	-0.808738
C121	C	1.233017	-0.062750	-0.942785
C122	C	1.192360	-0.106214	-0.950562
H123	H	1.234096	-0.049244	-1.010222
H124	H	1.190248	-0.045497	-0.897161
H125	H	1.302299	-0.064026	-0.915700
H126	H	1.123075	-0.104937	-0.977633
H127	H	1.235118	-0.123466	-0.996193
H128	H	0.919086	-0.268479	-0.383888
H129	H	1.118155	-0.268462	-0.383866
H130	H	1.639936	-0.472435	-0.627995
H131	H	1.329220	-0.688489	-0.316810
O132	O	1.717875	-0.691813	-0.705914
C133	C	1.777097	-0.660993	-0.765264
H134	H	1.780718	-0.627565	-0.722215
H135	H	1.738581	-0.655985	-0.845024
C136	C	1.884482	-0.720301	-0.833377
C137	C	1.888936	-0.679246	-0.780499
H138	H	1.953467	-0.731561	-0.842780
H139	H	1.844580	-0.741066	-0.793395
H140	H	1.852380	-0.716123	-0.899838
H141	H	1.921025	-0.683427	-0.714035
H142	H	1.928845	-0.658483	-0.820470
H143	H	1.640245	-0.959721	-0.628155
H144	H	1.640286	-1.044843	-0.628182
H145	H	1.396626	-1.045022	-0.384155
H146	H	1.329165	-0.603381	-0.316793
H147	H	1.329326	-0.829245	-0.316860
H148	H	1.396274	-0.472634	-0.383946
H149	H	1.396228	-0.387512	-0.383919
O150	O	1.717690	-0.832659	-0.706053
C151	C	1.657834	-0.859800	-0.773837
H152	H	1.575082	-0.845681	-0.780246
H153	H	1.654241	-0.895370	-0.741352
C154	C	1.810729	-0.877808	-0.875234
C155	C	1.709093	-0.860465	-0.883113
H156	H	1.842349	-0.878220	-0.942639
H157	H	1.851056	-0.859524	-0.829564
H158	H	1.807721	-0.907448	-0.848159
H159	H	1.712103	-0.830823	-0.910174
H160	H	1.668767	-0.878744	-0.928790
H161	H	1.329276	-0.744138	-0.316833
O162	O	1.383801	-0.158918	-0.790308
C163	C	1.283070	-0.170440	-0.753636
H164	H	1.239618	-0.190014	-0.816842
H165	H	1.237608	-0.138632	-0.734205
C166	C	1.346510	-0.175509	-0.576811
C167	C	1.293146	-0.199554	-0.654439
H168	H	1.352724	-0.193467	-0.515619
H169	H	1.414374	-0.167745	-0.601516
H170	H	1.308618	-0.149004	-0.560632
H171	H	1.331045	-0.226056	-0.670626
H172	H	1.225288	-0.207323	-0.629734
H173	H	1.707250	-0.743843	-0.695339
