data_functionalizedCrystal
_audit_creation_method	'MofGen! by Chris Wilmer'
_symmetry_space_group_name_H-M	'P1'
_symmetry_Int_Tables_number	1
_symmetry_cell_setting	triclinic
loop_
_symmetry_equiv_pos_as_xyz
  x,y,z
_cell_length_a	16.109301
_cell_length_b	17.038272
_cell_length_c	15.186229
_cell_angle_alpha	90.012008
_cell_angle_beta	90.005196
_cell_angle_gamma	87.286518
loop_
_atom_site_label
_atom_site_type_symbol
_atom_site_fract_x
_atom_site_fract_y
_atom_site_fract_z
O1	O	1.110273	0.100504	0.073174
O2	O	1.610273	0.600504	0.573174
O3	O	0.869099	0.113010	0.073188
O4	O	1.369099	0.613010	0.573188
O5	O	0.988252	-0.007058	0.073174
O6	O	1.488252	0.492942	0.573174
O7	O	0.991119	0.220572	0.073187
O8	O	1.491119	0.720572	0.573187
O9	O	0.988234	-0.007078	-0.073284
O10	O	1.488234	0.492922	0.426716
O11	O	0.869080	0.112991	-0.073270
O12	O	1.369080	0.612991	0.426730
O13	O	1.110254	0.100484	-0.073284
O14	O	1.610254	0.600484	0.426716
Zn15	Zn	0.989664	0.106734	-0.096530
Zn16	Zn	1.489664	0.606734	0.403470
Zn17	Zn	0.989689	0.106760	0.096434
Zn18	Zn	1.489689	0.606760	0.596434
O19	O	0.991100	0.220553	-0.073270
O20	O	1.491100	0.720553	0.426730
C21	C	0.838079	0.112494	-0.000039
C22	C	1.338079	0.612494	0.499961
C23	C	0.745676	0.110975	-0.000034
C24	C	1.245676	0.610975	0.499966
C25	C	0.528212	0.178690	-0.000040
C26	C	1.028212	0.678690	0.499960
C27	C	0.441390	0.177257	-0.000046
C28	C	0.941390	0.677257	0.499954
C29	C	0.451147	0.034799	-0.000051
C30	C	0.951147	0.534799	0.499949
C31	C	0.537968	0.036233	-0.000051
C32	C	1.037968	0.536233	0.499949
C33	C	0.576498	0.108181	-0.000042
C34	C	1.076498	0.608181	0.499958
C35	C	0.402855	0.105314	-0.000047
C36	C	0.902855	0.605314	0.499953
C37	C	0.308719	0.103759	-0.000053
C38	C	0.808719	0.603759	0.499947
C39	C	0.670640	0.109736	-0.000037
C40	C	1.170640	0.609736	0.499963
C41	C	0.985636	-0.036196	-0.000055
C42	C	1.485636	0.463804	0.499945
C43	C	0.977857	-0.122989	-0.000054
C44	C	1.477857	0.377011	0.499946
C45	C	1.049277	-0.173104	-0.000059
C46	C	1.549277	0.326896	0.499941
C47	C	1.041963	-0.254654	-0.000050
C48	C	1.541963	0.245346	0.499950
C49	C	0.963228	-0.286089	-0.000043
C50	C	1.463228	0.213911	0.499957
C51	C	0.891802	-0.235967	-0.000035
C52	C	1.391802	0.264033	0.499965
C53	C	0.899116	-0.154418	-0.000038
C54	C	1.399116	0.345582	0.499962
C55	C	0.937385	-0.531846	-0.000029
C56	C	1.437385	-0.031846	0.499971
C57	C	0.930075	-0.613402	-0.000029
C58	C	1.430075	-0.113402	0.499971
C59	C	1.080238	-0.632083	-0.000043
C60	C	1.580238	-0.132083	0.499957
C61	C	1.087546	-0.550532	-0.000051
C62	C	1.587546	-0.050532	0.499949
C63	C	1.016120	-0.500418	-0.000038
C64	C	1.516120	-0.000418	0.499962
C65	C	0.955749	-0.369446	-0.000037
C66	C	1.455749	0.130554	0.499963
C67	C	1.023599	-0.417062	-0.000038
C68	C	1.523599	0.082938	0.499962
C69	C	1.141274	0.101001	-0.000055
C70	C	1.641274	0.601001	0.499945
C71	C	1.233677	0.102519	-0.000054
C72	C	1.733677	0.602519	0.499946
C73	C	0.993717	0.249691	-0.000039
C74	C	1.493717	0.749691	0.499961
C75	C	1.001496	0.336484	-0.000034
C76	C	1.501496	0.836484	0.499966
N77	N	0.989653	0.106717	-0.228223
N78	N	1.489653	0.606717	0.271777
C79	C	0.935906	0.059319	-0.546175
C80	C	1.435906	0.559319	-0.046175
C81	C	0.935898	0.059307	-0.453985
C82	C	1.435898	0.559307	0.046015
C83	C	1.043459	0.154172	-0.453928
C84	C	1.543459	0.654172	0.046072
C85	C	1.043470	0.154178	-0.546116
C86	C	1.543470	0.654178	-0.046116
C87	C	0.989689	0.106753	-0.592237
C88	C	1.489689	0.606753	-0.092237
C89	C	0.989670	0.106735	-0.407859
C90	C	1.489670	0.606735	0.092141
C91	C	0.989662	0.106723	-0.307903
C92	C	1.489662	0.606723	0.192097
C93	C	0.989698	0.106764	-0.692199
C94	C	1.489698	0.606764	-0.192199
N95	N	0.989706	0.106772	0.228126
N96	N	1.489706	0.606772	0.728126
H97	H	0.577284	-0.021187	-0.000055
H98	H	1.077284	0.478813	0.499945
N99	N	0.392070	0.249282	-0.000062
N100	N	0.892070	0.749282	0.499938
N101	N	0.398503	0.297121	-0.061798
N102	N	0.898503	0.797121	0.438202
H103	H	0.363672	0.347992	-0.061813
H104	H	0.863672	0.847992	0.438187
H105	H	1.113392	-0.147517	-0.000071
H106	H	1.613392	0.352483	0.499929
N107	N	0.880945	0.010868	-0.406935
N108	N	1.380945	0.510868	0.093065
N109	N	0.828132	0.041384	-0.355496
N110	N	1.328132	0.541384	0.144504
H111	H	0.789319	0.007172	-0.322267
H112	H	1.289319	0.507172	0.177733
N113	N	0.411774	-0.038683	-0.000061
N114	N	0.911774	0.461317	0.499939
N115	N	0.334256	-0.039955	-0.000060
N116	N	0.834256	0.460045	0.499940
H117	H	0.306449	-0.091853	-0.000065
H118	H	0.806449	0.408147	0.499935
N119	N	0.567557	0.252186	-0.000031
N120	N	1.067557	0.752186	0.499969
N121	N	0.524431	0.315135	-0.000032
N122	N	1.024431	0.815135	0.499968
H123	H	0.552215	0.367044	-0.000028
H124	H	1.052215	0.867044	0.499972
H125	H	1.100122	-0.295455	-0.000056
H126	H	1.600122	0.204545	0.499944
H127	H	1.151661	-0.524945	-0.000057
H128	H	1.651661	-0.024945	0.499943
N129	N	1.153185	-0.683284	-0.000057
N130	N	1.653185	-0.183284	0.499943
N131	N	1.146648	-0.756094	-0.000057
N132	N	1.646648	-0.256094	0.499943
H133	H	1.198169	-0.792257	-0.000065
H134	H	1.698169	-0.292257	0.499935
H135	H	1.087705	-0.391465	-0.000025
H136	H	1.587705	0.108535	0.499975
H137	H	0.865956	-0.638991	-0.000037
H138	H	1.365956	-0.138991	0.499963
H139	H	1.087244	0.192785	-0.416365
H140	H	1.587244	0.692785	0.083635
N141	N	0.864419	-0.480675	-0.000023
N142	N	1.364419	0.019325	0.499977
N143	N	0.794127	-0.508754	-0.000023
N144	N	1.294127	-0.008754	0.499977
H145	H	0.742590	-0.472611	-0.000022
H146	H	1.242590	0.027389	0.499978
H147	H	0.892115	0.020701	-0.583724
H148	H	1.392115	0.520701	-0.083724
N149	N	1.098393	0.202643	-0.593187
N150	N	1.598393	0.702643	-0.093187
N151	N	1.098389	0.202644	-0.675497
N152	N	1.598389	0.702644	-0.175497
H153	H	1.137175	0.236871	-0.708743
H154	H	1.637175	0.736871	-0.208743
H155	H	0.827693	-0.261567	-0.000023
H156	H	1.327693	0.238433	0.499977
N157	N	0.826154	-0.103236	-0.000021
N158	N	1.326154	0.396764	0.499979
N159	N	0.755858	-0.131309	-0.000009
N160	N	1.255858	0.368691	0.499991
H161	H	0.704324	-0.095163	0.000008
H162	H	1.204324	0.404837	0.500008
H163	H	0.891642	-0.395049	-0.000032
H164	H	1.391642	0.104951	0.499968
