data_functionalizedCrystal
_audit_creation_method	'MofGen! by Chris Wilmer'
_symmetry_space_group_name_H-M	'P1'
_symmetry_Int_Tables_number	1
_symmetry_cell_setting	triclinic
loop_
_symmetry_equiv_pos_as_xyz
  x,y,z
_cell_length_a	13.032831
_cell_length_b	12.594516
_cell_length_c	12.594505
_cell_angle_alpha	89.945151
_cell_angle_beta	82.782254
_cell_angle_gamma	82.821304
loop_
_atom_site_label
_atom_site_type_symbol
_atom_site_fract_x
_atom_site_fract_y
_atom_site_fract_z
Zn1	Zn	1.598025	-0.630313	-0.808221
Zn2	Zn	1.597852	-0.808390	-0.630226
Zn3	Zn	1.423186	-0.607811	-0.607673
Zn4	Zn	1.423235	-0.785619	-0.785609
O5	O	1.510574	-0.708034	-0.707932
O6	O	1.744251	-0.672883	-0.803511
O7	O	1.574589	-0.781895	-0.478276
O8	O	1.446431	-0.461857	-0.634301
O9	O	1.744124	-0.803715	-0.672739
O10	O	1.574885	-0.478389	-0.781642
O11	O	1.446263	-0.634531	-0.461707
O12	O	1.276944	-0.612451	-0.612375
O13	O	1.446514	-0.764905	-0.937566
O14	O	1.276979	-0.743086	-0.743103
O15	O	1.574932	-0.650803	-0.954179
O16	O	1.574636	-0.954309	-0.650813
O17	O	1.446346	-0.937579	-0.764972
C18	C	1.239041	-0.672856	-0.672839
C19	C	1.122878	-0.657833	-0.657851
C20	C	1.071134	-0.715875	-0.715754
C21	C	0.951073	-0.700349	-0.700265
C22	C	1.510506	-0.984566	-0.707913
C23	C	1.510572	-1.102880	-0.707952
C24	C	1.440788	-1.163071	-0.769993
C25	C	1.415288	-1.230684	-0.669577
C26	C	1.536167	-1.246079	-0.808397
C27	C	1.485022	-1.168927	-0.607479
C28	C	1.605945	-1.184322	-0.746370
C29	C	1.580482	-1.251907	-0.645892
C30	C	1.783168	-0.743349	-0.743163
C31	C	1.899331	-0.758398	-0.758176
C32	C	1.510747	-0.707824	-0.985576
C33	C	1.510821	-0.707735	-1.103891
C34	C	1.510672	-0.430425	-0.707978
C35	C	1.510713	-0.312125	-0.707998
C36	C	1.510462	-0.708173	-0.431376
C37	C	1.510591	-0.707989	-0.313088
C38	C	1.440447	-0.628121	-0.164069
C39	C	1.415462	-0.722274	-0.231353
C40	C	1.535527	-0.613843	-0.247369
C41	C	1.485789	-0.801932	-0.169610
C42	C	1.605898	-0.693440	-0.185626
C43	C	1.580950	-0.787665	-0.252883
H44	H	1.334699	-1.251480	-0.637115
C45	C	0.917136	-0.644014	-0.515766
C46	C	0.890910	-0.617742	-0.617850
H47	H	0.879999	-0.593013	-0.464889
H48	H	0.899267	-0.713214	-0.497791
H49	H	0.989928	-0.643615	-0.515384
H50	H	0.818119	-0.618149	-0.618234
H51	H	0.908772	-0.548525	-0.635829
H52	H	1.686517	-1.163526	-0.778876
H53	H	1.381668	-1.124352	-0.822357
C54	C	1.788346	-0.759414	-0.204649
C55	C	1.714536	-0.676919	-0.157892
H56	H	1.855413	-0.749200	-0.187525
H57	H	1.770797	-0.826264	-0.177997
H58	H	1.788895	-0.758711	-0.280141
H59	H	1.713981	-0.677626	-0.082399
H60	H	1.732089	-0.610051	-0.184540
C61	C	1.088937	-0.601503	-0.473356
C62	C	1.062711	-0.575231	-0.575440
H63	H	1.051800	-0.550502	-0.422479
H64	H	1.071067	-0.670702	-0.455381
H65	H	1.161729	-0.601104	-0.472974
H66	H	0.989920	-0.575638	-0.575824
H67	H	1.080573	-0.506014	-0.593420
H68	H	1.464704	-0.881453	-0.135692
H69	H	1.334959	-0.734484	-0.251852
C70	C	0.933282	-0.814734	-0.942676
C71	C	0.959501	-0.841003	-0.840589
H72	H	0.970433	-0.865728	-0.993552
H73	H	0.860502	-0.815141	-0.943067
H74	H	0.951148	-0.745522	-0.960648
H75	H	0.941628	-0.910212	-0.822613
H76	H	1.032297	-0.840607	-0.840194
H77	H	1.640365	-0.855170	-0.291390
C78	C	1.490187	-0.423138	-0.248124
C79	C	1.563875	-0.506512	-0.293319
H80	H	1.507686	-0.356876	-0.276486
H81	H	1.423056	-0.433934	-0.264570
H82	H	1.489858	-0.422052	-0.172665
H83	H	1.564199	-0.507603	-0.368778
H84	H	1.631023	-0.495713	-0.276881
C85	C	1.437843	-1.207100	-0.422208
C86	C	1.455745	-1.123496	-0.492780
H87	H	1.419773	-1.179050	-0.351400
H88	H	1.382412	-1.241972	-0.442056
H89	H	1.499212	-1.256971	-0.425295
H90	H	1.394373	-1.073629	-0.489699
H91	H	1.511181	-1.088608	-0.472926
H92	H	1.115718	-0.777056	-0.776798
C93	C	1.660252	-1.415092	-0.576288
C94	C	1.660228	-1.303919	-0.575005
H95	H	1.709485	-1.447201	-0.532527
H96	H	1.592763	-1.431745	-0.549626
H97	H	1.678544	-1.441726	-0.647581
H98	H	1.641928	-1.277284	-0.503712
H99	H	1.727732	-1.287257	-0.601662
H100	H	1.557759	-1.279857	-0.893324
C101	C	1.260554	-0.552552	-0.134419
C102	C	1.360188	-0.537182	-0.111797
H103	H	1.211006	-0.496416	-0.102141
H104	H	1.259485	-0.552409	-0.209688
H105	H	1.243595	-0.619250	-0.106753
H106	H	1.377150	-0.470487	-0.139470
H107	H	1.361259	-0.537314	-0.036513
