data_functionalizedCrystal
_audit_creation_method	'MofGen! by Chris Wilmer'
_symmetry_space_group_name_H-M	'P1'
_symmetry_Int_Tables_number	1
_symmetry_cell_setting	triclinic
loop_
_symmetry_equiv_pos_as_xyz
  x,y,z
_cell_length_a	6.817900
_cell_length_b	10.773890
_cell_length_c	12.200737
_cell_angle_alpha	95.688235
_cell_angle_beta	107.141108
_cell_angle_gamma	96.645716
loop_
_atom_site_label
_atom_site_type_symbol
_atom_site_fract_x
_atom_site_fract_y
_atom_site_fract_z
V1	V	-4.033564	-0.172884	-0.355789
O2	O	-4.056623	0.008008	-0.350940
O3	O	-3.950724	-0.342512	-0.351507
O4	O	-4.003784	-0.170356	-0.511805
O5	O	-4.003195	-0.165339	-0.189531
V6	V	-4.519242	-0.151232	-0.336128
O7	O	-4.290095	-0.220380	-0.398918
O8	O	-4.712908	-0.103736	-0.293000
O9	O	-4.378876	0.018396	-0.340411
O10	O	-4.613580	-0.332124	-0.340978
O11	O	-4.667008	-0.158777	-0.502386
O12	O	-4.325816	-0.153760	-0.180113
C13	C	-3.786744	-0.383860	-0.345417
C14	C	-3.800423	-0.522533	-0.342955
C15	C	-3.854426	-0.164256	-0.549892
C16	C	-3.911133	-0.163312	-0.677424
C17	C	-3.979008	-0.590400	-0.347233
C18	C	-3.993150	-0.733727	-0.344689
C19	C	-3.957184	-0.162544	-0.780993
C20	C	-4.014972	-0.161574	-0.910926
C21	C	-4.206196	0.059737	-0.346498
C22	C	-4.171756	0.198410	-0.348967
C23	C	-4.138514	-0.159864	-0.142020
C24	C	-4.061046	-0.160802	-0.014487
H25	H	-4.121435	-0.542395	-0.352785
C26	C	-4.312828	-0.607360	-0.357517
C27	C	-4.364051	-0.736804	-0.356449
H28	H	-4.431539	-0.567365	-0.362128
H29	H	-4.267377	-0.594910	-0.422649
H30	H	-4.204849	-0.572013	-0.288486
H31	H	-4.472021	-0.772153	-0.425484
H32	H	-4.409532	-0.749262	-0.291311
H33	H	-3.850716	-0.781729	-0.339149
H34	H	-3.658002	-0.570541	-0.337416
