data_functionalizedCrystal
_audit_creation_method	'MofGen! by Chris Wilmer'
_symmetry_space_group_name_H-M	'P1'
_symmetry_Int_Tables_number	1
_symmetry_cell_setting	triclinic
loop_
_symmetry_equiv_pos_as_xyz
  x,y,z
_cell_length_a	8.497366
_cell_length_b	12.759401
_cell_length_c	12.759399
_cell_angle_alpha	89.985798
_cell_angle_beta	90.050214
_cell_angle_gamma	89.968508
loop_
_atom_site_label
_atom_site_type_symbol
_atom_site_fract_x
_atom_site_fract_y
_atom_site_fract_z
Zn1	Zn	-0.891911	1.606385	0.418041
Zn2	Zn	-0.628113	1.606239	0.593816
Zn3	Zn	-0.628143	1.430647	0.418149
Zn4	Zn	-0.891850	1.430674	0.593676
O5	O	-0.760004	1.518486	0.505920
O6	O	-0.856931	1.753386	0.441371
O7	O	-0.407355	1.582874	0.570617
O8	O	-0.663170	1.454009	0.271113
O9	O	-0.663120	1.753279	0.570512
O10	O	-0.856959	1.583123	0.271034
O11	O	-0.407376	1.453868	0.441555
O12	O	-0.663111	1.283630	0.441419
O13	O	-1.112621	1.454054	0.570274
O14	O	-0.856856	1.283649	0.570378
O15	O	-1.112666	1.583148	0.441236
O16	O	-0.663061	1.582899	0.740818
O17	O	-0.856827	1.453913	0.740715
C18	C	-0.759981	1.245519	0.505896
C19	C	-0.760009	1.128742	0.505911
C20	C	-0.861093	0.964200	0.438813
C21	C	-0.861082	1.073924	0.438792
C22	C	-0.658950	1.073831	0.573062
C23	C	-0.658970	0.964109	0.573087
C24	C	-1.047206	1.223957	0.401326
C25	C	-1.148246	1.278865	0.334166
C26	C	-1.172741	1.243267	0.231674
C27	C	-1.096172	1.152763	0.196321
C28	C	-0.995120	1.097861	0.263475
C29	C	-0.970656	1.133458	0.365982
C30	C	-0.472844	0.814073	0.610542
C31	C	-0.371783	0.759169	0.677692
C32	C	-0.347273	0.794765	0.780186
C33	C	-0.423813	0.885272	0.815535
C34	C	-0.524874	0.940176	0.748385
C35	C	-0.549387	0.904572	0.645892
C36	C	-0.171485	1.518548	0.505824
C37	C	-0.350128	1.518408	0.506044
C38	C	-0.759969	1.518422	0.778888
C39	C	-0.760006	1.518490	0.895664
C40	C	-0.760029	1.792519	0.505946
C41	C	-0.760039	1.909296	0.505956
C42	C	-0.760075	1.518579	0.231887
C43	C	-0.760105	1.518619	0.115110
C44	C	-0.659226	1.585730	0.950545
C45	C	-0.659279	1.585798	1.060269
C46	C	-0.860896	1.451376	1.060222
C47	C	-0.860849	1.451315	0.950500
C48	C	-0.603136	1.709799	1.210162
C49	C	-0.502331	1.777029	1.265046
C50	C	-0.348405	1.793171	1.229541
C51	C	-0.295251	1.742067	1.139153
C52	C	-0.396046	1.674828	1.084275
C53	C	-0.549995	1.658706	1.119778
C54	C	-0.916977	1.327312	0.800605
C55	C	-1.017766	1.260068	0.745724
C56	C	-1.171695	1.243915	0.781227
C57	C	-1.224844	1.295001	0.871619
C58	C	-1.124055	1.362246	0.926499
C59	C	-0.970127	1.378400	0.890988
H60	H	-1.027285	1.252944	0.484786
N61	N	-0.607480	1.037772	0.786524
H62	H	-0.675229	1.067144	0.728435
H63	H	-0.526643	1.091664	0.807998
H64	H	-1.116109	1.123794	0.112856
N65	N	-1.281719	1.302483	0.159235
H66	H	-1.326504	1.365215	0.197181
H67	H	-1.370313	1.254936	0.136380
N68	N	-0.960410	1.205049	0.648191
H69	H	-1.028189	1.226076	0.586606
H70	H	-0.966986	1.126713	0.658660
H71	H	-0.577116	1.640430	0.905900
H72	H	-0.932979	1.024080	0.234746
H73	H	-1.210588	1.352553	0.362960
H74	H	-0.576661	1.118473	0.627715
H75	H	-0.942996	1.396683	1.104883
N76	N	-0.397377	0.923679	0.926080
H77	H	-0.321745	0.875165	0.963256
H78	H	-0.500965	0.924875	0.964813
H79	H	-0.791638	1.340467	0.771683
H80	H	-0.352771	1.633222	1.010681
H81	H	-0.264970	0.750056	0.834856
N82	N	-0.129220	1.759465	1.100859
H83	H	-0.052237	1.736925	1.156860
H84	H	-0.113478	1.836251	1.084769
H85	H	-0.545624	1.818639	1.338640
H86	H	-0.943389	0.919574	0.384150
N87	N	-0.289214	0.661554	0.639567
H88	H	-0.320082	0.647327	0.564449
H89	H	-0.320714	0.600093	0.684801
H90	H	-0.492798	0.785080	0.527083
N91	N	-0.239656	1.865649	1.288758
H92	H	-0.296676	1.895560	1.351411
H93	H	-0.205261	1.924596	1.241177
H94	H	-0.728480	1.696672	1.239072
H95	H	-1.350186	1.281850	0.900526
N96	N	-1.181370	1.417347	1.023996
H97	H	-1.294179	1.396913	1.038164
H98	H	-1.174622	1.495669	1.013472
N99	N	-1.280402	1.171376	0.722044
H100	H	-1.223379	1.141453	0.659398
H101	H	-1.375865	1.211758	0.697573
