data_functionalizedCrystal
_audit_creation_method	'MofGen! by Chris Wilmer'
_symmetry_space_group_name_H-M	'P1'
_symmetry_Int_Tables_number	1
_symmetry_cell_setting	triclinic
loop_
_symmetry_equiv_pos_as_xyz
  x,y,z
_cell_length_a	6.817900
_cell_length_b	19.551823
_cell_length_c	10.992410
_cell_angle_alpha	94.485119
_cell_angle_beta	108.764651
_cell_angle_gamma	101.663376
loop_
_atom_site_label
_atom_site_type_symbol
_atom_site_fract_x
_atom_site_fract_y
_atom_site_fract_z
V1	V	-4.078420	-0.096675	-0.401194
O2	O	-4.074098	0.004646	-0.392939
O3	O	-4.020787	-0.191690	-0.399044
O4	O	-4.056564	-0.095188	-0.575897
O5	O	-4.038073	-0.092525	-0.214862
V6	V	-4.559806	-0.084556	-0.378835
O7	O	-4.344369	-0.123259	-0.450240
O8	O	-4.744055	-0.057972	-0.329788
O9	O	-4.394233	0.010459	-0.380984
O10	O	-4.681525	-0.185876	-0.387090
O11	O	-4.717550	-0.088706	-0.565167
O12	O	-4.358456	-0.086043	-0.204132
C13	C	-3.862682	-0.214853	-0.392869
C14	C	-3.897024	-0.292529	-0.392276
C15	C	-3.908318	-0.091754	-0.618460
C16	C	-3.971670	-0.091166	-0.761285
C17	C	-4.095899	-0.332575	-0.398422
C18	C	-4.128173	-0.405561	-0.397879
C19	C	-3.961548	-0.438496	-0.391162
C20	C	-3.762648	-0.398442	-0.385022
C21	C	-3.730386	-0.325458	-0.385579
C22	C	-3.835941	-0.544984	-0.309690
C23	C	-3.868206	-0.617965	-0.309125
C24	C	-4.061050	-0.663602	-0.389449
C25	C	-4.221650	-0.636247	-0.470323
C26	C	-4.189388	-0.563263	-0.470880
C27	C	-3.996510	-0.517634	-0.390558
C28	C	-4.294934	-0.782788	-0.395008
C29	C	-4.327205	-0.855776	-0.394472
C30	C	-3.961667	-0.848654	-0.381602
C31	C	-3.929408	-0.775669	-0.382152
C32	C	-4.096046	-0.742740	-0.388849
C33	C	-3.840776	-0.085817	-0.956375
C34	C	-3.774892	-0.086717	-0.807897
C35	C	-4.144154	-0.160061	-0.838817
C36	C	-4.208693	-0.159452	-0.987380
C37	C	-4.135899	-0.026047	-0.948519
C38	C	-4.065311	-0.025720	-0.799504
C39	C	-4.215678	0.033618	-0.387156
C40	C	-4.160576	0.111294	-0.387757
C41	C	-4.170042	-0.089479	-0.161562
C42	C	-4.085929	-0.090063	-0.018736
H43	H	-4.231596	-0.305769	-0.403884
H44	H	-3.700429	-0.133352	-0.783372
H45	H	-4.313955	-0.028551	-0.989375
H46	H	-4.052374	0.026270	-0.968552
N47	N	-3.515878	-0.282261	-0.378957
H48	H	-3.415215	-0.314198	-0.374625
H49	H	-3.455683	-0.245039	-0.298846
H50	H	-4.290126	-0.438172	-0.402883
H51	H	-3.678891	-0.507832	-0.244285
N52	N	-3.785145	-0.146746	-1.020302
H53	H	-3.676535	-0.127853	-1.061431
H54	H	-3.918160	-0.177062	-1.089427
N55	N	-4.541723	-0.898973	-0.401112
H56	H	-4.654847	-0.894606	-0.484074
H57	H	-4.576967	-0.881021	-0.323900
H58	H	-3.767460	-0.743062	-0.377138
N59	N	-3.781933	-0.884162	-0.374363
H60	H	-3.826011	-0.921069	-0.453904
H61	H	-3.748399	-0.907458	-0.293740
N62	N	-4.446828	-0.167385	-1.043904
H63	H	-4.513811	-0.211433	-1.111083
H64	H	-4.476586	-0.124745	-1.086133
H65	H	-4.320154	-0.540994	-0.536731
N66	N	-4.164298	-0.223657	-1.049083
H67	H	-4.103067	-0.252087	-0.979710
H68	H	-4.058630	-0.208060	-1.094038
N69	N	-4.253848	-0.024610	-0.756344
H70	H	-4.281373	-0.066709	-0.711218
H71	H	-4.384120	-0.026699	-0.834697
N72	N	-3.695007	-0.647467	-0.221893
H73	H	-3.567937	-0.607484	-0.171104
H74	H	-3.650572	-0.680995	-0.276671
H75	H	-4.378528	-0.673414	-0.535907
N76	N	-4.474649	-0.747265	-0.402233
H77	H	-4.605544	-0.783713	-0.406054
H78	H	-4.508063	-0.723920	-0.482800
H79	H	-3.626984	-0.425262	-0.379556
H80	H	-3.644796	-0.037179	-0.754249
N81	N	-4.059691	-0.224428	-0.805317
H82	H	-4.171829	-0.268491	-0.855696
H83	H	-4.023447	-0.225660	-0.709030
N84	N	-3.709990	-0.019751	-0.980907
H85	H	-3.808376	0.008069	-1.032685
H86	H	-3.619551	-0.033265	-1.031326
N87	N	-4.340537	-0.167676	-0.800726
H88	H	-4.319532	-0.126441	-0.732679
H89	H	-4.365117	-0.213216	-0.764281
N90	N	-3.900573	0.041794	-0.729762
H91	H	-3.765843	0.030043	-0.673637
H92	H	-3.957987	0.069465	-0.673335
