data_functionalizedCrystal
_audit_creation_method	'MofGen! by Chris Wilmer'
_symmetry_space_group_name_H-M	'P1'
_symmetry_Int_Tables_number	1
_symmetry_cell_setting	triclinic
loop_
_symmetry_equiv_pos_as_xyz
  x,y,z
_cell_length_a	15.297475
_cell_length_b	18.050590
_cell_length_c	15.296720
_cell_angle_alpha	99.643572
_cell_angle_beta	91.617114
_cell_angle_gamma	80.320920
loop_
_atom_site_label
_atom_site_type_symbol
_atom_site_fract_x
_atom_site_fract_y
_atom_site_fract_z
Zn1	Zn	1.253450	-0.577990	-0.726578
Zn2	Zn	1.278722	-0.684928	-0.580090
Zn3	Zn	1.132324	-0.536269	-0.554820
Zn4	Zn	1.106947	-0.677628	-0.701219
O5	O	1.192861	-0.619204	-0.640677
O6	O	1.379382	-0.612691	-0.728334
O7	O	1.280498	-0.650803	-0.454164
O8	O	1.148436	-0.437891	-0.577642
O9	O	1.397949	-0.691258	-0.620710
O10	O	1.237426	-0.468543	-0.703832
O11	O	1.172941	-0.541584	-0.435598
O12	O	1.006378	-0.534505	-0.553052
O13	O	1.105185	-0.678816	-0.827157
O14	O	0.987734	-0.638361	-0.660610
O15	O	1.212819	-0.605613	-0.845788
O16	O	1.255891	-0.787873	-0.596120
O17	O	1.129689	-0.782509	-0.685113
C18	C	0.965272	-0.581114	-0.601338
C19	C	0.867905	-0.564840	-0.584529
C20	C	1.192799	-0.812141	-0.640630
C21	C	1.192848	-0.894697	-0.640653
C22	C	0.554774	-0.735526	-0.760813
C23	C	0.646255	-0.750822	-0.776603
C24	C	0.701672	-0.704328	-0.728586
C25	C	0.665599	-0.642535	-0.664776
C26	C	0.574109	-0.627241	-0.648979
C27	C	0.721008	-0.596043	-0.616753
C28	C	0.684934	-0.534250	-0.552942
C29	C	0.593453	-0.518959	-0.537149
C30	C	0.538037	-0.565453	-0.585166
C31	C	0.812497	-0.611337	-0.632549
C32	C	0.831833	-0.503052	-0.520715
C33	C	0.740351	-0.487756	-0.504925
C34	C	1.261584	-1.097067	-0.592362
C35	C	1.269139	-1.159389	-0.675998
C36	C	1.192892	-1.045840	-0.640697
C37	C	1.185420	-1.130619	-0.557112
C38	C	1.192937	-1.191836	-0.640732
C39	C	1.200481	-1.107086	-0.724382
C40	C	1.116734	-1.078299	-0.605436
C41	C	1.124248	-1.140600	-0.689122
C42	C	1.192868	-0.961735	-0.640676
C43	C	1.192959	-1.275940	-0.640762
C44	C	1.421338	-0.657443	-0.680170
C45	C	1.518701	-0.673738	-0.697000
C46	C	1.153352	-0.646054	-0.869143
C47	C	1.136516	-0.657496	-0.966502
C48	C	1.192943	-0.425520	-0.640747
C49	C	1.192978	-0.342983	-0.640776
C50	C	1.313224	-0.537303	-1.279743
C51	C	1.329048	-0.526555	-1.188271
C52	C	1.280916	-0.559289	-1.132824
C53	C	1.216958	-0.602773	-1.168859
C54	C	1.201138	-0.613527	-1.260341
C55	C	1.168830	-0.635513	-1.113422
C56	C	1.104872	-0.678998	-1.149457
C57	C	1.089053	-0.689749	-1.240930
C58	C	1.137185	-0.657015	-1.296377
C59	C	1.184650	-0.624759	-1.021940
C60	C	1.072564	-0.700984	-1.002538
C61	C	1.056740	-0.711732	-1.094010
C62	C	1.232266	-0.592413	-0.413108
C63	C	1.249272	-0.580791	-0.315779
H64	H	0.841859	-0.661649	-0.684505
Cl65	Cl	0.548107	-0.441281	-0.456923
H66	H	1.206743	-1.096403	-0.795131
Cl67	Cl	1.175631	-1.147249	-0.447955
H68	H	0.776160	-0.716785	-0.741447
Cl69	Cl	1.368604	-1.213562	-0.722090
Cl70	Cl	1.265051	-0.570094	-0.976650
Cl71	Cl	1.034576	-1.170055	-0.752338
Cl72	Cl	1.300808	-0.545773	-1.017828
H73	H	0.463544	-0.553001	-0.572315
H74	H	1.004664	-0.747137	-1.123363
H75	H	1.052334	-1.043186	-0.575572
H76	H	1.381125	-0.491152	-1.158938
H77	H	1.352411	-0.510660	-1.324896
Cl78	Cl	1.351280	-1.067431	-0.529335
H79	H	1.033372	-0.727640	-0.957393
H80	H	0.675620	-0.801135	-0.828555
H81	H	0.710967	-0.437444	-0.452970
H82	H	1.036982	-0.725165	-1.270267
H83	H	0.876954	-0.465193	-0.481615
Cl84	Cl	0.485108	-0.793982	-0.821150
H85	H	1.124305	-0.665764	-1.370862
