data_functionalizedCrystal
_audit_creation_method	'MofGen! by Chris Wilmer'
_symmetry_space_group_name_H-M	'P1'
_symmetry_Int_Tables_number	1
_symmetry_cell_setting	triclinic
loop_
_symmetry_equiv_pos_as_xyz
  x,y,z
_cell_length_a	10.540510
_cell_length_b	16.109301
_cell_length_c	15.186229
_cell_angle_alpha	90.000894
_cell_angle_beta	89.996395
_cell_angle_gamma	83.987396
loop_
_atom_site_label
_atom_site_type_symbol
_atom_site_fract_x
_atom_site_fract_y
_atom_site_fract_z
O1	O	1.684239	0.117047	-0.073224
O2	O	1.314663	0.128113	-0.073224
O3	O	1.509603	0.001610	-0.073228
O4	O	1.489298	0.243550	-0.073219
O5	O	1.509590	0.001609	0.073229
O6	O	1.314650	0.128111	0.073234
O7	O	1.684226	0.117046	0.073233
Zn8	Zn	1.499436	0.122578	0.096487
Zn9	Zn	1.499453	0.122580	-0.096477
O10	O	1.489285	0.243548	0.073238
C11	C	1.267365	0.127287	0.000005
C12	C	1.126450	0.124820	0.000005
C13	C	0.907742	0.212701	-0.000329
C14	C	1.054300	0.215332	0.000007
C15	C	1.082343	0.078486	0.083635
C16	C	0.935611	0.076495	0.083700
C17	C	0.935846	0.074612	-0.082850
C18	C	1.082126	0.078906	-0.083950
C19	C	1.508775	-0.029370	-0.000003
C20	C	1.506309	-0.121681	-0.000012
C21	C	1.731524	0.117871	0.000003
C22	C	1.872439	0.120338	-0.000003
C23	C	1.490114	0.274529	0.000010
C24	C	1.492580	0.366839	0.000014
N25	N	1.499433	0.122576	0.228179
C26	C	1.382640	0.588447	0.000001
C27	C	1.384967	0.675181	-0.000006
C28	C	1.616257	0.656705	-0.000002
C29	C	1.613929	0.569972	-0.000002
C30	C	1.497117	0.535846	0.000004
C31	C	1.501772	0.709313	-0.000003
C32	C	1.504296	0.803354	-0.000010
C33	C	1.494592	0.441798	0.000010
N34	N	1.499465	0.122576	-0.228170
C35	C	1.585782	0.066580	0.453900
C36	C	1.585786	0.066578	0.546090
C37	C	1.413107	0.178575	0.546103
C38	C	1.413098	0.178572	0.453915
C39	C	1.499443	0.122575	0.407816
C40	C	1.499456	0.122576	0.592194
C41	C	1.499460	0.122575	0.692150
C42	C	1.499438	0.122576	0.307853
H43	H	0.863730	0.247759	0.059310
H44	H	1.707155	0.527142	-0.000002
Cl45	Cl	0.842200	0.267150	-0.092928
H46	H	1.656090	0.020980	0.583609
Cl47	Cl	1.097353	0.271628	0.092729
Cl48	Cl	1.304543	0.248968	0.395975
Cl49	Cl	1.304569	0.248970	0.604060
Cl50	Cl	0.872808	0.125385	0.180219
H51	H	1.083134	0.251581	-0.059945
Cl52	Cl	0.901590	-0.028019	0.089613
Cl53	Cl	1.156960	-0.024395	0.088433
Cl54	Cl	1.763099	0.699613	-0.000005
Cl55	Cl	1.235791	0.545547	0.000004
H56	H	1.291749	0.718006	-0.000010
Cl57	Cl	1.129256	0.128163	0.179733
Cl58	Cl	1.694325	-0.003819	0.395951
Cl59	Cl	0.869555	0.118693	-0.180717
Cl60	Cl	1.125635	0.130927	-0.179475
H61	H	0.914661	0.006656	-0.083418
Cl62	Cl	1.159326	-0.023123	-0.091749
