data_functionalizedCrystal
_audit_creation_method	'MofGen! by Chris Wilmer'
_symmetry_space_group_name_H-M	'P1'
_symmetry_Int_Tables_number	1
_symmetry_cell_setting	triclinic
loop_
_symmetry_equiv_pos_as_xyz
  x,y,z
_cell_length_a	6.817900
_cell_length_b	12.840933
_cell_length_c	11.168121
_cell_angle_alpha	81.885201
_cell_angle_beta	108.508496
_cell_angle_gamma	88.345099
loop_
_atom_site_label
_atom_site_type_symbol
_atom_site_fract_x
_atom_site_fract_y
_atom_site_fract_z
V1	V	-3.924379	0.325223	-0.177679
O2	O	-3.887500	0.319023	0.005477
O3	O	-3.901931	0.323007	-0.349364
O4	O	-3.819768	0.467060	-0.176289
O5	O	-3.970232	0.173973	-0.168796
V6	V	-4.411928	0.307131	-0.155613
O7	O	-4.176806	0.364908	-0.226084
O8	O	-4.609698	0.267445	-0.107209
O9	O	-4.211170	0.309347	0.016072
O10	O	-4.566204	0.313331	-0.338769
O11	O	-4.483473	0.458381	-0.164496
O12	O	-4.293333	0.165294	-0.157003
C13	C	-3.755063	0.317879	-0.391175
C14	C	-3.817621	0.317012	-0.531539
C15	C	-4.017529	0.321573	-0.600273
C16	C	-4.082189	0.320678	-0.745346
C17	C	-3.650268	0.501631	-0.170395
C18	C	-3.646114	0.619762	-0.170392
C19	C	-4.126174	0.130717	-0.162895
C20	C	-4.109178	0.012585	-0.162894
V21	V	-3.907329	0.811387	-0.177688
O22	O	-3.942562	0.962592	-0.168802
O23	O	-3.812865	0.664203	-0.176299
O24	O	-3.883341	0.852799	-0.349371
O25	O	-3.871598	0.772690	0.005468
V26	V	-4.392933	0.848831	-0.155629
O27	O	-4.161695	0.795863	-0.226096
O28	O	-4.587972	0.887041	-0.107227
O29	O	-4.264583	0.984767	-0.157014
O30	O	-4.474890	0.703541	-0.164516
O31	O	-4.545854	0.893443	-0.338786
O32	O	-4.194107	0.796171	0.016057
C33	C	-4.021382	0.314472	0.057877
C34	C	-3.938060	0.315345	0.198239
C35	C	-3.736023	0.860336	-0.391172
C36	C	-3.797245	0.897335	-0.531533
C37	C	-4.007013	0.920164	-0.603935
C38	C	-4.064564	0.954943	-0.735818
C39	C	-3.912346	0.966886	-0.795297
C40	C	-3.702560	0.944057	-0.722885
C41	C	-3.645011	0.909285	-0.591004
C42	C	-4.005358	0.771666	0.057871
C43	C	-3.923411	0.733630	0.198235
C44	C	-3.711818	0.703346	0.257688
C45	C	-3.634788	0.667619	0.389577
C46	C	-3.769357	0.662172	0.462008
C47	C	-3.980968	0.692463	0.402547
C48	C	-4.057992	0.728196	0.270662
H49	H	-4.140807	0.326147	-0.551718
F50	F	-4.306038	0.325773	-0.822570
F51	F	-3.421745	0.884984	-0.513963
F52	F	-3.687351	0.624138	0.602372
F53	F	-4.124165	0.686657	0.479651
F54	F	-3.568560	0.709137	0.180624
H55	H	-4.230292	0.752847	0.222265
F56	F	-3.409573	0.635382	0.452835
F57	F	-3.714207	0.310235	-0.724542
H58	H	-4.235390	0.973524	-0.794758
F59	F	-4.169051	0.907464	-0.540657
F60	F	-3.656478	0.311050	-0.594999
F61	F	-3.973626	1.003893	-0.935660
F62	F	-3.540579	0.956768	-0.786207
