data_functionalizedCrystal
_audit_creation_method	'MofGen! by Chris Wilmer'
_symmetry_space_group_name_H-M	'P1'
_symmetry_Int_Tables_number	1
_symmetry_cell_setting	triclinic
loop_
_symmetry_equiv_pos_as_xyz
  x,y,z
_cell_length_a	10.908937
_cell_length_b	10.967829
_cell_length_c	14.586319
_cell_angle_alpha	77.868327
_cell_angle_beta	89.994711
_cell_angle_gamma	72.684843
loop_
_atom_site_label
_atom_site_type_symbol
_atom_site_fract_x
_atom_site_fract_y
_atom_site_fract_z
O1	O	1.702141	-0.192362	-0.045878
O2	O	1.329138	-0.095099	-0.061239
O3	O	1.524241	-0.327165	-0.024574
O4	O	1.507038	0.039704	-0.082542
O5	O	1.524228	-0.327165	0.127907
O6	O	1.329124	-0.095099	0.091242
O7	O	1.702127	-0.192362	0.106603
Cu8	Cu	1.515624	-0.143730	0.112845
Cu9	Cu	1.515641	-0.143730	-0.067481
O10	O	1.507024	0.039704	0.069938
C11	C	1.281370	-0.086010	0.013566
C12	C	1.139058	-0.058941	0.009291
C13	C	1.522982	-0.373395	0.058969
C14	C	1.519233	-0.511142	0.080729
C15	C	0.942091	-0.129748	0.020463
C16	C	1.089179	-0.157727	0.024895
C17	C	1.517570	-0.572548	0.011439
C18	C	1.513696	-0.714916	0.033927
C19	C	1.749895	-0.201451	0.031796
C20	C	1.892208	-0.228520	0.036065
C21	C	1.508284	0.085934	-0.013607
C22	C	1.512032	0.223681	-0.035372
N23	N	1.515622	-0.143733	0.239677
N24	N	1.515653	-0.143740	-0.194311
C25	C	1.602043	-0.246470	0.490916
C26	C	1.602047	-0.246473	0.586897
C27	C	1.429223	-0.040997	0.554443
C28	C	1.429214	-0.040999	0.458464
C29	C	1.515631	-0.143736	0.426703
C30	C	1.515644	-0.143737	0.618664
C31	C	1.515647	-0.143741	0.722731
C32	C	1.515627	-0.143734	0.322629
H33	H	0.875905	-0.024471	0.003819
H34	H	1.155361	-0.263011	0.041530
O35	O	1.059987	0.066612	-0.010677
C36	C	0.981838	0.088215	-0.093081
H37	H	0.974335	-0.009294	-0.104003
H38	H	0.881716	0.155365	-0.085941
H39	H	1.026268	0.136045	-0.155932
O40	O	1.513492	-0.713328	-0.126053
C41	C	1.401823	-0.707828	-0.177488
H42	H	1.323423	-0.717527	-0.127321
H43	H	1.366912	-0.610212	-0.230564
H44	H	1.424832	-0.791293	-0.216171
H45	H	0.958394	-0.333797	0.052698
H46	H	1.517782	-0.563967	0.156698
H47	H	1.519007	-0.519718	-0.064531
O48	O	1.685936	-0.346427	0.649197
C49	C	1.663998	-0.465414	0.644565
H50	H	1.614589	-0.455034	0.573243
H51	H	1.759802	-0.546692	0.654114
H52	H	1.599866	-0.490733	0.702591
O53	O	1.512145	-0.777847	0.124611
C54	C	1.623828	-0.783478	0.176090
H55	H	1.663339	-0.701842	0.139656
H56	H	1.599012	-0.770844	0.250139
H57	H	1.699442	-0.882297	0.180105
H58	H	1.358841	0.042661	0.406177
H59	H	1.672408	-0.330125	0.465059
O60	O	1.345413	0.058729	0.585451
C61	C	1.363929	0.036690	0.683937
H62	H	1.465421	-0.030955	0.707724
H63	H	1.350506	0.133971	0.705039
H64	H	1.290834	-0.010764	0.718685
