data_functionalizedCrystal
_audit_creation_method	'MofGen! by Chris Wilmer'
_symmetry_space_group_name_H-M	'P1'
_symmetry_Int_Tables_number	1
_symmetry_cell_setting	triclinic
loop_
_symmetry_equiv_pos_as_xyz
  x,y,z
_cell_length_a	12.594516
_cell_length_b	12.594517
_cell_length_c	16.120297
_cell_angle_alpha	87.126278
_cell_angle_beta	92.876793
_cell_angle_gamma	89.986890
loop_
_atom_site_label
_atom_site_type_symbol
_atom_site_fract_x
_atom_site_fract_y
_atom_site_fract_z
Zn1	Zn	-0.454435	-1.596716	-0.471517
Zn2	Zn	-0.623404	-1.605628	-0.332117
Zn3	Zn	-0.445424	-1.427748	-0.332109
Zn4	Zn	-0.632353	-1.418698	-0.471471
O5	O	-0.538904	-1.512197	-0.401804
O6	O	-0.476875	-1.746842	-0.453048
O7	O	-0.592278	-1.589548	-0.215453
O8	O	-0.297674	-1.450219	-0.350618
O9	O	-0.601016	-1.753390	-0.350632
O10	O	-0.304295	-1.574359	-0.453040
O11	O	-0.461517	-1.458861	-0.215448
O12	O	-0.470194	-1.277603	-0.350573
O13	O	-0.616268	-1.434796	-0.588140
O14	O	-0.607530	-1.270954	-0.452962
O15	O	-0.485552	-1.565585	-0.588174
O16	O	-0.773536	-1.580773	-0.350587
O17	O	-0.780111	-1.443437	-0.452970
C18	C	-0.538856	-1.235659	-0.401762
C19	C	-0.538863	-1.117354	-0.401764
C20	C	-0.464069	-1.051679	-0.346177
C21	C	-0.559822	-0.982193	-0.325669
C22	C	-0.443140	-0.976041	-0.422274
C23	C	-0.634664	-1.049428	-0.381216
C24	C	-0.517919	-1.043280	-0.477857
C25	C	-0.613740	-0.973824	-0.457377
C26	C	-0.815444	-1.512118	-0.401792
C27	C	-0.933751	-1.512180	-0.401815
C28	C	-1.077380	-1.437542	-0.457473
C29	C	-1.007805	-1.533252	-0.477933
C30	C	-1.001757	-1.416477	-0.381392
C31	C	-1.074965	-1.608110	-0.422346
C32	C	-1.068922	-1.491272	-0.325770
C33	C	-0.999376	-1.587051	-0.346201
C34	C	-0.261285	-1.512305	-0.401834
C35	C	-0.142980	-1.512351	-0.401846
C36	C	-0.552913	-1.498187	-0.619252
C37	C	-0.558884	-1.492216	-0.711916
C38	C	-0.538930	-0.789816	-0.401831
C39	C	-0.538884	-0.908124	-0.401803
C40	C	-0.569760	-1.481276	-0.881573
C41	C	-0.507729	-1.543328	-0.922886
C42	C	-0.513780	-1.537241	-1.017289
C43	C	-0.563710	-1.487362	-0.787161
C44	C	-0.524872	-1.526215	-0.185201
C45	C	-0.518602	-1.532392	-0.092538
H46	H	-0.577554	-0.955199	-0.261335
H47	H	-0.627407	-1.423586	-0.917101
H48	H	-0.715644	-1.081493	-0.363814
O49	O	-0.380375	-1.096833	-0.283847
H50	H	-0.398035	-1.072507	-0.220746
H51	H	-0.965440	-1.650310	-0.299146
O52	O	-0.697618	-0.928926	-0.519661
H53	H	-0.776959	-0.958516	-0.502454
O54	O	-0.494410	-1.079116	-0.563041
H55	H	-0.481920	-1.008481	-0.605381
H56	H	-0.362189	-0.943797	-0.439576
O57	O	-1.122607	-1.353934	-0.519841
H58	H	-1.098264	-1.371623	-0.582932
O59	O	-0.972006	-1.556780	-0.563129
H60	H	-1.003333	-1.494645	-0.609207
O61	O	-1.117325	-1.715438	-0.445358
H62	H	-1.205442	-1.714652	-0.445225
O63	O	-1.104739	-1.467713	-0.240591
H64	H	-1.075446	-1.388119	-0.223763
H65	H	-0.450076	-1.601023	-0.887356
H66	H	-0.969640	-1.335470	-0.364106
