data_functionalizedCrystal
_audit_creation_method	'MofGen! by Chris Wilmer'
_symmetry_space_group_name_H-M	'P1'
_symmetry_Int_Tables_number	1
_symmetry_cell_setting	triclinic
loop_
_symmetry_equiv_pos_as_xyz
  x,y,z
_cell_length_a	10.540539
_cell_length_b	10.540539
_cell_length_c	9.616153
_cell_angle_alpha	89.999906
_cell_angle_beta	89.995174
_cell_angle_gamma	84.525492
loop_
_atom_site_label
_atom_site_type_symbol
_atom_site_fract_x
_atom_site_fract_y
_atom_site_fract_z
O1	O	1.685892	0.178895	-0.115573
O2	O	1.316479	0.195751	-0.115589
O3	O	1.509614	0.002617	-0.115579
O4	O	1.492758	0.372030	-0.115583
O5	O	1.509587	0.002621	0.115712
O6	O	1.316452	0.195755	0.115702
O7	O	1.685865	0.178899	0.115718
Zn8	Zn	1.501155	0.187328	0.152433
Zn9	Zn	1.501190	0.187323	-0.152304
O10	O	1.492731	0.372034	0.115708
C11	C	1.269163	0.194489	0.000054
C12	C	1.128215	0.190707	0.000048
C13	C	0.944788	0.045790	0.000589
C14	C	1.091406	0.049624	0.000054
C15	C	1.066557	0.258600	-0.132027
C16	C	0.920013	0.253785	-0.132123
C17	C	0.919494	0.256660	0.130899
C18	C	1.066476	0.257959	0.132630
C19	C	1.508336	-0.044684	0.000064
C20	C	1.504554	-0.185632	0.000056
C21	C	1.359637	-0.369059	-0.000469
C22	C	1.363471	-0.222441	0.000052
C23	C	1.572435	-0.247288	0.132138
C24	C	1.567620	-0.393832	0.132249
C25	C	1.570519	-0.394355	-0.130772
C26	C	1.571819	-0.247373	-0.132518
C27	C	1.733182	0.180161	0.000072
C28	C	1.874130	0.183943	0.000069
C29	C	1.494008	0.419335	0.000062
C30	C	1.497790	0.560283	0.000060
N31	N	1.501140	0.187331	0.360407
N32	N	1.501215	0.187310	-0.360278
C33	C	1.397510	0.290298	0.580772
C34	C	1.397739	0.290684	0.419604
C35	C	1.633864	0.217464	0.418862
C36	C	1.633299	0.218193	0.580080
C37	C	1.473368	0.053892	0.580319
C38	C	1.470321	0.054757	0.419092
H39	H	1.109157	0.211434	-0.230318
C40	C	1.667501	0.347474	0.364314
H41	H	1.600842	0.383558	0.305933
H42	H	1.744649	0.336215	0.312788
H43	H	1.677735	0.402873	0.440581
C44	C	1.575499	-0.049666	0.631824
H45	H	1.634829	-0.011848	0.689252
H46	H	1.618769	-0.089352	0.554294
H47	H	1.535905	-0.111670	0.683735
C48	C	1.712395	-0.217085	0.138795
H49	H	1.730716	-0.166479	0.060897
H50	H	1.766734	-0.294344	0.137574
H51	H	1.726071	-0.171772	0.222016
C52	C	0.876878	0.194985	0.266146
H53	H	0.905215	0.240301	0.343823
H54	H	0.912577	0.108843	0.270203
H55	H	0.786540	0.197776	0.267853
H56	H	1.310058	-0.179839	-0.094630
C57	C	1.421925	0.424398	0.367476
H58	H	1.431661	0.478690	0.444830
H59	H	1.351733	0.458248	0.312648
H60	H	1.497327	0.418749	0.312805
C61	C	1.710779	-0.214664	-0.143290
H62	H	1.729679	-0.162702	-0.066727
H63	H	1.721946	-0.170078	-0.227587
H64	H	1.766449	-0.291046	-0.142165
C65	C	1.121765	0.190949	0.264633
H66	H	1.084039	0.232062	0.344481
H67	H	1.211360	0.195161	0.267070
H68	H	1.103986	0.104275	0.263791
C69	C	1.345358	0.015174	0.635285
H70	H	1.307696	0.080024	0.694982
H71	H	1.359489	-0.062499	0.685496
H72	H	1.289900	0.004146	0.559275
C73	C	1.740762	0.120813	0.632771
H74	H	1.741141	0.120594	0.731566
H75	H	1.820420	0.143464	0.599532
H76	H	1.727007	0.038297	0.599734
H77	H	1.298585	0.272445	0.619578
C78	C	1.565587	-0.053759	0.364669
H79	H	1.544676	-0.132665	0.401770
H80	H	1.649380	-0.039072	0.392612
H81	H	1.561465	-0.056499	0.266039
H82	H	1.299122	0.272553	0.380085
H83	H	1.303917	-0.397661	-0.095187
C84	C	1.421375	0.423263	0.635467
H85	H	1.494267	0.416286	0.694068
H86	H	1.349233	0.457948	0.686791
H87	H	1.435376	0.477581	0.559274
H88	H	1.372683	0.031917	0.380887
H89	H	1.657654	0.315531	0.617668
C90	C	1.499804	-0.431930	0.265610
H91	H	1.475445	-0.357877	0.319205
H92	H	1.555987	-0.488984	0.318422
H93	H	1.426117	-0.472413	0.241470
H94	H	1.134009	-0.003797	0.094731
H95	H	1.090701	0.360819	0.140603
C96	C	1.708180	-0.458150	-0.131981
H97	H	1.751648	-0.430360	-0.211267
H98	H	1.706885	-0.548086	-0.135373
H99	H	1.750938	-0.435340	-0.050043
C100	C	0.906151	-0.029506	0.128540
H101	H	0.846574	0.022630	0.182789
H102	H	0.979572	-0.054359	0.182919
H103	H	0.868439	-0.103237	0.098845
H104	H	1.524869	-0.425910	-0.230881
C105	C	1.147828	-0.023033	-0.128075
H106	H	1.237734	-0.020943	-0.128836
H107	H	1.112579	0.016016	-0.210224
H108	H	1.127996	-0.109009	-0.124200
H109	H	1.309662	-0.180683	0.094886
C110	C	1.704681	-0.458640	0.140377
H111	H	1.763054	-0.395372	0.143608
H112	H	1.721730	-0.510817	0.060738
H113	H	1.713818	-0.509695	0.221830
H114	H	0.914592	-0.009712	-0.093600
H115	H	1.712918	0.144501	0.380514
H116	H	0.891814	0.203603	-0.230849
H117	H	0.872044	0.355250	-0.138119
H118	H	0.872267	0.358563	0.131790
H119	H	1.525259	-0.204686	0.230425
H120	H	1.304122	-0.399265	0.093714
H121	H	1.088911	0.362208	-0.136942
H122	H	1.522152	-0.206516	-0.230229
