data_functionalizedCrystal
_audit_creation_method	'MofGen! by Chris Wilmer'
_symmetry_space_group_name_H-M	'P1'
_symmetry_Int_Tables_number	1
_symmetry_cell_setting	triclinic
loop_
_symmetry_equiv_pos_as_xyz
  x,y,z
_cell_length_a	18.215407
_cell_length_b	19.121611
_cell_length_c	19.120904
_cell_angle_alpha	94.953252
_cell_angle_beta	87.574329
_cell_angle_gamma	92.404447
loop_
_atom_site_label
_atom_site_type_symbol
_atom_site_fract_x
_atom_site_fract_y
_atom_site_fract_z
Zn1	Zn	1.119946	0.297135	0.409745
Zn2	Zn	1.619946	0.797135	0.909745
Zn3	Zn	1.129903	0.409774	0.297105
Zn4	Zn	1.629903	0.909774	0.797105
Zn5	Zn	1.001921	0.292131	0.292103
Zn6	Zn	1.501921	0.792131	0.792103
Zn7	Zn	1.001850	0.414749	0.414732
Zn8	Zn	1.501850	0.914749	0.914732
O9	O	1.063405	0.353447	0.353421
O10	O	1.563405	0.853447	0.853421
O11	O	1.224251	0.312089	0.394810
O12	O	1.724251	0.812089	0.894810
O13	O	1.117123	0.389993	0.197981
O14	O	1.617123	0.889993	0.697981
O15	O	1.013439	0.194339	0.303528
O16	O	1.513439	0.694339	0.803528
O17	O	1.231567	0.394844	0.312054
O18	O	1.731567	0.894844	0.812054
O19	O	1.100151	0.198015	0.389960
O20	O	1.600151	0.698015	0.889960
O21	O	1.023095	0.303561	0.194306
O22	O	1.523095	0.803561	0.694306
O23	O	0.898927	0.308384	0.308364
O24	O	1.398927	0.808384	0.808364
O25	O	1.013319	0.403323	0.512531
O26	O	1.513319	0.903323	1.012531
O27	O	0.898875	0.398471	0.398458
O28	O	1.398875	0.898471	0.898458
O29	O	1.100083	0.316912	0.508868
O30	O	1.600083	0.816912	1.008868
O31	O	1.117055	0.508890	0.316889
O32	O	1.617055	1.008890	0.816889
O33	O	1.022975	0.512545	0.403309
O34	O	1.522975	1.012545	0.903309
C35	C	0.872198	0.353425	0.353410
C36	C	1.372198	0.853425	0.853410
C37	C	0.790399	0.353433	0.353422
C38	C	1.290399	0.853433	0.853422
C39	C	0.525340	0.400426	0.400275
C40	C	1.025340	0.900426	0.900275
C41	C	0.602199	0.400420	0.400272
C42	C	1.102199	0.900420	0.900272
C43	C	0.602211	0.306484	0.306581
C44	C	1.102211	0.806484	0.806581
C45	C	0.525354	0.306494	0.306582
C46	C	1.025354	0.806494	0.806582
C47	C	0.486920	0.353465	0.353433
C48	C	0.986920	0.853465	0.853433
C49	C	0.640636	0.353448	0.353428
C50	C	1.140636	0.853448	0.853428
C51	C	0.723970	0.353441	0.353424
C52	C	1.223970	0.853441	0.853424
C53	C	0.403582	0.353473	0.353436
C54	C	0.903582	0.853473	0.853436
C55	C	1.071107	0.536246	0.361198
C56	C	1.571107	1.036246	0.861198
C57	C	1.074468	0.614450	0.364549
C58	C	1.574468	1.114450	0.864549
C59	C	1.030945	0.649337	0.321093
C60	C	1.530945	1.149337	0.821093
C61	C	1.034110	0.722818	0.324244
C62	C	1.534110	1.222818	0.824244
C63	C	1.080796	0.761409	0.370855
C64	C	1.580796	1.261409	0.870855
C65	C	1.124324	0.726517	0.414312
C66	C	1.624324	1.226517	0.914312
C67	C	1.121162	0.653038	0.411157
C68	C	1.621162	1.153038	0.911157
C69	C	1.092603	0.983362	0.382631
C70	C	1.592603	1.483362	0.882631
C71	C	1.095761	1.056846	0.385784
C72	C	1.595761	1.556846	0.885784
C73	C	1.005548	1.053142	0.295715
C74	C	1.505548	1.553142	0.795715
C75	C	1.002386	0.979661	0.292567
C76	C	1.502386	1.479661	0.792567
C77	C	1.045917	0.944775	0.336022
C78	C	1.545917	1.444775	0.836022
C79	C	1.084031	0.836518	0.374078
C80	C	1.584031	1.336518	0.874078
C81	C	1.042686	0.869667	0.332794
C82	C	1.542686	1.369667	0.832794
C83	C	1.255358	0.353470	0.353434
C84	C	1.755358	0.853470	0.853434
C85	C	1.337157	0.353479	0.353439
C86	C	1.837157	0.853479	0.853439
C87	C	1.055583	0.361231	0.536943
C88	C	1.555583	0.861231	1.036943
C89	C	1.052249	0.364548	0.615149
C90	C	1.552249	0.864548	1.115149
C91	C	1.055650	1.169935	0.345635
C92	C	1.555650	1.669935	0.845635
C93	C	1.052237	1.091734	0.342329
C94	C	1.552237	1.591734	0.842329
C95	C	1.071237	0.345643	0.170612
C96	C	1.571237	0.845643	0.670612
C97	C	1.074705	0.342128	0.092398
C98	C	1.574705	0.842128	0.592398
C99	C	1.095854	0.321119	0.649984
C100	C	1.595854	0.821119	1.149984
C101	C	1.092713	0.324233	0.723467
C102	C	1.592713	0.824233	1.223467
C103	C	1.045970	0.370779	0.762114
C104	C	1.545970	0.870779	1.262114
C105	C	1.002360	0.414210	0.727273
C106	C	1.502360	0.914210	1.227273
C107	C	1.005498	0.411092	0.653792
C108	C	1.505498	0.911092	1.153792
C109	C	1.034232	0.382441	0.984076
C110	C	1.534232	0.882441	1.484076
C111	C	1.031100	0.385557	1.057562
C112	C	1.531100	0.885557	1.557562
C113	C	1.121452	0.295578	1.053751
C114	C	1.621452	0.795578	1.553751
C115	C	1.124589	0.292467	0.980268
C116	C	1.624589	0.792467	1.480268
C117	C	1.080976	0.335895	0.945434
C118	C	1.580976	0.835895	1.445434
C119	C	1.042760	0.373965	0.837225
C120	C	1.542760	0.873965	1.337225
C121	C	1.084183	0.332706	0.870324
C122	C	1.584183	0.832706	1.370324
H123	H	0.998670	0.751220	0.288857
H124	H	1.498670	1.251220	0.788857
H125	H	0.964371	0.948241	0.254614
H126	H	1.464371	1.448241	0.754614
O127	O	0.992334	0.828050	0.282519
O128	O	1.492334	1.328050	0.782519
H129	H	0.952084	0.795927	0.312546
H130	H	1.452084	1.295927	0.812546
O131	O	1.139747	0.277392	0.761038
O132	O	1.639747	0.777392	1.261038
H133	H	1.177076	0.310309	0.795863
H134	H	1.677076	0.810309	1.295863
H135	H	0.964298	0.452107	0.758745
H136	H	1.464298	0.952107	1.258745
O137	O	1.139571	0.945737	0.429480
O138	O	1.639571	1.445737	0.929480
H139	H	1.172566	0.984919	0.462417
H140	H	1.672566	1.484919	0.962417
O141	O	0.958457	0.457923	0.616213
O142	O	1.458457	0.957923	1.116213
H143	H	0.925427	0.490815	0.655430
H144	H	1.425427	0.990815	1.155430
O145	O	0.643664	0.255825	0.256050
O146	O	1.143664	0.755825	0.756050
H147	H	0.626055	0.201141	0.265849
H148	H	1.126055	0.701141	0.765849
H149	H	1.133920	0.283217	0.618524
H150	H	1.633920	0.783217	1.118524
O151	O	0.643640	0.451064	0.450802
O152	O	1.143640	0.951064	0.950802
H153	H	0.631737	0.505754	0.441008
H154	H	1.131737	1.005754	0.941008
O155	O	0.483906	0.255838	0.256059
O156	O	0.983906	0.755838	0.756059
H157	H	0.523541	0.223167	0.223488
H158	H	1.023541	0.723167	0.723488
O159	O	0.483888	0.451137	0.450752
O160	O	0.983888	0.951137	0.950752
H161	H	0.523521	0.483813	0.483302
H162	H	1.023521	0.983813	0.983302
O163	O	0.980669	0.435755	1.099244
O164	O	1.480669	0.935755	1.599244
H165	H	0.985820	0.430629	1.156192
H166	H	1.485820	0.930629	1.656192
O167	O	0.980596	0.607714	0.270816
O168	O	1.480596	1.107714	0.770816
H169	H	0.950871	0.644321	0.241122
H170	H	1.450871	1.144321	0.741122
H171	H	0.970108	1.081554	0.260337
H172	H	1.470108	1.581554	0.760337
H173	H	1.133767	1.088266	0.423753
H174	H	1.633767	1.588266	0.923753
O175	O	1.175007	0.242266	0.938585
O176	O	1.675007	0.742266	1.438585
H177	H	1.204800	0.212588	0.975154
H178	H	1.704800	0.712588	1.475154
O179	O	1.174673	0.768136	0.464593
O180	O	1.674673	1.268136	0.964593
H181	H	1.169553	0.825093	0.459495
H182	H	1.669553	1.325093	0.959495
O183	O	1.168108	0.615403	0.458022
O184	O	1.668108	1.115403	0.958022
H185	H	1.201101	0.654581	0.490966
H186	H	1.701101	1.154581	0.990966
H187	H	1.122041	0.867948	0.412030
H188	H	1.622041	1.367948	0.912030
H189	H	0.998731	0.417814	0.955723
H190	H	1.498731	0.917814	1.455723
H191	H	1.156958	0.260221	1.082121
H192	H	1.656958	0.760221	1.582121
O193	O	1.134604	0.282509	0.828644
O194	O	1.634604	0.782509	1.328644
H195	H	1.101594	0.245292	0.793636
H196	H	1.601594	0.745292	1.293636
O197	O	0.992343	0.424166	0.878910
O198	O	1.492343	0.924166	1.378910
H199	H	1.025356	0.461386	0.913912
H200	H	1.525356	0.961386	1.413912
