data_functionalizedCrystal
_audit_creation_method	'MofGen! by Chris Wilmer'
_symmetry_space_group_name_H-M	'P1'
_symmetry_Int_Tables_number	1
_symmetry_cell_setting	triclinic
loop_
_symmetry_equiv_pos_as_xyz
  x,y,z
_cell_length_a	16.625548
_cell_length_b	16.625546
_cell_length_c	16.625539
_cell_angle_alpha	90.030397
_cell_angle_beta	90.022345
_cell_angle_gamma	90.022327
loop_
_atom_site_label
_atom_site_type_symbol
_atom_site_fract_x
_atom_site_fract_y
_atom_site_fract_z
Zn1	Zn	-1.232680	0.321003	-0.455936
Zn2	Zn	-1.232584	0.455846	-0.321098
Zn3	Zn	-1.097842	0.321031	-0.321112
Zn4	Zn	-1.097813	0.455797	-0.455884
O5	O	-1.165230	0.388419	-0.388507
O6	O	-1.345500	0.338899	-0.438065
O7	O	-1.214682	0.437995	-0.208268
O8	O	-1.115782	0.208195	-0.339024
O9	O	-1.345429	0.437968	-0.339001
O10	O	-1.214847	0.208174	-0.438079
O11	O	-1.115688	0.338947	-0.208278
O12	O	-0.985006	0.338899	-0.338974
O13	O	-1.115731	0.437884	-0.568723
O14	O	-0.984984	0.437911	-0.437990
O15	O	-1.214818	0.338852	-0.568761
O16	O	-1.214653	0.568672	-0.338950
O17	O	-1.115637	0.568636	-0.437977
C18	C	-0.955739	0.388404	-0.388478
C19	C	-0.866118	0.388416	-0.388485
C20	C	-1.165153	0.597910	-0.388474
C21	C	-1.165195	0.687531	-0.388486
C22	C	-0.537942	0.388414	-0.388509
C23	C	-0.629251	0.388413	-0.388500
C24	C	-0.702027	0.388416	-0.388497
C25	C	-0.793341	0.388413	-0.388489
C26	C	-1.165282	0.388359	-0.598816
C27	C	-1.165305	0.388334	-0.688438
C28	C	-0.375539	0.388431	-0.388529
C29	C	-0.465160	0.388422	-0.388519
C30	C	-1.165328	0.178111	-0.388559
C31	C	-1.165370	0.088489	-0.388581
C32	C	-1.165335	1.015707	-0.388570
C33	C	-1.165294	0.924399	-0.388549
C34	C	-1.165264	0.851622	-0.388528
C35	C	-1.165224	0.760308	-0.388508
C36	C	-1.165342	0.388243	-1.016614
C37	C	-1.165329	0.388271	-0.925305
C38	C	-1.165324	0.388289	-0.852529
C39	C	-1.165310	0.388316	-0.761214
C40	C	-1.165224	0.388421	-0.179017
C41	C	-1.165358	0.388220	-0.089396
