data_functionalizedCrystal
_audit_creation_method	'MofGen! by Chris Wilmer'
_symmetry_space_group_name_H-M	'P1'
_symmetry_Int_Tables_number	1
_symmetry_cell_setting	triclinic
loop_
_symmetry_equiv_pos_as_xyz
  x,y,z
_cell_length_a	6.817900
_cell_length_b	16.305597
_cell_length_c	16.255661
_cell_angle_alpha	95.356929
_cell_angle_beta	103.488922
_cell_angle_gamma	103.455834
loop_
_atom_site_label
_atom_site_type_symbol
_atom_site_fract_x
_atom_site_fract_y
_atom_site_fract_z
V1	V	-4.026545	-0.117398	-0.264163
O2	O	-4.014197	0.004940	-0.258836
O3	O	-3.977933	-0.232107	-0.262643
O4	O	-3.978109	-0.115900	-0.379243
O5	O	-4.014020	-0.112071	-0.141430
V6	V	-4.510205	-0.102729	-0.249448
O7	O	-4.287502	-0.149577	-0.296441
O8	O	-4.699444	-0.070550	-0.217170
O9	O	-4.335610	0.011980	-0.250968
O10	O	-4.639949	-0.225068	-0.254775
O11	O	-4.640126	-0.108056	-0.372182
O12	O	-4.335434	-0.104227	-0.134369
C13	C	-3.822883	-0.260061	-0.258550
C14	C	-3.864424	-0.353838	-0.258075
C15	C	-3.823107	-0.111827	-0.407283
C16	C	-3.864787	-0.111361	-0.501363
C17	C	-4.015549	-0.694592	-0.256389
C18	C	-3.779824	-0.653750	-0.251767
C19	C	-3.736286	-0.556151	-0.251926
C20	C	-3.940573	-0.525540	-0.257226
C21	C	-4.023440	-0.550705	-0.178369
C22	C	-4.065244	-0.648235	-0.177786
C23	C	-4.153687	-0.673986	-0.339640
C24	C	-4.106858	-0.576477	-0.341100
C25	C	-3.898210	-0.429999	-0.257696
C26	C	-4.057916	-0.790133	-0.255912
C27	C	-3.775352	-0.105795	-0.724168
C28	C	-3.931665	-0.177622	-0.793822
C29	C	-3.941173	-0.110487	-0.673609
C30	C	-3.859151	-0.037838	-0.771590
C31	C	-4.014942	-0.109639	-0.839991
C32	C	-4.096968	-0.182378	-0.742034
C33	C	-4.024392	-0.042531	-0.719786
C34	C	-4.180842	-0.114378	-0.789421
C35	C	-3.898671	-0.110976	-0.577761
C36	C	-4.057461	-0.109157	-0.935838
C37	C	-4.154001	0.039929	-0.255059
C38	C	-4.091699	0.133706	-0.255539
C39	C	-4.153778	-0.108304	-0.106324
C40	C	-4.091336	-0.108765	-0.012243
H41	H	-3.670123	-0.539380	-0.308275
H42	H	-3.892911	-0.234736	-0.826050
H43	H	-4.173469	-0.530855	-0.179230
N44	N	-4.222584	-0.259086	-0.725324
N45	N	-4.210555	-0.271848	-0.649888
H46	H	-4.299264	-0.326023	-0.638083
H47	H	-3.734049	-0.684374	-0.307889
H48	H	-4.326324	-0.700994	-0.343848
N49	N	-4.396451	-0.118957	-0.824986
N50	N	-4.535035	-0.181801	-0.819053
H51	H	-4.687310	-0.185039	-0.844172
H52	H	-3.759003	0.023231	-0.785048
N53	N	-3.647970	-0.670495	-0.176445
N54	N	-3.726855	-0.712379	-0.126153
H55	H	-3.633740	-0.724207	-0.072955
N56	N	-3.577118	-0.512766	-0.176385
N57	N	-3.497892	-0.554559	-0.123378
H58	H	-3.385477	-0.523918	-0.070021
N59	N	-3.559909	-0.101376	-0.688421
N60	N	-3.510658	-0.159710	-0.650333
H61	H	-3.358508	-0.156595	-0.625086
H62	H	-3.905360	-0.514932	-0.116280
N63	N	-4.072866	0.029127	-0.679313
N64	N	-3.934074	0.082657	-0.622756
H65	H	-3.968287	0.133272	-0.594167
N66	N	-3.940968	-0.662451	-0.099208
N67	N	-3.824021	-0.600412	-0.045181
H68	H	-3.736242	-0.610447	0.010317
H69	H	-4.126080	-0.706652	-0.399442
H70	H	-4.235259	-0.675079	-0.177733
N71	N	-4.033105	-0.556975	-0.414294
N72	N	-3.858758	-0.505762	-0.404790
H73	H	-3.806665	-0.491980	-0.456482
N74	N	-4.297986	-0.551622	-0.352087
N75	N	-4.314837	-0.495718	-0.298035
H76	H	-4.449827	-0.478164	-0.305788
