data_functionalizedCrystal
_audit_creation_method	'MofGen! by Chris Wilmer'
_symmetry_space_group_name_H-M	'P1'
_symmetry_Int_Tables_number	1
_symmetry_cell_setting	triclinic
loop_
_symmetry_equiv_pos_as_xyz
  x,y,z
_cell_length_a	10.654545
_cell_length_b	14.044190
_cell_length_c	9.130313
_cell_angle_alpha	89.990619
_cell_angle_beta	89.996934
_cell_angle_gamma	88.837428
loop_
_atom_site_label
_atom_site_type_symbol
_atom_site_fract_x
_atom_site_fract_y
_atom_site_fract_z
O1	O	1.681234	0.133211	-0.121803
O2	O	1.317031	0.145909	-0.121811
O3	O	1.493661	0.001540	-0.121778
O4	O	1.504604	0.277581	-0.121836
O5	O	1.493647	0.001535	0.121821
O6	O	1.317017	0.145905	0.121788
O7	O	1.681220	0.133207	0.121796
Cu8	Cu	1.499117	0.139556	0.144034
Cu9	Cu	1.499133	0.139561	-0.144050
O10	O	1.504590	0.277577	0.121763
C11	C	1.270132	0.144976	-0.000012
C12	C	1.130409	0.142189	-0.000014
C13	C	1.064765	0.140875	0.132773
C14	C	0.933481	0.138241	0.132774
C15	C	0.933495	0.138239	-0.132811
C16	C	1.064778	0.140866	-0.132810
C17	C	1.488867	-0.033808	0.000025
C18	C	1.474588	-0.139128	0.000038
C19	C	1.549753	-0.388921	-0.000018
C20	C	1.448503	-0.331957	-0.000010
C21	C	1.463020	-0.224657	0.000017
C22	C	1.535238	-0.496231	-0.000045
C23	C	1.728119	0.134141	-0.000006
C24	C	1.867842	0.136927	-0.000014
C25	C	1.509384	0.312925	-0.000044
C26	C	1.523663	0.418244	-0.000066
N27	N	1.499115	0.139552	0.346657
N28	N	1.499145	0.139557	-0.346672
C29	C	1.577359	0.075652	0.423323
C30	C	1.577371	0.075652	0.576660
C31	C	1.420893	0.203460	0.576651
C32	C	1.420875	0.203454	0.423317
H33	H	1.118198	0.141952	0.240904
C34	C	1.316670	-0.374926	-0.000015
H35	H	1.255052	-0.325072	-0.000012
H36	H	1.306811	-0.413121	0.084925
H37	H	1.306812	-0.413085	-0.084982
H38	H	1.118226	0.141934	-0.240948
H39	H	1.647332	-0.357107	-0.000001
C40	C	1.663406	0.005354	0.339002
H41	H	1.709997	-0.032709	0.406629
H42	H	1.719537	0.039837	0.279160
H43	H	1.613759	-0.034456	0.279215
C44	C	1.663444	0.005366	0.660987
H45	H	1.710041	-0.032685	0.593366
H46	H	1.613826	-0.034441	0.720826
H47	H	1.719588	0.039867	0.720778
H48	H	0.880039	0.137171	0.240902
C49	C	0.861297	0.136797	-0.278875
H50	H	0.773707	0.135054	-0.259860
H51	H	0.886206	0.082011	-0.333428
H52	H	0.879423	0.192454	-0.333442
C53	C	1.334848	0.273756	0.660981
H54	H	1.346074	0.264616	0.763282
H55	H	1.249816	0.262868	0.635879
H56	H	1.355594	0.337162	0.635821
C57	C	1.334806	0.273750	0.338978
H58	H	1.288225	0.311818	0.406592
H59	H	1.278667	0.239256	0.279185
H60	H	1.384440	0.313554	0.279140
