data_functionalizedCrystal
_audit_creation_method	'MofGen! by Chris Wilmer'
_symmetry_space_group_name_H-M	'P1'
_symmetry_Int_Tables_number	1
_symmetry_cell_setting	triclinic
loop_
_symmetry_equiv_pos_as_xyz
  x,y,z
_cell_length_a	6.817900
_cell_length_b	16.417825
_cell_length_c	10.773894
_cell_angle_alpha	96.344809
_cell_angle_beta	96.645922
_cell_angle_gamma	103.385495
loop_
_atom_site_label
_atom_site_type_symbol
_atom_site_fract_x
_atom_site_fract_y
_atom_site_fract_z
V1	V	-3.948392	-0.112804	-0.389370
O2	O	-3.937981	0.008588	-0.381508
O3	O	-3.899884	-0.226718	-0.387139
O4	O	-3.866068	-0.109679	-0.558990
O5	O	-3.972031	-0.109261	-0.208468
V6	V	-4.436430	-0.098448	-0.367680
O7	O	-4.199747	-0.144294	-0.436948
O8	O	-4.635273	-0.066958	-0.320101
O9	O	-4.261732	0.015465	-0.369910
O10	O	-4.564238	-0.219840	-0.375542
O11	O	-4.530188	-0.101992	-0.548582
O12	O	-4.295548	-0.101573	-0.198060
C13	C	-3.745956	-0.254531	-0.381108
C14	C	-3.787356	-0.347648	-0.380415
C15	C	-3.865311	-0.550828	-0.264567
C16	C	-3.904231	-0.638323	-0.263925
C17	C	-3.938889	-0.660424	-0.492496
C18	C	-3.899984	-0.572932	-0.493137
C19	C	-3.863185	-0.518135	-0.379168
C20	C	-3.941010	-0.693122	-0.377886
C21	C	-3.983209	-0.787988	-0.377192
C22	C	-3.820988	-0.423264	-0.379862
C23	C	-3.702820	-0.105236	-0.600319
C24	C	-3.716794	-0.103435	-0.738988
C25	C	-3.894866	-0.106556	-0.806862
C26	C	-3.909312	-0.104695	-0.950183
C27	C	-4.079002	0.043274	-0.375938
C28	C	-4.016839	0.136390	-0.376639
C29	C	-4.122139	-0.106020	-0.156724
C30	C	-4.087404	-0.107817	-0.018054
H31	H	-3.905961	-0.664937	-0.170606
Br32	Br	-3.815376	-0.476464	-0.109896
H33	H	-4.036621	-0.110601	-0.758865
Br34	Br	-3.988825	-0.734795	-0.647161
H35	H	-3.767538	-0.100638	-0.998171
H36	H	-3.898266	-0.546314	-0.586465
H37	H	-3.575033	-0.099378	-0.786981
Br38	Br	-4.323702	-0.114546	-0.938077
