data_functionalizedCrystal
_audit_creation_method	'MofGen! by Chris Wilmer'
_symmetry_space_group_name_H-M	'P1'
_symmetry_Int_Tables_number	1
_symmetry_cell_setting	triclinic
loop_
_symmetry_equiv_pos_as_xyz
  x,y,z
_cell_length_a	17.640968
_cell_length_b	15.297621
_cell_length_c	15.297327
_cell_angle_alpha	91.624289
_cell_angle_beta	89.709185
_cell_angle_gamma	112.534816
loop_
_atom_site_label
_atom_site_type_symbol
_atom_site_fract_x
_atom_site_fract_y
_atom_site_fract_z
Zn1	Zn	-0.737211	-1.472459	0.444296
Zn2	Zn	-0.237211	-0.972459	0.944296
Zn3	Zn	-0.622015	-1.416715	0.612090
Zn4	Zn	-0.122015	-0.916715	1.112090
Zn5	Zn	-0.577142	-1.283906	0.448579
Zn6	Zn	-0.077142	-0.783906	0.948579
Zn7	Zn	-0.729399	-1.298549	0.566771
Zn8	Zn	-0.229399	-0.798549	1.066771
O9	O	-0.666442	-1.367907	0.517934
O10	O	-0.166442	-0.867907	1.017934
O11	O	-0.743979	-1.593427	0.483728
O12	O	-0.243979	-1.093427	0.983728
O13	O	-0.504133	-1.369640	0.611159
O14	O	-0.004133	-0.869640	1.111159
O15	O	-0.582865	-1.326118	0.328325
O16	O	-0.082865	-0.826118	0.828325
O17	O	-0.659345	-1.552472	0.607006
O18	O	-0.159345	-1.052472	1.107006
O19	O	-0.700467	-1.464648	0.325178
O20	O	-0.200467	-0.964648	0.825178
O21	O	-0.471165	-1.272066	0.491029
O22	O	0.028835	-0.772066	0.991029
O23	O	-0.575291	-1.157485	0.447084
O24	O	-0.075291	-0.657485	0.947084
O25	O	-0.842365	-1.351076	0.529765
O26	O	-0.342365	-0.851076	1.029765
O27	O	-0.687154	-1.168243	0.533919
O28	O	-0.187154	-0.668243	1.033919
O29	O	-0.848105	-1.478846	0.439783
O30	O	-0.348105	-0.978846	0.939783
O31	O	-0.651770	-1.383839	0.725765
O32	O	-0.151770	-0.883839	1.225765
O33	O	-0.730665	-1.297023	0.692468
O34	O	-0.230665	-0.797023	1.192468
C35	C	-0.625506	-1.129581	0.486049
C36	C	-0.125506	-0.629581	0.986049
C37	C	-0.608015	-1.027626	0.472425
C38	C	-0.108015	-0.527626	0.972425
C39	C	-0.791415	-0.762606	0.615280
C40	C	-0.291415	-0.262606	1.115280
C41	C	-0.807848	-0.858396	0.628087
C42	C	-0.307848	-0.358396	1.128087
C43	C	-0.757891	-0.900709	0.589172
C44	C	-0.257891	-0.400709	1.089172
C45	C	-0.691499	-0.847221	0.537449
C46	C	-0.191499	-0.347221	1.037449
C47	C	-0.675061	-0.751420	0.524647
C48	C	-0.175061	-0.251420	1.024647
C49	C	-0.641537	-0.889522	0.498539
C50	C	-0.141537	-0.389522	0.998539
C51	C	-0.575145	-0.836035	0.446816
C52	C	-0.075145	-0.336035	0.946816
C53	C	-0.558711	-0.740243	0.434016
C54	C	-0.058711	-0.240243	0.934016
C55	C	-0.608667	-0.697931	0.472930
C56	C	-0.108667	-0.197931	0.972930
C57	C	-0.657975	-0.985324	0.511342
C58	C	-0.157975	-0.485324	1.011342
C59	C	-0.541621	-0.974137	0.420709
C60	C	-0.041621	-0.474137	0.920709
C61	C	-0.525189	-0.878347	0.407902
C62	C	-0.025189	-0.378347	0.907902
C63	C	-0.875069	-1.422812	0.479241
C64	C	-0.375069	-0.922812	0.979241
C65	C	-0.963973	-1.446210	0.462752
C66	C	-0.463973	-0.946210	0.962752
C67	C	-1.241435	-1.190578	0.642779
C68	C	-0.741435	-0.690578	1.142779
C69	C	-1.324975	-1.212584	0.627277
C70	C	-0.824975	-0.712584	1.127277
C71	C	-1.330941	-1.345621	0.533587
C72	C	-0.830941	-0.845621	1.033587
C73	C	-1.247398	-1.323623	0.549077
C74	C	-0.747398	-0.823623	1.049077
C75	C	-1.202651	-1.246101	0.603675
C76	C	-0.702651	-0.746101	1.103675
C77	C	-1.208614	-1.379146	0.509974
C78	C	-0.708614	-0.879146	1.009974
C79	C	-1.125079	-1.357152	0.525467
C80	C	-0.625079	-0.857152	1.025467
C81	C	-1.080328	-1.279636	0.580064
C82	C	-0.580328	-0.779636	1.080064
C83	C	-1.119116	-1.224107	0.619168
C84	C	-0.619116	-0.724107	1.119168
C85	C	-1.253363	-1.456671	0.455381
C86	C	-0.753363	-0.956671	0.955381
C87	C	-1.214580	-1.512194	0.416277
C88	C	-0.714580	-1.012194	0.916277
C89	C	-1.131042	-1.490197	0.431766
C90	C	-0.631042	-0.990197	0.931766
C91	C	-1.086291	-1.412680	0.486363
C92	C	-0.586291	-0.912680	0.986363
C93	C	-1.092254	-1.545725	0.392661
C94	C	-0.592254	-1.045725	0.892661
C95	C	-1.008719	-1.523732	0.408155
C96	C	-0.508719	-1.023732	0.908155
C97	C	-1.002756	-1.390687	0.501856
C98	C	-0.502756	-0.890687	1.001856
C99	C	-0.458628	-1.313277	0.556422
C100	C	0.041372	-0.813277	1.056422
C101	C	-0.369724	-1.290092	0.572693
C102	C	0.130276	-0.790092	1.072693
C103	C	-0.695261	-1.336001	0.740150
C104	C	-0.195261	-0.836001	1.240150
C105	C	-0.707631	-1.322442	0.835221
C106	C	-0.207631	-0.822442	1.335221
C107	C	-0.707531	-0.607163	0.549939
C108	C	-0.207531	-0.107163	1.049939
C109	C	-0.725021	-0.709117	0.563563
C110	C	-0.225021	-0.209117	1.063563
C111	C	-0.637532	-1.399968	0.294851
C112	C	-0.137532	-0.899968	0.794851
C113	C	-0.625213	-1.413630	0.199786
C114	C	-0.125213	-0.913630	0.699786
C115	C	-0.578369	-1.465263	1.172429
C116	C	-0.078369	-0.965263	1.672429
C117	C	-0.566742	-1.478001	1.083106
C118	C	-0.066742	-0.978001	1.583106
C119	C	-0.601964	-1.439113	1.021130
C120	C	-0.101964	-0.939113	1.521130
C121	C	-0.648813	-1.387484	1.048487
C122	C	-0.148813	-0.887484	1.548487
C123	C	-0.660436	-1.374739	1.137819
C124	C	-0.160436	-0.874739	1.637819
C125	C	-0.684031	-1.348588	0.986520
C126	C	-0.184031	-0.848588	1.486520
C127	C	-0.730880	-1.296959	1.013877
C128	C	-0.230880	-0.796959	1.513877
C129	C	-0.742501	-1.284217	1.103200
C130	C	-0.242501	-0.784217	1.603200
C131	C	-0.707279	-1.323105	1.165176
C132	C	-0.207279	-0.823105	1.665176
C133	C	-0.672408	-1.361333	0.897188
C134	C	-0.172408	-0.861333	1.397188
C135	C	-0.754475	-1.270808	0.862578
C136	C	-0.254475	-0.770808	1.362578
C137	C	-0.766101	-1.258071	0.951901
C138	C	-0.266101	-0.758071	1.451901
H139	H	-0.966315	-1.327542	0.546291
H140	H	-0.466315	-0.827542	1.046291
H141	H	-0.549691	-1.496914	1.222896
H142	H	-0.049691	-0.996914	1.722896
F143	F	-0.991423	-1.256231	0.596558
F144	F	-0.491423	-0.756231	1.096558
F145	F	-1.071487	-1.141593	0.677270
F146	F	-0.571487	-0.641593	1.177270
F147	F	-1.262211	-1.594698	0.358176
F148	F	-0.762211	-1.094698	0.858176
H149	H	-0.783153	-1.239140	0.812117
H150	H	-0.283153	-0.739140	1.312117
F151	F	-0.792358	-1.229264	1.132312
F152	F	-0.292358	-0.729264	1.632312
F153	F	-0.454531	-0.821412	0.352856
F154	F	0.045469	-0.321412	0.852856
F155	F	-0.589794	-1.452912	0.926059
F156	F	-0.089794	-0.952912	1.426059
H157	H	-0.804247	-1.216034	0.974188
H158	H	-0.304247	-0.716034	1.474188
H159	H	-0.716745	-1.312740	1.237912
H160	H	-0.216745	-0.812740	1.737912
H161	H	-0.712032	-1.028864	0.553454
H162	H	-0.212032	-0.528864	1.053454
H163	H	-0.500941	-1.008587	0.389023
H164	H	-0.000941	-0.508587	0.889023
F165	F	-1.139889	-1.628234	0.334566
F166	F	-0.639889	-1.128234	0.834566
F167	F	-1.193805	-1.108063	0.700880
F168	F	-0.693805	-0.608063	1.200880
H169	H	-0.977141	-1.568943	0.376311
H170	H	-0.477141	-1.068943	0.876311
F171	F	-1.366248	-1.153481	0.668899
F172	F	-0.866248	-0.653481	1.168899
F173	F	-0.622549	-1.416278	0.868083
F174	F	-0.122549	-0.916278	1.368083
H175	H	-0.528597	-1.520036	1.060835
H176	H	-0.028597	-1.020036	1.560835
F177	F	-0.591185	-0.595981	0.459297
F178	F	-0.091185	-0.095981	0.959297
H179	H	-1.367385	-1.408741	0.489136
H180	H	-0.867385	-0.908741	0.989136
H181	H	-0.771275	-0.978706	0.599602
H182	H	-0.271275	-0.478706	1.099602
H183	H	-0.861903	-0.901938	0.670202
H184	H	-0.361903	-0.401938	1.170202
H185	H	-0.504643	-0.696693	0.391910
H186	H	-0.004643	-0.196693	0.891910
F187	F	-0.844562	-0.717562	0.656707
F188	F	-0.344562	-0.217562	1.156707
H189	H	-1.321383	-1.474578	0.442771
H190	H	-0.821383	-0.974578	0.942771
