data_functionalizedCrystal
_audit_creation_method	'MofGen! by Chris Wilmer'
_symmetry_space_group_name_H-M	'P1'
_symmetry_Int_Tables_number	1
_symmetry_cell_setting	triclinic
loop_
_symmetry_equiv_pos_as_xyz
  x,y,z
_cell_length_a	16.625548
_cell_length_b	21.295417
_cell_length_c	21.295412
_cell_angle_alpha	90.030668
_cell_angle_beta	90.023476
_cell_angle_gamma	90.031575
loop_
_atom_site_label
_atom_site_type_symbol
_atom_site_fract_x
_atom_site_fract_y
_atom_site_fract_z
Zn1	Zn	1.232659	-0.250607	0.355911
Zn2	Zn	1.232536	-0.355875	0.250636
Zn3	Zn	1.097814	-0.250626	0.250656
Zn4	Zn	1.097772	-0.355844	0.355868
O5	O	1.165195	-0.303238	0.303268
O6	O	1.345475	-0.264576	0.341956
O7	O	1.214631	-0.341935	0.162549
O8	O	1.115770	-0.162534	0.264644
O9	O	1.345385	-0.341916	0.264611
O10	O	1.214840	-0.162520	0.341975
O11	O	1.115651	-0.264609	0.162564
O12	O	0.984976	-0.264578	0.264603
O13	O	1.115699	-0.341863	0.443963
O14	O	0.984945	-0.341882	0.341902
O15	O	1.214799	-0.264546	0.443995
O16	O	1.214591	-0.443961	0.264569
O17	O	1.115580	-0.443938	0.341883
C18	C	0.955704	-0.303229	0.303250
C19	C	0.866083	-0.303240	0.303258
C20	C	0.537907	-0.303245	0.303284
C21	C	0.629216	-0.303242	0.303275
C22	C	0.701992	-0.303243	0.303270
C23	C	0.793307	-0.303239	0.303262
C24	C	1.165089	-0.466790	0.303233
C25	C	1.165118	-0.536758	0.303239
C26	C	1.216718	-0.569616	0.263023
C27	C	1.216756	-0.635358	0.263037
C28	C	1.165179	-0.668240	0.303261
C29	C	1.113575	-0.635375	0.343484
C30	C	1.113544	-0.569633	0.343473
N31	N	1.094644	-0.771507	0.308054
N32	N	1.094676	-0.833959	0.308060
C33	C	1.165269	-0.866315	0.303297
N34	N	1.235832	-0.833861	0.298514
N35	N	1.235800	-0.771403	0.298504
C36	C	1.165207	-0.739526	0.303277
C37	C	1.216915	-0.970458	0.263094
C38	C	1.216954	-1.036202	0.263113
C39	C	1.113766	-1.036217	0.343556
C40	C	1.113734	-0.970475	0.343541
C41	C	1.165307	-0.937599	0.303307
C42	C	1.375504	-0.303248	0.303286
C43	C	1.465125	-0.303252	0.303293
C44	C	1.165258	-0.303199	0.467458
C45	C	1.165285	-0.303182	0.537426
C46	C	1.165323	-0.139048	0.303316
C47	C	1.165378	-0.069080	0.303337
C48	C	1.165179	-0.303232	0.139716
C49	C	1.165308	-0.303071	0.069748
C50	C	1.113760	-0.262914	0.570290
C51	C	1.113757	-0.262902	0.636033
C52	C	1.165294	-0.303152	0.668909
C53	C	1.216822	-0.343428	0.636037
C54	C	1.216818	-0.343443	0.570295
N55	N	1.235876	-0.307959	0.772147
N56	N	1.235878	-0.307941	0.834598
C57	C	1.165309	-0.303110	0.866984
N58	N	1.094736	-0.298286	0.834558
N59	N	1.094735	-0.298301	0.772101
C60	C	1.165304	-0.303141	0.740194
C61	C	1.113776	-0.262827	0.971133
C62	C	1.113772	-0.262820	1.036877
C63	C	1.216844	-0.343343	1.036879
C64	C	1.216841	-0.343353	0.971137
C65	C	1.165308	-0.303092	0.938268
H66	H	1.258779	-0.662116	0.230289
N67	N	1.061104	-0.221805	0.536715
N68	N	1.009702	-0.243963	0.500013
H69	H	0.972511	-0.214932	0.476299
H70	H	1.258780	-0.376234	0.543537
N71	N	1.060900	-0.668970	0.384571
N72	N	1.060933	-0.727667	0.384576
H73	H	1.023732	-0.751394	0.413597
N74	N	1.060830	-0.536077	0.384561
N75	N	1.014787	-0.565439	0.420477
H76	H	0.977556	-0.541739	0.449496
H77	H	1.258715	-0.542850	0.230263
H78	H	1.071712	-0.943720	0.376286
N79	N	1.269496	-0.384481	0.937577
N80	N	1.343900	-0.380303	0.944948
H81	H	1.381091	-0.409353	0.921249
H82	H	1.258912	-0.943690	0.230335
N83	N	1.061138	-0.221755	0.669613
N84	N	1.089555	-0.181638	0.706315
H85	H	1.052395	-0.152577	0.730029
H86	H	1.071808	-0.230030	1.063634
H87	H	1.258808	-0.376114	1.063646
N88	N	1.061130	-0.221719	0.937544
N89	N	1.061134	-0.221736	0.878847
H90	H	1.023952	-0.192704	0.855125
N91	N	1.269681	-1.069758	0.222034
N92	N	1.315725	-1.040393	0.186120
H93	H	1.352966	-1.064092	0.157108
H94	H	1.071774	-1.062989	0.376310
H95	H	1.258784	-0.376200	0.662808
