data_functionalizedCrystal
_audit_creation_method	'MofGen! by Chris Wilmer'
_symmetry_space_group_name_H-M	'P1'
_symmetry_Int_Tables_number	1
_symmetry_cell_setting	triclinic
loop_
_symmetry_equiv_pos_as_xyz
  x,y,z
_cell_length_a	17.077404
_cell_length_b	17.077402
_cell_length_c	17.077396
_cell_angle_alpha	90.029784
_cell_angle_beta	90.023219
_cell_angle_gamma	90.019297
loop_
_atom_site_label
_atom_site_type_symbol
_atom_site_fract_x
_atom_site_fract_y
_atom_site_fract_z
Zn1	Zn	-1.200055	0.312583	-0.443913
Zn2	Zn	-0.700055	0.812583	0.056087
Zn3	Zn	-1.199962	0.443858	-0.312644
Zn4	Zn	-0.699962	0.943858	0.187356
Zn5	Zn	-1.068786	0.312602	-0.312653
Zn6	Zn	-0.568786	0.812602	0.187347
Zn7	Zn	-1.068754	0.443803	-0.443860
Zn8	Zn	-0.568754	0.943803	0.056140
O9	O	-1.134389	0.378212	-0.378268
O10	O	-0.634389	0.878212	0.121732
O11	O	-1.309889	0.330012	-0.426519
O12	O	-0.809889	0.830012	0.073481
O13	O	-1.182536	0.426478	-0.202799
O14	O	-0.682536	0.926478	0.297201
O15	O	-1.086252	0.202753	-0.330091
O16	O	-0.586252	0.702753	0.169909
O17	O	-1.309821	0.426459	-0.330077
O18	O	-0.809821	0.926459	0.169923
O19	O	-1.182694	0.202739	-0.426528
O20	O	-0.682694	0.702739	0.073472
O21	O	-1.086162	0.330044	-0.202805
O22	O	-0.586162	0.830044	0.297195
O23	O	-0.958935	0.329991	-0.330039
O24	O	-0.458935	0.829991	0.169961
O25	O	-1.086197	0.426365	-0.553714
O26	O	-0.586197	0.926365	-0.053714
O27	O	-0.958912	0.426383	-0.426436
O28	O	-0.458912	0.926383	0.073564
O29	O	-1.182663	0.329959	-0.553753
O30	O	-0.682663	0.829959	-0.053753
O31	O	-1.182505	0.553698	-0.330024
O32	O	-0.682505	1.053698	0.169976
O33	O	-1.086107	0.553657	-0.426427
O34	O	-0.586107	1.053657	0.073573
C35	C	-0.930441	0.378184	-0.378233
C36	C	-0.430441	0.878184	0.121767
C37	C	-0.843192	0.378191	-0.378236
C38	C	-0.343192	0.878191	0.121764
C39	C	-0.467410	0.328082	-0.428573
C40	C	0.032590	0.828082	0.071427
C41	C	-0.549390	0.328079	-0.428567
C42	C	-0.049390	0.828079	0.071433
C43	C	-0.590343	0.378211	-0.378270
C44	C	-0.090343	0.878211	0.121730
C45	C	-0.549310	0.428354	-0.327982
C46	C	-0.049310	0.928354	0.172018
C47	C	-0.467332	0.428361	-0.327993
C48	C	0.032668	0.928361	0.172007
C49	C	-0.720181	0.428336	-0.327962
C50	C	-0.220181	0.928336	0.172038
C51	C	-0.802165	0.428329	-0.327950
C52	C	-0.302165	0.928329	0.172050
C53	C	-0.802239	0.328054	-0.428537
C54	C	-0.302239	0.828054	0.071463
C55	C	-0.720260	0.328061	-0.428547
C56	C	-0.220260	0.828061	0.071453
C57	C	-0.679234	0.378204	-0.378258
C58	C	-0.179234	0.878204	0.121742
C59	C	-1.134314	0.582159	-0.378236
C60	C	-0.634314	1.082159	0.121764
C61	C	-1.134353	0.669409	-0.378249
C62	C	-0.634353	1.169409	0.121751
C63	C	-1.134437	0.378154	-0.583012
C64	C	-0.634437	0.878154	-0.083012
C65	C	-1.134457	0.378129	-0.670262
C66	C	-0.634457	0.878129	-0.170262
C67	C	-0.339134	0.378232	-0.378295
C68	C	0.160866	0.878232	0.121705
C69	C	-0.426383	0.378220	-0.378287
C70	C	0.073617	0.878220	0.121713
C71	C	-1.134487	0.173467	-0.378316
C72	C	-0.634487	0.673467	0.121684
C73	C	-1.134528	0.086217	-0.378337
C74	C	-0.634528	0.586217	0.121663
C75	C	-1.184598	0.710394	-0.328106
C76	C	-0.684598	1.210394	0.171894
C77	C	-1.184637	0.792375	-0.328126
C78	C	-0.684637	1.292375	0.171874
C79	C	-1.134425	0.833369	-0.378286
C80	C	-0.634425	1.333369	0.121714
C81	C	-1.084178	0.792378	-0.428435
C82	C	-0.584178	1.292378	0.071565
C83	C	-1.084144	0.710399	-0.428418
C84	C	-0.584144	1.210399	0.071582
C85	C	-1.084250	0.963248	-0.428464
C86	C	-0.584250	1.463248	0.071536
C87	C	-1.084283	1.045232	-0.428480
C88	C	-0.584283	1.545232	0.071520
C89	C	-1.184743	1.045224	-0.328172
C90	C	-0.684743	1.545224	0.171828
C91	C	-1.184709	0.963245	-0.328156
C92	C	-0.684709	1.463245	0.171844
C93	C	-1.134461	0.922260	-0.378304
C94	C	-0.634461	1.422260	0.121696
C95	C	-1.184689	0.327926	-0.711274
C96	C	-0.684689	0.827926	-0.211274
C97	C	-1.184698	0.327900	-0.793254
C98	C	-0.684698	0.827900	-0.293254
C99	C	-1.134479	0.378081	-0.834221
C100	C	-0.634479	0.878081	-0.334221
C101	C	-1.084242	0.428287	-0.793204
C102	C	-0.584242	0.928287	-0.293204
C103	C	-1.084229	0.428308	-0.711225
C104	C	-0.584229	0.928308	-0.211225
C105	C	-1.084274	0.428239	-0.964074
C106	C	-0.584274	0.928239	-0.464074
C107	C	-1.084288	0.428219	-1.046058
C108	C	-0.584288	0.928219	-0.546058
C109	C	-1.184742	0.327831	-1.046104
C110	C	-0.684742	0.827831	-0.546104
C111	C	-1.184730	0.327853	-0.964125
C112	C	-0.684730	0.827853	-0.464125
C113	C	-1.134493	0.378059	-0.923112
C114	C	-0.634493	0.878059	-0.423112
C115	C	-1.134387	0.378212	-0.174320
C116	C	-0.634387	0.878212	0.325680
C117	C	-1.134519	0.378016	-0.087070
C118	C	-0.634519	0.878016	0.412930
H119	H	-0.835647	0.287225	-0.469483
H120	H	-0.335647	0.787225	0.030517
H121	H	-1.043393	0.469079	-1.079411
H122	H	-0.543393	0.969079	-0.579411
H123	H	-1.225660	1.078598	-0.287343
H124	H	-0.725660	1.578598	0.212657
H125	H	-1.043411	1.078607	-0.469339
H126	H	-0.543411	1.578607	0.030661
F127	F	-1.030805	0.481673	-0.920427
F128	F	-0.530805	0.981673	-0.420427
F129	F	-1.030792	0.481691	-0.836806
F130	F	-0.530792	0.981691	-0.336806
F131	F	-1.030771	0.919630	-0.481840
F132	F	-0.530771	1.419630	0.018160
F133	F	-1.238209	0.274398	-1.089752
F134	F	-0.738209	0.774398	-0.589752
F135	F	-1.030743	0.836008	-0.481823
F136	F	-0.530743	1.336008	0.018177
F137	F	-0.423832	0.274720	-0.482103
F138	F	0.076168	0.774720	0.017897
H139	H	-1.043230	0.677029	-0.469251
H140	H	-0.543230	1.177029	0.030749
H141	H	-1.225627	0.286995	-0.930771
H142	H	-0.725627	0.786995	-0.430771
H143	H	-0.582791	0.287254	-0.469518
H144	H	-0.082791	0.787254	0.030482
F145	F	-0.676677	0.274702	-0.482075
F146	F	-0.176677	0.774702	0.017925
H147	H	-0.835506	0.469153	-0.286996
H148	H	-0.335506	0.969153	0.213004
H149	H	-0.582660	0.469175	-0.287032
H150	H	-0.082660	0.969175	0.212968
H151	H	-0.686779	0.469171	-0.287014
H152	H	-0.186779	0.969171	0.212986
H153	H	-1.225585	0.287065	-0.677924
H154	H	-0.725585	0.787065	-0.177924
F155	F	-1.238037	0.666773	-0.274713
F156	F	-0.738037	1.166773	0.225287
F157	F	-0.423668	0.481730	-0.274476
F158	F	0.076332	0.981730	0.225524
F159	F	-1.238117	0.835991	-0.274759
F160	F	-0.738117	1.335991	0.225241
F161	F	-1.238188	0.274494	-0.836899
F162	F	-0.738188	0.774494	-0.336899
H163	H	-1.043318	0.469181	-0.677834
H164	H	-0.543318	0.969181	-0.177834
H165	H	-1.225591	0.929868	-0.287308
H166	H	-0.725591	1.429868	0.212692
