data_functionalizedCrystal
_audit_creation_method	'MofGen! by Chris Wilmer'
_symmetry_space_group_name_H-M	'P1'
_symmetry_Int_Tables_number	1
_symmetry_cell_setting	triclinic
loop_
_symmetry_equiv_pos_as_xyz
  x,y,z
_cell_length_a	12.970454
_cell_length_b	23.196402
_cell_length_c	23.196401
_cell_angle_alpha	60.008822
_cell_angle_beta	90.012226
_cell_angle_gamma	59.999878
loop_
_atom_site_label
_atom_site_type_symbol
_atom_site_fract_x
_atom_site_fract_y
_atom_site_fract_z
Zr1	Zr	0.993220	0.630996	-0.075636
O2	O	0.828562	0.751263	-0.167681
O3	O	1.043692	0.510730	-0.047423
O4	O	1.043647	0.630997	-0.167688
O5	O	0.828648	0.630995	0.047456
O6	O	1.213314	0.630997	-0.167689
O7	O	0.828607	0.630996	-0.047416
O8	O	1.213396	0.415861	0.047443
O9	O	0.828566	0.846130	-0.167677
O10	O	1.191844	0.560196	-0.035387
O11	O	1.065253	0.560196	0.035416
O12	O	1.065200	0.701795	-0.106181
O13	O	0.938609	0.701794	-0.035379
Zr14	Zr	1.263884	0.630993	0.075671
Zr15	Zr	1.263820	0.630995	-0.075638
Zr16	Zr	0.993285	0.630994	0.075673
Zr17	Zr	0.993227	0.782298	-0.075629
Zr18	Zr	1.263877	0.479690	0.075664
O19	O	1.213412	0.751259	0.047457
O20	O	1.213320	0.751262	-0.167684
O21	O	0.828654	0.751260	0.047461
O22	O	1.428543	0.510726	0.167716
O23	O	1.428451	0.510729	-0.047426
O24	O	1.043784	0.510727	0.167719
O25	O	1.428456	0.630994	-0.047421
O26	O	1.213458	0.630992	0.167723
O27	O	1.043790	0.630992	0.167724
O28	O	1.428497	0.630993	0.047450
O29	O	1.043657	0.846130	-0.167679
O30	O	1.213447	0.415859	0.167713
O31	O	1.428538	0.415858	0.167712
O32	O	1.428486	0.415860	0.047441
O33	O	0.828618	0.846129	-0.047407
O34	O	1.043709	0.846128	-0.047408
O35	O	1.191905	0.560194	0.106216
O36	O	1.318495	0.560195	0.035413
O37	O	1.191851	0.701793	-0.035381
O38	O	1.065260	0.701792	0.035422
C39	C	1.128543	0.441738	0.000009
C40	C	1.128540	0.377506	0.000006
C41	C	1.194610	0.347336	-0.036954
C42	C	1.194622	0.286975	-0.036949
C43	C	1.128539	0.256798	0.000008
C44	C	1.062466	0.286972	0.036977
C45	C	1.062466	0.347326	0.036976
C46	C	1.017827	0.194769	-0.005265
C47	C	1.017823	0.134420	-0.005269
C48	C	1.128541	0.070643	0.000015
C49	C	1.239262	0.067231	0.005290
C50	C	1.239262	0.127585	0.005289
C51	C	1.128533	0.191354	0.000014
C52	C	1.194630	-0.024978	-0.036941
C53	C	1.194646	-0.085344	-0.036930
C54	C	1.062478	-0.085340	0.036991
C55	C	1.062475	-0.024981	0.036985
C56	C	1.128548	0.005199	0.000015
C57	C	0.790073	0.630995	0.000020
C58	C	0.675196	0.630996	0.000021
C59	C	1.467031	0.630993	0.000014
C60	C	1.581908	0.630993	0.000013
C61	C	1.128471	0.630997	-0.189247
C62	C	1.128444	0.630998	-0.253482
C63	C	1.128561	0.820251	0.000025
C64	C	1.128565	0.884483	0.000028
C65	C	1.062343	0.704909	-0.320608
C66	C	1.062375	0.704910	-0.380964
C67	C	1.128491	0.630996	-0.374188
C68	C	1.194606	0.557076	-0.307049
C69	C	1.194582	0.557077	-0.246696
C70	C	1.119099	0.574368	-0.441507
C71	C	1.119113	0.574370	-0.501861
C72	C	1.128571	0.630990	-0.560336
C73	C	1.137988	0.687621	-0.558456
C74	C	1.137964	0.687622	-0.498103
C75	C	1.128524	0.630987	-0.439627
C76	C	1.062501	0.704907	-0.692909
C77	C	1.062542	0.704905	-0.753264
C78	C	1.194765	0.557069	-0.679347
C79	C	1.194732	0.557073	-0.618994
C80	C	1.128594	0.630994	-0.625780
C81	C	1.128633	0.630992	0.189282
C82	C	1.128661	0.630991	0.253516
C83	C	1.467022	0.441737	0.000006
C84	C	1.581896	0.377505	0.000003
C85	C	1.128624	0.441735	0.189274
C86	C	1.128648	0.377502	0.253505
C87	C	1.467103	0.441734	0.189271
C88	C	1.582004	0.377501	0.253502
C89	C	0.790001	0.820255	-0.189236
C90	C	0.675100	0.884488	-0.253467
C91	C	0.790082	0.820252	0.000028
C92	C	0.675209	0.884484	0.000032
C93	C	1.128480	0.820254	-0.189239
C94	C	1.128456	0.884486	-0.253471
C95	C	1.569731	0.347342	-0.036963
C96	C	1.677657	0.286997	-0.036980
C97	C	1.797746	0.256813	-0.000028
C98	C	1.809908	0.286982	0.036938
C99	C	1.701984	0.347330	0.036951
C100	C	1.194770	0.347337	0.320633
C101	C	1.194788	0.286992	0.380991
C102	C	1.128691	0.256809	0.374221
C103	C	1.062561	0.286980	0.307086
C104	C	1.062536	0.347328	0.246729
C105	C	1.702053	0.347337	0.246707
C106	C	1.810025	0.286991	0.307053
C107	C	1.797946	0.256807	0.374193
C108	C	1.677884	0.286977	0.380986
C109	C	1.569915	0.347326	0.320641
C110	C	0.555051	0.914659	-0.246672
C111	C	0.447079	0.975024	-0.307018
C112	C	0.459159	1.005211	-0.374158
C113	C	0.579220	0.975037	-0.380951
C114	C	0.687190	0.914678	-0.320606
C115	C	0.687373	0.914654	0.036991
C116	C	0.579448	0.975015	0.036992
C117	C	0.459358	1.005201	0.000038
C118	C	0.447196	0.975029	-0.036926
C119	C	0.555121	0.914673	-0.036930
C120	C	1.194566	0.914650	-0.246678
C121	C	1.194568	0.974996	-0.307025
C122	C	1.128452	1.005181	-0.374164
C123	C	1.062339	0.975011	-0.380956
C124	C	1.062346	0.914662	-0.320609
H125	H	1.329423	0.015297	0.009602
O126	O	0.354232	1.063737	-0.432753
C127	C	0.281905	1.034241	-0.432620
H128	H	0.345297	0.964754	-0.398501
H129	H	0.238122	1.057955	-0.488918
H130	H	0.203813	1.056163	-0.410336
H131	H	1.885872	0.207667	0.423324
H132	H	1.008545	0.765099	-0.435629
O133	O	1.926737	0.257634	0.300570
C134	C	2.019457	0.197891	0.368224
H135	H	1.977424	0.207788	0.408238
H136	H	2.102667	0.202815	0.367540
H137	H	2.053256	0.134759	0.383600
H138	H	1.472169	0.371878	0.326183
H139	H	0.589375	0.999571	0.067095
H140	H	0.371490	1.054347	0.000047
H141	H	1.128456	1.054321	-0.423296
O142	O	1.128902	0.198158	0.432928
C143	C	1.201419	0.178025	0.493625
H144	H	1.271293	0.194662	0.479759
H145	H	1.255249	0.109813	0.536251
H146	H	1.136355	0.213318	0.513946
H147	H	1.248406	0.890083	-0.192015
H148	H	1.711906	0.371881	0.067057
H149	H	1.248411	0.496888	-0.192036
H150	H	1.668067	0.262392	0.435659
H151	H	1.248403	0.999554	-0.301481
H152	H	1.248436	-0.000407	-0.067042
O153	O	0.998129	1.004456	-0.446230
C154	C	1.012330	1.064177	-0.498028
H155	H	1.036702	1.090550	-0.474489
H156	H	0.920320	1.114966	-0.544568
H157	H	1.091450	1.035308	-0.516912
O158	O	1.258788	0.376797	0.327127
C159	C	1.173908	0.461361	0.294440
H160	H	1.086905	0.486950	0.253310
H161	H	1.221842	0.492636	0.267642
H162	H	1.144341	0.472879	0.335935
O163	O	1.259150	0.257750	0.446147
C164	C	1.317467	0.297342	0.439172
H165	H	1.330519	0.322204	0.385311
H166	H	1.413503	0.252071	0.482450
H167	H	1.255540	0.349764	0.444115
O168	O	1.110169	0.519258	-0.503604
C169	C	1.212809	0.439670	-0.449048
H170	H	1.294104	0.441247	-0.433234
H171	H	1.244914	0.398833	-0.468321
H172	H	1.182407	0.414573	-0.401474
H173	H	1.248414	0.371905	-0.067055
H174	H	1.248456	-0.109912	-0.067025
O175	O	0.543074	0.885465	-0.181510
C176	C	0.413953	0.925040	-0.188468
H177	H	0.356378	0.986210	-0.242326
H178	H	0.398935	0.935449	-0.145186
H179	H	0.382135	0.885465	-0.183517
O180	O	0.803954	0.885323	0.072993
C181	C	0.817829	0.850401	0.145136
H182	H	0.720669	0.877668	0.151184
H183	H	0.874613	0.863637	0.167774
H184	H	0.869422	0.781662	0.174787
H185	H	0.349330	0.999581	-0.301473
O186	O	0.998295	0.376506	0.181576
C187	C	0.939946	0.336931	0.188552
H188	H	0.991811	0.275767	0.242415
H189	H	0.943493	0.326512	0.145278
H190	H	0.837353	0.376512	0.183605
H191	H	0.784936	0.890113	-0.326147
H192	H	1.008746	0.262396	0.301584
H193	H	0.589041	0.999624	-0.435624
H194	H	1.008505	0.890110	-0.326150
O195	O	0.998306	-0.114711	0.072831
C196	C	1.012503	-0.174469	0.064925
H197	H	1.036821	-0.164562	0.015009
H198	H	0.920508	-0.169574	0.060696
H199	H	1.091657	-0.237593	0.112675
H200	H	1.248427	0.262406	-0.067047
O201	O	0.330566	1.004424	-0.072927
C202	C	0.316676	1.039322	-0.145070
H203	H	0.385014	1.057439	-0.158169
H204	H	0.215696	1.095680	-0.178488
H205	H	0.338085	0.993067	-0.156890
O206	O	0.910179	0.256791	-0.010534
C207	C	0.815135	0.300504	-0.074353
H208	H	0.860575	0.290828	-0.113617
H209	H	0.755629	0.368204	-0.097103
H210	H	0.752345	0.277829	-0.063947
O211	O	1.926661	0.257538	0.072824
C212	C	2.019294	0.197819	0.064868
H213	H	1.977193	0.171444	0.051247
H214	H	2.102553	0.147030	0.116304
H215	H	2.053044	0.226689	0.020622
O216	O	0.543227	0.885286	-0.072735
C217	C	0.476607	0.850410	-0.045563
H218	H	0.485653	0.832294	0.010771
H219	H	0.517575	0.794053	-0.045660
H220	H	0.372725	0.896678	-0.079826
H221	H	1.711913	0.371904	0.192043
O222	O	1.453018	0.376798	-0.072914
C223	C	1.386623	0.461362	-0.124789
H224	H	1.427843	0.486956	-0.109248
H225	H	1.282744	0.492633	-0.129265
H226	H	1.395589	0.472879	-0.177800
O227	O	1.665601	0.257756	-0.072896
C228	C	1.536462	0.297349	-0.105511
H229	H	1.478938	0.322211	-0.076511
H230	H	1.521406	0.252078	-0.103520
H231	H	1.504616	0.349772	-0.162873
H232	H	1.329415	0.124802	0.009586
H233	H	1.008668	-0.000413	0.067080
H234	H	1.008662	0.262397	0.067069
O235	O	0.910298	0.137696	-0.010272
C236	C	0.870630	0.134857	0.047120
H237	H	0.954775	0.105200	0.092572
H238	H	0.829701	0.097637	0.065070
H239	H	0.795337	0.199435	0.030130
H240	H	1.248439	0.496895	-0.301536
O241	O	0.998073	0.376717	0.072786
C242	C	0.869050	0.411603	0.045628
H243	H	0.845631	0.429713	-0.010703
H244	H	0.809256	0.467964	0.045721
H245	H	0.847933	0.365343	0.079903
O246	O	1.146956	0.742734	-0.615282
C247	C	1.044301	0.822322	-0.640327
H248	H	0.963001	0.820741	-0.622966
H249	H	1.012215	0.863154	-0.700434
H250	H	1.074676	0.847427	-0.617834
O251	O	0.998090	0.776787	-0.327326
C252	C	0.939730	0.842023	-0.399522
H253	H	0.991590	0.820351	-0.431701
H254	H	0.943273	0.893720	-0.407922
H255	H	0.837139	0.864751	-0.417322
H256	H	1.248599	0.496887	-0.673829
H257	H	1.008648	0.765098	-0.698435
O258	O	1.147266	0.742519	-0.496152
C259	C	1.256233	0.700772	-0.440357
H260	H	1.284188	0.636555	-0.399224
H261	H	1.235814	0.734884	-0.414965
H262	H	1.336808	0.697118	-0.461764
O263	O	1.258951	0.485202	-0.553836
C264	C	1.317341	0.419962	-0.560794
H265	H	1.265515	0.441630	-0.614658
H266	H	1.313785	0.368267	-0.517521
H267	H	1.419938	0.397233	-0.555829
O268	O	1.109686	0.519442	-0.384769
C269	C	0.995557	0.530122	-0.404889
H270	H	0.925318	0.594801	-0.453824
H271	H	0.954871	0.519594	-0.359944
H272	H	1.014191	0.484607	-0.417168
O273	O	0.998420	0.776759	-0.818437
C274	C	1.047014	0.821723	-0.826156
H275	H	1.095400	0.800707	-0.771820
H276	H	0.966553	0.889341	-0.857903
H277	H	1.118378	0.811483	-0.854987
H278	H	1.885615	0.207673	-0.000044
