data_functionalizedCrystal
_audit_creation_method	'MofGen! by Chris Wilmer'
_symmetry_space_group_name_H-M	'P1'
_symmetry_Int_Tables_number	1
_symmetry_cell_setting	triclinic
loop_
_symmetry_equiv_pos_as_xyz
  x,y,z
_cell_length_a	6.817900
_cell_length_b	16.306198
_cell_length_c	16.305550
_cell_angle_alpha	95.373122
_cell_angle_beta	103.455250
_cell_angle_gamma	103.467075
loop_
_atom_site_label
_atom_site_type_symbol
_atom_site_fract_x
_atom_site_fract_y
_atom_site_fract_z
V1	V	-4.026246	-0.117432	-0.263332
O2	O	-4.013841	0.004910	-0.258012
O3	O	-3.977698	-0.232142	-0.261826
O4	O	-3.977652	-0.115947	-0.378045
O5	O	-4.013887	-0.112090	-0.140988
V6	V	-4.509919	-0.102760	-0.248662
O7	O	-4.287177	-0.149615	-0.295509
O8	O	-4.699185	-0.070577	-0.216485
O9	O	-4.335260	0.011951	-0.250168
O10	O	-4.639720	-0.225102	-0.253982
O11	O	-4.639675	-0.108102	-0.371006
O12	O	-4.335306	-0.104245	-0.133949
C13	C	-3.822669	-0.260096	-0.257748
C14	C	-3.864260	-0.353876	-0.257281
C15	C	-4.015214	-0.694623	-0.255576
C16	C	-4.219298	-0.664089	-0.260538
C17	C	-4.176361	-0.566600	-0.261349
C18	C	-3.940325	-0.525574	-0.256421
C19	C	-3.888744	-0.571230	-0.334676
C20	C	-3.933440	-0.668848	-0.334288
C21	C	-3.845294	-0.643281	-0.172946
C22	C	-3.805619	-0.545629	-0.172460
C23	C	-3.897991	-0.430035	-0.256902
C24	C	-4.057544	-0.790162	-0.255101
C25	C	-3.822610	-0.111876	-0.405996
C26	C	-3.864161	-0.111421	-0.499776
C27	C	-4.015248	-0.109658	-0.840517
C28	C	-3.779200	-0.104423	-0.799575
C29	C	-3.736007	-0.105246	-0.702082
C30	C	-3.940291	-0.110532	-0.671472
C31	C	-4.107324	-0.193848	-0.722311
C32	C	-4.149188	-0.193376	-0.819859
C33	C	-4.070003	-0.032243	-0.794476
C34	C	-4.022074	-0.031583	-0.696632
C35	C	-3.897941	-0.111029	-0.575935
C36	C	-4.057607	-0.109167	-0.936055
C37	C	-4.153632	0.039900	-0.254244
C38	C	-4.091278	0.133679	-0.254716
C39	C	-4.153691	-0.108318	-0.105994
C40	C	-4.091377	-0.108769	-0.012212
H41	H	-4.052604	-0.703043	-0.396498
H42	H	-4.282463	-0.554520	-0.321608
H43	H	-3.784363	-0.689223	-0.334123
H44	H	-3.894788	-0.659834	-0.113088
N45	N	-4.009631	-0.554838	-0.412628
N46	N	-4.133401	-0.615489	-0.466344
H47	H	-4.218790	-0.603915	-0.521398
H48	H	-3.843968	-0.514879	-0.114526
N49	N	-3.870212	0.045720	-0.653303
N50	N	-3.702339	0.042747	-0.604063
H51	H	-3.595083	0.097342	-0.573454
N52	N	-4.037774	-0.267383	-0.701401
N53	N	-3.865328	-0.258640	-0.649101
H54	H	-3.816195	-0.310573	-0.634333
H55	H	-3.978601	0.030885	-0.807682
H56	H	-4.113043	-0.251982	-0.850391
N57	N	-4.285845	-0.036119	-0.828145
N58	N	-4.355164	-0.033937	-0.905714
H59	H	-4.507601	-0.036680	-0.929499
N60	N	-4.232839	-0.527579	-0.191181
N61	N	-4.304320	-0.572325	-0.141268
H62	H	-4.344220	-0.544771	-0.091710
N63	N	-4.302899	-0.684548	-0.190060
N64	N	-4.213058	-0.721874	-0.135353
H65	H	-4.272102	-0.736328	-0.085574
N66	N	-4.206921	-0.030329	-0.669890
N67	N	-4.372949	-0.033217	-0.723892
H68	H	-4.503535	-0.032356	-0.705020
N69	N	-4.378338	-0.708896	-0.335313
N70	N	-4.342031	-0.763218	-0.384965
H71	H	-4.454349	-0.794866	-0.437776
N72	N	-3.674727	-0.537918	-0.333881
N73	N	-3.557552	-0.480017	-0.275492
H74	H	-3.406398	-0.456488	-0.274928
N75	N	-3.654403	-0.667317	-0.167410
N76	N	-3.643279	-0.722005	-0.224002
H77	H	-3.508474	-0.738986	-0.220100
N78	N	-3.587355	-0.509340	-0.161784
N79	N	-3.482703	-0.456020	-0.097256
H80	H	-3.328543	-0.430404	-0.089720
N81	N	-3.577261	-0.030114	-0.657953
N82	N	-3.410191	-0.036529	-0.610807
H83	H	-3.298059	0.016533	-0.579645
H84	H	-3.673061	-0.044237	-0.811785
H85	H	-3.734110	-0.160043	-0.831230
N86	N	-4.367257	-0.202529	-0.854989
N87	N	-4.488075	-0.209249	-0.807449
H88	H	-4.642086	-0.215717	-0.832255
N89	N	-3.652671	-0.175826	-0.681829
N90	N	-3.626282	-0.224634	-0.739740
H91	H	-3.567428	-0.274486	-0.725438
H92	H	-4.260480	-0.200729	-0.703416
