data_functionalizedCrystal
_audit_creation_method	'MofGen! by Chris Wilmer'
_symmetry_space_group_name_H-M	'P1'
_symmetry_Int_Tables_number	1
_symmetry_cell_setting	triclinic
loop_
_symmetry_equiv_pos_as_xyz
  x,y,z
_cell_length_a	16.625548
_cell_length_b	18.215405
_cell_length_c	18.215399
_cell_angle_alpha	90.030551
_cell_angle_beta	89.980331
_cell_angle_gamma	89.974047
loop_
_atom_site_label
_atom_site_type_symbol
_atom_site_fract_x
_atom_site_fract_y
_atom_site_fract_z
Zn1	Zn	1.232660	0.292971	-0.416099
Zn2	Zn	1.732660	0.792971	0.083901
Zn3	Zn	1.232559	0.416042	-0.293027
Zn4	Zn	1.732559	0.916042	0.206973
Zn5	Zn	1.097824	0.292996	-0.293047
Zn6	Zn	1.597824	0.792996	0.206953
Zn7	Zn	1.097786	0.416002	-0.416053
Zn8	Zn	1.597786	0.916002	0.083947
O9	O	1.165207	0.354503	-0.354557
O10	O	1.665207	0.854503	0.145443
O11	O	1.345479	0.309302	-0.399785
O12	O	1.845479	0.809302	0.100215
O13	O	1.214660	0.399747	-0.190046
O14	O	1.714660	0.899747	0.309954
O15	O	1.115768	0.190009	-0.309398
O16	O	1.615768	0.690009	0.190602
O17	O	1.345405	0.399722	-0.309365
O18	O	1.845405	0.899722	0.190635
O19	O	1.214831	0.189990	-0.399804
O20	O	1.714831	0.689990	0.100196
O21	O	1.115670	0.309346	-0.190060
O22	O	1.615670	0.809346	0.309940
O23	O	0.984986	0.309307	-0.309353
O24	O	1.484986	0.809307	0.190647
O25	O	1.115704	0.399655	-0.519043
O26	O	1.615704	0.899655	-0.019043
O27	O	0.984959	0.399679	-0.399724
O28	O	1.484959	0.899679	0.100276
O29	O	1.214795	0.309264	-0.519077
O30	O	1.714795	0.809264	-0.019077
O31	O	1.214624	0.519021	-0.309319
O32	O	1.714624	1.019021	0.190681
O33	O	1.115607	0.518992	-0.399705
O34	O	1.615607	1.018992	0.100295
C35	C	1.165122	0.545709	-0.354521
C36	C	1.665122	1.045709	0.145479
C37	C	1.165159	0.627508	-0.354531
C38	C	1.665159	1.127508	0.145469
C39	C	0.955716	0.354492	-0.354536
C40	C	1.455716	0.854492	0.145464
C41	C	0.866095	0.354506	-0.354545
C42	C	1.366095	0.854506	0.145455
C43	C	1.165256	0.354452	-0.546510
C44	C	1.665256	0.854452	-0.046510
C45	C	1.165277	0.354431	-0.628309
C46	C	1.665277	0.854431	-0.128309
C47	C	0.537920	0.354510	-0.354576
C48	C	1.037920	0.854510	0.145424
C49	C	0.629228	0.354507	-0.354565
C50	C	1.129228	0.854507	0.145435
C51	C	0.702005	0.354508	-0.354560
C52	C	1.202005	0.854508	0.145440
C53	C	0.793319	0.354504	-0.354550
C54	C	1.293319	0.854504	0.145450
C55	C	1.375516	0.354514	-0.354578
C56	C	1.875516	0.854514	0.145422
C57	C	1.465137	0.354519	-0.354587
C58	C	1.965137	0.854519	0.145413
C59	C	1.165315	0.162550	-0.354608
C60	C	1.665315	0.662550	0.145392
C61	C	1.165361	0.080751	-0.354630
C62	C	1.665361	0.580751	0.145370
C63	C	1.216839	0.815693	-0.307553
C64	C	1.716839	1.315693	0.192447
C65	C	1.216875	0.892551	-0.307571
C66	C	1.716875	1.392551	0.192429
C67	C	1.113679	0.892561	-0.401613
C68	C	1.613679	1.392561	0.098387
C69	C	1.113648	0.815704	-0.401598
C70	C	1.613648	1.315704	0.098402
C71	C	1.165226	0.777272	-0.354564
C72	C	1.665226	1.277272	0.145436
C73	C	1.165294	0.930988	-0.354597
C74	C	1.665294	1.430988	0.145403
C75	C	1.165332	1.014321	-0.354616
C76	C	1.665332	1.514321	0.145384
C77	C	1.165189	0.693933	-0.354545
C78	C	1.665189	1.193933	0.145455
C79	C	1.216893	0.307320	-0.816522
C80	C	1.716893	0.807320	-0.316522
C81	C	1.216902	0.307299	-0.893380
C82	C	1.716902	0.807299	-0.393380
C83	C	1.113719	0.401427	-0.893334
C84	C	1.613719	0.901427	-0.393334
C85	C	1.113706	0.401444	-0.816476
C86	C	1.613706	0.901444	-0.316476
C87	C	1.165297	0.354392	-0.778072
C88	C	1.665297	0.854392	-0.278072
C89	C	1.165320	0.354353	-0.931788
C90	C	1.665320	0.854353	-0.431788
C91	C	1.165330	0.354330	-1.015122
C92	C	1.665330	0.854330	-0.515122
C93	C	1.165286	0.354414	-0.694733
C94	C	1.665286	0.854414	-0.194733
C95	C	1.165205	0.354500	-0.163350
C96	C	1.665205	0.854500	0.336650
C97	C	1.165340	0.354315	-0.081552
C98	C	1.665340	0.854315	0.418448
H99	H	1.258839	0.784403	-0.269256
H100	H	1.758839	1.284403	0.230744
H101	H	1.258915	0.268967	-0.924683
H102	H	1.758915	0.768967	-0.424683
H103	H	1.071717	0.439737	-0.924611
H104	H	1.571717	0.939737	-0.424611
Cl105	Cl	1.048762	0.767399	-0.460707
Cl106	Cl	1.548762	1.267399	0.039293
H107	H	1.071685	0.439775	-0.785170
H108	H	1.571685	0.939775	-0.285170
Cl109	Cl	1.281764	0.940849	-0.248471
Cl110	Cl	1.781764	1.440849	0.251529
Cl111	Cl	1.281747	0.248166	-0.768245
Cl112	Cl	1.781747	0.748166	-0.268245
Cl113	Cl	1.048838	0.940881	-0.460736
Cl114	Cl	1.548838	1.440881	0.039264
