data_functionalizedCrystal
_audit_creation_method	'MofGen! by Chris Wilmer'
_symmetry_space_group_name_H-M	'P1'
_symmetry_Int_Tables_number	1
_symmetry_cell_setting	triclinic
loop_
_symmetry_equiv_pos_as_xyz
  x,y,z
_cell_length_a	11.026660
_cell_length_b	9.065218
_cell_length_c	8.140239
_cell_angle_alpha	90.001330
_cell_angle_beta	89.998797
_cell_angle_gamma	83.199640
loop_
_atom_site_label
_atom_site_type_symbol
_atom_site_fract_x
_atom_site_fract_y
_atom_site_fract_z
O1	O	1.616958	-0.619564	-0.136608
O2	O	1.262879	-0.549016	-0.136610
O3	O	1.447237	-0.371472	-0.136605
O4	O	1.432600	-0.797107	-0.136612
O5	O	1.447231	-0.371469	0.136622
O6	O	1.262873	-0.549013	0.136617
O7	O	1.616952	-0.619561	0.136619
Zn8	Zn	1.439912	-0.584286	0.179999
Zn9	Zn	1.439920	-0.584290	-0.179989
O10	O	1.432594	-0.797104	0.136615
C11	C	1.217522	-0.535999	0.000003
C12	C	1.082383	-0.497201	0.000002
C13	C	0.870080	-0.564245	-0.000004
C14	C	1.009753	-0.604348	-0.000001
C15	C	1.445828	-0.316134	0.000006
C16	C	1.441621	-0.151242	-0.000002
C17	C	1.662309	-0.632577	0.000003
C18	C	1.797449	-0.671376	-0.000007
C19	C	1.434004	-0.852443	0.000000
C20	C	1.438210	-1.017335	-0.000002
N21	N	1.439915	-0.584285	0.425682
N22	N	1.439926	-0.584283	-0.425672
H23	H	1.041168	-0.375784	-0.000105
O24	O	0.846559	-0.816240	0.000279
C25	C	0.807661	-0.887076	0.141759
H26	H	0.780284	-0.800473	0.240669
H27	H	0.725915	-0.947700	0.109759
C28	C	0.946205	-1.105911	0.084437
C29	C	0.912589	-0.999546	0.205925
H30	H	1.010926	-1.175293	0.124015
H31	H	0.972409	-1.058191	-0.010884
H32	H	0.878074	-1.156415	0.057782
H33	H	0.980715	-0.949032	0.232564
H34	H	0.886399	-1.047260	0.301253
O35	O	0.820714	-0.419477	-0.000073
C36	C	0.692246	-0.411664	-0.000030
H37	H	0.663827	-0.519277	-0.051760
H38	H	0.656817	-0.395165	0.131052
C39	C	0.673068	-0.147880	-0.043640
C40	C	0.638163	-0.280047	-0.107189
H41	H	0.639705	-0.066689	-0.109733
H42	H	0.759619	-0.153141	-0.043663
H43	H	0.643542	-0.134151	0.065594
H44	H	0.667702	-0.293783	-0.216412
H45	H	0.551615	-0.274785	-0.107187
O46	O	1.059114	-0.749124	-0.000085
C47	C	1.187581	-0.756936	-0.000043
H48	H	1.216002	-0.649319	-0.051757
H49	H	1.223007	-0.773445	0.131036
C50	C	1.206760	-1.020717	-0.043693
C51	C	1.241667	-0.888545	-0.107222
H52	H	1.240125	-1.101903	-0.109799
H53	H	1.120209	-1.015456	-0.043716
H54	H	1.236284	-1.034454	0.065538
H55	H	1.212130	-0.874800	-0.216443
H56	H	1.328215	-0.893807	-0.107220
