data_functionalizedCrystal
_audit_creation_method	'MofGen! by Chris Wilmer'
_symmetry_space_group_name_H-M	'P1'
_symmetry_Int_Tables_number	1
_symmetry_cell_setting	triclinic
loop_
_symmetry_equiv_pos_as_xyz
  x,y,z
_cell_length_a	12.759401
_cell_length_b	11.169416
_cell_length_c	12.759393
_cell_angle_alpha	89.971356
_cell_angle_beta	89.981504
_cell_angle_gamma	90.010501
loop_
_atom_site_label
_atom_site_type_symbol
_atom_site_fract_x
_atom_site_fract_y
_atom_site_fract_z
Zn1	Zn	1.606287	-0.477731	-0.594003
Zn2	Zn	1.606195	-0.678464	-0.418332
Zn3	Zn	1.430589	-0.477794	-0.418342
Zn4	Zn	1.430591	-0.678372	-0.593973
O5	O	1.518416	-0.578090	-0.506162
O6	O	1.753296	-0.504371	-0.570708
O7	O	1.582861	-0.651910	-0.271312
O8	O	1.453934	-0.309836	-0.441660
O9	O	1.753228	-0.651849	-0.441643
O10	O	1.583018	-0.309790	-0.570718
O11	O	1.453844	-0.504478	-0.271320
O12	O	1.283568	-0.504389	-0.441632
O13	O	1.453937	-0.651691	-0.740998
O14	O	1.283570	-0.651752	-0.570667
O15	O	1.583020	-0.504282	-0.741020
O16	O	1.582863	-0.846401	-0.441614
O17	O	1.453848	-0.846333	-0.570657
C18	C	1.245448	-0.578068	-0.506148
C19	C	1.128672	-0.578088	-0.506167
C20	C	1.518374	-0.889915	-0.506154
C21	C	1.518452	-1.023315	-0.506186
C22	C	1.073838	-0.654943	-0.573245
C23	C	0.964114	-0.654958	-0.573256
C24	C	0.964067	-0.501260	-0.439103
C25	C	1.073789	-0.501239	-0.439098
C26	C	1.073864	-0.743683	-0.650694
C27	C	0.964140	-0.743698	-0.650705
C28	C	1.792449	-0.578113	-0.506177
C29	C	1.909226	-0.578123	-0.506184
C30	C	1.518489	-0.577969	-0.780196
C31	C	1.518521	-0.577917	-0.896973
C32	C	1.518486	-0.265048	-0.506193
C33	C	1.518516	-0.131648	-0.506207
C34	C	1.585743	-0.501154	-0.951848
C35	C	1.585768	-0.501111	-1.061572
C36	C	1.451345	-0.654605	-1.061536
C37	C	1.451315	-0.654641	-0.951814
C38	C	1.663355	-0.412539	-0.951869
C39	C	1.663380	-0.412496	-1.061593
C40	C	1.518403	-0.578124	-0.233195
C41	C	1.518575	-0.577838	-0.116419
H42	H	1.118431	-0.438649	-0.384484
C43	C	0.952156	-0.773231	-0.836702
C44	C	0.918231	-0.698911	-0.755121
H45	H	0.923807	-0.745580	-0.901158
H46	H	1.026502	-0.771688	-0.840245
H47	H	0.929149	-0.852825	-0.824034
H48	H	0.941245	-0.619317	-0.767785
H49	H	0.843870	-0.700441	-0.751579
C50	C	1.633935	-0.287128	-0.801940
C51	C	1.633954	-0.287073	-0.911682
H52	H	1.615790	-0.209670	-0.777132
H53	H	1.584284	-0.343823	-0.777122
H54	H	1.701729	-0.307909	-0.777141
H55	H	1.566158	-0.266300	-0.936480
H56	H	1.683608	-0.230359	-0.936510
H57	H	0.934351	-0.836628	-0.628777
H58	H	1.396572	-0.717145	-0.907139
C59	C	1.391704	-0.722706	-1.229718
C60	C	1.377484	-0.738946	-1.121822
H61	H	1.346110	-0.774785	-1.266932
H62	H	1.376347	-0.642070	-1.247706
H63	H	1.462299	-0.740272	-1.247691
H64	H	1.306891	-0.721372	-1.103848
H65	H	1.392834	-0.819602	-1.103826
C66	C	1.702966	-0.242091	-1.169366
C67	C	1.624075	-0.293285	-1.107574
H68	H	1.678691	-0.168506	-1.197760
H69	H	1.763204	-0.227836	-1.127469
H70	H	1.720494	-0.295208	-1.224786
H71	H	1.606552	-0.240172	-1.052149
H72	H	1.563819	-0.307535	-1.149473
H73	H	1.740629	-0.445860	-0.917835
C74	C	1.799955	-0.560298	-1.065231
C75	C	1.773218	-0.446109	-1.101816
H76	H	1.867758	-0.581049	-1.090072
H77	H	1.799946	-0.560324	-0.990790
H78	H	1.750300	-0.616967	-1.090037
H79	H	1.822869	-0.389439	-1.077004
H80	H	1.773236	-0.446074	-1.176272
C81	C	0.840630	-0.484417	-0.297807
C82	C	0.903742	-0.416801	-0.365370
H83	H	0.803397	-0.432274	-0.252280
H84	H	0.792269	-0.530174	-0.337758
H85	H	0.883429	-0.536647	-0.257548
H86	H	0.860942	-0.364577	-0.405634
H87	H	0.952108	-0.371024	-0.325414
C88	C	1.175096	-0.606241	-0.754192
C89	C	1.114120	-0.710224	-0.760581
H90	H	1.199954	-0.585594	-0.822030
H91	H	1.133726	-0.542601	-0.727270
H92	H	1.232972	-0.620018	-0.708955
H93	H	1.056240	-0.696443	-0.805813
H94	H	1.155492	-0.773878	-0.787518
C95	C	1.038059	-0.941075	-0.585226
C96	C	1.119801	-0.862814	-0.611175
H97	H	1.066422	-1.014622	-0.560833
H98	H	0.996147	-0.906272	-0.531784
H99	H	0.996183	-0.955419	-0.645470
H100	H	1.161673	-0.848462	-0.550928
H101	H	1.161731	-0.897624	-0.664621
