data_functionalizedCrystal
_audit_creation_method	'MofGen! by Chris Wilmer'
_symmetry_space_group_name_H-M	'P1'
_symmetry_Int_Tables_number	1
_symmetry_cell_setting	triclinic
loop_
_symmetry_equiv_pos_as_xyz
  x,y,z
_cell_length_a	6.817900
_cell_length_b	11.102294
_cell_length_c	17.982968
_cell_angle_alpha	94.232511
_cell_angle_beta	102.451960
_cell_angle_gamma	108.605785
loop_
_atom_site_label
_atom_site_type_symbol
_atom_site_fract_x
_atom_site_fract_y
_atom_site_fract_z
V1	V	-4.041372	-0.177029	-0.237548
O2	O	-4.001741	0.007282	-0.233027
O3	O	-4.018629	-0.349841	-0.235922
O4	O	-3.987555	-0.174844	-0.341151
O5	O	-4.033030	-0.168927	-0.127069
V6	V	-4.522378	-0.154920	-0.224334
O7	O	-4.308153	-0.225528	-0.266533
O8	O	-4.705794	-0.106422	-0.195348
O9	O	-4.321914	0.017892	-0.225959
O10	O	-4.679406	-0.339231	-0.228855
O11	O	-4.648117	-0.163022	-0.334812
O12	O	-4.352988	-0.157106	-0.120731
C13	C	-3.870047	-0.391952	-0.232174
C14	C	-3.932702	-0.533232	-0.231536
C15	C	-4.203889	-0.738855	-0.234448
C16	C	-4.145028	-0.606106	-0.235039
C17	C	-3.779224	-0.593110	-0.227434
C18	C	-3.838083	-0.725855	-0.226837
C19	C	-3.830408	-0.168724	-0.366403
C20	C	-3.867859	-0.168081	-0.451099
C21	C	-4.068320	-0.174147	-0.494771
C22	C	-4.103498	-0.173541	-0.574351
C23	C	-3.938217	-0.166879	-0.610260
C24	C	-3.737738	-0.160808	-0.566582
C25	C	-3.702558	-0.161404	-0.487002
C26	C	-3.879608	-0.158401	-0.887519
C27	C	-3.914806	-0.157809	-0.967105
C28	C	-4.280547	-0.170538	-0.974868
C29	C	-4.245368	-0.171135	-0.895288
C30	C	-4.044890	-0.165057	-0.851617
C31	C	-4.006747	-0.165711	-0.765326
C32	C	-3.976361	-0.166234	-0.696550
C33	C	-4.133840	0.059996	-0.229705
C34	C	-4.050423	0.201274	-0.230348
C35	C	-4.173479	-0.163230	-0.095474
C36	C	-4.115265	-0.163867	-0.010777
H37	H	-4.376785	-0.798182	-0.237305
H38	H	-4.266726	-0.178474	-0.609905
O39	O	-3.550220	-0.514512	-0.223665
H40	H	-3.485065	-0.439881	-0.171592
H41	H	-3.603162	-0.155376	-0.595824
O42	O	-3.672561	-0.790446	-0.222422
H43	H	-3.515028	-0.717480	-0.220095
O44	O	-3.486324	-0.154845	-0.439905
H45	H	-3.418967	-0.067731	-0.395341
O46	O	-4.246583	-0.181320	-0.456040
H47	H	-4.391877	-0.185420	-0.499780
H48	H	-4.379964	-0.176566	-0.866057
O49	O	-4.496778	-0.177070	-1.021968
H50	H	-4.493477	-0.175518	-1.083336
O51	O	-3.736489	-0.151071	-1.005742
H52	H	-3.599121	-0.061210	-0.980520
O53	O	-4.310561	-0.541533	-0.239482
H54	H	-4.468102	-0.614513	-0.241835
O55	O	-3.663399	-0.151865	-0.840421
H56	H	-3.554396	-0.147150	-0.878765
