data_functionalizedCrystal
_audit_creation_method	'MofGen! by Chris Wilmer'
_symmetry_space_group_name_H-M	'P1'
_symmetry_Int_Tables_number	1
_symmetry_cell_setting	triclinic
loop_
_symmetry_equiv_pos_as_xyz
  x,y,z
_cell_length_a	19.121102
_cell_length_b	25.639239
_cell_length_c	19.120904
_cell_angle_alpha	92.410104
_cell_angle_beta	90.088173
_cell_angle_gamma	87.592882
loop_
_atom_site_label
_atom_site_type_symbol
_atom_site_fract_x
_atom_site_fract_y
_atom_site_fract_z
Zn1	Zn	1.054765	-0.255751	-0.442042
Zn2	Zn	1.554765	0.244249	0.057958
Zn3	Zn	1.059658	-0.339618	-0.324799
Zn4	Zn	1.559658	0.160382	0.175201
Zn5	Zn	0.942536	-0.248315	-0.319827
Zn6	Zn	1.442536	0.251685	0.180173
Zn7	Zn	0.937469	-0.339266	-0.437001
Zn8	Zn	1.437469	0.160734	0.062999
O9	O	0.998607	-0.295738	-0.380917
O10	O	1.498607	0.204262	0.119083
O11	O	1.153518	-0.270136	-0.430680
O12	O	1.653518	0.229864	0.069320
O13	O	1.048290	-0.324541	-0.226035
O14	O	1.548290	0.175459	0.273965
O15	O	0.957496	-0.176139	-0.336067
O16	O	1.457496	0.323861	0.163933
O17	O	1.157113	-0.331752	-0.344542
O18	O	1.657113	0.168248	0.155458
O19	O	1.039950	-0.181603	-0.425859
O20	O	1.539950	0.318397	0.074141
O21	O	0.962241	-0.257461	-0.222382
O22	O	1.462241	0.242539	0.277618
O23	O	0.843760	-0.257121	-0.331180
O24	O	1.343760	0.242879	0.168820
O25	O	0.948861	-0.331153	-0.535775
O26	O	1.448861	0.168847	-0.035775
O27	O	0.840037	-0.323942	-0.417267
O28	O	1.340037	0.176058	0.082733
O29	O	1.035037	-0.269795	-0.539478
O30	O	1.535037	0.230205	-0.039478
O31	O	1.043377	-0.412733	-0.339654
O32	O	1.543377	0.087267	0.160346
O33	O	0.953605	-0.412475	-0.422089
O34	O	1.453605	0.087525	0.077911
C35	C	0.816461	-0.289687	-0.373137
C36	C	1.316461	0.210313	0.126863
C37	C	0.738537	-0.287111	-0.369826
C38	C	1.238537	0.212889	0.130174
C39	C	0.700012	-0.320740	-0.413021
C40	C	1.200012	0.179260	0.086979
C41	C	0.626794	-0.318313	-0.409912
C42	C	1.126794	0.181687	0.090088
C43	C	0.592104	-0.282260	-0.363605
C44	C	1.092104	0.217740	0.136395
C45	C	0.630634	-0.248627	-0.320408
C46	C	1.130634	0.251373	0.179592
C47	C	0.703850	-0.251052	-0.323520
C48	C	1.203850	0.248948	0.176480
C49	C	0.371134	-0.273194	-0.351972
C50	C	0.871134	0.226806	0.148028
C51	C	0.297913	-0.270773	-0.348862
C52	C	0.797913	0.229227	0.151138
C53	C	0.294078	-0.340458	-0.438367
C54	C	0.794078	0.159542	0.061633
C55	C	0.367296	-0.342882	-0.441472
C56	C	0.867296	0.157118	0.058528
C57	C	0.405820	-0.309247	-0.398278
C58	C	0.905820	0.190753	0.101722
C59	C	0.517264	-0.279779	-0.360425
C60	C	1.017264	0.220221	0.139575
C61	C	0.480658	-0.311726	-0.401462
C62	C	0.980658	0.188274	0.098538
C63	C	0.998491	-0.431575	-0.380880
C64	C	1.498491	0.068425	0.119120
C65	C	0.998504	-0.489690	-0.380890
C66	C	1.498504	0.010310	0.119110
C67	C	1.045465	-0.850185	-0.338075
C68	C	1.545465	-0.350185	0.161925
C69	C	1.045491	-0.904791	-0.338085
C70	C	1.545491	-0.404791	0.161915
O71	O	1.085298	-0.933135	-0.301642
O72	O	1.585298	-0.433135	0.198358
N73	N	0.998728	-0.931982	-0.380969
N74	N	1.498728	-0.431982	0.119031
C75	C	0.951940	-0.904565	-0.423850
C76	C	1.451940	-0.404565	0.076150
O77	O	0.912167	-0.932708	-0.460327
O78	O	1.412167	-0.432708	0.039673
C79	C	0.951917	-0.849961	-0.423843
C80	C	1.451917	-0.349961	0.076157
C81	C	0.998679	-0.822772	-0.380951
C82	C	1.498679	-0.322772	0.119049
C83	C	1.092223	-0.822997	-0.295188
C84	C	1.592223	-0.322997	0.204812
C85	C	1.092195	-0.768395	-0.295176
C86	C	1.592195	-0.268395	0.204824
C87	C	1.045409	-0.740982	-0.338052
C88	C	1.545409	-0.240982	0.161948
C89	C	0.998651	-0.768171	-0.380940
C90	C	1.498651	-0.268171	0.119060
C91	C	0.905133	-0.822546	-0.466727
C92	C	1.405133	-0.322546	0.033273
C93	C	0.905115	-0.767938	-0.466716
C94	C	1.405115	-0.267938	0.033284
C95	C	0.951876	-0.740749	-0.423825
C96	C	1.451876	-0.240749	0.076175
C97	C	0.951837	-0.686156	-0.423805
C98	C	1.451837	-0.186156	0.076195
N99	N	0.998600	-0.658965	-0.380921
N100	N	1.498600	-0.158965	0.119079
C101	C	1.045386	-0.686378	-0.338045
C102	C	1.545386	-0.186378	0.161955
C103	C	0.951992	-1.019238	-0.423863
C104	C	1.451992	-0.519238	0.076137
C105	C	0.952011	-1.073841	-0.423867
C106	C	1.452011	-0.573841	0.076133
C107	C	1.045564	-1.074063	-0.338103
C108	C	1.545564	-0.574063	0.161897
C109	C	1.045541	-1.019459	-0.338096
C110	C	1.545541	-0.519459	0.161904
C111	C	0.998756	-0.992047	-0.380980
C112	C	1.498756	-0.492047	0.119020
C113	C	1.045324	-0.571710	-0.338024
C114	C	1.545324	-0.071710	0.161976
C115	C	1.045290	-0.517103	-0.338014
C116	C	1.545290	-0.017103	0.161986
C117	C	0.951740	-0.516886	-0.423780
C118	C	1.451740	-0.016886	0.076220
C119	C	0.951771	-0.571488	-0.423788
C120	C	1.451771	-0.071488	0.076212
C121	C	0.998569	-0.598899	-0.380907
C122	C	1.498569	-0.098899	0.119093
O123	O	0.912052	-0.657777	-0.460232
O124	O	1.412052	-0.157777	0.039768
O125	O	1.085159	-0.658229	-0.301581
O126	O	1.585159	-0.158229	0.198419
C127	C	1.181464	-0.301813	-0.388728
C128	C	1.681464	0.198187	0.111272
C129	C	1.259387	-0.304401	-0.392057
C130	C	1.759387	0.195599	0.107943
C131	C	0.990838	-0.301264	-0.563775
C132	C	1.490838	0.198736	-0.063775
C133	C	0.987527	-0.303619	-0.641698
C134	C	1.487527	0.196381	-0.141698
C135	C	0.998742	-0.159371	-0.380971
C136	C	1.498742	0.340629	0.119029
C137	C	0.998800	-0.101259	-0.380993
C138	C	1.498800	0.398741	0.119007
C139	C	1.030837	-0.272781	-0.680236
C140	C	1.530837	0.227219	-0.180236
C141	C	1.027718	-0.274992	-0.753453
C142	C	1.527718	0.225008	-0.253453
C143	C	0.981292	-0.308044	-0.788130
C144	C	1.481292	0.191956	-0.288130
C145	C	0.937977	-0.338883	-0.749587
C146	C	1.437977	0.161117	-0.249587
C147	C	0.941093	-0.336669	-0.676372
C148	C	1.441093	0.163331	-0.176372
C149	C	0.969635	-0.316324	-1.009097
C150	C	1.469635	0.183676	-0.509097
C151	C	0.966523	-0.318536	-1.082318
C152	C	1.466523	0.181464	-0.582318
C153	C	1.056263	-0.254644	-1.086178
C154	C	1.556263	0.245356	-0.586178
C155	C	1.059378	-0.252436	-1.012961
C156	C	1.559378	0.247564	-0.512961
C157	C	1.016061	-0.283273	-0.974424
C158	C	1.516061	0.216727	-0.474424
C159	C	0.978104	-0.310306	-0.862970
C160	C	1.478104	0.189694	-0.362970
C161	C	1.019246	-0.281008	-0.899586
C162	C	1.519246	0.218992	-0.399586
C163	C	1.006386	-0.290196	-0.198772
C164	C	1.506386	0.209804	0.301228
C165	C	1.009833	-0.287698	-0.120856
C166	C	1.509833	0.212302	0.379144
H167	H	0.489010	-0.250426	-0.322720
H168	H	0.989010	0.249574	0.177280
H169	H	0.262704	-0.367840	-0.473534
H170	H	0.762704	0.132160	0.026466
H171	H	0.913645	-0.494558	-0.458687
H172	H	1.413645	0.005442	0.041313
H173	H	1.083618	-0.997325	-0.303171
H174	H	1.583618	-0.497325	0.196829
C175	C	1.081909	-0.236421	-0.642097
C176	C	1.581909	0.263579	-0.142097
N177	N	1.120376	-0.209031	-0.613373
N178	N	1.620376	0.290969	-0.113373
H179	H	0.900174	-0.365793	-0.777828
H180	H	1.400174	0.134207	-0.277828
H181	H	0.508906	-0.341078	-0.439168
H182	H	1.008906	0.158922	0.060832
C183	C	0.746228	-0.214059	-0.276001
C184	C	1.246228	0.285941	0.223999
N185	N	0.778146	-0.186193	-0.240209
N186	N	1.278146	0.313807	0.259791
C187	C	0.927031	-0.346658	-0.901122
C188	C	1.427031	0.153342	-0.401122
N189	N	0.888561	-0.374036	-0.929861
N190	N	1.388561	0.125964	-0.429861
C191	C	0.900564	-1.103742	-0.471044
C192	C	1.400564	-0.603742	0.028956
N193	N	0.861814	-1.126262	-0.506583
N194	N	1.361814	-0.626262	-0.006583
H195	H	1.097185	-0.225523	-0.984732
H196	H	1.597185	0.274477	-0.484732
C197	C	0.405450	-0.382546	-0.492410
C198	C	0.905450	0.117454	0.007590
N199	N	0.434188	-0.412423	-0.530775
N200	N	0.934188	0.087577	-0.030775
H201	H	0.728252	-0.350100	-0.450727
H202	H	1.228252	0.149900	0.049273
C203	C	1.075363	-0.241069	-0.795841
C204	C	1.575363	0.258931	-0.295841
N205	N	1.111252	-0.215516	-0.827767
N206	N	1.611252	0.284484	-0.327767
C207	C	1.103900	-0.220719	-1.128574
C208	C	1.603900	0.279281	-0.628574
N209	N	1.139778	-0.195162	-1.160507
N210	N	1.639778	0.304838	-0.660507
H211	H	1.083369	-0.494968	-0.303084
H212	H	1.583369	0.005032	0.196916
H213	H	0.928715	-0.345452	-1.110550
H214	H	1.428715	0.154548	-0.610550
C215	C	0.413501	-0.236198	-0.304452
C216	C	0.913501	0.263802	0.195548
N217	N	0.445415	-0.208331	-0.268657
N218	N	0.945415	0.291669	0.231343
H219	H	1.083662	-1.096393	-0.303194
H220	H	1.583662	-0.596393	0.196806
C221	C	0.893450	-0.370595	-0.633981
C222	C	1.393450	0.129405	-0.133981
N223	N	0.857563	-0.396147	-0.602052
N224	N	1.357563	0.103853	-0.102052
H225	H	1.130325	-0.845310	-0.260273
H226	H	1.630325	-0.345310	0.239727
H227	H	1.083432	-0.594021	-0.303108
H228	H	1.583432	-0.094021	0.196892
C229	C	1.143631	-0.738494	-0.247986
C230	C	1.643631	-0.238494	0.252014
N231	N	1.182374	-0.715976	-0.212437
N232	N	1.682374	-0.215976	0.287563
C233	C	0.900524	-0.989090	-0.471044
C234	C	1.400524	-0.489090	0.028956
N235	N	0.861762	-0.966386	-0.506585
N236	N	1.361762	-0.466386	-0.006585
C237	C	0.853646	-0.737788	-0.513893
C238	C	1.353646	-0.237788	-0.013893
N239	N	0.814878	-0.715081	-0.549425
N240	N	1.314878	-0.215081	-0.049425
C241	C	0.584420	-0.355317	-0.457417
C242	C	1.084420	0.144683	0.042583
N243	N	0.552504	-0.383194	-0.493195
N244	N	1.052504	0.116806	0.006805
C245	C	0.853693	-0.852441	-0.513914
C246	C	1.353693	-0.352441	-0.013914
N247	N	0.814946	-0.874958	-0.549459
N248	N	1.314946	-0.374958	-0.049459
C249	C	0.259754	-0.231109	-0.297919
C250	C	0.759754	0.268891	0.202081
N251	N	0.231014	-0.201236	-0.259549
N252	N	0.731014	0.298764	0.240451
H253	H	0.602383	-0.219270	-0.282707
H254	H	1.102383	0.280730	0.217293
C255	C	0.900329	-0.601397	-0.470967
C256	C	1.400329	-0.101397	0.029033
N257	N	0.861587	-0.623920	-0.506510
N258	N	1.361587	-0.123920	-0.006510
H259	H	0.934373	-0.341441	-0.977730
H260	H	1.434373	0.158559	-0.477730
H261	H	1.057043	-0.254095	-0.871348
H262	H	1.557043	0.245905	-0.371348
