data_functionalizedCrystal
_audit_creation_method	'MofGen! by Chris Wilmer'
_symmetry_space_group_name_H-M	'P1'
_symmetry_Int_Tables_number	1
_symmetry_cell_setting	triclinic
loop_
_symmetry_equiv_pos_as_xyz
  x,y,z
_cell_length_a	16.974897
_cell_length_b	14.519709
_cell_length_c	12.996460
_cell_angle_alpha	89.992910
_cell_angle_beta	86.342839
_cell_angle_gamma	83.540278
loop_
_atom_site_label
_atom_site_type_symbol
_atom_site_fract_x
_atom_site_fract_y
_atom_site_fract_z
O1	O	1.049302	0.117611	-0.172855
O2	O	1.549302	0.617611	0.327145
O3	O	0.819120	0.132568	-0.153710
O4	O	1.319120	0.632568	0.346290
O5	O	0.940314	-0.009168	-0.163781
O6	O	1.440314	0.490832	0.336219
O7	O	0.928108	0.259347	-0.162784
O8	O	1.428108	0.759347	0.337216
O9	O	0.940301	-0.009176	0.007354
O10	O	1.440301	0.490824	0.507354
O11	O	0.819107	0.132560	0.017425
O12	O	1.319107	0.632560	0.517425
O13	O	1.049290	0.117604	-0.001720
O14	O	1.549290	0.617604	0.498280
Cu15	Cu	0.934197	0.125081	0.023478
Cu16	Cu	1.434197	0.625081	0.523478
Cu17	Cu	0.934212	0.125090	-0.178908
Cu18	Cu	1.434212	0.625090	0.321092
O19	O	0.928095	0.259339	0.008351
O20	O	1.428095	0.759339	0.508351
C21	C	0.789654	0.131992	-0.065692
C22	C	1.289654	0.631992	0.434308
C23	C	0.701876	0.130279	-0.058391
C24	C	1.201876	0.630279	0.441609
C25	C	0.660638	0.129480	-0.148239
C26	C	1.160638	0.629480	0.351761
C27	C	0.578159	0.127885	-0.141363
C28	C	1.078159	0.627885	0.358637
C29	C	0.536922	0.127081	-0.044639
C30	C	1.036922	0.627081	0.455361
C31	C	0.578166	0.127883	0.045216
C32	C	1.078166	0.627883	0.545216
C33	C	0.660642	0.129485	0.038339
C34	C	1.160642	0.629485	0.538339
C35	C	0.290253	0.122296	-0.014070
C36	C	0.790253	0.622296	0.485930
C37	C	0.207772	0.120691	-0.007200
C38	C	0.707772	0.620691	0.492800
C39	C	0.207770	0.120695	-0.193780
C40	C	0.707770	0.620695	0.306220
C41	C	0.290249	0.122291	-0.200648
C42	C	0.790249	0.622291	0.299352
C43	C	0.331485	0.123098	-0.110793
C44	C	0.831485	0.623098	0.389207
N45	N	0.452616	0.125448	-0.037609
N46	N	0.952616	0.625448	0.462391
N47	N	0.415789	0.124738	-0.117824
N48	N	0.915789	0.624738	0.382176
C49	C	0.939739	-0.043530	-0.078166
C50	C	1.439739	0.456470	0.421834
C51	C	0.938034	-0.145906	-0.078024
C52	C	1.438034	0.354094	0.421976
C53	C	0.931759	-0.520782	-0.077528
C54	C	1.431759	-0.020782	0.422472
C55	C	0.933501	-0.416480	-0.077665
C56	C	1.433501	0.083520	0.422335
C57	C	0.934896	-0.333347	-0.077775
C58	C	1.434896	0.166653	0.422225
C59	C	0.936639	-0.229038	-0.077914
C60	C	1.436639	0.270962	0.422086
C61	C	1.078755	0.118179	-0.089740
C62	C	1.578755	0.618179	0.410260
C63	C	1.166533	0.119892	-0.097048
C64	C	1.666533	0.619892	0.402952
C65	C	0.928671	0.293701	-0.077266
C66	C	1.428671	0.793701	0.422734
C67	C	0.930375	0.396077	-0.077416
C68	C	1.430375	0.896077	0.422584
N69	N	0.934192	0.125074	0.165826
N70	N	1.434192	0.625074	0.665826
N71	N	0.934223	0.125090	-0.321256
N72	N	1.434223	0.625090	0.178744
C73	C	0.934211	0.125091	0.585639
C74	C	1.434211	0.625091	1.085639
C75	C	0.934204	0.125090	0.468834
C76	C	1.434204	0.625090	0.968834
C77	C	0.934202	0.125083	0.375736
C78	C	1.434202	0.625083	0.875736
C79	C	0.934194	0.125080	0.258924
C80	C	1.434194	0.625080	0.758924
H81	H	0.544583	0.127234	0.123971
H82	H	1.044583	0.627234	0.623971
H83	H	0.694217	0.130139	0.111503
H84	H	1.194217	0.630139	0.611503
H85	H	0.323819	0.122946	0.059096
H86	H	0.823819	0.622946	0.559096
H87	H	0.174196	0.120063	0.071568
H88	H	0.674196	0.620063	0.571568
H89	H	0.544586	0.127235	-0.214527
H90	H	1.044586	0.627235	0.285473
O91	O	0.700565	0.130302	-0.242280
O92	O	1.200565	0.630302	0.257720
C93	C	0.691854	0.130096	-0.426614
C94	C	1.191854	0.630096	0.073386
C95	C	0.646539	0.129179	-0.320177
C96	C	1.146539	0.629179	0.179823
H97	H	0.648196	0.129168	-0.489623
H98	H	1.148196	0.629168	0.010377
H99	H	0.723302	0.195370	-0.433974
H100	H	1.223302	0.695370	0.066026
H101	H	0.737628	0.066354	-0.435038
H102	H	1.237628	0.566354	0.064962
H103	H	0.600728	0.192875	-0.311681
H104	H	1.100728	0.692875	0.188319
H105	H	0.615145	0.063863	-0.312865
H106	H	1.115145	0.563863	0.187135
H107	H	0.323820	0.122939	-0.279411
H108	H	0.823820	0.622939	0.220589
H109	H	0.174187	0.120041	-0.266935
H110	H	0.674187	0.620041	0.233065
