data_functionalizedCrystal
_audit_creation_method	'MofGen! by Chris Wilmer'
_symmetry_space_group_name_H-M	'P1'
_symmetry_Int_Tables_number	1
_symmetry_cell_setting	triclinic
loop_
_symmetry_equiv_pos_as_xyz
  x,y,z
_cell_length_a	14.908932
_cell_length_b	13.032831
_cell_length_c	13.032268
_cell_angle_alpha	89.113023
_cell_angle_beta	93.462862
_cell_angle_gamma	94.320893
loop_
_atom_site_label
_atom_site_type_symbol
_atom_site_fract_x
_atom_site_fract_y
_atom_site_fract_z
Zn1	Zn	0.600623	1.464145	0.736413
Zn2	Zn	0.733131	1.478312	0.554632
Zn3	Zn	0.563470	1.316127	0.545401
Zn4	Zn	0.728322	1.284835	0.705113
O5	O	0.656386	1.385855	0.635390
O6	O	0.635761	1.608941	0.729261
O7	O	0.697089	1.475823	0.410492
O8	O	0.443952	1.342928	0.579975
O9	O	0.733114	1.619350	0.595708
O10	O	0.471248	1.451676	0.720310
O11	O	0.572440	1.356666	0.403710
O12	O	0.567777	1.169059	0.549625
O13	O	0.724919	1.289596	0.852181
O14	O	0.688893	1.146069	0.666965
O15	O	0.631099	1.421334	0.875176
O16	O	0.856939	1.445481	0.565358
O17	O	0.853406	1.303334	0.675916
C18	C	0.623782	1.120508	0.603898
C19	C	0.609858	1.006986	0.590448
C20	C	0.424431	1.399213	0.652605
C21	C	0.325585	1.404905	0.659940
C22	C	0.663654	0.945035	0.642409
C23	C	0.649264	0.827705	0.628510
C24	C	0.111416	1.302338	0.527594
C25	C	0.018541	1.307683	0.534483
C26	C	0.046958	1.420935	0.680611
C27	C	0.139833	1.415589	0.673722
C28	C	0.172058	1.356290	0.597210
C29	C	0.264935	1.350951	0.590317
C30	C	0.293350	1.464196	0.736449
C31	C	0.200475	1.469541	0.743338
C32	C	0.887445	1.372574	0.618268
C33	C	0.986308	1.366981	0.610988
C34	C	0.681617	1.350394	0.901771
C35	C	0.692368	1.335283	1.015287
C36	C	0.689118	1.652238	0.667006
C37	C	0.703067	1.765755	0.680478
C38	C	0.631198	1.421240	0.370057
C39	C	0.620220	1.436563	0.256584
C40	C	0.650741	1.393727	1.077273
C41	C	0.661852	1.378111	1.194598
H42	H	0.720361	0.978859	0.697190
O43	O	0.770622	0.806200	0.745909
C44	C	0.810509	0.907701	0.897100
C45	C	0.733921	0.861980	0.823067
H46	H	0.780863	0.952792	0.959513
H47	H	0.858581	0.961297	0.852628
H48	H	0.848785	0.842791	0.934008
H49	H	0.695577	0.926822	0.786139
H50	H	0.685911	0.808358	0.867591
O51	O	0.744701	1.261875	1.055759
C52	C	0.803423	1.179313	1.209591
C53	C	0.744142	1.262500	1.163898
H54	H	0.802975	1.179777	1.297026
H55	H	0.875395	1.195878	1.185557
H56	H	0.775731	1.100641	1.180000
H57	H	0.771753	1.341205	1.193465
H58	H	0.672179	1.245846	1.187925
H59	H	-0.030833	1.263749	0.477796
H60	H	0.592546	0.793885	0.573734
H61	H	0.137654	1.254061	0.465290
O62	O	0.542277	0.966479	0.525094
C63	C	0.466270	0.812600	0.451716
C64	C	0.542849	0.858335	0.525753
H65	H	0.466695	0.725159	0.452241
H66	H	0.476522	0.843507	0.370618
H67	H	0.398851	0.835284	0.477536
H68	H	0.610301	0.835669	0.500028
H69	H	0.532517	0.827430	0.606835
O70	O	0.015494	1.478517	0.754841
C71	C	-0.115000	1.536875	0.830253
C72	C	-0.079489	1.471644	0.746124
H73	H	-0.191798	1.531322	0.823248
H74	H	-0.088393	1.620592	0.820742
H75	H	-0.091089	1.506942	0.909109
H76	H	-0.103387	1.501486	0.667231
H77	H	-0.106090	1.387936	0.755726
H78	H	0.606873	1.455322	1.043483
O79	O	0.296090	1.293265	0.515966
C80	C	0.258098	1.181540	0.371723
C81	C	0.222698	1.246817	0.455890
H82	H	0.198779	1.143987	0.323116
H83	H	0.299422	1.119337	0.408999
H84	H	0.302312	1.233038	0.320698
H85	H	0.178446	1.195402	0.506942
H86	H	0.181423	1.309028	0.418547
H87	H	0.174226	1.517819	0.805635
O88	O	0.714189	1.304698	1.235065
C89	C	0.772910	1.222137	1.388897
C90	C	0.713630	1.305324	1.343205
H91	H	0.772462	1.222600	1.476333
H92	H	0.844882	1.238702	1.364863
H93	H	0.745219	1.143465	1.359307
H94	H	0.741241	1.384028	1.372772
H95	H	0.641666	1.288669	1.367232
H96	H	0.342736	1.508131	0.793133
O97	O	0.567932	1.510023	1.216121
C98	C	0.509084	1.592470	1.062286
C99	C	0.568353	1.509270	1.107974
H100	H	0.509390	1.591875	0.974843
H101	H	0.536763	1.671202	1.091731
H102	H	0.437163	1.575877	1.086469
H103	H	0.640288	1.525765	1.083810
H104	H	0.540600	1.430564	1.078532
