data_functionalizedCrystal
_audit_creation_method	'MofGen! by Chris Wilmer'
_symmetry_space_group_name_H-M	'P1'
_symmetry_Int_Tables_number	1
_symmetry_cell_setting	triclinic
loop_
_symmetry_equiv_pos_as_xyz
  x,y,z
_cell_length_a	19.188930
_cell_length_b	11.792241
_cell_length_c	18.266242
_cell_angle_alpha	89.997832
_cell_angle_beta	90.006796
_cell_angle_gamma	96.330901
loop_
_atom_site_label
_atom_site_type_symbol
_atom_site_fract_x
_atom_site_fract_y
_atom_site_fract_z
O1	O	0.095691	-1.505480	0.060819
O2	O	0.595691	-1.005480	0.560819
O3	O	0.105554	-1.174991	0.060837
O4	O	0.605554	-0.674991	0.560837
O5	O	-0.000979	-1.349773	0.060813
O6	O	0.499021	-0.849773	0.560813
O7	O	0.202224	-1.330699	0.060843
O8	O	0.702224	-0.830699	0.560843
O9	O	-0.000976	-1.349751	-0.060949
O10	O	0.499024	-0.849751	0.439051
O11	O	0.105557	-1.174969	-0.060925
O12	O	0.605557	-0.674969	0.439075
O13	O	0.095695	-1.505458	-0.060943
O14	O	0.595695	-1.005458	0.439057
Zn15	Zn	0.100626	-1.340210	-0.080266
Zn16	Zn	0.600626	-0.840210	0.419734
Zn17	Zn	0.100622	-1.340239	0.080160
Zn18	Zn	0.600622	-0.840239	0.580160
O19	O	0.202227	-1.330676	-0.060919
O20	O	0.702227	-0.830676	0.439081
C21	C	0.104936	-1.132699	-0.000042
C22	C	0.604936	-0.632699	0.499958
C23	C	0.103082	-1.006713	-0.000036
C24	C	0.603082	-0.506713	0.499964
C25	C	-0.026992	-1.349144	-0.000070
C26	C	0.473008	-0.849144	0.499930
C27	C	-0.104507	-1.347290	-0.000076
C28	C	0.395493	-0.847290	0.499924
C29	C	0.096313	-1.547751	-0.000063
C30	C	0.596313	-1.047751	0.499937
C31	C	0.098167	-1.673737	-0.000064
C32	C	0.598167	-1.173737	0.499936
C33	C	-0.148850	-1.449846	-0.000085
C34	C	0.351150	-0.949846	0.499915
C35	C	-0.221684	-1.448104	-0.000073
C36	C	0.278316	-0.948104	0.499927
C37	C	-0.250171	-1.343800	-0.000067
C38	C	0.249829	-0.843800	0.499933
C39	C	-0.205818	-1.241230	-0.000054
C40	C	0.294182	-0.741230	0.499946
C41	C	-0.132986	-1.242975	-0.000059
C42	C	0.367014	-0.742975	0.499941
N43	N	-0.358626	-1.264064	-0.041501
N44	N	0.141374	-0.764064	0.458499
N45	N	-0.427814	-1.262414	-0.041498
N46	N	0.072186	-0.762414	0.458502
C47	C	-0.469609	-1.338536	-0.000052
C48	C	0.030391	-0.838536	0.499948
N49	N	-0.439604	-1.416389	0.041382
N50	N	0.060396	-0.916389	0.541382
N51	N	-0.370410	-1.418043	0.041376
N52	N	0.129590	-0.918043	0.541376
C53	C	-0.329144	-1.341896	-0.000062
C54	C	0.170856	-0.841896	0.499938
C55	C	-0.592928	-1.439211	-0.000047
C56	C	-0.092928	-0.939211	0.499953
C57	C	-0.665762	-1.437464	-0.000031
C58	C	-0.165762	-0.937464	0.499969
C59	C	-0.649895	-1.230588	-0.000019
C60	C	-0.149895	-0.730588	0.499981
C61	C	-0.577062	-1.232337	-0.000028
C62	C	-0.077062	-0.732337	0.499972
C63	C	-0.548583	-1.336652	-0.000046
C64	C	-0.048583	-0.836652	0.499954
C65	C	0.228240	-1.331305	-0.000035
C66	C	0.728240	-0.831305	0.499965
C67	C	0.305755	-1.333159	-0.000024
C68	C	0.805755	-0.833159	0.499976
N69	N	0.100629	-1.340198	-0.189753
N70	N	0.600629	-0.840198	0.310247
C71	C	0.099672	-0.776051	-0.000057
C72	C	0.599672	-0.276051	0.499943
C73	C	0.101566	-0.904408	-0.000046
C74	C	0.601566	-0.404408	0.499954
C75	C	0.143238	-1.408881	-0.772027
C76	C	0.643238	-0.908881	-0.272027
C77	C	0.143245	-1.408869	-0.695382
C78	C	0.643245	-0.908869	-0.195382
C79	C	0.100615	-1.340250	-0.657066
C80	C	0.600615	-0.840250	-0.157066
C81	C	0.057988	-1.271616	-0.695401
C82	C	0.557988	-0.771616	-0.195401
C83	C	0.057987	-1.271621	-0.772044
C84	C	0.557987	-0.771621	-0.272044
N85	N	0.039439	-1.337501	-0.536736
N86	N	0.539439	-0.837501	-0.036736
N87	N	0.039441	-1.337502	-0.463928
N88	N	0.539441	-0.837502	0.036072
C89	C	0.100615	-1.340228	-0.426144
C90	C	0.600615	-0.840228	0.073856
N91	N	0.161787	-1.342974	-0.463917
N92	N	0.661787	-0.842974	0.036083
N93	N	0.161784	-1.342979	-0.536732
N94	N	0.661784	-0.842979	-0.036732
C95	C	0.100611	-1.340236	-0.573959
C96	C	0.600611	-0.840236	-0.073959
C97	C	0.143250	-1.408839	-0.304711
C98	C	0.643250	-0.908839	0.195289
C99	C	0.143259	-1.408819	-0.228065
C100	C	0.643259	-0.908819	0.271935
C101	C	0.057995	-1.271572	-0.228084
C102	C	0.557995	-0.771572	0.271916
C103	C	0.057993	-1.271586	-0.304729
C104	C	0.557993	-0.771586	0.195271
C105	C	0.100620	-1.340225	-0.343038
C106	C	0.600620	-0.840225	0.156962
N107	N	0.100614	-1.340260	0.189647
N108	N	0.600614	-0.840260	0.689647
H109	H	-0.125667	-1.534787	-0.000097
H110	H	0.374333	-1.034787	0.499903
Br111	Br	0.000146	-1.178432	-0.176092
Br112	Br	0.500146	-0.678432	0.323908
H113	H	0.177963	-1.464724	-0.335903
H114	H	0.677963	-0.964724	0.164097
Br115	Br	0.201131	-1.501924	-0.176049
Br116	Br	0.701131	-1.001924	0.323951
Br117	Br	0.201086	-1.502020	-0.643357
Br118	Br	0.701086	-1.002020	-0.143357
H119	H	0.023281	-1.215713	-0.335934
H120	H	0.523281	-0.715713	0.164066
H121	H	-0.229017	-1.156305	-0.000047
H122	H	0.270983	-0.656305	0.499953
Br123	Br	-0.281875	-1.587297	-0.000083
Br124	Br	0.218125	-1.087297	0.499917
H125	H	0.023280	-1.215743	-0.664199
H126	H	0.523280	-0.715743	-0.164199
Br127	Br	0.000137	-1.178484	-0.824061
Br128	Br	0.500137	-0.678484	-0.324061
H129	H	-0.096881	-1.159459	-0.000051
H130	H	0.403119	-0.659459	0.499949
Br131	Br	-0.554273	-1.580776	-0.000079
Br132	Br	-0.054273	-1.080776	0.499921
H133	H	-0.701866	-1.520981	-0.000034
H134	H	-0.201866	-1.020981	0.499966
H135	H	-0.673089	-1.145661	-0.000010
H136	H	-0.173089	-0.645661	0.499990
Br137	Br	-0.516878	-1.093146	-0.000016
Br138	Br	-0.016878	-0.593146	0.499984
H139	H	0.177949	-1.464770	-0.803213
H140	H	0.677949	-0.964770	-0.303213
