data_functionalizedCrystal
_audit_creation_method	'MofGen! by Chris Wilmer'
_symmetry_space_group_name_H-M	'P1'
_symmetry_Int_Tables_number	1
_symmetry_cell_setting	triclinic
loop_
_symmetry_equiv_pos_as_xyz
  x,y,z
_cell_length_a	16.109302
_cell_length_b	15.944493
_cell_length_c	14.586319
_cell_angle_alpha	90.002083
_cell_angle_beta	89.994552
_cell_angle_gamma	83.468412
loop_
_atom_site_label
_atom_site_type_symbol
_atom_site_fract_x
_atom_site_fract_y
_atom_site_fract_z
O1	O	1.103143	0.107972	-0.076269
O2	O	0.861083	0.121408	-0.076261
O3	O	0.988748	-0.007590	-0.076273
O4	O	0.975478	0.236970	-0.076257
O5	O	0.988739	-0.007592	0.076208
O6	O	0.861074	0.121406	0.076220
O7	O	1.103134	0.107970	0.076211
Cu8	Cu	0.982103	0.114688	0.090138
Cu9	Cu	0.982114	0.114690	-0.090188
O10	O	0.975469	0.236969	0.076224
C11	C	0.830103	0.120863	-0.000019
C12	C	0.737808	0.119231	-0.000017
C13	C	0.525462	0.115456	0.083091
C14	C	0.438742	0.113914	0.083088
C15	C	0.438762	0.113920	-0.083155
C16	C	0.525481	0.115456	-0.083151
C17	C	0.568828	0.116229	-0.000025
C18	C	0.395389	0.113150	-0.000032
C19	C	0.301363	0.111477	-0.000037
C20	C	0.662861	0.117900	-0.000020
C21	C	0.988201	-0.038886	-0.000036
C22	C	0.986575	-0.132134	-0.000048
C23	C	1.061722	-0.367918	-0.000033
C24	C	1.021203	-0.418472	-0.075212
C25	C	0.983562	-0.302854	-0.000037
C26	C	1.021176	-0.418450	0.075122
C27	C	0.980658	-0.467763	-0.000022
C28	C	0.943064	-0.352179	-0.075278
C29	C	0.943048	-0.352154	0.075124
C30	C	0.902472	-0.402675	-0.000074
C31	C	0.985238	-0.207855	-0.000046
C32	C	0.978976	-0.562759	-0.000019
C33	C	1.134114	0.108516	-0.000032
C34	C	1.226409	0.110148	-0.000041
C35	C	0.976016	0.268264	-0.000015
C36	C	0.977642	0.361512	-0.000009
N37	N	0.982102	0.114686	0.216970
N38	N	0.982122	0.114686	-0.217019
C39	C	1.038651	0.057585	0.451971
C40	C	1.038653	0.057583	0.547952
C41	C	0.925567	0.171790	0.547973
C42	C	0.925561	0.171787	0.451993
C43	C	0.982108	0.114686	0.403995
C44	C	0.982116	0.114686	0.595956
C45	C	0.982118	0.114684	0.700023
C46	C	0.982105	0.114686	0.299921
H47	H	0.403458	0.113292	-0.150833
O48	O	1.099625	-0.004023	0.400211
H49	H	1.064620	-0.044852	0.356494
H50	H	0.879529	0.218282	0.587063
O51	O	1.099649	-0.003994	0.599702
H52	H	1.138972	-0.043691	0.550198
H53	H	0.910078	-0.323348	-0.138904
H54	H	0.560791	0.116083	-0.150838
O55	O	0.864572	0.233373	0.400231
H56	H	0.875155	0.298862	0.418636
O57	O	0.572219	0.116291	0.172743
H58	H	0.527491	0.115490	0.230538
O59	O	0.391941	0.113311	0.172738
H60	H	0.324347	0.112187	0.158774
O61	O	1.150893	-0.347225	-0.000134
H62	H	1.183153	-0.373910	-0.062642
O63	O	1.064926	-0.456848	-0.159399
H64	H	1.130983	-0.443241	-0.159247
H65	H	0.835094	-0.418119	-0.000112
H66	H	0.910065	-0.323183	0.138688
O67	O	1.064902	-0.456779	0.159317
H68	H	1.130952	-0.443148	0.159149
