data_functionalizedCrystal
_audit_creation_method	'MofGen! by Chris Wilmer'
_symmetry_space_group_name_H-M	'P1'
_symmetry_Int_Tables_number	1
_symmetry_cell_setting	triclinic
loop_
_symmetry_equiv_pos_as_xyz
  x,y,z
_cell_length_a	19.805407
_cell_length_b	18.101396
_cell_length_c	19.805399
_cell_angle_alpha	90.024487
_cell_angle_beta	89.982197
_cell_angle_gamma	89.965660
loop_
_atom_site_label
_atom_site_type_symbol
_atom_site_fract_x
_atom_site_fract_y
_atom_site_fract_z
Zn1	Zn	1.034686	0.294900	-0.382702
Zn2	Zn	1.534686	0.794900	0.117298
Zn3	Zn	1.034580	0.418743	-0.269520
Zn4	Zn	1.534580	0.918743	0.230480
Zn5	Zn	0.921500	0.294914	-0.269530
Zn6	Zn	1.421500	0.794914	0.230470
Zn7	Zn	0.921443	0.418698	-0.382670
Zn8	Zn	1.421443	0.918698	0.117330
O9	O	0.978052	0.356814	-0.326106
O10	O	1.478052	0.856814	0.173894
O11	O	1.129388	0.311341	-0.367697
O12	O	1.629388	0.811341	0.132303
O13	O	1.019559	0.402342	-0.174805
O14	O	1.519559	0.902342	0.325195
O15	O	0.936583	0.191280	-0.284560
O16	O	1.436583	0.691280	0.215440
O17	O	1.129310	0.402328	-0.284543
O18	O	1.629310	0.902328	0.215457
O19	O	1.019740	0.191269	-0.367707
O20	O	1.519740	0.691269	0.132293
O21	O	0.936480	0.311366	-0.174812
O22	O	1.436480	0.811366	0.325188
O23	O	0.826776	0.311322	-0.284529
O24	O	1.326776	0.811322	0.215471
O25	O	0.936485	0.402251	-0.477391
O26	O	1.436485	0.902251	0.022609
O27	O	0.826734	0.402265	-0.367653
O28	O	1.326734	0.902265	0.132347
O29	O	1.019684	0.311297	-0.477415
O30	O	1.519684	0.811297	0.022585
O31	O	1.019503	0.522370	-0.284512
O32	O	1.519503	1.022370	0.215488
O33	O	0.936382	0.522337	-0.367643
O34	O	1.436382	1.022337	0.132357
C35	C	0.802196	0.356791	-0.326089
C36	C	1.302196	0.856791	0.173911
C37	C	0.726964	0.356799	-0.326098
C38	C	1.226964	0.856799	0.173902
C39	C	0.977943	0.549225	-0.326088
C40	C	1.477943	1.049225	0.173912
C41	C	0.977959	0.631539	-0.326103
C42	C	1.477959	1.131539	0.173897
C43	C	0.691661	0.309505	-0.369463
C44	C	1.191661	0.809505	0.130537
C45	C	0.620973	0.309509	-0.369465
C46	C	1.120973	0.809509	0.130535
C47	C	0.585589	0.356811	-0.326106
C48	C	1.085589	0.856811	0.173894
C49	C	0.620896	0.404106	-0.282737
C50	C	1.120896	0.904106	0.217263
C51	C	0.691584	0.404098	-0.282732
C52	C	1.191584	0.904098	0.217268
C53	C	0.335823	0.404139	-0.282758
C54	C	0.835823	0.904139	0.217242
C55	C	0.265131	0.404146	-0.282768
C56	C	0.765131	0.904146	0.217232
C57	C	0.265212	0.309551	-0.369492
C58	C	0.765212	0.809551	0.130508
C59	C	0.335899	0.309543	-0.369486
C60	C	0.835899	0.809543	0.130514
C61	C	0.371201	0.356835	-0.326115
C62	C	0.871201	0.856835	0.173885
C63	C	0.447850	0.356829	-0.326111
C64	C	0.947850	0.856829	0.173889
C65	C	0.508941	0.356821	-0.326113
C66	C	1.008941	0.856821	0.173887
C67	C	0.978079	0.930630	-0.326142
C68	C	1.478079	1.430630	0.173858
C69	C	0.925906	0.899314	-0.378575
C70	C	1.425906	1.399314	0.121425
C71	C	0.925666	0.813696	-0.378411
C72	C	1.425666	1.313696	0.121589
C73	C	0.978019	0.782247	-0.326123
C74	C	1.478019	1.282247	0.173877
C75	C	0.958706	0.813394	-0.254789
C76	C	1.458706	1.313394	0.245211
C77	C	0.958361	0.899040	-0.255104
C78	C	1.458361	1.399040	0.244896
C79	C	1.049683	0.898978	-0.344414
C80	C	1.549683	1.398978	0.155586
C81	C	1.049270	0.813327	-0.345978
C82	C	1.549270	1.313327	0.154022
C83	C	0.977987	0.698388	-0.326108
C84	C	1.477987	1.198388	0.173892
C85	C	0.978110	1.014489	-0.326152
C86	C	1.478110	1.514489	0.173848
C87	C	1.154595	0.356838	-0.326123
C88	C	1.654595	0.856838	0.173877
C89	C	1.229827	0.356848	-0.326130
C90	C	1.729827	0.856848	0.173870
C91	C	0.978090	0.356767	-0.502648
C92	C	1.478090	0.856767	-0.002648
C93	C	0.978106	0.356747	-0.577881
C94	C	1.478106	0.856747	-0.077881
C95	C	0.978156	1.163652	-0.326141
C96	C	1.478156	1.663652	0.173859
C97	C	0.978140	1.081338	-0.326163
C98	C	1.478140	1.581338	0.173837
C99	C	1.021429	0.309385	-0.613238
C100	C	1.521429	0.809385	-0.113238
C101	C	1.021436	0.309364	-0.683926
C102	C	1.521436	0.809364	-0.183926
C103	C	0.978123	0.356709	-0.719256
C104	C	1.478123	0.856709	-0.219256
C105	C	0.934796	0.404073	-0.683894
C106	C	1.434796	0.904073	-0.183894
C107	C	0.934786	0.404090	-0.613207
C108	C	1.434786	0.904090	-0.113207
C109	C	0.934834	0.404004	-0.968967
C110	C	1.434834	0.904004	-0.468967
C111	C	0.934849	0.403985	-1.039659
C112	C	1.434849	0.903985	-0.539659
C113	C	1.021484	0.309278	-1.039687
C114	C	1.521484	0.809278	-0.539687
C115	C	1.021474	0.309295	-0.969000
C116	C	1.521474	0.809295	-0.469000
C117	C	0.978145	0.356656	-0.933644
C118	C	1.478145	0.856656	-0.433644
C119	C	0.978137	0.356678	-0.856995
C120	C	1.478137	0.856678	-0.356995
C121	C	0.978134	0.356691	-0.795903
C122	C	1.478134	0.856691	-0.295903
C123	C	0.978053	0.356807	-0.150250
C124	C	1.478053	0.856807	0.349750
C125	C	0.978168	0.356618	-0.075018
C126	C	1.478168	0.856618	0.424982
H127	H	0.720466	0.270989	-0.404772
H128	H	1.220466	0.770989	0.095228
C129	C	0.887652	0.926116	-0.234201
C130	C	1.387652	1.426116	0.265799
H131	H	0.859407	0.884772	-0.225601
H132	H	1.359407	1.384772	0.274399
H133	H	0.891114	0.955367	-0.194522
H134	H	1.391114	1.455367	0.305478
H135	H	0.868806	0.954901	-0.269597
H136	H	1.368806	1.454901	0.230403
C137	C	1.102181	0.926260	-0.292780
C138	C	1.602181	1.426260	0.207220
H139	H	1.080606	0.956801	-0.260249
H140	H	1.580606	1.456801	0.239751
H141	H	1.122137	0.885028	-0.270825
H142	H	1.622137	1.385028	0.229175
H143	H	1.136176	0.953777	-0.315400
H144	H	1.636176	1.453777	0.184600
C145	C	0.941996	0.927166	-0.450247
C146	C	1.441996	1.427166	0.049753
H147	H	0.980681	0.958136	-0.448840
H148	H	1.480681	1.458136	0.051160
H149	H	0.950617	0.886216	-0.479002
H150	H	1.450617	1.386216	0.020998
H151	H	0.904600	0.954374	-0.467109
H152	H	1.404600	1.454374	0.032891
C153	C	0.854641	0.928461	-0.362430
C154	C	1.354641	1.428461	0.137570
H155	H	0.856544	0.959630	-0.323873
H156	H	1.356544	1.459630	0.176127
H157	H	0.838008	0.955706	-0.399888
H158	H	1.338008	1.455706	0.100112
H159	H	0.825405	0.888024	-0.353554
H160	H	1.325405	1.388024	0.146446
C161	C	1.069116	0.257213	-0.930141
C162	C	1.569116	0.757213	-0.430141
H163	H	1.094914	0.228997	-0.961323
H164	H	1.594914	0.728997	-0.461323
H165	H	1.098584	0.285549	-0.902563
H166	H	1.598584	0.785549	-0.402563
H167	H	1.043234	0.224948	-0.902570
H168	H	1.543234	0.724948	-0.402570
C169	C	0.374819	0.257509	-0.417178
C170	C	0.874819	0.757509	0.082822
H171	H	0.343669	0.229337	-0.443001
H172	H	0.843669	0.729337	0.056999
H173	H	0.402395	0.285874	-0.446622
H174	H	0.902395	0.785874	0.053378
H175	H	0.402396	0.225200	-0.391328
H176	H	0.902396	0.725200	0.108672
C177	C	1.069142	0.257175	-1.078581
C178	C	1.569142	0.757175	-0.578581
H179	H	1.062942	0.263938	-1.125739
H180	H	1.562942	0.763938	-0.625739
H181	H	1.114609	0.268025	-1.067001
H182	H	1.614609	0.768025	-0.567001
H183	H	1.059266	0.207416	-1.067001
H184	H	1.559266	0.707416	-0.567001
H185	H	0.720326	0.442609	-0.247420
H186	H	1.220326	0.942609	0.252580
H187	H	0.872595	0.793270	-0.366307
H188	H	1.372595	1.293270	0.133693
H189	H	0.906922	0.792006	-0.239033
H190	H	1.406922	1.292006	0.260967
H191	H	0.899575	0.442540	-1.068423
H192	H	1.399575	0.942540	-0.568423
H193	H	0.899527	0.442619	-0.712665
H194	H	1.399527	0.942619	-0.212665
C195	C	0.887160	0.456084	-0.930084
C196	C	1.387160	0.956084	-0.430084
H197	H	0.861367	0.484276	-0.961251
H198	H	1.361367	0.984276	-0.461251
H199	H	0.857687	0.427741	-0.902520
H200	H	1.357687	0.927741	-0.402520
H201	H	0.913011	0.488372	-0.902498
H202	H	1.413011	0.988372	-0.402498
H203	H	0.899501	0.442650	-0.584419
H204	H	1.399501	0.942650	-0.084419
C205	C	1.069094	0.257269	-0.722817
C206	C	1.569094	0.757269	-0.222817
H207	H	1.094894	0.229082	-0.691652
H208	H	1.594894	0.729082	-0.191652
H209	H	1.043232	0.224988	-0.750393
H210	H	1.543232	0.724988	-0.250393
H211	H	1.098571	0.285602	-0.750391
H212	H	1.598571	0.785602	-0.250391
H213	H	0.592232	0.271000	-0.404778
H214	H	1.092232	0.771000	0.095222
H215	H	0.236323	0.442666	-0.247458
H216	H	0.736323	0.942666	0.252542
C217	C	0.226379	0.257522	-0.417194
C218	C	0.726379	0.757522	0.082806
H219	H	0.179212	0.264293	-0.410984
H220	H	0.679212	0.764293	0.089016
H221	H	0.237976	0.268425	-0.462652
H222	H	0.737976	0.768425	0.037348
H223	H	0.237985	0.207746	-0.407362
H224	H	0.737985	0.707746	0.092638
H225	H	0.364557	0.442648	-0.247443
H226	H	0.864557	0.942648	0.252557
H227	H	1.056702	0.270834	-0.584478
H228	H	1.556702	0.770834	-0.084478
H229	H	0.592081	0.442616	-0.247431
H230	H	1.092081	0.942616	0.252569
H231	H	1.063835	0.792967	-0.398476
H232	H	1.563835	1.292967	0.101524
C233	C	0.941966	0.785240	-0.449868
C234	C	1.441966	1.285240	0.050132
H235	H	0.948793	0.826023	-0.479260
H236	H	1.448793	1.326023	0.020740
H237	H	0.981747	0.755938	-0.448492
H238	H	1.481747	1.255938	0.051508
H239	H	0.905395	0.756215	-0.465946
H240	H	1.405395	1.256215	0.034054
H241	H	0.994714	0.919757	-0.214705
H242	H	1.494714	1.419757	0.285295
C243	C	1.008424	0.785874	-0.200570
C244	C	1.508424	1.285874	0.299430
H245	H	1.041480	0.755067	-0.221004
H246	H	1.541480	1.255067	0.278996
H247	H	1.029940	0.826985	-0.179950
H248	H	1.529940	1.326985	0.320050
H249	H	0.984524	0.758576	-0.167311
H250	H	1.484524	1.258576	0.332689
C251	C	1.073465	0.928085	-0.413488
C252	C	1.573465	1.428085	0.086512
H253	H	1.039942	0.959815	-0.431831
H254	H	1.539942	1.459815	0.068169
H255	H	1.114411	0.954721	-0.408009
H256	H	1.614411	1.454721	0.091991
H257	H	1.080696	0.887669	-0.443245
H258	H	1.580696	1.387669	0.056755
H259	H	1.090203	0.791915	-0.310571
H260	H	1.590203	1.291915	0.189429
