data_functionalizedCrystal
_audit_creation_method	'MofGen! by Chris Wilmer'
_symmetry_space_group_name_H-M	'P1'
_symmetry_Int_Tables_number	1
_symmetry_cell_setting	triclinic
loop_
_symmetry_equiv_pos_as_xyz
  x,y,z
_cell_length_a	15.995350
_cell_length_b	10.540539
_cell_length_c	9.616153
_cell_angle_alpha	90.000094
_cell_angle_beta	90.003218
_cell_angle_gamma	84.008933
loop_
_atom_site_label
_atom_site_type_symbol
_atom_site_fract_x
_atom_site_fract_y
_atom_site_fract_z
O1	O	-1.111967	-0.163613	-0.115521
O2	O	-0.868313	-0.183817	-0.115549
O3	O	-0.995699	0.011068	-0.115533
O4	O	-0.984581	-0.358498	-0.115537
O5	O	-0.995681	0.011064	0.115759
O6	O	-0.868295	-0.183822	0.115742
O7	O	-1.111950	-0.163617	0.115770
Zn8	Zn	-0.990120	-0.173720	0.152479
Zn9	Zn	-0.990143	-0.173714	-0.152258
O10	O	-0.984563	-0.358502	0.115754
C11	C	-0.994856	0.058357	0.000110
C12	C	-0.992362	0.199271	0.000103
C13	C	-0.837104	-0.182984	0.000093
C14	C	-0.744139	-0.180480	0.000082
C15	C	-1.143158	-0.164450	0.000125
C16	C	-1.236123	-0.166954	0.000127
C17	C	-0.406337	-0.171487	0.000111
C18	C	-0.452942	-0.032693	0.000629
C19	C	-0.549647	-0.035198	0.000098
C20	C	-0.573925	-0.175948	0.000098
C21	C	-0.533257	-0.244403	-0.131976
C22	C	-0.436600	-0.240916	-0.132077
C23	C	-0.436259	-0.243789	0.130944
C24	C	-0.533204	-0.243756	0.132680
C25	C	-0.668637	-0.178476	0.000085
C26	C	-0.311625	-0.168962	0.000114
C27	C	-0.985406	-0.405792	0.000108
C28	C	-0.987900	-0.546705	0.000107
N29	N	-0.990110	-0.173723	0.360453
C30	C	-0.896779	0.381384	-0.000427
C31	C	-0.899307	0.234801	0.000094
C32	C	-1.037134	0.261542	0.132187
C33	C	-1.033958	0.408043	0.132297
C34	C	-1.035871	0.408592	-0.130724
C35	C	-1.036728	0.261622	-0.132470
N36	N	-0.990159	-0.173701	-0.360232
C37	C	-0.921759	-0.277630	0.580815
C38	C	-0.921909	-0.278013	0.419647
C39	C	-1.077651	-0.202653	0.418913
C40	C	-1.077278	-0.203387	0.580130
C41	C	-0.971792	-0.040536	0.580364
C42	C	-0.969783	-0.041429	0.419137
H43	H	-0.577747	0.018612	0.094775
H44	H	-0.933715	-0.376835	0.381068
O45	O	-0.844250	-0.257697	0.372576
C46	C	-0.696595	-0.331974	0.368552
C47	C	-0.784508	-0.355135	0.421904
H48	H	-0.648267	-0.410722	0.408436
H49	H	-0.696474	-0.332294	0.249998
H50	H	-0.679954	-0.235693	0.407806
H51	H	-0.801204	-0.451415	0.382752
H52	H	-0.784583	-0.354735	0.540456
O53	O	-1.113843	0.466171	0.139538
C54	C	-1.261364	0.438973	0.152365
C55	C	-1.170939	0.372987	0.144191
H56	H	-1.307551	0.363664	0.156099
H57	H	-1.268662	0.500310	0.250129
H58	H	-1.274821	0.501813	0.056807
H59	H	-1.157421	0.310084	0.239678
H60	H	-1.163686	0.311728	0.046367
O61	O	-0.430573	0.033487	0.113716
C62	C	-0.477052	0.146379	0.322281
C63	C	-0.502505	0.071420	0.194289
H64	H	-0.535196	0.177093	0.387444
H65	H	-0.429938	0.083215	0.387498
H66	H	-0.447176	0.234408	0.286593
H67	H	-0.532415	-0.016611	0.229854
H68	H	-0.549582	0.134674	0.129101
H69	H	-0.433025	0.022532	-0.093563
O70	O	-0.935537	-0.394859	0.629278
C71	C	-0.880555	-0.580012	0.760105
C72	C	-0.864845	-0.447260	0.705332
H73	H	-0.823405	-0.622429	0.821581
H74	H	-0.938205	-0.570916	0.830524
H75	H	-0.891668	-0.645011	0.668660
H76	H	-0.853694	-0.382190	0.796689
H77	H	-0.807214	-0.456455	0.634871
H78	H	-1.104572	0.238333	-0.140438
O79	O	-0.414553	-0.181273	-0.249892
C80	C	-0.461991	-0.076787	-0.462820
C81	C	-0.487071	-0.144286	-0.329436
H82	H	-0.520605	-0.046888	-0.527182
H83	H	-0.429983	0.011260	-0.433943
H84	H	-0.416799	-0.144851	-0.526129
H85	H	-0.532288	-0.076323	-0.266064
H86	H	-0.519033	-0.232350	-0.358409
H87	H	-0.405109	-0.346120	0.131837
H88	H	-1.093342	-0.300504	0.617719
H89	H	-0.856510	-0.260674	0.619618
H90	H	-1.129808	-0.130676	0.619125
H91	H	-1.129793	-0.128973	0.380567
O92	O	-0.398886	-0.362484	-0.139496
C93	C	-0.381223	-0.558118	-0.270875
C94	C	-0.423970	-0.420464	-0.262648
H95	H	-0.401501	-0.605044	-0.370421
H96	H	-0.310049	-0.556758	-0.271115
H97	H	-0.400519	-0.614492	-0.177110
H98	H	-0.404742	-0.364009	-0.356391
H99	H	-0.495136	-0.421919	-0.262341
H100	H	-0.548001	-0.347808	-0.136888
O101	O	-0.582368	0.029421	-0.113148
C102	C	-0.554205	0.149209	-0.318266
C103	C	-0.517036	0.076037	-0.190081
H104	H	-0.501404	0.186941	-0.380486
H105	H	-0.588246	0.082411	-0.386259
H106	H	-0.600500	0.232528	-0.282887
H107	H	-0.470707	-0.007282	-0.225335
H108	H	-0.483048	0.142920	-0.122116
H109	H	-0.864077	0.191715	-0.094590
O110	O	-0.997784	0.212419	-0.249189
C111	C	-0.993967	0.213057	-0.499692
C112	C	-1.038135	0.268922	-0.367625
H113	H	-1.026583	0.258696	-0.595481
H114	H	-0.925364	0.233460	-0.498817
H115	H	-0.997287	0.105574	-0.502541
H116	H	-1.034879	0.376412	-0.364690
H117	H	-1.106717	0.248419	-0.368553
H118	H	-1.094072	-0.298665	0.378523
O119	O	-0.853010	0.416938	0.111778
C120	C	-0.731636	0.512235	0.193761
C121	C	-0.781127	0.472054	0.066567
H122	H	-0.673499	0.556781	0.157255
H123	H	-0.773142	0.584762	0.257900
H124	H	-0.711600	0.424813	0.260307
H125	H	-0.801171	0.559398	-0.000083
H126	H	-0.739590	0.399484	0.002532
H127	H	-0.561354	-0.196853	-0.230268
H128	H	-0.415444	-0.198416	0.231054
O129	O	-0.856980	0.184608	0.113338
C130	C	-0.777716	0.226217	0.318465
C131	C	-0.825639	0.283229	0.190278
H132	H	-0.752348	0.305921	0.380691
H133	H	-0.822084	0.175221	0.386452
H134	H	-0.723182	0.155274	0.283089
H135	H	-0.880173	0.354223	0.225529
H136	H	-0.781216	0.334145	0.122319
O137	O	-0.897194	-0.007299	0.628667
C138	C	-0.758478	0.045792	0.570681
C139	C	-0.842929	0.008206	0.515789
H140	H	-0.714576	0.058313	0.479449
H141	H	-0.769616	0.139204	0.630881
H142	H	-0.728703	-0.032411	0.642376
H143	H	-0.872749	0.086325	0.444039
H144	H	-0.831738	-0.085241	0.455669
H145	H	-0.905383	-0.019473	0.380930
H146	H	-0.560214	-0.193784	0.230388
H147	H	-0.549182	-0.346395	0.140658
O148	O	-1.116002	0.466238	-0.131860
C149	C	-1.205436	0.664828	-0.138008
C150	C	-1.114652	0.599701	-0.136774
H151	H	-1.204375	0.772744	-0.141952
H152	H	-1.239869	0.632075	-0.233178
H153	H	-1.239278	0.637869	-0.039698
H154	H	-1.080740	0.626629	-0.235019
H155	H	-1.080283	0.632456	-0.041539
H156	H	-0.860027	0.409481	-0.095147
H157	H	-1.000854	0.435785	0.231025
H158	H	-1.105470	0.240127	0.137105
H159	H	-1.006018	0.218513	0.230472
H160	H	-1.005761	0.439733	-0.230835
H161	H	-1.016300	0.039531	0.378848
H162	H	-1.021664	0.036804	0.618486
