data_functionalizedCrystal
_audit_creation_method	'MofGen! by Chris Wilmer'
_symmetry_space_group_name_H-M	'P1'
_symmetry_Int_Tables_number	1
_symmetry_cell_setting	triclinic
loop_
_symmetry_equiv_pos_as_xyz
  x,y,z
_cell_length_a	19.188930
_cell_length_b	15.538191
_cell_length_c	14.750779
_cell_angle_alpha	97.569385
_cell_angle_beta	77.415075
_cell_angle_gamma	65.208439
loop_
_atom_site_label
_atom_site_type_symbol
_atom_site_fract_x
_atom_site_fract_y
_atom_site_fract_z
O1	O	-0.876147	-0.138322	-0.080107
O2	O	-0.668873	-0.154153	-0.080039
O3	O	-0.812856	-0.008946	-0.080091
O4	O	-0.732163	-0.283529	-0.080055
O5	O	-0.853558	0.032097	0.079545
O6	O	-0.709574	-0.113109	0.079597
O7	O	-0.916848	-0.097279	0.079528
Zn8	Zn	-0.819673	-0.098677	0.104908
Zn9	Zn	-0.766048	-0.152754	-0.105419
O10	O	-0.772865	-0.242485	0.079580
C11	C	-0.663343	-0.133116	-0.000213
C12	C	-0.586232	-0.131569	-0.000188
C13	C	-0.841649	0.046704	-0.000279
C14	C	-0.866795	0.151377	-0.000297
C15	C	-0.922377	-0.118316	-0.000300
C16	C	-0.999487	-0.119865	-0.000331
C17	C	-0.519905	-0.216780	-0.000192
C18	C	-0.447442	-0.215335	-0.000202
C19	C	-0.441306	-0.128679	-0.000228
C20	C	-0.507647	-0.043456	-0.000219
C21	C	-0.580110	-0.044900	-0.000199
N22	N	-0.336099	-0.076418	-0.054607
N23	N	-0.267259	-0.075052	-0.054628
C24	C	-0.222980	-0.124321	-0.000288
N25	N	-0.250134	-0.175026	0.054063
N26	N	-0.318977	-0.176396	0.054080
C27	C	-0.362735	-0.127103	-0.000250
C28	C	-0.078079	-0.207972	-0.000302
C29	C	-0.005618	-0.206522	-0.000307
C30	C	-0.065822	-0.034642	-0.000333
C31	C	-0.138283	-0.036092	-0.000319
C32	C	-0.144406	-0.122760	-0.000308
C33	C	-0.744071	-0.298136	-0.000234
C34	C	-0.718924	-0.402811	-0.000222
N35	N	-0.856277	-0.061771	0.248451
C36	C	-0.616957	0.438164	-0.000194
C37	C	-0.640606	0.536526	-0.000200
C38	C	-0.773623	0.559506	-0.000244
C39	C	-0.749984	0.461143	-0.000243
C40	C	-0.671650	0.400480	-0.000217
C41	C	-0.804677	0.423458	-0.000266
C42	C	-0.781041	0.325105	-0.000260
C43	C	-0.702711	0.264436	-0.000231
C44	C	-0.648014	0.302126	-0.000211
C45	C	-0.883012	0.484125	-0.000285
C46	C	-0.937705	0.446440	-0.000308
C47	C	-0.914068	0.348083	-0.000309
C48	C	-0.835738	0.287415	-0.000280
C49	C	-0.968765	0.310393	-0.000329
C50	C	-0.945129	0.212040	-0.000323
C51	C	-0.812102	0.189062	-0.000274
N52	N	-0.729452	-0.189653	-0.248961
C53	C	-0.627234	-0.292686	0.600352
C54	C	-0.652887	-0.266831	0.700841
C55	C	-0.780392	-0.138297	0.700758
C56	C	-0.754748	-0.164139	0.600266
C57	C	-0.678169	-0.241335	0.550071
C58	C	-0.805683	-0.112788	0.549985
C59	C	-0.780043	-0.138631	0.449502
C60	C	-0.703468	-0.215826	0.399300
C61	C	-0.652529	-0.267178	0.449588
C62	C	-0.882265	-0.035597	0.600183
C63	C	-0.933200	0.015754	0.549902
C64	C	-0.907557	-0.010084	0.449417
C65	C	-0.830982	-0.087279	0.399214
C66	C	-0.958496	0.041268	0.399129
C67	C	-0.932856	0.015425	0.298646
C68	C	-0.805342	-0.113122	0.298731
H69	H	-0.524883	-0.287352	-0.000185
F70	F	-0.908168	0.588804	-0.000285
F71	F	-0.376842	-0.306032	-0.000204
H72	H	-0.596065	0.567207	-0.000167
H73	H	-0.060811	0.035899	-0.000414
H74	H	-0.502642	0.027097	-0.000253
F75	F	-0.650704	0.045797	-0.000194
F76	F	-0.533582	0.373594	-0.000176
F77	F	-0.723832	-0.195275	0.245307
F78	F	-0.084599	-0.300208	-0.000283
F79	F	0.064975	-0.297219	-0.000306
F80	F	-1.003343	0.171934	-0.000333
H81	H	-0.682594	-0.236869	0.317480
F82	F	-0.861893	-0.056144	0.754188
H83	H	-0.192289	0.033295	-0.000321
H84	H	-0.590167	-0.330032	0.408717
F85	F	-0.856990	0.624079	-0.000264
H86	H	-0.748313	0.139664	-0.000260
H87	H	-0.683469	0.184353	-0.000221
F88	F	-0.598667	-0.321497	0.754347
H89	H	-0.564872	-0.355540	0.559481
F90	F	-0.564639	0.237556	-0.000192
F91	F	-1.021073	0.511013	-0.000329
H92	H	-0.903139	-0.014562	0.682002
F93	F	-1.014700	0.097907	0.603332
H94	H	-1.032547	0.359802	-0.000341
F95	F	-1.040000	0.123415	0.452561
H96	H	-0.974334	0.057240	0.257707
