data_functionalizedCrystal
_audit_creation_method	'MofGen! by Chris Wilmer'
_symmetry_space_group_name_H-M	'P1'
_symmetry_Int_Tables_number	1
_symmetry_cell_setting	triclinic
loop_
_symmetry_equiv_pos_as_xyz
  x,y,z
_cell_length_a	10.654541
_cell_length_b	15.995350
_cell_length_c	9.730217
_cell_angle_alpha	89.998981
_cell_angle_beta	89.999932
_cell_angle_gamma	83.988152
loop_
_atom_site_label
_atom_site_type_symbol
_atom_site_fract_x
_atom_site_fract_y
_atom_site_fract_z
O1	O	1.666302	0.117591	-0.114240
O2	O	1.300677	0.128798	-0.114252
O3	O	1.493484	0.001365	-0.114244
O4	O	1.473495	0.245024	-0.114248
O5	O	1.493478	0.001364	0.114336
O6	O	1.300671	0.128797	0.114328
O7	O	1.666296	0.117590	0.114340
Zn8	Zn	1.483483	0.123193	0.150626
Zn9	Zn	1.483491	0.123195	-0.150538
O10	O	1.473489	0.245023	0.114332
C11	C	1.253887	0.127975	0.000037
C12	C	1.114475	0.125514	0.000032
C13	C	1.084514	0.277895	0.000013
C14	C	1.004039	0.352926	-0.000002
C15	C	0.873052	0.350609	-0.000003
C16	C	0.822537	0.273253	0.000015
C17	C	0.903011	0.198222	0.000030
C18	C	1.034000	0.200547	0.000027
C19	C	0.932972	0.045843	0.000059
C20	C	1.063961	0.048158	0.000050
C21	C	0.882458	-0.031513	0.000077
C22	C	0.962933	-0.106546	0.000082
C23	C	1.093928	-0.104226	0.000082
C24	C	1.144435	-0.026873	0.000065
C25	C	1.492655	-0.029835	0.000043
C26	C	1.490177	-0.122800	0.000035
C27	C	1.481280	-0.460599	0.000039
C28	C	1.343966	-0.413961	-0.000477
C29	C	1.346444	-0.317257	0.000038
C30	C	1.485693	-0.293013	0.000037
C31	C	1.553418	-0.333698	0.130567
C32	C	1.549969	-0.430354	0.130676
C33	C	1.552812	-0.430694	-0.129262
C34	C	1.552779	-0.333749	-0.130988
C35	C	1.488195	-0.198301	0.000039
C36	C	1.478783	-0.555311	0.000046
C37	C	1.713087	0.118413	0.000048
C38	C	1.852498	0.120874	0.000044
C39	C	1.474318	0.276223	0.000042
C40	C	1.476796	0.369188	0.000041
N41	N	1.483487	0.123192	0.356163
N42	N	1.483497	0.123190	-0.356075
C43	C	1.654287	0.010383	0.356160
C44	C	1.739695	-0.046019	0.428098
C45	C	1.739708	-0.046019	0.571978
C46	C	1.654301	0.010387	0.643922
C47	C	1.568892	0.066788	0.571984
C48	C	1.568891	0.066785	0.428101
C49	C	1.398088	0.179592	0.571987
C50	C	1.398079	0.179598	0.428107
C51	C	1.312681	0.235998	0.643932
C52	C	1.227276	0.292405	0.571993
C53	C	1.227268	0.292404	0.428105
C54	C	1.312671	0.236000	0.356169
H55	H	1.191169	0.279789	-0.000016
C56	C	0.678446	0.270708	0.000028
N57	N	0.569915	0.268791	0.000037
C58	C	1.691616	-0.313797	0.137146
N59	N	1.795705	-0.298800	0.142105
H60	H	1.045183	0.415908	-0.000013
C61	C	1.182441	-0.186768	0.000099
N62	N	1.249105	-0.248940	0.000111
C63	C	0.907357	-0.191628	0.000105
N64	N	0.865492	-0.255714	0.000119
C65	C	0.784527	0.433146	-0.000020
N66	N	0.717851	0.495313	-0.000034
H67	H	1.312676	0.235997	0.239014
H68	H	1.251090	-0.024976	0.000049
H69	H	1.157738	0.338323	0.630580
C70	C	1.312681	0.235985	0.802203
N71	N	1.312678	0.235975	0.921416
C72	C	1.270160	-0.440834	0.125299
N73	N	1.214578	-0.461068	0.220047
C74	C	1.274039	-0.280030	0.126661
N75	N	1.219501	-0.251992	0.222041
H76	H	1.293208	-0.289143	-0.093531
H77	H	0.775800	-0.033395	0.000083
C78	C	1.133330	0.354465	0.348984
N79	N	1.062583	0.401218	0.289395
C80	C	1.269814	-0.439435	-0.126925
N81	N	1.213959	-0.458630	-0.222166
H82	H	1.500579	-0.448942	0.228250
H83	H	1.506375	-0.305590	0.227703
C84	C	1.492160	-0.458789	-0.262919
N85	N	1.446463	-0.479949	-0.363582
C86	C	1.686160	-0.473132	0.138697
N87	N	1.788737	-0.505348	0.144747
C88	C	1.485949	-0.297276	-0.261445
N89	N	1.435601	-0.269808	-0.359703
H90	H	1.654326	-0.317798	-0.138870
C91	C	1.689580	-0.472813	-0.130455
N92	N	1.792589	-0.504542	-0.131345
C93	C	1.654288	0.010384	0.197888
N94	N	1.654291	0.010382	0.078676
C95	C	1.833620	-0.108075	0.348949
N96	N	1.904355	-0.154822	0.289337
H97	H	1.809251	-0.091949	0.630550
H98	H	1.654306	0.010376	0.761077
