data_functionalizedCrystal
_audit_creation_method	'MofGen! by Chris Wilmer'
_symmetry_space_group_name_H-M	'P1'
_symmetry_Int_Tables_number	1
_symmetry_cell_setting	triclinic
loop_
_symmetry_equiv_pos_as_xyz
  x,y,z
_cell_length_a	25.639243
_cell_length_b	25.639240
_cell_length_c	13.897449
_cell_angle_alpha	90.021162
_cell_angle_beta	90.009699
_cell_angle_gamma	90.035481
loop_
_atom_site_label
_atom_site_type_symbol
_atom_site_fract_x
_atom_site_fract_y
_atom_site_fract_z
Zn1	Zn	0.799214	-0.208201	0.545403
Zn2	Zn	1.299214	0.291799	1.045403
Zn3	Zn	0.799156	-0.295613	0.384074
Zn4	Zn	1.299156	0.204387	0.884074
Zn5	Zn	0.711800	-0.208197	0.384111
Zn6	Zn	1.211800	0.291803	0.884111
Zn7	Zn	0.711745	-0.295611	0.545316
Zn8	Zn	1.211745	0.204389	1.045316
O9	O	0.755479	-0.251906	0.464726
O10	O	1.255479	0.248094	0.964726
O11	O	0.872372	-0.219798	0.524024
O12	O	1.372372	0.280202	1.024024
O13	O	0.787567	-0.284016	0.249098
O14	O	1.287567	0.215984	0.749098
O15	O	0.723443	-0.135032	0.405559
O16	O	1.223443	0.364968	0.905559
O17	O	0.872329	-0.284019	0.405496
O18	O	1.372329	0.215981	0.905496
O19	O	0.787666	-0.135035	0.524060
O20	O	1.287666	0.364965	1.024060
O21	O	0.723387	-0.219792	0.249125
O22	O	1.223387	0.280208	0.749125
O23	O	0.638628	-0.219791	0.405475
O24	O	1.138628	0.280209	0.905475
O25	O	0.723349	-0.284017	0.680309
O26	O	1.223349	0.215983	1.180309
O27	O	0.638587	-0.284014	0.523911
O28	O	1.138587	0.215986	1.023911
O29	O	0.787612	-0.219797	0.680373
O30	O	1.287612	0.280203	1.180373
O31	O	0.787514	-0.368778	0.405411
O32	O	1.287514	0.131222	0.905411
O33	O	0.723293	-0.368777	0.523875
O34	O	1.223293	0.131223	1.023875
C35	C	0.619636	-0.251902	0.464688
C36	C	1.119636	0.248098	0.964688
C37	C	0.561522	-0.251913	0.464695
C38	C	1.061522	0.248087	0.964695
C39	C	0.755405	-0.387748	0.464651
C40	C	1.255405	0.112252	0.964651
C41	C	0.755421	-0.445862	0.464651
C42	C	1.255421	0.054138	0.964651
C43	C	0.201176	-0.218518	0.526547
C44	C	0.701176	0.281482	1.026547
C45	C	0.146571	-0.218518	0.526553
C46	C	0.646571	0.281482	1.026553
O47	O	0.118349	-0.190115	0.579094
O48	O	0.618349	0.309885	1.079094
N49	N	0.119240	-0.251904	0.464753
N50	N	0.619240	0.248096	0.964753
C51	C	0.146515	-0.285289	0.402936
C52	C	0.646515	0.214711	0.902936
O53	O	0.118254	-0.313686	0.350371
O54	O	0.618254	0.186314	0.850371
C55	C	0.201119	-0.285286	0.402926
C56	C	0.701119	0.214714	0.902926
C57	C	0.228447	-0.251902	0.464737
C58	C	0.728447	0.248098	0.964737
C59	C	0.228505	-0.185136	0.588352
C60	C	0.728505	0.314864	1.088352
C61	C	0.283105	-0.185137	0.588347
C62	C	0.783105	0.314863	1.088347
C63	C	0.310377	-0.218521	0.526537
C64	C	0.810377	0.281479	1.026537
C65	C	0.283048	-0.251903	0.464732
C66	C	0.783048	0.248097	0.964732
C67	C	0.228393	-0.318668	0.341105
C68	C	0.728393	0.181332	0.841105
C69	C	0.283000	-0.318663	0.341100
C70	C	0.783000	0.181337	0.841100
C71	C	0.310329	-0.285278	0.402911
C72	C	0.810329	0.214722	0.902911
C73	C	0.364920	-0.285288	0.402917
C74	C	0.864920	0.214712	0.902917
N75	N	0.392252	-0.251902	0.464717
N76	N	0.892252	0.248098	0.964717
C77	C	0.364980	-0.218518	0.526527
C78	C	0.864980	0.281482	1.026527
C79	C	0.031845	-0.285291	0.402961
C80	C	0.531845	0.214709	0.902961
C81	C	-0.022758	-0.285297	0.402975
C82	C	0.477242	0.214703	0.902975
C83	C	-0.022698	-0.218525	0.526591
C84	C	0.477302	0.281475	1.026591
C85	C	0.031906	-0.218522	0.526581
C86	C	0.531906	0.281478	1.026581
C87	C	0.059176	-0.251905	0.464761
C88	C	0.559176	0.248095	0.964761
C89	C	0.479645	-0.218524	0.526512
C90	C	0.979645	0.281476	1.026512
C91	C	0.534251	-0.218529	0.526505
C92	C	1.034251	0.281471	1.026505
C93	C	0.534186	-0.285299	0.402886
C94	C	1.034186	0.214701	0.902886
C95	C	0.479585	-0.285296	0.402897
C96	C	0.979585	0.214704	0.902897
C97	C	0.452316	-0.251904	0.464713
C98	C	0.952316	0.248096	0.964713
O99	O	0.393178	-0.313675	0.350400
O100	O	0.893178	0.186325	0.850400
O101	O	0.393249	-0.190121	0.579075
O102	O	0.893249	0.309879	1.079075
C103	C	0.788936	-0.806188	0.526541
C104	C	1.288936	-0.306188	1.026541
C105	C	0.788952	-0.860793	0.526560
C106	C	1.288952	-0.360793	1.026560
O107	O	0.817360	-0.888998	0.579104
O108	O	1.317360	-0.388998	1.079104
N109	N	0.755551	-0.888145	0.464820
N110	N	1.255551	-0.388145	0.964820
C111	C	0.722130	-0.860889	0.403062
C112	C	1.222130	-0.360889	0.903062
O113	O	0.693721	-0.889168	0.350549
O114	O	1.193721	-0.389168	0.850549
C115	C	0.722112	-0.806286	0.403048
C116	C	1.222112	-0.306286	0.903048
C117	C	0.755518	-0.778937	0.464786
C118	C	1.255518	-0.278937	0.964786
C119	C	0.822339	-0.778839	0.588275
C120	C	1.322339	-0.278839	1.088275
C121	C	0.822325	-0.724238	0.588254
C122	C	1.322325	-0.224238	1.088254
C123	C	0.788907	-0.696987	0.526499
C124	C	1.288907	-0.196987	1.026499
C125	C	0.755503	-0.724336	0.464765
C126	C	1.255503	-0.224336	0.964765
C127	C	0.688688	-0.779032	0.341296
C128	C	1.188688	-0.279032	0.841296
C129	C	0.688673	-0.724425	0.341288
C130	C	1.188673	-0.224425	0.841288
C131	C	0.722079	-0.697076	0.403026
C132	C	1.222079	-0.197076	0.903026
C133	C	0.722071	-0.642485	0.402989
C134	C	1.222071	-0.142485	0.902989
N135	N	0.755471	-0.615133	0.464730
N136	N	1.255471	-0.115133	0.964730
C137	C	0.788889	-0.642384	0.526485
C138	C	1.288889	-0.142384	1.026485
C139	C	0.722169	-0.975560	0.403097
C140	C	1.222169	-0.475560	0.903097
C141	C	0.722189	-1.030162	0.403106
C142	C	1.222189	-0.530162	0.903106
C143	C	0.789010	-1.030062	0.526606
C144	C	1.289010	-0.530062	1.026606
C145	C	0.788992	-0.975458	0.526592
C146	C	1.288992	-0.475458	1.026592
C147	C	0.755569	-0.948208	0.464838
C148	C	1.255569	-0.448208	0.964838
C149	C	0.788855	-0.527719	0.526435
C150	C	1.288855	-0.027719	1.026435
C151	C	0.788839	-0.473113	0.526406
C152	C	1.288839	0.026887	1.026406
C153	C	0.722016	-0.473219	0.402910
C154	C	1.222016	0.026781	0.902910
C155	C	0.722034	-0.527819	0.402935
C156	C	1.222034	-0.027819	0.902935
C157	C	0.755456	-0.555068	0.464706
C158	C	1.255456	-0.055068	0.964706
O159	O	0.693676	-0.614245	0.350475
O160	O	1.193676	-0.114245	0.850475
O161	O	0.817288	-0.614098	0.578998
O162	O	1.317288	-0.114098	1.078998
C163	C	0.891852	-0.251909	0.464765
C164	C	1.391852	0.248091	0.964765
C165	C	0.949966	-0.251911	0.464782
C166	C	1.449966	0.248089	0.964782
C167	C	0.755481	-0.251908	0.716319
C168	C	1.255481	0.248092	1.216319
C169	C	0.755482	-0.251909	0.823533
C170	C	1.255482	0.248091	1.323533
C171	C	0.755567	-0.115532	0.464823
C172	C	1.255567	0.384468	0.964823
C173	C	0.755605	-0.057418	0.464865
C174	C	1.255605	0.442582	0.964865
C175	C	0.755468	-0.251911	1.019828
C176	C	1.255468	0.248089	1.519828
C177	C	0.755474	-0.251911	0.910596
C178	C	1.255474	0.248089	1.410596
C179	C	0.755472	-0.251914	1.214112
C180	C	1.255472	0.248086	1.714112
C181	C	0.755468	-0.251910	1.106898
C182	C	1.255468	0.248090	1.606898
H183	H	0.556499	-0.191343	0.576842
H184	H	1.056499	0.308657	1.076842
H185	H	0.054045	-0.312480	0.352622
H186	H	0.554045	0.187520	0.852622
H187	H	0.457333	-0.312486	0.352576
H188	H	0.957333	0.187514	0.852576
Cl189	Cl	0.317280	-0.360634	0.263381
Cl190	Cl	0.817280	0.139366	0.763381
Cl191	Cl	0.194050	-0.360630	0.263375
Cl192	Cl	0.694050	0.139370	0.763375
Cl193	Cl	0.864355	-0.813088	0.665923
Cl194	Cl	1.364355	-0.313088	1.165923
Cl195	Cl	0.445373	-0.176545	0.604226
Cl196	Cl	0.945373	0.323455	1.104226
Cl197	Cl	0.646687	-0.813401	0.263681
Cl198	Cl	1.146687	-0.313401	0.763681
H199	H	0.054153	-0.191336	0.576910
H200	H	0.554153	0.308664	1.076910
H201	H	0.694953	-0.953376	0.352802
H202	H	1.194953	-0.453376	0.852802
Cl203	Cl	0.680044	-0.562202	0.325308
Cl204	Cl	1.180044	-0.062202	0.825308
Cl205	Cl	0.680007	-0.438950	0.325279
Cl206	Cl	1.180007	0.061050	0.825279
Cl207	Cl	0.646653	-0.690171	0.263649
Cl208	Cl	1.146653	-0.190171	0.763649
H209	H	0.305352	-0.157951	0.638678
H210	H	0.805352	0.342049	1.138678
H211	H	0.206306	-0.157948	0.638685
H212	H	0.706306	0.342052	1.138685
Cl213	Cl	-0.056992	-0.176554	0.604291
Cl214	Cl	0.443008	0.323446	1.104291
Cl215	Cl	0.830989	-0.941082	0.604210
Cl216	Cl	1.330989	-0.441082	1.104210
Cl217	Cl	0.830839	-0.438735	0.604024
Cl218	Cl	1.330839	0.061265	1.104024
Cl219	Cl	-0.057107	-0.327273	0.325276
Cl220	Cl	0.442893	0.172727	0.825276
Cl221	Cl	0.830873	-0.561966	0.604087
Cl222	Cl	1.330873	-0.061966	1.104087
Cl223	Cl	0.568480	-0.327265	0.325186
Cl224	Cl	1.068480	0.172735	0.825186
H225	H	0.849525	-0.701974	0.638529
H226	H	1.349525	-0.201974	1.138529
Cl227	Cl	0.831021	-1.064331	0.604243
Cl228	Cl	1.331021	-0.564331	1.104243
H229	H	0.694992	-1.052426	0.352822
H230	H	1.194992	-0.552426	0.852822
