data_functionalizedCrystal
_audit_creation_method	'MofGen! by Chris Wilmer'
_symmetry_space_group_name_H-M	'P1'
_symmetry_Int_Tables_number	1
_symmetry_cell_setting	triclinic
loop_
_symmetry_equiv_pos_as_xyz
  x,y,z
_cell_length_a	17.639398
_cell_length_b	17.640280
_cell_length_c	18.050582
_cell_angle_alpha	101.219235
_cell_angle_beta	78.781491
_cell_angle_gamma	92.153217
loop_
_atom_site_label
_atom_site_type_symbol
_atom_site_fract_x
_atom_site_fract_y
_atom_site_fract_z
Zn1	Zn	1.222173	0.067533	-0.639237
Zn2	Zn	1.722173	0.567533	-0.139237
Zn3	Zn	1.247789	0.194517	-0.495823
Zn4	Zn	1.747789	0.694517	0.004177
Zn5	Zn	1.095187	0.093228	-0.486067
Zn6	Zn	1.595187	0.593228	0.013933
Zn7	Zn	1.120835	0.220158	-0.590994
Zn8	Zn	1.620835	0.720158	-0.090994
O9	O	1.171496	0.143859	-0.553030
O10	O	1.671496	0.643859	-0.053030
O11	O	1.331846	0.062893	-0.644486
O12	O	1.831846	0.562893	-0.144486
O13	O	1.227532	0.181104	-0.390597
O14	O	1.727532	0.681104	0.109403
O15	O	1.090578	-0.016444	-0.522493
O16	O	1.590578	0.483556	-0.022493
O17	O	1.350666	0.156188	-0.539120
O18	O	1.850666	0.656188	-0.039120
O19	O	1.183874	-0.035322	-0.635026
O20	O	1.683874	0.464678	-0.135026
O21	O	1.115416	0.106688	-0.383430
O22	O	1.615416	0.606688	0.116570
O23	O	0.992314	0.131550	-0.475713
O24	O	1.492314	0.631550	0.024287
O25	O	1.134292	0.199889	-0.701325
O26	O	1.634292	0.699889	-0.201325
O27	O	1.011158	0.224805	-0.552803
O28	O	1.511158	0.724805	-0.052803
O29	O	1.208744	0.087756	-0.736769
O30	O	1.708744	0.587756	-0.236769
O31	O	1.252403	0.304182	-0.492340
O32	O	1.752403	0.804182	0.007660
O33	O	1.159130	0.323020	-0.562262
O34	O	1.659130	0.823020	-0.062262
C35	C	0.974180	0.183749	-0.507965
C36	C	1.474180	0.683749	-0.007965
C37	C	0.889772	0.200832	-0.488700
C38	C	1.389772	0.700832	0.011300
C39	C	1.211350	0.341150	-0.523146
C40	C	1.711350	0.841150	-0.023146
C41	C	1.228469	0.425537	-0.510402
C42	C	1.728469	0.925537	-0.010402
C43	C	1.171522	0.143816	-0.746749
C44	C	1.671522	0.643816	-0.246749
C45	C	1.171533	0.143798	-0.829300
C46	C	1.671533	0.643798	-0.329300
C47	C	1.369583	0.103814	-0.598273
C48	C	1.869583	0.603814	-0.098273
C49	C	1.453995	0.086750	-0.617552
C50	C	1.953995	0.586750	-0.117552
C51	C	1.780604	0.273467	-0.406668
C52	C	2.280604	0.773467	0.093332
C53	C	1.859920	0.257417	-0.424796
C54	C	2.359920	0.757417	0.075204
C55	C	1.840314	0.160277	-0.534504
C56	C	2.340314	0.660277	-0.034504
C57	C	1.760996	0.176322	-0.516387
C58	C	2.260996	0.676322	-0.016387
C59	C	1.731147	0.232917	-0.452467
C60	C	2.231147	0.732917	0.047533
C61	C	1.711539	0.135772	-0.562187
C62	C	2.211539	0.635772	-0.062187
C63	C	1.632227	0.151813	-0.544069
C64	C	2.132227	0.651813	-0.044069
C65	C	1.602372	0.208404	-0.480151
C66	C	2.102372	0.708404	0.019849
C67	C	1.651836	0.248958	-0.434349
C68	C	2.151836	0.748958	0.065651
C69	C	1.741388	0.079174	-0.626103
C70	C	2.241388	0.579174	-0.126103
C71	C	1.691931	0.038624	-0.671903
C72	C	2.191931	0.538624	-0.171903
C73	C	1.612618	0.054668	-0.653788
C74	C	2.112618	0.554668	-0.153788
C75	C	1.582764	0.111259	-0.589870
C76	C	2.082764	0.611259	-0.089870
C77	C	1.563155	0.014114	-0.699590
C78	C	2.063155	0.514114	-0.199590
C79	C	1.483843	0.030155	-0.681472
C80	C	1.983843	0.530155	-0.181472
C81	C	1.503452	0.127300	-0.571752
C82	C	2.003452	0.627300	-0.071752
C83	C	1.131507	-0.054206	-0.583053
C84	C	1.631507	0.445794	-0.083053
C85	C	1.114467	-0.138610	-0.595847
C86	C	1.614467	0.361390	-0.095847
C87	C	1.041756	0.752297	-0.650187
C88	C	1.541756	1.252297	-0.150187
C89	C	1.057843	0.831592	-0.638189
C90	C	1.557843	1.331592	-0.138189
C91	C	1.155028	0.811898	-0.565489
C92	C	1.655028	1.311898	-0.065489
C93	C	1.138951	0.732600	-0.577485
C94	C	1.638951	1.232600	-0.077485
C95	C	1.082314	0.702806	-0.619833
C96	C	1.582314	1.202806	-0.119833
C97	C	1.179509	0.683108	-0.547131
C98	C	1.679509	1.183108	-0.047131
C99	C	1.163431	0.603817	-0.559122
C100	C	1.663431	1.103817	-0.059122
C101	C	1.106794	0.574017	-0.601467
C102	C	1.606794	1.074017	-0.101467
C103	C	1.066235	0.623515	-0.631825
C104	C	1.566235	1.123515	-0.131825
C105	C	1.236143	0.712904	-0.504777
C106	C	1.736143	1.212904	-0.004777
C107	C	1.276701	0.663413	-0.474424
C108	C	1.776701	1.163413	0.025576
C109	C	1.260626	0.584120	-0.486419
C110	C	1.760626	1.084120	0.013581
C111	C	1.203990	0.554320	-0.528764
C112	C	1.703990	1.054320	-0.028764
C113	C	1.301185	0.534622	-0.456062
C114	C	1.801185	1.034622	0.043938
C115	C	1.285107	0.455331	-0.468053
C116	C	1.785107	0.955331	0.031947
C117	C	1.187911	0.475029	-0.540755
C118	C	1.687911	0.975029	-0.040755
C119	C	1.131076	0.204684	-1.058875
C120	C	1.631076	0.704684	-0.558875
C121	C	1.098503	0.139181	-1.015727
C122	C	1.598503	0.639181	-0.515727
C123	C	1.171574	0.143674	-1.126453
C124	C	1.671574	0.643674	-0.626453
C125	C	1.204090	0.209241	-1.022496
C126	C	1.704090	0.709241	-0.522496
C127	C	1.171553	0.143739	-0.980451
C128	C	1.671553	0.643739	-0.480451
C129	C	1.138958	0.078141	-1.084389
C130	C	1.638958	0.578141	-0.584389
C131	C	1.244587	0.148241	-1.091163
C132	C	1.744587	0.648241	-0.591163
C133	C	1.212030	0.082686	-1.048050
C134	C	1.712030	0.582686	-0.548050
C135	C	1.171585	0.143637	-1.210560
C136	C	1.671585	0.643637	-0.710560
C137	C	1.171540	0.143767	-0.896347
C138	C	1.671540	0.643767	-0.396347
C139	C	1.171503	0.143838	-0.360084
C140	C	1.671503	0.643838	0.139916
C141	C	1.171596	0.143613	-0.277599
C142	C	1.671596	0.643613	0.222401
H143	H	1.479150	0.173392	-0.519708
H144	H	1.979150	0.673392	-0.019708
H145	H	0.995641	0.728037	-0.684679
H146	H	1.495641	1.228037	-0.184679
N147	N	1.005143	0.591375	-0.677496
N148	N	1.505143	1.091375	-0.177496
H149	H	1.001112	0.533634	-0.680482
H150	H	1.501112	1.033634	-0.180482
H151	H	1.019729	0.602817	-0.731147
H152	H	1.519729	1.102817	-0.231147
H153	H	1.141797	0.450769	-0.575247
H154	H	1.641797	0.950769	-0.075247
H155	H	1.249234	0.777469	-0.495018
H156	H	1.749234	1.277469	0.004982
N157	N	1.619635	0.310009	-0.365415
N158	N	2.119635	0.810009	0.134585
H159	H	1.663000	0.333269	-0.339150
H160	H	2.163000	0.833269	0.160850
H161	H	1.580480	0.285764	-0.328211
H162	H	2.080480	0.785764	0.171789
N163	N	1.089446	0.488497	-0.614397
N164	N	1.589446	0.988497	-0.114397
H165	H	1.137649	0.458815	-0.642884
H166	H	1.637649	0.958815	-0.142884
H167	H	1.047391	0.477203	-0.645805
H168	H	1.547391	0.977203	-0.145805
H169	H	1.537789	0.221452	-0.465391
H170	H	2.037789	0.721452	0.034609
N171	N	1.326366	0.153358	-1.134514
N172	N	1.826366	0.653358	-0.634514
H173	H	1.357215	0.107820	-1.130284
H174	H	1.857215	0.607820	-0.630284
H175	H	1.350838	0.202935	-1.111821
H176	H	1.850838	0.702935	-0.611821
H177	H	1.024821	0.871885	-0.662921
H178	H	1.524821	1.371885	-0.162921
N179	N	1.216105	0.844037	-0.519805
N180	N	1.716105	1.344037	-0.019805
H181	H	1.220135	0.901778	-0.516810
H182	H	1.720135	1.401778	-0.016810
H183	H	1.267518	0.819168	-0.545895
H184	H	1.767518	1.319168	-0.045895
H185	H	1.322813	0.687683	-0.439941
H186	H	1.822813	1.187683	0.060059
N187	N	1.362257	0.566764	-0.410371
N188	N	1.862257	1.066764	0.089629
H189	H	1.366283	0.624505	-0.407375
H190	H	1.866283	1.124505	0.092625
H191	H	1.413673	0.541899	-0.436457
H192	H	1.913673	1.041899	0.063543
H193	H	1.756302	0.319559	-0.354623
H194	H	2.256302	0.819559	0.145377
N195	N	1.328845	0.401946	-0.435312
N196	N	1.828845	0.901946	0.064688
H197	H	1.367165	0.432851	-0.406666
H198	H	1.867165	0.932851	0.093334
H199	H	1.357288	0.361903	-0.478574
H200	H	1.857288	0.861903	0.021426
H201	H	1.096793	0.256202	-1.064257
H202	H	1.596793	0.756202	-0.564257
N203	N	1.913263	0.301159	-0.375394
N204	N	2.413263	0.801159	0.124606
H205	H	1.968036	0.282410	-0.396568
H206	H	2.468036	0.782410	0.103432
H207	H	1.897003	0.292150	-0.320978
H208	H	2.397003	0.792150	0.179022
N209	N	1.595359	-0.046916	-0.768534
N210	N	2.095359	0.453084	-0.268534
H211	H	1.621158	-0.088757	-0.751209
H212	H	2.121158	0.411243	-0.251209
H213	H	1.634470	-0.022643	-0.805752
H214	H	2.134470	0.477357	-0.305752
H215	H	1.231601	0.264662	-0.995512
H216	H	1.731601	0.764662	-0.495512
N217	N	1.724130	-0.022401	-0.740855
N218	N	2.224130	0.477599	-0.240855
H219	H	1.781879	-0.026406	-0.745388
H220	H	2.281879	0.473594	-0.245388
H221	H	1.712654	-0.007765	-0.788926
H222	H	2.212654	0.492235	-0.288926
N223	N	1.826942	0.061924	-0.645648
N224	N	2.326942	0.561924	-0.145648
H225	H	1.848849	0.072023	-0.698844
H226	H	2.348849	0.572023	-0.198844
H227	H	1.835511	0.005981	-0.644220
H228	H	2.335511	0.505981	-0.144220
N229	N	1.016705	0.134091	-0.972396
N230	N	1.516705	0.634091	-0.472396
H231	H	0.986163	0.180176	-0.975794
H232	H	1.486163	0.680176	-0.475794
H233	H	1.017408	0.133621	-0.916673
H234	H	1.517408	0.633621	-0.416673
N235	N	1.102422	0.004724	-1.119987
N236	N	1.602422	0.504724	-0.619987
H237	H	1.102634	0.005162	-1.175896
H238	H	1.602634	0.505162	-0.675896
H239	H	1.047431	0.001195	-1.091748
H240	H	1.547431	0.501195	-0.591748
H241	H	1.864627	0.114196	-0.586546
H242	H	2.364627	0.614196	-0.086546
N243	N	1.257371	0.014316	-1.041115
N244	N	1.757371	0.514316	-0.541115
H245	H	1.222711	-0.019210	-1.009380
H246	H	1.722711	0.480790	-0.509380
H247	H	1.302278	0.033273	-1.015276
H248	H	1.802278	0.533273	-0.515276
N249	N	1.430494	-0.013580	-0.730865
N250	N	1.930494	0.486420	-0.230865
H251	H	1.461437	-0.051865	-0.774108
H252	H	1.961437	0.448135	-0.274108
H253	H	1.403833	0.023980	-0.753030
H254	H	1.903833	0.523980	-0.253030
