data_functionalizedCrystal
_audit_creation_method	'MofGen! by Chris Wilmer'
_symmetry_space_group_name_H-M	'P1'
_symmetry_Int_Tables_number	1
_symmetry_cell_setting	triclinic
loop_
_symmetry_equiv_pos_as_xyz
  x,y,z
_cell_length_a	15.944551
_cell_length_b	16.992695
_cell_length_c	15.455313
_cell_angle_alpha	87.152573
_cell_angle_beta	92.676985
_cell_angle_gamma	87.083481
loop_
_atom_site_label
_atom_site_type_symbol
_atom_site_fract_x
_atom_site_fract_y
_atom_site_fract_z
O1	O	-1.124754	-0.097702	-0.072040
O2	O	-0.881041	-0.110169	-0.072062
O3	O	-1.001920	0.010207	-0.072045
O4	O	-1.003875	-0.218078	-0.072058
O5	O	-0.995006	0.003352	0.072217
O6	O	-0.874127	-0.117024	0.072199
O7	O	-1.117839	-0.104557	0.072221
Cu8	Cu	-0.995352	-0.111417	0.085382
Cu9	Cu	-1.003529	-0.103310	-0.085223
O10	O	-0.996960	-0.224933	0.072203
C11	C	-0.995949	0.035992	0.000086
C12	C	-0.988449	0.123037	0.000085
C13	C	-0.846255	-0.113079	0.000066
C14	C	-0.752906	-0.111527	0.000058
C15	C	-1.152625	-0.101647	0.000091
C16	C	-1.245975	-0.103199	0.000093
C17	C	-0.532795	-0.033204	0.000079
C18	C	-0.477623	-0.066195	-0.071051
C19	C	-0.581991	-0.108720	0.000068
C20	C	-0.470830	-0.072971	0.071179
C21	C	-0.416895	-0.106003	0.000082
C22	C	-0.528052	-0.141729	-0.071121
C23	C	-0.521261	-0.148498	0.071173
C24	C	-0.466111	-0.181543	0.000025
C25	C	-0.677099	-0.110283	0.000059
C26	C	-0.321790	-0.104446	0.000084
C27	C	-1.002931	-0.250718	0.000071
C28	C	-1.010431	-0.337762	0.000066
N29	N	-0.989607	-0.117118	0.205377
C30	C	-1.060814	0.173273	0.000092
C31	C	-1.053762	0.255060	0.000083
C32	C	-0.974345	0.286609	0.000073
C33	C	-0.901975	0.236367	0.000063
C34	C	-0.909028	0.154581	0.000066
C35	C	-0.945114	0.530209	0.000059
C36	C	-0.938067	0.612001	0.000059
C37	C	-1.089855	0.630689	0.000077
C38	C	-1.096900	0.548901	0.000085
C39	C	-1.024531	0.498666	0.000070
N40	N	-0.967135	0.370209	0.000067
N41	N	-1.031742	0.415068	0.000070
N42	N	-1.009280	-0.097602	-0.205218
C43	C	-1.040980	-0.065997	0.250778
C44	C	-1.036644	-0.070316	0.341586
C45	C	-0.980937	-0.125761	0.386990
C46	C	-0.929558	-0.176884	0.341582
C47	C	-0.933890	-0.172561	0.250776
C48	C	-0.962233	-0.144402	0.658568
C49	C	-0.957906	-0.148723	0.749380
C50	C	-1.064992	-0.042153	0.749378
C51	C	-1.069323	-0.037838	0.658571
C52	C	-1.017941	-0.088958	0.613171
N53	N	-0.976505	-0.130179	0.479809
N54	N	-1.022369	-0.084536	0.520353
H55	H	-0.561929	0.029473	-0.000005
H56	H	-1.112689	0.295960	0.000091
H57	H	-0.553065	-0.170785	-0.131322
O58	O	-1.114976	0.007547	0.793346
C59	C	-1.221592	0.113754	0.783759
C60	C	-1.165050	0.057495	0.733859
H61	H	-1.262079	0.154162	0.735685
H62	H	-1.263857	0.077903	0.826240
H63	H	-1.180649	0.150883	0.826303
H64	H	-1.205928	0.020353	0.691267
H65	H	-1.122780	0.093392	0.691432
H66	H	-0.458253	-0.031397	-0.131184
O67	O	-0.431614	-0.256389	-0.000176
C68	C	-0.421875	-0.377168	-0.075326
C69	C	-0.460989	-0.292417	-0.075212
H70	H	-0.445623	-0.406327	-0.135976
H71	H	-0.350464	-0.375517	-0.074805
H72	H	-0.440625	-0.412423	-0.015236
H73	H	-0.442303	-0.257113	-0.135291
H74	H	-0.532392	-0.294127	-0.075687
H75	H	-0.884195	-0.222026	0.378555
H76	H	-1.148774	0.671599	0.000087
O77	O	-0.838788	0.105695	0.000176
C78	C	-0.755046	-0.001008	0.074927
C79	C	-0.834634	0.054291	0.074906
H80	H	-0.751653	-0.042571	0.135349
H81	H	-0.757440	-0.036955	0.014594
H82	H	-0.697088	0.035607	0.074878
H83	H	-0.892634	0.017737	0.074985
H84	H	-0.832167	0.090241	0.135234
O85	O	-0.860854	0.642521	0.000001
C86	C	-0.711043	0.615358	0.000015
C87	C	-0.798428	0.580690	0.000060
H88	H	-0.660547	0.565383	0.000081
H89	H	-0.706798	0.656020	-0.060374
H90	H	-0.701092	0.650343	0.060372
H91	H	-0.808437	0.545668	-0.060256
H92	H	-0.802632	0.540071	0.060489
H93	H	-0.912541	-0.193876	0.786344
O94	O	-0.912294	-0.194144	0.614609
C95	C	-0.805590	-0.300274	0.624202
C96	C	-0.862115	-0.243997	0.674099
H97	H	-0.764993	-0.340583	0.672278
H98	H	-0.846466	-0.337499	0.581698
H99	H	-0.763421	-0.264356	0.581681
H100	H	-0.904293	-0.279852	0.716667
H101	H	-0.821189	-0.206770	0.716548
H102	H	-1.125484	0.147592	0.000106
O103	O	-1.123120	0.016361	0.614567
C104	C	-1.138022	0.128835	0.512730
C105	C	-1.077136	0.067295	0.562365
H106	H	-1.100867	0.170041	0.470526
H107	H	-1.184523	0.097501	0.469953
H108	H	-1.173755	0.164557	0.561020
H109	H	-1.041346	0.031555	0.514137
H110	H	-1.030689	0.098677	0.605156
O111	O	-1.174113	0.518389	0.000059
C112	C	-1.323918	0.545555	0.000143
C113	C	-1.236529	0.580216	0.000143
H114	H	-1.374404	0.595525	0.000229
H115	H	-1.333971	0.510623	-0.060239
H116	H	-1.328068	0.504844	0.060507
H117	H	-1.232317	0.620961	-0.060180
H118	H	-1.226513	0.615101	0.060565
H119	H	-0.540650	-0.183270	0.131308
O120	O	-0.874847	0.481396	-0.000103
C121	C	-0.798310	0.381735	-0.074825
C122	C	-0.877923	0.436992	-0.074760
H123	H	-0.800778	0.345808	-0.135169
H124	H	-0.740315	0.418303	-0.074885
H125	H	-0.794924	0.340145	-0.014425
H126	H	-0.881390	0.478593	-0.135149
H127	H	-0.935879	0.400375	-0.074655
O128	O	-0.440734	-0.038257	0.142857
C129	C	-0.318374	0.001371	0.223594
C130	C	-0.352343	-0.037949	0.142379
H131	H	-0.246906	0.001618	0.223245
H132	H	-0.345880	0.064630	0.223506
H133	H	-0.337194	-0.033080	0.284195
H134	H	-0.333535	-0.003562	0.081735
H135	H	-0.324841	-0.101214	0.142544
O136	O	-0.824881	0.267111	-0.000062
C137	C	-0.732394	0.352113	-0.074835
C138	C	-0.819742	0.317370	-0.074793
H139	H	-0.728204	0.392741	-0.135257
H140	H	-0.722389	0.387122	-0.014503
H141	H	-0.681896	0.302142	-0.074799
H142	H	-0.870293	0.367291	-0.074860
H143	H	-0.829674	0.282339	-0.135120
H144	H	-0.892055	-0.214188	0.213811
O145	O	-1.095115	-0.012069	0.206811
C146	C	-1.200903	0.093149	0.216404
C147	C	-1.139620	0.032121	0.266301
H148	H	-1.236914	0.128881	0.264479
H149	H	-1.164079	0.134419	0.173927
H150	H	-1.247129	0.061281	0.173855
H151	H	-1.093380	0.063921	0.308897
H152	H	-1.176499	-0.009146	0.308722
H153	H	-1.078476	-0.028689	0.378551
