data_functionalizedCrystal
_audit_creation_method	'MofGen! by Chris Wilmer'
_symmetry_space_group_name_H-M	'P1'
_symmetry_Int_Tables_number	1
_symmetry_cell_setting	triclinic
loop_
_symmetry_equiv_pos_as_xyz
  x,y,z
_cell_length_a	18.101398
_cell_length_b	18.101395
_cell_length_c	12.759393
_cell_angle_alpha	89.963506
_cell_angle_beta	89.984086
_cell_angle_gamma	90.030104
loop_
_atom_site_label
_atom_site_type_symbol
_atom_site_fract_x
_atom_site_fract_y
_atom_site_fract_z
Zn1	Zn	1.132128	-0.294821	-0.593906
Zn2	Zn	1.632128	0.205179	-0.093906
Zn3	Zn	1.132019	-0.418683	-0.418211
Zn4	Zn	1.632019	0.081317	0.081789
Zn5	Zn	1.008284	-0.294856	-0.418250
Zn6	Zn	1.508284	0.205144	0.081750
Zn7	Zn	1.008236	-0.418621	-0.593857
Zn8	Zn	1.508236	0.081379	-0.093857
O9	O	1.070167	-0.356745	-0.506056
O10	O	1.570167	0.143255	-0.006056
O11	O	1.235746	-0.311263	-0.570604
O12	O	1.735746	0.188737	-0.070604
O13	O	1.115579	-0.402298	-0.271195
O14	O	1.615579	0.097702	0.228805
O15	O	1.024778	-0.191218	-0.441587
O16	O	1.524778	0.308782	0.058413
O17	O	1.235666	-0.402264	-0.441522
O18	O	1.735666	0.097736	0.058478
O19	O	1.115766	-0.191193	-0.570641
O20	O	1.615766	0.308807	-0.070641
O21	O	1.024672	-0.311322	-0.271223
O22	O	1.524672	0.188678	0.228777
O23	O	0.904644	-0.311262	-0.441540
O24	O	1.404644	0.188738	0.058460
O25	O	1.024696	-0.402158	-0.740885
O26	O	1.524696	0.097842	-0.240885
O27	O	0.904609	-0.402192	-0.570558
O28	O	1.404609	0.097808	-0.070558
O29	O	1.115719	-0.311203	-0.740920
O30	O	1.615719	0.188797	-0.240920
O31	O	1.115533	-0.522308	-0.441475
O32	O	1.615533	-0.022308	0.058525
O33	O	1.024590	-0.522262	-0.570521
O34	O	1.524590	-0.022262	-0.070521
C35	C	0.877756	-0.356725	-0.506049
C36	C	1.377756	0.143275	-0.006049
C37	C	0.795442	-0.356734	-0.506071
C38	C	1.295442	0.143266	-0.006071
C39	C	0.644734	-0.356748	-0.506069
C40	C	1.144734	0.143252	-0.006069
C41	C	0.613383	-0.414047	-0.587118
C42	C	1.113383	0.085953	-0.087118
C43	C	0.527764	-0.414279	-0.586878
C44	C	1.027764	0.085721	-0.086878
C45	C	0.496351	-0.356761	-0.506069
C46	C	0.996351	0.143239	-0.006069
C47	C	0.527401	-0.377598	-0.395211
C48	C	1.027401	0.122402	0.104789
C49	C	0.613046	-0.378005	-0.395679
C50	C	1.113046	0.121995	0.104321
C51	C	0.613214	-0.278471	-0.534910
C52	C	1.113214	0.221529	-0.034910
C53	C	0.527564	-0.278900	-0.537352
C54	C	1.027564	0.221100	-0.037352
C55	C	0.412491	-0.356768	-0.506062
C56	C	0.912491	0.143232	-0.006062
C57	C	0.728593	-0.356743	-0.506068
C58	C	1.228593	0.143257	-0.006068
C59	C	1.070065	-0.549156	-0.506012
C60	C	1.570065	-0.049156	-0.006012
C61	C	1.070089	-0.631470	-0.506028
C62	C	1.570089	-0.131470	-0.006028
C63	C	1.070174	-0.782178	-0.506069
C64	C	1.570174	-0.282178	-0.006069
C65	C	1.012926	-0.813535	-0.587199
C66	C	1.512926	-0.313535	-0.087199
C67	C	1.013142	-0.899153	-0.587542
C68	C	1.513142	-0.399153	-0.087542
C69	C	1.070256	-0.930561	-0.506111
C70	C	1.570256	-0.430561	-0.006111
C71	C	1.148332	-0.899378	-0.535888
C72	C	1.648332	-0.399378	-0.035888
C73	C	1.147953	-0.813733	-0.536453
C74	C	1.647953	-0.313733	-0.036453
C75	C	1.050047	-0.813824	-0.394967
C76	C	1.550047	-0.313824	0.105033
C77	C	1.048372	-0.899476	-0.395583
C78	C	1.548372	-0.399476	0.104417
C79	C	1.070308	-1.014420	-0.506132
C80	C	1.570308	-0.514420	-0.006132
C81	C	1.070128	-0.698319	-0.506051
C82	C	1.570128	-0.198319	-0.006051
C83	C	1.263328	-0.356766	-0.506064
C84	C	1.763328	0.143234	-0.006064
C85	C	1.345643	-0.356775	-0.506067
C86	C	1.845643	0.143225	-0.006067
C87	C	1.070215	-0.356670	-0.780089
C88	C	1.570215	0.143330	-0.280089
C89	C	1.070235	-0.356638	-0.896866
C90	C	1.570235	0.143362	-0.396866
C91	C	1.070289	-0.163583	-0.506124
C92	C	1.570289	0.336417	-0.006124
C93	C	1.070341	-0.081269	-0.506152
C94	C	1.570341	0.418731	-0.006152
C95	C	1.022920	-0.309258	-0.951749
C96	C	1.522920	0.190742	-0.451749
C97	C	1.022942	-0.309236	-1.061473
C98	C	1.522942	0.190764	-0.561473
C99	C	1.117602	-0.403975	-1.061422
C100	C	1.617602	0.096025	-0.561422
C101	C	1.117575	-0.404001	-0.951700
C102	C	1.617575	0.095999	-0.451700
C103	C	0.968271	-0.254559	-0.951779
C104	C	1.468271	0.245441	-0.451779
C105	C	0.968293	-0.254537	-1.061503
C106	C	1.468293	0.245463	-0.561503
C107	C	1.070161	-0.356767	-0.233089
C108	C	1.570161	0.143233	0.266911
C109	C	1.070284	-0.356590	-0.116312
C110	C	1.570284	0.143410	0.383688
H111	H	0.634842	-0.259436	-0.614386
H112	H	1.134842	0.240564	-0.114386
H113	H	0.913801	-0.275065	-1.095529
H114	H	1.413801	0.224935	-0.595529
F115	F	0.995162	-0.183362	-0.907320
F116	F	1.495162	0.316638	-0.407320
H117	H	1.091738	-0.793538	-0.334522
H118	H	1.591738	-0.293538	0.165478
H119	H	1.026528	-0.919584	-0.669868
H120	H	1.526528	-0.419584	-0.169868
H121	H	1.192074	-0.792985	-0.479917
H122	H	1.692074	-0.292985	0.020083
F123	F	0.988333	-0.179538	-1.100464
F124	F	1.488333	0.320462	-0.600464
F125	F	0.936993	-0.786702	-0.563162
F126	F	1.436993	-0.286702	-0.063162
H127	H	1.156093	-0.442592	-0.907019
H128	H	1.656093	0.057408	-0.407019
F129	F	1.167981	-0.454380	-1.119789
F130	F	1.667981	0.045620	-0.619789
H131	H	0.910896	-0.269916	-0.922002
H132	H	1.410896	0.230084	-0.422002
F133	F	1.205638	-0.925950	-0.461032
F134	F	1.705638	-0.425950	0.038968
F135	F	0.973268	-0.926125	-0.366225
F136	F	1.473268	-0.426125	0.133775
F137	F	0.499322	-0.451557	-0.362801
F138	F	0.999322	0.048443	0.137199
F139	F	0.500323	-0.397290	-0.694301
F140	F	1.000323	0.102710	-0.194301
F141	F	0.499612	-0.220149	-0.465888
F142	F	0.999612	0.279851	0.034112
H143	H	0.634005	-0.401199	-0.669559
H144	H	1.134005	0.098801	-0.169559
H145	H	0.634869	-0.471720	-0.568214
H146	H	1.134869	0.028280	-0.068214
H147	H	0.507241	-0.472285	-0.567743
H148	H	1.007241	0.027715	-0.067743
H149	H	0.633491	-0.235784	-0.475884
H150	H	1.133491	0.264216	0.024116
F151	F	0.639113	-0.452786	-0.363837
F152	F	1.139113	0.047214	0.136163
H153	H	1.026103	-0.791958	-0.669054
H154	H	1.526103	-0.291958	-0.169054
H155	H	0.955254	-0.920241	-0.568930
H156	H	1.455254	-0.420241	-0.068930
H157	H	1.164989	-0.793696	-0.617660
H158	H	1.664989	-0.293696	-0.117660
F159	F	0.501044	-0.258353	-0.643991
F160	F	1.001044	0.241647	-0.143991
H161	H	0.507054	-0.337144	-0.333164
H162	H	1.007054	0.162856	0.166836
H163	H	0.633785	-0.338056	-0.333219
H164	H	1.133785	0.161944	0.166781
H165	H	1.165687	-0.920767	-0.616214
H166	H	1.665687	-0.420767	-0.116214
F167	F	0.976865	-0.785688	-0.359459
F168	F	1.476865	-0.285688	0.140541
H169	H	1.087030	-0.920867	-0.331932
H170	H	1.587030	-0.420867	0.168068
