data_functionalizedCrystal
_audit_creation_method	'MofGen! by Chris Wilmer'
_symmetry_space_group_name_H-M	'P1'
_symmetry_Int_Tables_number	1
_symmetry_cell_setting	triclinic
loop_
_symmetry_equiv_pos_as_xyz
  x,y,z
_cell_length_a	18.366186
_cell_length_b	19.288864
_cell_length_c	19.288865
_cell_angle_alpha	96.863755
_cell_angle_beta	90.011479
_cell_angle_gamma	89.977106
loop_
_atom_site_label
_atom_site_type_symbol
_atom_site_fract_x
_atom_site_fract_y
_atom_site_fract_z
O1	O	0.060791	-0.921353	0.086649
O2	O	0.060743	-0.719092	0.098337
O3	O	0.060754	-0.826067	-0.008637
O4	O	0.060780	-0.814378	0.193623
O5	O	-0.060345	-0.826049	-0.008643
O6	O	-0.060357	-0.719074	0.098332
O7	O	-0.060308	-0.921335	0.086643
Zn8	Zn	-0.079559	-0.820201	0.092487
Zn9	Zn	0.079994	-0.820225	0.092494
O10	O	-0.060319	-0.814360	0.193618
C11	C	0.000187	-0.693207	0.097959
C12	C	0.000167	-0.616103	0.096830
N13	N	-0.188451	-0.820190	0.092482
C14	C	0.000202	-0.825682	-0.034516
C15	C	0.000195	-0.824553	-0.111620
C16	C	-0.226546	-0.867574	0.045137
C17	C	-0.302774	-0.867578	0.045134
C18	C	-0.340903	-0.820206	0.092488
C19	C	-0.302799	-0.772813	0.139836
C20	C	-0.226572	-0.772805	0.139834
C21	C	-0.461657	-0.810907	0.155775
C22	C	-0.537882	-0.810920	0.155779
C23	C	-0.576011	-0.820225	0.092496
C24	C	-0.537905	-0.829533	0.029207
C25	C	-0.461679	-0.829525	0.029204
C26	C	-0.423558	-0.820208	0.092496
C27	C	-0.696761	-0.867617	0.045144
C28	C	-0.772990	-0.867616	0.045140
C29	C	-0.773014	-0.772854	0.139849
C30	C	-0.696786	-0.772851	0.139847
C31	C	-0.658664	-0.820236	0.092495
N32	N	0.188885	-0.820242	0.092493
C33	C	0.000250	-0.947220	0.087022
C34	C	0.000274	-1.024324	0.088151
C35	C	0.000187	-0.571407	0.159598
C36	C	0.000195	-0.498960	0.158537
C37	C	0.000198	-0.471212	0.094705
C38	C	0.000174	-0.515918	0.031929
C39	C	0.000159	-0.588364	0.032991
C40	C	0.042642	-0.362956	0.044527
C41	C	0.042662	-0.290512	0.043468
C42	C	0.000241	-0.247767	0.091425
C43	C	-0.042189	-0.277473	0.140454
C44	C	-0.042205	-0.349918	0.141517
C45	C	0.000214	-0.392658	0.093546
C46	C	0.000269	-0.124514	0.153047
C47	C	0.000272	-0.052066	0.151984
C48	C	0.000259	-0.069026	0.025374
C49	C	0.000248	-0.141473	0.026439
C50	C	0.000256	-0.169212	0.090278
C51	C	0.000207	-0.887321	-0.156316
C52	C	0.000218	-0.886260	-0.228763
C53	C	0.000203	-0.822428	-0.256511
C54	C	0.000196	-0.759652	-0.211805
C55	C	0.000192	-0.760714	-0.139359
C56	C	-0.042227	-0.772242	-0.364800
C57	C	-0.042228	-0.771182	-0.437245
C58	C	0.000219	-0.819148	-0.479956
C59	C	0.042657	-0.868186	-0.450216
C60	C	0.042653	-0.869248	-0.377771
C61	C	0.000208	-0.821269	-0.335065
C62	C	0.000244	-0.880770	-0.603209
C63	C	0.000259	-0.879707	-0.675657
C64	C	0.000230	-0.753097	-0.658697
C65	C	0.000221	-0.754162	-0.586250
C66	C	0.000225	-0.818001	-0.558511
C67	C	0.000234	-0.814745	0.219497
C68	C	0.000246	-0.815874	0.296601
H69	H	-0.195509	-0.906156	0.006579
O70	O	-0.343877	-0.918694	-0.005926
H71	H	-0.304562	-0.951645	-0.038848
O72	O	0.000209	-0.684249	-0.688617
H73	H	0.049561	-0.654106	-0.670640
O74	O	-0.185472	-0.721699	0.190899
H75	H	-0.200076	-0.730378	0.245028
O76	O	-0.814143	-0.721777	0.190933
H77	H	-0.799486	-0.730467	0.245053
H78	H	0.000185	-0.707679	-0.234401
O79	O	0.000175	-0.601328	0.228449
H80	H	0.000179	-0.558071	0.271917
O81	O	0.000257	-0.039113	-0.043478
H82	H	0.049623	-0.006544	-0.046995
H83	H	-0.568948	-0.837110	-0.022324
O84	O	0.000224	-0.450737	0.226238
H85	H	0.000232	-0.482198	0.270807
O86	O	-0.655690	-0.721752	0.190920
H87	H	-0.695007	-0.688815	0.223853
H88	H	-0.076756	-0.374102	0.181436
H89	H	-0.076733	-0.242671	0.179506
O90	O	-0.814079	-0.918725	-0.005933
H91	H	-0.873489	-0.910765	0.002016
H92	H	0.077208	-0.909175	-0.353560
H93	H	0.000236	-0.177866	-0.024674
O94	O	0.000262	-0.949623	-0.573287
H95	H	-0.049101	-0.953136	-0.540705
O96	O	0.088449	-0.919923	-0.496271
H97	H	0.081333	-0.910942	-0.551643
O98	O	-0.578974	-0.800885	0.224040
H99	H	-0.638384	-0.802464	0.213412
H100	H	0.000182	-0.709599	-0.102967
O101	O	0.000266	-0.947409	-0.723871
H102	H	0.000258	-0.991975	-0.692408
H103	H	0.000284	-0.015674	0.203099
O104	O	0.000191	-0.686462	-0.538034
H105	H	0.000174	-0.641896	-0.569498
O106	O	0.000171	-0.485994	-0.036920
H107	H	0.049517	-0.503998	-0.067075
O108	O	0.000263	-0.154442	0.221897
H109	H	0.000264	-0.111187	0.265367
O110	O	-0.087999	-0.718297	-0.469321
H111	H	-0.117504	-0.685112	-0.427451
O112	O	-0.343926	-0.721727	0.190917
H113	H	-0.329268	-0.730407	0.245039
O114	O	-0.420576	-0.839551	-0.039051
H115	H	-0.459890	-0.846017	-0.083059
H116	H	-0.076796	-0.733180	-0.330029
H117	H	0.077215	-0.266331	0.003548
H118	H	0.000212	-0.939303	-0.133736
O119	O	0.088403	-0.409059	-0.007198
H120	H	0.117919	-0.376233	-0.041459
O121	O	0.000138	-0.636579	-0.034711
H122	H	0.049496	-0.626773	-0.065268
O123	O	-0.655635	-0.918712	-0.005933
H124	H	-0.694935	-0.951655	-0.038866
O125	O	-0.420533	-0.800876	0.224035
H126	H	-0.459834	-0.794418	0.268042
O127	O	0.000221	-0.953961	-0.276986
H128	H	0.000217	-0.998530	-0.245525
