data_functionalizedCrystal
_audit_creation_method	'MofGen! by Chris Wilmer'
_symmetry_space_group_name_H-M	'P1'
_symmetry_Int_Tables_number	1
_symmetry_cell_setting	triclinic
loop_
_symmetry_equiv_pos_as_xyz
  x,y,z
_cell_length_a	9.065218
_cell_length_b	14.971482
_cell_length_c	14.048226
_cell_angle_alpha	89.994098
_cell_angle_beta	90.004897
_cell_angle_gamma	95.685753
loop_
_atom_site_label
_atom_site_type_symbol
_atom_site_fract_x
_atom_site_fract_y
_atom_site_fract_z
O1	O	-0.192235	1.188382	-0.079145
O2	O	-0.215264	0.928153	-0.079149
O3	O	0.011002	1.063646	-0.079144
O4	O	-0.418501	1.052888	-0.079150
O5	O	0.011015	1.063630	0.079177
O6	O	-0.215251	0.928136	0.079172
O7	O	-0.192222	1.188365	0.079176
Zn8	Zn	-0.203734	1.058248	0.104311
Zn9	Zn	-0.203752	1.058270	-0.104284
O10	O	-0.418488	1.052872	0.079171
C11	C	-0.214229	0.894812	0.000011
C12	C	-0.211145	0.795492	0.000009
C13	C	-0.209686	0.748827	0.086311
C14	C	-0.206765	0.655507	0.086312
C15	C	-0.205314	0.608852	0.000010
C16	C	-0.206770	0.655524	-0.086298
C17	C	-0.209680	0.748843	-0.086299
C18	C	-0.200708	0.461017	-0.086292
C19	C	-0.197800	0.367691	-0.086293
C20	C	-0.197793	0.367681	0.086318
C21	C	-0.200703	0.461000	0.086318
C22	C	-0.202161	0.507665	0.000009
C23	C	-0.473460	1.053914	0.000010
C24	C	-0.637240	1.057005	0.000008
C25	C	0.065974	1.062604	0.000015
C26	C	0.229754	1.059513	0.000011
C27	C	-0.193257	1.221706	0.000014
C28	C	-0.196341	1.321026	0.000009
N29	N	-0.203721	1.058240	0.246672
N30	N	-0.203753	1.058285	-0.246645
C31	C	-0.103572	1.118255	0.296492
C32	C	-0.103571	1.118262	0.396150
C33	C	-0.203728	1.058255	0.445985
C34	C	-0.303882	0.998233	0.396158
C35	C	-0.303874	0.998223	0.296502
C36	C	-0.303893	0.998259	0.603872
C37	C	-0.303902	0.998269	0.703535
C38	C	-0.103589	1.118297	0.703520
C39	C	-0.103582	1.118287	0.603864
C40	C	-0.203738	1.058266	0.554043
H41	H	-0.205578	0.617531	-0.156567
H42	H	-0.201895	0.499008	-0.156574
H43	H	-0.385424	0.949351	0.255939
H44	H	-0.022034	1.167153	0.563288
H45	H	-0.210879	0.786806	0.156588
H46	H	-0.210871	0.786836	-0.156575
H47	H	-0.022039	1.167168	0.744089
H48	H	-0.022019	1.167123	0.255922
H49	H	-0.196606	0.329682	0.156594
H50	H	-0.022021	1.167130	0.436713
H51	H	-0.385459	0.949405	0.744106
H52	H	-0.201893	0.498983	0.156593
H53	H	-0.385427	0.949370	0.436740
H54	H	-0.205552	0.617519	0.156588
H55	H	-0.196620	0.329707	-0.156567
H56	H	-0.385446	0.949380	0.563312
