data_functionalizedCrystal
_audit_creation_method	'MofGen! by Chris Wilmer'
_symmetry_space_group_name_H-M	'P1'
_symmetry_Int_Tables_number	1
_symmetry_cell_setting	triclinic
loop_
_symmetry_equiv_pos_as_xyz
  x,y,z
_cell_length_a	31.640172
_cell_length_b	31.640172
_cell_length_c	23.196401
_cell_angle_alpha	90.009695
_cell_angle_beta	59.995875
_cell_angle_gamma	60.004780
loop_
_atom_site_label
_atom_site_type_symbol
_atom_site_fract_x
_atom_site_fract_y
_atom_site_fract_z
Zr1	Zr	0.462544	0.407235	-0.075579
O2	O	0.550731	0.339745	-0.167649
O3	O	0.374371	0.427916	-0.047356
O4	O	0.462553	0.427912	-0.167634
O5	O	0.462537	0.339762	0.047508
O6	O	0.462545	0.497469	-0.167622
O7	O	0.462549	0.339749	-0.047371
O8	O	0.304803	0.497476	0.047535
O9	O	0.620279	0.339755	-0.167648
O10	O	0.410627	0.488656	-0.035308
O11	O	0.410624	0.436756	0.035489
O12	O	0.514447	0.436751	-0.106123
O13	O	0.514445	0.384851	-0.035326
Zr14	Zr	0.462511	0.518191	0.075762
Zr15	Zr	0.462530	0.518171	-0.075559
Zr16	Zr	0.462525	0.407256	0.075741
Zr17	Zr	0.573465	0.407250	-0.075578
Zr18	Zr	0.351591	0.518176	0.075760
O19	O	0.550684	0.497510	0.047538
O20	O	0.550711	0.497481	-0.167620
O21	O	0.550704	0.339774	0.047510
O22	O	0.374324	0.585681	0.167831
O23	O	0.374352	0.585652	-0.047327
O24	O	0.374344	0.427945	0.167803
O25	O	0.462518	0.585664	-0.047326
O26	O	0.462502	0.497514	0.167817
O27	O	0.462511	0.427957	0.167804
O28	O	0.462506	0.585677	0.047553
O29	O	0.620268	0.427934	-0.167632
O30	O	0.304788	0.497493	0.167814
O31	O	0.304777	0.585672	0.167830
O32	O	0.304792	0.585655	0.047551
O33	O	0.620264	0.339771	-0.047368
O34	O	0.620252	0.427950	-0.047352
O35	O	0.410609	0.488675	0.106306
O36	O	0.410611	0.540575	0.035508
O37	O	0.514432	0.488670	-0.035307
O38	O	0.514429	0.436770	0.035491
C39	C	0.323784	0.462694	0.000089
C40	C	0.276695	0.462688	0.000088
C41	C	-0.015346	0.489815	-0.036858
C42	C	-0.192341	0.489826	-0.036857
O43	O	-0.215245	0.512885	-0.068261
N44	N	-0.214472	0.462734	0.000097
C45	C	-0.192353	0.435640	0.037057
O46	O	-0.215242	0.412601	0.068495
C47	C	-0.015361	0.435633	0.037061
C48	C	0.006771	0.462722	0.000098
C49	C	0.006786	0.516903	-0.073817
C50	C	0.051035	0.516897	-0.073820
C51	C	0.073151	0.489804	-0.036864
C52	C	0.051020	0.462717	0.000095
C53	C	0.006753	0.408542	0.074025
C54	C	0.051003	0.408544	0.074024
C55	C	0.073135	0.435633	0.037061
C56	C	0.117385	0.435619	0.037048
N57	N	0.139515	0.462711	0.000094
C58	C	0.117399	0.489803	-0.036862
C59	C	-0.285276	0.435645	0.037052
C60	C	-0.329523	0.435646	0.037050
C61	C	-0.329509	0.489832	-0.036864
C62	C	-0.285258	0.489828	-0.036866
C63	C	-0.263145	0.462737	0.000098
C64	C	0.210324	0.489790	-0.036866
C65	C	0.254578	0.489781	-0.036868
C66	C	0.254558	0.435596	0.037049
C67	C	0.210310	0.435603	0.037048
C68	C	0.188193	0.462704	0.000090
O69	O	0.140311	0.412576	0.068442
O70	O	0.140286	0.512848	-0.068282
C71	C	-0.059594	0.489820	-0.036855
C72	C	-0.081726	0.462732	0.000104
C73	C	-0.059609	0.435640	0.037060
C74	C	-0.125973	0.462733	0.000102
C75	C	-0.148090	0.489826	-0.036854
C76	C	-0.125960	0.516918	-0.073808
C77	C	-0.081711	0.516913	-0.073811
C78	C	-0.081740	0.408548	0.074014
C79	C	-0.125988	0.408555	0.074013
C80	C	-0.148105	0.435648	0.037057
C81	C	0.462545	0.323950	0.000066
C82	C	0.462551	0.276855	0.000057
C83	C	0.408329	0.011943	0.037070
C84	C	0.408319	-0.165042	0.037084
O85	O	0.362229	-0.164886	0.068547
N86	N	0.462511	-0.214266	0.000118
C87	C	0.516711	-0.219242	-0.036849
O88	O	0.562805	-0.265171	-0.068285
C89	C	0.516720	-0.042258	-0.036859
C90	C	0.462524	0.006965	0.000103
C91	C	0.354137	0.061164	0.074030
C92	C	0.354140	0.105407	0.074023
C93	C	0.408335	0.100429	0.037056
C94	C	0.462527	0.051209	0.000096
C95	C	0.570919	-0.047235	-0.073822
C96	C	0.570917	-0.002984	-0.073820
C97	C	0.516720	0.046239	-0.036858
C98	C	0.516725	0.090474	-0.036877
N99	N	0.462533	0.139698	0.000088
C100	C	0.408338	0.144675	0.037055
C101	C	0.516702	-0.312160	-0.036843
C102	C	0.516700	-0.356406	-0.036842
C103	C	0.408307	-0.302203	0.037093
C104	C	0.408310	-0.257956	0.037087
C105	C	0.462509	-0.262936	0.000123
C106	C	0.408348	0.237588	0.037037
C107	C	0.408356	0.281832	0.037024
C108	C	0.516748	0.227625	-0.036907
C109	C	0.516741	0.183384	-0.036898
C110	C	0.462536	0.188369	0.000079
O111	O	0.562791	0.090357	-0.068317
O112	O	0.362250	0.190608	0.068498
C113	C	0.408326	-0.032301	0.037077
C114	C	0.462518	-0.081522	0.000117
C115	C	0.516713	-0.086499	-0.036849
C116	C	0.462516	-0.125768	0.000119
C117	C	0.408320	-0.120790	0.037085
C118	C	0.354128	-0.071566	0.074051
C119	C	0.354131	-0.027323	0.074044
C120	C	0.570906	-0.135723	-0.073815
C121	C	0.570898	-0.179964	-0.073806
C122	C	0.516703	-0.174986	-0.036839
C123	C	0.601272	0.462732	0.000093
C124	C	0.648361	0.462739	0.000094
C125	C	0.462552	0.462688	-0.189188
C126	C	0.462560	0.462679	-0.253428
C127	C	0.462510	0.601477	0.000116
C128	C	0.462504	0.648572	0.000125
C129	C	0.462556	0.501000	-0.283584
C130	C	0.462544	0.501011	-0.343930
C131	C	0.462548	0.462694	-0.374127
C132	C	0.462548	0.424370	-0.343961
C133	C	0.462554	0.424362	-0.283611
C134	C	0.497372	0.415934	-0.493516
C135	C	0.497370	0.415942	-0.553867
C136	C	0.462527	0.462717	-0.560263
C137	C	0.427693	0.509488	-0.506306
C138	C	0.427699	0.509480	-0.445956
C139	C	0.462541	0.462698	-0.439565
C140	C	0.462509	0.501053	-0.655853
C141	C	0.462493	0.501065	-0.716199
C142	C	0.462503	0.424419	-0.716232
C143	C	0.462513	0.424412	-0.655884
C144	C	0.462519	0.462728	-0.625700
C145	C	0.462504	0.462739	0.189370
C146	C	0.462496	0.462748	0.253610
C147	C	0.323766	0.601457	0.000114
C148	C	0.276672	0.648546	0.000122
C149	C	0.323760	0.462720	0.189368
C150	C	0.276663	0.462722	0.253607
C151	C	0.323742	0.601483	0.189393
C152	C	0.276640	0.648580	0.253641
C153	C	0.601313	0.323943	-0.189211
C154	C	0.648416	0.276846	-0.253459
C155	C	0.601290	0.323969	0.000068
C156	C	0.648384	0.276880	0.000060
C157	C	0.601296	0.462707	-0.189186
C158	C	0.648393	0.462704	-0.253425
C159	C	0.254564	0.643558	-0.036846
C160	C	0.210319	0.687798	-0.036853
C161	C	0.188181	0.737026	0.000113
C162	C	0.210294	0.742013	0.037082
C163	C	0.254540	0.697773	0.037085
C164	C	0.254538	0.489824	0.320746
C165	C	0.210292	0.489825	0.381111
C166	C	0.188169	0.462725	0.374336
C167	C	0.210298	0.435619	0.307190
C168	C	0.254546	0.435617	0.246826
C169	C	0.254521	0.697794	0.246857
C170	C	0.210269	0.742051	0.307218
C171	C	0.188134	0.737093	0.374363
C172	C	0.210257	0.687875	0.381146
C173	C	0.254511	0.643619	0.320785
C174	C	0.670540	0.227633	-0.246674
C175	C	0.714805	0.183376	-0.307036
C176	C	0.736943	0.188333	-0.374181
C177	C	0.714817	0.237551	-0.380964
C178	C	0.670556	0.281807	-0.320603
C179	C	0.670497	0.281868	0.037022
C180	C	0.714753	0.237628	0.037012
C181	C	0.736893	0.188400	0.000044
C182	C	0.714779	0.183413	-0.036922
C183	C	0.670526	0.227653	-0.036916
C184	C	0.670502	0.489809	-0.246627
C185	C	0.714748	0.489817	-0.306980
C186	C	0.736888	0.462717	-0.374131
C187	C	0.714774	0.435611	-0.380928
C188	C	0.670526	0.435607	-0.320575
H189	H	-0.011219	0.538967	-0.103910
H190	H	0.399320	0.547576	-0.511509
H191	H	0.732748	0.511889	-0.301432
H192	H	0.560872	0.143304	-0.067005
C193	C	-0.260920	0.519632	-0.077521
N194	N	-0.242593	0.542084	-0.108143
H195	H	0.462503	0.393222	-0.740815
H196	H	0.772926	0.152381	0.000045
H197	H	0.652543	0.321878	-0.326135
C198	C	0.646154	0.336015	0.077689
N199	N	0.627825	0.376798	0.108317
H200	H	0.615039	-0.139784	-0.103920
C201	C	0.294513	-0.066099	0.114716
N202	N	0.249614	-0.061985	0.145346
C203	C	0.785564	0.462726	-0.440515
N204	N	0.822228	0.462734	-0.490512
C205	C	0.739113	0.405825	-0.454801
N206	N	0.757441	0.383395	-0.510444
H207	H	0.462550	0.393172	-0.368549
H208	H	0.272546	0.511892	0.326277
C209	C	0.462596	0.382186	-0.250464
N210	N	0.462642	0.350410	-0.225507
H211	H	0.192262	0.782101	0.067178
C212	C	0.739066	0.243125	0.077686
N213	N	0.757376	0.247267	0.108323
C214	C	0.294519	0.159549	0.114691
N215	N	0.249610	0.200328	0.145328
H216	H	0.462511	0.532254	-0.631275
H217	H	-0.267276	0.413583	0.067154
H218	H	0.732812	0.143326	-0.067020
C219	C	0.630541	-0.008468	-0.114488
N220	N	0.675451	-0.012599	-0.145121
C221	C	0.139488	0.462739	0.440745
N222	N	0.102819	0.462754	0.490767
C223	C	0.646200	0.222157	-0.077570
N224	N	0.627879	0.218014	-0.108192
H225	H	0.272534	0.701842	0.067193
C226	C	0.739135	0.129240	-0.299559
N227	N	0.757458	0.088467	-0.293925
H228	H	0.652483	0.511877	-0.191954
H229	H	0.399336	0.547562	-0.402025
C230	C	0.785628	0.139645	-0.440573
N231	N	0.822294	0.102971	-0.490578
C232	C	0.185952	0.519650	0.454965
N233	N	0.167619	0.542116	0.510590
H234	H	-0.011260	0.386484	0.104124
C235	C	0.185953	0.405815	0.299748
N236	N	0.167612	0.383369	0.294146
C237	C	0.646218	0.405779	-0.328065
N238	N	0.627914	0.383310	-0.333712
C239	C	0.278873	0.405806	0.172974
N240	N	0.297192	0.383353	0.117350
H241	H	0.272598	0.511840	-0.066969
H242	H	0.732847	0.241582	-0.435641
H243	H	0.069051	0.538958	-0.103915
C244	C	0.186006	0.519597	-0.077528
N245	N	0.167694	0.542045	-0.108161
H246	H	-0.347523	0.511892	-0.066956
H247	H	0.364210	0.241654	0.067148
C248	C	0.075325	0.378740	0.114687
N249	N	0.093644	0.356290	0.145312
H250	H	0.462520	0.393205	-0.631331
H251	H	0.152100	0.773134	0.423507
H252	H	0.364179	-0.298156	0.067188
C253	C	0.185985	0.405783	0.077680
N254	N	0.167668	0.383320	0.108282
H255	H	0.272537	0.701840	0.192189
C256	C	0.462474	0.543231	-0.749360
N257	N	0.462455	0.574993	-0.774335
H258	H	0.192321	0.683728	-0.066957
C259	C	-0.057375	0.546717	-0.114468
N260	N	-0.039049	0.569169	-0.145091
H261	H	-0.347532	0.413580	0.067139
H262	H	0.192228	0.683846	0.435824
C263	C	-0.150298	0.546722	-0.114458
N264	N	-0.168634	0.569171	-0.145070
C265	C	0.139505	0.785687	0.000109
N266	N	0.102839	0.822336	0.000106
H267	H	0.272575	0.413536	0.067135
C268	C	-0.057427	0.378751	0.114684
N269	N	-0.039118	0.356308	0.145321
C270	C	-0.150347	0.378771	0.114703
N271	N	-0.168704	0.356349	0.145365
H272	H	0.192261	0.782123	0.301683
C273	C	0.278835	0.589485	0.328260
N274	N	0.297155	0.548712	0.333895
H275	H	0.525740	0.377841	-0.488313
H276	H	0.310002	0.065226	0.104136
C277	C	0.348691	-0.203813	0.077753
N278	N	0.303782	-0.163034	0.108387
H279	H	0.364221	0.321912	0.067125
H280	H	0.272588	0.603478	-0.066957
H281	H	0.560832	-0.396482	-0.066949
H282	H	0.560840	-0.316223	-0.066949
H283	H	0.615052	-0.087308	-0.103920
H284	H	0.309998	0.012753	0.104144
C285	C	0.630523	-0.234108	-0.114471
N286	N	0.675431	-0.274888	-0.145095
H287	H	0.560872	0.223581	-0.067007
H288	H	0.462541	0.532218	-0.368488
C289	C	0.535682	0.364493	-0.613212
N290	N	0.564538	0.325739	-0.657908
C291	C	0.462554	0.543153	-0.250379
N292	N	0.462549	0.574906	-0.225367
H293	H	0.652518	0.223586	-0.192007
