data_functionalizedCrystal
_audit_creation_method	'MofGen! by Chris Wilmer'
_symmetry_space_group_name_H-M	'P1'
_symmetry_Int_Tables_number	1
_symmetry_cell_setting	triclinic
loop_
_symmetry_equiv_pos_as_xyz
  x,y,z
_cell_length_a	17.077404
_cell_length_b	12.645330
_cell_length_c	17.077396
_cell_angle_alpha	89.974327
_cell_angle_beta	89.982940
_cell_angle_gamma	90.017917
loop_
_atom_site_label
_atom_site_type_symbol
_atom_site_fract_x
_atom_site_fract_y
_atom_site_fract_z
Zn1	Zn	1.200064	-0.422016	-0.443867
Zn2	Zn	1.199989	-0.599307	-0.312611
Zn3	Zn	1.068801	-0.422058	-0.312615
Zn4	Zn	1.068776	-0.599239	-0.443834
O5	O	1.134407	-0.510655	-0.378232
O6	O	1.309901	-0.445545	-0.426467
O7	O	1.182566	-0.575840	-0.202764
O8	O	1.086256	-0.273706	-0.330041
O9	O	1.309846	-0.575799	-0.330034
O10	O	1.182694	-0.273675	-0.426471
O11	O	1.086183	-0.445617	-0.202767
O12	O	0.958951	-0.445551	-0.330009
O13	O	1.086212	-0.575684	-0.553686
O14	O	0.958932	-0.575725	-0.426416
O15	O	1.182669	-0.445479	-0.553709
O16	O	1.182541	-0.747645	-0.330003
O17	O	1.086139	-0.747595	-0.426412
C18	C	0.930460	-0.510636	-0.378210
C19	C	0.843210	-0.510653	-0.378219
C20	C	1.134350	-0.786085	-0.378221
C21	C	1.134398	-0.903915	-0.378242
C22	C	0.802230	-0.578537	-0.428338
C23	C	0.720250	-0.578539	-0.428350
C24	C	0.679250	-0.510662	-0.378240
C25	C	0.720236	-0.442771	-0.328119
C26	C	0.802215	-0.442764	-0.328111
C27	C	0.549366	-0.442792	-0.328138
C28	C	0.467381	-0.442800	-0.328145
C29	C	0.467401	-0.578567	-0.428377
C30	C	0.549380	-0.578560	-0.428369
C31	C	0.590359	-0.510670	-0.378247
C32	C	1.074001	-1.071491	-0.439080
C33	C	1.073692	-0.948932	-0.438885
C34	C	1.112009	-0.948511	-0.295515
C35	C	1.111641	-1.071109	-0.295885
C36	C	1.217551	-1.071003	-0.399460
C37	C	1.217042	-0.948396	-0.401269
C38	C	1.339152	-0.510675	-0.378254
C39	C	1.426402	-0.510684	-0.378263
C40	C	1.134446	-0.510569	-0.582976
C41	C	1.134463	-0.510533	-0.670226
C42	C	1.134486	-0.234150	-0.378260
C43	C	1.134520	-0.116320	-0.378272
C44	C	1.184721	-0.578216	-1.046041
C45	C	1.184701	-0.578247	-0.964061
C46	C	1.134513	-0.510458	-0.923075
C47	C	1.084337	-0.442640	-0.964074
C48	C	1.084353	-0.442615	-1.046053
C49	C	1.084307	-0.442695	-0.793204
C50	C	1.084292	-0.442718	-0.711219
C51	C	1.184655	-0.578327	-0.711212
C52	C	1.184671	-0.578302	-0.793191
C53	C	1.134496	-0.510483	-0.834184
C54	C	1.134414	-0.510664	-0.174284
C55	C	1.134550	-0.510402	-0.087034
H56	H	0.835606	-0.633814	-0.469141
C57	C	1.030864	-0.907173	-0.270826
C58	C	0.995733	-0.940000	-0.191390
C59	C	0.914585	-0.898665	-0.166706
C60	C	0.868569	-0.824504	-0.221459
C61	C	0.903700	-0.791674	-0.300900
C62	C	0.984848	-0.833008	-0.325584
H63	H	1.029797	-0.994902	-0.150854
H64	H	0.888580	-0.922969	-0.107898
H65	H	0.808499	-0.793905	-0.203186
H66	H	0.869636	-0.736772	-0.341436
H67	H	1.010854	-0.808705	-0.384393
C68	C	0.422279	-0.368130	-0.273029
C69	C	0.332106	-0.368145	-0.273037
C70	C	0.287004	-0.293474	-0.217920
C71	C	0.332075	-0.218788	-0.162795
C72	C	0.422254	-0.218770	-0.162785
C73	C	0.467356	-0.293441	-0.217902
H74	H	0.298736	-0.423435	-0.313845
H75	H	0.220247	-0.293488	-0.217928
H76	H	0.298688	-0.163512	-0.121995
H77	H	0.455623	-0.163480	-0.121977
H78	H	0.534112	-0.293427	-0.217894
H79	H	0.835579	-0.387481	-0.287304
C80	C	1.029115	-0.368094	-0.838299
C81	C	0.939873	-0.376728	-0.827019
C82	C	0.884686	-0.302127	-0.872116
C83	C	0.918741	-0.218892	-0.928493
C84	C	1.007987	-0.210254	-0.939776
C85	C	1.063175	-0.284856	-0.894680
H86	H	0.914659	-0.438347	-0.785282
H87	H	0.818619	-0.308522	-0.863763
H88	H	0.877888	-0.163667	-0.961877
H89	H	1.033201	-0.148635	-0.981513
H90	H	1.129241	-0.278461	-0.903032
H91	H	1.012137	-0.919698	-0.424848
C92	C	1.029166	-0.368017	-1.091149
C93	C	0.939924	-0.376659	-1.079865
C94	C	0.884732	-0.302064	-1.124961
C95	C	0.918780	-0.218826	-1.181341
C96	C	1.008026	-0.210181	-1.192627
C97	C	1.063219	-0.284777	-1.147532
H98	H	0.914715	-0.438279	-1.038127
H99	H	0.818666	-0.308464	-1.116605
H100	H	0.877924	-0.163606	-1.214723
H101	H	1.033236	-0.148561	-1.234365
H102	H	1.129285	-0.278377	-1.155887
H103	H	1.233925	-0.919245	-0.462152
H104	H	1.012830	-1.102393	-0.425223
H105	H	0.686847	-0.387500	-0.287322
H106	H	1.153807	-1.100767	-0.249033
C107	C	0.422330	-0.653247	-0.483515
C108	C	0.365940	-0.736420	-0.449401
C109	C	0.320867	-0.811103	-0.504533
C110	C	0.332183	-0.802614	-0.593779
C111	C	0.388575	-0.719438	-0.627898
C112	C	0.433648	-0.644754	-0.572766
H113	H	0.357562	-0.742707	-0.383332
H114	H	0.279122	-0.872675	-0.479276
H115	H	0.298817	-0.857899	-0.634591
H116	H	0.396954	-0.713150	-0.693968
H117	H	0.475393	-0.583182	-0.598023
H118	H	0.686888	-0.633818	-0.469161
C119	C	1.029083	-0.368154	-0.666132
C120	C	0.973886	-0.293564	-0.711219
C121	C	0.918677	-0.218999	-0.666132
C122	C	0.918666	-0.219024	-0.575958
C123	C	0.973866	-0.293617	-0.530866
C124	C	1.029074	-0.368182	-0.575953
H125	H	0.973892	-0.293543	-0.777975
H126	H	0.877815	-0.163780	-0.699512
H127	H	0.877797	-0.163826	-0.542582
H128	H	0.973859	-0.293638	-0.464110
H129	H	1.069937	-0.423401	-0.542573
C130	C	0.594480	-0.653225	-0.483491
C131	C	0.583186	-0.773729	-0.476938
C132	C	0.628285	-0.848393	-0.532062
C133	C	0.684678	-0.802553	-0.593739
C134	C	0.695975	-0.682042	-0.600295
C135	C	0.650875	-0.607379	-0.545170
H136	H	0.541438	-0.807669	-0.431278
H137	H	0.619922	-0.937603	-0.527208
H138	H	0.718063	-0.857823	-0.634545
H139	H	0.737723	-0.648103	-0.645954
H140	H	0.659238	-0.518168	-0.550024
C141	C	1.239927	-0.652788	-1.091124
C142	C	1.205894	-0.735990	-1.147467
C143	C	1.261099	-0.810567	-1.192548
C144	C	1.350337	-0.801941	-1.181286
C145	C	1.384374	-0.718736	-1.124941
C146	C	1.329169	-0.644159	-1.079860
H147	H	1.139831	-0.742378	-1.155805
H148	H	1.235902	-0.872161	-1.234258
H149	H	1.391203	-0.857147	-1.214658
H150	H	1.450437	-0.712348	-1.116602
H151	H	1.354366	-0.582565	-1.038150
C152	C	1.239906	-0.652840	-0.918984
C153	C	1.329144	-0.644169	-0.930287
C154	C	1.384358	-0.718765	-0.885218
C155	C	1.350335	-0.802032	-0.828847
C156	C	1.261093	-0.810706	-0.817542
C157	C	1.205879	-0.736110	-0.862611
H158	H	1.354334	-0.582527	-0.972019
H159	H	1.450421	-0.712343	-0.893587
H160	H	1.391208	-0.857253	-0.795485
H161	H	1.235903	-0.872348	-0.775810
H162	H	1.139815	-0.742532	-0.854241
H163	H	1.264505	-0.917746	-0.360204
H164	H	1.262639	-1.099992	-0.355171
H165	H	0.582729	-0.387499	-0.287331
H166	H	1.225542	-0.633497	-0.826559
H167	H	1.225510	-0.633548	-0.677831
H168	H	1.087699	-0.918777	-0.500226
H169	H	1.237975	-1.101846	-0.458759
H170	H	1.154691	-0.919353	-0.248970
C171	C	1.092747	-1.111212	-0.522226
C172	C	1.163234	-1.184843	-0.535928
C173	C	1.181984	-1.224566	-0.619076
C174	C	1.130247	-1.190659	-0.688522
C175	C	1.059755	-1.117025	-0.674822
C176	C	1.041005	-1.077301	-0.591674
H177	H	1.201538	-1.209946	-0.484518
H178	H	1.234168	-1.279076	-0.629217
H179	H	1.144127	-1.220065	-0.750074
H180	H	1.021452	-1.091921	-0.726232
H181	H	0.988822	-1.022792	-0.581533
H182	H	1.050944	-1.099801	-0.277936
H183	H	1.043470	-0.387450	-0.930696
