data_functionalizedCrystal
_audit_creation_method	'MofGen! by Chris Wilmer'
_symmetry_space_group_name_H-M	'P1'
_symmetry_Int_Tables_number	1
_symmetry_cell_setting	triclinic
loop_
_symmetry_equiv_pos_as_xyz
  x,y,z
_cell_length_a	19.288864
_cell_length_b	19.288865
_cell_length_c	17.766277
_cell_angle_alpha	89.983501
_cell_angle_beta	89.984341
_cell_angle_gamma	83.136245
loop_
_atom_site_label
_atom_site_type_symbol
_atom_site_fract_x
_atom_site_fract_y
_atom_site_fract_z
O1	O	-0.921345	-0.086655	0.062844
O2	O	-0.719084	-0.098343	0.062794
O3	O	-0.826059	0.008631	0.062806
O4	O	-0.814370	-0.193629	0.062832
O5	O	-0.826057	0.008649	-0.062383
O6	O	-0.719082	-0.098326	-0.062395
O7	O	-0.921343	-0.086637	-0.062344
Cu8	Cu	-0.820212	-0.092480	-0.073800
Cu9	Cu	-0.820215	-0.092501	0.074250
O10	O	-0.814368	-0.193612	-0.062356
C11	C	-0.693207	-0.097959	0.000193
C12	C	-0.616103	-0.096830	0.000173
C13	C	-0.825682	0.034516	0.000209
C14	C	-0.824553	0.111620	0.000202
C15	C	-0.814745	-0.219497	0.000242
C16	C	-0.815874	-0.296601	0.000254
C17	C	-0.947220	-0.087022	0.000258
C18	C	-1.024324	-0.088151	0.000283
C19	C	-0.571407	-0.159598	0.000193
C20	C	-0.498960	-0.158537	0.000201
C21	C	-0.471212	-0.094705	0.000205
C22	C	-0.515918	-0.031929	0.000180
C23	C	-0.588364	-0.032991	0.000164
C24	C	-0.362951	-0.044532	0.044082
C25	C	-0.290506	-0.043472	0.044103
C26	C	-0.247767	-0.091425	0.000250
C27	C	-0.277478	-0.140450	-0.043614
C28	C	-0.349924	-0.141513	-0.043630
C29	C	-0.392658	-0.093546	0.000221
C30	C	-0.124514	-0.153047	0.000278
C31	C	-0.052066	-0.151984	0.000281
C32	C	-0.069026	-0.025374	0.000267
C33	C	-0.141473	-0.026439	0.000256
C34	C	-0.169212	-0.090278	0.000265
N35	N	-0.820215	-0.092465	-0.177931
C36	C	-0.887321	0.156316	0.000214
C37	C	-0.886260	0.228763	0.000226
C38	C	-0.822428	0.256511	0.000210
C39	C	-0.759652	0.211805	0.000203
C40	C	-0.760714	0.139359	0.000198
C41	C	-0.772247	0.364804	-0.043653
C42	C	-0.771188	0.437249	-0.043654
C43	C	-0.819148	0.479956	0.000226
C44	C	-0.868180	0.450212	0.044097
C45	C	-0.869243	0.377767	0.044093
C46	C	-0.821269	0.335065	0.000215
C47	C	-0.880770	0.603209	0.000252
C48	C	-0.879707	0.675657	0.000268
C49	C	-0.753097	0.658697	0.000238
C50	C	-0.754162	0.586250	0.000229
C51	C	-0.818000	0.558511	0.000232
N52	N	-0.820217	-0.092510	0.178380
C53	C	-0.862109	-0.134583	0.782704
C54	C	-0.862114	-0.134585	0.703902
C55	C	-0.820213	-0.092479	0.664469
C56	C	-0.778316	-0.050354	0.703844
C57	C	-0.778318	-0.050347	0.782644
C58	C	-0.757609	-0.090609	0.539607
C59	C	-0.757606	-0.090621	0.460808
C60	C	-0.820209	-0.092497	0.421423
C61	C	-0.882816	-0.094375	0.460846
C62	C	-0.882817	-0.094368	0.539646
C63	C	-0.820207	-0.092482	0.579023
C64	C	-0.862111	-0.134619	0.296611
C65	C	-0.862118	-0.134617	0.217808
C66	C	-0.778314	-0.050390	0.217751
C67	C	-0.778314	-0.050388	0.296553
C68	C	-0.820211	-0.092506	0.335978
H69	H	-0.593987	-0.211580	0.000202
H70	H	-0.709599	0.102967	0.000188
H71	H	-0.896227	-0.168914	0.328713
H72	H	-0.374113	-0.181428	-0.079347
C73	C	-0.688741	-0.088549	0.582924
H74	H	-0.651454	-0.087443	0.548161
H75	H	-0.692163	-0.047988	0.613650
H76	H	-0.680113	-0.128958	0.613675
H77	H	-0.177866	0.024674	0.000244
H78	H	-0.046435	0.026600	0.000317
C79	C	-0.908192	-0.180923	0.660591
H80	H	-0.933140	-0.206009	0.695357
H81	H	-0.940296	-0.152443	0.629843
H82	H	-0.879558	-0.212916	0.629861
C83	C	-0.685116	0.537082	0.000203
H84	H	-0.646947	0.563981	0.000189
H85	H	-0.682897	0.508452	0.043855
H86	H	-0.682902	0.508486	-0.043463
H87	H	-0.896228	-0.168876	0.814799
C88	C	-0.951676	-0.096430	0.583012
H89	H	-0.942707	-0.096163	0.635582
H90	H	-0.983431	-0.056721	0.570093
H91	H	-0.971368	-0.137690	0.570123
C92	C	-0.719490	0.317829	-0.091925
H93	H	-0.727141	0.270424	-0.085640
H94	H	-0.725421	0.330537	-0.143388
H95	H	-0.673358	0.323541	-0.076512
C96	C	-0.923169	0.345046	0.092348
H97	H	-0.916933	0.295785	0.086055
H98	H	-0.916894	0.356083	0.143815
H99	H	-0.968952	0.363077	0.076934
H100	H	-0.707679	0.234401	0.000192
C101	C	-0.732224	-0.004041	0.660471
H102	H	-0.738217	-0.010082	0.607902
H103	H	-0.745368	0.043505	0.673366
H104	H	-0.684644	-0.016982	0.673379
C105	C	-0.920936	0.497180	0.092372
H106	H	-0.913277	0.544585	0.086102
H107	H	-0.967066	0.491472	0.076966
H108	H	-0.914999	0.484468	0.143838
H109	H	-0.933792	-0.095906	0.428780
H110	H	-0.896237	-0.168912	0.185758
C111	C	-0.409958	0.008215	0.092330
H112	H	-0.381887	0.037555	0.118465
H113	H	-0.441966	0.035854	0.060709
H114	H	-0.435011	-0.016229	0.127595
C115	C	-0.257830	0.010455	0.092346
H116	H	-0.293659	0.038871	0.118450
H117	H	-0.226367	-0.013142	0.127627
H118	H	-0.233313	0.038917	0.060719
C119	C	-0.732223	-0.004074	0.174384
H120	H	-0.738218	-0.010113	0.121815
H121	H	-0.745366	0.043471	0.187283
H122	H	-0.684643	-0.017017	0.187289
C123	C	-0.732222	-0.004067	0.339857
H124	H	-0.707262	0.021006	0.305088
H125	H	-0.760839	0.027928	0.370594
H126	H	-0.700116	-0.032561	0.370597
C127	C	-0.485399	0.038285	0.000188
H128	H	-0.435851	0.029928	0.000209
H129	H	-0.500735	0.064129	-0.043473
H130	H	-0.500776	0.064112	0.043844
C131	C	-0.732228	-0.004022	0.825948
H132	H	-0.707270	0.021054	0.791180
H133	H	-0.760845	0.027971	0.856688
H134	H	-0.700121	-0.032517	0.856685
C135	C	-0.449785	-0.227584	0.000235
H136	H	-0.476682	-0.265755	0.000244
H137	H	-0.421147	-0.229803	-0.043410
H138	H	-0.421197	-0.229795	0.043908
C139	C	-0.230474	-0.193205	-0.091850
H140	H	-0.183073	-0.185550	-0.085566
H141	H	-0.236199	-0.239335	-0.076422
H142	H	-0.243144	-0.187268	-0.143324
C143	C	-0.950986	0.572688	0.000265
H144	H	-0.942630	0.523141	0.000251
H145	H	-0.976823	0.588029	0.043929
H146	H	-0.976821	0.588061	-0.043388
C147	C	-0.155031	-0.223265	0.000280
H148	H	-0.118032	-0.260497	0.000282
H149	H	-0.182955	-0.226318	0.043931
H150	H	-0.182923	-0.226304	-0.043386
H151	H	-0.706627	-0.089095	0.428716
H152	H	-0.624756	0.018124	0.000148
H153	H	-0.939303	0.133736	0.000220
H154	H	-0.701123	0.681288	0.000229
C155	C	-0.002899	-0.221032	0.000304
H156	H	-0.029799	-0.259201	0.000313
H157	H	0.025732	-0.223249	-0.043347
H158	H	0.025695	-0.223250	0.043971
C159	C	-0.717255	0.469964	-0.091905
H160	H	-0.723495	0.519227	-0.085625
H161	H	-0.671477	0.451932	-0.076489
H162	H	-0.723529	0.458925	-0.143375
H163	H	-0.937375	0.265162	0.000238
C164	C	-0.948753	0.724826	0.000290
H165	H	-0.938979	0.771946	0.000303
H166	H	-0.974938	0.716457	-0.043361
H167	H	-0.974936	0.716418	0.043956
