data_functionalizedCrystal
_audit_creation_method	'MofGen! by Chris Wilmer'
_symmetry_space_group_name_H-M	'P1'
_symmetry_Int_Tables_number	1
_symmetry_cell_setting	triclinic
loop_
_symmetry_equiv_pos_as_xyz
  x,y,z
_cell_length_a	6.817900
_cell_length_b	16.418049
_cell_length_c	10.773894
_cell_angle_alpha	96.344867
_cell_angle_beta	96.645922
_cell_angle_gamma	103.389670
loop_
_atom_site_label
_atom_site_type_symbol
_atom_site_fract_x
_atom_site_fract_y
_atom_site_fract_z
V1	V	-3.948413	-0.112805	-0.389372
O2	O	-3.937980	0.008588	-0.381508
O3	O	-3.899926	-0.226719	-0.387143
O4	O	-3.866089	-0.109680	-0.558992
O5	O	-3.972051	-0.109261	-0.208470
V6	V	-4.436448	-0.098449	-0.367682
O7	O	-4.199774	-0.144295	-0.436951
O8	O	-4.635285	-0.066958	-0.320102
O9	O	-4.261729	0.015465	-0.369910
O10	O	-4.564279	-0.219842	-0.375546
O11	O	-4.530207	-0.101992	-0.548584
O12	O	-4.295567	-0.101574	-0.198061
C13	C	-3.746003	-0.254532	-0.381113
C14	C	-3.787420	-0.347649	-0.380422
C15	C	-4.063518	-0.566102	-0.385095
C16	C	-4.102420	-0.653596	-0.384456
C17	C	-3.740700	-0.645151	-0.371967
C18	C	-3.701803	-0.557659	-0.372614
C19	C	-3.863218	-0.518136	-0.379172
C20	C	-3.941017	-0.693123	-0.377886
C21	C	-3.983194	-0.787988	-0.377193
C22	C	-3.821038	-0.423265	-0.379867
C23	C	-3.702840	-0.105236	-0.600321
C24	C	-3.716813	-0.103435	-0.738989
C25	C	-3.894885	-0.106557	-0.806864
C26	C	-3.909332	-0.104695	-0.950184
C27	C	-4.078994	0.043274	-0.375937
C28	C	-4.016814	0.136390	-0.376636
C29	C	-4.122159	-0.106020	-0.156726
C30	C	-4.087424	-0.107817	-0.018056
H31	H	-3.538688	-0.518604	-0.367796
H32	H	-4.036642	-0.110602	-0.758867
C33	C	-4.278960	-0.113291	-0.953232
N34	N	-4.423223	-0.117416	-0.904405
H35	H	-4.194955	-0.533925	-0.390433
C36	C	-3.717783	-0.099188	-1.015004
N37	N	-3.573508	-0.095030	-1.063826
H38	H	-3.575051	-0.099379	-0.786983
C39	C	-3.563155	-0.688632	-0.364731
N40	N	-3.429421	-0.721380	-0.359271
H41	H	-4.265521	-0.692647	-0.389281
