data_functionalizedCrystal
_audit_creation_method	'MofGen! by Chris Wilmer'
_symmetry_space_group_name_H-M	'P1'
_symmetry_Int_Tables_number	1
_symmetry_cell_setting	triclinic
loop_
_symmetry_equiv_pos_as_xyz
  x,y,z
_cell_length_a	14.044220
_cell_length_b	14.044220
_cell_length_c	12.503567
_cell_angle_alpha	86.159322
_cell_angle_beta	93.840205
_cell_angle_gamma	93.188878
loop_
_atom_site_label
_atom_site_type_symbol
_atom_site_fract_x
_atom_site_fract_y
_atom_site_fract_z
O1	O	-1.282207	-0.225120	-0.089210
O2	O	-0.948874	0.108213	0.244123
O3	O	-0.615541	0.441547	0.577456
O4	O	-1.005537	-0.216813	-0.089237
O5	O	-0.672204	0.116521	0.244096
O6	O	-0.338871	0.449854	0.577429
O7	O	-1.139719	-0.082631	-0.089214
O8	O	-0.806385	0.250702	0.244120
O9	O	-0.473052	0.584035	0.577453
O10	O	-1.148026	-0.359302	-0.089234
O11	O	-0.814692	-0.025968	0.244099
O12	O	-0.481359	0.307365	0.577433
O13	O	-1.129615	-0.092733	0.089427
O14	O	-0.796282	0.240600	0.422760
O15	O	-0.462948	0.573934	0.756094
O16	O	-0.995433	-0.226915	0.089403
O17	O	-0.662100	0.106419	0.422737
O18	O	-0.328767	0.439752	0.756070
O19	O	-1.272103	-0.235222	0.089430
O20	O	-0.938770	0.098111	0.422764
O21	O	-0.605437	0.431445	0.756097
Cu22	Cu	-1.132846	-0.231991	0.105728
Cu23	Cu	-0.799512	0.101343	0.439062
Cu24	Cu	-0.466179	0.434676	0.772395
Cu25	Cu	-1.144795	-0.220044	-0.105535
Cu26	Cu	-0.811461	0.113289	0.227798
Cu27	Cu	-0.478128	0.446623	0.561131
O28	O	-1.137922	-0.369403	0.089407
O29	O	-0.804588	-0.036070	0.422740
O30	O	-0.471255	0.297263	0.756073
C31	C	-0.964864	-0.218228	0.000080
C32	C	-0.631530	0.115105	0.333413
C33	C	-0.298197	0.448439	0.666746
C34	C	-0.858721	-0.207383	0.000070
C35	C	-0.525388	0.125951	0.333403
C36	C	-0.192055	0.459284	0.666736
C37	C	-1.131031	-0.052060	0.000107
C38	C	-0.797698	0.281273	0.333440
C39	C	-0.464365	0.614606	0.666773
C40	C	-1.120187	0.054082	0.000107
C41	C	-0.786853	0.387416	0.333440
C42	C	-0.453520	0.720749	0.666774
C43	C	-1.146609	-0.399974	0.000084
C44	C	-0.813276	-0.066641	0.333417
C45	C	-0.479943	0.266692	0.666751
C46	C	-1.157454	-0.506117	0.000077
C47	C	-0.824121	-0.172783	0.333410
C48	C	-0.490788	0.160550	0.666743
C49	C	-1.312777	-0.233807	0.000111
C50	C	-0.979444	0.099527	0.333444
C51	C	-0.646110	0.432860	0.666778
C52	C	-1.418920	-0.244651	0.000114
C53	C	-1.085586	0.088682	0.333447
C54	C	-0.752253	0.422015	0.666781
C55	C	-0.664382	-0.187558	0.000092
C56	C	-0.331049	0.145776	0.333426
C57	C	0.002284	0.479109	0.666759
C58	C	-0.613253	-0.264472	0.000091
C59	C	-0.279919	0.068861	0.333425
C60	C	0.053414	0.402195	0.666758
C61	C	-0.505116	-0.253441	0.000104
C62	C	-0.171782	0.079892	0.333437
C63	C	0.161551	0.413225	0.666771
C64	C	-0.772529	-0.198587	0.000080
C65	C	-0.439196	0.134746	0.333413
C66	C	-0.105863	0.468079	0.666746
N67	N	-1.124448	-0.240393	0.254319
N68	N	-0.791115	0.092940	0.587653
N69	N	-0.457782	0.426273	0.920986
C70	C	-1.100361	0.248421	0.000090
C71	C	-0.767028	0.581754	0.333423
C72	C	-0.433695	0.915088	0.666756
C73	C	-1.177275	0.299551	0.000094
C74	C	-0.843942	0.632884	0.333427
C75	C	-0.510609	0.966217	0.666761
C76	C	-1.166244	0.407687	0.000084
C77	C	-0.832911	0.741021	0.333418
C78	C	-0.499578	1.074354	0.666751
C79	C	-1.111391	0.140274	0.000099
C80	C	-0.778058	0.473608	0.333433
C81	C	-0.444724	0.806941	0.666766
C82	C	-1.165542	-0.199282	0.526760
C83	C	-0.832209	0.134052	0.860093
C84	C	-0.498876	0.467385	1.193426
C85	C	-1.112104	-0.252754	0.473426
C86	C	-0.778770	0.080579	0.806760
C87	C	-0.445437	0.413912	1.140093
C88	C	-1.118974	-0.245875	0.351504
C89	C	-0.785641	0.087458	0.684837
C90	C	-0.452307	0.420792	1.018171
C91	C	-1.158673	-0.206160	0.648693
C92	C	-0.825340	0.127173	0.982027
C93	C	-0.492006	0.460507	1.315360
N94	N	-1.153195	-0.211646	0.745874
N95	N	-0.819861	0.121688	1.079207
N96	N	-0.486528	0.455021	1.412540
H97	H	-0.650692	-0.338605	0.000081
H98	H	-0.317359	-0.005272	0.333414
H99	H	0.015974	0.328062	0.666747
H100	H	-0.626945	-0.113431	0.000104
H101	H	-0.293612	0.219902	0.333437
H102	H	0.039722	0.553236	0.666770
H103	H	-1.026234	0.285859	0.000080
H104	H	-0.692901	0.619192	0.333413
H105	H	-0.359568	0.952525	0.666747
H106	H	-1.251413	0.262115	0.000029
H107	H	-0.918079	0.595449	0.333362
H108	H	-0.584746	0.928782	0.666696
H109	H	-1.061194	-0.303701	0.519333
H110	H	-0.727861	0.029632	0.852666
H111	H	-0.394527	0.362966	1.186000
H112	H	-1.216450	-0.148340	0.480859
H113	H	-0.883117	0.184994	0.814192
H114	H	-0.549784	0.518327	1.147525
