data_functionalizedCrystal
_audit_creation_method	'MofGen! by Chris Wilmer'
_symmetry_space_group_name_H-M	'P1'
_symmetry_Int_Tables_number	1
_symmetry_cell_setting	triclinic
loop_
_symmetry_equiv_pos_as_xyz
  x,y,z
_cell_length_a	16.109301
_cell_length_b	10.540539
_cell_length_c	15.186229
_cell_angle_alpha	89.998389
_cell_angle_beta	89.999362
_cell_angle_gamma	83.993486
loop_
_atom_site_label
_atom_site_type_symbol
_atom_site_fract_x
_atom_site_fract_y
_atom_site_fract_z
O1	O	1.104128	0.163159	-0.073169
O2	O	0.862191	0.183464	-0.073182
O3	O	0.988679	-0.011474	-0.073174
O4	O	0.977640	0.358096	-0.073177
O5	O	0.988671	-0.011477	0.073283
O6	O	0.862182	0.183461	0.073275
O7	O	1.104120	0.163156	0.073289
Zn8	Zn	0.983150	0.173308	0.096535
Zn9	Zn	0.983161	0.173312	-0.096429
O10	O	0.977631	0.358094	0.073280
C11	C	0.831206	0.182640	0.000045
C12	C	0.738896	0.180174	0.000039
C13	C	0.987847	-0.058767	0.000053
C14	C	0.985370	-0.199679	0.000048
C15	C	0.517296	0.290112	0.000049
C16	C	0.430561	0.287785	0.000054
C17	C	0.449021	0.056499	0.000053
C18	C	0.535754	0.058827	0.000053
C19	C	0.569889	0.175637	0.000047
C20	C	0.396421	0.170982	0.000052
C21	C	0.302380	0.168459	0.000058
C22	C	0.663936	0.178162	0.000042
C23	C	0.890460	-0.381753	-0.000286
C24	C	0.892971	-0.235171	0.000044
C25	C	1.029832	-0.261972	0.083685
C26	C	1.026678	-0.408472	0.083755
C27	C	1.028567	-0.409014	-0.082794
C28	C	1.029418	-0.262044	-0.083900
C29	C	1.135104	0.163980	0.000060
C30	C	1.227414	0.166446	0.000059
C31	C	0.978463	0.405386	0.000052
C32	C	0.980940	0.546299	0.000051
N33	N	0.983148	0.173305	0.228228
N34	N	0.983169	0.173305	-0.228121
C35	C	1.039177	0.087015	0.453954
C36	C	1.039179	0.087012	0.546144
C37	C	0.927134	0.259598	0.546146
C38	C	0.927128	0.259594	0.453958
C39	C	0.983154	0.173304	0.407864
C40	C	0.983163	0.173305	0.592242
C41	C	0.983165	0.173303	0.692198
C42	C	0.983151	0.173305	0.307902
H43	H	0.545085	0.385227	0.000050
H44	H	0.881504	0.329861	0.416429
C45	C	0.988176	-0.451053	-0.168436
C46	C	0.983057	-0.593747	-0.186632
C47	C	0.942656	-0.635785	-0.272268
C48	C	0.907373	-0.535128	-0.339708
C49	C	0.912490	-0.392424	-0.321514
C50	C	0.952892	-0.350386	-0.235877
H51	H	1.009177	-0.668268	-0.136707
H52	H	0.938868	-0.741424	-0.285736
H53	H	0.877466	-0.566246	-0.403101
H54	H	0.886371	-0.317903	-0.371438
H55	H	0.956679	-0.244747	-0.222409
H56	H	0.387743	0.381003	0.000058
H57	H	0.421218	-0.038605	0.000063
H58	H	0.578578	-0.034398	0.000054
H59	H	0.881521	0.329855	0.583684
C60	C	1.100807	-0.007903	0.596844
C61	C	1.162438	-0.102804	0.546141
C62	C	1.224067	-0.197725	0.596841
C63	C	1.224066	-0.197744	0.698244
C64	C	1.162433	-0.102840	0.748953
C65	C	1.100803	-0.007919	0.698253
H66	H	1.162441	-0.102793	0.471071
H67	H	1.269692	-0.267979	0.559302
H68	H	1.269688	-0.268010	0.735775
H69	H	1.162430	-0.102851	0.824023
H70	H	1.055178	0.062336	0.735791
H71	H	0.857986	-0.192068	-0.059910
H72	H	0.853964	-0.409832	-0.060263
H73	H	0.998939	-0.218934	0.145921
C74	C	0.841342	-0.421851	0.080280
C75	C	0.883028	-0.519553	0.146281
C76	C	0.833912	-0.559655	0.226847
C77	C	0.743108	-0.502055	0.241411
C78	C	0.701417	-0.404347	0.175408
C79	C	0.750533	-0.364245	0.094842
H80	H	0.950251	-0.562197	0.135502
H81	H	0.864775	-0.631986	0.275707
H82	H	0.706749	-0.531741	0.301051
H83	H	0.634194	-0.361703	0.186187
H84	H	0.719670	-0.291915	0.045982
H85	H	0.857734	-0.192914	0.060094
H86	H	1.095307	-0.457191	-0.083353
C87	C	1.100797	-0.007911	0.403251
C88	C	1.164672	0.041705	0.339869
C89	C	1.226292	-0.053227	0.289169
C90	C	1.224037	-0.197775	0.301851
C91	C	1.160159	-0.247398	0.365236
C92	C	1.098539	-0.152466	0.415936
H93	H	1.166344	0.148715	0.330478
H94	H	1.273579	-0.016492	0.242246
H95	H	1.269652	-0.268050	0.264320
H96	H	1.158487	-0.354408	0.374627
H97	H	1.051252	-0.189201	0.462859
C98	C	1.116444	-0.474571	0.088901
C99	C	1.142752	-0.563544	0.166689
C100	C	1.232515	-0.629639	0.171841
C101	C	1.295970	-0.606759	0.099204
C102	C	1.269663	-0.517782	0.021410
C103	C	1.179900	-0.451687	0.016259
H104	H	1.095778	-0.580484	0.220464
H105	H	1.251989	-0.695506	0.229429
H106	H	1.362417	-0.655686	0.103018
H107	H	1.316637	-0.500841	-0.032364
H108	H	1.160426	-0.385820	-0.041330
C109	C	1.121496	-0.233063	0.087895
C110	C	1.142394	-0.093955	0.092441
C111	C	1.234057	-0.065034	0.096646
C112	C	1.304820	-0.175223	0.096307
C113	C	1.283924	-0.314341	0.091762
C114	C	1.192262	-0.343261	0.087556
H115	H	1.090009	-0.012378	0.092692
H116	H	1.249525	0.037950	0.100011
H117	H	1.372674	-0.153814	0.099420
H118	H	1.336309	-0.395917	0.091511
H119	H	1.176793	-0.446245	0.084191
H120	H	0.993812	-0.436204	0.146272
C121	C	0.985493	-0.206103	-0.167466
C122	C	0.892457	-0.220530	-0.182810
C123	C	0.848510	-0.164573	-0.266361
C124	C	0.897600	-0.094190	-0.334569
C125	C	0.990642	-0.079760	-0.319227
C126	C	1.034589	-0.135716	-0.235675
H127	H	0.856113	-0.272634	-0.132317
H128	H	0.779634	-0.175255	-0.277718
H129	H	0.865068	-0.052767	-0.396419
H130	H	1.026986	-0.027655	-0.369720
H131	H	1.103465	-0.125034	-0.224319
H132	H	1.096785	-0.238783	-0.088946
