data_functionalizedCrystal
_audit_creation_method	'MofGen! by Chris Wilmer'
_symmetry_space_group_name_H-M	'P1'
_symmetry_Int_Tables_number	1
_symmetry_cell_setting	triclinic
loop_
_symmetry_equiv_pos_as_xyz
  x,y,z
_cell_length_a	19.188930
_cell_length_b	19.188930
_cell_length_c	17.666332
_cell_angle_alpha	90.009680
_cell_angle_beta	90.019704
_cell_angle_gamma	83.144779
loop_
_atom_site_label
_atom_site_type_symbol
_atom_site_fract_x
_atom_site_fract_y
_atom_site_fract_z
O1	O	0.926146	0.087167	0.063200
O2	O	1.259480	0.420501	0.396533
O3	O	1.592813	0.753834	0.729867
O4	O	0.722835	0.098902	0.063149
O5	O	1.056168	0.432235	0.396483
O6	O	1.389502	0.765568	0.729816
O7	O	0.830358	-0.008621	0.063161
O8	O	1.163691	0.324712	0.396495
O9	O	1.497024	0.658045	0.729828
O10	O	0.818623	0.194690	0.063188
O11	O	1.151957	0.528023	0.396521
O12	O	1.485290	0.861357	0.729855
O13	O	0.830346	-0.008624	-0.062735
O14	O	1.163679	0.324709	0.270598
O15	O	1.497012	0.658043	0.603931
O16	O	0.722823	0.098899	-0.062747
O17	O	1.056156	0.432232	0.270586
O18	O	1.389490	0.765566	0.603919
O19	O	0.926134	0.087165	-0.062697
O20	O	1.259468	0.420498	0.270637
O21	O	1.592801	0.753831	0.603970
Cu22	Cu	0.824477	0.093032	-0.074217
Cu23	Cu	1.157811	0.426365	0.259116
Cu24	Cu	1.491144	0.759698	0.592449
Cu25	Cu	0.824492	0.093035	0.074670
Cu26	Cu	1.157825	0.426368	0.408003
Cu27	Cu	1.491158	0.759701	0.741337
O28	O	0.818611	0.194687	-0.062709
O29	O	1.151945	0.528021	0.270625
O30	O	1.485278	0.861354	0.603958
C31	C	0.696818	0.098520	0.000194
C32	C	1.030151	0.431854	0.333528
C33	C	1.363485	0.765187	0.666861
C34	C	0.619313	0.097380	0.000174
C35	C	0.952647	0.430713	0.333508
C36	C	1.285980	0.764046	0.666841
C37	C	0.574389	0.160470	0.000194
C38	C	0.907723	0.493804	0.333528
C39	C	1.241056	0.827137	0.666861
C40	C	0.501566	0.159399	0.000203
C41	C	0.834899	0.492732	0.333536
C42	C	1.168232	0.826065	0.666869
C43	C	0.473669	0.095233	0.000206
C44	C	0.807002	0.428566	0.333539
C45	C	1.140336	0.761899	0.666872
C46	C	0.518603	0.032133	0.000181
C47	C	0.851936	0.365467	0.333515
C48	C	1.185270	0.698800	0.666848
C49	C	0.591425	0.033207	0.000166
C50	C	0.924758	0.366540	0.333499
C51	C	1.258092	0.699874	0.666832
N52	N	0.365693	0.046187	0.043078
N53	N	0.699026	0.379520	0.376411
N54	N	1.032360	0.712853	0.709745
N55	N	0.296514	0.045171	0.043095
N56	N	0.629848	0.378504	0.376428
N57	N	0.963181	0.711838	0.709761
C58	C	0.254260	0.091994	0.000252
C59	C	0.587594	0.425328	0.333585
C60	C	0.920927	0.758661	0.666918
N61	N	0.283797	0.139882	-0.042599
N62	N	0.617130	0.473216	0.290734
N63	N	0.950464	0.806549	0.624068
N64	N	0.352982	0.140900	-0.042612
N65	N	0.686315	0.474233	0.290721
N66	N	1.019648	0.807567	0.624054
C67	C	0.394707	0.094062	0.000222
C68	C	0.728040	0.427395	0.333556
C69	C	1.061373	0.760728	0.666889
C70	C	0.130372	0.153928	0.000280
C71	C	0.463705	0.487261	0.333613
C72	C	0.797039	0.820594	0.666946
C73	C	0.057547	0.152853	0.000283
C74	C	0.390881	0.486187	0.333616
C75	C	0.724214	0.819520	0.666950
C76	C	0.074586	0.025586	0.000270
C77	C	0.407919	0.358920	0.333603
C78	C	0.741253	0.692253	0.666936
C79	C	0.147409	0.026662	0.000258
C80	C	0.480743	0.359996	0.333592
C81	C	0.814076	0.693329	0.666925
C82	C	0.175298	0.090835	0.000267
C83	C	0.508631	0.424168	0.333600
C84	C	0.841964	0.757502	0.666934
C85	C	0.829972	-0.034634	0.000211
C86	C	1.163305	0.298700	0.333544
C87	C	1.496638	0.632033	0.666877
C88	C	0.828831	-0.112138	0.000204
C89	C	1.162164	0.221195	0.333537
C90	C	1.495498	0.554529	0.666871
C91	C	0.891922	-0.157062	0.000216
C92	C	1.225255	0.176271	0.333549
C93	C	1.558589	0.509605	0.666883
C94	C	0.890850	-0.229886	0.000228
C95	C	1.224184	0.103448	0.333561
C96	C	1.557517	0.436781	0.666895
C97	C	0.826684	-0.257782	0.000212
C98	C	1.160017	0.075551	0.333546
C99	C	1.493351	0.408884	0.666879
C100	C	0.763585	-0.212849	0.000205
C101	C	1.096918	0.120485	0.333538
C102	C	1.430252	0.453818	0.666871
C103	C	0.764658	-0.140026	0.000200
C104	C	1.097992	0.193307	0.333534
C105	C	1.431325	0.526640	0.666867
N106	N	0.777633	-0.365788	-0.042645
N107	N	1.110966	-0.032455	0.290689
N108	N	1.444299	0.300878	0.624022
N109	N	0.776617	-0.434967	-0.042642
N110	N	1.109951	-0.101634	0.290691
N111	N	1.443284	0.231700	0.624024
C112	C	0.823446	-0.477191	0.000227
C113	C	1.156779	-0.143858	0.333560
C114	C	1.490113	0.189476	0.666894
N115	N	0.871339	-0.447625	0.043084
N116	N	1.204672	-0.114291	0.376418
N117	N	1.538006	0.219042	0.709751
N118	N	0.872357	-0.378440	0.043079
N119	N	1.205690	-0.045107	0.376412
N120	N	1.539023	0.288227	0.709745
C121	C	0.825513	-0.336745	0.000218
C122	C	1.158846	-0.003412	0.333551
C123	C	1.492180	0.329922	0.666884
C124	C	0.885379	-0.601079	0.000253
C125	C	1.218712	-0.267746	0.333586
C126	C	1.552046	0.065587	0.666920
C127	C	0.884305	-0.673904	0.000270
C128	C	1.217638	-0.340571	0.333603
C129	C	1.550971	-0.007238	0.666936
C130	C	0.757038	-0.656865	0.000239
C131	C	1.090371	-0.323532	0.333572
C132	C	1.423704	0.009801	0.666905
C133	C	0.758114	-0.584042	0.000230
C134	C	1.091447	-0.250709	0.333563
C135	C	1.424781	0.082624	0.666896
C136	C	0.822286	-0.556154	0.000233
C137	C	1.155620	-0.222821	0.333567
C138	C	1.488953	0.110513	0.666900
C139	C	0.952151	0.087546	0.000260
C140	C	1.285485	0.420879	0.333593
C141	C	1.618818	0.754213	0.666927
C142	C	1.029656	0.088687	0.000285
C143	C	1.362989	0.422020	0.333618
C144	C	1.696322	0.755353	0.666952
C145	C	0.818997	0.220700	0.000244
C146	C	1.152331	0.554033	0.333577
C147	C	1.485664	0.887366	0.666910
C148	C	0.820138	0.298204	0.000255
C149	C	1.153471	0.631538	0.333589
C150	C	1.486805	0.964871	0.666922
N151	N	0.824473	0.093029	-0.178937
N152	N	1.157806	0.426362	0.154397
N153	N	1.491139	0.759696	0.487730
C154	C	0.872114	0.045434	-0.780982
C155	C	1.205448	0.378767	-0.447648
C156	C	1.538781	0.712100	-0.114315
C157	C	0.872116	0.045435	-0.701734
C158	C	1.205449	0.378769	-0.368401
C159	C	1.538782	0.712102	-0.035067
C160	C	0.824492	0.093028	-0.662118
C161	C	1.157826	0.426362	-0.328785
C162	C	1.491159	0.759695	0.004548
C163	C	0.776876	0.140635	-0.701757
C164	C	1.110210	0.473969	-0.368423
C165	C	1.443543	0.807302	-0.035090
C166	C	0.776881	0.140637	-0.781003
C167	C	1.110215	0.473970	-0.447670
C168	C	1.443548	0.807304	-0.114336
N169	N	0.762680	0.102077	-0.537720
N170	N	1.096014	0.435410	-0.204387
N171	N	1.429347	0.768743	0.128946
N172	N	0.762678	0.102071	-0.462440
N173	N	1.096011	0.435404	-0.129107
N174	N	1.429345	0.768737	0.204227
C175	C	0.824476	0.093027	-0.423354
C176	C	1.157809	0.426360	-0.090021
C177	C	1.491143	0.759694	0.243312
N178	N	0.886278	0.083976	-0.462393
N179	N	1.219612	0.417309	-0.129060
N180	N	1.552945	0.750642	0.204274
N181	N	0.886280	0.083978	-0.537680
N182	N	1.219613	0.417311	-0.204347
N183	N	1.552947	0.750645	0.128986
C184	C	0.824482	0.093032	-0.576189
C185	C	1.157815	0.426365	-0.242856
C186	C	1.491149	0.759699	0.090477
C187	C	0.872093	0.045428	-0.297796
C188	C	1.205427	0.378761	0.035537
C189	C	1.538760	0.712095	0.368871
C190	C	0.872095	0.045435	-0.218547
C191	C	1.205429	0.378768	0.114786
C192	C	1.538762	0.712101	0.448120
C193	C	0.776850	0.140631	-0.218571
C194	C	1.110184	0.473965	0.114762
C195	C	1.443517	0.807298	0.448095
C196	C	0.776854	0.140628	-0.297819
C197	C	1.110188	0.473962	0.035514
C198	C	1.443521	0.807295	0.368848
C199	C	0.824475	0.093023	-0.337427
C200	C	1.157808	0.426356	-0.004093
C201	C	1.491142	0.759690	0.329240
N202	N	0.824502	0.093032	0.179390
N203	N	1.157835	0.426365	0.512723
N204	N	1.491169	0.759698	0.846056
H205	H	0.153080	0.206181	0.000276
H206	H	0.486413	0.539514	0.333609
H207	H	0.819746	0.872847	0.666942
H208	H	0.711340	-0.235567	0.000194
H209	H	1.044674	0.097767	0.333527
H210	H	1.378007	0.431100	0.666860
H211	H	0.713281	-0.103449	0.000190
H212	H	1.046614	0.229885	0.333524
H213	H	1.379947	0.563218	0.666857
H214	H	0.706738	-0.547464	0.000216
H215	H	1.040072	-0.214131	0.333549
H216	H	1.373405	0.119203	0.666882
H217	H	0.628003	-0.018171	0.000150
H218	H	0.961336	0.315162	0.333483
H219	H	1.294670	0.648496	0.666816
H220	H	0.183988	-0.024713	0.000246
H221	H	0.517321	0.308620	0.333580
H222	H	0.850654	0.641954	0.666913
F223	F	0.009735	0.220007	0.000301
F224	F	0.343068	0.553340	0.333634
F225	F	0.676402	0.886674	0.666967
F226	F	0.726176	0.191286	-0.339998
F227	F	1.059509	0.524619	-0.006665
F228	F	1.392842	0.857952	0.326668
F229	F	0.922798	-0.005229	-0.823133
F230	F	1.256132	0.328104	-0.489800
F231	F	1.589465	0.661438	-0.156467
F232	F	0.953676	-0.571396	0.000253
F233	F	1.287009	-0.238063	0.333587
F234	F	1.620343	0.095271	0.666920
H235	H	0.910889	0.006674	-0.669462
H236	H	1.244222	0.340007	-0.336129
H237	H	1.577555	0.673341	-0.002795
H238	H	0.597091	0.212725	0.000203
H239	H	0.930424	0.546058	0.333536
H240	H	1.263758	0.879391	0.666870
F241	F	0.951459	-0.721716	0.000287
F242	F	1.284792	-0.388383	0.333621
F243	F	1.618125	-0.055050	0.666954
F244	F	0.726195	0.191290	-0.659595
F245	F	1.059528	0.524623	-0.326261
F246	F	1.392861	0.857956	0.007072
F247	F	0.922778	-0.005235	-0.339950
F248	F	1.256112	0.328099	-0.006617
F249	F	1.589445	0.661432	0.326716
H250	H	0.738109	0.179398	-0.813269
H251	H	1.071442	0.512731	-0.479936
H252	H	1.404776	0.846065	-0.146603
F253	F	0.688747	-0.686550	0.000226
F254	F	1.022080	-0.353217	0.333559
F255	F	1.355413	-0.019883	0.666893
F256	F	0.922777	-0.005224	-0.176369
F257	F	1.256110	0.328109	0.156964
F258	F	1.589444	0.661443	0.490297
F259	F	0.044901	-0.042705	0.000266
F260	F	0.378235	0.290629	0.333599
F261	F	0.711568	0.623962	0.666932
F262	F	0.726171	0.191288	-0.176413
F263	F	1.059504	0.524621	0.156920
F264	F	1.392837	0.857954	0.490253
H265	H	0.464982	0.210776	0.000217
H266	H	0.798315	0.544110	0.333550
H267	H	1.131648	0.877443	0.666884
F268	F	0.488912	-0.036157	0.000181
F269	F	0.822246	0.297177	0.333515
F270	F	1.155579	0.630510	0.666848
F271	F	0.960220	-0.127385	0.000236
F272	F	1.293554	0.205948	0.333570
F273	F	1.626887	0.539281	0.666903
H274	H	0.942228	-0.266470	0.000241
H275	H	1.275561	0.066863	0.333574
H276	H	1.608895	0.400197	0.666908
