data_functionalizedCrystal
_audit_creation_method	'MofGen! by Chris Wilmer'
_symmetry_space_group_name_H-M	'P1'
_symmetry_Int_Tables_number	1
_symmetry_cell_setting	triclinic
loop_
_symmetry_equiv_pos_as_xyz
  x,y,z
_cell_length_a	16.625546
_cell_length_b	13.897449
_cell_length_c	16.625548
_cell_angle_alpha	89.990776
_cell_angle_beta	90.013404
_cell_angle_gamma	89.977699
loop_
_atom_site_label
_atom_site_type_symbol
_atom_site_fract_x
_atom_site_fract_y
_atom_site_fract_z
Zn1	Zn	-0.321139	-1.474541	0.455919
Zn2	Zn	-0.071139	-1.224541	0.705919
Zn3	Zn	0.178861	-0.974541	0.955919
Zn4	Zn	0.428861	-0.724541	1.205919
Zn5	Zn	-0.455942	-1.474460	0.321081
Zn6	Zn	-0.205942	-1.224460	0.571081
Zn7	Zn	0.044058	-0.974460	0.821081
Zn8	Zn	0.294058	-0.724460	1.071081
Zn9	Zn	-0.321127	-1.313268	0.321097
Zn10	Zn	-0.071127	-1.063268	0.571097
Zn11	Zn	0.178873	-0.813268	0.821097
Zn12	Zn	0.428873	-0.563268	1.071097
Zn13	Zn	-0.455933	-1.313198	0.455868
Zn14	Zn	-0.205933	-1.063198	0.705868
Zn15	Zn	0.044067	-0.813198	0.955868
Zn16	Zn	0.294067	-0.563198	1.205868
O17	O	-0.388535	-1.393867	0.388491
O18	O	-0.138535	-1.143867	0.638491
O19	O	0.111465	-0.893867	0.888491
O20	O	0.361465	-0.643867	1.138491
O21	O	-0.339030	-1.609512	0.438046
O22	O	-0.089030	-1.359512	0.688046
O23	O	0.160970	-1.109512	0.938046
O24	O	0.410970	-0.859512	1.188046
O25	O	-0.438057	-1.453073	0.208251
O26	O	-0.188057	-1.203073	0.458251
O27	O	0.061943	-0.953073	0.708251
O28	O	0.311943	-0.703073	0.958251
O29	O	-0.208296	-1.334725	0.339009
O30	O	0.041704	-1.084725	0.589009
O31	O	0.291704	-0.834725	0.839009
O32	O	0.541704	-0.584725	1.089009
O33	O	-0.438069	-1.609452	0.338982
O34	O	-0.188069	-1.359452	0.588982
O35	O	0.061931	-1.109452	0.838982
O36	O	0.311931	-0.859452	1.088982
O37	O	-0.208305	-1.453211	0.438062
O38	O	0.041695	-1.203211	0.688062
O39	O	0.291695	-0.953211	0.938062
O40	O	0.541695	-0.703211	1.188062
O41	O	-0.339009	-1.334646	0.208262
O42	O	-0.089009	-1.084646	0.458262
O43	O	0.160991	-0.834646	0.708262
O44	O	0.410991	-0.584646	0.958262
O45	O	-0.339000	-1.178277	0.338960
O46	O	-0.089000	-0.928277	0.588960
O47	O	0.161000	-0.678277	0.838960
O48	O	0.411000	-0.428277	1.088960
O49	O	-0.438053	-1.334605	0.568707
O50	O	-0.188053	-1.084605	0.818707
O51	O	0.061947	-0.834605	1.068707
O52	O	0.311947	-0.584605	1.318707
O53	O	-0.438042	-1.178226	0.437976
O54	O	-0.188042	-0.928226	0.687976
O55	O	0.061958	-0.678226	0.937976
O56	O	0.311958	-0.428226	1.187976
O57	O	-0.339021	-1.453143	0.568744
O58	O	-0.089021	-1.203143	0.818744
O59	O	0.160979	-0.953143	1.068744
O60	O	0.410979	-0.703143	1.318744
O61	O	-0.568773	-1.453005	0.338933
O62	O	-0.318773	-1.203005	0.588933
O63	O	-0.068773	-0.953005	0.838933
O64	O	0.181227	-0.703005	1.088933
O65	O	-0.568767	-1.334527	0.437961
O66	O	-0.318767	-1.084527	0.687961
O67	O	-0.068767	-0.834527	0.937961
O68	O	0.181233	-0.584527	1.187961
C69	C	-0.388519	-1.143252	0.388465
C70	C	-0.138519	-0.893252	0.638465
C71	C	0.111481	-0.643252	0.888465
C72	C	0.361481	-0.393252	1.138465
C73	C	-0.388532	-1.036038	0.388473
C74	C	-0.138532	-0.786038	0.638473
C75	C	0.111468	-0.536038	0.888473
C76	C	0.361468	-0.286038	1.138473
C77	C	-0.388530	-0.839743	0.388488
C78	C	-0.138530	-0.589743	0.638488
C79	C	0.111470	-0.339743	0.888488
C80	C	0.361470	-0.089743	1.138488
C81	C	-0.388529	-0.948976	0.388477
C82	C	-0.138529	-0.698976	0.638477
C83	C	0.111471	-0.448976	0.888477
C84	C	0.361471	-0.198976	1.138477
C85	C	-0.598026	-1.393775	0.388457
C86	C	-0.348026	-1.143775	0.638457
C87	C	-0.098026	-0.893775	0.888457
C88	C	0.151974	-0.643775	1.138457
C89	C	-0.687647	-1.393825	0.388470
C90	C	-0.437647	-1.143825	0.638470
C91	C	-0.187647	-0.893825	0.888470
C92	C	0.062353	-0.643825	1.138470
C93	C	-1.015823	-1.393993	0.388554
C94	C	-0.765823	-1.143993	0.638554
C95	C	-0.515823	-0.893993	0.888554
C96	C	-0.265823	-0.643993	1.138554
C97	C	-0.924514	-1.393943	0.388533
C98	C	-0.674514	-1.143943	0.638533
C99	C	-0.424514	-0.893943	0.888533
C100	C	-0.174514	-0.643943	1.138533
C101	C	-0.851738	-1.393908	0.388512
C102	C	-0.601738	-1.143908	0.638512
C103	C	-0.351738	-0.893908	0.888512
C104	C	-0.101738	-0.643908	1.138512
C105	C	-0.760424	-1.393860	0.388491
C106	C	-0.510424	-1.143860	0.638491
C107	C	-0.260424	-0.893860	0.888491
C108	C	-0.010424	-0.643860	1.138491
C109	C	-0.178226	-1.393985	0.388543
C110	C	0.071774	-1.143985	0.638543
C111	C	0.321774	-0.893985	0.888543
C112	C	0.571774	-0.643985	1.138543
C113	C	-0.088605	-1.394035	0.388565
C114	C	0.161395	-1.144035	0.638565
C115	C	0.411395	-0.894035	0.888565
C116	C	0.661395	-0.644035	1.138565
C117	C	-0.388538	-1.393875	0.598800
C118	C	-0.138538	-1.143875	0.848800
C119	C	0.111462	-0.893875	1.098800
C120	C	0.361462	-0.643875	1.348800
C121	C	-0.388539	-1.393879	0.688421
C122	C	-0.138539	-1.143879	0.938421
C123	C	0.111461	-0.893879	1.188421
C124	C	0.361461	-0.643879	1.438421
C125	C	-0.388547	-0.645460	0.388510
C126	C	-0.138547	-0.395460	0.638510
C127	C	0.111453	-0.145460	0.888510
C128	C	0.361453	0.104540	1.138510
C129	C	-0.388538	-0.752674	0.388498
C130	C	-0.138538	-0.502674	0.638498
C131	C	0.111462	-0.252674	0.888498
C132	C	0.361462	-0.002674	1.138498
C133	C	-0.388546	-1.393839	1.016597
C134	C	-0.138546	-1.143839	1.266597
C135	C	0.111454	-0.893839	1.516597
C136	C	0.361454	-0.643839	1.766597
C137	C	-0.388546	-1.393847	0.925288
C138	C	-0.138546	-1.143847	1.175288
C139	C	0.111454	-0.893847	1.425288
C140	C	0.361454	-0.643847	1.675288
C141	C	-0.388543	-1.393859	0.852512
C142	C	-0.138543	-1.143859	1.102512
C143	C	0.111457	-0.893859	1.352512
C144	C	0.361457	-0.643859	1.602512
C145	C	-0.388542	-1.393867	0.761198
C146	C	-0.138542	-1.143867	1.011198
C147	C	0.111458	-0.893867	1.261198
C148	C	0.361458	-0.643867	1.511198
C149	C	-0.388549	-1.393849	1.179000
C150	C	-0.138549	-1.143849	1.429000
C151	C	0.111451	-0.893849	1.679000
C152	C	0.361451	-0.643849	1.929000
C153	C	-0.388543	-1.393839	1.089379
C154	C	-0.138543	-1.143839	1.339379
C155	C	0.111457	-0.893839	1.589379
C156	C	0.361457	-0.643839	1.839379
