data_functionalizedCrystal
_audit_creation_method	'MofGen! by Chris Wilmer'
_symmetry_space_group_name_H-M	'P1'
_symmetry_Int_Tables_number	1
_symmetry_cell_setting	triclinic
loop_
_symmetry_equiv_pos_as_xyz
  x,y,z
_cell_length_a	15.455313
_cell_length_b	17.699083
_cell_length_c	17.699083
_cell_angle_alpha	96.716985
_cell_angle_beta	87.341275
_cell_angle_gamma	87.330194
loop_
_atom_site_label
_atom_site_type_symbol
_atom_site_fract_x
_atom_site_fract_y
_atom_site_fract_z
O1	O	0.072010	-1.007394	0.092400
O2	O	0.072039	-0.787017	0.104851
O3	O	0.072016	-0.903431	-0.011563
O4	O	0.072033	-0.890979	0.208814
O5	O	-0.072244	-0.896774	-0.004933
O6	O	-0.072222	-0.780360	0.111481
O7	O	-0.072250	-1.000737	0.099030
Cu8	Cu	-0.085408	-0.889940	0.105861
Cu9	Cu	0.085197	-0.897813	0.098020
O10	O	-0.072228	-0.884322	0.215444
C11	C	-0.000088	-0.755491	0.107720
C12	C	-0.000077	-0.671474	0.106381
N13	N	-0.205403	-0.884409	0.111375
C14	C	-0.000114	-0.899656	-0.036445
C15	C	-0.000114	-0.898318	-0.120463
C16	C	-0.250806	-0.933883	0.061936
C17	C	-0.341613	-0.929706	0.066113
C18	C	-0.387015	-0.876059	0.119733
C19	C	-0.341605	-0.826580	0.169174
C20	C	-0.250800	-0.830753	0.164993
C21	C	-0.658593	-0.858045	0.137760
C22	C	-0.749405	-0.853877	0.141939
C23	C	-0.749407	-0.957003	0.038877
C24	C	-0.658600	-0.961175	0.034703
C25	C	-0.613198	-0.911693	0.084142
N26	N	-0.479835	-0.871790	0.124005
N27	N	-0.520380	-0.915958	0.079865
N28	N	0.205191	-0.903351	0.092500
C29	C	-0.000122	-1.032262	0.096161
C30	C	-0.000127	-1.116280	0.097500
C31	C	-0.000072	-0.622853	0.174714
C32	C	-0.000083	-0.543909	0.173452
C33	C	-0.000093	-0.513588	0.103856
C34	C	-0.000101	-0.562215	0.035518
C35	C	-0.000096	-0.641157	0.036781
C36	C	-0.000123	-0.243851	0.030423
C37	C	-0.000125	-0.164903	0.029166
C38	C	-0.000110	-0.146603	0.167095
C39	C	-0.000105	-0.225545	0.168358
C40	C	-0.000117	-0.274165	0.100020
C41	C	-0.000107	-0.359764	0.101389
C42	C	-0.000098	-0.427990	0.102486
C43	C	-0.000124	-0.966651	-0.169084
C44	C	-0.000117	-0.965389	-0.248028
C45	C	-0.000105	-0.895793	-0.278349
C46	C	-0.000092	-0.827455	-0.229722
C47	C	-0.000094	-0.828718	-0.150780
C48	C	-0.000084	-0.822360	-0.548086
C49	C	-0.000085	-0.821102	-0.627034
C50	C	-0.000107	-0.959031	-0.645333
C51	C	-0.000109	-0.960294	-0.566391
C52	C	-0.000092	-0.891956	-0.517772
C53	C	-0.000098	-0.893326	-0.432172
C54	C	-0.000104	-0.894423	-0.363947
C55	C	-0.000095	-0.888097	0.240326
C56	C	-0.000089	-0.889436	0.324344
H57	H	-0.213846	-0.977571	0.018276
C58	C	-0.000119	-1.040553	-0.301511
H59	H	-0.000102	-1.029837	-0.352869
H60	H	-0.050428	-1.066781	-0.290031
H61	H	0.050192	-1.071413	-0.294635
C62	C	-0.000111	-0.528863	-0.041036
H63	H	-0.000104	-0.474885	-0.032003
H64	H	-0.050418	-0.543246	-0.066856
H65	H	0.050202	-0.547878	-0.071476
H66	H	-0.213833	-0.790465	0.205250
H67	H	-0.000078	-0.504325	0.229096
C68	C	-0.000139	-0.131547	-0.047391
H69	H	-0.000130	-0.077569	-0.038353
H70	H	-0.050450	-0.145925	-0.073209
H71	H	0.050170	-0.150560	-0.077835
C72	C	-0.000100	-0.694643	-0.038384
H73	H	-0.000105	-0.746000	-0.027664
H74	H	0.050201	-0.687783	-0.069243
H75	H	-0.050419	-0.683149	-0.064611
C76	C	-0.000081	-0.747191	-0.494614
H77	H	-0.000085	-0.705563	-0.523980
H78	H	0.050224	-0.747130	-0.465744
H79	H	-0.050396	-0.742498	-0.461132
C80	C	-0.391558	-0.984125	0.011731
H81	H	-0.452141	-0.973951	0.021892
H82	H	-0.376671	-1.035304	0.019202
H83	H	-0.376683	-0.976681	-0.039459
H84	H	-0.621636	-1.004859	-0.008958
H85	H	-0.000117	-1.014675	-0.684929
C86	C	-0.000130	-0.297322	-0.044745
H87	H	-0.000128	-0.267956	-0.086373
H88	H	-0.050436	-0.326183	-0.044810
H89	H	0.050184	-0.330813	-0.049434
H90	H	-0.000139	-1.023324	-0.144403
C91	C	-0.000118	-1.036849	-0.533041
H92	H	-0.000114	-1.077367	-0.573306
H93	H	-0.050424	-1.037890	-0.500316
H94	H	0.050196	-1.042526	-0.504938
C95	C	-0.000061	-0.744544	-0.660386
H96	H	-0.000041	-0.704025	-0.620125
H97	H	-0.050366	-0.738857	-0.688493
H98	H	0.050254	-0.743517	-0.693110
C99	C	-0.000082	-0.750901	-0.263074
H100	H	-0.000092	-0.759934	-0.317052
H101	H	0.050228	-0.725090	-0.248686
H102	H	-0.050392	-0.720452	-0.244065
H103	H	-0.000085	-0.773074	-0.111194
H104	H	-0.786382	-0.997288	-0.001375
H105	H	-0.786367	-0.810188	0.185606
C106	C	-0.000060	-0.656200	0.251270
H107	H	-0.000067	-0.615933	0.291786
H108	H	0.050248	-0.688929	0.252320
H109	H	-0.050372	-0.684298	0.256942
H110	H	-0.621634	-0.817756	0.178016
H111	H	-0.378576	-0.782895	0.212830
H112	H	-0.000093	-0.250228	0.225030
H113	H	-0.000105	-0.107007	0.222739
