data_functionalizedCrystal
_audit_creation_method	'MofGen! by Chris Wilmer'
_symmetry_space_group_name_H-M	'P1'
_symmetry_Int_Tables_number	1
_symmetry_cell_setting	triclinic
loop_
_symmetry_equiv_pos_as_xyz
  x,y,z
_cell_length_a	16.120444
_cell_length_b	18.215407
_cell_length_c	16.120704
_cell_angle_alpha	92.889152
_cell_angle_beta	84.364089
_cell_angle_gamma	87.072949
loop_
_atom_site_label
_atom_site_type_symbol
_atom_site_fract_x
_atom_site_fract_y
_atom_site_fract_z
Zn1	Zn	-0.356925	-1.087093	0.489474
Zn2	Zn	0.143075	-0.587093	0.989474
Zn3	Zn	-0.489565	-1.087023	0.356783
Zn4	Zn	0.010435	-0.587023	0.856783
Zn5	Zn	-0.349809	-0.970624	0.349716
Zn6	Zn	0.150191	-0.470624	0.849716
Zn7	Zn	-0.496660	-0.957417	0.496508
Zn8	Zn	0.003340	-0.457417	0.996508
O9	O	-0.423240	-1.025540	0.423121
O10	O	0.076760	-0.525540	0.923121
O11	O	-0.374529	-1.190067	0.471886
O12	O	0.125471	-0.690067	0.971886
O13	O	-0.465079	-1.077081	0.238881
O14	O	0.034921	-0.577081	0.738881
O15	O	-0.233785	-0.991630	0.362354
O16	O	0.266215	-0.491630	0.862354
O17	O	-0.471979	-1.190016	0.374399
O18	O	0.028021	-0.690016	0.874399
O19	O	-0.239013	-1.077200	0.465033
O20	O	0.260987	-0.577200	0.965033
O21	O	-0.362401	-0.991563	0.233689
O22	O	0.137599	-0.491563	0.733689
O23	O	-0.369280	-0.865889	0.369175
O24	O	0.130720	-0.365889	0.869175
O25	O	-0.484071	-0.969121	0.612540
O26	O	0.015929	-0.469121	1.112540
O27	O	-0.477171	-0.856186	0.477023
O28	O	0.022829	-0.356186	0.977023
O29	O	-0.381408	-1.064394	0.607372
O30	O	0.118592	-0.564394	1.107372
O31	O	-0.607474	-1.064275	0.381220
O32	O	-0.107474	-0.564275	0.881220
O33	O	-0.612687	-0.969054	0.483875
O34	O	-0.112687	-0.469054	0.983875
C35	C	-0.423224	-0.834335	0.423096
C36	C	0.076776	-0.334335	0.923096
C37	C	-0.423239	-0.752535	0.423106
C38	C	0.076761	-0.252535	0.923106
C39	C	-0.640410	-1.015243	0.434096
C40	C	-0.140410	-0.515243	0.934096
C41	C	-0.733318	-1.010904	0.438819
C42	C	-0.233318	-0.510904	0.938819
C43	C	-0.434325	-1.015292	0.641131
C44	C	0.065675	-0.515292	1.141131
C45	C	-0.439049	-1.010925	0.734035
C46	C	0.060951	-0.510925	1.234035
C47	C	-0.942212	-1.048220	0.398799
C48	C	-0.442212	-0.548220	0.898799
C49	C	-0.903416	-1.002995	0.447451
C50	C	-0.403416	-0.502995	0.947451
C51	C	-0.808765	-1.007396	0.442647
C52	C	-0.308765	-0.507396	0.942647
C53	C	-1.036873	-1.043820	0.403602
C54	C	-0.536873	-0.543820	0.903602
C55	C	-0.205222	-1.035896	0.412121
C56	C	0.294778	-0.535896	0.912121
C57	C	-0.112316	-1.040309	0.407433
C58	C	0.387684	-0.540309	0.907433
C59	C	-0.423256	-1.217491	0.423146
C60	C	0.076744	-0.717491	0.923146
C61	C	-0.423263	-1.299289	0.423157
C62	C	0.076737	-0.799289	0.923157
C63	C	-0.479498	-0.559307	0.479200
C64	C	0.020502	-0.059307	0.979200
C65	C	-0.479501	-0.482448	0.479210
C66	C	0.020499	0.017552	0.979210
C67	C	-0.366998	-0.492522	0.367061
C68	C	0.133002	0.007478	0.867061
C69	C	-0.366991	-0.569380	0.367055
C70	C	0.133009	-0.069380	0.867055
C71	C	-0.423246	-0.602771	0.423123
C72	C	0.076754	-0.102771	0.923123
C73	C	-0.423256	-0.449053	0.423140
C74	C	0.076744	0.050947	0.923140
C75	C	-0.423259	-0.365719	0.423151
C76	C	0.076741	0.134281	0.923151
C77	C	-0.423242	-0.686110	0.423113
C78	C	0.076758	-0.186110	0.923113
C79	C	-0.398932	-1.048124	0.942964
C80	C	0.101068	-0.548124	1.442964
C81	C	-0.447638	-1.002929	0.904123
C82	C	0.052362	-0.502929	1.404123
C83	C	-0.442858	-1.007380	0.809477
C84	C	0.057142	-0.507380	1.309477
C85	C	-0.403712	-1.043674	1.037618
C86	C	0.096288	-0.543674	1.537618
C87	C	-0.412224	-1.035745	1.205959
C88	C	0.087776	-0.535745	1.705959
C89	C	-0.407524	-1.040125	1.113057
C90	C	0.092476	-0.540125	1.613057
H91	H	-0.941287	-0.960969	0.492712
H92	H	-0.441287	-0.460969	0.992712
N93	N	-0.892054	-1.103875	0.338838
N94	N	-0.392054	-0.603875	0.838838
H95	H	-0.931130	-1.133446	0.307032
H96	H	-0.431130	-0.633446	0.807032
H97	H	-0.857508	-1.137962	0.371087
H98	H	-0.357508	-0.637962	0.871087
N99	N	-0.540169	-0.595323	0.539671
N100	N	-0.040169	-0.095323	1.039671
H101	H	-0.575804	-0.556124	0.575197
H102	H	-0.075804	-0.056124	1.075197
H103	H	-0.508171	-0.627008	0.576686
H104	H	-0.008171	-0.127008	1.076686
H105	H	-0.525306	-0.447063	0.524874
H106	H	-0.025306	0.052937	1.024874
N107	N	-0.306346	-0.456508	0.306568
N108	N	0.193654	0.043492	0.806568
H109	H	-0.314893	-0.401223	0.315072
H110	H	0.185107	0.098777	0.815072
H111	H	-0.316250	-0.472138	0.247514
H112	H	0.183750	0.027862	0.747514
N113	N	-0.306306	-0.616265	0.306580
N114	N	0.193694	-0.116265	0.806580
H115	H	-0.270672	-0.583452	0.271060
H116	H	0.229328	-0.083452	0.771060
H117	H	-0.338292	-0.648365	0.269558
H118	H	0.161708	-0.148365	0.769558
H119	H	-0.492923	-0.960891	0.941951
H120	H	0.007077	-0.460891	1.441951
H121	H	-0.353647	-1.090155	0.905138
H122	H	0.146353	-0.590155	1.405138
