data_functionalizedCrystal
_audit_creation_method	'MofGen! by Chris Wilmer'
_symmetry_space_group_name_H-M	'P1'
_symmetry_Int_Tables_number	1
_symmetry_cell_setting	triclinic
loop_
_symmetry_equiv_pos_as_xyz
  x,y,z
_cell_length_a	14.519709
_cell_length_b	14.472310
_cell_length_c	14.519709
_cell_angle_alpha	89.997999
_cell_angle_beta	96.319855
_cell_angle_gamma	90.007418
loop_
_atom_site_label
_atom_site_type_symbol
_atom_site_fract_x
_atom_site_fract_y
_atom_site_fract_z
O1	O	1.223880	0.076723	-0.120885
O2	O	1.723880	0.576723	0.379115
O3	O	0.955403	0.076751	-0.135121
O4	O	1.455403	0.576751	0.364879
O5	O	1.096759	0.076728	0.006235
O6	O	1.596759	0.576728	0.506235
O7	O	1.082523	0.076746	-0.262242
O8	O	1.582523	0.576746	0.237758
O9	O	1.096723	-0.076954	0.006227
O10	O	1.596723	0.423046	0.506227
O11	O	0.955366	-0.076931	-0.135130
O12	O	1.455366	0.423069	0.364870
O13	O	1.223843	-0.076959	-0.120893
O14	O	1.723843	0.423041	0.379107
Cu15	Cu	1.089601	-0.090978	-0.128012
Cu16	Cu	1.589601	0.409022	0.371988
Cu17	Cu	1.089644	0.090769	-0.128002
Cu18	Cu	1.589644	0.590769	0.371998
O19	O	1.082486	-0.076936	-0.262250
O20	O	1.582486	0.423064	0.237750
C21	C	0.921025	-0.000086	-0.134462
C22	C	1.421025	0.499914	0.365538
C23	C	0.818643	-0.000076	-0.132474
C24	C	1.318643	0.499924	0.367526
N25	N	1.089578	-0.218808	-0.128018
N26	N	1.589578	0.281192	0.371982
C27	C	0.443748	-0.000118	-0.125154
C28	C	0.943748	0.499882	0.374846
C29	C	0.548056	-0.000106	-0.127187
C30	C	1.048056	0.499894	0.372813
C31	C	0.631192	-0.000096	-0.128814
C32	C	1.131192	0.499904	0.371186
C33	C	0.735507	-0.000086	-0.130847
C34	C	1.235507	0.499914	0.369153
C35	C	1.089643	-0.592900	-0.127999
C36	C	1.589643	-0.092900	0.372001
C37	C	1.013752	-0.553721	-0.203381
C38	C	1.513752	-0.053721	0.296619
C39	C	1.013927	-0.446633	-0.203657
C40	C	1.513927	0.053367	0.296343
C41	C	1.089610	-0.407309	-0.128009
C42	C	1.589610	0.092691	0.371991
C43	C	1.185870	-0.446154	-0.149184
C44	C	1.685870	0.053846	0.350816
C45	C	1.185444	-0.553276	-0.149720
C46	C	1.685444	-0.053276	0.350280
C47	C	1.070132	-0.553433	-0.031218
C48	C	1.570132	-0.053433	0.468782
C49	C	1.067927	-0.446305	-0.031859
C50	C	1.567927	0.053695	0.468141
C51	C	1.089597	-0.302420	-0.128012
C52	C	1.589597	0.197580	0.371988
C53	C	1.089662	-0.697788	-0.127997
C54	C	1.589662	-0.197788	0.372003
C55	C	1.258221	-0.000120	-0.121553
C56	C	1.758221	0.499880	0.378447
C57	C	1.360602	-0.000124	-0.123541
C58	C	1.860602	0.499876	0.376459
C59	C	1.096078	-0.000113	0.040591
C60	C	1.596078	0.499887	0.540591
C61	C	1.094089	-0.000114	0.142972
C62	C	1.594089	0.499886	0.642972
N63	N	1.089675	0.218600	-0.127989
N64	N	1.589675	0.718600	0.372011
C65	C	1.083168	-0.000093	-0.296606
C66	C	1.583168	0.499907	0.203394
C67	C	1.085156	-0.000087	-0.398987
C68	C	1.585156	0.499913	0.101013
C69	C	1.086770	-0.000089	0.517868
C70	C	1.586770	0.499911	1.017868
C71	C	1.088803	-0.000096	0.413560
C72	C	1.588803	0.499904	0.913560
C73	C	1.090430	-0.000102	0.330423
C74	C	1.590430	0.499898	0.830423
C75	C	1.092463	-0.000108	0.226109
C76	C	1.592463	0.499892	0.726109
H77	H	0.942380	-0.420371	-0.191017
H78	H	1.442380	0.079629	0.308983
F79	F	1.261460	-0.412863	-0.079337
F80	F	1.761460	0.087137	0.420663
H81	H	1.026403	-0.420996	-0.275473
H82	H	1.526403	0.079004	0.224527
F83	F	0.980350	-0.588778	-0.004668
F84	F	1.480350	-0.088778	0.495332
H85	H	1.203446	-0.419314	-0.218967
H86	H	1.703446	0.080686	0.281033
H87	H	1.026056	-0.580628	-0.274793
H88	H	1.526056	-0.080628	0.225207
F89	F	0.975371	-0.413122	-0.010857
F90	F	1.475371	0.086878	0.489143
H91	H	1.202613	-0.578249	-0.220307
H92	H	1.702613	-0.078249	0.279693
F93	F	1.142467	-0.586548	0.042109
F94	F	1.642467	-0.086548	0.542109
H95	H	0.941973	-0.579502	-0.190947
H96	H	1.441973	-0.079502	0.309053
H97	H	1.119600	-0.419540	0.026878
H98	H	1.619600	0.080460	0.526878
F99	F	1.261420	-0.587152	-0.080624
F100	F	1.761420	-0.087152	0.419376
