data_functionalizedCrystal
_audit_creation_method	'MofGen! by Chris Wilmer'
_symmetry_space_group_name_H-M	'P1'
_symmetry_Int_Tables_number	1
_symmetry_cell_setting	triclinic
loop_
_symmetry_equiv_pos_as_xyz
  x,y,z
_cell_length_a	14.044220
_cell_length_b	16.109301
_cell_length_c	15.186229
_cell_angle_alpha	90.005167
_cell_angle_beta	90.001537
_cell_angle_gamma	91.674821
loop_
_atom_site_label
_atom_site_type_symbol
_atom_site_fract_x
_atom_site_fract_y
_atom_site_fract_z
O1	O	1.257643	-0.200436	-0.073140
O2	O	1.757643	0.299564	0.426860
O3	O	0.981676	-0.193203	-0.073163
O4	O	1.481676	0.306797	0.426837
O5	O	1.127241	-0.076352	-0.073142
O6	O	1.627241	0.423648	0.426858
O7	O	1.112079	-0.317286	-0.073161
O8	O	1.612079	0.182714	0.426839
O9	O	1.127231	-0.076350	0.073315
O10	O	1.627231	0.423650	0.573315
O11	O	0.981667	-0.193200	0.073295
O12	O	1.481667	0.306800	0.573295
O13	O	1.257634	-0.200433	0.073317
O14	O	1.757634	0.299567	0.573317
Zn15	Zn	1.119649	-0.196816	0.096559
Zn16	Zn	1.619649	0.303184	0.596559
Zn17	Zn	1.119661	-0.196820	-0.096405
Zn18	Zn	1.619661	0.303180	0.403595
O19	O	1.112069	-0.317284	0.073296
O20	O	1.612069	0.182716	0.573296
C21	C	1.126622	-0.045330	0.000087
C22	C	1.626622	0.454670	0.500087
C23	C	1.124781	0.047102	0.000088
C24	C	1.624781	0.547102	0.500088
C25	C	0.946358	-0.190036	0.000063
C26	C	1.446358	0.309964	0.500063
C27	C	0.841135	-0.180592	0.000055
C28	C	1.341135	0.319408	0.500055
N29	N	1.119647	-0.196814	0.228252
N30	N	1.619647	0.303186	0.728252
C31	C	0.648479	-0.163326	0.000074
C32	C	1.148479	0.336674	0.500074
C33	C	0.590825	-0.230306	0.000072
C34	C	1.090825	0.269694	0.500072
C35	C	0.483625	-0.220699	0.000083
C36	C	0.983625	0.279301	0.500083
C37	C	0.755690	-0.172932	0.000064
C38	C	1.255690	0.327068	0.500064
C39	C	1.292952	-0.203600	0.000089
C40	C	1.792952	0.296400	0.500089
C41	C	1.398175	-0.213044	0.000091
C42	C	1.898175	0.286956	0.500091
C43	C	1.112688	-0.348306	0.000065
C44	C	1.612688	0.151694	0.500065
C45	C	1.114529	-0.440738	0.000058
C46	C	1.614529	0.059262	0.500058
C47	C	1.206874	0.263266	0.000081
C48	C	1.706874	0.763266	0.500081
C49	C	1.205137	0.350116	0.000073
C50	C	1.705137	0.850116	0.500073
C51	C	1.032429	0.343091	0.000063
C52	C	1.532429	0.843091	0.500063
C53	C	1.034168	0.256243	0.000064
C54	C	1.534168	0.756243	0.500064
C55	C	1.121393	0.216333	0.000078
C56	C	1.621393	0.716333	0.500078
C57	C	1.117917	0.390031	0.000069
C58	C	1.617917	0.890031	0.500069
C59	C	1.116032	0.484197	0.000061
C60	C	1.616032	0.984197	0.500061
C61	C	1.123278	0.122161	0.000084
C62	C	1.623278	0.622161	0.500084
N63	N	1.119671	-0.196816	-0.228097
N64	N	1.619671	0.303184	0.271903
C65	C	1.184125	-0.145093	0.453984
C66	C	1.684125	0.354907	0.953984
C67	C	1.184128	-0.145092	0.546173
C68	C	1.684128	0.354908	1.046173
C69	C	1.055186	-0.248539	0.546164
C70	C	1.555186	0.251461	1.046164
C71	C	1.055179	-0.248536	0.453976
C72	C	1.555179	0.251464	0.953976
C73	C	1.119654	-0.196814	0.407888
C74	C	1.619654	0.303186	0.907888
C75	C	1.119664	-0.196816	0.592266
C76	C	1.619664	0.303184	1.092266
C77	C	1.119666	-0.196814	0.692222
C78	C	1.619666	0.303186	1.192222
C79	C	1.119650	-0.196814	0.307926
C80	C	1.619650	0.303186	0.807926
H81	H	0.621976	-0.294863	0.000063
H82	H	1.121976	0.205137	0.500063
C83	C	0.606397	-0.076117	0.000079
C84	C	1.106397	0.423883	0.500079
N85	N	0.574690	-0.010432	0.000078
N86	N	1.074690	0.489568	0.500078
H87	H	1.277898	0.230774	0.000090
H88	H	1.777898	0.730774	0.500090
C89	C	0.940127	0.204613	0.000056
C90	C	1.440127	0.704613	0.500056
N91	N	0.869298	0.165726	0.000047
N92	N	1.369298	0.665726	0.500047
C93	C	1.299173	0.401739	0.000085
C94	C	1.799173	0.901739	0.500085
N95	N	1.370005	0.440621	0.000095
N96	N	1.870005	0.940621	0.500095
C97	C	0.936486	0.387001	0.000066
C98	C	1.436486	0.887001	0.500066
N99	N	0.864220	0.420072	0.000074
N100	N	1.364220	0.920072	0.500074
C101	C	1.255041	-0.088191	0.403290
C102	C	1.755041	0.411809	0.903290
N103	N	1.308454	-0.045328	0.365111
N104	N	1.808454	0.454672	0.865111
C105	C	1.255043	-0.088187	0.596874
C106	C	1.755043	0.411813	1.096874
N107	N	1.308457	-0.045321	0.635061
N108	N	1.808457	0.454679	1.135061
C109	C	0.984266	-0.305428	0.596869
C110	C	1.484266	0.194572	1.096869
N111	N	0.930847	-0.348277	0.635060
N112	N	1.430847	0.151723	1.135060
H113	H	1.002675	-0.290653	0.416443
H114	H	1.502675	0.209347	0.916443
