data_functionalizedCrystal
_audit_creation_method	'MofGen! by Chris Wilmer'
_symmetry_space_group_name_H-M	'P1'
_symmetry_Int_Tables_number	1
_symmetry_cell_setting	triclinic
loop_
_symmetry_equiv_pos_as_xyz
  x,y,z
_cell_length_a	12.811415
_cell_length_b	10.654547
_cell_length_c	11.892095
_cell_angle_alpha	86.062459
_cell_angle_beta	88.492960
_cell_angle_gamma	84.263633
loop_
_atom_site_label
_atom_site_type_symbol
_atom_site_fract_x
_atom_site_fract_y
_atom_site_fract_z
O1	O	0.139774	1.676289	-0.108349
O2	O	0.153715	1.310860	-0.109776
O3	O	-0.004881	1.501448	-0.093514
O4	O	0.298370	1.485701	-0.124611
O5	O	0.008322	1.485557	0.093139
O6	O	0.166918	1.294969	0.076878
O7	O	0.152977	1.660398	0.078305
Zn8	Zn	0.162044	1.475160	0.107226
Zn9	Zn	0.144648	1.496098	-0.138698
O10	O	0.311573	1.469810	0.062043
C11	C	0.159293	1.256113	-0.016344
C12	C	0.156228	1.116659	-0.016029
C13	C	-0.037110	1.492133	0.003792
C14	C	-0.152811	1.488038	0.015650
C15	C	-0.384611	1.497646	-0.165582
C16	C	-0.493324	1.493799	-0.154446
C17	C	-0.478950	1.476486	0.049056
C18	C	-0.370237	1.480334	0.037920
C19	C	-0.323072	1.490916	-0.069403
C20	C	-0.214359	1.494772	-0.080537
C21	C	-0.199986	1.477451	0.122964
C22	C	-0.308699	1.473604	0.134100
C23	C	0.136056	0.871945	-0.218947
C24	C	0.130301	0.946130	-0.320840
C25	C	0.133188	1.077158	-0.321133
C26	C	0.141829	1.134002	-0.219522
C27	C	0.147585	1.059817	-0.117629
C28	C	0.144700	0.928787	-0.117347
C29	C	0.161984	1.042473	0.085864
C30	C	0.159104	0.911445	0.086159
C31	C	0.170625	1.099318	0.187475
C32	C	0.176388	1.025131	0.289370
C33	C	0.173501	0.894096	0.289658
C34	C	0.164860	0.837259	0.188052
C35	C	0.343801	1.479125	-0.035266
C36	C	0.459503	1.483221	-0.047131
N37	N	0.173915	1.460880	0.275063
C38	C	0.147399	1.715146	-0.015130
C39	C	0.150463	1.854600	-0.015452
N40	N	0.132769	1.510387	-0.306534
C41	C	0.050103	1.609754	0.524406
C42	C	0.058408	1.599781	0.641897
C43	C	0.198826	1.430958	0.627537
C44	C	0.190521	1.440930	0.510046
C45	C	0.116157	1.530332	0.458486
C46	C	0.107858	1.540310	0.340993
C47	C	0.248270	1.371481	0.326635
C48	C	0.256575	1.361509	0.444126
H49	H	-0.175959	1.503393	-0.167925
C50	C	0.173797	1.243444	0.187161
H51	H	0.179759	1.266671	0.262268
H52	H	0.232452	1.267560	0.143297
H53	H	0.111122	1.285018	0.155742
H54	H	0.259364	1.358161	0.669534
H55	H	-0.517370	1.467861	0.136433
C56	C	-0.332722	1.509296	-0.283625
H57	H	-0.259164	1.510633	-0.276481
H58	H	-0.346074	1.439146	-0.324373
H59	H	-0.360909	1.585320	-0.322842
H60	H	0.004619	1.664452	0.695567
H61	H	-0.543425	1.499274	-0.232766
H62	H	0.128500	1.137560	-0.404103
H63	H	-0.347115	1.464983	0.221479
C64	C	0.144998	1.278129	-0.219845
H65	H	0.140335	1.314169	-0.295080
H66	H	0.087651	1.313298	-0.176106
H67	H	0.208980	1.295837	-0.188561
H68	H	0.302059	1.306815	0.272949
C69	C	-0.132290	1.470037	0.228766
H70	H	-0.060788	1.473835	0.206766
H71	H	-0.154570	1.538929	0.273159
H72	H	-0.139736	1.392754	0.271635
C73	C	0.132922	0.727813	-0.218633
H74	H	0.126958	0.704583	-0.293739
H75	H	0.195599	0.686269	-0.187209
H76	H	0.074268	0.703669	-0.174773
C77	C	0.120816	0.883603	-0.432608
H78	H	0.117799	0.946553	-0.493332
H79	H	0.180057	0.824123	-0.442937
H80	H	0.058726	0.841577	-0.430516
C81	C	0.185893	1.087660	0.401126
H82	H	0.186790	1.176319	0.386357
H83	H	0.127723	1.071352	0.449208
H84	H	0.249052	1.053900	0.436750
C85	C	0.179835	0.812501	0.401743
H86	H	0.185401	0.865125	0.462208
H87	H	0.118351	0.769753	0.412311
H88	H	0.239680	0.752300	0.399864
H89	H	0.162515	0.730570	0.188276
C90	C	0.026059	1.638642	0.284277
H91	H	-0.012098	1.684504	0.340369
H92	H	0.060700	1.695341	0.234547
H93	H	-0.020908	1.596734	0.242939
H94	H	-0.010440	1.682557	0.482424
H95	H	0.317118	1.288716	0.486121
