data_functionalizedCrystal
_audit_creation_method	'MofGen! by Chris Wilmer'
_symmetry_space_group_name_H-M	'P1'
_symmetry_Int_Tables_number	1
_symmetry_cell_setting	triclinic
loop_
_symmetry_equiv_pos_as_xyz
  x,y,z
_cell_length_a	10.654549
_cell_length_b	14.519731
_cell_length_c	9.130307
_cell_angle_alpha	89.995718
_cell_angle_beta	89.997449
_cell_angle_gamma	84.087885
loop_
_atom_site_label
_atom_site_type_symbol
_atom_site_fract_x
_atom_site_fract_y
_atom_site_fract_z
O1	O	1.666601	0.129551	-0.121839
O2	O	1.301006	0.141887	-0.121834
O3	O	1.493483	0.001532	-0.121823
O4	O	1.474124	0.269906	-0.121850
O5	O	1.493477	0.001531	0.121776
O6	O	1.301000	0.141886	0.121765
O7	O	1.666595	0.129550	0.121760
Cu8	Cu	1.483797	0.135718	0.144005
Cu9	Cu	1.483804	0.135719	-0.144079
O10	O	1.474118	0.269905	0.121749
C11	C	1.254214	0.140980	-0.000034
C12	C	1.114796	0.138267	-0.000032
C13	C	0.823264	0.301007	-0.000089
C14	C	0.873991	0.386200	-0.000091
C15	C	1.004984	0.388752	-0.000072
C16	C	1.085256	0.306102	-0.000056
C17	C	1.034529	0.220908	-0.000053
C18	C	0.903531	0.218365	-0.000068
C19	C	1.064070	0.053074	-0.000029
C20	C	0.933076	0.050520	-0.000038
C21	C	1.144341	-0.029577	-0.000013
C22	C	1.093615	-0.114772	0.000000
C23	C	0.962613	-0.117321	-0.000017
C24	C	0.882349	-0.034674	-0.000036
C25	C	1.492573	-0.032833	-0.000023
C26	C	1.489855	-0.135227	-0.000022
C27	C	1.487646	-0.218383	-0.000026
C28	C	1.484886	-0.322706	-0.000037
C29	C	1.482696	-0.405856	-0.000046
C30	C	1.479937	-0.510186	-0.000055
C31	C	1.713387	0.130457	-0.000043
C32	C	1.852805	0.133170	-0.000055
C33	C	1.475028	0.304269	-0.000054
C34	C	1.477746	0.406664	-0.000064
N35	N	1.483801	0.135716	0.346628
N36	N	1.483810	0.135714	-0.346702
C37	C	1.654308	0.011468	0.346628
C38	C	1.739570	-0.050653	0.423294
C39	C	1.739583	-0.050654	0.576628
C40	C	1.654322	0.011472	0.653298
C41	C	1.569060	0.073593	0.576631
C42	C	1.569059	0.073589	0.423294
C43	C	1.398548	0.197835	0.576632
C44	C	1.398539	0.197841	0.423298
C45	C	1.313287	0.259960	0.653302
C46	C	1.228029	0.322087	0.576635
C47	C	1.228020	0.322086	0.423293
C48	C	1.313277	0.259963	0.346632
H49	H	0.716600	0.298937	-0.000079
C50	C	0.906823	-0.211035	-0.000014
H51	H	0.973394	-0.259887	0.000008
H52	H	0.856344	-0.215521	-0.084965
H53	H	0.856330	-0.215520	0.084942
H54	H	1.313283	0.259959	0.221780
C55	C	0.785692	0.477108	-0.000102
H56	H	0.700411	0.463391	-0.000098
H57	H	0.801100	0.512010	-0.085049
H58	H	0.801083	0.512002	0.084859
H59	H	1.158585	0.372669	0.360879
C60	C	0.738259	-0.037473	-0.000065
H61	H	0.697723	0.023950	-0.000090
H62	H	0.714056	-0.069044	0.084876
H63	H	0.714100	-0.069039	-0.085031
H64	H	1.158609	0.372662	0.639070
H65	H	1.654327	0.011460	0.778150
H66	H	1.191917	0.308187	-0.000057
C67	C	1.060787	0.482461	-0.000077
H68	H	0.994225	0.531320	-0.000083
H69	H	1.111290	0.486940	-0.085017
H70	H	1.111259	0.486942	0.084890
C71	C	1.833366	-0.118986	0.660964
H72	H	1.884146	-0.155983	0.593348
H73	H	1.788111	-0.157685	0.720794
H74	H	1.885717	-0.085441	0.720764
C75	C	1.288431	-0.026771	0.000012
H76	H	1.307148	0.035803	0.000024
H77	H	1.323538	-0.057188	-0.084925
H78	H	1.323499	-0.057188	0.084983
H79	H	1.654317	0.011470	0.221775
C80	C	1.181911	-0.205674	0.000020
H81	H	1.267190	-0.191952	0.000032
H82	H	1.166522	-0.240579	-0.084919
H83	H	1.166508	-0.240567	0.084988
C84	C	1.833350	-0.118986	0.338956
H85	H	1.821143	-0.110086	0.236655
H86	H	1.819584	-0.180631	0.364097
H87	H	1.917186	-0.108384	0.364073
C88	C	1.313301	0.259962	0.821964
H89	H	1.376299	0.214075	0.856646
H90	H	1.233018	0.246787	0.856671
H91	H	1.330622	0.319033	0.856630
