data_functionalizedCrystal
_audit_creation_method	'MofGen! by Chris Wilmer'
_symmetry_space_group_name_H-M	'P1'
_symmetry_Int_Tables_number	1
_symmetry_cell_setting	triclinic
loop_
_symmetry_equiv_pos_as_xyz
  x,y,z
_cell_length_a	14.446369
_cell_length_b	14.446369
_cell_length_c	14.446369
_cell_angle_alpha	60.003968
_cell_angle_beta	89.999999
_cell_angle_gamma	59.998616
loop_
_atom_site_label
_atom_site_type_symbol
_atom_site_fract_x
_atom_site_fract_y
_atom_site_fract_z
Zr1	Zr	0.891678	1.013281	-0.121509
O2	O	0.743869	1.206384	-0.269300
O3	O	0.936995	0.820168	-0.076205
O4	O	0.936987	1.013276	-0.269313
O5	O	0.743877	1.013284	0.076136
O6	O	1.089316	1.013284	-0.269321
O7	O	0.743877	1.013276	-0.076192
O8	O	1.089331	0.667849	0.076114
O9	O	0.743862	1.358719	-0.269299
O10	O	1.069997	0.899608	-0.056887
O11	O	0.956316	0.899608	0.056800
O12	O	0.956306	1.126968	-0.170560
O13	O	0.842625	1.126968	-0.056873
Zr14	Zr	1.134625	1.013308	0.121425
Zr15	Zr	1.134625	1.013295	-0.121522
Zr16	Zr	0.891678	1.013295	0.121438
Zr17	Zr	0.891668	1.256239	-0.121506
Zr18	Zr	1.134635	0.770351	0.121422
O19	O	1.089307	1.206422	0.076120
O20	O	1.089308	1.206403	-0.269319
O21	O	0.743868	1.206403	0.076139
O22	O	1.282434	0.820205	0.269216
O23	O	1.282435	0.820187	-0.076223
O24	O	0.936995	0.820187	0.269234
O25	O	1.282426	1.013305	-0.076221
O26	O	1.089315	1.013314	0.269228
O27	O	0.936987	1.013305	0.269236
O28	O	1.282426	1.013314	0.076108
O29	O	0.936972	1.358730	-0.269309
O30	O	1.089330	0.667860	0.269224
O31	O	1.282441	0.667870	0.269214
O32	O	1.282441	0.667860	0.076104
O33	O	0.743862	1.358730	-0.076188
O34	O	0.936972	1.358740	-0.076199
O35	O	1.069997	0.899621	0.170475
O36	O	1.183678	0.899621	0.056788
O37	O	1.069987	1.126981	-0.056885
O38	O	0.956306	1.126981	0.056803
C39	C	1.013165	0.709392	-0.000046
C40	C	1.013169	0.606250	-0.000047
C41	C	1.084502	0.459934	-0.072100
C42	C	1.084906	0.566859	-0.071793
C43	C	1.065471	0.479403	0.123474
C44	C	1.065991	0.372024	0.123084
C45	C	0.889433	0.546980	-0.050502
C46	C	0.889631	0.655453	-0.053007
C47	C	0.709262	1.013278	-0.000026
C48	C	0.606125	1.013272	-0.000021
C49	C	0.531148	0.869891	0.071301
C50	C	0.638477	0.869795	0.071709
C51	C	0.531562	1.084503	0.052279
C52	C	0.424703	1.083593	0.052794
C53	C	0.423130	1.086536	-0.123756
C54	C	0.531801	1.083834	-0.123554
C55	C	1.317041	1.013311	-0.000059
C56	C	1.420178	1.013317	-0.000064
C57	C	1.013152	1.013278	-0.303932
C58	C	1.013152	1.013272	-0.407069
C59	C	1.013138	1.317197	-0.000039
C60	C	1.013134	1.420339	-0.000038
C61	C	1.085214	0.869892	-0.482057
C62	C	1.084902	0.869795	-0.374728
C63	C	0.889626	1.084493	-0.481621
C64	C	0.890021	1.083583	-0.588480
C65	C	1.063618	1.086545	-0.590063
C66	C	1.066118	1.083843	-0.481392
C67	C	1.013151	1.013311	0.303847
C68	C	1.013151	1.013317	0.406984
C69	C	1.317054	0.709409	-0.000062
C70	C	1.420196	0.606273	-0.000069
C71	C	1.013164	0.709409	0.303843
C72	C	1.013168	0.606273	0.406980
C73	C	1.317054	0.709425	0.303827
C74	C	1.420195	0.606295	0.406958
C75	C	0.709249	1.317164	-0.303912
C76	C	0.606108	1.420294	-0.407043
C77	C	0.709249	1.317180	-0.000023
C78	C	0.606107	1.420317	-0.000016
C79	C	1.013139	1.317180	-0.303928
C80	C	1.013134	1.420317	-0.407064
C81	C	1.638559	0.459976	0.071242
C82	C	1.531328	0.566892	0.071660
C83	C	1.423529	0.479417	0.052226
C84	C	1.531297	0.372046	0.052732
C85	C	1.529916	0.547015	-0.123817
C86	C	1.423948	0.655481	-0.123605
C87	C	0.941130	0.459955	0.481964
C88	C	0.941429	0.566875	0.374637
C89	C	1.136700	0.479427	0.481525
C90	C	1.136317	0.372052	0.588383
C91	C	0.962712	0.547015	0.589980
C92	C	0.960200	0.655484	0.481310
C93	C	1.495184	0.459969	0.625309
C94	C	1.387850	0.566901	0.518090
C95	C	1.494740	0.479450	0.410263
C96	C	1.601603	0.372064	0.518019
C97	C	1.603210	0.547008	0.516683
C98	C	1.494534	0.655489	0.410726
H99	H	0.845730	0.586518	-0.140070
N100	N	0.599907	1.018989	0.171707
H101	H	0.679151	0.943184	0.192126
H102	H	0.562522	0.985754	0.225991
N103	N	1.493791	0.341218	0.698115
H104	H	1.490694	0.326361	0.773856
H105	H	1.564736	0.261959	0.710069
N106	N	1.204643	0.341176	-0.026189
H107	H	1.213040	0.261839	0.041089
H108	H	1.258726	0.355902	-0.001874
N109	N	0.844047	0.599429	0.595449
H110	H	0.821808	0.541598	0.599893
H111	H	0.789537	0.691393	0.525270
N112	N	1.496009	0.332344	-0.011664
H113	H	1.410581	0.384600	-0.040251
H114	H	1.529082	0.235964	0.040264
N115	N	1.601246	0.251855	0.584694
H116	H	1.531807	0.268984	0.543950
H117	H	1.600134	0.230574	0.662586
H118	H	1.192926	0.342103	0.666959
N119	N	1.530798	0.508922	0.306587
H120	H	1.501182	0.486469	0.263335
H121	H	1.616287	0.455028	0.330688
H122	H	1.049597	0.497170	-0.163292
N123	N	1.210913	0.508887	0.517593
H124	H	1.165060	0.604973	0.485880
H125	H	1.276607	0.486346	0.487978
H126	H	1.421398	0.440863	0.142388
N127	N	1.205777	0.517239	-0.025405
H128	H	1.206542	0.586570	-0.025012
H129	H	1.249528	0.496430	-0.074660
N130	N	0.425048	1.016544	0.173356
H131	H	0.424045	1.065651	0.204729
H132	H	0.495566	0.923777	0.221137
N133	N	0.837870	0.775299	-0.173553
H134	H	0.894198	0.797642	-0.193784
H135	H	0.767244	0.851280	-0.180949
H136	H	1.175863	0.813916	-0.320460
N137	N	1.316584	0.517304	0.521310
H138	H	1.293561	0.496511	0.591327
H139	H	1.362023	0.435558	0.523124
H140	H	0.419012	1.040637	-0.167448
H141	H	1.015994	0.501649	0.179495
N142	N	0.815031	1.222962	-0.692568
H143	H	0.781861	1.284721	-0.668897
H144	H	0.751720	1.234337	-0.737016
N145	N	1.711380	0.341214	0.191376
H146	H	1.672375	0.355834	0.245520
H147	H	1.787106	0.326418	0.209232
H148	H	1.011361	1.192213	-0.668258
H149	H	1.050530	0.813876	-0.481022
H150	H	1.157018	0.281277	0.163485
H151	H	1.443136	0.745944	0.411298
N152	N	1.493554	0.514186	-0.194589
H153	H	1.526236	0.417786	-0.146826
H154	H	1.521989	0.535876	-0.261194
N155	N	1.001584	0.332338	0.198062
H156	H	0.972985	0.384605	0.231225
H157	H	1.053511	0.235960	0.261373
H158	H	0.692743	0.813929	0.036613
H159	H	0.533485	0.813593	0.036402
H160	H	1.177390	0.440869	0.429915
N161	N	0.820333	0.509261	0.478878
H162	H	0.775566	0.534126	0.407006
H163	H	0.785090	0.588441	0.480930
N164	N	0.813262	0.698004	0.009289
H165	H	0.857863	0.685931	0.073012
H166	H	0.782612	0.643265	0.041439
N167	N	0.818661	0.514156	0.018688
H168	H	0.866432	0.417758	0.082407
H169	H	0.752057	0.535839	-0.031435
N170	N	0.533144	0.796151	0.191768
H171	H	0.462404	0.855192	0.200276
H172	H	0.602140	0.767174	0.244941
H173	H	0.850465	0.656218	0.320375
H174	H	0.692342	0.813399	0.162966
H175	H	1.443123	0.440907	0.408120
H176	H	1.681426	0.522216	0.489234
H177	H	0.346119	1.188822	0.004174
N178	N	0.815405	1.224234	-0.517695
H179	H	0.861251	1.242761	-0.485979
H180	H	0.749705	1.237782	-0.488088
N181	N	1.608684	0.599412	0.582942
H182	H	1.613128	0.541583	0.663008
H183	H	1.538503	0.691381	0.545492
N184	N	1.528345	0.698050	0.305882
H185	H	1.495812	0.685986	0.254226
H186	H	1.613736	0.643312	0.328458
N187	N	1.206017	0.795315	-0.478956
H188	H	1.241348	0.841206	-0.480957
H189	H	1.206763	0.791245	-0.546761
H190	H	1.049835	0.656199	-0.162751
N191	N	1.184905	0.428325	0.177376
H192	H	1.205325	0.487143	0.121990
H193	H	1.239192	0.336656	0.198422
H194	H	1.014949	0.522231	0.668191
N195	N	1.319111	0.698008	-0.199962
H196	H	1.267468	0.685921	-0.155357
H197	H	1.341712	0.643261	-0.230610
N198	N	1.596156	0.599440	-0.181701
H199	H	1.676228	0.541618	-0.128324
H200	H	1.558690	0.691408	-0.203480
N201	N	1.189807	0.251841	0.588022
H202	H	1.258611	0.175502	0.658366
H203	H	1.213352	0.269065	0.518542
H204	H	1.533787	0.529430	0.162910
N205	N	1.315934	0.685242	0.520241
H206	H	1.306953	0.763806	0.451244
H207	H	1.353878	0.668151	0.591053
H208	H	1.019087	1.188517	-0.506903
H209	H	0.504327	1.189997	0.002807
H210	H	0.583226	1.031898	-0.162625
H211	H	0.506276	1.188509	-0.181196
N212	N	1.424651	0.775329	-0.175356
H213	H	1.422541	0.797669	-0.119025
H214	H	1.356068	0.851311	-0.245976
N215	N	0.836522	1.016511	-0.588118
H216	H	0.836247	1.015245	-0.657387
H217	H	0.756073	1.065651	-0.589070
H218	H	0.975818	0.370291	0.480926
H219	H	1.049901	0.813544	-0.320941
N220	N	1.533449	0.685251	0.025202
H221	H	1.604211	0.668281	0.004267
H222	H	1.533082	0.702910	0.084638
H223	H	0.344911	1.192193	-0.177178
N224	N	0.835718	1.018969	-0.413277
H225	H	0.891104	0.943165	-0.334041
H226	H	0.814672	0.985730	-0.450664
H227	H	1.153207	1.040652	-0.594185
H228	H	1.692511	0.497218	0.036336
N229	N	1.186671	1.015054	-0.413301
H230	H	1.206900	0.938498	-0.334636
H231	H	1.194069	1.078277	-0.407938
H232	H	1.581646	0.281299	0.143751
H233	H	1.345265	0.501656	0.002754
H234	H	0.869194	0.745971	0.429896
N235	N	0.987777	0.517274	0.303363
H236	H	1.008102	0.425782	0.341629
H237	H	1.057686	0.515981	0.294557
H238	H	1.007228	0.687614	0.506830
N239	N	1.492092	0.509278	0.696799
H240	H	1.494102	0.588491	0.652924
H241	H	1.559900	0.438142	0.768665
H242	H	1.680184	0.342106	0.491362
