data_functionalizedCrystal
_audit_creation_method	'MofGen! by Chris Wilmer'
_symmetry_space_group_name_H-M	'P1'
_symmetry_Int_Tables_number	1
_symmetry_cell_setting	triclinic
loop_
_symmetry_equiv_pos_as_xyz
  x,y,z
_cell_length_a	16.625548
_cell_length_b	16.625545
_cell_length_c	12.827885
_cell_angle_alpha	90.030495
_cell_angle_beta	89.978764
_cell_angle_gamma	89.971982
loop_
_atom_site_label
_atom_site_type_symbol
_atom_site_fract_x
_atom_site_fract_y
_atom_site_fract_z
Zn1	Zn	1.232661	0.320940	-0.590898
Zn2	Zn	1.482661	0.570940	-0.340898
Zn3	Zn	1.732661	0.820940	-0.090898
Zn4	Zn	1.982661	1.070940	0.159102
Zn5	Zn	1.232552	0.455794	-0.416156
Zn6	Zn	1.482552	0.705794	-0.166156
Zn7	Zn	1.732552	0.955794	0.083844
Zn8	Zn	1.982552	1.205794	0.333844
Zn9	Zn	1.097821	0.320981	-0.416166
Zn10	Zn	1.347821	0.570981	-0.166166
Zn11	Zn	1.597821	0.820981	0.083834
Zn12	Zn	1.847821	1.070981	0.333834
Zn13	Zn	1.097782	0.455736	-0.590850
Zn14	Zn	1.347782	0.705736	-0.340850
Zn15	Zn	1.597782	0.955736	-0.090850
Zn16	Zn	1.847782	1.205736	0.159150
O17	O	1.165204	0.388363	-0.503518
O18	O	1.415204	0.638363	-0.253518
O19	O	1.665204	0.888363	-0.003518
O20	O	1.915204	1.138363	0.246482
O21	O	1.345479	0.338835	-0.567734
O22	O	1.595479	0.588835	-0.317734
O23	O	1.845479	0.838835	-0.067734
O24	O	2.095479	1.088835	0.182266
O25	O	1.214650	0.437952	-0.269922
O26	O	1.464650	0.687952	-0.019922
O27	O	1.714650	0.937952	0.230078
O28	O	1.964650	1.187952	0.480078
O29	O	1.115769	0.208143	-0.439369
O30	O	1.365769	0.458143	-0.189369
O31	O	1.615769	0.708143	0.060631
O32	O	1.865769	0.958143	0.310631
O33	O	1.345399	0.437912	-0.439352
O34	O	1.595399	0.687912	-0.189352
O35	O	1.845399	0.937912	0.060648
O36	O	2.095399	1.187912	0.310648
O37	O	1.214836	0.208113	-0.567744
O38	O	1.464836	0.458113	-0.317744
O39	O	1.714836	0.708113	-0.067744
O40	O	1.964836	0.958113	0.182256
O41	O	1.115664	0.338906	-0.269929
O42	O	1.365664	0.588906	-0.019929
O43	O	1.615664	0.838906	0.230071
O44	O	1.865664	1.088906	0.480071
O45	O	0.984983	0.338850	-0.439322
O46	O	1.234983	0.588850	-0.189322
O47	O	1.484983	0.838850	0.060678
O48	O	1.734983	1.088850	0.310678
O49	O	1.115704	0.437814	-0.737093
O50	O	1.365704	0.687814	-0.487093
O51	O	1.615704	0.937814	-0.237093
O52	O	1.865704	1.187814	0.012907
O53	O	0.984955	0.437854	-0.567662
O54	O	1.234955	0.687854	-0.317662
O55	O	1.484955	0.937854	-0.067662
O56	O	1.734955	1.187854	0.182338
O57	O	1.214798	0.338779	-0.737128
O58	O	1.464798	0.588779	-0.487128
O59	O	1.714798	0.838779	-0.237128
O60	O	1.964798	1.088779	0.012872
O61	O	1.214613	0.568619	-0.439306
O62	O	1.464613	0.818619	-0.189306
O63	O	1.714613	1.068619	0.060694
O64	O	1.964613	1.318619	0.310694
O65	O	1.115598	0.568576	-0.567653
O66	O	1.365598	0.818576	-0.317653
O67	O	1.615598	1.068576	-0.067653
O68	O	1.865598	1.318576	0.182347
C69	C	0.955713	0.388351	-0.503489
C70	C	1.205713	0.638351	-0.253489
C71	C	1.455713	0.888351	-0.003489
C72	C	1.705713	1.138351	0.246511
C73	C	0.866092	0.388366	-0.503501
C74	C	1.116092	0.638366	-0.253501
C75	C	1.366092	0.888366	-0.003501
C76	C	1.616092	1.138366	0.246499
C77	C	1.165111	0.597854	-0.503496
C78	C	1.415111	0.847854	-0.253496
C79	C	1.665111	1.097854	-0.003496
C80	C	1.915111	1.347854	0.246504
C81	C	1.165145	0.687475	-0.503522
C82	C	1.415145	0.937475	-0.253522
C83	C	1.665145	1.187475	-0.003522
C84	C	1.915145	1.437475	0.246478
C85	C	1.165259	0.388285	-0.776088
C86	C	1.415259	0.638285	-0.526088
C87	C	1.665259	0.888285	-0.276088
C88	C	1.915259	1.138285	-0.026088
C89	C	1.165282	0.388252	-0.892241
C90	C	1.415282	0.638252	-0.642241
C91	C	1.665282	0.888252	-0.392241
C92	C	1.915282	1.138252	-0.142241
C93	C	0.537916	0.388371	-0.503546
C94	C	0.787916	0.638371	-0.253546
C95	C	1.037916	0.888371	-0.003546
C96	C	1.287916	1.138371	0.246454
C97	C	0.629225	0.388367	-0.503530
C98	C	0.879225	0.638367	-0.253530
C99	C	1.129225	0.888367	-0.003530
C100	C	1.379225	1.138367	0.246470
C101	C	0.702001	0.388369	-0.503522
C102	C	0.952001	0.638369	-0.253522
C103	C	1.202001	0.888369	-0.003522
C104	C	1.452001	1.138369	0.246478
C105	C	0.793316	0.388364	-0.503508
C106	C	1.043316	0.638364	-0.253508
C107	C	1.293316	0.888364	-0.003508
C108	C	1.543316	1.138364	0.246492
C109	C	1.375513	0.388375	-0.503548
C110	C	1.625513	0.638375	-0.253548
C111	C	1.875513	0.888375	-0.003548
C112	C	2.125513	1.138375	0.246452
C113	C	1.465134	0.388380	-0.503560
C114	C	1.715134	0.638380	-0.253560
C115	C	1.965134	0.888380	-0.003560
C116	C	2.215134	1.138380	0.246440
C117	C	1.165175	0.760257	-0.503546
C118	C	1.415175	1.010257	-0.253546
C119	C	1.665175	1.260257	-0.003546
C120	C	1.915175	1.510257	0.246454
C121	C	1.165220	0.851566	-0.503574
C122	C	1.415220	1.101566	-0.253574
C123	C	1.665220	1.351566	-0.003574
C124	C	1.915220	1.601566	0.246426
C125	C	1.165260	0.924342	-0.503591
C126	C	1.415260	1.174342	-0.253591
C127	C	1.665260	1.424342	-0.003591
C128	C	1.915260	1.674342	0.246409
C129	C	1.165304	1.015656	-0.503617
C130	C	1.415304	1.265656	-0.253617
C131	C	1.665304	1.515656	-0.003617
C132	C	1.915304	1.765656	0.246383
C133	C	1.165313	1.178054	-0.503576
C134	C	1.415313	1.428054	-0.253576
C135	C	1.665313	1.678054	-0.003576
C136	C	1.915313	1.928054	0.246424
C137	C	1.165344	1.088433	-0.503635
C138	C	1.415344	1.338433	-0.253635
C139	C	1.665344	1.588433	-0.003635
C140	C	1.915344	1.838433	0.246365
C141	C	1.214323	0.339237	-0.944043
C142	C	1.464323	0.589237	-0.694043
C143	C	1.714323	0.839237	-0.444043
C144	C	1.964323	1.089237	-0.194043
C145	C	1.214348	0.339202	-1.064094
C146	C	1.464348	0.589202	-0.814094
C147	C	1.714348	0.839202	-0.564094
C148	C	1.964348	1.089202	-0.314094
C149	C	1.165196	0.388382	-0.232008
C150	C	1.415196	0.638382	0.017992
C151	C	1.665196	0.888382	0.267992
C152	C	1.915196	1.138382	0.517992
C153	C	1.165329	0.388188	-0.115855
C154	C	1.415329	0.638188	0.134145
C155	C	1.665329	0.888188	0.384145
C156	C	1.915329	1.138188	0.634145
H157	H	1.256286	0.297297	-0.899516
H158	H	1.506286	0.547297	-0.649516
H159	H	1.756286	0.797297	-0.399516
H160	H	2.006286	1.047297	-0.149516
Cl161	Cl	1.279178	0.274414	-1.132867
Cl162	Cl	1.529178	0.524414	-0.882867
Cl163	Cl	1.779178	0.774414	-0.632867
Cl164	Cl	2.029178	1.024414	-0.382867
Cl165	Cl	1.100505	0.452987	-1.047088
Cl166	Cl	1.350505	0.702987	-0.797088
Cl167	Cl	1.600505	0.952987	-0.547088
Cl168	Cl	1.850505	1.202987	-0.297088
H169	H	1.123310	0.430185	-0.936768
H170	H	1.373310	0.680185	-0.686768
H171	H	1.623310	0.930185	-0.436768
H172	H	1.873310	1.180185	-0.186768
