data_functionalizedCrystal
_audit_creation_method	'MofGen! by Chris Wilmer'
_symmetry_space_group_name_H-M	'P1'
_symmetry_Int_Tables_number	1
_symmetry_cell_setting	triclinic
loop_
_symmetry_equiv_pos_as_xyz
  x,y,z
_cell_length_a	10.654550
_cell_length_b	16.992695
_cell_length_c	9.130313
_cell_angle_alpha	89.995176
_cell_angle_beta	89.999724
_cell_angle_gamma	87.576577
loop_
_atom_site_label
_atom_site_type_symbol
_atom_site_fract_x
_atom_site_fract_y
_atom_site_fract_z
O1	O	1.677362	0.110190	-0.121691
O2	O	1.312790	0.120688	-0.121718
O3	O	1.493615	0.001288	-0.121693
O4	O	1.496538	0.229590	-0.121716
O5	O	1.493601	0.001285	0.121906
O6	O	1.312777	0.120685	0.121881
O7	O	1.677348	0.110186	0.121908
Cu8	Cu	1.495061	0.115435	0.144137
Cu9	Cu	1.495077	0.115439	-0.143947
O10	O	1.496524	0.229586	0.121883
C11	C	1.265919	0.119916	0.000078
C12	C	1.126277	0.117609	0.000068
C13	C	1.052866	0.187910	0.000065
C14	C	0.921658	0.185738	0.000091
C15	C	0.937282	0.042959	0.000116
C16	C	1.068488	0.045132	0.000101
C17	C	1.489848	-0.027946	0.000106
C18	C	1.478628	-0.115051	0.000105
C19	C	1.586879	-0.164703	0.000114
C20	C	1.576330	-0.246547	0.000099
C21	C	1.457529	-0.278738	0.000086
C22	C	1.349270	-0.229080	0.000072
C23	C	1.359820	-0.147237	0.000076
C24	C	1.413802	-0.522573	0.000062
C25	C	1.403260	-0.604422	0.000062
C26	C	1.630321	-0.621884	0.000087
C27	C	1.640861	-0.540039	0.000100
C28	C	1.532602	-0.490388	0.000079
N29	N	1.446743	-0.362395	0.000075
N30	N	1.543389	-0.406733	0.000079
C31	C	1.724220	0.110959	0.000108
C32	C	1.863862	0.113265	0.000109
C33	C	1.500291	0.258821	0.000080
C34	C	1.511510	0.345926	0.000072
N35	N	1.495059	0.115432	0.346759
N36	N	1.495089	0.115437	-0.346570
C37	C	1.575159	0.062584	0.423422
C38	C	1.575171	0.062584	0.576759
C39	C	1.414980	0.168287	0.576756
C40	C	1.414963	0.168282	0.423422
H41	H	0.890215	-0.016050	0.000152
O42	O	1.756361	-0.508902	0.000054
C43	C	1.849647	-0.570277	0.000102
H44	H	1.808855	-0.626054	-0.046034
H45	H	1.932108	-0.552731	-0.070599
H46	H	1.883414	-0.581676	0.116975
H47	H	1.718458	-0.662318	0.000102
H48	H	1.306513	-0.630628	0.000075
O49	O	1.139622	-0.023236	0.000037
C50	C	1.060484	-0.087673	0.000093
H51	H	0.964661	-0.068297	-0.046021
H52	H	1.103858	-0.136973	-0.070624
H53	H	1.048942	-0.109853	0.116965
O54	O	1.337110	0.219698	0.349169
C55	C	1.266404	0.266337	0.449710
H56	H	1.318017	0.267531	0.559005
H57	H	1.253509	0.328877	0.405385
H58	H	1.170514	0.240319	0.466041
O59	O	1.702311	-0.133474	-0.000135
C60	C	1.768812	-0.158795	-0.126277
H61	H	1.699487	-0.176179	-0.214460
H62	H	1.827248	-0.108932	-0.168623
H63	H	1.833475	-0.211749	-0.097753
O64	O	1.108801	0.258379	0.000110
C65	C	1.015865	0.319961	0.000079
H66	H	0.924631	0.297482	0.046211
H67	H	1.048314	0.370517	0.070792
H68	H	0.999497	0.341682	-0.116788
O69	O	1.653046	0.011357	0.651390
C70	C	1.734801	0.053826	0.740038
H71	H	1.690910	0.114925	0.763005
H72	H	1.751408	0.021196	0.847866
H73	H	1.828192	0.059699	0.680930
O74	O	1.233935	-0.260441	-0.000138
C75	C	1.221036	-0.307239	-0.126318
H76	H	1.318028	-0.327079	-0.168371
H77	H	1.165569	-0.361096	-0.097947
H78	H	1.169082	-0.271385	-0.214666
O79	O	0.850216	0.253977	-0.000116
C80	C	0.773864	0.256998	-0.126287
H81	H	0.760982	0.194690	-0.168327
H82	H	0.678298	0.285688	-0.097907
H83	H	0.820569	0.293060	-0.214648
H84	H	1.349769	0.211318	0.639191
O85	O	1.681452	-0.294808	-0.000151
C86	C	1.682145	-0.342674	-0.126303
H87	H	1.620903	-0.313049	-0.214485
H88	H	1.782439	-0.351316	-0.168642
H89	H	1.643656	-0.402359	-0.097795
O90	O	1.308516	-0.474462	0.000126
C91	C	1.201402	-0.520428	0.000088
H92	H	1.227171	-0.581331	0.046201
H93	H	1.125046	-0.490681	0.070814
H94	H	1.165372	-0.526441	-0.116779
H95	H	1.271671	-0.106811	0.000068
H96	H	1.640377	0.019549	0.361007
