data_functionalizedCrystal
_audit_creation_method	'MofGen! by Chris Wilmer'
_symmetry_space_group_name_H-M	'P1'
_symmetry_Int_Tables_number	1
_symmetry_cell_setting	triclinic
loop_
_symmetry_equiv_pos_as_xyz
  x,y,z
_cell_length_a	23.532355
_cell_length_b	23.532357
_cell_length_c	9.130313
_cell_angle_alpha	89.993247
_cell_angle_beta	90.005604
_cell_angle_gamma	82.827896
loop_
_atom_site_label
_atom_site_type_symbol
_atom_site_fract_x
_atom_site_fract_y
_atom_site_fract_z
O1	O	0.755263	0.068993	-0.121618
O2	O	0.589394	0.079028	-0.121667
O3	O	0.677345	-0.008924	-0.121611
O4	O	0.667312	0.156945	-0.121674
O5	O	0.677344	-0.008922	0.121988
O6	O	0.589393	0.079030	0.121932
O7	O	0.755262	0.068996	0.121981
Cu8	Cu	0.672327	0.074013	0.144199
Cu9	Cu	0.672329	0.074010	-0.143885
O10	O	0.667311	0.156947	0.121925
C11	C	0.568177	0.078778	0.000127
C12	C	0.504958	0.078024	0.000110
C13	C	0.112945	0.073287	0.132958
C14	C	0.053545	0.072569	0.132964
O15	O	0.022826	0.072180	0.245892
N16	N	0.023837	0.072212	0.000179
C17	C	0.053533	0.072567	-0.132621
O18	O	0.022810	0.072197	-0.245564
C19	C	0.112932	0.073280	-0.132625
C20	C	0.142636	0.073643	0.000169
C21	C	0.142649	0.073649	0.265741
C22	C	0.202044	0.074368	0.265735
C23	C	0.231735	0.074724	0.132945
C24	C	0.202031	0.074362	0.000162
C25	C	0.142626	0.073631	-0.265423
C26	C	0.202029	0.074344	-0.265416
C27	C	0.231733	0.074707	-0.132622
C28	C	0.291117	0.075437	-0.132634
N29	N	0.320824	0.075794	0.000152
C30	C	0.291133	0.075437	0.132941
C31	C	-0.071208	0.071068	-0.132601
C32	C	-0.130607	0.070359	-0.132598
C33	C	-0.130590	0.070360	0.132987
C34	C	-0.071191	0.071073	0.132983
C35	C	-0.041501	0.071425	0.000184
C36	C	0.415867	0.076947	0.132917
C37	C	0.475267	0.077668	0.132899
C38	C	0.475246	0.077663	-0.132685
C39	C	0.415850	0.076945	-0.132668
C40	C	0.386163	0.076585	0.000145
O41	O	0.321874	0.075824	-0.245504
O42	O	0.321865	0.075800	0.245866
C43	C	0.677094	-0.030140	0.000193
C44	C	0.676339	-0.093358	0.000207
C45	C	0.671603	-0.485370	-0.132659
C46	C	0.670885	-0.544769	-0.132668
O47	O	0.670496	-0.575486	-0.245597
N48	N	0.670529	-0.574479	0.000116
C49	C	0.670884	-0.544785	0.132917
O50	O	0.670515	-0.575510	0.245859
C51	C	0.671598	-0.485387	0.132924
C52	C	0.671960	-0.455681	0.000131
C53	C	0.671964	-0.455664	-0.265441
C54	C	0.672682	-0.396268	-0.265432
C55	C	0.673039	-0.366580	-0.132641
C56	C	0.672678	-0.396286	0.000141
C57	C	0.671949	-0.455694	0.265723
C58	C	0.672661	-0.396291	0.265719
C59	C	0.673023	-0.366585	0.132927
C60	C	0.673753	-0.307202	0.132941
N61	N	0.674109	-0.277492	0.000157
C62	C	0.673752	-0.307181	-0.132634
C63	C	0.669386	-0.669527	0.132892
C64	C	0.668677	-0.728925	0.132887
C65	C	0.668677	-0.728904	-0.132699
C66	C	0.669390	-0.669505	-0.132692
C67	C	0.669742	-0.639817	0.000108
C68	C	0.675261	-0.182447	-0.132605
C69	C	0.675982	-0.123047	-0.132584
C70	C	0.675979	-0.123072	0.133001
C71	C	0.675261	-0.182468	0.132981
C72	C	0.674901	-0.212153	0.000166
O73	O	0.674141	-0.276446	0.245812
O74	O	0.674114	-0.276448	-0.245557
C75	C	0.776479	0.069245	0.000184
C76	C	0.839698	0.069999	0.000192
C77	C	0.667562	0.178163	0.000118
C78	C	0.668317	0.241381	0.000095
N79	N	0.672330	0.074015	0.346822
N80	N	0.672330	0.074004	-0.346507
C81	C	0.711285	0.035083	0.423499
C82	C	0.711284	0.035076	0.576835
C83	C	0.633371	0.112938	0.576805
C84	C	0.633370	0.112942	0.423471
C85	C	0.756269	-0.009869	0.423517
C86	C	0.756267	-0.009876	0.576854
H87	H	-0.154775	0.070069	0.241112
C88	C	0.534582	0.146890	0.623990
C89	C	0.590548	0.155725	0.661067
H90	H	0.508146	0.173303	0.676017
H91	H	0.529011	0.152469	0.521709
H92	H	0.528632	0.108907	0.649124
H93	H	0.596500	0.193707	0.635924
H94	H	0.596121	0.150151	0.763371
C95	C	0.213608	0.123528	-0.491812
C96	C	0.234666	0.074736	-0.411393
H97	H	0.233759	0.123773	-0.581925
H98	H	0.173987	0.123044	-0.510806
H99	H	0.218807	0.156859	-0.437250
H100	H	0.229463	0.041405	-0.465952
H101	H	0.274296	0.075216	-0.392404
H102	H	0.671671	-0.479830	-0.373581
H103	H	0.499449	0.077965	0.241040
C104	C	0.809005	0.007190	0.206146
C105	C	0.811810	0.008074	0.359307
H106	H	0.843289	0.018281	0.166507
H107	H	0.804589	-0.030395	0.174013
H108	H	0.777240	0.033094	0.174046
H109	H	0.843573	-0.017833	0.391407
H110	H	0.816233	0.045665	0.391452
C111	C	0.342343	0.125104	-0.286757
C112	C	0.383193	0.076553	-0.278631
H113	H	0.322188	0.124859	-0.376873
H114	H	0.316162	0.124782	-0.207679
H115	H	0.360977	0.158599	-0.281252
H116	H	0.364558	0.043059	-0.284125
H117	H	0.409377	0.076871	-0.357731
H118	H	0.799897	-0.000753	0.618479
H119	H	0.743030	-0.051047	0.624412
H120	H	0.499430	0.077956	-0.240799
H121	H	0.669684	-0.645323	-0.240823
H122	H	-0.047010	0.071369	0.241115
C123	C	0.355785	0.027175	0.287067
C124	C	0.383241	0.076553	0.278908
H125	H	0.335647	0.026934	0.377200
H126	H	0.329589	0.026860	0.208010
H127	H	0.383504	-0.005758	0.281550
H128	H	0.355523	0.109486	0.284414
H129	H	0.409440	0.076873	0.357987
C130	C	0.131082	0.024471	0.492152
C131	C	0.110022	0.073260	0.411725
H132	H	0.110944	0.024237	0.582287
H133	H	0.125873	-0.008858	0.437621
H134	H	0.170711	0.024953	0.511112
H135	H	0.070393	0.072777	0.392756
H136	H	0.115226	0.106598	0.466268
C137	C	0.723433	-0.255967	0.287071
C138	C	0.674878	-0.215121	0.278953
H139	H	0.723196	-0.276118	0.377197
H140	H	0.723107	-0.282152	0.208005
H141	H	0.756925	-0.237329	0.281540
H142	H	0.641386	-0.233759	0.284474
H143	H	0.675198	-0.188932	0.358041
C144	C	-0.124642	0.070429	-0.395113
C145	C	-0.163254	0.069966	-0.278569
H146	H	-0.144796	0.070181	-0.485231
H147	H	-0.106018	0.103924	-0.389599
H148	H	-0.096931	0.037491	-0.389560
H149	H	-0.190963	0.102907	-0.284117
H150	H	-0.181887	0.036467	-0.284087
H151	H	0.671655	-0.479870	0.373858
C152	C	0.667570	-0.819953	-0.250618
C153	C	0.668277	-0.761545	-0.278669
H154	H	0.667319	-0.840103	-0.340729
H155	H	0.700668	-0.834226	-0.196062
H156	H	0.634235	-0.825140	-0.196056
H157	H	0.701614	-0.756358	-0.333222
H158	H	0.635175	-0.747268	-0.333248
C159	C	0.668748	-0.722964	0.395402
C160	C	0.668284	-0.761574	0.278856
H161	H	0.668499	-0.743120	0.485519
H162	H	0.702243	-0.704340	0.389887
H163	H	0.635809	-0.695253	0.389851
H164	H	0.701225	-0.789283	0.284401
H165	H	0.634785	-0.780208	0.284374
H166	H	-0.047039	0.071360	-0.240749
C167	C	0.675906	-0.129001	-0.395111
C168	C	0.676376	-0.090394	-0.278560
H169	H	0.676145	-0.108843	-0.485225
H170	H	0.708841	-0.156709	-0.389580
H171	H	0.642408	-0.147629	-0.389583
H172	H	0.709877	-0.071770	-0.284082
H173	H	0.643438	-0.062677	-0.284094
C174	C	0.621225	-0.596053	0.286997
C175	C	0.669781	-0.636896	0.278879
H176	H	0.621468	-0.575914	0.377127
H177	H	0.621544	-0.569858	0.207937
H178	H	0.587734	-0.614692	0.281458
H179	H	0.703272	-0.618257	0.284407
H180	H	0.669467	-0.663095	0.357962
H181	H	0.226224	0.074660	0.373869
C182	C	0.625485	-0.242531	-0.286725
C183	C	0.674864	-0.215076	-0.278588
H184	H	0.625241	-0.262673	-0.376850
H185	H	0.625172	-0.268724	-0.207658
H186	H	0.592553	-0.214812	-0.281209
H187	H	0.707797	-0.242796	-0.284093
H188	H	0.675183	-0.188881	-0.357676
H189	H	0.118452	0.073335	-0.373558
C190	C	0.623895	-0.371352	-0.491764
C191	C	0.673048	-0.363649	-0.411452
H192	H	0.624112	-0.351223	-0.581926
H193	H	0.623431	-0.410982	-0.510663
H194	H	0.590809	-0.357068	-0.437177
H195	H	0.706134	-0.377938	-0.466035
H196	H	0.673517	-0.324011	-0.392557
C197	C	0.677068	-0.032021	0.250908
C198	C	0.676367	-0.090430	0.278960
H199	H	0.677301	-0.011869	0.341020
H200	H	0.710403	-0.026829	0.196379
H201	H	0.643969	-0.017753	0.196321
H202	H	0.709468	-0.104699	0.333538
H203	H	0.643029	-0.095626	0.333513
H204	H	0.672940	-0.372120	0.373864
H205	H	0.601646	0.144638	0.361042
H206	H	0.747181	-0.053509	0.381911
