data_functionalizedCrystal
_audit_creation_method	'MofGen! by Chris Wilmer'
_symmetry_space_group_name_H-M	'P1'
_symmetry_Int_Tables_number	1
_symmetry_cell_setting	triclinic
loop_
_symmetry_equiv_pos_as_xyz
  x,y,z
_cell_length_a	13.339070
_cell_length_b	12.376457
_cell_length_c	13.339070
_cell_angle_alpha	75.601917
_cell_angle_beta	64.370706
_cell_angle_gamma	75.589755
loop_
_atom_site_label
_atom_site_type_symbol
_atom_site_fract_x
_atom_site_fract_y
_atom_site_fract_z
O1	O	1.511964	-0.094035	-0.535384
O2	O	1.197153	-0.094030	-0.463125
O3	O	1.318428	-0.094029	-0.341851
O4	O	1.390689	-0.094037	-0.656659
O5	O	1.288108	0.093983	-0.372116
O6	O	1.166834	0.093982	-0.493391
O7	O	1.481644	0.093976	-0.565650
Zn8	Zn	1.319425	0.123830	-0.534326
Zn9	Zn	1.359372	-0.123884	-0.494450
O10	O	1.360369	0.093975	-0.686924
C11	C	1.140878	-0.000024	-0.466052
C12	C	1.018364	-0.000022	-0.429669
N13	N	1.292170	0.292888	-0.561541
N14	N	1.386634	-0.292942	-0.467227
C15	C	0.732980	-0.000047	-0.712564
C16	C	0.848090	-0.000052	-0.746750
C17	C	0.890664	-0.000044	-0.667483
C18	C	0.818117	-0.000031	-0.554023
C19	C	0.702998	-0.000035	-0.519831
C20	C	0.860682	-0.000032	-0.474751
C21	C	0.788135	-0.000020	-0.361291
C22	C	0.673027	-0.000022	-0.327105
C23	C	0.630453	-0.000030	-0.406372
C24	C	0.975801	-0.000029	-0.508942
C25	C	0.945819	-0.000017	-0.316210
C26	C	0.830709	-0.000012	-0.282023
C27	C	1.537920	-0.000033	-0.562723
C28	C	1.660435	-0.000042	-0.599105
C29	C	1.291062	-0.000024	-0.315868
C30	C	1.254679	-0.000028	-0.193353
C31	C	1.449896	0.647875	-0.404029
C32	C	1.468966	0.529535	-0.384979
C33	C	1.424768	0.470367	-0.429117
C34	C	1.361498	0.529551	-0.492310
C35	C	1.342434	0.647902	-0.511370
C36	C	1.317306	0.470395	-0.536458
C37	C	1.254035	0.529579	-0.599651
C38	C	1.234974	0.647918	-0.618707
C39	C	1.279171	0.707086	-0.574568
C40	C	1.336370	0.352044	-0.517399
C41	C	1.228907	0.352071	-0.624740
C42	C	1.209837	0.470411	-0.643790
C43	C	1.387736	-0.000032	-0.712907
C44	C	1.424120	-0.000035	-0.835420
C45	C	1.537579	-0.000032	0.092035
C46	C	1.571765	-0.000022	-0.023075
C47	C	1.492496	-0.000024	-0.065651
C48	C	1.379036	-0.000035	0.006896
C49	C	1.344845	-0.000037	0.122016
C50	C	1.299763	-0.000028	-0.035669
C51	C	1.186303	-0.000040	0.036877
C52	C	1.152118	-0.000042	0.151986
C53	C	1.231386	-0.000040	0.194561
C54	C	1.333954	-0.000027	-0.150790
C55	C	1.141220	-0.000031	-0.120808
C56	C	1.107034	-0.000042	-0.005698
H57	H	1.034857	-0.000035	-0.601322
F58	F	1.403704	0.289070	-0.450146
H59	H	1.203558	-0.000052	0.288293
F60	F	1.621925	-0.000013	0.137352
F61	F	0.687664	-0.000071	-0.796909
F62	F	1.528884	-0.000017	-0.188162
H63	H	0.613963	-0.000025	-0.234717
F64	F	1.181870	0.289106	-0.671723
H65	H	1.183466	0.696106	-0.670173
H66	H	1.059730	-0.000042	0.211050
F67	F	1.445064	0.344419	-0.408839
H68	H	1.158322	0.518613	-0.695244
F69	F	1.454702	-0.000015	-0.227986
F70	F	1.692515	-0.000029	-0.100273
F71	F	0.986284	-0.000056	0.071524
F72	F	1.056849	-0.000027	-0.166114
H73	H	0.907151	-0.000071	-0.839128
F74	F	1.013175	-0.000048	-0.703871
H75	H	0.771627	-0.000011	-0.189640
F76	F	0.991124	-0.000016	-0.231840
F77	F	1.536301	0.466551	-0.317729
F78	F	0.507939	-0.000022	-0.369993
F79	F	1.496939	0.710848	-0.357070
F80	F	1.258870	0.833039	-0.594838
