data_functionalizedCrystal
_audit_creation_method	'MofGen! by Chris Wilmer'
_symmetry_space_group_name_H-M	'P1'
_symmetry_Int_Tables_number	1
_symmetry_cell_setting	triclinic
loop_
_symmetry_equiv_pos_as_xyz
  x,y,z
_cell_length_a	16.959455
_cell_length_b	16.959453
_cell_length_c	16.959447
_cell_angle_alpha	89.968822
_cell_angle_beta	89.983056
_cell_angle_gamma	90.021768
loop_
_atom_site_label
_atom_site_type_symbol
_atom_site_fract_x
_atom_site_fract_y
_atom_site_fract_z
Zn1	Zn	1.208378	-0.314730	-0.446904
Zn2	Zn	1.208284	-0.446922	-0.314724
Zn3	Zn	1.076201	-0.314755	-0.314742
Zn4	Zn	1.076160	-0.446863	-0.446863
O5	O	1.142256	-0.380817	-0.380808
O6	O	1.318976	-0.332280	-0.429380
O7	O	1.190740	-0.429425	-0.204115
O8	O	1.093791	-0.204140	-0.332298
O9	O	1.318907	-0.429401	-0.332268
O10	O	1.190901	-0.204122	-0.429398
O11	O	1.093699	-0.332322	-0.204129
O12	O	0.965584	-0.332265	-0.332258
O13	O	1.093722	-0.429300	-0.557479
O14	O	0.965555	-0.429324	-0.429327
O15	O	1.190862	-0.332222	-0.557510
O16	O	1.190701	-0.557525	-0.332228
O17	O	1.093630	-0.557482	-0.429309
C18	C	0.936889	-0.380791	-0.380790
C19	C	0.849033	-0.380799	-0.380801
C20	C	0.477548	-0.330237	-0.330370
C21	C	0.477566	-0.431463	-0.431291
C22	C	0.560112	-0.431451	-0.431287
C23	C	0.601380	-0.380833	-0.380822
C24	C	0.560102	-0.330226	-0.330362
C25	C	0.601396	-0.482063	-0.481740
C26	C	0.683947	-0.482055	-0.481737
C27	C	0.725217	-0.431432	-0.431275
C28	C	0.683933	-0.380822	-0.380814
C29	C	0.725201	-0.330203	-0.330349
C30	C	0.683919	-0.279589	-0.279891
C31	C	0.601371	-0.279603	-0.279901
C32	C	0.807765	-0.431418	-0.431266
C33	C	0.807755	-0.330192	-0.330341
C34	C	1.142172	-0.586184	-0.380779
C35	C	1.142209	-0.674040	-0.380793
C36	C	1.091644	-0.715321	-0.431303
C37	C	1.192813	-0.715314	-0.330301
C38	C	1.192853	-0.797859	-0.330315
C39	C	1.142288	-0.839140	-0.380825
C40	C	1.091683	-0.797874	-0.431321
C41	C	1.243462	-0.839131	-0.279826
C42	C	1.243503	-0.921682	-0.279839
C43	C	1.192934	-0.962964	-0.330345
C44	C	1.142327	-0.921693	-0.380843
C45	C	1.091762	-0.962974	-0.431353
C46	C	1.041151	-0.921704	-0.481847
C47	C	1.041114	-0.839156	-0.481828
C48	C	1.192971	-1.045512	-0.330364
C49	C	1.091801	-1.045527	-0.431370
C50	C	1.348424	-0.380844	-0.380827
C51	C	1.436280	-0.380856	-0.380835
C52	C	1.142298	-0.380752	-0.586977
C53	C	1.142316	-0.380724	-0.674833
C54	C	1.142361	-0.174649	-0.380855
C55	C	1.142406	-0.086793	-0.380875
C56	C	1.091861	-0.330083	-1.046322
C57	C	1.192910	-0.431198	-1.046296
C58	C	1.192897	-0.431216	-0.963750
C59	C	1.142364	-0.380668	-0.922486
C60	C	1.091844	-0.330102	-0.963769
C61	C	1.243410	-0.481787	-0.922462
C62	C	1.243397	-0.481808	-0.839911
C63	C	1.192867	-0.431256	-0.798645
C64	C	1.142347	-0.380687	-0.839933
C65	C	1.091813	-0.330139	-0.798669
C66	C	1.041296	-0.279565	-0.839955
C67	C	1.041314	-0.279549	-0.922503
C68	C	1.192849	-0.431272	-0.716097
C69	C	1.091797	-0.330157	-0.716115
C70	C	1.142259	-0.380826	-0.175442
C71	C	1.142394	-0.380631	-0.087586
H72	H	0.443933	-0.289026	-0.289291
H73	H	0.841349	-0.288967	-0.289251
C74	C	0.934964	-0.268601	-0.747110
C75	C	0.985750	-0.224006	-0.794589
H76	H	0.900678	-0.234301	-0.719098
H77	H	0.904718	-0.303014	-0.779305
H78	H	0.965057	-0.298722	-0.710717
H79	H	0.955657	-0.193889	-0.830986
H80	H	1.016000	-0.189579	-0.762392
H81	H	1.234182	-1.079110	-0.289258
H82	H	1.050649	-0.288991	-0.682524
H83	H	1.284713	-0.955276	-0.238722
C84	C	0.351033	-0.476424	-0.476111
C85	C	0.432207	-0.487100	-0.486760
H86	H	0.323030	-0.510770	-0.510361
H87	H	0.337489	-0.487932	-0.422989
H88	H	0.337530	-0.423328	-0.487773
H89	H	0.445711	-0.540194	-0.475092
H90	H	0.445757	-0.475597	-0.539894
C91	C	0.996470	-0.234631	-1.049055
C92	C	0.985786	-0.223967	-0.967886
H93	H	0.962184	-0.200320	-1.077073
H94	H	1.049581	-0.223066	-1.062587
H95	H	0.984875	-0.287738	-1.062553
H96	H	0.997386	-0.170860	-0.954386
H97	H	0.932662	-0.235526	-0.954348
C98	C	1.326670	-0.689814	-0.291917
C99	C	1.248392	-0.669942	-0.274780
H100	H	1.360981	-0.661798	-0.257640
H101	H	1.333929	-0.744877	-0.284697
H102	H	1.338190	-0.676232	-0.345035
H103	H	1.236870	-0.683530	-0.221664
H104	H	1.241130	-0.614867	-0.281993
H105	H	1.050733	-0.288905	-1.079941
C106	C	0.609645	-0.179540	-0.180141
C107	C	0.555994	-0.223976	-0.224436
H108	H	0.581627	-0.145197	-0.145903
H109	H	0.641823	-0.213935	-0.149845
H110	H	0.641862	-0.149340	-0.214638
H111	H	0.523781	-0.254180	-0.189940
H112	H	0.523803	-0.189576	-0.254735
H113	H	1.234046	-0.472357	-1.079898
C114	C	0.576022	-0.520713	-0.615520
C115	C	0.556029	-0.537688	-0.537215
H116	H	0.548012	-0.555054	-0.649770
H117	H	0.562522	-0.467621	-0.627167
H118	H	0.631093	-0.527965	-0.622728
H119	H	0.500959	-0.530430	-0.530006
H120	H	0.569524	-0.590792	-0.525564
H121	H	0.999909	-0.805550	-0.522939
H122	H	1.284542	-0.522949	-0.956065
C123	C	0.991649	-0.723633	-0.531148
C124	C	1.036018	-0.669964	-0.486810
H125	H	0.957307	-0.695629	-0.565413
H126	H	1.026086	-0.755775	-0.561418
H127	H	0.961452	-0.755883	-0.496680
H128	H	1.066219	-0.637717	-0.521279
H129	H	1.001577	-0.637808	-0.456539
C130	C	0.799487	-0.531478	-0.531019
C131	C	0.853142	-0.487045	-0.486726
H132	H	0.827502	-0.565816	-0.565264
H133	H	0.767274	-0.561674	-0.496528
H134	H	0.767305	-0.497075	-0.561316
H135	H	0.885320	-0.521448	-0.456424
H136	H	0.885368	-0.456846	-0.521222
C137	C	1.343291	-0.581749	-0.848186
C138	C	1.298933	-0.537388	-0.794533
H139	H	1.377581	-0.616055	-0.820169
H140	H	1.308844	-0.611976	-0.880363
H141	H	1.373543	-0.547297	-0.880403
H142	H	1.268677	-0.571839	-0.762319
H143	H	1.333385	-0.507159	-0.762342
C144	C	1.282037	-0.813784	-0.146015
C145	C	1.299036	-0.793754	-0.224305
H146	H	1.316350	-0.785769	-0.111738
H147	H	1.228934	-0.800314	-0.134401
H148	H	1.289314	-0.868853	-0.138808
H149	H	1.291753	-0.738685	-0.231513
H150	H	1.352152	-0.807218	-0.235923
C151	C	0.985513	-1.138442	-0.442274
C152	C	1.036217	-1.090899	-0.486894
H153	H	0.951195	-1.166448	-0.476553
H154	H	1.015658	-1.174832	-0.412217
H155	H	0.955288	-1.106285	-0.407799
H156	H	1.066446	-1.123057	-0.521365
H157	H	1.006069	-1.054504	-0.516965
H158	H	1.233985	-0.472442	-0.682486
C159	C	0.941142	-0.913436	-0.581690
C160	C	0.985574	-0.967085	-0.537371
H161	H	0.906838	-0.941456	-0.615970
H162	H	0.910910	-0.881298	-0.547216
H163	H	0.975549	-0.881179	-0.611949
H164	H	0.951167	-0.999338	-0.507107
H165	H	1.015808	-0.999236	-0.571849
C166	C	0.810459	-0.234636	-0.235073
C167	C	0.729287	-0.223950	-0.224422
H168	H	0.838467	-0.200283	-0.200832
H169	H	0.823957	-0.287723	-0.223406
H170	H	0.824002	-0.223134	-0.288204
H171	H	0.715742	-0.235457	-0.171292
H172	H	0.715783	-0.170850	-0.236084
H173	H	0.717552	-0.523267	-0.522823
