data_functionalizedCrystal
_audit_creation_method	'MofGen! by Chris Wilmer'
_symmetry_space_group_name_H-M	'P1'
_symmetry_Int_Tables_number	1
_symmetry_cell_setting	triclinic
loop_
_symmetry_equiv_pos_as_xyz
  x,y,z
_cell_length_a	14.908742
_cell_length_b	13.897448
_cell_length_c	14.908308
_cell_angle_alpha	93.267188
_cell_angle_beta	96.760659
_cell_angle_gamma	86.724243
loop_
_atom_site_label
_atom_site_type_symbol
_atom_site_fract_x
_atom_site_fract_y
_atom_site_fract_z
Zn1	Zn	1.354248	-0.494143	-0.431772
Zn2	Zn	1.854248	0.005857	0.068228
Zn3	Zn	1.362892	-0.646655	-0.280418
Zn4	Zn	1.862892	-0.146655	0.219582
Zn5	Zn	1.211622	-0.476589	-0.289179
Zn6	Zn	1.711622	0.023411	0.210821
Zn7	Zn	1.202865	-0.646601	-0.440481
Zn8	Zn	1.702865	-0.146601	0.059519
O9	O	1.282907	-0.565997	-0.360463
O10	O	1.782907	-0.065997	0.139537
O11	O	1.482056	-0.521744	-0.404383
O12	O	1.982056	-0.021744	0.095617
O13	O	1.350109	-0.616772	-0.154918
O14	O	1.850109	-0.116772	0.345082
O15	O	1.230589	-0.343940	-0.308117
O16	O	1.730589	0.156060	0.191883
O17	O	1.488407	-0.633794	-0.293184
O18	O	1.988407	-0.133794	0.206816
O19	O	1.335376	-0.356837	-0.412879
O20	O	1.835376	0.143163	0.087121
O21	O	1.238971	-0.491825	-0.161355
O22	O	1.738971	0.008175	0.338645
O23	O	1.083799	-0.491772	-0.316562
O24	O	1.583799	0.008228	0.183438
O25	O	1.215664	-0.633701	-0.565989
O26	O	1.715664	-0.133701	-0.065989
O27	O	1.077365	-0.616679	-0.427722
O28	O	1.577365	-0.116679	0.072278
O29	O	1.326884	-0.521691	-0.559590
O30	O	1.826884	-0.021691	-0.059590
O31	O	1.341617	-0.781625	-0.301629
O32	O	1.841617	-0.281625	0.198371
O33	O	1.224045	-0.781585	-0.419227
O34	O	1.724045	-0.281585	0.080773
C35	C	1.047740	-0.552316	-0.374038
C36	C	1.547740	-0.052316	0.125962
C37	C	0.947133	-0.546487	-0.379867
C38	C	1.447133	-0.046487	0.120133
C39	C	0.802017	-0.480048	-0.446062
C40	C	1.302017	0.019952	0.053938
C41	C	0.896546	-0.485516	-0.440590
C42	C	1.396546	0.014484	0.059410
C43	C	0.903185	-0.601996	-0.324615
C44	C	1.403185	-0.101996	0.175385
C45	C	0.808656	-0.596527	-0.330088
C46	C	1.308656	-0.096527	0.169912
C47	C	0.758076	-0.535550	-0.390812
C48	C	1.258076	-0.035550	0.109188
C49	C	0.663546	-0.530077	-0.396279
C50	C	1.163546	-0.030077	0.103721
C51	C	0.670186	-0.646562	-0.280310
C52	C	1.170186	-0.146562	0.219690
C53	C	0.764715	-0.652030	-0.274838
C54	C	1.264715	-0.152030	0.225162
C55	C	1.282842	-0.816606	-0.360440
C56	C	1.782842	-0.316606	0.139560
C57	C	1.282896	-0.923824	-0.360456
C58	C	1.782896	-0.423824	0.139544
C59	C	1.282988	-1.120128	-0.360508
C60	C	1.782988	-0.620128	0.139492
C61	C	1.282934	-1.010891	-0.360482
C62	C	1.782934	-0.510891	0.139518
C63	C	1.518992	-0.579733	-0.346835
C64	C	2.018992	-0.079733	0.153165
C65	C	1.619598	-0.585586	-0.341027
C66	C	2.119598	-0.085586	0.158973
C67	C	1.269333	-0.579648	-0.596550
C68	C	1.769333	-0.079648	-0.096550
C69	C	1.263548	-0.585465	-0.697156
C70	C	1.763548	-0.085465	-0.197156
C71	C	1.282995	-0.314412	-0.360504
C72	C	1.782995	0.185588	0.139496
C73	C	1.283033	-0.207202	-0.360521
C74	C	1.783033	0.292798	0.139479
C75	C	1.368490	-0.479738	-0.879545
C76	C	1.868490	0.020262	-0.379545
C77	C	1.363058	-0.485200	-0.974073
C78	C	1.863058	0.014800	-0.474073
C79	C	1.247248	-0.601847	-0.980743
C80	C	1.747248	-0.101847	-0.480743
C81	C	1.252680	-0.596385	-0.886215
C82	C	1.752680	-0.096385	-0.386215
C83	C	1.313304	-0.535329	-0.835619
C84	C	1.813304	-0.035329	-0.335619
C85	C	1.318740	-0.529872	-0.741088
C86	C	1.818740	-0.029872	-0.241088
C87	C	1.202926	-0.646513	-0.747760
C88	C	1.702926	-0.146513	-0.247760
C89	C	1.197494	-0.651976	-0.842288
C90	C	1.697494	-0.151976	-0.342288
C91	C	1.296480	-0.552333	-0.125291
C92	C	1.796480	-0.052333	0.374709
C93	C	1.302440	-0.546254	-0.024675
C94	C	1.802440	-0.046254	0.475325
H95	H	0.760834	-0.430388	-0.495497
H96	H	1.260834	0.069612	0.004503
Br97	Br	0.971845	-0.684757	-0.242222
Br98	Br	1.471845	-0.184757	0.257778
Br99	Br	0.594901	-0.447319	-0.478685
Br100	Br	1.094901	0.052681	0.021315
Br101	Br	0.956179	-0.410193	-0.515579
Br102	Br	1.456179	0.089807	-0.015579
Br103	Br	0.833367	-0.734785	-0.192434
Br104	Br	1.333367	-0.234785	0.307566
Br105	Br	1.437953	-0.409748	-1.033686
Br106	Br	1.937953	0.090252	-0.533686
Br107	Br	1.450776	-0.396894	-0.810874
Br108	Br	1.950776	0.103106	-0.310874
Br109	Br	0.610547	-0.721882	-0.205315
Br110	Br	1.110547	-0.221882	0.294685
H111	H	1.157992	-0.691782	-0.711986
H112	H	1.657992	-0.191782	-0.211986
H113	H	1.368105	-0.480159	-0.699894
H114	H	1.868105	0.019841	-0.199894
H115	H	1.197890	-0.651555	-1.021954
H116	H	1.697890	-0.151555	-0.521954
Br117	Br	1.115220	-0.734829	-0.910962
Br118	Br	1.615220	-0.234829	-0.410962
