data_functionalizedCrystal
_audit_creation_method	'MofGen! by Chris Wilmer'
_symmetry_space_group_name_H-M	'P1'
_symmetry_Int_Tables_number	1
_symmetry_cell_setting	triclinic
loop_
_symmetry_equiv_pos_as_xyz
  x,y,z
_cell_length_a	17.699104
_cell_length_b	17.699092
_cell_length_c	17.766277
_cell_angle_alpha	89.995315
_cell_angle_beta	89.989752
_cell_angle_gamma	83.288943
loop_
_atom_site_label
_atom_site_type_symbol
_atom_site_fract_x
_atom_site_fract_y
_atom_site_fract_z
O1	O	1.004074	0.095787	-0.062607
O2	O	0.783698	0.108223	-0.062604
O3	O	0.900109	-0.008183	-0.062604
O4	O	0.887663	0.212193	-0.062607
O5	O	0.900088	-0.008189	0.062585
O6	O	0.783678	0.108217	0.062584
O7	O	1.004053	0.095781	0.062582
Cu8	Cu	0.893864	0.101999	0.074014
Cu9	Cu	0.893888	0.102006	-0.074036
O10	O	0.887643	0.212187	0.062581
C11	C	0.755491	0.107772	-0.000010
C12	C	0.671474	0.106427	-0.000009
C13	C	0.146605	0.167170	-0.000018
C14	C	0.225548	0.168430	-0.000020
C15	C	0.274164	0.100095	-0.000019
C16	C	0.243832	0.030496	-0.000023
C17	C	0.164890	0.029238	-0.000026
C18	C	0.562198	0.035569	-0.000011
C19	C	0.641145	0.036833	-0.000006
C20	C	0.622857	0.174761	-0.000005
C21	C	0.543915	0.173503	-0.000008
C22	C	0.513590	0.103905	-0.000016
C23	C	0.427990	0.102540	-0.000016
C24	C	0.359762	0.101458	-0.000014
C25	C	0.899652	-0.036383	-0.000011
C26	C	0.898311	-0.120401	-0.000014
C27	C	0.897693	-0.159865	-0.068255
C28	C	0.896428	-0.238808	-0.068256
C29	C	0.895786	-0.278286	-0.000015
C30	C	0.896401	-0.238816	0.068231
C31	C	0.897661	-0.159874	0.068231
C32	C	0.891321	-0.557182	0.068232
C33	C	0.890064	-0.636130	0.068227
C34	C	0.890089	-0.636116	-0.068255
C35	C	0.891348	-0.557174	-0.068255
C36	C	0.891959	-0.517710	-0.000009
C37	C	0.893329	-0.432111	-0.000009
C38	C	0.894421	-0.363885	-0.000015
C39	C	1.032260	0.096232	-0.000014
C40	C	1.116278	0.097577	-0.000020
C41	C	0.888100	0.240387	-0.000013
C42	C	0.889441	0.324405	-0.000015
N43	N	0.893852	0.101993	0.178144
N44	N	0.893905	0.102005	-0.178167
C45	C	0.945416	0.050474	0.217531
C46	C	0.945420	0.050470	0.296333
C47	C	0.893868	0.101999	0.335745
C48	C	0.842295	0.153523	0.296348
C49	C	0.842287	0.153520	0.217548
C50	C	0.883827	0.170947	0.460582
C51	C	0.883840	0.170951	0.539380
C52	C	0.893888	0.102008	0.578791
C53	C	0.903940	0.033059	0.539393
C54	C	0.903932	0.033056	0.460593
C55	C	0.893871	0.102008	0.421190
C56	C	0.945459	0.050481	0.703624
C57	C	0.945458	0.050476	0.782427
C58	C	0.842337	0.153535	0.782441
C59	C	0.842335	0.153533	0.703639
C60	C	0.893900	0.102007	0.664235
H61	H	0.537518	-0.021102	-0.000016
H62	H	0.898152	-0.127742	0.123800
C63	C	0.990117	-0.080606	0.320612
C64	C	1.002099	-0.006164	0.339643
H65	H	1.025111	-0.115568	0.347346
H66	H	0.939629	-0.088761	0.333541
H67	H	0.997498	-0.087977	0.268041
H68	H	0.994713	0.001209	0.392213
H69	H	1.052599	0.001994	0.326719
H70	H	0.912122	-0.023081	0.571479
H71	H	0.912114	-0.023085	0.428518
C72	C	0.990168	-0.080591	0.679291
C73	C	1.002129	-0.006136	0.660273
H74	H	1.025151	-0.115534	0.652517
H75	H	0.997573	-0.087989	0.731847
H76	H	0.939670	-0.088747	0.666396
H77	H	1.052626	0.002022	0.673174
H78	H	0.994731	0.001265	0.607706
H79	H	0.283421	-0.025143	-0.000027
H80	H	0.680728	-0.018817	-0.000007
C81	C	0.931068	0.290361	0.436283
C82	C	0.872792	0.246733	0.417260
H83	H	0.924258	0.337142	0.409533
H84	H	0.929626	0.300233	0.488844
H85	H	0.978842	0.263297	0.423361
H86	H	0.825018	0.273794	0.430187
H87	H	0.874226	0.236862	0.364687
H88	H	0.891875	-0.525035	-0.123824
C89	C	0.711242	0.198134	0.806728
C90	C	0.785667	0.210176	0.825753
H91	H	0.676255	0.233099	0.833473
H92	H	0.703865	0.205509	0.754166
H93	H	0.703129	0.147627	0.819654
H94	H	0.793782	0.260681	0.812821
H95	H	0.793048	0.202807	0.878326
H96	H	0.987401	0.008516	0.185451
H97	H	0.987445	0.008519	0.814497
H98	H	0.800350	0.195488	0.671568
C99	C	0.156187	-0.088712	-0.064380
C100	C	0.131552	-0.047262	-0.000027
H101	H	0.135609	-0.135942	-0.064380
H102	H	0.139500	-0.060578	-0.108028
H103	H	0.210160	-0.097736	-0.064368
H104	H	0.077579	-0.038232	-0.000042
H105	H	0.148235	-0.075402	0.043632
H106	H	0.800320	0.195477	0.328441
H107	H	0.875661	0.227094	0.571452
H108	H	0.800297	0.195474	0.185478
C109	C	0.888158	-0.757122	-0.128870
C110	C	0.889406	-0.679496	-0.143275
H111	H	0.887734	-0.783899	-0.175183
H112	H	0.932062	-0.775909	-0.100836
H113	H	0.843824	-0.764203	-0.100831
H114	H	0.933743	-0.672414	-0.171309
H115	H	0.845498	-0.660703	-0.171321
C116	C	0.897584	-0.167788	-0.203166
C117	C	0.898397	-0.116474	-0.143269
H118	H	0.898011	-0.140999	-0.249477
H119	H	0.941208	-0.204425	-0.200329
H120	H	0.852971	-0.192732	-0.200319
H121	H	0.943013	-0.091535	-0.146114
H122	H	0.854768	-0.079824	-0.146108
H123	H	0.647557	0.231431	-0.000002
H124	H	0.107027	0.222817	-0.000013
H125	H	0.250236	0.225099	-0.000026
H126	H	0.889539	-0.668271	0.123800
H127	H	0.504335	0.229148	-0.000005
H128	H	0.891833	-0.525062	0.123802
C129	C	0.830003	-0.318942	-0.147473
C130	C	0.895762	-0.282175	-0.143277
H131	H	0.829593	-0.345706	-0.193795
H132	H	0.829440	-0.353759	-0.106847
H133	H	0.786379	-0.282291	-0.144634
H134	H	0.939386	-0.318826	-0.146110
H135	H	0.896332	-0.247354	-0.183915
H136	H	0.895874	-0.270965	0.123794
