data_functionalizedCrystal
_audit_creation_method	'MofGen! by Chris Wilmer'
_symmetry_space_group_name_H-M	'P1'
_symmetry_Int_Tables_number	1
_symmetry_cell_setting	triclinic
loop_
_symmetry_equiv_pos_as_xyz
  x,y,z
_cell_length_a	17.077404
_cell_length_b	19.805405
_cell_length_c	17.077396
_cell_angle_alpha	89.970202
_cell_angle_beta	89.983895
_cell_angle_gamma	90.024696
loop_
_atom_site_label
_atom_site_type_symbol
_atom_site_fract_x
_atom_site_fract_y
_atom_site_fract_z
Zn1	Zn	1.200016	-0.269494	-0.443816
Zn2	Zn	1.533350	0.063839	-0.110483
Zn3	Zn	1.866683	0.397172	0.222850
Zn4	Zn	1.199920	-0.382689	-0.312549
Zn5	Zn	1.533253	-0.049356	0.020784
Zn6	Zn	1.866586	0.283978	0.354118
Zn7	Zn	1.068753	-0.269515	-0.312567
Zn8	Zn	1.402086	0.063818	0.020767
Zn9	Zn	1.735420	0.397151	0.354100
Zn10	Zn	1.068707	-0.382643	-0.443775
Zn11	Zn	1.402041	-0.049309	-0.110442
Zn12	Zn	1.735374	0.284024	0.222891
O13	O	1.134349	-0.326085	-0.378177
O14	O	1.467682	0.007248	-0.044843
O15	O	1.801016	0.340581	0.288490
O16	O	1.309850	-0.284520	-0.426413
O17	O	1.643184	0.048813	-0.093080
O18	O	1.976517	0.382146	0.240254
O19	O	1.182499	-0.367704	-0.202704
O20	O	1.515832	-0.034371	0.130629
O21	O	1.849166	0.298962	0.463962
O22	O	1.086225	-0.174796	-0.330002
O23	O	1.419558	0.158537	0.003332
O24	O	1.752892	0.491871	0.336665
O25	O	1.309779	-0.367684	-0.329972
O26	O	1.643113	-0.034351	0.003362
O27	O	1.976446	0.298983	0.336695
O28	O	1.182664	-0.174780	-0.426430
O29	O	1.515997	0.158553	-0.093097
O30	O	1.849330	0.491886	0.240236
O31	O	1.086132	-0.284556	-0.202717
O32	O	1.419465	0.048777	0.130616
O33	O	1.752798	0.382111	0.463949
O34	O	0.958900	-0.284511	-0.329962
O35	O	1.292233	0.048822	0.003371
O36	O	1.625567	0.382155	0.336705
O37	O	1.086147	-0.367605	-0.553628
O38	O	1.419480	-0.034272	-0.220294
O39	O	1.752813	0.299062	0.113039
O40	O	0.958866	-0.367625	-0.426360
O41	O	1.292200	-0.034292	-0.093027
O42	O	1.625533	0.299041	0.240306
O43	O	1.182619	-0.284476	-0.553658
O44	O	1.515952	0.048858	-0.220324
O45	O	1.849286	0.382191	0.113009
O46	O	1.182454	-0.477399	-0.329932
O47	O	1.515788	-0.144066	0.003401
O48	O	1.849121	0.189267	0.336735
O49	O	1.086053	-0.477365	-0.426343
O50	O	1.419386	-0.144032	-0.093010
O51	O	1.752720	0.189301	0.240323
C52	C	0.930401	-0.326066	-0.378159
C53	C	1.263735	0.007267	-0.044826
C54	C	1.597068	0.340601	0.288507
C55	C	0.843151	-0.326074	-0.378170
C56	C	1.176485	0.007259	-0.044837
C57	C	1.509818	0.340592	0.288496
C58	C	0.802199	-0.282848	-0.428464
C59	C	1.135532	0.050485	-0.095131
C60	C	1.468866	0.383819	0.238203
C61	C	0.720218	-0.282852	-0.428468
C62	C	1.053552	0.050481	-0.095134
C63	C	1.386885	0.383814	0.238199
C64	C	0.679192	-0.326087	-0.378181
C65	C	1.012525	0.007247	-0.044848
C66	C	1.345859	0.340580	0.288486
C67	C	0.720150	-0.369315	-0.327882
C68	C	1.053484	-0.035982	0.005452
C69	C	1.386817	0.297352	0.338785
C70	C	0.802129	-0.369307	-0.327875
C71	C	1.135462	-0.035973	0.005459
C72	C	1.468796	0.297360	0.338792
C73	C	0.549280	-0.369330	-0.327901
C74	C	0.882613	-0.035997	0.005432
C75	C	1.215947	0.297336	0.338765
C76	C	0.467296	-0.369340	-0.327909
C77	C	0.800629	-0.036006	0.005424
C78	C	1.133962	0.297327	0.338758
C79	C	0.467369	-0.282876	-0.428494
C80	C	0.800703	0.050457	-0.095161
C81	C	1.134036	0.383791	0.238173
C82	C	0.549348	-0.282868	-0.428487
C83	C	0.882682	0.050466	-0.095154
C84	C	1.216015	0.383799	0.238180
C85	C	0.590301	-0.326097	-0.378189
C86	C	0.923634	0.007236	-0.044855
C87	C	1.256968	0.340570	0.288478
C88	C	1.134260	-0.501941	-0.378148
C89	C	1.467593	-0.168608	-0.044815
C90	C	1.800926	0.164725	0.288518
C91	C	1.134293	-0.577173	-0.378163
C92	C	1.467626	-0.243840	-0.044829
C93	C	1.800960	0.089493	0.288504
C94	C	1.184479	-0.612451	-0.428412
C95	C	1.517812	-0.279118	-0.095079
C96	C	1.851146	0.054215	0.238255
C97	C	1.184507	-0.683140	-0.428427
C98	C	1.517841	-0.349806	-0.095093
C99	C	1.851174	-0.016473	0.238240
C100	C	1.134353	-0.718549	-0.378187
C101	C	1.467687	-0.385216	-0.044854
C102	C	1.801020	-0.051882	0.288479
C103	C	1.084162	-0.683266	-0.327935
C104	C	1.417495	-0.349933	0.005398
C105	C	1.750829	-0.016599	0.338731
C106	C	1.084130	-0.612579	-0.327925
C107	C	1.417464	-0.279246	0.005408
C108	C	1.750797	0.054088	0.338741
C109	C	1.084288	-0.968339	-0.327976
C110	C	1.417621	-0.635006	0.005358
C111	C	1.750955	-0.301673	0.338691
C112	C	1.084325	-1.039031	-0.327988
C113	C	1.417659	-0.705698	0.005345
C114	C	1.750992	-0.372365	0.338679
C115	C	1.184665	-1.038900	-0.428477
C116	C	1.517998	-0.705567	-0.095144
C117	C	1.851332	-0.372233	0.238190
C118	C	1.184633	-0.968213	-0.428467
C119	C	1.517967	-0.634880	-0.095134
C120	C	1.851300	-0.301546	0.238200
C121	C	1.134439	-0.932936	-0.378218
C122	C	1.467773	-0.599603	-0.044885
C123	C	1.801106	-0.266270	0.288448
C124	C	1.134408	-0.856288	-0.378204
C125	C	1.467742	-0.522954	-0.044871
C126	C	1.801075	-0.189621	0.288462
C127	C	1.134388	-0.795196	-0.378197
C128	C	1.467721	-0.461863	-0.044863
C129	C	1.801054	-0.128529	0.288470
C130	C	1.339093	-0.326105	-0.378195
C131	C	1.672427	0.007228	-0.044862
C132	C	2.005760	0.340562	0.288472
C133	C	1.426343	-0.326113	-0.378203
C134	C	1.759676	0.007220	-0.044869
C135	C	2.093010	0.340553	0.288464
C136	C	1.134388	-0.326033	-0.582921
C137	C	1.467722	0.007300	-0.249588
C138	C	1.801055	0.340634	0.083745
C139	C	1.134405	-0.326010	-0.670171
C140	C	1.467739	0.007323	-0.336838
C141	C	1.801072	0.340656	-0.003504
C142	C	1.134460	-0.149543	-0.378223
C143	C	1.467794	0.183791	-0.044889
C144	C	1.801127	0.517124	0.288444
C145	C	1.134508	-0.074311	-0.378242
C146	C	1.467841	0.259023	-0.044909
C147	C	1.801174	0.592356	0.288425
C148	C	1.084242	-0.282710	-0.711167
C149	C	1.417575	0.050623	-0.377834
C150	C	1.750909	0.383957	-0.044501
C151	C	1.084255	-0.282695	-0.793148
C152	C	1.417588	0.050639	-0.459815
C153	C	1.750922	0.383972	-0.126481
C154	C	1.134435	-0.325977	-0.834131
C155	C	1.467769	0.007356	-0.500797
C156	C	1.801102	0.340690	-0.167464
C157	C	1.184601	-0.369282	-0.793128
C158	C	1.517934	-0.035949	-0.459795
C159	C	1.851268	0.297385	-0.126462
C160	C	1.184584	-0.369300	-0.711149
C161	C	1.517917	-0.035967	-0.377816
C162	C	1.851250	0.297366	-0.044483
C163	C	1.184635	-0.369240	-0.963999
C164	C	1.517968	-0.035906	-0.630665
C165	C	1.851302	0.297427	-0.297332
C166	C	1.184653	-0.369221	-1.045983
C167	C	1.517987	-0.035887	-0.712650
C168	C	1.851320	0.297446	-0.379317
C169	C	1.084306	-0.282634	-1.045997
C170	C	1.417640	0.050699	-0.712664
C171	C	1.750973	0.384033	-0.379330
C172	C	1.084289	-0.282652	-0.964018
C173	C	1.417622	0.050681	-0.630685
C174	C	1.750955	0.384014	-0.297351
C175	C	1.134456	-0.325957	-0.923022
C176	C	1.467789	0.007376	-0.589688
C177	C	1.801122	0.340710	-0.256355
C178	C	1.134355	-0.326089	-0.174229
C179	C	1.467688	0.007245	0.159104
C180	C	1.801022	0.340578	0.492438
C181	C	1.134490	-0.325920	-0.086980
C182	C	1.467824	0.007413	0.246354
C183	C	1.801157	0.340746	0.579687
H184	H	0.686879	-0.247654	-0.469423
H185	H	1.020212	0.085679	-0.136090
H186	H	1.353545	0.419012	0.197243
H187	H	1.043322	-0.712102	-0.287033
H188	H	1.376656	-0.378768	0.046301
H189	H	1.709989	-0.045435	0.379634
F190	F	1.238025	-0.415333	-0.920369
F191	F	1.571358	-0.081999	-0.587036
F192	F	1.904692	0.251334	-0.253702
H193	H	1.043384	-0.247461	-0.677805
H194	H	1.376717	0.085873	-0.344472
H195	H	1.710050	0.419206	-0.011138
F196	F	1.030941	-1.076715	-0.274514
F197	F	1.364274	-0.743382	0.058819
F198	F	1.697608	-0.410048	0.392153
F199	F	1.030861	-0.930804	-0.274502
F200	F	1.364195	-0.597471	0.058831
F201	F	1.697528	-0.264137	0.392164
F202	F	1.238002	-0.415351	-0.836747
F203	F	1.571336	-0.082017	-0.503414
F204	F	1.904669	0.251316	-0.170081
F205	F	1.030715	-0.575034	-0.274444
F206	F	1.364048	-0.241701	0.058890
F207	F	1.697381	0.091633	0.392223
H208	H	0.582750	-0.247666	-0.469440
H209	H	0.916083	0.085667	-0.136106
H210	H	1.249417	0.419001	0.197227
F211	F	0.592863	-0.415343	-0.274371
F212	F	0.926196	-0.082010	0.058963
F213	F	1.259530	0.251324	0.392296
F214	F	1.030835	-0.236633	-0.836776
F215	F	1.364168	0.096700	-0.503442
F216	F	1.697502	0.430033	-0.170109
H217	H	1.225533	-1.067631	-0.469395
H218	H	1.558866	-0.734297	-0.136061
H219	H	1.892199	-0.400964	0.197272
F220	F	1.030886	-0.236582	-0.920403
F221	F	1.364219	0.096751	-0.587069
F222	F	1.697553	0.430084	-0.253736
H223	H	0.434022	-0.247676	-0.469447
H224	H	0.767355	0.085658	-0.136114
H225	H	1.100689	0.418991	0.197219
H226	H	1.043460	-0.247373	-1.079380
H227	H	1.376793	0.085960	-0.746047
H228	H	1.710126	0.419294	-0.412714
F229	F	0.423634	-0.415368	-0.274403
F230	F	0.756967	-0.082034	0.058930
F231	F	1.090300	0.251299	0.392263
H232	H	1.225438	-0.404555	-0.677771
H233	H	1.558771	-0.071222	-0.344438
H234	H	1.892104	0.262112	-0.011105
H235	H	1.225515	-0.404465	-1.079349
H236	H	1.558848	-0.071132	-0.746016
H237	H	1.892182	0.262202	-0.412683
H238	H	0.686740	-0.404514	-0.286934
H239	H	1.020073	-0.071181	0.046400
H240	H	1.353407	0.262153	0.379733
F241	F	0.845855	-0.236834	-0.481991
F242	F	1.179188	0.096499	-0.148657
F243	F	1.512522	0.429833	0.184676
F244	F	0.845713	-0.415315	-0.274346
F245	F	1.179047	-0.081981	0.058988
F246	F	1.512380	0.251352	0.392321
H247	H	1.225323	-0.583626	-0.469320
H248	H	1.558657	-0.250292	-0.135986
H249	H	1.891990	0.083041	0.197347
H250	H	1.225380	-0.711860	-0.469339
H251	H	1.558713	-0.378526	-0.136006
H252	H	1.892046	-0.045193	0.197328
F253	F	1.238016	-0.930532	-0.481936
F254	F	1.571350	-0.597198	-0.148603
F255	F	1.904683	-0.263865	0.184730
