data_functionalizedCrystal
_audit_creation_method	'MofGen! by Chris Wilmer'
_symmetry_space_group_name_H-M	'P1'
_symmetry_Int_Tables_number	1
_symmetry_cell_setting	triclinic
loop_
_symmetry_equiv_pos_as_xyz
  x,y,z
_cell_length_a	14.519709
_cell_length_b	13.596369
_cell_length_c	14.971486
_cell_angle_alpha	90.006197
_cell_angle_beta	83.647137
_cell_angle_gamma	89.999709
loop_
_atom_site_label
_atom_site_type_symbol
_atom_site_fract_x
_atom_site_fract_y
_atom_site_fract_z
O1	O	1.223798	0.081664	0.117252
O2	O	0.955313	0.081694	0.131060
O3	O	1.096752	0.081671	-0.006040
O4	O	1.082360	0.081687	0.254352
O5	O	1.096738	-0.081912	-0.006047
O6	O	0.955299	-0.081889	0.131053
O7	O	1.223784	-0.081919	0.117245
Zn8	Zn	1.089539	-0.107876	0.124148
Zn9	Zn	1.089558	0.107651	0.124157
O10	O	1.082346	-0.081896	0.254345
C11	C	0.920947	-0.000094	0.130413
C12	C	0.818567	-0.000082	0.128485
N13	N	1.089533	-0.254968	0.124141
C14	C	0.443675	-0.000128	0.121386
C15	C	0.547982	-0.000115	0.123357
C16	C	0.631118	-0.000104	0.124935
C17	C	0.735431	-0.000093	0.126907
C18	C	1.089557	-0.656259	0.124158
C19	C	1.089548	-0.544608	0.124156
C20	C	1.089546	-0.455617	0.124150
C21	C	1.089535	-0.343959	0.124147
C22	C	1.258151	-0.000129	0.117892
C23	C	1.360531	-0.000134	0.119820
C24	C	1.096101	-0.000120	-0.039369
C25	C	1.094172	-0.000119	-0.138667
N26	N	1.089571	0.254743	0.124157
C27	C	1.177264	-0.000129	-0.195845
C28	C	1.175446	-0.000119	-0.289146
C29	C	1.090536	-0.000106	-0.325266
C30	C	1.007438	-0.000093	-0.268080
C31	C	1.009257	-0.000096	-0.174781
C32	C	1.003653	-0.000089	-0.462545
C33	C	1.001834	-0.000088	-0.555850
C34	C	1.169842	-0.000112	-0.576909
C35	C	1.171661	-0.000115	-0.483610
C36	C	1.088563	-0.000104	-0.426431
C37	C	1.082996	-0.000103	0.287674
C38	C	1.084925	-0.000098	0.386972
H39	H	1.246407	-0.000146	-0.166444
H40	H	0.941595	-0.000087	-0.128227
F41	F	1.263883	-0.000131	-0.349996
F42	F	1.262032	-0.000126	-0.445171
H43	H	1.237504	-0.000118	-0.623470
F44	F	0.911463	-0.000075	-0.594289
H45	H	0.938303	-0.000076	-0.297496
H46	H	0.935985	-0.000077	-0.415991
