data_functionalizedCrystal
_audit_creation_method	'MofGen! by Chris Wilmer'
_symmetry_space_group_name_H-M	'P1'
_symmetry_Int_Tables_number	1
_symmetry_cell_setting	triclinic
loop_
_symmetry_equiv_pos_as_xyz
  x,y,z
_cell_length_a	29.839134
_cell_length_b	16.959454
_cell_length_c	16.959447
_cell_angle_alpha	90.026818
_cell_angle_beta	89.972203
_cell_angle_gamma	89.985063
loop_
_atom_site_label
_atom_site_type_symbol
_atom_site_fract_x
_atom_site_fract_y
_atom_site_fract_z
Zn1	Zn	0.686812	0.314774	-0.447157
Zn2	Zn	1.186812	0.814774	0.052843
Zn3	Zn	0.686765	0.446966	-0.314987
Zn4	Zn	1.186765	0.946966	0.185013
Zn5	Zn	0.611687	0.314794	-0.314970
Zn6	Zn	1.111687	0.814794	0.185030
Zn7	Zn	0.611671	0.446902	-0.447101
Zn8	Zn	1.111671	0.946902	0.052899
O9	O	0.649234	0.380859	-0.381054
O10	O	1.149234	0.880859	0.118946
O11	O	0.749673	0.332328	-0.429656
O12	O	1.249673	0.832328	0.070344
O13	O	0.676793	0.429468	-0.204374
O14	O	1.176793	0.929468	0.295626
O15	O	0.621680	0.204180	-0.332521
O16	O	1.121680	0.704180	0.167479
O17	O	0.749638	0.429449	-0.332551
O18	O	1.249638	0.929449	0.167449
O19	O	0.676873	0.204165	-0.429639
O20	O	1.176873	0.704165	0.070361
O21	O	0.621634	0.332362	-0.204361
O22	O	1.121634	0.832362	0.295639
O23	O	0.548818	0.332300	-0.332466
O24	O	1.048818	0.832300	0.167534
O25	O	0.621651	0.429340	-0.557719
O26	O	1.121651	0.929340	-0.057719
O27	O	0.548806	0.429359	-0.429542
O28	O	1.048806	0.929359	0.070458
O29	O	0.676857	0.332265	-0.557761
O30	O	1.176857	0.832265	-0.057761
O31	O	0.676776	0.557569	-0.332496
O32	O	1.176776	1.057569	0.167504
O33	O	0.621605	0.557521	-0.429559
O34	O	1.121605	1.057521	0.070441
C35	C	0.532511	0.380825	-0.380997
C36	C	1.032511	0.880825	0.119003
C37	C	0.482577	0.380830	-0.380991
C38	C	0.982577	0.880830	0.119009
C39	C	0.649196	0.586225	-0.381040
C40	C	1.149196	1.086225	0.118960
C41	C	0.649221	0.674082	-0.381061
C42	C	1.149221	1.174082	0.118939
C43	C	0.649258	0.380793	-0.587222
C44	C	1.149258	0.880793	-0.087222
C45	C	0.649268	0.380765	-0.675079
C46	C	1.149268	0.880765	-0.175079
C47	C	0.172936	0.431473	-0.431539
C48	C	0.672936	0.931473	0.068461
C49	C	-0.014737	0.431495	-0.431574
C50	C	0.485263	0.931495	0.068426
O51	O	-0.038999	0.474516	-0.474518
O52	O	0.461001	0.974516	0.025482
N53	N	-0.038208	0.380888	-0.381113
N54	N	0.461792	0.880888	0.118887
C55	C	-0.014759	0.330268	-0.330643
C56	C	0.485241	0.830268	0.169357
O57	O	-0.039029	0.287219	-0.287730
O58	O	0.460971	0.787219	0.212270
C59	C	0.172913	0.330242	-0.330613
C60	C	0.672913	0.830242	0.169387
C61	C	0.196382	0.380858	-0.381071
C62	C	0.696382	0.880858	0.118929
C63	C	0.196406	0.482084	-0.481994
C64	C	0.696406	0.982084	0.018006
C65	C	0.243321	0.482081	-0.481982
C66	C	0.743321	0.982081	0.018018
C67	C	0.266767	0.431466	-0.431514
C68	C	0.766767	0.931466	0.068486
C69	C	0.243298	0.380855	-0.381059
C70	C	0.743298	0.880855	0.118941
C71	C	0.196362	0.279619	-0.280147
C72	C	0.696362	0.779619	0.219853
C73	C	0.243283	0.279616	-0.280146
C74	C	0.743283	0.779616	0.219854
C75	C	0.266752	0.330232	-0.330604
C76	C	0.766752	0.830232	0.169396
C77	C	0.313659	0.330238	-0.330579
C78	C	0.813659	0.830238	0.169421
N79	N	0.337131	0.380845	-0.381040
N80	N	0.837131	0.880845	0.118960
C81	C	0.313685	0.431459	-0.431508
C82	C	0.813685	0.931459	0.068492
C83	C	-0.113290	0.330286	-0.330662
C84	C	0.386710	0.830286	0.169338
C85	C	-0.160208	0.330294	-0.330668
C86	C	0.339792	0.830294	0.169332
C87	C	-0.160182	0.431519	-0.431601
C88	C	0.339818	0.931519	0.068399
C89	C	-0.113263	0.431515	-0.431589
C90	C	0.386737	0.931515	0.068411
C91	C	-0.089818	0.380893	-0.381123
C92	C	0.410182	0.880893	0.118877
C93	C	0.412211	0.431449	-0.431478
C94	C	0.912211	0.931449	0.068522
C95	C	0.459131	0.431444	-0.431459
C96	C	0.959131	0.931444	0.068541
C97	C	0.459101	0.330216	-0.330530
C98	C	0.959101	0.830216	0.169470
C99	C	0.412185	0.330224	-0.330545
C100	C	0.912185	0.830224	0.169455
C101	C	0.388742	0.380843	-0.381026
C102	C	0.888742	0.880843	0.118974
O103	O	0.337951	0.287234	-0.287664
O104	O	0.837951	0.787234	0.212336
O105	O	0.337964	0.474490	-0.474428
O106	O	0.837964	0.974490	0.025572
C107	C	0.126021	0.431476	-0.431551
C108	C	0.626021	0.931476	0.068449
C109	C	0.102552	0.380864	-0.381096
C110	C	0.602552	0.880864	0.118904
C111	C	0.125998	0.330250	-0.330629
C112	C	0.625998	0.830250	0.169371
C113	C	0.055634	0.380872	-0.381103
C114	C	0.555634	0.880872	0.118897
C115	C	0.032188	0.431486	-0.431570
C116	C	0.532188	0.931486	0.068430
C117	C	0.055659	0.482093	-0.482031
C118	C	0.555659	0.982093	0.017969
C119	C	0.102575	0.482090	-0.482019
C120	C	0.602575	0.982090	0.017981
C121	C	0.102526	0.279643	-0.280167
C122	C	0.602526	0.779643	0.219833
C123	C	0.055610	0.279651	-0.280183
C124	C	0.555610	0.779651	0.219817
C125	C	0.032164	0.330265	-0.330651
C126	C	0.532164	0.830265	0.169349
C127	C	0.766412	0.380893	-0.381111
C128	C	1.266412	0.880893	0.118889
C129	C	0.816346	0.380908	-0.381136
C130	C	1.316346	0.880908	0.118864
C131	C	0.649284	0.174691	-0.381084
C132	C	1.149284	0.674691	0.118916
C133	C	0.649305	0.086834	-0.381098
C134	C	1.149305	0.586834	0.118902
C135	C	0.620548	1.045563	-0.431589
C136	C	1.120548	1.545563	0.068411
C137	C	0.678045	1.045552	-0.330599
C138	C	1.178045	1.545552	0.169401
C139	C	0.678029	0.963006	-0.330591
C140	C	1.178029	1.463006	0.169409
C141	C	0.649272	0.921735	-0.381083
C142	C	1.149272	1.421735	0.118917
C143	C	0.620530	0.963009	-0.431582
C144	C	1.120530	1.463009	0.068418
C145	C	0.706767	0.921725	-0.280088
C146	C	1.206767	1.421725	0.219912
C147	C	0.706752	0.839174	-0.280078
C148	C	1.206752	1.339174	0.219922
C149	C	0.677997	0.797902	-0.330574
C150	C	1.177997	1.297902	0.169426
C151	C	0.649254	0.839181	-0.381076
C152	C	1.149254	1.339181	0.118924
C153	C	0.620497	0.797910	-0.431567
C154	C	1.120497	1.297910	0.068433
C155	C	0.591756	0.839188	-0.482073
C156	C	1.091756	1.339188	0.017927
C157	C	0.591775	0.921736	-0.482078
C158	C	1.091775	1.421736	0.017922
C159	C	0.677978	0.715353	-0.330569
C160	C	1.177978	1.215353	0.169431
C161	C	0.620479	0.715356	-0.431560
C162	C	1.120479	1.215356	0.068440
C163	C	0.620589	0.330123	-1.046554
C164	C	1.120589	0.830123	-0.546554
C165	C	0.678026	0.431241	-1.046555
C166	C	1.178026	0.931241	-0.546555
C167	C	0.678018	0.431259	-0.964009
C168	C	1.178018	0.931259	-0.464009
C169	C	0.649295	0.380710	-0.922732
C170	C	1.149295	0.880710	-0.422732
C171	C	0.620579	0.330142	-0.964000
C172	C	1.120579	0.830142	-0.464000
C173	C	0.706730	0.481832	-0.922734
C174	C	1.206730	0.981832	-0.422734
C175	C	0.706724	0.481853	-0.840183
C176	C	1.206724	0.981853	-0.340183
C177	C	0.678002	0.431299	-0.798904
C178	C	1.178002	0.931299	-0.298904
C179	C	0.649285	0.380728	-0.840178
C180	C	1.149285	0.880728	-0.340178
C181	C	0.620562	0.330179	-0.798901
C182	C	1.120562	0.830179	-0.298901
C183	C	0.591847	0.279603	-0.840173
C184	C	1.091847	0.779603	-0.340173
C185	C	0.591858	0.279587	-0.922722
C186	C	1.091858	0.779587	-0.422722
C187	C	0.677991	0.431315	-0.716356
C188	C	1.177991	0.931315	-0.216356
C189	C	0.620552	0.330197	-0.716347
C190	C	1.120552	0.830197	-0.216347
C191	C	0.649236	0.380867	-0.175687
C192	C	1.149236	0.880867	0.324313
C193	C	0.649312	0.380673	-0.087831
C194	C	1.149312	0.880673	0.412169
H195	H	0.478237	0.472665	-0.472549
H196	H	0.978237	0.972665	0.027451
F197	F	0.590032	0.276297	-1.090478
F198	F	1.090032	0.776297	-0.590478
H199	H	-0.094158	0.472730	-0.472679
H200	H	0.405842	0.972730	0.027321
H201	H	0.597149	1.079175	-0.472712
H202	H	1.097149	1.579175	0.027288
F203	F	0.589873	0.671439	-0.485305
F204	F	1.089873	1.171439	0.014695
F205	F	0.561279	0.225806	-0.796234
F206	F	1.061279	0.725806	-0.296234
F207	F	0.708648	1.089478	-0.276865
F208	F	1.208648	1.589478	0.223135
F209	F	0.737372	0.965653	-0.226358
F210	F	1.237372	1.465653	0.273642
F211	F	0.737343	0.795250	-0.226331
F212	F	1.237343	1.295250	0.273669
H213	H	0.701376	0.681748	-0.289444
H214	H	1.201376	1.181748	0.210556
H215	H	0.121611	0.238426	-0.239070
H216	H	0.621611	0.738426	0.260930
F217	F	0.708590	0.485042	-1.090487
F218	F	1.208590	0.985042	-0.590487
H219	H	0.597164	0.289029	-0.682745
H220	H	1.097164	0.789029	-0.182745
H221	H	0.701374	0.472487	-0.682755
H222	H	1.201374	0.972487	-0.182755
H223	H	0.393129	0.472667	-0.472586
H224	H	0.893129	0.972667	0.027414
F225	F	0.268293	0.535950	-0.535691
F226	F	0.768293	1.035950	-0.035691
F227	F	0.171460	0.535958	-0.535715
F228	F	0.671460	1.035958	-0.035715
F229	F	-0.185143	0.485384	-0.485316
F230	F	0.314857	0.985384	0.014684
H231	H	-0.179312	0.289085	-0.289572
H232	H	0.320688	0.789085	0.210428
H233	H	0.568479	0.238413	-0.956333
H234	H	1.068479	0.738413	-0.456333
H235	H	0.730111	0.522996	-0.956348
H236	H	1.230111	1.022996	-0.456348
H237	H	0.730104	0.523036	-0.806586
H238	H	1.230104	1.023036	-0.306586
H239	H	-0.094205	0.289063	-0.289562
H240	H	0.405795	0.789063	0.210438
F241	F	0.171394	0.225742	-0.226445
F242	F	0.671394	0.725742	0.273555
H243	H	0.262369	0.238388	-0.239054
H244	H	0.762369	0.738388	0.260946
H245	H	0.393076	0.289010	-0.289456
H246	H	0.893076	0.789010	0.210544
H247	H	0.478199	0.289010	-0.289438
H248	H	0.978199	0.789010	0.210562
H249	H	0.036506	0.238435	-0.239086
H250	H	0.536506	0.738435	0.260914
F251	F	0.030698	0.535964	-0.535739
F252	F	0.530698	1.035964	-0.035739
F253	F	0.127547	0.535962	-0.535725
F254	F	0.627547	1.035962	-0.035725
H255	H	0.568340	0.805575	-0.523180
H256	H	1.068340	1.305575	-0.023180
H257	H	0.568375	0.955352	-0.523196
H258	H	1.068375	1.455352	-0.023196
