data_functionalizedCrystal
_audit_creation_method	'MofGen! by Chris Wilmer'
_symmetry_space_group_name_H-M	'P1'
_symmetry_Int_Tables_number	1
_symmetry_cell_setting	triclinic
loop_
_symmetry_equiv_pos_as_xyz
  x,y,z
_cell_length_a	19.077236
_cell_length_b	17.639999
_cell_length_c	19.076919
_cell_angle_alpha	98.510009
_cell_angle_beta	89.887323
_cell_angle_gamma	99.390170
loop_
_atom_site_label
_atom_site_type_symbol
_atom_site_fract_x
_atom_site_fract_y
_atom_site_fract_z
Zn1	Zn	1.111104	0.282338	-0.391901
Zn2	Zn	1.444437	0.615671	-0.058568
Zn3	Zn	1.777771	0.949005	0.274765
Zn4	Zn	1.139059	0.406983	-0.252921
Zn5	Zn	1.472393	0.740317	0.080412
Zn6	Zn	1.805726	1.073650	0.413746
Zn7	Zn	0.998243	0.281930	-0.269752
Zn8	Zn	1.331577	0.615263	0.063582
Zn9	Zn	1.664910	0.948597	0.396915
Zn10	Zn	1.018820	0.417360	-0.363872
Zn11	Zn	1.352153	0.750693	-0.030538
Zn12	Zn	1.685486	1.084027	0.302795
O13	O	1.066807	0.347153	-0.319611
O14	O	1.400140	0.680486	0.013722
O15	O	1.733473	1.013819	0.347055
O16	O	1.212366	0.294700	-0.378152
O17	O	1.545699	0.628034	-0.044819
O18	O	1.879032	0.961367	0.288515
O19	O	1.123468	0.385882	-0.157600
O20	O	1.456801	0.719215	0.175733
O21	O	1.790135	1.052548	0.509066
O22	O	0.992904	0.173142	-0.304729
O23	O	1.326237	0.506475	0.028604
O24	O	1.659570	0.839808	0.361937
O25	O	1.232904	0.386277	-0.276044
O26	O	1.566238	0.719610	0.057289
O27	O	1.899571	1.052944	0.390623
O28	O	1.075822	0.173441	-0.394472
O29	O	1.409155	0.506775	-0.061139
O30	O	1.742489	0.840108	0.272195
O31	O	1.020011	0.294005	-0.169966
O32	O	1.353344	0.627339	0.163368
O33	O	1.686678	0.960672	0.496701
O34	O	0.903419	0.304067	-0.277550
O35	O	1.236753	0.637400	0.055783
O36	O	1.570086	0.970734	0.389117
O37	O	1.027973	0.403962	-0.465143
O38	O	1.361307	0.737296	-0.131810
O39	O	1.694640	1.070629	0.201524
O40	O	0.918537	0.403567	-0.346699
O41	O	1.251870	0.736900	-0.013366
O42	O	1.585204	1.070233	0.319967
O43	O	1.095774	0.304762	-0.485736
O44	O	1.429107	0.638095	-0.152403
O45	O	1.762441	0.971429	0.180930
O46	O	1.143420	0.517202	-0.248865
O47	O	1.476754	0.850536	0.084469
O48	O	1.810087	1.183869	0.417802
O49	O	1.055081	0.524826	-0.330380
O50	O	1.388414	0.858159	0.002954
O51	O	1.721747	1.191492	0.336287
C52	C	0.885684	0.354899	-0.310910
C53	C	1.219017	0.688233	0.022424
C54	C	1.552350	1.021566	0.355757
C55	C	0.808202	0.358233	-0.307200
C56	C	1.141535	0.691566	0.026133
C57	C	1.474868	1.024899	0.359466
C58	C	0.761120	0.312202	-0.358675
C59	C	1.094453	0.645535	-0.025341
C60	C	1.427787	0.978869	0.307992
C61	C	0.688317	0.315330	-0.355184
C62	C	1.021650	0.648663	-0.021851
C63	C	1.354983	0.981997	0.311483
C64	C	0.662597	0.364494	-0.300221
C65	C	0.995930	0.697827	0.033112
C66	C	1.329264	1.031160	0.366445
C67	C	0.709684	0.410526	-0.248742
C68	C	1.043018	0.743859	0.084591
C69	C	1.376351	1.077193	0.417924
C70	C	0.782485	0.407393	-0.252231
C71	C	1.115819	0.740727	0.081103
C72	C	1.449152	1.074060	0.414436
C73	C	0.446010	0.378963	-0.284079
C74	C	0.779344	0.712296	0.049254
C75	C	1.112677	1.045630	0.382587
C76	C	0.373203	0.382094	-0.280596
C77	C	0.706537	0.715427	0.052737
C78	C	1.039870	1.048760	0.386071
C79	C	0.351841	0.286896	-0.387037
C80	C	0.685174	0.620230	-0.053704
C81	C	1.018507	0.953563	0.279629
C82	C	0.424645	0.283771	-0.390523
C83	C	0.757978	0.617105	-0.057190
C84	C	1.091312	0.950438	0.276144
C85	C	0.471725	0.329801	-0.339042
C86	C	0.805059	0.663134	-0.005709
C87	C	1.138392	0.996467	0.327625
N88	N	0.588181	0.367694	-0.296653
N89	N	0.921514	0.701027	0.036680
N90	N	1.254848	1.034361	0.370013
N91	N	0.546139	0.326596	-0.342608
N92	N	0.879473	0.659929	-0.009274
N93	N	1.212806	0.993262	0.324059
C94	C	1.104535	0.549236	-0.284770
C95	C	1.437869	0.882569	0.048563
C96	C	1.771202	1.215902	0.381896
C97	C	1.120739	0.635686	-0.269891
C98	C	1.454072	0.969019	0.063442
C99	C	1.787405	1.302352	0.396775
C100	C	0.943880	0.939989	-0.432891
C101	C	1.277213	1.273322	-0.099557
C102	C	1.610547	1.606656	0.233776
C103	C	0.959108	1.021221	-0.418888
C104	C	1.292441	1.354554	-0.085554
C105	C	1.625774	1.687888	0.247779
C106	C	1.051148	1.013219	-0.334099
C107	C	1.384481	1.346552	-0.000766
C108	C	1.717815	1.679886	0.332568
C109	C	1.035930	0.931985	-0.348097
C110	C	1.369264	1.265318	-0.014764
C111	C	1.702597	1.598651	0.318569
C112	C	0.982295	0.895376	-0.397493
C113	C	1.315628	1.228709	-0.064160
C114	C	1.648962	1.562043	0.269173
C115	C	1.074346	0.887372	-0.312700
C116	C	1.407679	1.220705	0.020633
C117	C	1.741012	1.554038	0.353966
C118	C	1.059126	0.806145	-0.326695
C119	C	1.392460	1.139478	0.006638
C120	C	1.725793	1.472811	0.339972
C121	C	1.005492	0.769530	-0.376087
C122	C	1.338825	1.102863	-0.042754
C123	C	1.672159	1.436197	0.290580
C124	C	0.967076	0.814149	-0.411488
C125	C	1.300409	1.147482	-0.078155
C126	C	1.633743	1.480816	0.255178
C127	C	1.127977	0.923982	-0.263301
C128	C	1.461311	1.257315	0.070032
C129	C	1.794644	1.590648	0.403366
C130	C	1.166393	0.879369	-0.227904
C131	C	1.499726	1.212702	0.105430
C132	C	1.833059	1.546036	0.438763
C133	C	1.151177	0.798140	-0.241902
C134	C	1.484510	1.131474	0.091432
C135	C	1.817844	1.464807	0.424765
C136	C	1.097543	0.761526	-0.291294
C137	C	1.430876	1.094859	0.042039
C138	C	1.764209	1.428192	0.375373
C139	C	1.189593	0.753521	-0.206501
C140	C	1.522927	1.086855	0.126833
C141	C	1.856260	1.420188	0.460166
C142	C	1.174374	0.672294	-0.220496
C143	C	1.507707	1.005627	0.112838
C144	C	1.841041	1.338961	0.446171
C145	C	1.082324	0.680299	-0.305289
C146	C	1.415657	1.013632	0.028045
C147	C	1.748990	1.346965	0.361378
C148	C	1.248637	0.339377	-0.328347
C149	C	1.581970	0.672710	0.004986
C150	C	1.915303	1.006043	0.338319
C151	C	1.326122	0.336063	-0.332070
C152	C	1.659455	0.669396	0.001263
C153	C	1.992789	1.002730	0.334597
C154	C	1.061051	0.355565	-0.501441
C155	C	1.394384	0.688898	-0.168108
C156	C	1.727717	1.022232	0.165225
C157	C	1.058598	0.359150	-0.578927
C158	C	1.391931	0.692483	-0.245593
C159	C	1.725264	1.025817	0.087740
C160	C	1.028927	1.144282	-0.354601
C161	C	1.362261	1.477615	-0.021267
C162	C	1.695594	1.810948	0.312066
C163	C	1.012730	1.057832	-0.369500
C164	C	1.346063	1.391165	-0.036167
C165	C	1.679396	1.724499	0.297166
C166	C	1.092744	0.309188	-0.626052
C167	C	1.426077	0.642522	-0.292718
C168	C	1.759410	0.975855	0.040615
C169	C	1.090430	0.312554	-0.698857
C170	C	1.423763	0.645887	-0.365524
C171	C	1.757097	0.979221	-0.032191
C172	C	1.053974	0.365886	-0.724536
C173	C	1.387307	0.699219	-0.391202
C174	C	1.720641	1.032552	-0.057869
C175	C	1.019824	0.415850	-0.677405
C176	C	1.353157	0.749183	-0.344072
C177	C	1.686490	1.082516	-0.010738
C178	C	1.022134	0.412479	-0.604601
C179	C	1.355467	0.745813	-0.271268
C180	C	1.688800	1.079146	0.062065
C181	C	1.043276	0.381499	-0.941125
C182	C	1.376610	0.714833	-0.607792
C183	C	1.709943	1.048166	-0.274459
C184	C	1.040971	0.384867	-1.013935
C185	C	1.374304	0.718201	-0.680601
C186	C	1.707637	1.051534	-0.347268
C187	C	1.111576	0.281570	-1.035382
C188	C	1.444910	0.614904	-0.702049
C189	C	1.778243	0.948237	-0.368716
C190	C	1.113887	0.278208	-0.962576
C191	C	1.447220	0.611542	-0.629242
C192	C	1.780553	0.944875	-0.295909
C193	C	1.079733	0.328169	-0.915452
C194	C	1.413066	0.661503	-0.582118
C195	C	1.746400	0.994836	-0.248785
N196	N	1.051610	0.369329	-0.798954
N197	N	1.384943	0.702662	-0.465621
N198	N	1.718277	1.035996	-0.132288
N199	N	1.082093	0.324722	-0.841035
N200	N	1.415427	0.658055	-0.507702
N201	N	1.748760	0.991388	-0.174368
C202	C	1.072570	0.338715	-0.138500
C203	C	1.405903	0.672049	0.194833
C204	C	1.739236	1.005382	0.528166
C205	C	1.075117	0.334906	-0.061060
C206	C	1.408450	0.668239	0.272273
C207	C	1.741783	1.001572	0.605607
H208	H	0.820819	0.444876	-0.210315
H209	H	1.154153	0.778209	0.123019
H210	H	1.487486	1.111543	0.456352
F211	F	0.886800	0.901023	-0.485470
F212	F	1.220134	1.234357	-0.152137
F213	F	1.553467	1.567690	0.181197
H214	H	1.094816	1.043037	-0.293879
H215	H	1.428149	1.376370	0.039455
H216	H	1.761483	1.709703	0.372788
H217	H	1.139381	0.240894	-1.073758
H218	H	1.472714	0.574227	-0.740425
H219	H	1.806048	0.907561	-0.407091
F220	F	0.452012	0.231449	-0.449025
F221	F	0.785346	0.564782	-0.115691
F222	F	1.118679	0.898116	0.217642
F223	F	0.496105	0.427938	-0.229278
F224	F	0.829439	0.761271	0.104055
F225	F	1.162772	1.094605	0.437388
H226	H	0.923405	0.784341	-0.451717
H227	H	1.256739	1.117675	-0.118384
H228	H	1.590072	1.451008	0.214950
F229	F	0.918210	1.068699	-0.456560
F230	F	1.251544	1.402032	-0.123226
F231	F	1.584877	1.735366	0.210107
F232	F	1.223474	0.918339	-0.175335
F233	F	1.556807	1.251672	0.157998
F234	F	1.890141	1.585006	0.491331
H235	H	0.688737	0.450552	-0.203988
H236	H	1.022070	0.783885	0.129345
H237	H	1.355404	1.117219	0.462679
H238	H	1.140369	0.990122	-0.251910
H239	H	1.473702	1.323456	0.081423
H240	H	1.807035	1.656789	0.414757
F241	F	0.985788	0.465654	-0.554447
F242	F	1.319122	0.798987	-0.221114
F243	F	1.652455	1.132320	0.112220
H244	H	1.122433	0.265762	-0.605150
H245	H	1.455766	0.599095	-0.271817
H246	H	1.789099	0.932429	0.061516
F247	F	1.215255	0.624811	-0.182816
F248	F	1.548588	0.958145	0.150517
F249	F	1.881921	1.291478	0.483850
H250	H	1.118237	0.271872	-0.737224
H251	H	1.451571	0.605205	-0.403891
H252	H	1.784904	0.938538	-0.070558
H253	H	0.649985	0.277848	-0.397101
H254	H	0.983319	0.611182	-0.063767
H255	H	1.316652	0.944515	0.269566
H256	H	0.313501	0.249421	-0.428950
H257	H	0.646834	0.582754	-0.095616
H258	H	0.980167	0.916087	0.237717
F259	F	0.345836	0.434438	-0.222105
F260	F	0.679169	0.767771	0.111228
F261	F	1.012502	1.101104	0.444562
F262	F	1.246670	0.792493	-0.153928
F263	F	1.580003	1.125826	0.179406
F264	F	1.913336	1.459160	0.512739
H265	H	1.038653	0.650491	-0.345517
H266	H	1.371986	0.983824	-0.012184
H267	H	1.705320	1.317157	0.321149
F268	F	0.989416	0.683080	-0.391114
F269	F	1.322749	1.016414	-0.057780
F270	F	1.656082	1.349747	0.275553
H271	H	1.011282	0.428298	-1.034838
H272	H	1.344615	0.761632	-0.701505
H273	H	1.677949	1.094965	-0.368172
F274	F	0.981021	0.472607	-0.704736
F275	F	1.314354	0.805940	-0.371403
F276	F	1.647688	1.139273	-0.038070
H277	H	1.143575	0.234782	-0.941674
H278	H	1.476908	0.568115	-0.608341
H279	H	1.810242	0.901449	-0.275008
H280	H	1.015478	0.422192	-0.902764
H281	H	1.348812	0.755526	-0.569430
H282	H	1.682145	1.088859	-0.236097
F283	F	0.788486	0.259879	-0.417176
F284	F	1.121819	0.593212	-0.083843
F285	F	1.455153	0.926545	0.249490
