data_functionalizedCrystal
_audit_creation_method	'MofGen! by Chris Wilmer'
_symmetry_space_group_name_H-M	'P1'
_symmetry_Int_Tables_number	1
_symmetry_cell_setting	triclinic
loop_
_symmetry_equiv_pos_as_xyz
  x,y,z
_cell_length_a	17.699083
_cell_length_b	17.038272
_cell_length_c	16.776229
_cell_angle_alpha	89.993292
_cell_angle_beta	89.998886
_cell_angle_gamma	87.197286
loop_
_atom_site_label
_atom_site_type_symbol
_atom_site_fract_x
_atom_site_fract_y
_atom_site_fract_z
O1	O	1.010620	0.098861	-0.066177
O2	O	0.791093	0.111723	-0.066203
O3	O	0.899552	-0.008521	-0.066184
O4	O	0.902161	0.219105	-0.066196
O5	O	0.899536	-0.008529	0.066393
O6	O	0.791077	0.111716	0.066374
O7	O	1.010604	0.098854	0.066400
Zn8	Zn	0.900838	0.105283	0.087436
Zn9	Zn	0.900859	0.105293	-0.087239
O10	O	0.902145	0.219098	0.066381
C11	C	0.762857	0.111258	0.000082
C12	C	0.678748	0.109876	0.000072
C13	C	0.634797	0.180457	0.000069
C14	C	0.555767	0.179153	0.000079
C15	C	0.520690	0.107267	0.000087
C16	C	0.564647	0.036681	0.000093
C17	C	0.643675	0.037986	0.000089
C18	C	0.245935	0.031418	0.000113
C19	C	0.166901	0.030119	0.000116
C20	C	0.158028	0.172585	0.000104
C21	C	0.237056	0.173890	0.000099
C22	C	0.281006	0.103304	0.000109
C23	C	0.366699	0.104719	0.000100
C24	C	0.434999	0.105852	0.000091
C25	C	0.897170	-0.037649	0.000104
C26	C	0.890090	-0.124431	0.000103
C27	C	0.955100	-0.174651	0.000112
C28	C	0.948442	-0.256191	0.000103
C29	C	0.876773	-0.287509	0.000092
C30	C	0.811758	-0.237282	0.000081
C31	C	0.818417	-0.155744	0.000084
C32	C	0.853251	-0.533228	0.000079
C33	C	0.846597	-0.614773	0.000078
C34	C	0.983282	-0.633676	0.000099
C35	C	0.989934	-0.552135	0.000106
C36	C	0.924919	-0.501916	0.000091
C37	C	0.869967	-0.370855	0.000086
C38	C	0.931726	-0.418571	0.000092
C39	C	1.038840	0.099318	0.000113
C40	C	1.122949	0.100701	0.000118
C41	C	0.904526	0.248226	0.000091
C42	C	0.911607	0.335007	0.000087
N43	N	0.900829	0.105276	0.206647
N44	N	0.900873	0.105294	-0.206450
C45	C	0.948872	0.052054	0.248373
C46	C	0.948876	0.052053	0.331825
C47	C	0.900841	0.105279	0.373550
C48	C	0.852793	0.158504	0.331819
C49	C	0.852785	0.158501	0.248368
C50	C	0.852821	0.158520	0.668366
C51	C	0.852834	0.158521	0.751823
C52	C	0.948912	0.052072	0.751823
C53	C	0.948904	0.052069	0.668372
C54	C	0.900854	0.105290	0.626648
C55	C	0.900849	0.105289	0.536160
C56	C	0.900849	0.105285	0.464037
H57	H	0.679459	-0.019489	0.000091
N58	N	1.009025	-0.384798	0.000111
H59	H	1.014844	-0.351380	-0.049031
H60	H	1.014766	-0.351435	0.049293
H61	H	0.988022	0.008730	0.634402
H62	H	0.281710	-0.026057	0.000122
H63	H	0.800310	-0.492349	0.000066
H64	H	0.811613	-0.396363	0.000079
H65	H	0.813663	0.201839	0.214396
H66	H	0.813698	0.201856	0.634401
N67	N	1.000721	-0.005324	0.376830
H68	H	1.031163	-0.039030	0.337735
H69	H	1.036092	0.024597	0.411430
N70	N	1.000677	-0.005352	0.203362
H71	H	1.054969	0.003578	0.217873
H72	H	0.988327	-0.060800	0.217911
N73	N	0.801011	0.215923	0.796826
H74	H	0.808311	0.207848	0.856023
H75	H	0.813311	0.271374	0.782230
N76	N	1.000739	-0.005335	0.796825
H77	H	0.993456	0.002739	0.856022
H78	H	0.988432	-0.060784	0.782247
H79	H	0.813678	0.201839	0.365796
H80	H	1.001381	-0.297077	0.000112
N81	N	0.672628	0.257991	0.000050
H82	H	0.632790	0.302505	0.000050
H83	H	0.705227	0.261636	0.049195
H84	H	1.013460	-0.149159	0.000126
N85	N	0.734455	-0.271052	0.000069
H86	H	0.728651	-0.304457	-0.049077
H87	H	0.728687	-0.304425	0.049248
N88	N	0.508398	0.255302	0.000141
H89	H	0.520199	0.286706	-0.048989
H90	H	0.453020	0.243544	0.000202
N91	N	0.274890	0.251423	0.000079
H92	H	0.235055	0.295939	0.000078
H93	H	0.307490	0.255067	0.049223
N94	N	0.526808	-0.040849	0.000101
H95	H	0.542501	-0.071764	-0.049042
H96	H	0.542512	-0.071705	0.049282
N97	N	0.110625	0.248721	0.000095
H98	H	0.055238	0.236991	0.000102
H99	H	0.122505	0.280056	0.049237
H100	H	0.138344	-0.028422	0.000123
H101	H	1.036213	-0.674572	0.000110
N102	N	1.067234	-0.518358	0.000123
H103	H	1.107409	-0.562546	0.000128
H104	H	1.072981	-0.484931	-0.049022
H105	H	0.788233	-0.640268	0.000082
H106	H	0.765478	-0.114855	0.000077
