data_functionalizedCrystal
_audit_creation_method	'MofGen! by Chris Wilmer'
_symmetry_space_group_name_H-M	'P1'
_symmetry_Int_Tables_number	1
_symmetry_cell_setting	triclinic
loop_
_symmetry_equiv_pos_as_xyz
  x,y,z
_cell_length_a	14.971506
_cell_length_b	16.992695
_cell_length_c	14.048226
_cell_angle_alpha	89.993436
_cell_angle_beta	89.993237
_cell_angle_gamma	87.145305
loop_
_atom_site_label
_atom_site_type_symbol
_atom_site_fract_x
_atom_site_fract_y
_atom_site_fract_z
O1	O	1.194121	0.102266	-0.079168
O2	O	1.694121	0.602266	0.420832
O3	O	0.934582	0.114487	-0.079169
O4	O	1.434582	0.614487	0.420831
O5	O	1.063311	-0.005768	-0.079161
O6	O	1.563311	0.494232	0.420839
O7	O	1.065392	0.222520	-0.079176
O8	O	1.565392	0.722520	0.420824
O9	O	1.063294	-0.005775	0.079160
O10	O	1.563294	0.494225	0.579160
O11	O	0.934565	0.114479	0.079152
O12	O	1.434565	0.614479	0.579152
O13	O	1.194104	0.102259	0.079153
O14	O	1.694104	0.602259	0.579153
Zn15	Zn	1.064332	0.108368	0.104290
Zn16	Zn	1.564332	0.608368	0.604290
Zn17	Zn	1.064354	0.108377	-0.104306
Zn18	Zn	1.564354	0.608377	0.395694
O19	O	1.065375	0.222513	0.079145
O20	O	1.565375	0.722513	0.579145
C21	C	0.901211	0.113934	-0.000008
C22	C	1.401211	0.613934	0.499992
C23	C	0.801799	0.112287	-0.000008
C24	C	1.301799	0.612287	0.499992
C25	C	0.368038	0.176652	-0.000022
C26	C	0.868038	0.676652	0.499978
C27	C	0.461447	0.178192	-0.000027
C28	C	0.961447	0.678192	0.499973
C29	C	0.513703	0.107538	-0.000018
C30	C	1.013703	0.607538	0.499982
C31	C	0.472545	0.035339	-0.000014
C32	C	0.972545	0.535339	0.499986
C33	C	0.379139	0.033799	-0.000017
C34	C	0.879139	0.533799	0.499983
C35	C	0.667234	0.038554	-0.000006
C36	C	1.167234	0.538554	0.499994
C37	C	0.760648	0.040093	-0.000002
C38	C	1.260648	0.540093	0.499998
C39	C	0.749543	0.182947	-0.000016
C40	C	1.249543	0.682947	0.499984
C41	C	0.656136	0.181407	-0.000019
C42	C	1.156136	0.681407	0.499981
C43	C	0.614985	0.109207	-0.000014
C44	C	1.114985	0.609207	0.499986
C45	C	1.060626	-0.034986	-0.000001
C46	C	1.560626	0.465014	0.499999
C47	C	1.052639	-0.122039	-0.000001
C48	C	1.552639	0.377961	0.499999
C49	C	1.129703	-0.172202	0.000000
C50	C	1.629703	0.327798	0.500000
C51	C	1.122193	-0.253996	-0.000009
C52	C	1.622193	0.246004	0.499991
C53	C	1.037618	-0.285625	-0.000012
C54	C	1.537618	0.214375	0.499988
C55	C	0.960548	-0.235455	-0.000016
C56	C	1.460548	0.264545	0.499984
C57	C	0.968059	-0.153663	-0.000014
C58	C	1.468059	0.346337	0.499986
C59	C	1.006489	-0.529254	-0.000025
C60	C	1.506489	-0.029254	0.499975
C61	C	0.998983	-0.611053	-0.000025
C62	C	1.498983	-0.111053	0.499975
C63	C	1.160629	-0.629588	-0.000019
C64	C	1.660629	-0.129588	0.499981
C65	C	1.168132	-0.547793	-0.000011
C66	C	1.668132	-0.047793	0.499989
C67	C	1.091062	-0.497631	-0.000020
C68	C	1.591062	0.002369	0.499980
N69	N	1.029939	-0.369232	-0.000018
N70	N	1.529939	0.130768	0.499982
N71	N	1.098742	-0.414026	-0.000021
N72	N	1.598742	0.085974	0.499979
C73	C	1.227476	0.102811	-0.000010
C74	C	1.727476	0.602811	0.499990
C75	C	1.326887	0.104458	-0.000016
C76	C	1.826887	0.604458	0.499984
C77	C	1.068060	0.251731	-0.000018
C78	C	1.568060	0.751731	0.499982
C79	C	1.076047	0.338784	-0.000024
C80	C	1.576047	0.838784	0.499976
N81	N	1.064323	0.108361	0.246650
N82	N	1.564323	0.608361	0.746650
N83	N	1.064370	0.108378	-0.246666
N84	N	1.564370	0.608378	0.253334
C85	C	1.121345	0.055134	0.296472
C86	C	1.621345	0.555134	0.796472
C87	C	1.121351	0.055134	0.396129
C88	C	1.621351	0.555134	0.896129
C89	C	1.064339	0.108364	0.445964
C90	C	1.564339	0.608364	0.945964
C91	C	1.007311	0.161594	0.396135
C92	C	1.507311	0.661594	0.896135
C93	C	1.007301	0.161590	0.296479
C94	C	1.507301	0.661590	0.796479
C95	C	1.007337	0.161599	0.603849
C96	C	1.507337	0.661599	1.103849
C97	C	1.007348	0.161604	0.703512
C98	C	1.507348	0.661604	1.203512
C99	C	1.121387	0.055144	0.703499
C100	C	1.621387	0.555144	1.203499
C101	C	1.121377	0.055140	0.603844
C102	C	1.621377	0.555140	1.103844
C103	C	1.064350	0.108370	0.554022
C104	C	1.564350	0.608370	1.054022
H105	H	0.803192	-0.017439	-0.000003
H106	H	1.303192	0.482561	0.499997
H107	H	1.223374	-0.670439	-0.000014
H108	H	1.723374	-0.170439	0.499986
Cl109	Cl	0.615503	-0.052213	0.000007
Cl110	Cl	1.115503	0.447787	0.500007
Cl111	Cl	0.801274	0.273712	-0.000012
Cl112	Cl	1.301274	0.773712	0.499988
H113	H	0.930109	-0.636802	-0.000012
H114	H	1.430109	-0.136802	0.499988
H115	H	0.515100	-0.022188	-0.000013
H116	H	1.015100	0.477812	0.499987
H117	H	0.345635	-0.024988	-0.000014
H118	H	0.845635	0.475012	0.499986
Cl119	Cl	1.193036	-0.011781	0.458764
Cl120	Cl	1.693036	0.488219	0.958764
Cl121	Cl	1.236031	-0.132448	0.000014
Cl122	Cl	1.736031	0.367552	0.500014
Cl123	Cl	0.854225	-0.275218	-0.000032
Cl124	Cl	1.354225	0.224782	0.499968
H125	H	1.184947	-0.294836	-0.000006
H126	H	1.684947	0.205164	0.499994
Cl127	Cl	0.935641	0.228517	0.541220
Cl128	Cl	1.435641	0.728517	1.041220
H129	H	0.943732	-0.488421	-0.000032
H130	H	1.443732	0.011579	0.499968
Cl131	Cl	0.871174	-0.090600	-0.000019
Cl132	Cl	1.371174	0.409400	0.499981
Cl133	Cl	1.193026	-0.011785	0.233833
Cl134	Cl	1.693026	0.488215	0.733833
Cl135	Cl	1.274459	-0.508037	-0.000038
Cl136	Cl	1.774459	-0.008037	0.499962
H137	H	1.167805	0.011799	0.563269
H138	H	1.667805	0.511799	1.063269
Cl139	Cl	0.935670	0.228524	0.766153
Cl140	Cl	1.435670	0.728524	1.266153
Cl141	Cl	0.935633	0.228510	0.458782
Cl142	Cl	1.435633	0.728510	0.958782
Cl143	Cl	1.193078	-0.011772	0.766135
Cl144	Cl	1.693078	0.488228	1.266135
Cl145	Cl	0.935609	0.228503	0.233847
Cl146	Cl	1.435609	0.728503	0.733847
H147	H	0.325498	0.234187	-0.000022
H148	H	0.825498	0.734187	0.499978
H149	H	0.613591	0.238940	-0.000020
H150	H	1.113591	0.738940	0.499980
Cl151	Cl	0.513176	0.268955	-0.000040
Cl152	Cl	1.013176	0.768955	0.499960
