data_functionalizedCrystal
_audit_creation_method	'MofGen! by Chris Wilmer'
_symmetry_space_group_name_H-M	'P1'
_symmetry_Int_Tables_number	1
_symmetry_cell_setting	triclinic
loop_
_symmetry_equiv_pos_as_xyz
  x,y,z
_cell_length_a	14.971486
_cell_length_b	27.732048
_cell_length_c	13.448316
_cell_angle_alpha	89.988441
_cell_angle_beta	89.998199
_cell_angle_gamma	83.128392
loop_
_atom_site_label
_atom_site_type_symbol
_atom_site_fract_x
_atom_site_fract_y
_atom_site_fract_z
O1	O	1.185952	0.062991	-0.082589
O2	O	0.925433	0.070534	-0.082617
O3	O	1.063784	-0.003597	-0.082583
O4	O	1.047601	0.137122	-0.082623
O5	O	1.063766	-0.003601	0.082801
O6	O	0.925416	0.070530	0.082767
O7	O	1.185935	0.062986	0.082795
Cu8	Cu	1.055674	0.066758	0.097882
Cu9	Cu	1.055694	0.066763	-0.097704
O10	O	1.047584	0.137117	0.082761
C11	C	0.892105	0.070195	0.000071
C12	C	0.792824	0.069184	0.000061
C13	C	1.063435	-0.021608	0.000111
C14	C	1.062412	-0.075267	0.000120
C15	C	0.734910	0.112734	0.000051
C16	C	0.641626	0.111781	0.000066
C17	C	0.606257	0.067278	0.000084
C18	C	0.664177	0.023724	0.000098
C19	C	0.757460	0.024678	0.000090
C20	C	0.469746	0.021740	0.000113
C21	C	0.376457	0.020787	0.000119
C22	C	0.353912	0.108844	0.000088
C23	C	0.447195	0.109797	0.000080
C24	C	0.505109	0.066243	0.000092
C25	C	1.137729	-0.413735	0.000077
C26	C	1.133934	-0.615412	0.000062
O27	O	1.202806	-0.646350	0.000026
N28	N	1.051898	-0.634914	0.000054
C29	C	0.970804	-0.603994	0.000043
O30	O	0.900940	-0.625209	0.000026
C31	C	0.974601	-0.402318	0.000051
C32	C	1.056642	-0.382818	0.000069
C33	C	1.219764	-0.394235	0.000094
C34	C	1.220712	-0.343819	0.000103
C35	C	1.139625	-0.312902	0.000095
C36	C	1.057590	-0.332402	0.000078
C37	C	0.893508	-0.371398	0.000033
C38	C	0.894464	-0.320976	0.000032
C39	C	0.976506	-0.301477	0.000050
C40	C	0.977451	-0.251069	0.000079
N41	N	1.059487	-0.231567	0.000087
C42	C	1.140574	-0.262483	0.000095
C43	C	0.968817	-0.709877	0.000042
C44	C	0.967868	-0.760296	0.000042
C45	C	1.130998	-0.771710	0.000059
C46	C	1.131946	-0.721291	0.000066
C47	C	1.050854	-0.690375	0.000050
C48	C	1.142559	-0.156605	0.000114
C49	C	1.143500	-0.106184	0.000128
C50	C	0.980370	-0.094773	0.000105
C51	C	0.979429	-0.145190	0.000097
C52	C	1.060530	-0.176105	0.000099
O53	O	0.908616	-0.220103	0.000104
O54	O	1.210428	-0.241258	0.000090
C55	C	1.136781	-0.464151	0.000068
C56	C	1.054746	-0.483651	0.000051
C57	C	0.973659	-0.452734	0.000043
C58	C	1.053797	-0.534070	0.000051
C59	C	1.134884	-0.564986	0.000059
C60	C	1.216921	-0.545484	0.000067
C61	C	1.217868	-0.495067	0.000076
C62	C	0.891623	-0.472237	0.000035
C63	C	0.890682	-0.522654	0.000027
C64	C	0.971769	-0.553570	0.000035
C65	C	1.219263	0.063326	0.000104
C66	C	1.318544	0.064337	0.000108
C67	C	1.047932	0.155128	0.000064
C68	C	1.048955	0.208788	0.000050
N69	N	1.055666	0.066753	0.235446
N70	N	1.055709	0.066763	-0.235268
C71	C	1.116946	0.033942	0.287501
C72	C	1.116952	0.033941	0.391605
C73	C	1.055681	0.066755	0.443651
C74	C	0.994394	0.099569	0.391588
C75	C	0.994385	0.099566	0.287487
C76	C	0.994418	0.099572	0.608568
C77	C	0.994428	0.099575	0.712676
C78	C	1.116986	0.033947	0.712686
C79	C	1.116977	0.033945	0.608585
C80	C	1.055691	0.066759	0.556529
H81	H	0.594476	0.147244	0.000056
H82	H	1.166887	0.007229	0.755076
C83	C	0.625273	-0.025230	0.000119
C84	C	0.564243	-0.037995	0.086004
C85	C	0.525340	-0.086950	0.086021
C86	C	0.547466	-0.123140	0.000153
C87	C	0.608499	-0.110376	-0.085738
C88	C	0.647403	-0.061421	-0.085755
H89	H	0.547861	-0.011205	0.149574
H90	H	0.480159	-0.096399	0.149603
H91	H	0.518668	-0.159380	0.000165
H92	H	0.624882	-0.137167	-0.149309
H93	H	0.692583	-0.051972	-0.149338
H94	H	0.763700	0.148973	0.000034
C95	C	1.184347	-0.002155	0.230256
C96	C	1.251750	-0.038249	0.287522
C97	C	1.319151	-0.074348	0.230281
C98	C	1.319149	-0.074354	0.115773
C99	C	1.251743	-0.038258	0.058501
C100	C	1.184342	-0.002159	0.115743
H101	H	1.251754	-0.038247	0.372293
H102	H	1.369049	-0.101069	0.272678
H103	H	1.369043	-0.101076	0.073400
H104	H	1.251739	-0.038261	-0.026270
H105	H	1.134445	0.024561	0.073345
H106	H	1.284675	-0.479196	0.000090
H107	H	0.912624	-0.161067	0.000110
H108	H	0.347663	-0.015451	0.000135
C109	C	0.486108	0.158749	0.000066
C110	C	0.547139	0.171515	-0.085817
C111	C	0.586054	0.220466	-0.085824
C112	C	0.563939	0.256652	0.000053
C113	C	0.502904	0.243888	0.085942
C114	C	0.463989	0.194936	0.085949
H115	H	0.563513	0.144727	-0.149394
H116	H	0.631236	0.229915	-0.149405
H117	H	0.592746	0.292889	0.000048
H118	H	0.486530	0.270676	0.149519
H119	H	0.418807	0.185487	0.149531
C120	C	0.927023	0.135668	0.769924
C121	C	0.927032	0.135674	0.884432
C122	C	0.859624	0.171768	0.941677
C123	C	0.792207	0.207855	0.884415
C124	C	0.792195	0.207851	0.769901
C125	C	0.859603	0.171757	0.712656
H126	H	0.976941	0.108958	0.926826
H127	H	0.859633	0.171771	1.026448
H128	H	0.742307	0.234574	0.926791
H129	H	0.742286	0.234567	0.727507
H130	H	0.859594	0.171754	0.627885
C131	C	1.231770	-0.190607	0.000124
C132	C	1.299170	-0.188387	0.086020
C133	C	1.388380	-0.222389	0.086038
C134	C	1.410189	-0.258610	0.000159
C135	C	1.342787	-0.260831	-0.085743
C136	C	1.253577	-0.226829	-0.085761
H137	H	1.283027	-0.161573	0.149598
H138	H	1.438275	-0.220745	0.149629
H139	H	1.476228	-0.283780	0.000172
H140	H	1.358930	-0.287645	-0.149321
H141	H	1.203682	-0.228473	-0.149352
H142	H	0.306753	0.144307	0.000083
H143	H	0.516899	-0.013726	0.000124
H144	H	0.944501	0.126285	0.433970
C145	C	1.222192	-0.699844	0.000077
C146	C	1.289341	-0.711496	0.085964
C147	C	1.379591	-0.690053	0.085973
C148	C	1.402693	-0.656956	0.000095
C149	C	1.335542	-0.645302	-0.085799
C150	C	1.245292	-0.666745	-0.085808
H151	H	1.272242	-0.735998	0.149542
H152	H	1.429301	-0.698680	0.149557
H153	H	1.469501	-0.641082	0.000101
H154	H	1.352641	-0.620800	-0.149377
H155	H	1.195583	-0.658118	-0.149392
C156	C	0.879606	-0.675874	0.000037
C157	C	0.812188	-0.678095	-0.085841
C158	C	0.722977	-0.644095	-0.085838
C159	C	0.701182	-0.607874	0.000043
C160	C	0.768602	-0.605652	0.085928
C161	C	0.857814	-0.639652	0.085925
H162	H	0.828320	-0.704909	-0.149421
H163	H	0.673068	-0.645741	-0.149416
H164	H	0.635143	-0.582706	0.000046
H165	H	0.752470	-0.578838	0.149508
H166	H	0.907722	-0.638006	0.149503
H167	H	1.210310	-0.090310	0.000145
H168	H	0.944483	0.126284	0.245104
C169	C	1.184374	-0.002149	0.551329
C170	C	1.183643	-0.057195	0.565661
C171	C	1.251039	-0.093290	0.508403
C172	C	1.319166	-0.074340	0.436814
C173	C	1.319899	-0.019292	0.422479
C174	C	1.252504	0.016803	0.479736
H175	H	1.133210	-0.071225	0.618659
H176	H	1.250496	-0.134040	0.519016
H177	H	1.369056	-0.101059	0.394428
H178	H	1.370333	-0.005261	0.369481
H179	H	1.253047	0.057553	0.469124
H180	H	1.287519	-0.327947	0.000113
H181	H	0.804613	-0.010785	0.000099
H182	H	1.166850	0.007223	0.433988
H183	H	0.901062	-0.776167	0.000044
H184	H	1.285799	-0.419403	0.000097
H185	H	1.282944	-0.570665	0.000078
H186	H	1.197022	-0.796891	0.000066
H187	H	0.826701	-0.387265	0.000012
H188	H	0.828427	-0.295806	0.000017
H189	H	0.914351	-0.069592	0.000102
H190	H	0.823869	-0.538525	0.000021
H191	H	0.944510	0.126291	0.566188
C192	C	0.802419	-0.438234	0.000036
C193	C	0.735000	-0.440450	-0.085843
C194	C	0.645789	-0.406450	-0.085833
C195	C	0.623997	-0.370233	0.000056
C196	C	0.691418	-0.368015	0.085942
C197	C	0.780629	-0.402016	0.085932
H198	H	0.751131	-0.467261	-0.149429
H199	H	0.595880	-0.408091	-0.149411
H200	H	0.557958	-0.345064	0.000064
H201	H	0.675287	-0.341204	0.149527
H202	H	0.830538	-0.400374	0.149510
