data_functionalizedCrystal
_audit_creation_method	'MofGen! by Chris Wilmer'
_symmetry_space_group_name_H-M	'P1'
_symmetry_Int_Tables_number	1
_symmetry_cell_setting	triclinic
loop_
_symmetry_equiv_pos_as_xyz
  x,y,z
_cell_length_a	18.101398
_cell_length_b	21.295417
_cell_length_c	18.101389
_cell_angle_alpha	90.021518
_cell_angle_beta	90.009745
_cell_angle_gamma	90.025259
loop_
_atom_site_label
_atom_site_type_symbol
_atom_site_fract_x
_atom_site_fract_y
_atom_site_fract_z
Zn1	Zn	1.132128	-0.250750	0.418535
Zn2	Zn	1.465461	0.082583	0.751868
Zn3	Zn	1.798795	0.415917	1.085201
Zn4	Zn	1.132027	-0.356003	0.294686
Zn5	Zn	1.465360	-0.022670	0.628020
Zn6	Zn	1.798694	0.310663	0.961353
Zn7	Zn	1.008287	-0.250744	0.294727
Zn8	Zn	1.341620	0.082589	0.628061
Zn9	Zn	1.674954	0.415923	0.961394
Zn10	Zn	1.008241	-0.355977	0.418506
Zn11	Zn	1.341574	-0.022644	0.751840
Zn12	Zn	1.674907	0.310690	1.085173
O13	O	1.070171	-0.303369	0.356614
O14	O	1.403504	0.029965	0.689947
O15	O	1.736837	0.363298	1.023280
O16	O	1.235748	-0.264726	0.402101
O17	O	1.569081	0.068608	0.735434
O18	O	1.902414	0.401941	1.068767
O19	O	1.115590	-0.342049	0.191059
O20	O	1.448923	-0.008716	0.524392
O21	O	1.782256	0.324618	0.857726
O22	O	1.024776	-0.162655	0.311179
O23	O	1.358110	0.170678	0.644513
O24	O	1.691443	0.504011	0.977846
O25	O	1.235673	-0.342055	0.311110
O26	O	1.569007	-0.008722	0.644443
O27	O	1.902340	0.324612	0.977776
O28	O	1.115762	-0.162660	0.402140
O29	O	1.449095	0.170674	0.735474
O30	O	1.782429	0.504007	1.068807
O31	O	1.024678	-0.264715	0.191089
O32	O	1.358012	0.068618	0.524422
O33	O	1.691345	0.401951	0.857756
O34	O	0.904648	-0.264690	0.311152
O35	O	1.237981	0.068644	0.644486
O36	O	1.571315	0.401977	0.977819
O37	O	1.024698	-0.342010	0.522143
O38	O	1.358031	-0.008677	0.855476
O39	O	1.691364	0.324657	1.188810
O40	O	0.904614	-0.342004	0.402092
O41	O	1.237947	-0.008671	0.735426
O42	O	1.571281	0.324663	1.068759
O43	O	1.115717	-0.264700	0.522164
O44	O	1.449050	0.068633	0.855497
O45	O	1.782384	0.401967	1.188830
O46	O	1.115545	-0.444089	0.311083
O47	O	1.448878	-0.110756	0.644416
O48	O	1.782212	0.222577	0.977749
O49	O	1.024600	-0.444070	0.402053
O50	O	1.357933	-0.110737	0.735386
O51	O	1.691266	0.222597	1.068719
C52	C	0.877760	-0.303344	0.356624
C53	C	1.211094	0.029990	0.689957
C54	C	1.544427	0.363323	1.023291
C55	C	0.795446	-0.303348	0.356646
C56	C	1.128779	0.029985	0.689979
C57	C	1.462113	0.363318	1.023313
C58	C	0.496355	-0.303385	0.356615
C59	C	0.829688	0.029948	0.689948
C60	C	1.163022	0.363281	1.023282
C61	C	0.527684	-0.352265	0.413550
C62	C	0.861017	-0.018931	0.746883
C63	C	1.194350	0.314402	1.080216
C64	C	0.613302	-0.352112	0.413784
C65	C	0.946635	-0.018778	0.747117
C66	C	1.279969	0.314555	1.080450
C67	C	0.644738	-0.303368	0.356630
C68	C	0.978071	0.029966	0.689964
C69	C	1.311404	0.363299	1.023297
C70	C	0.613681	-0.237068	0.377962
C71	C	0.947015	0.096266	0.711296
C72	C	1.280348	0.429599	1.044629
C73	C	0.528036	-0.237361	0.378367
C74	C	0.861370	0.095972	0.711701
C75	C	1.194703	0.429305	1.045034
C76	C	0.527903	-0.320222	0.278211
C77	C	0.861236	0.013112	0.611545
C78	C	1.194570	0.346445	0.944878
C79	C	0.613553	-0.321676	0.278630
C80	C	0.946886	0.011657	0.611963
C81	C	1.280220	0.344990	0.945297
C82	C	0.728597	-0.303353	0.356638
C83	C	1.061931	0.029980	0.689971
C84	C	1.395264	0.363313	1.023305
C85	C	0.412496	-0.303395	0.356609
C86	C	0.745829	0.029938	0.689943
C87	C	1.079162	0.363272	1.023276
C88	C	1.070076	-0.466920	0.356576
C89	C	1.403410	-0.133587	0.689910
C90	C	1.736743	0.199746	1.023243
C91	C	1.070104	-0.536888	0.356585
C92	C	1.403437	-0.203555	0.689918
C93	C	1.736770	0.129778	1.023252
C94	C	1.117453	-0.569700	0.403982
C95	C	1.450786	-0.236367	0.737315
C96	C	1.784119	0.096967	1.070649
C97	C	1.117479	-0.635443	0.404000
C98	C	1.450812	-0.302109	0.737334
C99	C	1.784146	0.031224	1.070667
C100	C	1.070164	-0.668371	0.356608
C101	C	1.403497	-0.335037	0.689942
C102	C	1.736830	-0.001704	1.023275
C103	C	1.022806	-0.635551	0.309208
C104	C	1.356139	-0.302218	0.642541
C105	C	1.689472	0.031116	0.975875
C106	C	1.022776	-0.569810	0.309196
C107	C	1.356109	-0.236476	0.642530
C108	C	1.689442	0.096857	0.975863
N109	N	1.064571	-0.771624	0.291797
N110	N	1.397904	-0.438290	0.625131
N111	N	1.731237	-0.104957	0.958464
N112	N	1.064604	-0.834075	0.291810
N113	N	1.397937	-0.500742	0.625144
N114	N	1.731270	-0.167408	0.958477
C115	C	1.070250	-0.866445	0.356642
C116	C	1.403584	-0.533112	0.689975
C117	C	1.736917	-0.199779	1.023308
N118	N	1.075877	-0.834005	0.421461
N119	N	1.409211	-0.500672	0.754794
N120	N	1.742544	-0.167339	1.088127
N121	N	1.075848	-0.771548	0.421447
N122	N	1.409182	-0.438215	0.754780
N123	N	1.742515	-0.104881	1.088113
C124	C	1.070191	-0.739656	0.356616
C125	C	1.403524	-0.406323	0.689949
C126	C	1.736857	-0.072989	1.023283
C127	C	1.117630	-0.970543	0.404063
C128	C	1.450964	-0.637209	0.737396
C129	C	1.784297	-0.303876	1.070729
C130	C	1.117651	-1.036286	0.404082
C131	C	1.450984	-0.702953	0.737415
C132	C	1.784318	-0.369620	1.070749
C133	C	1.022982	-1.036394	0.309283
C134	C	1.356315	-0.703060	0.642616
C135	C	1.689648	-0.369727	0.975950
C136	C	1.022957	-0.970651	0.309270
C137	C	1.356290	-0.637318	0.642603
C138	C	1.689623	-0.303985	0.975937
C139	C	1.070285	-0.937730	0.356659
C140	C	1.403618	-0.604396	0.689992
C141	C	1.736952	-0.271063	1.023326
C142	C	1.263333	-0.303394	0.356604
C143	C	1.596666	0.029939	0.689937
C144	C	1.929999	0.363273	1.023270
C145	C	1.345647	-0.303405	0.356600
C146	C	1.678980	0.029929	0.689933
C147	C	2.012313	0.363262	1.023266
C148	C	1.070214	-0.303353	0.549776
C149	C	1.403547	0.029981	0.883109
C150	C	1.736880	0.363314	1.216442
C151	C	1.070232	-0.303346	0.632090
C152	C	1.403565	0.029987	0.965423
C153	C	1.736898	0.363321	1.298756
C154	C	1.070286	-0.139178	0.356668
C155	C	1.403619	0.194155	0.690001
C156	C	1.736952	0.527488	1.023334
C157	C	1.070335	-0.069210	0.356690
C158	C	1.403668	0.264123	0.690024
C159	C	1.737001	0.597457	1.023357
C160	C	1.070171	-0.303339	0.164203
C161	C	1.403504	0.029994	0.497537
C162	C	1.736837	0.363328	0.830870
C163	C	1.070296	-0.303168	0.081890
C164	C	1.403629	0.030165	0.415223
C165	C	1.736963	0.363498	0.748556
C166	C	1.070275	-0.303228	0.931181
C167	C	1.403608	0.030105	1.264514
C168	C	1.736942	0.363439	1.597848
C169	C	1.012811	-0.351714	0.899843
C170	C	1.346144	-0.018381	1.233176
C171	C	1.679477	0.314952	1.566509
C172	C	1.012966	-0.351939	0.814224
C173	C	1.346299	-0.018606	1.147558
C174	C	1.679633	0.314727	1.480891
C175	C	1.070253	-0.303286	0.782798
C176	C	1.403586	0.030047	1.116132
C177	C	1.736920	0.363380	1.449465
C178	C	1.148279	-0.321298	0.813883
C179	C	1.481612	0.012035	1.147216
C180	C	1.814945	0.345368	1.480550
C181	C	1.147959	-0.321617	0.899528
C182	C	1.481292	0.011717	1.232861
C183	C	1.814625	0.345050	1.566195
C184	C	1.050392	-0.236622	0.899615
C185	C	1.383725	0.096712	1.232948
C186	C	1.717058	0.430045	1.566281
C187	C	1.048656	-0.237006	0.813964
C188	C	1.381989	0.096327	1.147297
C189	C	1.715322	0.429660	1.480631
C190	C	1.070245	-0.303318	0.698939
C191	C	1.403579	0.030015	1.032272
C192	C	1.736912	0.363348	1.365605
C193	C	1.070288	-0.303197	1.015041
C194	C	1.403621	0.030136	1.348374
C195	C	1.736954	0.363469	1.681707
H196	H	0.633859	-0.370463	0.262542
H197	H	0.967192	-0.037130	0.595875
H198	H	1.300525	0.296203	0.929208
Br199	Br	0.494761	-0.213559	0.473898
Br200	Br	0.828094	0.119774	0.807232
Br201	Br	1.161428	0.453108	1.140565
H202	H	0.984404	-0.943934	0.270672
H203	H	1.317737	-0.610601	0.604005
H204	H	1.651071	-0.277267	0.937338
H205	H	1.156208	-1.063001	0.442682
H206	H	1.489542	-0.729667	0.776015
H207	H	1.822875	-0.396334	1.109349
Br208	Br	0.647620	-0.174719	0.311007
Br209	Br	0.980954	0.158615	0.644340
Br210	Br	1.314287	0.491948	0.977673
Br211	Br	1.181746	-0.679983	0.468326
Br212	Br	1.515080	-0.346650	0.801659
Br213	Br	1.848413	-0.013316	1.134993
H214	H	0.984280	-0.662365	0.270623
H215	H	1.317613	-0.329032	0.603956
H216	H	1.650946	0.004301	0.937289
Br217	Br	0.491868	-0.399415	0.245892
Br218	Br	0.825201	-0.066082	0.579226
Br219	Br	1.158535	0.267252	0.912559
H220	H	0.634299	-0.401277	0.400413
H221	H	0.967632	-0.067944	0.733747
H222	H	1.300965	0.265390	1.067080
Br223	Br	0.958509	-0.525276	0.244869
Br224	Br	1.291842	-0.191943	0.578202
Br225	Br	1.625175	0.141390	0.911535
Br226	Br	1.181858	-0.925860	0.468376
Br227	Br	1.515191	-0.592526	0.801709
Br228	Br	1.848524	-0.259193	1.135042
Br229	Br	0.647481	-0.333547	0.510608
Br230	Br	0.980814	-0.000214	0.843942
Br231	Br	1.314147	0.333119	1.177275
Br232	Br	1.120151	-0.176411	0.933392
Br233	Br	1.453485	0.156923	1.266725
Br234	Br	1.786818	0.490256	1.600058
Br235	Br	0.958763	-1.081075	0.244968
Br236	Br	1.292096	-0.747741	0.578301
Br237	Br	1.625429	-0.414408	0.911635
Br238	Br	1.221693	-0.265271	0.934086
Br239	Br	1.555026	0.068062	1.267420
Br240	Br	1.888359	0.401396	1.600753
H241	H	0.954777	-0.340558	0.920444
H242	H	1.288111	-0.007225	1.253777
H243	H	1.621444	0.326109	1.587111
H244	H	0.955107	-0.340667	0.793207
H245	H	1.288440	-0.007334	1.126541
H246	H	1.621773	0.325999	1.459874
Br247	Br	0.493492	-0.174607	0.312268
Br248	Br	0.826825	0.158727	0.645601
Br249	Br	1.160158	0.492060	0.978934
Br250	Br	0.649453	-0.212831	0.472456
Br251	Br	0.982786	0.120503	0.805789
Br252	Br	1.316120	0.453836	1.139123
Br253	Br	1.034421	-0.433491	0.935770
Br254	Br	1.367754	-0.100158	1.269103
Br255	Br	1.701088	0.233176	1.602437
H256	H	0.634952	-0.288659	0.233931
H257	H	0.968286	0.044674	0.567264
H258	H	1.301619	0.378007	0.900598
Br259	Br	0.494136	-0.260882	0.207505
Br260	Br	0.827469	0.072451	0.540838
Br261	Br	1.160803	0.405784	0.874172
Br262	Br	0.493322	-0.434481	0.391522
Br263	Br	0.826655	-0.101148	0.724855
Br264	Br	1.159989	0.232186	1.058189
Br265	Br	1.034889	-0.434219	0.780068
Br266	Br	1.368223	-0.100886	1.113401
Br267	Br	1.701556	0.232448	1.446735
Br268	Br	1.181680	-0.525024	0.468299
Br269	Br	1.515013	-0.191690	0.801632
Br270	Br	1.848346	0.141643	1.134965
H271	H	1.164814	-0.370307	0.919504
H272	H	1.498148	-0.036973	1.252837
H273	H	1.831481	0.296360	1.586171
H274	H	1.192244	-0.287093	0.793528
H275	H	1.525577	0.046241	1.126861
H276	H	1.858910	0.379574	1.460195
Br277	Br	1.176863	-0.401589	0.778134
Br278	Br	1.510197	-0.068256	1.111468
Br279	Br	1.843530	0.265078	1.444801
H280	H	0.994484	-0.220212	0.921216
H281	H	1.327817	0.113121	1.254549
H282	H	1.661151	0.446454	1.587882
H283	H	0.991235	-0.223423	0.793648
H284	H	1.324569	0.109910	1.126981
H285	H	1.657902	0.443243	1.460314
Br286	Br	1.113332	-0.173596	0.778322
Br287	Br	1.446666	0.159737	1.111656
Br288	Br	1.779999	0.493071	1.444989
H289	H	0.506173	-0.341268	0.471306
H290	H	0.839506	-0.007934	0.804639
H291	H	1.172840	0.325399	1.137972
