data_functionalizedCrystal
_audit_creation_method	'MofGen! by Chris Wilmer'
_symmetry_space_group_name_H-M	'P1'
_symmetry_Int_Tables_number	1
_symmetry_cell_setting	triclinic
loop_
_symmetry_equiv_pos_as_xyz
  x,y,z
_cell_length_a	12.759401
_cell_length_b	19.120786
_cell_length_c	12.759393
_cell_angle_alpha	87.522881
_cell_angle_beta	89.981504
_cell_angle_gamma	92.465417
loop_
_atom_site_label
_atom_site_type_symbol
_atom_site_fract_x
_atom_site_fract_y
_atom_site_fract_z
Zn1	Zn	1.588335	-0.279587	-0.576097
Zn2	Zn	1.580700	-0.397064	-0.392903
Zn3	Zn	1.412635	-0.279624	-0.400435
Zn4	Zn	1.405099	-0.397010	-0.568548
O5	O	1.496692	-0.338321	-0.484496
O6	O	1.734343	-0.295178	-0.551804
O7	O	1.558364	-0.381523	-0.246879
O8	O	1.442291	-0.181328	-0.430048
O9	O	1.728733	-0.381488	-0.417212
O10	O	1.571377	-0.181301	-0.559107
O11	O	1.434887	-0.295241	-0.252412
O12	O	1.264615	-0.295188	-0.422728
O13	O	1.429448	-0.381396	-0.716573
O14	O	1.259078	-0.381431	-0.546240
O15	O	1.564070	-0.295126	-0.722120
O16	O	1.551057	-0.495348	-0.409892
O17	O	1.422044	-0.495308	-0.538937
C18	C	1.223726	-0.338308	-0.484482
C19	C	1.106948	-0.338320	-0.484500
C20	C	1.484933	-0.520814	-0.472801
C21	C	1.479998	-0.598885	-0.467833
C22	C	1.049227	-0.383298	-0.548698
C23	C	0.939502	-0.383307	-0.548708
C24	C	0.945231	-0.293357	-0.420316
C25	C	1.054953	-0.293345	-0.420312
C26	C	1.101221	-0.428273	-0.612887
C27	C	1.043499	-0.473256	-0.677088
C28	C	0.933775	-0.473265	-0.677099
C29	C	0.881772	-0.428291	-0.612908
C30	C	1.544838	-0.635488	-0.532747
C31	C	1.540197	-0.708844	-0.528081
C32	C	1.470721	-0.745595	-0.458494
C33	C	1.405874	-0.708987	-0.393577
C34	C	1.410510	-0.635632	-0.398249
C35	C	1.453358	-0.967082	-0.441028
C36	C	1.448729	-1.040442	-0.436358
C37	C	1.583052	-1.040294	-0.570864
C38	C	1.587686	-0.966938	-0.575526
C39	C	1.522835	-0.930336	-0.510612
C40	C	1.465978	-0.820577	-0.453721
C41	C	1.527574	-0.855356	-0.515392
C42	C	1.770725	-0.338335	-0.484510
C43	C	1.887501	-0.338341	-0.484516
C44	C	1.496770	-0.338251	-0.758534
C45	C	1.496804	-0.338220	-0.875312
C46	C	1.508526	-0.155117	-0.496260
C47	C	1.513569	-0.077046	-0.501273
C48	C	1.566911	-0.293295	-0.933065
C49	C	1.566938	-0.293270	-1.042790
C50	C	1.426746	-0.383101	-1.037002
C51	C	1.426715	-0.383122	-0.927278
C52	C	1.636999	-0.248394	-0.881099
C53	C	1.707113	-0.203465	-0.938851
C54	C	1.707140	-0.203440	-1.048577
C55	C	1.637053	-0.248343	-1.100550
C56	C	1.496678	-0.338341	-0.211527
C57	C	1.496861	-0.338174	-0.094762
H58	H	1.085847	-0.509867	-0.729356
H59	H	1.764170	-0.166903	-0.896527
C60	C	1.766021	-0.084498	-1.089996
C61	C	1.784204	-0.154053	-1.112055
H62	H	1.813606	-0.054010	-1.129178
H63	H	1.696110	-0.074212	-1.108642
H64	H	1.776031	-0.078099	-1.017208
H65	H	1.774186	-0.160453	-1.184843
H66	H	1.854132	-0.164342	-1.093416
C67	C	1.288187	-0.471944	-0.932567
C68	C	1.349680	-0.432523	-0.863788
H69	H	1.240638	-0.502448	-0.893368
H70	H	1.249967	-0.441337	-0.977315
H71	H	1.332257	-0.498791	-0.973653
H72	H	1.305611	-0.405672	-0.822708
H73	H	1.387904	-0.463134	-0.819021
C74	C	1.257209	-0.446084	-0.511740
C75	C	1.221831	-0.428265	-0.612876
H76	H	1.331668	-0.446083	-0.511736
H77	H	1.234507	-0.412862	-0.464339
H78	H	1.229458	-0.491397	-0.490566
H79	H	1.249577	-0.382949	-0.634048
H80	H	1.244544	-0.461489	-0.660294
H81	H	0.902881	-0.256742	-0.368054
C82	C	1.178943	-0.283471	-0.279652
C83	C	1.118418	-0.243909	-0.349744
H84	H	1.218129	-0.252949	-0.236094
H85	H	1.134159	-0.314037	-0.237430
H86	H	1.225601	-0.310250	-0.317900
H87	H	1.071754	-0.217134	-0.311496
H88	H	1.163206	-0.213332	-0.391971
C89	C	1.353351	-0.731681	-0.214186
C90	C	1.329501	-0.749379	-0.317084
H91	H	1.306196	-0.756614	-0.166962
H92	H	1.423182	-0.743674	-0.198114
H93	H	1.346830	-0.682754	-0.207696
H94	H	1.336029	-0.798306	-0.323577
H95	H	1.259653	-0.737391	-0.333162
H96	H	0.886780	-0.509887	-0.729382
H97	H	1.636988	-0.248411	-0.791755
H98	H	1.593005	-0.738643	-0.580933
H99	H	0.792427	-0.428296	-0.612932
H100	H	1.644259	-0.937017	-0.632189
H101	H	1.637068	-0.248310	-1.189897
H102	H	1.584137	-0.825431	-0.572054
H103	H	1.601418	-0.605570	-0.589408
C104	C	1.364560	-0.422961	-1.202633
C105	C	1.349721	-0.432463	-1.094129
H106	H	1.317013	-0.453441	-1.237897
H107	H	1.352231	-0.375770	-1.223646
H108	H	1.434497	-0.433239	-1.219941
H109	H	1.279786	-0.422180	-1.076820
H110	H	1.362042	-0.479665	-1.073107
C111	C	1.635582	-1.152676	-0.623436
C112	C	1.654322	-1.080529	-0.642224
H113	H	1.679578	-1.177513	-0.667500
H114	H	1.650242	-1.164721	-0.552101
H115	H	1.564218	-1.164723	-0.637981
H116	H	1.725685	-1.068481	-0.627670
H117	H	1.639670	-1.068479	-0.713574
C118	C	1.316398	-1.033224	-0.303884
C119	C	1.372347	-1.080841	-0.359870
H120	H	1.269243	-1.058166	-0.256672
H121	H	1.363995	-1.004607	-0.265554
H122	H	1.277999	-1.004613	-0.351461
H123	H	1.410753	-1.109448	-0.312293
H124	H	1.324744	-1.109470	-0.398203
H125	H	1.400556	-0.937287	-0.388171
H126	H	1.409413	-0.850508	-0.397060
H127	H	1.357710	-0.605830	-0.345390
