data_functionalizedCrystal
_audit_creation_method	'MofGen! by Chris Wilmer'
_symmetry_space_group_name_H-M	'P1'
_symmetry_Int_Tables_number	1
_symmetry_cell_setting	triclinic
loop_
_symmetry_equiv_pos_as_xyz
  x,y,z
_cell_length_a	16.109301
_cell_length_b	16.109302
_cell_length_c	14.586319
_cell_angle_alpha	89.996326
_cell_angle_beta	89.998857
_cell_angle_gamma	83.461823
loop_
_atom_site_label
_atom_site_type_symbol
_atom_site_fract_x
_atom_site_fract_y
_atom_site_fract_z
O1	O	1.103131	0.106867	-0.076190
O2	O	0.861069	0.120166	-0.076203
O3	O	0.988749	-0.007514	-0.076190
O4	O	0.975451	0.234547	-0.076202
O5	O	0.988740	-0.007516	0.076291
O6	O	0.861060	0.120164	0.076278
O7	O	1.103122	0.106865	0.076291
Cu8	Cu	0.982091	0.113515	0.090207
Cu9	Cu	0.982101	0.113517	-0.090119
O10	O	0.975442	0.234546	0.076279
C11	C	0.830090	0.119626	0.000036
C12	C	0.737795	0.118011	0.000031
C13	C	0.988206	-0.038490	0.000050
C14	C	0.986590	-0.130785	0.000048
C15	C	0.428797	0.188494	0.000044
C16	C	0.515517	0.190020	0.000038
C17	C	0.535390	0.038531	0.000034
C18	C	0.448671	0.037007	0.000033
C19	C	0.395376	0.111991	0.000042
C20	C	0.568815	0.115041	0.000038
C21	C	0.662841	0.116694	0.000032
C22	C	0.301344	0.110338	0.000046
C23	C	1.134102	0.107405	0.000050
C24	C	1.226397	0.109020	0.000049
N25	N	0.982089	0.113512	0.217039
C26	C	0.975986	0.265521	0.000037
C27	C	0.977601	0.357817	0.000032
C28	C	0.981341	0.570159	-0.083079
C29	C	0.982867	0.656879	-0.083077
C30	C	0.982853	0.656866	0.083166
C31	C	0.981333	0.570147	0.083163
C32	C	0.980572	0.526796	0.000038
C33	C	0.983619	0.700235	0.000043
C34	C	0.985274	0.794261	0.000045
C35	C	0.978919	0.432764	0.000035
N36	N	0.982109	0.113512	-0.216951
C37	C	1.038645	0.056994	0.452051
C38	C	1.038647	0.056992	0.548032
C39	C	0.925548	0.170033	0.548031
C40	C	0.925542	0.170030	0.452051
C41	C	0.982095	0.113512	0.404064
C42	C	0.982103	0.113513	0.596025
C43	C	0.982105	0.113511	0.700092
C44	C	0.982092	0.113512	0.299990
H45	H	0.385406	0.249551	0.000051
H46	H	0.983471	0.692173	0.150843
H47	H	0.542723	0.252316	0.000039
H48	H	1.084694	0.010970	0.587101
H49	H	0.578792	-0.022518	0.000028
H50	H	0.983494	0.692181	-0.150759
H51	H	0.980709	0.534840	0.150851
H52	H	0.879488	0.216054	0.412977
H53	H	0.421461	-0.025296	0.000028
H54	H	0.980721	0.534865	-0.150765
H55	H	1.084693	0.010973	0.412982
H56	H	0.879504	0.216050	0.587112
