data_functionalizedCrystal
_audit_creation_method	'MofGen! by Chris Wilmer'
_symmetry_space_group_name_H-M	'P1'
_symmetry_Int_Tables_number	1
_symmetry_cell_setting	triclinic
loop_
_symmetry_equiv_pos_as_xyz
  x,y,z
_cell_length_a	19.121063
_cell_length_b	19.121385
_cell_length_c	12.594509
_cell_angle_alpha	87.589297
_cell_angle_beta	92.405810
_cell_angle_gamma	85.196193
loop_
_atom_site_label
_atom_site_type_symbol
_atom_site_fract_x
_atom_site_fract_y
_atom_site_fract_z
Zn1	Zn	-0.234194	-1.063719	-0.548459
Zn2	Zn	0.265806	-0.563719	-0.048459
Zn3	Zn	-0.351875	-1.058603	-0.378395
Zn4	Zn	0.148125	-0.558603	0.121605
Zn5	Zn	-0.239246	-0.946051	-0.378390
Zn6	Zn	0.260754	-0.446051	0.121610
Zn7	Zn	-0.356846	-0.940999	-0.564218
Zn8	Zn	0.143154	-0.440999	-0.064218
O9	O	-0.295540	-1.002343	-0.467365
O10	O	0.204460	-0.502343	0.032635
O11	O	-0.245610	-1.161502	-0.519306
O12	O	0.254390	-0.661502	-0.019306
O13	O	-0.336969	-1.043646	-0.229452
O14	O	0.163031	-0.543646	0.270548
O15	O	-0.140110	-0.965915	-0.394353
O16	O	0.359890	-0.465915	0.105647
O17	O	-0.332070	-1.157744	-0.394361
O18	O	0.167930	-0.657744	0.105639
O19	O	-0.136398	-1.052365	-0.519302
O20	O	0.363602	-0.552365	-0.019302
O21	O	-0.254221	-0.960955	-0.229449
O22	O	0.245779	-0.460955	0.270551
O23	O	-0.259041	-0.846919	-0.409634
O24	O	0.240959	-0.346919	0.090366
O25	O	-0.340542	-0.957305	-0.711069
O26	O	0.159458	-0.457305	-0.211069
O27	O	-0.345441	-0.843207	-0.546161
O28	O	0.154559	-0.343207	-0.046161
O29	O	-0.250430	-1.047467	-0.699491
O30	O	0.249570	-0.547467	-0.199491
O31	O	-0.451001	-1.038747	-0.409641
O32	O	0.048999	-0.538747	0.090359
O33	O	-0.454653	-0.952344	-0.546165
O34	O	0.045347	-0.452344	-0.046165
C35	C	-0.303329	-0.819533	-0.479608
C36	C	0.196671	-0.319533	0.020392
C37	C	-0.306678	-0.741325	-0.484871
C38	C	0.193322	-0.241325	0.015129
C39	C	-0.327856	-0.298903	-0.518285
C40	C	0.172144	0.201097	-0.018285
C41	C	-0.324715	-0.372387	-0.513320
C42	C	0.175285	0.127613	-0.013320
C43	C	-0.278088	-0.411042	-0.439863
C44	C	0.221912	0.088958	0.060137
C45	C	-0.234604	-0.376209	-0.371360
C46	C	0.265396	0.123791	0.128640
C47	C	-0.237750	-0.302725	-0.376321
C48	C	0.262250	0.197275	0.123679
C49	C	-0.266340	-0.633009	-0.421329
C50	C	0.233660	-0.133009	0.078671
C51	C	-0.263196	-0.706497	-0.416375
C52	C	0.236804	-0.206497	0.083625
C53	C	-0.353308	-0.702670	-0.558334
C54	C	0.146692	-0.202670	-0.058334
C55	C	-0.356446	-0.629186	-0.563293
C56	C	0.143554	-0.129186	-0.063293
C57	C	-0.312966	-0.594359	-0.494786
C58	C	0.187034	-0.094359	0.005214
C59	C	-0.274874	-0.486155	-0.434788
C60	C	0.225126	0.013845	0.065212
C61	C	-0.316183	-0.519248	-0.499857
C62	C	0.183817	-0.019248	0.000143
C63	C	-0.478357	-0.994461	-0.479636
C64	C	0.021643	-0.494461	0.020364
C65	C	-0.556564	-0.991154	-0.484916
C66	C	-0.056564	-0.491154	0.015084
C67	C	-0.591379	-1.034621	-0.416370
C68	C	-0.091379	-0.534621	0.083630
C69	C	-0.664863	-1.031514	-0.421343
C70	C	-0.164863	-0.531514	0.078657
C71	C	-0.703530	-0.984937	-0.494856
C72	C	-0.203530	-0.484937	0.005144
C73	C	-0.668709	-0.941469	-0.563409
C74	C	-0.168709	-0.441469	-0.063409
C75	C	-0.595227	-0.944579	-0.558441
C76	C	-0.095227	-0.444579	-0.058441
C77	C	-0.925496	-0.973297	-0.513414
C78	C	-0.425496	-0.473297	-0.013414
C79	C	-0.998984	-0.970188	-0.518375
C80	C	-0.498984	-0.470188	-0.018375
C81	C	-0.995132	-1.060235	-0.376309
C82	C	-0.495132	-0.560235	0.123691
C83	C	-0.921648	-1.063338	-0.371343
C84	C	-0.421648	-0.563338	0.128657
C85	C	-0.886834	-1.019872	-0.439900
C86	C	-0.386834	-0.519872	0.060100
C87	C	-0.778642	-0.981759	-0.499938
C88	C	-0.278642	-0.481759	0.000062
C89	C	-0.811723	-1.023054	-0.434823
C90	C	-0.311723	-0.523054	0.065177
C91	C	-0.112009	-1.010275	-0.455069
C92	C	0.387991	-0.510275	0.044931
C93	C	-0.033799	-1.013655	-0.449829
C94	C	0.466201	-0.513655	0.050171
C95	C	-0.295477	-1.002393	-0.744979
C96	C	0.204523	-0.502393	-0.244979
C97	C	-0.295450	-1.002414	-0.863281
C98	C	0.204550	-0.502414	-0.363281
C99	C	-0.287718	-0.185867	-0.455063
C100	C	0.212282	0.314133	0.044937
C101	C	-0.284374	-0.264075	-0.449789
C102	C	0.215626	0.235925	0.050211
C103	C	-0.344434	-0.953391	-0.938829
C104	C	0.155566	-0.453391	-0.438829
C105	C	-0.358886	-1.016857	-1.006464
C106	C	0.141114	-0.516857	-0.506464
C107	C	-0.280953	-0.939000	-1.006439
C108	C	0.219047	-0.439000	-0.506439
C109	C	-0.309934	-1.065912	-0.929358
C110	C	0.190066	-0.565912	-0.429358
C111	C	-0.231973	-0.988013	-0.929328
C112	C	0.268027	-0.488013	-0.429328
C113	C	-0.246398	-1.051524	-0.996927
C114	C	0.253602	-0.551524	-0.496927
C115	C	-0.295551	-1.002336	-0.190825
C116	C	0.204449	-0.502336	0.309175
C117	C	-0.295374	-1.002460	-0.072501
C118	C	0.204626	-0.502460	0.427499
H119	H	-0.365821	-0.267435	-0.578107
H120	H	0.134179	0.232565	-0.078107
H121	H	-0.230938	-0.604661	-0.365542
H122	H	0.269062	-0.104661	0.134458
H123	H	-0.810133	-0.943835	-0.559791
H124	H	-0.310133	-0.443835	-0.059791
O125	O	-0.195613	-0.268856	-0.309678
O126	O	0.304387	0.231144	0.190322
C127	C	-0.189587	-0.186219	-0.170999
C128	C	0.310413	0.313781	0.329001
C129	C	-0.237386	-0.224538	-0.246403
C130	C	0.262614	0.275462	0.253597
H131	H	-0.223340	-0.150368	-0.119837
H132	H	0.276660	0.349632	0.380163
H133	H	-0.155735	-0.226436	-0.117571
H134	H	0.344265	0.273564	0.382429
H135	H	-0.154291	-0.153446	-0.219828
H136	H	0.345709	0.346554	0.280172
H137	H	-0.272724	-0.257311	-0.197659
H138	H	0.227276	0.242689	0.302341
H139	H	-0.271190	-0.184285	-0.299834
H140	H	0.228810	0.315715	0.200166
H141	H	-0.385919	-0.911962	-0.913113
H142	H	0.114081	-0.411962	-0.413113
H143	H	-0.412535	-1.029062	-1.040241
H144	H	0.087465	-0.529062	-0.540241
O145	O	-0.366878	-0.406188	-0.580011
O146	O	0.133122	0.093812	-0.080011
C147	C	-0.400245	-0.427227	-0.761762
C148	C	0.099755	0.072773	-0.261762
C149	C	-0.352438	-0.388922	-0.686350
C150	C	0.147562	0.111078	-0.186350
H151	H	-0.388597	-0.413270	-0.847753
H152	H	0.111403	0.086730	-0.347753
H153	H	-0.389992	-0.486396	-0.745695
H154	H	0.110008	0.013604	-0.245695
H155	H	-0.457580	-0.410335	-0.747658
H156	H	0.042420	0.089665	-0.247658
H157	H	-0.295086	-0.405756	-0.700411
H158	H	0.204914	0.094244	-0.200411
H159	H	-0.362751	-0.329760	-0.702435
H160	H	0.137249	0.170240	-0.202435
O161	O	-0.698546	-1.073885	-0.354793
O162	O	-0.198546	-0.573885	0.145207
C163	C	-0.715705	-1.192698	-0.296885
C164	C	-0.215705	-0.692698	0.203115
C165	C	-0.677537	-1.144760	-0.372297
C166	C	-0.177537	-0.644760	0.127703
H167	H	-0.698745	-1.250011	-0.311025
H168	H	-0.198745	-0.750011	0.188975
H169	H	-0.701798	-1.181057	-0.210875
H170	H	-0.201798	-0.681057	0.289125
H171	H	-0.774877	-1.182509	-0.312976
H172	H	-0.274877	-0.682509	0.187024
H173	H	-0.618357	-1.154922	-0.356301
H174	H	-0.118357	-0.654922	0.143699
H175	H	-0.691502	-1.156411	-0.458281
H176	H	-0.191502	-0.656411	0.041719
O177	O	-0.266270	-0.875059	-1.046825
O178	O	0.233730	-0.375059	-0.546825
C179	C	-0.187839	-0.810046	-1.149501
C180	C	0.312161	-0.310046	-0.649501
C181	C	-0.204386	-0.882505	-1.103852
C182	C	0.295614	-0.382505	-0.603852
H183	H	-0.137797	-0.816039	-1.195599
H184	H	0.362203	-0.316039	-0.695599
H185	H	-0.233327	-0.786959	-1.205063
H186	H	0.266673	-0.286959	-0.705063
H187	H	-0.180121	-0.773487	-1.081561
H188	H	0.319879	-0.273487	-0.581561
H189	H	-0.212091	-0.919117	-1.171722
H190	H	0.287909	-0.419117	-0.671722
H191	H	-0.158890	-0.905535	-1.048261
H192	H	0.341110	-0.405535	-0.548261
O193	O	-1.036621	-0.925037	-0.589843
O194	O	-0.536621	-0.425037	-0.089843
C195	C	-1.119907	-0.912022	-0.739799
C196	C	-0.619907	-0.412022	-0.239799
C197	C	-1.077334	-0.963229	-0.658922
C198	C	-0.577334	-0.463229	-0.158922
H199	H	-1.152823	-0.942881	-0.795684
H200	H	-0.652823	-0.442881	-0.295684
H201	H	-1.155978	-0.873800	-0.695735
H202	H	-0.655978	-0.373800	-0.195735
H203	H	-1.082393	-0.881473	-0.787901
H204	H	-0.582393	-0.381473	-0.287901
H205	H	-1.114796	-0.993825	-0.610798
H206	H	-0.614796	-0.493825	-0.110798
H207	H	-1.041254	-1.001405	-0.703049
H208	H	-0.541254	-0.501405	-0.203049
H209	H	-0.394416	-0.597718	-0.623107
H210	H	0.105584	-0.097718	-0.123107
O211	O	-0.324485	-1.129977	-0.889298
O212	O	0.175515	-0.629977	-0.389298
C213	C	-0.289684	-1.254186	-0.874155
C214	C	0.210316	-0.754186	-0.374155
C215	C	-0.273112	-1.181677	-0.919568
C216	C	0.226888	-0.681677	-0.419568
H217	H	-0.248167	-1.296007	-0.898630
H218	H	0.251833	-0.796007	-0.398630
H219	H	-0.289585	-1.253687	-0.783665
H220	H	0.210415	-0.753687	-0.283665
H221	H	-0.343607	-1.266548	-0.906613
H222	H	0.156393	-0.766548	-0.406613
H223	H	-0.219187	-1.169270	-0.887192
H224	H	0.280813	-0.669270	-0.387192
H225	H	-0.273257	-1.182214	-1.010057
H226	H	0.226743	-0.682214	-0.510057
O227	O	-0.217826	-0.744078	-0.345152
O228	O	0.282174	-0.244078	0.154848
C229	C	-0.119289	-0.831151	-0.319081
C230	C	0.380711	-0.331151	0.180919
C231	C	-0.170612	-0.788627	-0.399851
C232	C	0.329388	-0.288627	0.100149
H233	H	-0.081112	-0.867190	-0.363272
H234	H	0.418888	-0.367190	0.136728
H235	H	-0.088704	-0.793666	-0.270985
H236	H	0.411296	-0.293666	0.229015
H237	H	-0.150094	-0.864113	-0.263176
H238	H	0.349906	-0.364113	0.236824
H239	H	-0.139861	-0.755661	-0.455824
H240	H	0.360139	-0.255661	0.044176
H241	H	-0.201197	-0.826150	-0.447871
H242	H	0.298803	-0.326150	0.052129
O243	O	-0.395519	-0.736612	-0.624762
O244	O	0.104481	-0.236612	-0.124762
C245	C	-0.430586	-0.848121	-0.680080
C246	C	0.069414	-0.348121	-0.180080
C247	C	-0.382750	-0.809773	-0.604771
C248	C	0.117250	-0.309773	-0.104771
H249	H	-0.420269	-0.907279	-0.663959
H250	H	0.079731	-0.407279	-0.163959
H251	H	-0.487939	-0.831276	-0.666019
H252	H	0.012061	-0.331276	-0.166019
H253	H	-0.418930	-0.834192	-0.766077
H254	H	0.081070	-0.334192	-0.266077
H255	H	-0.394344	-0.823682	-0.518746
H256	H	0.105656	-0.323682	-0.018746
H257	H	-0.325412	-0.826621	-0.618925
H258	H	0.174588	-0.326621	-0.118925
O259	O	-0.229674	-0.523782	-0.363389
O260	O	0.270326	-0.023782	0.136611
C261	C	-0.216551	-0.607080	-0.213444
C262	C	0.283449	-0.107080	0.286556
C263	C	-0.267813	-0.564516	-0.294254
C264	C	0.232187	-0.064516	0.205746
H265	H	-0.247367	-0.640013	-0.157514
H266	H	0.252633	-0.140013	0.342486
H267	H	-0.178343	-0.643133	-0.257563
H268	H	0.321657	-0.143133	0.242437
H269	H	-0.185990	-0.569560	-0.165384
H270	H	0.314010	-0.069560	0.334616
H271	H	-0.298422	-0.601984	-0.342338
H272	H	0.201578	-0.101984	0.157662
H273	H	-0.305975	-0.528455	-0.250072
H274	H	0.194025	-0.028455	0.249928
O275	O	-0.189329	-0.413863	-0.300097
O276	O	0.310671	0.086137	0.199903
C277	C	-0.144573	-0.528760	-0.229501
C278	C	0.355427	-0.028760	0.270499
C279	C	-0.195870	-0.486205	-0.310271
C280	C	0.304130	0.013795	0.189729
H281	H	-0.149854	-0.587255	-0.237684
H282	H	0.350146	-0.087255	0.262316
H283	H	-0.088452	-0.516811	-0.245503
H284	H	0.411548	-0.016811	0.254497
H285	H	-0.157471	-0.513709	-0.145460
H286	H	0.342529	-0.013709	0.354540
H287	H	-0.183036	-0.501232	-0.394343
H288	H	0.316964	-0.001232	0.105657
H289	H	-0.251976	-0.498158	-0.294177
H290	H	0.248024	0.001842	0.205823
H291	H	-0.354149	-0.487772	-0.559661
H292	H	0.145851	0.012228	-0.059661
O293	O	-0.553900	-1.079827	-0.344816
O294	O	-0.053900	-0.579827	0.155184
C295	C	-0.529992	-1.114970	-0.159995
C296	C	-0.029992	-0.614970	0.340005
C297	C	-0.572492	-1.063737	-0.240915
C298	C	-0.072492	-0.563737	0.259085
H299	H	-0.544997	-1.101970	-0.075972
H300	H	-0.044997	-0.601970	0.424028
H301	H	-0.541975	-1.171101	-0.175842
H302	H	-0.041975	-0.671101	0.324158
H303	H	-0.471494	-1.109739	-0.168269
H304	H	0.028506	-0.609739	0.331731
H305	H	-0.631002	-1.068905	-0.232687
H306	H	-0.131002	-0.568905	0.267313
H307	H	-0.560449	-1.007626	-0.225044
H308	H	-0.060449	-0.507626	0.274956
O309	O	-1.028867	-1.102562	-0.309765
O310	O	-0.528867	-0.602562	0.190235
C311	C	-1.046190	-1.221325	-0.251798
C312	C	-0.546190	-0.721325	0.248202
C313	C	-1.007929	-1.173464	-0.327200
C314	C	-0.507929	-0.673464	0.172800
H315	H	-1.029287	-1.278659	-0.265884
H316	H	-0.529287	-0.778659	0.234116
H317	H	-1.032304	-1.209671	-0.165787
H318	H	-0.532304	-0.709671	0.334213
H319	H	-1.105350	-1.211071	-0.267954
H320	H	-0.605350	-0.711071	0.232046
H321	H	-0.948761	-1.183691	-0.311140
H322	H	-0.448761	-0.683691	0.188860
H323	H	-1.021873	-1.185128	-0.413187
H324	H	-0.521873	-0.685128	0.086813
H325	H	-0.204940	-1.093047	-1.022443
H326	H	0.295060	-0.593047	-0.522443
H327	H	-0.890167	-1.101265	-0.311483
H328	H	-0.390167	-0.601265	0.188517
O329	O	-0.891796	-0.930994	-0.580038
O330	O	-0.391796	-0.430994	-0.080038
C331	C	-0.903376	-0.841364	-0.721489
C332	C	-0.403376	-0.341364	-0.221489
C333	C	-0.941635	-0.889227	-0.646086
C334	C	-0.441635	-0.389227	-0.146086
H335	H	-0.943654	-0.807594	-0.774923
H336	H	-0.443654	-0.307594	-0.274923
H337	H	-0.870623	-0.805999	-0.672763
H338	H	-0.370623	-0.305999	-0.172763
H339	H	-0.867519	-0.875108	-0.772654
H340	H	-0.367519	-0.375108	-0.272654
H341	H	-0.977528	-0.855538	-0.594905
H342	H	-0.477528	-0.355538	-0.094905
H343	H	-0.974344	-0.924596	-0.694875
H344	H	-0.474344	-0.424596	-0.194875
O345	O	-0.167935	-0.973515	-0.889115
O346	O	0.332065	-0.473515	-0.389115
C347	C	-0.043677	-1.008106	-0.874342
C348	C	0.456323	-0.508106	-0.374342
C349	C	-0.116153	-1.024608	-0.919970
C350	C	0.383847	-0.524608	-0.419970
H351	H	-0.001794	-1.049414	-0.899252
H352	H	0.498206	-0.549414	-0.399252
H353	H	-0.031369	-0.953995	-0.906089
H354	H	0.468631	-0.453995	-0.406089
H355	H	-0.044223	-1.008717	-0.783830
H356	H	0.455777	-0.508717	-0.283830
H357	H	-0.115661	-1.024036	-1.010481
H358	H	0.384339	-0.524036	-0.510481
H359	H	-0.128432	-1.078709	-0.888141
H360	H	0.371568	-0.578709	-0.388141
H361	H	-0.700198	-0.903548	-0.623270
H362	H	-0.200198	-0.403548	-0.123270
H363	H	-0.566881	-0.909185	-0.614260
H364	H	-0.066881	-0.409185	-0.114260
O365	O	-0.774138	-1.068197	-0.363304
O366	O	-0.274138	-0.568197	0.136696
C367	C	-0.690792	-1.081211	-0.213422
C368	C	-0.190792	-0.581211	0.286578
C369	C	-0.733337	-1.030011	-0.294341
C370	C	-0.233337	-0.530011	0.205659
H371	H	-0.657783	-1.050359	-0.157659
H372	H	-0.157783	-0.550359	0.342341
H373	H	-0.728263	-1.111735	-0.165194
H374	H	-0.228263	-0.611735	0.334806
H375	H	-0.654795	-1.119455	-0.257566
H376	H	-0.154795	-0.619455	0.242434
H377	H	-0.769337	-0.991724	-0.250283
H378	H	-0.269337	-0.491724	0.249717
H379	H	-0.695827	-0.999538	-0.342566
H380	H	-0.195827	-0.499538	0.157434
