data_functionalizedCrystal
_audit_creation_method	'MofGen! by Chris Wilmer'
_symmetry_space_group_name_H-M	'P1'
_symmetry_Int_Tables_number	1
_symmetry_cell_setting	triclinic
loop_
_symmetry_equiv_pos_as_xyz
  x,y,z
_cell_length_a	14.908571
_cell_length_b	25.639234
_cell_length_c	14.908520
_cell_angle_alpha	93.274536
_cell_angle_beta	90.205961
_cell_angle_gamma	86.687122
loop_
_atom_site_label
_atom_site_type_symbol
_atom_site_fract_x
_atom_site_fract_y
_atom_site_fract_z
Zn1	Zn	1.353968	-0.355450	-0.437476
Zn2	Zn	1.345184	-0.272751	-0.587825
Zn3	Zn	1.203602	-0.262718	-0.428800
Zn4	Zn	1.194896	-0.354846	-0.579100
O5	O	1.274413	-0.311441	-0.508300
O6	O	1.478628	-0.348932	-0.464703
O7	O	1.326370	-0.198255	-0.566750
O8	O	1.230868	-0.271074	-0.304128
O9	O	1.472174	-0.288173	-0.575163
O10	O	1.341342	-0.339203	-0.310503
O11	O	1.222351	-0.190884	-0.449915
O12	O	1.076622	-0.270488	-0.441455
O13	O	1.216030	-0.428092	-0.560293
O14	O	1.070226	-0.338173	-0.551880
O15	O	1.332900	-0.428536	-0.456243
O16	O	1.317928	-0.287587	-0.712490
O17	O	1.207512	-0.347902	-0.706080
C18	C	1.040799	-0.303177	-0.494780
C19	C	0.940857	-0.299654	-0.489018
C20	C	0.746433	-0.363431	-0.593354
C21	C	0.652528	-0.360123	-0.587942
C22	C	0.659142	-0.289733	-0.472779
C23	C	0.753046	-0.293041	-0.478191
C24	C	0.796688	-0.329891	-0.538481
C25	C	0.890595	-0.333196	-0.543896
C26	C	0.897207	-0.262808	-0.428730
C27	C	0.803302	-0.259500	-0.423318
C28	C	1.274473	-0.447815	-0.508263
C29	C	1.274499	-0.505930	-0.508247
C30	C	1.220368	-0.862458	-0.447305
C31	C	1.220374	-0.917062	-0.447289
O32	O	1.174298	-0.942039	-0.395571
N33	N	1.274537	-0.948209	-0.508107
C34	C	1.328692	-0.924750	-0.568952
O35	O	1.374763	-0.956257	-0.620681
C36	C	1.328681	-0.870147	-0.568971
C37	C	1.274520	-0.839002	-0.508143
C38	C	1.166211	-0.831313	-0.386482
C39	C	1.166206	-0.776713	-0.386497
C40	C	1.220359	-0.753257	-0.447335
C41	C	1.274516	-0.784402	-0.508158
C42	C	1.382830	-0.846688	-0.629819
C43	C	1.382814	-0.792081	-0.629834
C44	C	1.328653	-0.760936	-0.569005
C45	C	1.328664	-0.706346	-0.569011
N46	N	1.274500	-0.675198	-0.508193
C47	C	1.220348	-0.698654	-0.447355
C48	C	1.328710	-1.039419	-0.568907
C49	C	1.328727	-1.094022	-0.568884
C50	C	1.220407	-1.086330	-0.447222
C51	C	1.220396	-1.031727	-0.447242
C52	C	1.274547	-1.008272	-0.508089
C53	C	1.220343	-0.583990	-0.447391
C54	C	1.220347	-0.529386	-0.447409
C55	C	1.328663	-0.537082	-0.569073
C56	C	1.328664	-0.591682	-0.569052
C57	C	1.274497	-0.615134	-0.508208
O58	O	1.374714	-0.681332	-0.620705
O59	O	1.174276	-0.667141	-0.395642
C60	C	1.508938	-0.319739	-0.521874
C61	C	1.608879	-0.323275	-0.527658
C62	C	1.260847	-0.318780	-0.741911
C63	C	1.255126	-0.321940	-0.841855
C64	C	1.274408	-0.175598	-0.508276
C65	C	1.274570	-0.117482	-0.508049
C66	C	1.359469	-0.265130	-1.036282
C67	C	1.354097	-0.268097	-1.130188
C68	C	1.239013	-0.330844	-1.123578
C69	C	1.244386	-0.327877	-1.029671
C70	C	1.304615	-0.295018	-0.986026
C71	C	1.309982	-0.292048	-0.892117
C72	C	1.194904	-0.354798	-0.885508
C73	C	1.189531	-0.357765	-0.979415
C74	C	1.288056	-0.304087	-0.273779
C75	C	1.293870	-0.300953	-0.173840
H76	H	0.938135	-0.235496	-0.384050
H77	H	0.623592	-0.259735	-0.423689
H78	H	1.140497	-0.384519	-1.014964
H79	H	0.767756	-0.229499	-0.374230
Br80	Br	1.146890	-0.989465	-0.364686
Br81	Br	0.805665	-0.413433	-0.675185
Br82	Br	1.456332	-0.888942	-0.712383
H83	H	1.408504	-0.238371	-1.000745
Br84	Br	1.146842	-0.487121	-0.364847
H85	H	0.611613	-0.387437	-0.632623
H86	H	1.176236	-0.603078	-0.397844
Br87	Br	1.428550	-0.227536	-1.198391
H88	H	0.926126	-0.363200	-0.592989
H89	H	1.122099	-0.751360	-0.336968
H90	H	1.359021	-0.265291	-0.856583
Br91	Br	1.092693	-0.863135	-0.303918
H92	H	1.176312	-1.105437	-0.397685
H93	H	1.189983	-0.357600	-1.159130
Br94	Br	1.120438	-0.395353	-0.817299
H95	H	1.372841	-1.119375	-0.618407
H96	H	1.372818	-1.020327	-0.618451
Br97	Br	1.402187	-0.633951	-0.651588
Br98	Br	1.456304	-0.760253	-0.712421
Br99	Br	1.402159	-0.505238	-0.651629
