data_functionalizedCrystal
_audit_creation_method	'MofGen! by Chris Wilmer'
_symmetry_space_group_name_H-M	'P1'
_symmetry_Int_Tables_number	1
_symmetry_cell_setting	triclinic
loop_
_symmetry_equiv_pos_as_xyz
  x,y,z
_cell_length_a	10.268362
_cell_length_b	14.853567
_cell_length_c	14.853567
_cell_angle_alpha	96.365070
_cell_angle_beta	89.997551
_cell_angle_gamma	89.998356
loop_
_atom_site_label
_atom_site_type_symbol
_atom_site_fract_x
_atom_site_fract_y
_atom_site_fract_z
O1	O	0.108199	-1.196365	0.117700
O2	O	0.108220	-0.933906	0.131721
O3	O	0.108213	-1.072146	-0.006519
O4	O	0.108206	-1.058125	0.255940
O5	O	-0.108388	-1.072133	-0.006515
O6	O	-0.108380	-0.933893	0.131726
O7	O	-0.108401	-1.196352	0.117704
Cu8	Cu	-0.128168	-1.065121	0.124716
Cu9	Cu	0.127987	-1.065137	0.124710
O10	O	-0.108394	-1.058112	0.255945
C11	C	-0.000077	-0.900311	0.131088
C12	C	-0.000069	-0.800227	0.129184
N13	N	-0.308334	-1.065117	0.124719
C14	C	-0.426177	-1.065123	0.124719
C15	C	-0.574014	-1.065135	0.124711
C16	C	-0.000083	-1.071504	-0.040106
C17	C	-0.000072	-1.069601	-0.140189
N18	N	0.308153	-1.065148	0.124699
C19	C	-0.000101	-1.229947	0.118337
C20	C	-0.000101	-1.330031	0.120241
C21	C	-0.000096	-0.387693	0.039019
C22	C	-0.000099	-0.366412	0.203251
C23	C	-0.000094	-0.460446	0.205042
C24	C	-0.000089	-0.518108	0.123819
C25	C	-0.000088	-0.481736	0.040806
C26	C	-0.000083	-0.496825	0.288053
C27	C	-0.000077	-0.590864	0.289846
C28	C	-0.000081	-0.648528	0.208623
C29	C	-0.000081	-0.612150	0.125607
C30	C	-0.000075	-0.669812	0.044384
C31	C	-0.000085	-0.633437	-0.038633
C32	C	-0.000091	-0.539399	-0.040417
C33	C	-0.000074	-0.742565	0.210407
C34	C	-0.000067	-0.763855	0.046172
C35	C	-0.000090	-0.979435	-0.552723
C36	C	-0.000103	-1.143668	-0.574004
C37	C	-0.000095	-1.145458	-0.479971
C38	C	-0.000087	-1.064235	-0.422309
C39	C	-0.000086	-0.981223	-0.458680
C40	C	-0.000109	-1.228469	-0.443591
C41	C	-0.000103	-1.230262	-0.349552
C42	C	-0.000085	-1.149039	-0.291889
C43	C	-0.000083	-1.066023	-0.328266
C44	C	-0.000075	-0.984800	-0.270604
C45	C	-0.000063	-0.901783	-0.306979
C46	C	-0.000068	-0.899999	-0.401017
C47	C	-0.000080	-1.150823	-0.197851
C48	C	-0.000071	-0.986588	-0.176561
C49	C	-0.000095	-1.058754	0.289531
C50	C	-0.000098	-1.060657	0.389615
H51	H	-0.000068	-0.810798	-0.019971
F52	F	-0.000070	-0.435454	0.374489
H53	H	-0.000059	-0.920445	-0.129618
H54	H	-0.000120	-1.209795	-0.620958
H55	H	-0.000092	-0.319459	0.269379
H56	H	-0.000075	-0.911844	-0.582344
F57	F	-0.000112	-0.348980	-0.049330
H58	H	-0.000128	-1.294596	-0.490546
H59	H	-0.000071	-0.680397	-0.104764
F60	F	-0.000099	-1.318615	-0.310847
F61	F	-0.000065	-0.815343	-0.245601
H62	H	-0.000069	-0.620472	0.357443
F63	F	-0.000096	-0.500679	-0.128762
H64	H	-0.000098	-1.218414	-0.168238
F65	F	-0.000052	-0.811654	-0.439737
H66	H	-0.000069	-0.772178	0.277998
