data_functionalizedCrystal
_audit_creation_method	'MofGen! by Chris Wilmer'
_symmetry_space_group_name_H-M	'P1'
_symmetry_Int_Tables_number	1
_symmetry_cell_setting	triclinic
loop_
_symmetry_equiv_pos_as_xyz
  x,y,z
_cell_length_a	23.532407
_cell_length_b	14.853567
_cell_length_c	13.930277
_cell_angle_alpha	90.004245
_cell_angle_beta	89.990782
_cell_angle_gamma	96.758196
loop_
_atom_site_label
_atom_site_type_symbol
_atom_site_fract_x
_atom_site_fract_y
_atom_site_fract_z
O1	O	0.074353	-1.195555	-0.079775
O2	O	0.083210	-0.932999	-0.079793
O3	O	-0.004116	-1.072194	-0.079766
O4	O	0.161678	-1.056360	-0.079802
O5	O	-0.004118	-1.072175	0.079896
O6	O	0.083208	-0.932980	0.079869
O7	O	0.074351	-1.195536	0.079887
Zn8	Zn	0.078779	-1.064255	0.105228
Zn9	Zn	0.078782	-1.064280	-0.105133
O10	O	0.161677	-1.056340	0.079860
C11	C	0.082808	-0.899405	0.000036
C12	C	0.081605	-0.799334	0.000030
C13	C	-0.025335	-1.071782	0.000068
C14	C	-0.088557	-1.070569	0.000075
N15	N	0.078777	-1.064244	0.248794
C16	C	-0.487334	-1.145338	0.000027
C17	C	-0.546739	-1.144212	0.000020
O18	O	-0.583181	-1.213524	-0.000011
N19	N	-0.569726	-1.061460	0.000015
C20	C	-0.533305	-0.979829	0.000008
O21	O	-0.558312	-0.909339	0.000002
C22	C	-0.473901	-0.980957	0.000008
C23	C	-0.450917	-1.063714	0.000023
C24	C	-0.464349	-1.228089	0.000041
C25	C	-0.404948	-1.229214	0.000050
C26	C	-0.368531	-1.147590	0.000046
C27	C	-0.391516	-1.064839	0.000032
C28	C	-0.437481	-0.899327	-0.000006
C29	C	-0.378073	-0.900461	-0.000006
C30	C	-0.355089	-0.983218	0.000009
C31	C	-0.295698	-0.984341	0.000037
N32	N	-0.272711	-1.067092	0.000042
C33	C	-0.309128	-1.148717	0.000046
C34	C	-0.658058	-0.977469	0.000005
C35	C	-0.717461	-0.976340	0.000012
C36	C	-0.730890	-1.140723	0.000022
C37	C	-0.671486	-1.141851	0.000022
C38	C	-0.635070	-1.060220	0.000010
C39	C	-0.184380	-1.151075	0.000066
C40	C	-0.124974	-1.152194	0.000079
C41	C	-0.111549	-0.987811	0.000064
C42	C	-0.170951	-0.986692	0.000056
C43	C	-0.207365	-1.068331	0.000054
O44	O	-0.259221	-0.915065	0.000064
O45	O	-0.284112	-1.219196	0.000039
C46	C	0.182895	-1.056753	0.000025
C47	C	0.246118	-1.057966	0.000011
C48	C	0.074753	-1.229130	0.000056
C49	C	0.075956	-1.329200	0.000056
C50	C	0.024648	-0.387423	0.000064
C51	C	0.128393	-0.365008	0.000041
C52	C	0.129524	-0.459029	0.000037
C53	C	0.078216	-0.517252	0.000046
C54	C	0.025777	-0.481454	0.000058
C55	C	0.181961	-0.494835	0.000016
C56	C	0.183094	-0.588861	0.000011
C57	C	0.131786	-0.647086	0.000027
C58	C	0.079345	-0.611283	0.000040
C59	C	0.028037	-0.669506	0.000049
C60	C	-0.024404	-0.633704	0.000069
C61	C	-0.025531	-0.539679	0.000074
C62	C	0.132913	-0.741111	0.000022
C63	C	0.029166	-0.763536	0.000042
N64	N	0.078779	-1.064298	-0.248700
C65	C	0.117434	-1.002642	0.701051
C66	C	0.040125	-1.125943	0.701045
C67	C	0.040123	-1.125932	0.600549
C68	C	0.078778	-1.064276	0.550300
C69	C	0.117435	-1.002631	0.600546
C70	C	0.001470	-1.187582	0.550295
C71	C	0.001467	-1.187575	0.449793
C72	C	0.040120	-1.125914	0.399542
C73	C	0.078778	-1.064266	0.449795
C74	C	0.117433	-1.002610	0.399546
C75	C	0.156089	-0.940956	0.449797
C76	C	0.156088	-0.940970	0.550295
C77	C	0.040122	-1.125900	0.299043
C78	C	0.117434	-1.002599	0.299041
H79	H	-0.106264	-1.219587	0.000094
H80	H	-0.066179	-0.681121	0.000069
F81	F	0.238906	-0.626956	-0.000008
F82	F	0.188721	-0.779211	-0.000007
F83	F	0.197231	-0.875345	0.396307
H84	H	0.148910	-0.952388	0.258134
H85	H	0.008652	-1.176101	0.258133
F86	F	-0.039673	-1.253188	0.396319
H87	H	-0.068226	-0.510520	0.000113
H88	H	-0.214023	-1.217554	0.000061
F89	F	0.182995	-0.303041	0.000020
F90	F	0.197226	-0.875361	0.603779
F91	F	-0.380495	-1.317296	0.000045
F92	F	0.158571	-0.937026	0.754530
F93	F	-0.025444	-0.825495	0.000059
H94	H	-0.018049	-0.358269	0.000084
F95	F	-0.001010	-1.191564	0.754523
F96	F	-0.619305	-0.890580	0.000001
H97	H	-0.348425	-0.833986	-0.000017
F98	F	-0.039664	-1.253203	0.603773
F99	F	-0.503099	-1.314973	0.000045
F100	F	0.236563	-0.432866	-0.000008
F101	F	-0.195413	-0.898614	0.000058
H102	H	-0.652777	-1.209239	0.000034
F103	F	-0.769658	-1.227596	0.000022
H104	H	-0.081888	-0.921355	0.000064
F105	F	-0.741915	-0.888259	0.000013
H106	H	-0.456183	-0.831937	-0.000023
