data_functionalizedCrystal
_audit_creation_method	'MofGen! by Chris Wilmer'
_symmetry_space_group_name_H-M	'P1'
_symmetry_Int_Tables_number	1
_symmetry_cell_setting	triclinic
loop_
_symmetry_equiv_pos_as_xyz
  x,y,z
_cell_length_a	12.759401
_cell_length_b	16.120484
_cell_length_c	12.759401
_cell_angle_alpha	87.116031
_cell_angle_beta	90.003890
_cell_angle_gamma	92.925678
loop_
_atom_site_label
_atom_site_type_symbol
_atom_site_fract_x
_atom_site_fract_y
_atom_site_fract_z
Zn1	Zn	1.584803	-0.332037	0.615158
Zn2	Zn	2.084803	0.167963	1.115158
Zn3	Zn	1.575800	-0.471424	0.448368
Zn4	Zn	2.075800	0.028576	0.948368
Zn5	Zn	1.409150	-0.332027	0.439497
Zn6	Zn	1.909150	0.167973	0.939497
Zn7	Zn	1.400152	-0.471413	0.624008
Zn8	Zn	1.900152	0.028587	1.124008
O9	O	1.492476	-0.401725	0.531758
O10	O	1.992476	0.098275	1.031758
O11	O	1.730629	-0.350535	0.593042
O12	O	2.230629	0.149465	1.093042
O13	O	1.553692	-0.452933	0.300170
O14	O	2.053692	0.047067	0.800170
O15	O	1.439984	-0.215361	0.455382
O16	O	1.939984	0.284639	0.955382
O17	O	1.724015	-0.452942	0.470502
O18	O	2.224015	0.047058	0.970502
O19	O	1.569035	-0.215368	0.584440
O20	O	2.069035	0.284632	1.084440
O21	O	1.431255	-0.350519	0.293653
O22	O	1.931255	0.149481	0.793653
O23	O	1.260936	-0.350509	0.463964
O24	O	1.760936	0.149491	0.963964
O25	O	1.424648	-0.452924	0.769855
O26	O	1.924648	0.047076	1.269855
O27	O	1.254325	-0.452915	0.599524
O28	O	1.754325	0.047085	1.099524
O29	O	1.560310	-0.350525	0.763353
O30	O	2.060310	0.149475	1.263353
O31	O	1.544967	-0.588090	0.479083
O32	O	2.044967	-0.088090	0.979083
O33	O	1.415919	-0.588082	0.608126
O34	O	1.915919	-0.088082	1.108126
C35	C	1.219510	-0.401710	0.531742
C36	C	1.719510	0.098290	1.031742
C37	C	1.102732	-0.401724	0.531762
C38	C	1.602732	0.098276	1.031762
C39	C	0.934718	-0.455141	0.602255
C40	C	1.434718	0.044859	1.102255
C41	C	1.044443	-0.455131	0.602244
C42	C	1.544443	0.044869	1.102244
C43	C	1.051291	-0.348329	0.461280
C44	C	1.551291	0.151671	0.961280
C45	C	0.941568	-0.348343	0.461287
C46	C	1.441568	0.151657	0.961287
C47	C	1.478518	-0.618337	0.545551
C48	C	1.978518	-0.118337	1.045551
C49	C	1.472642	-0.711004	0.551486
C50	C	1.972642	-0.211004	1.051486
C51	C	1.461922	-0.880668	0.562345
C52	C	1.961922	-0.380668	1.062345
C53	C	1.523219	-0.921942	0.501188
C54	C	2.023219	-0.421942	1.001188
C55	C	1.517254	-1.016349	0.507230
C56	C	2.017254	-0.516349	1.007230
C57	C	1.467885	-0.786253	0.556304
C58	C	1.967885	-0.286253	1.056304
C59	C	1.766508	-0.401741	0.531774
C60	C	2.266508	0.098259	1.031774
C61	C	1.883285	-0.401748	0.531781
C62	C	2.383285	0.098252	1.031781
C63	C	1.492480	-0.401724	0.805791
C64	C	1.992480	0.098276	1.305791
C65	C	1.492481	-0.401724	0.922568
C66	C	1.992481	0.098276	1.422568
C67	C	1.506518	-0.184268	0.517934
C68	C	2.006518	0.315732	1.017934
C69	C	1.512501	-0.091601	0.512043
C70	C	2.012501	0.408399	1.012043
C71	C	1.563103	-0.348413	1.083777
C72	C	2.063103	0.151587	1.583777
C73	C	1.563112	-0.348413	0.974053
C74	C	2.063112	0.151587	1.474053
C75	C	1.421844	-0.455044	0.980812
C76	C	1.921844	0.044956	1.480812
C77	C	1.421841	-0.455048	1.090535
C78	C	1.921841	0.044952	1.590535
C79	C	1.492465	-0.401741	1.258791
C80	C	1.992465	0.098259	1.758791
C81	C	1.492469	-0.401728	1.142014
C82	C	1.992469	0.098272	1.642014
H83	H	0.887267	-0.498627	0.659656
H84	H	1.387267	0.001373	1.159656
H85	H	1.580176	-0.886376	0.444292
H86	H	2.080176	-0.386376	0.944292
H87	H	1.364321	-0.498467	1.137953
H88	H	1.864321	0.001533	1.637953
H89	H	1.364340	-0.498454	0.938885
H90	H	1.864340	0.001546	1.438885
H91	H	1.620630	-0.305000	0.926641
H92	H	2.120630	0.195000	1.426641
H93	H	0.899690	-0.304862	0.403893
H94	H	1.399690	0.195138	0.903893
H95	H	1.404967	-0.916232	0.619235
H96	H	1.904967	-0.416232	1.119235
H97	H	1.098759	-0.304847	0.403888
H98	H	1.598759	0.195153	0.903888
H99	H	1.086315	-0.498610	0.659630
H100	H	1.586315	0.001390	1.159630
H101	H	1.620612	-0.304996	1.125688
H102	H	2.120612	0.195004	1.625688
