data_functionalizedCrystal
_audit_creation_method	'MofGen! by Chris Wilmer'
_symmetry_space_group_name_H-M	'P1'
_symmetry_Int_Tables_number	1
_symmetry_cell_setting	triclinic
loop_
_symmetry_equiv_pos_as_xyz
  x,y,z
_cell_length_a	34.408637
_cell_length_b	34.407814
_cell_length_c	34.404193
_cell_angle_alpha	60.004510
_cell_angle_beta	60.009006
_cell_angle_gamma	59.994604
loop_
_atom_site_label
_atom_site_type_symbol
_atom_site_fract_x
_atom_site_fract_y
_atom_site_fract_z
O1	O	0.053973	-0.567860	0.474801
O2	O	0.553973	-0.067860	0.974801
O3	O	0.020377	-0.442124	0.382567
O4	O	0.520377	0.057876	0.882567
O5	O	0.100004	-0.521670	0.382483
O6	O	0.600004	-0.021670	0.882483
O7	O	-0.025653	-0.488314	0.474886
O8	O	0.474347	0.011686	0.974886
O9	O	0.126426	-0.495253	0.408816
O10	O	0.626426	0.004747	0.908816
O11	O	0.046800	-0.415707	0.408900
O12	O	0.546800	0.084293	0.908900
O13	O	0.080396	-0.541443	0.501134
O14	O	0.580396	-0.041443	1.001134
Zn15	Zn	0.067793	-0.474381	0.459198
Zn16	Zn	0.567793	0.025619	0.959198
Zn17	Zn	0.032980	-0.509186	0.424503
Zn18	Zn	0.532980	-0.009186	0.924503
O19	O	0.000769	-0.461897	0.501219
O20	O	0.500769	0.038103	1.001219
N21	N	0.091552	-0.450631	0.482879
N22	N	0.591552	0.049369	0.982879
N23	N	0.009225	-0.532940	0.400823
N24	N	0.509225	-0.032940	0.900823
C25	C	0.142848	-0.268847	0.534081
C26	C	0.642848	0.231153	1.034081
C27	C	0.142979	-0.399386	0.664559
C28	C	0.642979	0.100614	1.164559
C29	C	0.142862	-0.399365	0.534081
C30	C	0.642862	0.100635	1.034081
C31	C	0.273409	-0.399338	0.533986
C32	C	0.773409	0.100662	1.033986
C33	C	0.157225	-0.311914	0.548422
C34	C	0.657225	0.188086	1.048422
C35	C	0.157300	-0.385019	0.621491
C36	C	0.657300	0.114981	1.121491
C37	C	0.230339	-0.384991	0.548370
C38	C	0.730339	0.115009	1.048370
C39	C	0.157235	-0.385007	0.548422
C40	C	0.657235	0.114993	1.048422
C41	C	0.124548	-0.214028	0.515827
C42	C	0.624548	0.285972	1.015827
C43	C	0.124571	-0.417639	0.515827
C44	C	0.624571	0.082361	1.015827
C45	C	0.175526	-0.366733	0.566676
C46	C	0.675526	0.133267	1.066676
C47	C	0.353121	-0.385580	0.491988
C48	C	0.853121	0.114420	0.991988
C49	C	0.402952	-0.402180	0.475348
C50	C	0.902952	0.097820	0.975348
C51	C	0.402981	-0.482812	0.506096
C52	C	0.902981	0.017188	1.006096
C53	C	0.353151	-0.466211	0.522737
C54	C	0.853151	0.033789	1.022737
C55	C	0.136544	-0.189099	0.466839
C56	C	0.636544	0.310901	0.966839
C57	C	0.119905	-0.139265	0.450247
C58	C	0.619905	0.360735	0.950247
C59	C	0.079280	-0.139291	0.531632
C60	C	0.579280	0.360709	1.031632
C61	C	0.095918	-0.189125	0.548224
C62	C	0.595918	0.310875	1.048224
C63	C	0.075577	-0.405615	0.527900
C64	C	0.575577	0.094385	1.027900
C65	C	0.058953	-0.422228	0.511301
C66	C	0.558953	0.077772	1.011301
C67	C	0.140315	-0.462889	0.470566
C68	C	0.640315	0.037111	0.970566
C69	C	0.156941	-0.446276	0.487159
C70	C	0.656941	0.053724	0.987159
C71	C	0.075772	-0.405653	0.744326
C72	C	0.575772	0.094347	1.244326
C73	C	0.059206	-0.422280	0.794159
C74	C	0.559206	0.077720	1.294159
C75	C	0.140607	-0.462951	0.794094
C76	C	0.640607	0.037049	1.294094
C77	C	0.157172	-0.446325	0.744260
C78	C	0.657172	0.053675	1.244260
C79	C	0.124753	-0.417674	0.719377
C80	C	0.624753	0.082326	1.219377
C81	C	0.328223	-0.417595	0.515681
C82	C	0.828223	0.082405	1.015681
C83	C	-0.172390	-0.583988	0.349141
C84	C	0.327610	-0.083988	0.849141
C85	C	-0.041751	-0.584138	0.218783
C86	C	0.458249	-0.084138	0.718783
C87	C	-0.041941	-0.584130	0.349402
C88	C	0.458059	-0.084130	0.849402
C89	C	-0.041957	-0.714607	0.349338
C90	C	0.458043	-0.214607	0.849338
C91	C	-0.129326	-0.598388	0.334853
C92	C	0.370674	-0.098388	0.834853
C93	C	-0.056165	-0.598473	0.261852
C94	C	0.443835	-0.098473	0.761852
C95	C	-0.056282	-0.671535	0.334962
C96	C	0.443718	-0.171535	0.834962
C97	C	-0.056272	-0.598469	0.334999
C98	C	0.443728	-0.098469	0.834999
C99	C	-0.227205	-0.565659	0.367327
C100	C	0.272795	-0.065659	0.867327
C101	C	-0.023703	-0.565882	0.367734
C102	C	0.476297	-0.065882	0.867734
C103	C	-0.074511	-0.616717	0.316667
C104	C	0.425489	-0.116717	0.816667
C105	C	-0.055754	-0.794298	0.391257
C106	C	0.444246	-0.294298	0.891257
C107	C	-0.039181	-0.844132	0.407888
C108	C	0.460819	-0.344132	0.907888
C109	C	0.041447	-0.844215	0.377269
C110	C	0.541447	-0.344215	0.877269
C111	C	0.024873	-0.794381	0.360637
C112	C	0.524873	-0.294381	0.860637
C113	C	-0.252183	-0.577666	0.416302
C114	C	0.247817	-0.077666	0.916302
C115	C	-0.302014	-0.561001	0.432833
C116	C	0.197986	-0.061001	0.932833
C117	C	-0.301886	-0.520329	0.351410
C118	C	0.198114	-0.020329	0.851410
C119	C	-0.252055	-0.536994	0.334880
C120	C	0.247945	-0.036994	0.834880
C121	C	-0.035709	-0.516892	0.355682
C122	C	0.464291	-0.016892	0.855682
C123	C	-0.019129	-0.500308	0.372353
C124	C	0.480871	-0.000308	0.872353
C125	C	0.021465	-0.581700	0.413115
C126	C	0.521465	-0.081700	0.913115
C127	C	0.004884	-0.598286	0.396450
C128	C	0.504884	-0.098286	0.896450
C129	C	-0.035389	-0.516907	0.139026
C130	C	0.464611	-0.016907	0.639026
C131	C	-0.018707	-0.500324	0.089193
C132	C	0.481293	-0.000324	0.589193
C133	C	0.021949	-0.581721	0.089240
C134	C	0.521949	-0.081721	0.589240
C135	C	0.005268	-0.598303	0.139074
C136	C	0.505268	-0.098303	0.639074
C137	C	-0.023402	-0.565894	0.163965
C138	C	0.476598	-0.065894	0.663965
C139	C	-0.023728	-0.769425	0.367633
C140	C	0.476272	-0.269425	0.867633
N141	N	0.427173	-0.450553	0.482630
N142	N	0.927173	0.049447	0.982630
O143	O	0.589997	-0.458460	0.365361
O144	O	1.089997	0.041540	0.865361
O145	O	0.590185	-0.550997	0.490963
O146	O	1.090185	-0.050997	0.990963
O147	O	0.590104	-0.550786	0.411309
O148	O	1.090104	-0.050786	0.911309
O149	O	0.590077	-0.458671	0.445016
O150	O	1.090077	0.041329	0.945016
O151	O	0.510940	-0.524462	0.437777
O152	O	1.010940	-0.024462	0.937777
O153	O	0.511020	-0.524674	0.517432
O154	O	1.011020	-0.024674	1.017432
O155	O	0.510832	-0.432136	0.391830
O156	O	1.010832	0.067864	0.891830
Zn157	Zn	0.498357	-0.474225	0.458833
Zn158	Zn	0.998357	0.025775	0.958833
Zn159	Zn	0.602660	-0.508908	0.423960
Zn160	Zn	1.102660	-0.008908	0.923960
O161	O	0.510913	-0.432348	0.471484
O162	O	1.010913	0.067652	0.971484
N163	N	0.673844	-0.532580	0.400158
N164	N	1.173844	-0.032580	0.900158
N165	N	0.091520	-0.115070	0.482873
N166	N	0.591520	0.384930	0.982873
O167	O	-0.025663	0.047841	0.474857
O168	O	0.474337	0.547841	0.974857
O169	O	0.099940	0.047877	0.382299
O170	O	0.599940	0.547877	0.882299
O171	O	0.020247	0.047844	0.382560
O172	O	0.520247	0.547844	0.882560
O173	O	0.054030	0.047874	0.474596
O174	O	0.554030	0.547874	0.974596
O175	O	0.046674	-0.031326	0.408942
O176	O	0.546674	0.468674	0.908942
O177	O	0.126367	-0.031293	0.408680
O178	O	0.626367	0.468707	0.908680
O179	O	0.000764	-0.031329	0.501238
O180	O	0.500764	0.468671	1.001238
Zn181	Zn	0.067761	-0.043881	0.459148
Zn182	Zn	0.567761	0.456119	0.959148
Zn183	Zn	0.032943	0.060429	0.424389
Zn184	Zn	0.532943	0.560429	0.924389
O185	O	0.080457	-0.031296	0.500977
O186	O	0.580457	0.468704	1.000977
N187	N	0.009178	0.131618	0.400665
N188	N	0.509178	0.631618	0.900665
N189	N	0.091852	-0.450680	0.818332
N190	N	0.591852	0.049320	1.318332
O191	O	0.083862	-0.567845	0.981235
O192	O	0.583862	-0.067845	1.481235
O193	O	-0.008657	-0.442198	0.981276
O194	O	0.491343	0.057802	1.481276
O195	O	-0.008441	-0.521875	0.981252
O196	O	0.491559	-0.021875	1.481252
O197	O	0.083646	-0.488168	0.981258
O198	O	0.583646	0.011832	1.481258
O199	O	0.017919	-0.495468	0.902085
O200	O	0.517919	0.004532	1.402085
O201	O	0.017703	-0.415791	0.902109
O202	O	0.517703	0.084209	1.402109
O203	O	0.110222	-0.541438	0.902067
O204	O	0.610222	-0.041438	1.402067
Zn205	Zn	0.068148	-0.474422	0.889518
Zn206	Zn	0.568148	0.025578	1.389518
Zn207	Zn	0.033417	-0.509214	0.993825
Zn208	Zn	0.533417	-0.009214	1.493825
O209	O	0.110006	-0.461761	0.902091
O210	O	0.610006	0.038239	1.402091
N211	N	0.009712	-0.532961	1.065011
N212	N	0.509712	-0.032961	1.565011
C213	C	0.030439	-0.413071	0.383027
C214	C	0.530439	0.086929	0.883027
C215	C	0.129046	-0.511580	0.382922
C216	C	0.629046	-0.011580	0.882922
C217	C	0.070334	-0.570496	0.500675
C218	C	0.570334	-0.070496	1.000675
C219	C	-0.028274	-0.471987	0.500780
C220	C	0.471726	0.028013	1.000780
C221	C	0.550625	-0.550579	0.520021
C222	C	1.050625	-0.050579	1.020021
C223	C	0.550527	-0.550317	0.421379
C224	C	1.050527	-0.050317	0.921379
C225	C	0.550389	-0.432554	0.362773
C226	C	1.050389	0.067446	0.862773
C227	C	0.550491	-0.432816	0.461414
C228	C	1.050491	0.067184	0.961414
C229	C	0.128944	0.008394	0.382712
C230	C	0.628944	0.508394	0.882712
C231	C	0.030287	0.008256	0.383068
C232	C	0.530287	0.508256	0.883068
C233	C	-0.028273	0.008252	0.500793
C234	C	0.471727	0.508252	1.000793
C235	C	0.070417	0.008292	0.500470
C236	C	0.570417	0.508292	1.000470
C237	C	-0.008218	-0.413165	0.941698
C238	C	0.491782	0.086835	1.441698
C239	C	-0.007945	-0.511830	0.941653
C240	C	0.492055	-0.011830	1.441653
C241	C	0.109783	-0.570471	0.941646
C242	C	0.609783	-0.070471	1.441646
C243	C	0.109516	-0.471800	0.941673
C244	C	0.609516	0.028200	1.441673
H245	H	0.049370	-0.382321	0.724071
H246	H	0.549370	0.117679	1.224071
H247	H	0.023050	0.008252	0.354152
H248	H	0.523050	0.508252	0.854152
C249	C	0.550695	-0.589828	0.568753
C250	C	1.050695	-0.089828	1.068753
C251	C	0.509624	-0.610349	0.599432
C252	C	1.009624	-0.110349	1.099432
C253	C	0.509694	-0.649598	0.648163
C254	C	1.009694	-0.149598	1.148163
C255	C	0.550835	-0.668326	0.666216
C256	C	1.050835	-0.168326	1.166216
C257	C	0.591909	-0.647804	0.635537
C258	C	1.091909	-0.147804	1.135537
C259	C	0.591839	-0.608555	0.586805
C260	C	1.091839	-0.108555	1.086805
H261	H	0.479167	-0.596486	0.586068
H262	H	0.979167	-0.096486	1.086068
H263	H	0.479288	-0.664789	0.670874
H264	H	0.979288	-0.164789	1.170874
H265	H	0.550887	-0.697380	0.702290
H266	H	1.050887	-0.197380	1.202290
H267	H	0.622367	-0.661667	0.648900
H268	H	1.122367	-0.161667	1.148900
H269	H	0.622245	-0.593364	0.564094
H270	H	1.122245	-0.093364	1.064094
C271	C	-0.077029	-0.462390	0.539980
C272	C	0.422971	0.037610	1.039980
C273	C	-0.086587	-0.501564	0.588763
C274	C	0.413413	-0.001564	1.088763
C275	C	-0.135342	-0.491967	0.627964
C276	C	0.364658	0.008033	1.127964
C277	C	-0.174539	-0.443196	0.618382
C278	C	0.325461	0.056804	1.118382
C279	C	-0.164981	-0.404020	0.569597
C280	C	0.335019	0.095980	1.069597
C281	C	-0.116226	-0.413617	0.530396
C282	C	0.383774	0.086383	1.030396
H283	H	-0.057571	-0.537669	0.595858
H284	H	0.442429	-0.037669	1.095858
H285	H	-0.142417	-0.520968	0.664078
H286	H	0.357583	-0.020968	1.164078
H287	H	-0.210630	-0.436092	0.647400
H288	H	0.289370	0.063908	1.147400
H289	H	-0.193998	-0.367914	0.562502
H290	H	0.306002	0.132086	1.062502
H291	H	-0.109151	-0.384615	0.494282
H292	H	0.390849	0.115385	0.994282
H293	H	-0.064344	0.008241	0.529850
H294	H	0.435656	0.508241	1.029850
H295	H	0.550540	-0.579254	0.414165
H296	H	1.050540	-0.079254	0.914165
H297	H	0.550485	-0.403881	0.468626
H298	H	1.050485	0.096119	0.968626
C299	C	0.550312	-0.393302	0.314043
C300	C	1.050312	0.106698	0.814043
C301	C	0.509163	-0.345440	0.310853
C302	C	1.009163	0.154560	0.810853
C303	C	0.509085	-0.306188	0.262124
C304	C	1.009085	0.193812	0.762124
C305	C	0.550157	-0.314799	0.216585
C306	C	1.050157	0.185201	0.716585
C307	C	0.591309	-0.362664	0.219775
C308	C	1.091309	0.137336	0.719775
C309	C	0.591386	-0.401916	0.268504
C310	C	1.091386	0.098084	0.768504
H311	H	0.478756	-0.339063	0.344564
H312	H	0.978756	0.160937	0.844564
H313	H	0.478621	-0.270755	0.259763
H314	H	0.978621	0.229245	0.759763
H315	H	0.550099	-0.285743	0.180513
H316	H	1.050099	0.214257	0.680513
H317	H	0.621715	-0.369040	0.186063
H318	H	1.121715	0.130960	0.686063
H319	H	0.621850	-0.437348	0.270864
H320	H	1.121850	0.062652	0.770864
H321	H	-0.036863	-0.519031	0.941619
H322	H	0.463137	-0.019031	1.441619
C323	C	0.080188	0.008299	0.539536
C324	C	0.580188	0.508299	1.039536
C325	C	0.129011	0.008316	0.529765
C326	C	0.629011	0.508316	1.029765
C327	C	0.138781	0.008324	0.568831
C328	C	0.638781	0.508324	1.068831
C329	C	0.099729	0.008315	0.617667
C330	C	0.599729	0.508315	1.117667
C331	C	0.050903	0.008298	0.627439
C332	C	0.550903	0.508298	1.127439
C333	C	0.041132	0.008290	0.588374
C334	C	0.541132	0.508290	1.088374
H335	H	0.157923	0.008323	0.493612
H336	H	0.657923	0.508323	0.993612
H337	H	0.174926	0.008337	0.561596
H338	H	0.674926	0.508337	1.061596
H339	H	0.106962	0.008321	0.646586
H340	H	0.606962	0.508321	1.146586
H341	H	0.021991	0.008291	0.663593
H342	H	0.521991	0.508291	1.163593
H343	H	0.004988	0.008278	0.595608
H344	H	0.504988	0.508278	1.095608
H345	H	0.196836	-0.456064	0.477324
H346	H	0.696836	0.043936	0.977324
C347	C	0.020744	-0.364278	0.343888
C348	C	0.520744	0.135722	0.843888
C349	C	0.059848	-0.354621	0.295074
C350	C	0.559848	0.145379	0.795074
C351	C	0.050154	-0.305827	0.255935
C352	C	0.550154	0.194173	0.755935
C353	C	0.001356	-0.266692	0.265610
C354	C	0.501356	0.233308	0.765610
C355	C	-0.037751	-0.276349	0.314427
C356	C	0.462249	0.223651	0.814427
C357	C	-0.028057	-0.325142	0.353565
C358	C	0.471943	0.174858	0.853565
H359	H	0.095975	-0.383592	0.287909
H360	H	0.595975	0.116408	0.787909
H361	H	0.079104	-0.298679	0.219798
H362	H	0.579104	0.201321	0.719798
H363	H	-0.005821	-0.230573	0.236638
H364	H	0.494179	0.269427	0.736638
H365	H	-0.073878	-0.247378	0.321591
H366	H	0.426122	0.252622	0.821591
H367	H	-0.057007	-0.332290	0.389703
H368	H	0.442993	0.167710	0.889703
C369	C	0.080027	-0.619290	0.539812
C370	C	0.580027	-0.119290	1.039812
C371	C	0.049177	-0.650033	0.560328
C372	C	0.549177	-0.150033	1.060328
C373	C	0.058871	-0.698827	0.599466
C374	C	0.558871	-0.198827	1.099466
C375	C	0.099414	-0.716878	0.618088
C376	C	0.599414	-0.216878	1.118088
C377	C	0.130266	-0.686135	0.597572
C378	C	0.630266	-0.186135	1.097572
C379	C	0.120573	-0.637341	0.558434
C380	C	0.620573	-0.137341	1.058434
H381	H	0.019163	-0.636671	0.546543
H382	H	0.519163	-0.136671	1.046543
H383	H	0.036032	-0.721585	0.614652
H384	H	0.536032	-0.221585	1.114652
H385	H	0.106589	-0.752999	0.647060
H386	H	0.606589	-0.252999	1.147060
H387	H	0.160280	-0.699497	0.611357
H388	H	0.660280	-0.199497	1.111357
H389	H	0.143412	-0.614582	0.543247
H390	H	0.643412	-0.114582	1.043247
H391	H	0.138447	-0.464586	0.941669
H392	H	0.638447	0.035414	1.441669
C393	C	0.177800	-0.521178	0.343720
C394	C	0.677800	-0.021178	0.843720
C395	C	0.216996	-0.569949	0.353301
C396	C	0.716996	-0.069949	0.853301
C397	C	0.265750	-0.579547	0.314100
C398	C	0.765750	-0.079547	0.814100
C399	C	0.275308	-0.540374	0.265316
C400	C	0.775308	-0.040374	0.765316
C401	C	0.236111	-0.491600	0.255733
C402	C	0.736111	0.008400	0.755733
C403	C	0.187357	-0.482002	0.294934
C404	C	0.687357	0.017998	0.794934
H405	H	0.209921	-0.598950	0.389416
H406	H	0.709921	-0.098950	0.889416
H407	H	0.294766	-0.615653	0.321194
H408	H	0.794766	-0.115653	0.821194
H409	H	0.311399	-0.547479	0.236297
H410	H	0.811399	-0.047479	0.736297
H411	H	0.243186	-0.462599	0.219618
H412	H	0.743186	0.037401	0.719618
H413	H	0.158341	-0.445896	0.287840
H414	H	0.658341	0.054104	0.787840
C415	C	0.094909	-0.871668	0.369575
C416	C	0.594909	-0.371668	0.869575
C417	C	0.122696	-0.905947	0.340897
C418	C	0.622696	-0.405947	0.840897
C419	C	0.176158	-0.933403	0.333204
C420	C	0.676158	-0.433403	0.833204
C421	C	0.201832	-0.926580	0.354191
C422	C	0.701832	-0.426580	0.854191
C423	C	0.174044	-0.892300	0.382871
C424	C	0.674044	-0.392300	0.882871
C425	C	0.120582	-0.864844	0.390564
C426	C	0.620582	-0.364844	0.890564
H427	H	0.103691	-0.910999	0.325359
H428	H	0.603691	-0.410999	0.825359
H429	H	0.196728	-0.958780	0.311973
H430	H	0.696728	-0.458780	0.811973
H431	H	0.241408	-0.946905	0.348496
H432	H	0.741408	-0.446905	0.848496
H433	H	0.193049	-0.887248	0.398409
H434	H	0.693049	-0.387248	0.898409
H435	H	0.100012	-0.839467	0.411795
H436	H	0.600012	-0.339467	0.911795
H437	H	0.164941	0.008624	0.353583
H438	H	0.664941	0.508624	0.853583
H439	H	-0.037264	-0.377079	0.941710
H440	H	0.462736	0.122921	1.441710
H441	H	0.138832	-0.606554	0.941627
H442	H	0.638832	-0.106554	1.441627
H443	H	0.167007	-0.486271	0.814352
H444	H	0.667007	0.013729	1.314352
C445	C	0.005324	-0.409046	0.821598
C446	C	0.505324	0.090954	1.321598
C447	C	-0.025976	-0.423544	0.814769
C448	C	0.474024	0.076456	1.314769
C449	C	-0.079859	-0.410312	0.842208
C450	C	0.420141	0.089688	1.342208
C451	C	-0.102442	-0.382583	0.876476
C452	C	0.397558	0.117417	1.376476
C453	C	-0.071141	-0.368084	0.883306
C454	C	0.428859	0.131916	1.383306
C455	C	-0.017259	-0.381316	0.855867
C456	C	0.482741	0.118684	1.355867
H457	H	-0.009260	-0.444072	0.789401
H458	H	0.490740	0.055928	1.289401
H459	H	-0.103029	-0.421045	0.837151
H460	H	0.396971	0.078955	1.337151
H461	H	-0.142329	-0.372788	0.896788
H462	H	0.357671	0.127212	1.396788
H463	H	-0.087858	-0.347555	0.908675
H464	H	0.412142	0.152445	1.408675
H465	H	0.005912	-0.370582	0.860924
H466	H	0.505912	0.129418	1.360924
C467	C	0.211055	-0.459548	0.716818
C468	C	0.711055	0.040452	1.216818
C469	C	0.242347	-0.445038	0.723644
C470	C	0.742347	0.054962	1.223644
C471	C	0.296229	-0.458261	0.696204
C472	C	0.796229	0.041739	1.196204
C473	C	0.318819	-0.485993	0.661937
C474	C	0.818819	0.014007	1.161937
C475	C	0.287527	-0.500504	0.655109
C476	C	0.787527	-0.000504	1.155109
C477	C	0.233645	-0.487281	0.682550
C478	C	0.733645	0.012719	1.182550
H479	H	0.225625	-0.424508	0.749012
H480	H	0.725625	0.075492	1.249012
H481	H	0.319394	-0.447519	0.701258
H482	H	0.819394	0.052481	1.201258
H483	H	0.358706	-0.495781	0.641623
H484	H	0.858706	0.004219	1.141623
H485	H	0.304249	-0.521034	0.629741
H486	H	0.804249	-0.021034	1.129741
H487	H	0.210480	-0.498024	0.677495
H488	H	0.710480	0.001976	1.177495
C489	C	0.039970	-0.374109	0.559428
C490	C	0.539970	0.125891	1.059428
C491	C	-0.013922	-0.360877	0.572698
C492	C	0.486078	0.139123	1.072698
C493	C	-0.049529	-0.329370	0.604226
C494	C	0.450471	0.170630	1.104226
C495	C	-0.031245	-0.311095	0.622483
C496	C	0.468755	0.188905	1.122483
C497	C	0.022650	-0.324327	0.609212
C498	C	0.522650	0.175673	1.109212
C499	C	0.058257	-0.355834	0.577684
C500	C	0.558257	0.144166	1.077684
H501	H	-0.027460	-0.374406	0.559183
H502	H	0.472540	0.125594	1.059183
H503	H	-0.089426	-0.319575	0.614049
H504	H	0.410574	0.180425	1.114049
H505	H	-0.057603	-0.287772	0.645821
H506	H	0.442397	0.212228	1.145821
H507	H	0.036188	-0.310799	0.622727
H508	H	0.536188	0.189201	1.122727
H509	H	0.098154	-0.365629	0.567861
H510	H	0.598154	0.134371	1.067861
H511	H	0.019058	-0.412426	0.521121
H512	H	0.519058	0.087574	1.021121
H513	H	0.332881	-0.492283	0.542031
H514	H	0.832881	0.007717	1.042031
C515	C	0.175925	-0.494393	0.439034
C516	C	0.675925	0.005607	0.939034
C517	C	0.211805	-0.542456	0.458071
C518	C	0.711805	-0.042456	0.958071
C519	C	0.247413	-0.573958	0.426538
C520	C	0.747413	-0.073958	0.926538
C521	C	0.247140	-0.557398	0.375970
C522	C	0.747140	-0.057398	0.875970
C523	C	0.211258	-0.509333	0.356930
C524	C	0.711258	-0.009333	0.856930
C525	C	0.175651	-0.477831	0.388462
C526	C	0.675651	0.022169	0.888462
H527	H	0.212009	-0.554717	0.495507
H528	H	0.712009	-0.054717	0.995507
H529	H	0.273975	-0.609539	0.440633
H530	H	0.773975	-0.109539	0.940633
H531	H	0.273498	-0.580718	0.352628
H532	H	0.773498	-0.080718	0.852628
H533	H	0.211055	-0.497072	0.319494
H534	H	0.711055	0.002928	0.819494
H535	H	0.149089	-0.442250	0.374368
H536	H	0.649089	0.057750	0.874368
H537	H	0.423275	-0.522397	0.511838
H538	H	0.923275	-0.022397	1.011838
C539	C	-0.074413	-0.871495	0.433882
C540	C	0.425587	-0.371495	0.933882
C541	C	-0.079407	-0.905733	0.485430
C542	C	0.420593	-0.405733	0.985430
C543	C	-0.114639	-0.933096	0.511429
C544	C	0.385361	-0.433096	1.011429
C545	C	-0.144877	-0.926221	0.485880
C546	C	0.355123	-0.426221	0.985880
C547	C	-0.139884	-0.891982	0.434329
C548	C	0.360116	-0.391982	0.934329
C549	C	-0.104652	-0.864619	0.408330
C550	C	0.395348	-0.364619	0.908330
H551	H	-0.057022	-0.910824	0.504346
H552	H	0.442978	-0.410824	1.004346
H553	H	-0.118335	-0.958442	0.549591
H554	H	0.381665	-0.458442	1.049591
H555	H	-0.170958	-0.946477	0.505126
H556	H	0.329042	-0.446477	1.005126
H557	H	-0.162269	-0.886891	0.415413
H558	H	0.337731	-0.386891	0.915413
H559	H	-0.100956	-0.839273	0.370168
H560	H	0.399044	-0.339273	0.870168
C561	C	0.430344	-0.366963	0.449282
C562	C	0.930344	0.133037	0.949282
C563	C	0.423516	-0.336679	0.474755
C564	C	0.923516	0.163321	0.974755
C565	C	0.450909	-0.301463	0.448685
C566	C	0.950909	0.198537	0.948685
C567	C	0.485129	-0.296530	0.397142
C568	C	0.985129	0.203470	0.897142
C569	C	0.491959	-0.326814	0.371665
C570	C	0.991959	0.173186	0.871665
C571	C	0.464566	-0.362030	0.397735
C572	C	0.964566	0.137970	0.897735
H573	H	0.398182	-0.340330	0.512914
H574	H	0.898182	0.159670	1.012914
H575	H	0.445853	-0.279044	0.467545
H576	H	0.945853	0.220956	0.967545
H577	H	0.505407	-0.270460	0.377843
H578	H	1.005407	0.229540	0.877843
H579	H	0.517293	-0.323163	0.333507
H580	H	1.017293	0.176837	0.833507
H581	H	0.469622	-0.384449	0.378875
H582	H	0.969622	0.115551	0.878875
C583	C	0.325698	-0.332101	0.484229
C584	C	0.825698	0.167899	0.984229
C585	C	0.332509	-0.295861	0.433382
C586	C	0.832509	0.204139	0.933382
C587	C	0.305088	-0.242383	0.425621
C588	C	0.805088	0.257617	0.925621
C589	C	0.270856	-0.225144	0.468707
C590	C	0.770856	0.274856	0.968707
C591	C	0.264043	-0.261384	0.519557
C592	C	0.764043	0.238616	1.019557
C593	C	0.291464	-0.314863	0.527319
C594	C	0.791464	0.185137	1.027319
H595	H	0.357851	-0.308622	0.401484
H596	H	0.857851	0.191378	0.901484
H597	H	0.310132	-0.215555	0.387977
H598	H	0.810132	0.284445	0.887977
H599	H	0.250557	-0.185556	0.462962
H600	H	0.750557	0.314444	0.962962
H601	H	0.238700	-0.248624	0.551456
H602	H	0.738700	0.251376	1.051456
H603	H	0.286420	-0.341690	0.564962
H604	H	0.786420	0.158310	1.064962
C605	C	0.168034	-0.216491	0.431201
C606	C	0.668034	0.283509	0.931201
C607	C	0.181222	-0.189070	0.377315
C608	C	0.681222	0.310930	0.877315
C609	C	0.212713	-0.216463	0.341678
C610	C	0.712713	0.283537	0.841678
C611	C	0.231016	-0.271279	0.359927
C612	C	0.731016	0.228721	0.859927
C613	C	0.217828	-0.298703	0.413817
C614	C	0.717828	0.201297	0.913817
C615	C	0.186337	-0.271310	0.449454
C616	C	0.686337	0.228690	0.949454
H617	H	0.167674	-0.148489	0.363803
H618	H	0.667674	0.351511	0.863803
H619	H	0.222476	-0.196162	0.301785
H620	H	0.722476	0.303838	0.801785
H621	H	0.254327	-0.291558	0.333547
H622	H	0.754327	0.208442	0.833547
H623	H	0.231377	-0.339284	0.427329
H624	H	0.731377	0.160716	0.927329
H625	H	0.176575	-0.291611	0.489346
H626	H	0.676575	0.208389	0.989346
C627	C	0.133100	-0.111838	0.396359
C628	C	0.633100	0.388162	0.896359
C629	C	0.185717	-0.118666	0.365045
C630	C	0.685717	0.381334	0.865045
C631	C	0.198911	-0.091241	0.311156
C632	C	0.698911	0.408759	0.811156
C633	C	0.159487	-0.056988	0.288581
C634	C	0.659487	0.443012	0.788581
C635	C	0.106867	-0.050158	0.319895
C636	C	0.606867	0.449842	0.819895
C637	C	0.093673	-0.077584	0.373784
C638	C	0.593673	0.422416	0.873784
H639	H	0.214903	-0.144024	0.381756
H640	H	0.714903	0.355976	0.881756
H641	H	0.237864	-0.096297	0.287976
H642	H	0.737864	0.403703	0.787976
H643	H	0.169254	-0.036686	0.248690
H644	H	0.669254	0.463314	0.748690
H645	H	0.077680	-0.024801	0.303184
H646	H	0.577680	0.475199	0.803184
H647	H	0.054719	-0.072528	0.396965
H648	H	0.554719	0.427472	0.896965
H649	H	0.086148	-0.209418	0.588113
H650	H	0.586148	0.290582	1.088113
C651	C	0.047790	-0.111896	0.567269
C652	C	0.547790	0.388104	1.067269
C653	C	0.066898	-0.118748	0.603092
C654	C	0.566898	0.381252	1.103092
C655	C	0.035407	-0.091355	0.638731
C656	C	0.535407	0.408645	1.138731
C657	C	-0.015191	-0.057111	0.638545
C658	C	0.484809	0.442889	1.138545
C659	C	-0.034301	-0.050257	0.602720
C660	C	0.465699	0.449743	1.102720
C661	C	-0.002811	-0.077650	0.567082
C662	C	0.497189	0.422350	1.067082
H663	H	0.104356	-0.144099	0.603231
H664	H	0.604356	0.355901	1.103231
H665	H	0.049554	-0.096429	0.665250
H666	H	0.549554	0.403571	1.165250
H667	H	-0.038502	-0.036833	0.664927
H668	H	0.461498	0.463167	1.164927
H669	H	-0.071760	-0.024906	0.602582
H670	H	0.428240	0.475094	1.102582
H671	H	-0.016958	-0.072577	0.540562
H672	H	0.483042	0.427423	1.040562
C673	C	-0.031903	-0.446435	0.061763
C674	C	0.468097	0.053565	0.561763
C675	C	0.007518	-0.423871	0.027568
C676	C	0.507518	0.076129	0.527568
C677	C	-0.005676	-0.369981	0.000138
C678	C	0.494324	0.130019	0.500138
C679	C	-0.058290	-0.338656	0.006904
C680	C	0.441710	0.161344	0.506904
C681	C	-0.097715	-0.361220	0.041101
C682	C	0.402285	0.138780	0.541101
C683	C	-0.084521	-0.415109	0.068530
C684	C	0.415479	0.084891	0.568530
H685	H	0.046470	-0.447060	0.022558
H686	H	0.546470	0.052940	0.522558
H687	H	0.023509	-0.353278	-0.025176
H688	H	0.523509	0.146722	0.474824
H689	H	-0.068057	-0.298764	-0.013401
H690	H	0.431943	0.201236	0.486599
H691	H	-0.136666	-0.338031	0.046111
H692	H	0.363334	0.161969	0.546111
H693	H	-0.113706	-0.431813	0.093845
H694	H	0.386294	0.068187	0.593845
C695	C	-0.066928	-0.481255	0.166404
C696	C	0.433072	0.018745	0.666404
C697	C	-0.080113	-0.427369	0.138969
C698	C	0.419887	0.072631	0.638969
C699	C	-0.111650	-0.391718	0.166347
C700	C	0.388350	0.108282	0.666347
C701	C	-0.130001	-0.409953	0.221161
C702	C	0.369999	0.090047	0.721161
C703	C	-0.116815	-0.463842	0.248598
C704	C	0.383185	0.036158	0.748598
C705	C	-0.085279	-0.499493	0.221220
C706	C	0.414721	0.000507	0.721220
H707	H	-0.066529	-0.413868	0.098390
H708	H	0.433471	0.086132	0.598390
H709	H	-0.121410	-0.351826	0.146036
H710	H	0.378590	0.148174	0.646036
H711	H	-0.153346	-0.383562	0.241428
H712	H	0.346654	0.116438	0.741428
H713	H	-0.130400	-0.477343	0.289177
H714	H	0.369600	0.022657	0.789177
H715	H	-0.075519	-0.539385	0.241531
H716	H	0.424481	-0.039385	0.741531
H717	H	0.045284	-0.608113	0.068976
H718	H	0.545284	-0.108113	0.568976
C719	C	0.018453	-0.652193	0.166507
C720	C	0.518453	-0.152193	0.666507
C721	C	0.049983	-0.687839	0.139126
C722	C	0.549983	-0.187839	0.639126
C723	C	0.063167	-0.741728	0.166557
C724	C	0.563167	-0.241728	0.666557
C725	C	0.044821	-0.759971	0.221370
C726	C	0.544821	-0.259971	0.721370
C727	C	0.013289	-0.724325	0.248755
C728	C	0.513289	-0.224325	0.748755
C729	C	0.000105	-0.670436	0.221323
C730	C	0.500105	-0.170436	0.721323
H731	H	0.063565	-0.674334	0.098547
H732	H	0.563565	-0.174334	0.598547
H733	H	0.086509	-0.768115	0.146285
H734	H	0.586509	-0.268115	0.646285
H735	H	0.054580	-0.799863	0.241677
H736	H	0.554580	-0.299863	0.741677
H737	H	-0.000294	-0.737829	0.289334
H738	H	0.499706	-0.237829	0.789334
H739	H	-0.023237	-0.644048	0.241596
H740	H	0.476763	-0.144048	0.741596
H741	H	-0.058984	-0.490504	0.332300
H742	H	0.441016	0.009496	0.832300
H743	H	-0.028907	-0.460416	0.362542
H744	H	0.471093	0.039584	0.862542
H745	H	0.044746	-0.608091	0.436494
H746	H	0.544746	-0.108091	0.936494
H747	H	0.014660	-0.638178	0.406265
H748	H	0.514660	-0.138178	0.906265
H749	H	-0.095331	-0.773979	0.396956
H750	H	0.404669	-0.273979	0.896956
C751	C	0.060105	-0.767022	0.334648
C752	C	0.560105	-0.267022	0.834648
C753	C	0.113564	-0.794479	0.326957
C754	C	0.613564	-0.294479	0.826957
C755	C	0.148798	-0.767120	0.300968
C756	C	0.648798	-0.267120	0.800968
C757	C	0.130574	-0.712304	0.282670
C758	C	0.630574	-0.212304	0.782670
C759	C	0.077112	-0.684845	0.290361
C760	C	0.577112	-0.184845	0.790361
C761	C	0.041878	-0.712204	0.316350
C762	C	0.541878	-0.212204	0.816350
H763	H	0.127058	-0.835059	0.340503
H764	H	0.627058	-0.335059	0.840503
H765	H	0.188374	-0.787448	0.295275
H766	H	0.688374	-0.287448	0.795275
H767	H	0.156656	-0.692052	0.263431
H768	H	0.656656	-0.192052	0.763431
H769	H	0.063618	-0.644264	0.276815
H770	H	0.563618	-0.144264	0.776815
H771	H	0.002302	-0.691876	0.322043
H772	H	0.502302	-0.191876	0.822043
H773	H	-0.231954	-0.601008	0.442726
H774	H	0.268046	-0.101008	0.942726
H775	H	-0.322352	-0.570775	0.472713
H776	H	0.177648	-0.070775	0.972713
C777	C	-0.224586	-0.523781	0.281004
C778	C	0.275414	-0.023781	0.781004
C779	C	-0.231388	-0.471156	0.249716
C780	C	0.268612	0.028844	0.749716
C781	C	-0.203921	-0.457938	0.195838
C782	C	0.296079	0.042062	0.695838
C783	C	-0.169652	-0.497346	0.173248
C784	C	0.330348	0.002654	0.673248
C785	C	-0.162849	-0.549975	0.204537
C786	C	0.337151	-0.049975	0.704537
C787	C	-0.190316	-0.563193	0.258415
C788	C	0.309684	-0.063193	0.758415
H789	H	-0.256757	-0.441980	0.266438
H790	H	0.243243	0.058020	0.766438
H791	H	-0.208957	-0.418978	0.172676
H792	H	0.291043	0.081022	0.672676
H793	H	-0.149319	-0.487562	0.133364
H794	H	0.350681	0.012438	0.633364
H795	H	-0.137479	-0.579151	0.187815
H796	H	0.362521	-0.079151	0.687815
H797	H	-0.185279	-0.602153	0.281577
H798	H	0.314721	-0.102153	0.781577
H799	H	-0.322118	-0.496994	0.324987
H800	H	0.177882	0.003006	0.824987
