data_functionalizedCrystal
_audit_creation_method	'MofGen! by Chris Wilmer'
_symmetry_space_group_name_H-M	'P1'
_symmetry_Int_Tables_number	1
_symmetry_cell_setting	triclinic
loop_
_symmetry_equiv_pos_as_xyz
  x,y,z
_cell_length_a	19.121063
_cell_length_b	13.897449
_cell_length_c	13.897431
_cell_angle_alpha	90.049745
_cell_angle_beta	92.361648
_cell_angle_gamma	87.529779
loop_
_atom_site_label
_atom_site_type_symbol
_atom_site_fract_x
_atom_site_fract_y
_atom_site_fract_z
Zn1	Zn	-0.279244	-1.458561	-0.561708
Zn2	Zn	0.220756	-0.958561	-0.061708
Zn3	Zn	-0.396796	-1.451462	-0.407281
Zn4	Zn	0.103204	-0.951462	0.092719
Zn5	Zn	-0.279370	-1.297161	-0.400433
Zn6	Zn	0.220630	-0.797161	0.099567
Zn7	Zn	-0.396657	-1.290328	-0.568526
Zn8	Zn	0.103343	-0.790328	-0.068526
O9	O	-0.338017	-1.374378	-0.484487
O10	O	0.161983	-0.874378	0.015513
O11	O	-0.294843	-1.592600	-0.541235
O12	O	0.205157	-1.092600	-0.041235
O13	O	-0.381330	-1.430882	-0.271398
O14	O	0.118670	-0.930882	0.228602
O15	O	-0.181072	-1.324401	-0.416107
O16	O	0.318928	-0.824401	0.083893
O17	O	-0.381208	-1.587385	-0.427779
O18	O	0.118792	-1.087385	0.072221
O19	O	-0.180979	-1.442981	-0.534595
O20	O	0.319021	-0.942981	-0.034595
O21	O	-0.295058	-1.317518	-0.266366
O22	O	0.204942	-0.817518	0.233634
O23	O	-0.294923	-1.161273	-0.422719
O24	O	0.205077	-0.661273	0.077281
O25	O	-0.380971	-1.312756	-0.702597
O26	O	0.119029	-0.812756	-0.202597
O27	O	-0.381093	-1.156253	-0.546216
O28	O	0.118907	-0.656253	-0.046216
O29	O	-0.294708	-1.436356	-0.697588
O30	O	0.205292	-0.936356	-0.197588
O31	O	-0.495059	-1.424257	-0.434390
O32	O	0.004941	-0.924257	0.065610
O33	O	-0.494957	-1.305873	-0.552856
O34	O	0.005043	-0.805873	-0.052856
C35	C	-0.338007	-1.123764	-0.484465
C36	C	0.161993	-0.623764	0.015535
C37	C	-0.338020	-1.016550	-0.484479
C38	C	0.161980	-0.516550	0.015521
C39	C	-0.520491	-1.363579	-0.495127
C40	C	-0.020491	-0.863579	0.004873
C41	C	-0.598554	-1.359048	-0.499712
C42	C	-0.098554	-0.859048	0.000288
C43	C	-0.337810	-1.374586	-0.736069
C44	C	0.162190	-0.874586	-0.236069
C45	C	-0.337722	-1.374675	-0.843278
C46	C	0.162278	-0.874675	-0.343278
C47	C	-0.635258	-1.418603	-0.440237
C48	C	-0.135258	-0.918603	0.059763
C49	C	-0.708607	-1.414347	-0.444555
C50	C	-0.208607	-0.914347	0.055445
C51	C	-0.745250	-1.350530	-0.508342
C52	C	-0.245250	-0.850530	-0.008342
C53	C	-0.708541	-1.290972	-0.567822
C54	C	-0.208541	-0.790972	-0.067822
C55	C	-0.635193	-1.295234	-0.563509
C56	C	-0.135193	-0.795234	-0.063509
C57	C	-0.966710	-1.334580	-0.524451
C58	C	-0.466710	-0.834580	-0.024451
C59	C	-1.040063	-1.330321	-0.528758
C60	C	-0.540063	-0.830321	-0.028758
C61	C	-1.040123	-1.453698	-0.405491
C62	C	-0.540123	-0.953698	0.094509
C63	C	-0.966775	-1.457949	-0.401180
C64	C	-0.466775	-0.957949	0.098820
C65	C	-0.930072	-1.398396	-0.460664
C66	C	-0.430072	-0.898396	0.039336
C67	C	-0.820224	-1.346175	-0.512754
C68	C	-0.320224	-0.846175	-0.012754
C69	C	-0.855099	-1.402755	-0.456256
C70	C	-0.355099	-0.902755	0.043744
C71	C	-0.154830	-1.385245	-0.473827
C72	C	0.345170	-0.885245	0.026173
C73	C	-0.076767	-1.389876	-0.469284
C74	C	0.423233	-0.889876	0.030716
C75	C	-0.338027	-1.625970	-0.484510
C76	C	0.161973	-1.125970	0.015490
C77	C	-0.338031	-1.733184	-0.484520
C78	C	0.161969	-1.233184	0.015480
C79	C	-0.338023	-0.820254	-0.484504
C80	C	0.161977	-0.320254	0.015496
C81	C	-0.338019	-0.929487	-0.484487
C82	C	0.161981	-0.429487	0.015513
C83	C	-0.338172	-1.374229	-0.233881
C84	C	0.161828	-0.874229	0.266119
C85	C	-0.338062	-1.374339	-0.126661
C86	C	0.161938	-0.874339	0.373339
C87	C	-0.337963	-1.374445	-0.039586
C88	C	0.162037	-0.874445	0.460414
C89	C	-0.337831	-1.374575	0.069654
C90	C	0.162169	-0.874575	0.569654
H91	H	-0.605428	-1.470565	-0.388291
H92	H	-0.105428	-0.970565	0.111709
H93	H	-0.936832	-1.286087	-0.572884
H94	H	-0.436832	-0.786087	-0.072884
H95	H	-0.825262	-1.454719	-0.404324
H96	H	-0.325262	-0.954719	0.095676
C97	C	-1.080369	-1.260121	-0.598938
C98	C	-0.580369	-0.760121	-0.098938
N99	N	-1.110727	-1.207249	-0.651795
N100	N	-0.610727	-0.707249	-0.151795
C101	C	-0.748978	-1.479856	-0.379122
C102	C	-0.248978	-0.979856	0.120878
N103	N	-0.779385	-1.529200	-0.329833
N104	N	-0.279385	-1.029200	0.170167
H105	H	-0.936941	-1.509914	-0.349239
H106	H	-0.436941	-1.009914	0.150761
C107	C	-0.594819	-1.229719	-0.628936
C108	C	-0.094819	-0.729719	-0.128936
N109	N	-0.564410	-1.180373	-0.678220
N110	N	-0.064410	-0.680373	-0.178220
H111	H	-0.850067	-1.294214	-0.564687
H112	H	-0.350067	-0.794214	-0.064687
H113	H	-1.070015	-1.502184	-0.357064
H114	H	-0.570015	-1.002184	0.142936
C115	C	-0.748851	-1.220769	-0.637985
C116	C	-0.248851	-0.720769	-0.137985
N117	N	-0.779212	-1.167887	-0.690830
N118	N	-0.279212	-0.667887	-0.190830
