data_functionalizedCrystal
_audit_creation_method	'MofGen! by Chris Wilmer'
_symmetry_space_group_name_H-M	'P1'
_symmetry_Int_Tables_number	1
_symmetry_cell_setting	triclinic
loop_
_symmetry_equiv_pos_as_xyz
  x,y,z
_cell_length_a	6.817900
_cell_length_b	17.253917
_cell_length_c	14.858572
_cell_angle_alpha	98.734339
_cell_angle_beta	104.524003
_cell_angle_gamma	102.659311
loop_
_atom_site_label
_atom_site_type_symbol
_atom_site_fract_x
_atom_site_fract_y
_atom_site_fract_z
V1	V	-4.039636	-0.111816	-0.298828
V2	V	-3.539636	0.388184	0.201172
O3	O	-4.025555	0.004852	-0.284056
O4	O	-3.525555	0.504852	0.215944
O5	O	-3.992362	-0.221211	-0.305521
O6	O	-3.492362	0.278789	0.194479
O7	O	-3.996258	-0.110324	-0.425172
O8	O	-3.496258	0.389676	0.074828
O9	O	-4.021632	-0.106802	-0.163577
O10	O	-3.521632	0.393198	0.336423
V11	V	-4.522467	-0.097834	-0.281590
V12	V	-4.022467	0.402166	0.218410
O13	O	-4.302411	-0.142486	-0.336642
O14	O	-3.802411	0.357514	0.163358
O15	O	-4.709888	-0.067164	-0.243776
O16	O	-4.209888	0.432836	0.256224
O17	O	-4.346534	0.011561	-0.274897
O18	O	-3.846534	0.511561	0.225103
O19	O	-4.653944	-0.214502	-0.296362
O20	O	-4.153944	0.285498	0.203638
O21	O	-4.657868	-0.102848	-0.416841
O22	O	-4.157868	0.397152	0.083159
O23	O	-4.342638	-0.099325	-0.155246
O24	O	-3.842638	0.400675	0.344754
C25	C	-3.837474	-0.247872	-0.303061
C26	C	-3.337474	0.252128	0.196939
C27	C	-3.880142	-0.337305	-0.309376
C28	C	-3.380142	0.162695	0.190624
C29	C	-3.856408	-0.367683	-0.226255
C30	C	-3.356408	0.132317	0.273745
C31	C	-3.896520	-0.451716	-0.232191
C32	C	-3.396520	0.048284	0.267809
C33	C	-3.960350	-0.505369	-0.321249
C34	C	-3.460350	-0.005369	0.178751
C35	C	-3.984090	-0.474986	-0.404376
C36	C	-3.484090	0.025014	0.095624
C37	C	-3.943994	-0.390955	-0.398439
C38	C	-3.443994	0.109045	0.101561
C39	C	-4.084978	-0.757935	-0.348236
C40	C	-3.584978	-0.257935	0.151764
C41	C	-4.125068	-0.841971	-0.354167
C42	C	-3.625068	-0.341971	0.145833
C43	C	-4.037498	-0.818696	-0.181981
C44	C	-3.537498	-0.318696	0.318019
C45	C	-3.997393	-0.734664	-0.176052
C46	C	-3.497393	-0.234664	0.323948
C47	C	-4.021147	-0.704288	-0.259179
C48	C	-3.521147	-0.204288	0.240821
N49	N	-4.001345	-0.591265	-0.327319
N50	N	-3.501345	-0.091265	0.172681
N51	N	-3.980166	-0.618395	-0.253109
N52	N	-3.480166	-0.118395	0.246891
C53	C	-3.842443	-0.106424	-0.455686
C54	C	-3.342443	0.393576	0.044314
C55	C	-3.888268	-0.105929	-0.559030
C56	C	-3.388268	0.394071	-0.059030
C57	C	-4.055989	-0.104118	-0.937454
C58	C	-3.555989	0.395882	-0.437454
C59	C	-4.009316	-0.104622	-0.832165
C60	C	-3.509316	0.395378	-0.332165
C61	C	-3.972130	-0.105024	-0.748246
C62	C	-3.472130	0.394976	-0.248246
C63	C	-3.925454	-0.105526	-0.642949
C64	C	-3.425454	0.394474	-0.142949
C65	C	-4.164764	0.038218	-0.277354
C66	C	-3.664764	0.538218	0.222646
C67	C	-4.101334	0.127650	-0.271046
C68	C	-3.601334	0.627650	0.228954
C69	C	-4.159795	-0.103228	-0.124727
C70	C	-3.659795	0.396772	0.375273
C71	C	-4.093208	-0.103720	-0.021382
C72	C	-3.593208	0.396280	0.478618
H73	H	-4.018166	-0.843437	-0.114304
H74	H	-3.518166	-0.343437	0.385696
N75	N	-3.787564	-0.309828	-0.130192
N76	N	-3.287564	0.190172	0.369808
H77	H	-3.892975	-0.277233	-0.127262
H78	H	-3.392975	0.222767	0.372738
H79	H	-3.644933	-0.271707	-0.120564
H80	H	-3.144933	0.228293	0.379436
H81	H	-3.877196	-0.476445	-0.164506
H82	H	-3.377196	0.023555	0.335494
H83	H	-4.104297	-0.733214	-0.415924
H84	H	-3.604297	-0.233214	0.084076
H85	H	-4.177038	-0.885655	-0.426692
H86	H	-3.677038	-0.385655	0.073308
N87	N	-3.928384	-0.676793	-0.079993
N88	N	-3.428384	-0.176793	0.420007
H89	H	-3.919383	-0.708787	-0.028233
H90	H	-3.419383	-0.208787	0.471767
H91	H	-4.033755	-0.644176	-0.077100
H92	H	-3.533755	-0.144176	0.422900
N93	N	-4.052993	-0.532852	-0.500435
N94	N	-3.552993	-0.032852	-0.000435
H95	H	-4.074801	-0.590696	-0.491585
H96	H	-3.574801	-0.090696	0.008415
H97	H	-3.941118	-0.520462	-0.533630
H98	H	-3.441118	-0.020462	-0.033630
N99	N	-3.969600	-0.358186	-0.488090
N100	N	-3.469600	0.141814	0.011910
H101	H	-4.016118	-0.404925	-0.545410
H102	H	-3.516118	0.095075	-0.045410
H103	H	-3.830866	-0.321036	-0.486003
H104	H	-3.330866	0.178964	0.013997
