data_functionalizedCrystal
_audit_creation_method	'MofGen! by Chris Wilmer'
_symmetry_space_group_name_H-M	'P1'
_symmetry_Int_Tables_number	1
_symmetry_cell_setting	triclinic
loop_
_symmetry_equiv_pos_as_xyz
  x,y,z
_cell_length_a	16.120530
_cell_length_b	18.050590
_cell_length_c	16.120297
_cell_angle_alpha	87.128980
_cell_angle_beta	89.871860
_cell_angle_gamma	87.114013
loop_
_atom_site_label
_atom_site_type_symbol
_atom_site_fract_x
_atom_site_fract_y
_atom_site_fract_z
Zn1	Zn	1.247477	-0.376250	0.534553
Zn2	Zn	1.254440	-0.494475	0.395492
Zn3	Zn	1.115466	-0.363700	0.388471
Zn4	Zn	1.108396	-0.493791	0.527461
O5	O	1.181445	-0.432054	0.461494
O6	O	1.364768	-0.397471	0.522012
O7	O	1.241877	-0.472162	0.278195
O8	O	1.133023	-0.261444	0.407879
O9	O	1.369883	-0.484330	0.419845
O10	O	1.230011	-0.270664	0.515205
O11	O	1.139774	-0.376082	0.273037
O12	O	0.998162	-0.375419	0.401003
O13	O	1.120973	-0.483165	0.644767
O14	O	0.992967	-0.470996	0.503118
O15	O	1.223155	-0.396808	0.649978
O16	O	1.235022	-0.598305	0.412968
O17	O	1.127724	-0.597803	0.509925
C18	C	0.965392	-0.421772	0.450529
C19	C	0.872962	-0.417392	0.445858
C20	C	0.703732	-0.409378	0.437337
C21	C	0.659995	-0.454787	0.485712
C22	C	0.565830	-0.450328	0.480971
C23	C	0.797906	-0.413836	0.442077
C24	C	1.181383	-0.625002	0.461458
C25	C	1.181431	-0.707550	0.461474
C26	C	1.239891	-0.907256	0.408832
C27	C	1.256356	-0.960809	0.485754
C28	C	1.181476	-0.858684	0.461510
C29	C	1.165094	-0.952218	0.384626
C30	C	1.181522	-1.004673	0.461537
C31	C	1.197978	-0.911154	0.538473
C32	C	1.106684	-0.902555	0.437293
C33	C	1.123117	-0.956086	0.514265
C34	C	1.181452	-0.774584	0.461493
C35	C	1.181546	-1.088771	0.461563
C36	C	1.398342	-0.442377	0.472503
C37	C	1.490770	-0.446776	0.477194
C38	C	1.170499	-0.441310	0.678388
C39	C	1.165834	-0.445254	0.770815
C40	C	1.181529	-0.238355	0.461550
C41	C	1.181565	-0.155812	0.461574
C42	C	1.192396	-0.422783	0.245447
C43	C	1.197222	-0.418637	0.153028
C44	C	1.157287	-0.452437	0.940040
C45	C	1.205767	-0.411456	0.983809
C46	C	1.201011	-0.415453	1.077971
C47	C	1.162042	-0.448441	0.845869
H48	H	0.693272	-0.497010	0.530690
C49	C	1.096393	-0.503886	0.984952
N50	N	1.050530	-0.542638	1.018790
H51	H	0.670458	-0.367158	0.392364
C52	C	1.341829	-0.995187	0.513445
N53	N	1.406209	-1.021079	0.534297
H54	H	1.250842	-0.373368	0.950563
H55	H	1.043433	-0.877095	0.416771
H56	H	1.289303	-0.885812	0.364334
H57	H	1.211787	-0.893067	0.603556
H58	H	1.073735	-0.977400	0.558879
H59	H	1.151219	-0.970396	0.319595
