data_functionalizedCrystal
_audit_creation_method	'MofGen! by Chris Wilmer'
_symmetry_space_group_name_H-M	'P1'
_symmetry_Int_Tables_number	1
_symmetry_cell_setting	triclinic
loop_
_symmetry_equiv_pos_as_xyz
  x,y,z
_cell_length_a	10.686220
_cell_length_b	10.686285
_cell_length_c	10.685880
_cell_angle_alpha	89.638885
_cell_angle_beta	89.641569
_cell_angle_gamma	90.345431
loop_
_atom_site_label
_atom_site_type_symbol
_atom_site_fract_x
_atom_site_fract_y
_atom_site_fract_z
Zn1	Zn	1.999728	-0.389334	-0.530460
Zn2	Zn	1.997195	-0.583279	-0.304810
Zn3	Zn	1.774036	-0.391875	-0.336574
Zn4	Zn	1.805850	-0.614981	-0.527983
O5	O	1.894202	-0.494867	-0.424957
O6	O	2.173923	-0.400730	-0.488270
O7	O	1.953219	-0.545686	-0.134483
O8	O	1.791721	-0.217001	-0.376623
O9	O	2.172063	-0.543221	-0.322486
O10	O	1.957535	-0.215133	-0.519070
O11	O	1.789265	-0.405062	-0.157820
O12	O	1.603725	-0.435802	-0.374222
O13	O	1.845942	-0.597252	-0.702853
O14	O	1.627098	-0.599717	-0.514849
O15	O	1.988383	-0.431470	-0.704672
O16	O	1.984067	-0.762022	-0.320085
O17	O	1.843486	-0.785313	-0.484049
C18	C	1.570158	-0.521476	-0.447714
C19	C	1.431534	-0.532892	-0.457477
C20	C	1.916990	-0.818922	-0.398376
C21	C	1.926856	-0.957548	-0.387038
C22	C	2.219512	-0.468155	-0.402111
C23	C	2.358140	-0.456772	-0.392376
C24	C	1.920993	-0.517614	-0.750284
C25	C	1.932410	-0.527307	-0.888919
C26	C	1.871362	-0.169546	-0.451666
C27	C	1.861628	-0.030914	-0.463048
C28	C	1.867581	-0.472114	-0.100897
C29	C	1.856381	-0.462049	0.037725
H30	H	1.388314	-0.606806	-0.520679
O31	O	1.785910	-0.979543	-0.551077
C32	C	1.727271	-1.075583	-0.619494
H33	H	1.725312	-1.165284	-0.561188
H34	H	1.781643	-1.092205	-0.709943
C35	C	1.594821	-0.926693	-0.722422
C36	C	1.592406	-1.036863	-0.650805
H37	H	1.511631	-0.902808	-0.741742
H38	H	1.634329	-0.861988	-0.676332
H39	H	1.640136	-0.940559	-0.797788
H40	H	1.547104	-1.022991	-0.575435
H41	H	1.552886	-1.101566	-0.696884
O42	O	1.409830	-0.368759	-0.316887
C43	C	1.483499	-0.427874	-0.225136
H44	H	1.513170	-0.523948	-0.259863
H45	H	1.426689	-0.439051	-0.135059
C46	C	1.564187	-0.229568	-0.157031
C47	C	1.600639	-0.347564	-0.199687
H48	H	1.636442	-0.180028	-0.141327
H49	H	1.514551	-0.189740	-0.218842
H50	H	1.516844	-0.238900	-0.081971
H51	H	1.647967	-0.338233	-0.274753
H52	H	1.650285	-0.387389	-0.137888
H53	H	1.990242	-1.000795	-0.313276
H54	H	1.782545	-0.398767	-0.919018
H55	H	2.006246	-0.590598	-0.932182
