data_functionalizedCrystal
_audit_creation_method	'MofGen! by Chris Wilmer'
_symmetry_space_group_name_H-M	'P1'
_symmetry_Int_Tables_number	1
_symmetry_cell_setting	triclinic
loop_
_symmetry_equiv_pos_as_xyz
  x,y,z
_cell_length_a	17.699083
_cell_length_b	15.455313
_cell_length_c	16.992698
_cell_angle_alpha	92.838206
_cell_angle_beta	86.974980
_cell_angle_gamma	87.330624
loop_
_atom_site_label
_atom_site_type_symbol
_atom_site_fract_x
_atom_site_fract_y
_atom_site_fract_z
O1	O	-1.013352	0.072017	-0.095714
O2	O	-0.793778	0.072050	-0.108611
O3	O	-0.902685	0.072007	0.011977
O4	O	-0.904445	0.072061	-0.216302
O5	O	-0.896456	-0.072253	0.005110
O6	O	-0.787549	-0.072210	-0.115479
O7	O	-1.007123	-0.072242	-0.102581
Cu8	Cu	-0.896767	-0.085398	-0.109657
Cu9	Cu	-0.904134	0.085206	-0.101535
O10	O	-0.898216	-0.072199	-0.223170
C11	C	-0.762438	-0.000076	-0.111582
C12	C	-0.678334	-0.000065	-0.110195
N13	N	-0.891591	-0.205392	-0.115369
C14	C	-0.634120	-0.000048	-0.180979
C15	C	-0.555095	-0.000059	-0.179672
C16	C	-0.520285	-0.000081	-0.107580
C17	C	-0.564505	-0.000100	-0.036792
C18	C	-0.643528	-0.000095	-0.038100
C19	C	-0.245813	-0.000120	-0.031514
C20	C	-0.166783	-0.000122	-0.030212
C21	C	-0.157379	-0.000084	-0.173086
C22	C	-0.236402	-0.000079	-0.174395
C23	C	-0.280615	-0.000103	-0.103607
C24	C	-0.366303	-0.000093	-0.105025
C25	C	-0.434599	-0.000084	-0.106161
C26	C	-0.937877	-0.250804	-0.064157
C27	C	-0.933969	-0.341610	-0.068484
C28	C	-0.883780	-0.387003	-0.124026
C29	C	-0.837489	-0.341584	-0.175240
C30	C	-0.841393	-0.250779	-0.170909
C31	C	-0.866929	-0.658577	-0.142700
C32	C	-0.863030	-0.749388	-0.147029
C33	C	-0.959510	-0.749409	-0.040271
C34	C	-0.963412	-0.658602	-0.035948
C35	C	-0.917119	-0.613191	-0.087159
N36	N	-0.879787	-0.479821	-0.128452
N37	N	-0.921109	-0.520374	-0.082729
C38	C	-0.038463	-0.000112	-0.099609
C39	C	-0.122568	-0.000111	-0.100996
C40	C	-0.897306	-0.000128	0.037752
C41	C	-0.890549	-0.000142	0.124782
N42	N	-0.909316	0.205199	-0.095817
C43	C	-0.845155	-0.000078	0.613659
C44	C	-0.851509	-0.000084	0.531884
C45	C	-0.923061	-0.000105	0.500476
C46	C	-0.988263	-0.000111	0.550848
C47	C	-0.981908	-0.000099	0.632621
C48	C	-0.949397	-0.000137	0.256928
C49	C	-0.955746	-0.000151	0.175148
C50	C	-0.818992	-0.000122	0.156189
C51	C	-0.812644	-0.000116	0.237965
C52	C	-0.877846	-0.000117	0.288330
N53	N	-0.929557	-0.000113	0.416889
N54	N	-0.871349	-0.000102	0.371915
C55	C	-0.903595	-0.000074	0.751056
C56	C	-0.910352	-0.000087	0.664024
H57	H	-0.662456	-0.000030	-0.239684
C58	C	-1.018617	-0.608668	0.025151
C59	C	-1.011417	-0.621177	0.113834
C60	C	-1.066623	-0.571239	0.174931
C61	C	-1.129030	-0.508793	0.147344
C62	C	-1.136233	-0.496281	0.058657
C63	C	-1.081026	-0.546219	-0.002440
H64	H	-0.965217	-0.667406	0.134259
H65	H	-1.061291	-0.580502	0.240583
H66	H	-1.169897	-0.471826	0.192572
H67	H	-1.182433	-0.450052	0.038232
H68	H	-1.086359	-0.536957	-0.068092
H69	H	-0.978749	-0.213852	-0.018932
H70	H	-0.829236	-0.621611	-0.184399
C71	C	-0.779788	-0.000084	0.476485
C72	C	-0.725735	0.074830	0.483455
C73	C	-0.654009	0.074828	0.428057
C74	C	-0.636336	-0.000088	0.365690
C75	C	-0.690391	-0.075008	0.358717
C76	C	-0.762117	-0.075006	0.414115
H77	H	-0.738817	0.130293	0.529625
H78	H	-0.613995	0.130289	0.433219
H79	H	-0.583241	-0.000090	0.324681
H80	H	-0.677309	-0.130471	0.312547
H81	H	-0.802131	-0.130467	0.408953
H82	H	-1.046521	-0.000130	0.525269
C83	C	-1.010425	-0.799361	0.016064
C84	C	-1.006135	-0.899243	0.011309
C85	C	-1.057050	-0.949193	0.067651
C86	C	-1.112255	-0.899263	0.128747
C87	C	-1.116547	-0.799376	0.133504
C88	C	-1.065632	-0.749425	0.077163
H89	H	-0.965267	-0.936209	-0.033920
H90	H	-1.053873	-1.023137	0.064128
H91	H	-1.149946	-0.936239	0.170454
H92	H	-1.157415	-0.762409	0.178733
H93	H	-1.068809	-0.675481	0.080685
H94	H	-1.034999	-0.000103	0.673629
H95	H	-0.264740	-0.000058	-0.233099
H96	H	-0.786890	-0.000071	0.639224
C97	C	-1.021120	-0.000146	0.312318
C98	C	-1.075159	-0.075073	0.305348
C99	C	-1.146887	-0.075084	0.360741
C100	C	-1.164575	-0.000167	0.423105
C101	C	-1.110534	0.074766	0.430078
C102	C	-1.038807	0.074776	0.374685
H103	H	-1.062067	-0.130536	0.259180
H104	H	-1.186892	-0.130554	0.355579
H105	H	-1.217673	-0.000175	0.464110
H106	H	-1.123627	0.130229	0.476246
H107	H	-0.998802	0.130247	0.379847
C108	C	-0.782279	-0.391510	-0.236339
C109	C	-0.778019	-0.491392	-0.241147
C110	C	-0.722810	-0.541315	-0.302250
C111	C	-0.671860	-0.491357	-0.358544
C112	C	-0.676117	-0.391470	-0.353738
C113	C	-0.731327	-0.341547	-0.292636
H114	H	-0.815737	-0.528379	-0.199473
H115	H	-0.719658	-0.615259	-0.305807
H116	H	-0.630990	-0.528314	-0.403776
H117	H	-0.638399	-0.354483	-0.395413
H118	H	-0.734479	-0.267603	-0.289078
C119	C	-0.506459	-0.000044	-0.257535
C120	C	-0.544747	-0.000017	-0.336834
C121	C	-0.496111	-0.000006	-0.414701
C122	C	-0.409188	-0.000023	-0.413269
C123	C	-0.370895	-0.000050	-0.333967
C124	C	-0.419531	-0.000060	-0.256100
H125	H	-0.609097	-0.000004	-0.337896
H126	H	-0.524458	0.000014	-0.473405
H127	H	-0.373185	-0.000015	-0.470911
H128	H	-0.306545	-0.000062	-0.332905
H129	H	-0.391184	-0.000080	-0.197396
H130	H	-0.121371	-0.000069	-0.230726
H131	H	-0.138444	-0.000141	0.028497
H132	H	-0.281801	-0.000140	0.026126
H133	H	-1.014014	-0.000169	0.149579
H134	H	-0.679527	-0.000109	0.019540
C135	C	-0.526217	-0.000122	0.042511
C136	C	-0.439295	-0.000121	0.043955
C137	C	-0.401010	-0.000139	0.123260
C138	C	-0.449647	-0.000159	0.201121
C139	C	-0.536574	-0.000161	0.199680
C140	C	-0.574859	-0.000142	0.120375
H141	H	-0.403287	-0.000106	-0.013685
H142	H	-0.336660	-0.000138	0.124326
H143	H	-0.421305	-0.000173	0.259827
H144	H	-0.572582	-0.000175	0.257320
H145	H	-0.639209	-0.000143	0.119309
H146	H	-0.971658	-0.378585	-0.026783
C147	C	-0.807814	-0.799318	-0.208128
C148	C	-0.803523	-0.899200	-0.212899
C149	C	-0.748312	-0.949128	-0.273997
C150	C	-0.697391	-0.899174	-0.330324
C151	C	-0.701680	-0.799287	-0.325555
C152	C	-0.756892	-0.749359	-0.264457
H153	H	-0.841219	-0.936183	-0.171200
H154	H	-0.745137	-1.023071	-0.277526
H155	H	-0.656520	-0.936134	-0.375552
H156	H	-0.663984	-0.762304	-0.367254
H157	H	-0.760067	-0.675416	-0.260928
H158	H	-0.803701	-0.213805	-0.212610
H159	H	-0.754380	-0.000089	0.263531
H160	H	-0.765908	-0.000120	0.115174
