data_functionalizedCrystal
_audit_creation_method	'MofGen! by Chris Wilmer'
_symmetry_space_group_name_H-M	'P1'
_symmetry_Int_Tables_number	1
_symmetry_cell_setting	triclinic
loop_
_symmetry_equiv_pos_as_xyz
  x,y,z
_cell_length_a	19.188930
_cell_length_b	10.540539
_cell_length_c	9.616153
_cell_angle_alpha	90.004826
_cell_angle_beta	89.992615
_cell_angle_gamma	96.164863
loop_
_atom_site_label
_atom_site_type_symbol
_atom_site_fract_x
_atom_site_fract_y
_atom_site_fract_z
O1	O	0.098389	-1.683724	-0.115598
O2	O	0.598389	-1.183724	0.384402
O3	O	0.107659	-1.314107	-0.115617
O4	O	0.607659	-0.814107	0.384383
O5	O	0.001439	-1.509582	-0.115579
O6	O	0.501439	-1.009582	0.384421
O7	O	0.204608	-1.488249	-0.115635
O8	O	0.704608	-0.988249	0.384365
O9	O	0.001441	-1.509555	0.115712
O10	O	0.501441	-1.009555	0.615712
O11	O	0.107661	-1.314080	0.115675
O12	O	0.607661	-0.814080	0.615675
O13	O	0.098391	-1.683697	0.115694
O14	O	0.598391	-1.183697	0.615694
Zn15	Zn	0.103026	-1.498885	0.152407
Zn16	Zn	0.603026	-0.998885	0.652407
Zn17	Zn	0.103023	-1.498920	-0.152330
Zn18	Zn	0.603023	-0.998920	0.347670
O19	O	0.204610	-1.488222	0.115657
O20	O	0.704610	-0.988222	0.615657
C21	C	0.106965	-1.266806	0.000027
C22	C	0.606965	-0.766806	0.500027
C23	C	0.104885	-1.125904	0.000021
C24	C	0.604885	-0.625904	0.500021
C25	C	-0.024575	-1.508878	0.000070
C26	C	0.475425	-1.008878	0.500070
C27	C	-0.102094	-1.506804	0.000082
C28	C	0.397906	-1.006804	0.500082
N29	N	0.103028	-1.498870	0.360381
N30	N	0.603028	-0.998870	0.860381
C31	C	-0.146253	-1.621502	0.000095
C32	C	0.353747	-1.121502	0.500095
C33	C	-0.219090	-1.619554	0.000072
C34	C	0.280910	-1.119554	0.500072
C35	C	-0.247764	-1.502901	0.000065
C36	C	0.252236	-1.002901	0.500065
C37	C	-0.203595	-1.388187	0.000045
C38	C	0.296405	-0.888187	0.500045
C39	C	-0.130760	-1.390139	0.000053
C40	C	0.369240	-0.890139	0.500053
N41	N	-0.356363	-1.413724	0.078774
N42	N	0.143637	-0.913724	0.578774
N43	N	-0.425554	-1.411878	0.078769
N44	N	0.074446	-0.911878	0.578769
C45	C	-0.467212	-1.497014	0.000037
C46	C	0.032788	-0.997014	0.500037
N47	N	-0.437067	-1.584085	-0.078672
N48	N	0.062933	-1.084085	0.421328
N49	N	-0.367870	-1.585935	-0.078661
N50	N	0.132130	-1.085935	0.421339
C51	C	-0.326741	-1.500772	0.000055
C52	C	0.173259	-1.000772	0.500055
C53	C	-0.590350	-1.609608	0.000023
C54	C	-0.090350	-1.109608	0.500023
C55	C	-0.663188	-1.607655	-0.000008
C56	C	-0.163188	-1.107655	0.499992
C57	C	-0.647691	-1.376285	-0.000021
C58	C	-0.147691	-0.876285	0.499979
C59	C	-0.574855	-1.378241	-0.000004
C60	C	-0.074855	-0.878241	0.499996
C61	C	-0.546189	-1.494906	0.000025
C62	C	-0.046189	-0.994906	0.500025
C63	C	0.230625	-1.488927	0.000004
C64	C	0.730625	-0.988927	0.500004
C65	C	0.308143	-1.491000	-0.000017
C66	C	0.808143	-0.991000	0.499983
C67	C	0.099085	-1.730998	0.000047
C68	C	0.599085	-1.230998	0.500047
C69	C	0.101165	-1.871901	0.000044
C70	C	0.601165	-1.371901	0.500044
C71	C	0.025184	-0.944233	0.000583
C72	C	0.525184	-0.444233	0.500583
C73	C	0.027292	-1.090805	0.000047
C74	C	0.527292	-0.590805	0.500047
C75	C	0.142224	-1.063423	-0.132063
C76	C	0.642224	-0.563423	0.367937
C77	C	0.139576	-0.916937	-0.132158
C78	C	0.639576	-0.416937	0.367842
C79	C	0.141157	-0.916384	0.130863
C80	C	0.641157	-0.416384	0.630863
C81	C	0.141872	-1.063350	0.132594
C82	C	0.641872	-0.563350	0.632594
N83	N	0.103016	-1.498945	-0.360304
N84	N	0.603016	-0.998945	0.139696
C85	C	0.159658	-1.393992	0.580731
C86	C	0.659658	-0.893992	1.080731
C87	C	0.159870	-1.394216	0.419564
C88	C	0.659870	-0.894216	0.919564
C89	C	0.119601	-1.631228	0.418832
C90	C	0.619601	-1.131228	0.918832
C91	C	0.120002	-1.630655	0.580050
C92	C	0.620002	-1.130655	1.080050
C93	C	0.029640	-1.472715	0.580311
C94	C	0.529640	-0.972715	1.080311
C95	C	0.030115	-1.469658	0.419084
C96	C	0.530115	-0.969658	0.919084
H97	H	-0.122918	-1.716500	0.000113
H98	H	0.377082	-1.216500	0.500113
Cl99	Cl	0.202653	-1.666432	0.638069
Cl100	Cl	0.702653	-1.166432	1.138069
Cl101	Cl	-0.018192	-1.156240	-0.146616
Cl102	Cl	0.481808	-0.656240	0.353384
H103	H	0.080409	-1.711170	0.619052
H104	H	0.580409	-1.211170	1.119052
H105	H	-0.094804	-1.296735	0.000044
H106	H	0.405196	-0.796735	0.500044
Cl107	Cl	0.057646	-1.754653	0.359650
Cl108	Cl	0.557646	-1.254653	0.859650
Cl109	Cl	0.005300	-1.326958	0.643157
Cl110	Cl	0.505300	-0.826958	1.143157
H111	H	0.197202	-0.867922	0.131740
H112	H	0.697202	-0.367922	0.631740
H113	H	-0.002088	-1.134055	0.094731
H114	H	0.497912	-0.634055	0.594731
H115	H	0.149898	-1.295819	0.380047
H116	H	0.649898	-0.795819	0.880047
H117	H	0.111977	-0.889346	-0.230877
H118	H	0.611977	-0.389346	0.269123
H119	H	-0.699142	-1.701060	-0.000005
H120	H	-0.199142	-1.201060	0.499995
H121	H	0.172529	-1.654959	0.378429
H122	H	0.672529	-1.154959	0.878429
Cl123	Cl	-0.274615	-1.763757	0.000087
Cl124	Cl	0.225385	-1.263757	0.500087
Cl125	Cl	-0.519337	-1.234040	-0.000013
Cl126	Cl	-0.019337	-0.734040	0.499987
H127	H	0.114594	-1.104902	0.230309
H128	H	0.614594	-0.604902	0.730309
Cl129	Cl	-0.239641	-1.241538	0.000025
Cl130	Cl	0.260359	-0.741538	0.500025
Cl131	Cl	-0.022143	-0.901118	0.146833
Cl132	Cl	0.477857	-0.401118	0.646833
H133	H	0.116284	-1.106595	-0.230348
H134	H	0.616284	-0.606595	0.269652
Cl135	Cl	-0.554309	-1.756269	0.000067
Cl136	Cl	-0.054309	-1.256269	0.500067
Cl137	Cl	-0.021950	-0.898646	-0.144817
Cl138	Cl	0.478050	-0.398646	0.355183
H139	H	-0.671037	-1.281303	-0.000034
H140	H	-0.171037	-0.781303	0.499966
H141	H	0.116047	-0.885379	0.230981
H142	H	0.616047	-0.385379	0.730981
H143	H	0.195380	-0.867739	-0.138168
H144	H	0.695380	-0.367739	0.361832
H145	H	0.199206	-1.084521	-0.136992
H146	H	0.699206	-0.584521	0.363008
H147	H	0.017553	-1.372296	0.380883
H148	H	0.517553	-0.872296	0.880883
H149	H	-0.014059	-1.541158	0.378804
H150	H	0.485941	-1.041158	0.878804
H151	H	-0.012519	-1.549256	0.618442
H152	H	0.487481	-1.049256	1.118442
H153	H	0.198442	-1.086329	0.140553
H154	H	0.698442	-0.586329	0.640553
Cl155	Cl	0.144490	-1.241582	0.640616
Cl156	Cl	0.644490	-0.741582	1.140616
H157	H	0.213788	-1.410467	0.621216
H158	H	0.713788	-0.910467	1.121216
Cl159	Cl	0.243928	-1.419948	0.359968
Cl160	Cl	0.743928	-0.919948	0.859968
