data_functionalizedCrystal
_audit_creation_method	'MofGen! by Chris Wilmer'
_symmetry_space_group_name_H-M	'P1'
_symmetry_Int_Tables_number	1
_symmetry_cell_setting	triclinic
loop_
_symmetry_equiv_pos_as_xyz
  x,y,z
_cell_length_a	16.992694
_cell_length_b	13.596369
_cell_length_c	14.519709
_cell_angle_alpha	90.013196
_cell_angle_beta	92.825815
_cell_angle_gamma	90.012208
loop_
_atom_site_label
_atom_site_type_symbol
_atom_site_fract_x
_atom_site_fract_y
_atom_site_fract_z
O1	O	1.040653	-0.081699	-0.195571
O2	O	1.373986	0.251634	0.137762
O3	O	1.707320	0.584968	0.471096
O4	O	0.812365	-0.081728	-0.193425
O5	O	1.145698	0.251606	0.139908
O6	O	1.479031	0.584939	0.473241
O7	O	0.932562	-0.081685	-0.060694
O8	O	1.265895	0.251648	0.272639
O9	O	1.599228	0.584981	0.605973
O10	O	0.920456	-0.081742	-0.328302
O11	O	1.253789	0.251592	0.005031
O12	O	1.587123	0.584925	0.338364
O13	O	0.932576	0.081898	-0.060687
O14	O	1.265910	0.415231	0.272646
O15	O	1.599243	0.748564	0.605979
O16	O	0.812379	0.081855	-0.193419
O17	O	1.145713	0.415188	0.139915
O18	O	1.479046	0.748522	0.473248
O19	O	1.040668	0.081884	-0.195564
O20	O	1.374001	0.415217	0.137769
O21	O	1.707334	0.748550	0.471102
Zn22	Zn	0.926526	0.107842	-0.194490
Zn23	Zn	1.259859	0.441175	0.138843
Zn24	Zn	1.593193	0.774508	0.472176
Zn25	Zn	0.926506	-0.107686	-0.194499
Zn26	Zn	1.259840	0.225648	0.138834
Zn27	Zn	1.593173	0.558981	0.472167
O28	O	0.920471	0.081841	-0.328296
O29	O	1.253804	0.415175	0.005038
O30	O	1.587138	0.748508	0.338371
C31	C	0.783156	0.000060	-0.190662
C32	C	1.116489	0.333394	0.142671
C33	C	1.449822	0.666727	0.476005
C34	C	0.696100	0.000051	-0.182427
C35	C	1.029433	0.333384	0.150907
C36	C	1.362767	0.666718	0.484240
C37	C	0.645971	0.000035	-0.261887
C38	C	0.979304	0.333368	0.071447
C39	C	1.312638	0.666702	0.404780
C40	C	0.564173	0.000050	-0.254143
C41	C	0.897507	0.333383	0.079190
C42	C	1.230840	0.666717	0.412524
C43	C	0.532507	0.000074	-0.166939
C44	C	0.865840	0.333408	0.166395
C45	C	1.199173	0.666741	0.499728
C46	C	0.582642	0.000093	-0.087473
C47	C	0.915975	0.333427	0.245860
C48	C	1.249309	0.666760	0.579194
C49	C	0.664438	0.000085	-0.095217
C50	C	0.997771	0.333418	0.238116
C51	C	1.331105	0.666752	0.571449
C52	C	0.288864	0.000107	-0.134842
C53	C	0.622197	0.333441	0.198492
C54	C	0.955530	0.666774	0.531825
C55	C	0.207062	0.000113	-0.127103
C56	C	0.540395	0.333446	0.206230
C57	C	0.873728	0.666779	0.539563
C58	C	0.188598	0.000071	-0.293774
C59	C	0.521932	0.333405	0.039559
C60	C	0.855265	0.666738	0.372893
C61	C	0.270397	0.000057	-0.301511
C62	C	0.603730	0.333390	0.031822
C63	C	0.937063	0.666724	0.365156
C64	C	0.320525	0.000081	-0.222045
C65	C	0.653858	0.333415	0.111288
C66	C	0.987192	0.666748	0.444622
N67	N	0.448897	0.000087	-0.159022
N68	N	0.782230	0.333420	0.174312
N69	N	1.115563	0.666753	0.507645
N70	N	0.404133	0.000076	-0.229963
N71	N	0.737467	0.333409	0.103370
N72	N	1.070800	0.666743	0.436704
N73	N	0.926494	-0.254778	-0.194499
N74	N	1.259827	0.078556	0.138835
N75	N	1.593160	0.411889	0.472168
C76	C	0.926496	-0.343775	-0.194500
C77	C	1.259830	-0.010442	0.138834
C78	C	1.593163	0.322891	0.472167
C79	C	0.926508	-0.455427	-0.194498
C80	C	1.259841	-0.122093	0.138835
C81	C	1.593174	0.211240	0.472168
C82	C	0.926521	-0.544417	-0.194493
C83	C	1.259854	-0.211084	0.138841
C84	C	1.593188	0.122249	0.472174
C85	C	0.926532	-0.656076	-0.194490
C86	C	1.259865	-0.322742	0.138843
C87	C	1.593198	0.010591	0.472177
C88	C	1.069877	0.000093	-0.198328
C89	C	1.403210	0.333427	0.135006
C90	C	1.736543	0.666760	0.468339
C91	C	1.156932	0.000097	-0.206563
C92	C	1.490266	0.333430	0.126770
C93	C	1.823599	0.666763	0.460104
C94	C	0.932005	0.000111	-0.026290
C95	C	1.265338	0.333445	0.307043
C96	C	1.598671	0.666778	0.640376
C97	C	0.930314	0.000126	0.076212
C98	C	1.263648	0.333459	0.409545
C99	C	1.596981	0.666792	0.742879
N100	N	0.926545	0.254934	-0.194484
N101	N	1.259878	0.588267	0.138849
N102	N	1.593212	0.921600	0.472182
C103	C	0.924090	0.000152	0.451555
C104	C	1.257424	0.333485	0.784888
C105	C	1.590757	0.666818	1.118221
C106	C	0.925819	0.000145	0.347123
C107	C	1.259152	0.333478	0.680456
C108	C	1.592485	0.666811	1.013789
C109	C	0.927202	0.000140	0.263887
C110	C	1.260535	0.333473	0.597220
C111	C	1.593869	0.666806	0.930553
C112	C	0.928931	0.000131	0.159448
C113	C	1.262264	0.333464	0.492781
C114	C	1.595597	0.666798	0.826115
C115	C	0.921028	0.000078	0.637301
C116	C	1.254361	0.333411	0.970634
C117	C	1.587694	0.666744	1.303967
C118	C	0.922718	0.000161	0.534798
C119	C	1.256052	0.333494	0.868132
C120	C	1.589385	0.666828	1.201465
H121	H	0.181282	0.000131	-0.056088
H122	H	0.514616	0.333465	0.277246
H123	H	0.847949	0.666798	0.610579
C124	C	0.343994	0.000127	-0.047432
C125	C	0.677328	0.333460	0.285901
C126	C	1.010661	0.666794	0.619234
H127	H	0.313417	0.000132	0.005610
H128	H	0.646751	0.333466	0.338943
H129	H	0.980084	0.666799	0.672276
H130	H	0.376298	0.057171	-0.046984
H131	H	0.709632	0.390504	0.286349
H132	H	1.042965	0.723837	0.619683
H133	H	0.376275	-0.056926	-0.046988
H134	H	0.709608	0.276407	0.286345
H135	H	1.042941	0.609740	0.619679
C136	C	0.305225	0.000045	-0.397435
C137	C	0.638558	0.333378	-0.064102
C138	C	0.971891	0.666711	0.269231
H139	H	0.263654	0.000048	-0.443651
H140	H	0.596987	0.333381	-0.110318
H141	H	0.930320	0.666715	0.223015
H142	H	0.336740	-0.057001	-0.403928
H143	H	0.670073	0.276333	-0.070594
H144	H	1.003406	0.609666	0.262739
H145	H	0.336759	0.057096	-0.403911
H146	H	0.670092	0.390430	-0.070578
H147	H	1.003426	0.723763	0.262755
H148	H	0.523361	0.000036	-0.318848
H149	H	0.856694	0.333369	0.014485
H150	H	1.190028	0.666703	0.347819
H151	H	0.671747	0.000014	-0.332897
H152	H	1.005080	0.333348	0.000436
H153	H	1.338414	0.666681	0.333769
C154	C	0.547811	0.000118	0.008450
C155	C	0.881144	0.333451	0.341783
C156	C	1.214477	0.666785	0.675116
H157	H	0.491916	0.000110	0.001683
H158	H	0.825250	0.333443	0.335016
H159	H	1.158583	0.666777	0.668350
H160	H	0.565021	0.057168	0.041425
H161	H	0.898354	0.390502	0.374758
H162	H	1.231687	0.723835	0.708091
H163	H	0.564999	-0.056929	0.041416
H164	H	0.898332	0.276405	0.374749
H165	H	1.231666	0.609738	0.708082
H166	H	0.147776	0.000054	-0.358470
H167	H	0.481109	0.333387	-0.025137
H168	H	0.814442	0.666720	0.308196
H169	H	0.705253	0.000098	-0.030512
H170	H	1.038586	0.333431	0.302821
H171	H	1.371920	0.666764	0.636154
