data_functionalizedCrystal
_audit_creation_method	'MofGen! by Chris Wilmer'
_symmetry_space_group_name_H-M	'P1'
_symmetry_Int_Tables_number	1
_symmetry_cell_setting	triclinic
loop_
_symmetry_equiv_pos_as_xyz
  x,y,z
_cell_length_a	21.606444
_cell_length_b	14.560438
_cell_length_c	21.606444
_cell_angle_alpha	90.003088
_cell_angle_beta	59.998659
_cell_angle_gamma	60.003336
loop_
_atom_site_label
_atom_site_type_symbol
_atom_site_fract_x
_atom_site_fract_y
_atom_site_fract_z
Zr1	Zr	0.677458	0.884784	-0.081217
O2	O	0.806578	0.738138	-0.180046
O3	O	0.548339	0.929734	-0.050920
O4	O	0.677462	0.929732	-0.180043
O5	O	0.677450	0.738148	0.050931
O6	O	0.677464	1.080870	-0.180041
O7	O	0.677455	0.738140	-0.050923
O8	O	0.446486	1.080875	0.050936
O9	O	0.908428	0.738144	-0.180046
O10	O	0.601448	1.061704	-0.037998
O11	O	0.601444	0.948917	0.038013
O12	O	0.753470	0.948914	-0.114013
O13	O	0.753465	0.836127	-0.038001
Zr14	Zr	0.677453	1.125845	0.081231
Zr15	Zr	0.677460	1.125832	-0.081214
Zr16	Zr	0.677451	0.884797	0.081229
Zr17	Zr	0.839897	0.884793	-0.081218
Zr18	Zr	0.515014	1.125836	0.081232
O19	O	0.806572	1.080895	0.050934
O20	O	0.806582	1.080877	-0.180042
O21	O	0.806568	0.738155	0.050931
O22	O	0.548333	1.272491	0.180060
O23	O	0.548343	1.272474	-0.050916
O24	O	0.548329	0.929752	0.180057
O25	O	0.677461	1.272481	-0.050917
O26	O	0.677449	1.080897	0.180058
O27	O	0.677447	0.929759	0.180056
O28	O	0.677456	1.272488	0.050937
O29	O	0.908430	0.929745	-0.180044
O30	O	0.446481	1.080884	0.180059
O31	O	0.446483	1.272485	0.180061
O32	O	0.446489	1.272476	0.050938
O33	O	0.908423	0.738153	-0.050924
O34	O	0.908425	0.929754	-0.050922
O35	O	0.601442	1.061715	0.114027
O36	O	0.601446	1.174502	0.038016
O37	O	0.753468	1.061712	-0.037999
O38	O	0.753463	0.948925	0.038013
C39	C	0.474269	1.005303	0.000008
C40	C	0.405309	1.005299	0.000009
C41	C	-0.017997	1.064205	-0.039670
C42	C	0.046803	1.064196	-0.039673
C43	C	0.079198	1.005319	0.000005
C44	C	0.046795	0.946437	0.039681
C45	C	-0.018000	0.946439	0.039680
C46	C	0.308106	0.946425	0.039689
C47	C	0.372903	0.946430	0.039689
C48	C	0.372909	1.064182	-0.039664
C49	C	0.308114	1.064185	-0.039666
C50	C	0.275720	1.005298	0.000008
C51	C	0.205457	1.005306	0.000009
C52	C	0.149455	1.005317	0.000008
C53	C	0.677452	0.703800	0.000004
C54	C	0.677451	0.601469	0.000003
C55	C	0.598099	0.612266	0.039682
C56	C	0.598103	0.516111	0.039688
C57	C	0.756818	0.398365	-0.039668
C58	C	0.756813	0.494519	-0.039670
C59	C	0.518736	0.719215	0.079355
C60	C	0.439378	0.730017	0.119036
C61	C	0.439382	0.633862	0.119043
C62	C	0.518745	0.526905	0.079368
C63	C	0.880643	1.005326	0.000006
C64	C	0.949602	1.005330	0.000006
C65	C	0.677464	1.005299	-0.203187
C66	C	0.677467	1.005294	-0.272150
C67	C	0.677459	1.306829	0.000011
C68	C	0.677460	1.409160	0.000012
C69	C	0.756820	0.946418	-0.344227
C70	C	0.756818	0.946428	-0.409022
C71	C	0.677462	1.005307	-0.401738
C72	C	0.598102	1.064191	-0.329653
C73	C	0.598106	1.064187	-0.264859
C74	C	0.598087	1.064208	-0.590956
C75	C	0.598090	1.064205	-0.655757
C76	C	0.756799	0.946449	-0.735118
C77	C	0.756803	0.946446	-0.670325
C78	C	0.677444	1.005333	-0.598246
C79	C	0.677448	1.005324	-0.527988
C80	C	0.677457	1.005311	-0.471994
C81	C	0.677447	1.005330	0.203202
C82	C	0.677444	1.005335	0.272164
C83	C	0.474272	1.306817	0.000012
C84	C	0.405313	1.409145	0.000013
C85	C	0.474260	1.005318	0.203203
C86	C	0.405297	1.005320	0.272166
C87	C	0.474263	1.306833	0.203206
C88	C	0.405302	1.409165	0.272170
C89	C	0.880648	0.703796	-0.203192
C90	C	0.949609	0.601464	-0.272156
C91	C	0.880639	0.703811	0.000003
C92	C	0.949598	0.601484	0.000001
C93	C	0.880651	1.005311	-0.203188
C94	C	0.949614	1.005309	-0.272151
C95	C	0.372931	1.398319	-0.039671
C96	C	0.308146	1.494457	-0.039685
C97	C	0.275740	1.601420	-0.000010
C98	C	0.308129	1.612244	0.039676
C99	C	0.372918	1.516106	0.039685
C100	C	0.372911	1.064200	0.344237
C101	C	0.308122	1.064197	0.409041
C102	C	0.275716	1.005320	0.401772
C103	C	0.308109	0.946432	0.329694
C104	C	0.372901	0.946429	0.264891
C105	C	0.372919	1.516106	0.264879
C106	C	0.308131	1.612267	0.329672
C107	C	0.275723	1.601486	0.401755
C108	C	0.308112	1.494534	0.409044
C109	C	0.372903	1.398375	0.344252
C110	C	0.982000	0.494523	-0.264865
C111	C	1.046808	0.398362	-0.329657
C112	C	1.079219	0.409143	-0.401740
C113	C	1.046826	0.516095	-0.409030
C114	C	0.982024	0.612254	-0.344238
C115	C	0.981987	0.612310	0.039679
C116	C	1.046790	0.516172	0.039675
C117	C	1.079198	0.409209	-0.000003
C118	C	1.046806	0.398385	-0.039685
C119	C	0.982008	0.494522	-0.039685
C120	C	0.981999	1.064198	-0.264858
C121	C	1.046788	1.064219	-0.329650
C122	C	1.079196	1.005343	-0.401734
C123	C	1.046805	0.946453	-0.409025
C124	C	0.982012	0.946439	-0.344234
H125	H	0.281737	1.112133	-0.071972
H126	H	1.073201	0.898518	-0.467724
Cl127	Cl	0.413653	1.529689	0.174268
Cl128	Cl	1.087494	0.529804	0.089570
H129	H	0.399293	1.112127	-0.071971
Cl130	Cl	0.498322	1.138190	-0.500350
Cl131	Cl	0.518726	0.840099	0.079345
Cl132	Cl	0.267360	1.481000	0.499669
Cl133	Cl	0.413628	0.872406	0.089572
H134	H	0.399261	1.311303	0.350199
Cl135	Cl	-0.058722	1.138236	-0.089547
Cl136	Cl	0.267423	1.746706	0.320490
H137	H	0.955652	0.898480	-0.350183
H138	H	0.073183	1.112136	-0.071980
H139	H	0.222966	1.679794	0.454506
Cl140	Cl	0.941292	0.480893	-0.089565
Cl141	Cl	0.941267	0.480940	-0.174254
H142	H	1.131960	0.330937	0.000003
H143	H	0.222985	1.679692	-0.000022
H144	H	0.281735	1.699346	0.071978
H145	H	0.821423	0.898495	-0.676263
H146	H	0.374765	0.642661	0.151359
H147	H	0.955606	0.699396	0.071995
Cl148	Cl	0.856566	0.872422	-0.825737
Cl149	Cl	1.087553	0.263909	-0.089559
H150	H	0.518742	0.448614	0.079382
H151	H	0.281736	0.898480	0.071996
Cl152	Cl	1.087514	0.263923	-0.320476
Cl153	Cl	0.498339	1.138213	-0.320495
H154	H	1.073224	0.524859	-0.467727
Cl155	Cl	1.160685	0.288245	-0.483187
H156	H	1.073154	1.112173	-0.323698
H157	H	0.399275	1.524937	0.072005
H158	H	0.533465	1.112155	-0.649817
Cl159	Cl	0.856581	0.263911	-0.089543
Cl160	Cl	0.856572	0.480950	-0.089551
Cl161	Cl	0.941306	0.746689	-0.353417
Cl162	Cl	0.087523	0.872415	0.089559
H163	H	-0.044378	0.898495	0.071986
Cl164	Cl	0.413633	1.138229	0.353394
H165	H	0.821442	0.898464	-0.350167
H166	H	0.955623	1.112141	-0.206170
H167	H	0.374764	0.817104	0.151342
Cl168	Cl	0.856581	0.872406	-0.499634
H169	H	0.281755	1.112154	0.467724
H170	H	1.131954	1.005363	-0.454484
Cl171	Cl	0.498343	1.138218	-0.174245
H172	H	0.399315	1.311233	-0.071989
Cl173	Cl	0.194261	1.005337	0.483247
H174	H	0.281783	1.485623	-0.072002
H175	H	0.399262	0.898486	0.206210
Cl176	Cl	0.267360	0.872423	0.320569
