data_functionalizedCrystal
_audit_creation_method	'MofGen! by Chris Wilmer'
_symmetry_space_group_name_H-M	'P1'
_symmetry_Int_Tables_number	1
_symmetry_cell_setting	triclinic
loop_
_symmetry_equiv_pos_as_xyz
  x,y,z
_cell_length_a	19.805407
_cell_length_b	16.120484
_cell_length_c	16.120256
_cell_angle_alpha	84.383827
_cell_angle_beta	87.122650
_cell_angle_gamma	92.925608
loop_
_atom_site_label
_atom_site_type_symbol
_atom_site_fract_x
_atom_site_fract_y
_atom_site_fract_z
Zn1	Zn	0.999909	-0.356764	0.489479
Zn2	Zn	1.249909	-0.106764	0.739479
Zn3	Zn	1.499909	0.143236	0.989479
Zn4	Zn	1.749909	0.393236	1.239479
Zn5	Zn	0.999824	-0.489450	0.356789
Zn6	Zn	1.249824	-0.239450	0.606789
Zn7	Zn	1.499824	0.010550	0.856789
Zn8	Zn	1.749824	0.260550	1.106789
Zn9	Zn	0.892766	-0.349696	0.349722
Zn10	Zn	1.142766	-0.099696	0.599722
Zn11	Zn	1.392766	0.150304	0.849722
Zn12	Zn	1.642766	0.400304	1.099722
Zn13	Zn	0.880647	-0.496495	0.496509
Zn14	Zn	1.130647	-0.246495	0.746509
Zn15	Zn	1.380647	0.003505	0.996509
Zn16	Zn	1.630647	0.253505	1.246509
O17	O	0.943287	-0.423101	0.423125
O18	O	1.193287	-0.173101	0.673125
O19	O	1.443287	0.076899	0.923125
O20	O	1.693287	0.326899	1.173125
O21	O	1.094613	-0.374375	0.471893
O22	O	1.344613	-0.124375	0.721893
O23	O	1.594613	0.125625	0.971893
O24	O	1.844613	0.375625	1.221893
O25	O	0.990659	-0.465004	0.238889
O26	O	1.240659	-0.215004	0.488889
O27	O	1.490659	0.034996	0.738889
O28	O	1.740659	0.284996	0.988889
O29	O	0.912086	-0.233668	0.362361
O30	O	1.162086	0.016332	0.612361
O31	O	1.412086	0.266332	0.862361
O32	O	1.662086	0.516332	1.112361
O33	O	1.094551	-0.471858	0.374406
O34	O	1.344551	-0.221858	0.624406
O35	O	1.594551	0.028142	0.874406
O36	O	1.844551	0.278142	1.124406
O37	O	0.990804	-0.238861	0.465040
O38	O	1.240804	0.011139	0.715040
O39	O	1.490804	0.261139	0.965040
O40	O	1.740804	0.511139	1.215040
O41	O	0.912004	-0.362328	0.233697
O42	O	1.162004	-0.112328	0.483697
O43	O	1.412004	0.137672	0.733697
O44	O	1.662004	0.387672	0.983697
O45	O	0.796443	-0.369159	0.369178
O46	O	1.046443	-0.119159	0.619178
O47	O	1.296443	0.130841	0.869178
O48	O	1.546443	0.380841	1.119178
O49	O	0.891431	-0.483866	0.612539
O50	O	1.141431	-0.233866	0.862539
O51	O	1.391431	0.016134	1.112539
O52	O	1.641431	0.266134	1.362539
O53	O	0.787539	-0.477012	0.477022
O54	O	1.037539	-0.227012	0.727022
O55	O	1.287539	0.022988	0.977022
O56	O	1.537539	0.272988	1.227022
O57	O	0.979052	-0.381206	0.607374
O58	O	1.229052	-0.131206	0.857374
O59	O	1.479052	0.118794	1.107374
O60	O	1.729052	0.368794	1.357374
O61	O	0.978907	-0.607350	0.381223
O62	O	1.228907	-0.357350	0.631223
O63	O	1.478907	-0.107350	0.881223
O64	O	1.728907	0.142650	1.131223
O65	O	0.891349	-0.612526	0.483875
O66	O	1.141349	-0.362526	0.733875
O67	O	1.391349	-0.112526	0.983875
O68	O	1.641349	0.137474	1.233875
C69	C	0.767432	-0.423084	0.423097
C70	C	1.017432	-0.173084	0.673097
C71	C	1.267432	0.076916	0.923097
C72	C	1.517432	0.326916	1.173097
C73	C	0.692199	-0.423098	0.423106
C74	C	0.942199	-0.173098	0.673106
C75	C	1.192199	0.076902	0.923106
C76	C	1.442199	0.326902	1.173106
C77	C	0.652237	-0.479333	0.479178
C78	C	0.902237	-0.229333	0.729178
C79	C	1.152237	0.020667	0.979178
C80	C	1.402237	0.270667	1.229178
C81	C	0.581548	-0.479335	0.479190
C82	C	0.831548	-0.229335	0.729190
C83	C	1.081548	0.020665	0.979190
C84	C	1.331548	0.270665	1.229190
C85	C	0.550823	-0.423105	0.423125
C86	C	0.800823	-0.173105	0.673125
C87	C	1.050823	0.076895	0.923125
C88	C	1.300823	0.326895	1.173125
C89	C	0.590790	-0.366864	0.367050
C90	C	0.840790	-0.116864	0.617050
C91	C	1.090790	0.133136	0.867050
C92	C	1.340790	0.383136	1.117050
C93	C	0.661478	-0.366859	0.367043
C94	C	0.911478	-0.116859	0.617043
C95	C	1.161478	0.133141	0.867043
C96	C	1.411478	0.383141	1.117043
C97	C	0.305715	-0.366884	0.367079
C98	C	0.555715	-0.116884	0.617079
C99	C	0.805715	0.133116	0.867079
C100	C	1.055715	0.383116	1.117079
C101	C	0.235022	-0.366895	0.367089
C102	C	0.485022	-0.116895	0.617089
C103	C	0.735022	0.133105	0.867089
C104	C	0.985022	0.383105	1.117089
C105	C	0.225785	-0.479360	0.479225
C106	C	0.475785	-0.229360	0.729225
C107	C	0.725785	0.020640	0.979225
C108	C	0.975785	0.270640	1.229225
C109	C	0.296473	-0.479355	0.479218
C110	C	0.546473	-0.229355	0.729218
C111	C	0.796473	0.020645	0.979218
C112	C	1.046473	0.270645	1.229218
C113	C	0.336434	-0.423111	0.423147
C114	C	0.586434	-0.173111	0.673147
C115	C	0.836434	0.076889	0.923147
C116	C	1.086434	0.326889	1.173147
C117	C	0.413083	-0.423108	0.423136
C118	C	0.663083	-0.173108	0.673136
C119	C	0.913083	0.076892	0.923136
C120	C	1.163083	0.326892	1.173136
C121	C	0.474175	-0.423111	0.423131
C122	C	0.724175	-0.173111	0.673131
C123	C	0.974175	0.076889	0.923131
C124	C	1.224175	0.326889	1.173131
C125	C	0.933821	-0.640267	0.434097
C126	C	1.183821	-0.390267	0.684097
C127	C	1.433821	-0.140267	0.934097
C128	C	1.683821	0.109733	1.184097
C129	C	0.929833	-0.733172	0.438818
C130	C	1.179833	-0.483172	0.688818
C131	C	1.429833	-0.233172	0.938818
C132	C	1.679833	0.016828	1.188818
C133	C	0.922554	-0.903273	0.447456
C134	C	1.172554	-0.653273	0.697456
C135	C	1.422554	-0.403273	0.947456
C136	C	1.672554	-0.153273	1.197456
C137	C	0.964140	-0.942090	0.398807
C138	C	1.214140	-0.692090	0.648807
C139	C	1.464140	-0.442090	0.898807
C140	C	1.714140	-0.192090	1.148807
C141	C	0.960090	-1.036740	0.403613
C142	C	1.210090	-0.786740	0.653613
C143	C	1.460090	-0.536740	0.903613
C144	C	1.710090	-0.286740	1.153613
C145	C	0.926603	-0.808614	0.442651
C146	C	1.176603	-0.558614	0.692651
C147	C	1.426603	-0.308614	0.942651
C148	C	1.676603	-0.058614	1.192651
C149	C	1.119827	-0.423119	0.423153
C150	C	1.369827	-0.173119	0.673153
C151	C	1.619827	0.076881	0.923153
C152	C	1.869827	0.326881	1.173153
C153	C	1.195059	-0.423127	0.423165
C154	C	1.445059	-0.173127	0.673165
C155	C	1.695059	0.076873	0.923165
C156	C	1.945059	0.326873	1.173165
C157	C	0.933900	-0.434111	0.641132
C158	C	1.183900	-0.184111	0.891132
C159	C	1.433900	0.065889	1.141132
C160	C	1.683900	0.315889	1.391132
C161	C	0.929899	-0.438802	0.734033
C162	C	1.179899	-0.188802	0.984033
C163	C	1.429899	0.061198	1.234033
C164	C	1.679899	0.311198	1.484033
C165	C	0.952806	-0.205089	0.412128
C166	C	1.202806	0.044911	0.662128
C167	C	1.452806	0.294911	0.912128
C168	C	1.702806	0.544911	1.162128
C169	C	0.956863	-0.112185	0.407442
C170	C	1.206863	0.137815	0.657442
C171	C	1.456863	0.387815	0.907442
C172	C	1.706863	0.637815	1.157442
C173	C	0.952679	-0.412074	0.205963
C174	C	1.202679	-0.162074	0.455963
C175	C	1.452679	0.087926	0.705963
C176	C	1.702679	0.337926	0.955963
C177	C	0.956820	-0.407147	0.113050
C178	C	1.206820	-0.157147	0.363050
C179	C	1.456820	0.092853	0.613050
C180	C	1.706820	0.342853	0.863050
C181	C	0.964147	-0.398614	0.942960
C182	C	1.214147	-0.148614	1.192960
C183	C	1.464147	0.101386	1.442960
C184	C	1.714147	0.351386	1.692960
C185	C	0.922575	-0.447333	0.904118
C186	C	1.172575	-0.197333	1.154118
C187	C	1.422575	0.052667	1.404118
C188	C	1.672575	0.302667	1.654118
C189	C	0.926651	-0.442585	0.809474
C190	C	1.176651	-0.192585	1.059474
C191	C	1.426651	0.057415	1.309474
C192	C	1.676651	0.307415	1.559474
C193	C	0.960071	-0.403361	1.037612
C194	C	1.210071	-0.153361	1.287612
C195	C	1.460071	0.096639	1.537612
C196	C	1.710071	0.346639	1.787612
H197	H	0.321485	-0.525145	0.524869
H198	H	0.571485	-0.275145	0.774869
H199	H	0.821485	-0.025145	1.024869
H200	H	1.071485	0.224855	1.274869
O201	O	1.015329	-0.891957	0.338853
O202	O	1.265329	-0.641957	0.588853
O203	O	1.515329	-0.391957	0.838853
O204	O	1.765329	-0.141957	1.088853
H205	H	1.005888	-0.905388	0.274076
H206	H	1.255888	-0.655388	0.524076
H207	H	1.505888	-0.405388	0.774076
H208	H	1.755888	-0.155388	1.024076
O209	O	0.871355	-0.953400	0.507392
O210	O	1.121355	-0.703400	0.757392
O211	O	1.371355	-0.453400	1.007392
O212	O	1.621355	-0.203400	1.257392
H213	H	0.876163	-1.020950	0.501794
H214	H	1.126163	-0.770950	0.751794
H215	H	1.376163	-0.520950	1.001794
H216	H	1.626163	-0.270950	1.251794
H217	H	0.883919	-0.492604	0.941944
H218	H	1.133919	-0.242604	1.191944
H219	H	1.383919	0.007396	1.441944
H220	H	1.633919	0.257396	1.691944
O221	O	0.182680	-0.540072	0.539655
O222	O	0.432680	-0.290072	0.789655
O223	O	0.682680	-0.040072	1.039655
O224	O	0.932680	0.209928	1.289655
H225	H	0.215922	-0.579196	0.578611
H226	H	0.465922	-0.329196	0.828611
H227	H	0.715922	-0.079196	1.078611
H228	H	0.965922	0.170804	1.328611
H229	H	1.002797	-0.353342	0.905136
H230	H	1.252797	-0.103342	1.155136
H231	H	1.502797	0.146658	1.405136
H232	H	1.752797	0.396658	1.655136
H233	H	0.677248	-0.525124	0.524830
H234	H	0.927248	-0.275124	0.774830
H235	H	1.177248	-0.025124	1.024830
H236	H	1.427248	0.224876	1.274830
O237	O	0.201873	-0.306247	0.306620
O238	O	0.451873	-0.056247	0.556620
O239	O	0.701873	0.193753	0.806620
O240	O	0.951873	0.443753	1.056620
H241	H	0.217663	-0.241395	0.317755
H242	H	0.467663	0.008605	0.567755
H243	H	0.717663	0.258605	0.817755
H244	H	0.967663	0.508605	1.067755
O245	O	0.538510	-0.540141	0.539587
O246	O	0.788510	-0.290141	0.789587
O247	O	1.038510	-0.040141	1.039587
O248	O	1.288510	0.209859	1.289587
H249	H	0.549868	-0.529347	0.604524
H250	H	0.799868	-0.279347	0.854524
H251	H	1.049868	-0.029347	1.104524
H252	H	1.299868	0.220653	1.354524
O253	O	0.348813	-0.306249	0.306580
O254	O	0.598813	-0.056249	0.556580
O255	O	0.848813	0.193751	0.806580
O256	O	1.098813	0.443751	1.056580
H257	H	0.315570	-0.267166	0.267584
H258	H	0.565570	-0.017166	0.517584
H259	H	0.815570	0.232834	0.767584
H260	H	1.065570	0.482834	1.017584
H261	H	0.565768	-0.321077	0.321405
H262	H	0.815768	-0.071077	0.571405
H263	H	1.065768	0.178923	0.821405
H264	H	1.315768	0.428923	1.071405
O265	O	0.704586	-0.306206	0.306566
O266	O	0.954586	-0.056206	0.556566
O267	O	1.204586	0.193794	0.806566
O268	O	1.454586	0.443794	1.056566
H269	H	0.736996	-0.341398	0.265871
H270	H	0.986996	-0.091398	0.515871
H271	H	1.236996	0.158602	0.765871
H272	H	1.486996	0.408602	1.015871
