data_functionalizedCrystal
_audit_creation_method	'MofGen! by Chris Wilmer'
_symmetry_space_group_name_H-M	'P1'
_symmetry_Int_Tables_number	1
_symmetry_cell_setting	triclinic
loop_
_symmetry_equiv_pos_as_xyz
  x,y,z
_cell_length_a	19.077105
_cell_length_b	25.639240
_cell_length_c	25.639233
_cell_angle_alpha	90.020815
_cell_angle_beta	87.689938
_cell_angle_gamma	92.260681
loop_
_atom_site_label
_atom_site_type_symbol
_atom_site_fract_x
_atom_site_fract_y
_atom_site_fract_z
Zn1	Zn	1.075832	0.240381	-0.327679
Zn2	Zn	1.575832	0.740381	0.172321
Zn3	Zn	1.075720	0.327796	-0.240237
Zn4	Zn	1.575720	0.827796	0.259763
Zn5	Zn	0.958149	0.236861	-0.236749
Zn6	Zn	1.458149	0.736861	0.263251
Zn7	Zn	0.958066	0.324266	-0.324133
Zn8	Zn	1.458066	0.824266	0.175867
O9	O	1.016941	0.282326	-0.282200
O10	O	1.516941	0.782326	0.217800
O11	O	1.174306	0.254927	-0.319023
O12	O	1.674306	0.754927	0.180977
O13	O	1.060111	0.315738	-0.166609
O14	O	1.560111	0.815738	0.333391
O15	O	0.973841	0.164165	-0.248835
O16	O	1.473841	0.664165	0.251165
O17	O	1.174224	0.319151	-0.254780
O18	O	1.674224	0.819151	0.245220
O19	O	1.060303	0.166751	-0.315641
O20	O	1.560303	0.666751	0.184359
O21	O	0.973733	0.248929	-0.164046
O22	O	1.473733	0.748929	0.335954
O23	O	0.859649	0.245505	-0.245397
O24	O	1.359649	0.745505	0.254603
O25	O	0.973700	0.313134	-0.397769
O26	O	1.473700	0.813134	0.102231
O27	O	0.859588	0.309721	-0.309598
O28	O	1.359588	0.809721	0.190402
O29	O	1.060222	0.251504	-0.400374
O30	O	1.560222	0.751504	0.099626
O31	O	1.060031	0.400491	-0.251342
O32	O	1.560031	0.900491	0.248658
O33	O	0.973591	0.397897	-0.312980
O34	O	1.473591	0.897897	0.187020
C35	C	0.834081	0.276849	-0.276735
C36	C	1.334081	0.776849	0.223265
C37	C	0.755852	0.274518	-0.274409
C38	C	1.255852	0.774518	0.225591
C39	C	1.016809	0.418165	-0.282167
C40	C	1.516809	0.918165	0.217833
C41	C	1.016816	0.476279	-0.282172
C42	C	1.516816	0.976279	0.217828
C43	C	0.719087	0.306907	-0.306690
C44	C	1.219087	0.806907	0.193310
C45	C	0.645583	0.304710	-0.304507
C46	C	1.145583	0.804710	0.195493
C47	C	0.608846	0.270127	-0.270041
C48	C	1.108846	0.770127	0.229959
C49	C	0.645616	0.237734	-0.237758
C50	C	1.145616	0.737734	0.262242
C51	C	0.719119	0.239929	-0.239944
C52	C	1.219119	0.739929	0.260056
C53	C	0.389018	0.259970	-0.259928
C54	C	0.889018	0.759970	0.240072
C55	C	0.315510	0.257779	-0.257743
C56	C	0.815510	0.757779	0.242257
C57	C	0.315482	0.324755	-0.324493
C58	C	0.815482	0.824755	0.175507
C59	C	0.388986	0.326949	-0.326674
C60	C	0.888986	0.826949	0.173326
C61	C	0.425750	0.294554	-0.294393
C62	C	0.925750	0.794554	0.205607
N63	N	0.533713	0.267882	-0.267808
N64	N	1.033713	0.767882	0.232192
N65	N	0.500882	0.296797	-0.296629
N66	N	1.000882	0.796797	0.203371
C67	C	1.062010	0.837985	-0.250143
C68	C	1.562010	1.337985	0.249857
C69	C	1.062031	0.892590	-0.250149
C70	C	1.562031	1.392590	0.249851
O71	O	1.100363	0.921967	-0.222898
O72	O	1.600363	1.421967	0.277102
N73	N	1.016998	0.918567	-0.282213
N74	N	1.516998	1.418567	0.217787
C75	C	0.971946	0.889935	-0.314277
C76	C	1.471946	1.389935	0.185723
O77	O	0.933644	0.917044	-0.341551
O78	O	1.433644	1.417044	0.158449
C79	C	0.971928	0.835332	-0.314274
C80	C	1.471928	1.335332	0.185726
C81	C	1.016959	0.809358	-0.282204
C82	C	1.516959	1.309358	0.217796
C83	C	1.107038	0.812012	-0.218076
C84	C	1.607038	1.312012	0.281924
C85	C	1.107015	0.757410	-0.218070
C86	C	1.607015	1.257410	0.281930
C87	C	1.061964	0.728783	-0.250131
C88	C	1.561964	1.228783	0.249869
C89	C	1.016937	0.754757	-0.282198
C90	C	1.516937	1.254757	0.217802
C91	C	0.926880	0.806701	-0.346341
C92	C	1.426880	1.306701	0.153659
C93	C	0.926867	0.752094	-0.346335
C94	C	1.426867	1.252094	0.153665
C95	C	0.971898	0.726120	-0.314265
C96	C	1.471898	1.226120	0.185735
C97	C	0.971864	0.671528	-0.314252
C98	C	1.471864	1.171528	0.185748
N99	N	1.016897	0.645552	-0.282188
N100	N	1.516897	1.145552	0.217812
C101	C	1.061947	0.674179	-0.250127
C102	C	1.561947	1.174179	0.249873
C103	C	0.971987	1.004607	-0.314282
C104	C	1.471987	1.504607	0.185718
C105	C	0.972000	1.059210	-0.314283
C106	C	1.472000	1.559210	0.185717
C107	C	1.062087	1.061861	-0.250156
C108	C	1.562087	1.561861	0.249844
C109	C	1.062069	1.007257	-0.250152
C110	C	1.562069	1.507257	0.249848
C111	C	1.017020	0.978631	-0.282218
C112	C	1.517020	1.478631	0.217782
C113	C	1.061896	0.559513	-0.250116
C114	C	1.561896	1.059513	0.249884
C115	C	1.061867	0.504906	-0.250111
C116	C	1.561867	1.004906	0.249889
C117	C	0.971783	0.502260	-0.314241
C118	C	1.471783	1.002260	0.185759
C119	C	0.971809	0.556861	-0.314244
C120	C	1.471809	1.056861	0.185756
C121	C	1.016871	0.585487	-0.282180
C122	C	1.516871	1.085487	0.217820
O123	O	0.933554	0.642118	-0.341491
O124	O	1.433554	1.142118	0.158509
O125	O	1.100249	0.647064	-0.222863
O126	O	1.600249	1.147064	0.277137
C127	C	1.200516	0.287825	-0.287686
C128	C	1.700516	0.787825	0.212314
C129	C	1.278745	0.290169	-0.290024
C130	C	1.778745	0.790169	0.209976
C131	C	1.016964	0.282318	-0.418573
C132	C	1.516964	0.782318	0.081427
C133	C	1.016974	0.282314	-0.476688
C134	C	1.516974	0.782314	0.023312
C135	C	1.017067	1.145957	-0.282235
C136	C	1.517067	1.645957	0.217765
C137	C	1.017054	1.087842	-0.282224
C138	C	1.517054	1.587842	0.217776
C139	C	1.062083	0.250126	-0.838415
C140	C	1.562083	0.750126	-0.338415
C141	C	1.062092	0.250111	-0.893019
C142	C	1.562092	0.750111	-0.393019
O143	O	1.100388	0.222803	-0.922414
O144	O	1.600388	0.722803	-0.422414
N145	N	1.017051	0.282194	-0.918973
N146	N	1.517051	0.782194	-0.418973
C147	C	0.971994	0.314288	-0.890318
C148	C	1.471994	0.814288	-0.390318
O149	O	0.933685	0.341575	-0.917408
O150	O	1.433685	0.841575	-0.417408
C151	C	0.971983	0.314299	-0.835715
C152	C	1.471983	0.814299	-0.335715
C153	C	1.017031	0.282219	-0.809764
C154	C	1.517031	0.782219	-0.309764
C155	C	1.107127	0.218047	-0.812464
C156	C	1.607127	0.718047	-0.312464
C157	C	1.107119	0.218062	-0.757863
C158	C	1.607119	0.718062	-0.257863
C159	C	1.062067	0.250156	-0.729213
C160	C	1.562067	0.750156	-0.229213
C161	C	1.017023	0.282234	-0.755164
C162	C	1.517023	0.782234	-0.255164
C163	C	0.926923	0.346391	-0.807061
C164	C	1.426923	0.846391	-0.307061
C165	C	0.926915	0.346399	-0.752454
C166	C	1.426915	0.846399	-0.252454
C167	C	0.971963	0.314319	-0.726504
C168	C	1.471963	0.814319	-0.226504
C169	C	0.971963	0.314342	-0.671912
C170	C	1.471963	0.814342	-0.171912
N171	N	1.017003	0.282260	-0.645959
N172	N	1.517003	0.782260	-0.145959
C173	C	1.062055	0.250167	-0.674609
C174	C	1.562055	0.750167	-0.174609
C175	C	0.972022	0.314262	-1.004990
C176	C	1.472022	0.814262	-0.504990
C177	C	0.972036	0.314254	-1.059593
C178	C	1.472036	0.814254	-0.559593
C179	C	1.062133	0.250076	-1.062290
C180	C	1.562133	0.750076	-0.562290
C181	C	1.062121	0.250087	-1.007686
C182	C	1.562121	0.750087	-0.507686
C183	C	1.017062	0.282180	-0.979036
C184	C	1.517062	0.782180	-0.479036
C185	C	1.062036	0.250201	-0.559944
C186	C	1.562036	0.750201	-0.059944
C187	C	1.062026	0.250221	-0.505338
C188	C	1.562026	0.750221	-0.005338
C189	C	0.971927	0.314396	-0.502646
C190	C	1.471927	0.814396	-0.002646
C191	C	0.971939	0.314379	-0.557247
C192	C	1.471939	0.814379	-0.057247
C193	C	1.016996	0.282277	-0.585894
C194	C	1.516996	0.782277	-0.085894
O195	O	0.933684	0.341635	-0.642484
O196	O	1.433684	0.841635	-0.142484
O197	O	1.100352	0.222879	-0.647513
O198	O	1.600352	0.722879	-0.147513
C199	C	1.016959	0.282298	-0.146358
C200	C	1.516959	0.782298	0.353642
C201	C	1.017086	0.282158	-0.088248
C202	C	1.517086	0.782158	0.411752
H203	H	0.748993	0.335071	-0.334755
H204	H	1.248993	0.835071	0.165245
C205	C	1.156666	0.182763	-0.729325
C206	C	1.656666	0.682763	-0.229325
N207	N	1.193984	0.156171	-0.707833
N208	N	1.693984	0.656171	-0.207833
H209	H	1.098723	0.224059	-0.583262
H210	H	1.598723	0.724059	-0.083262
H211	H	0.890239	0.372514	-0.828181
H212	H	1.390239	0.872514	-0.328181
H213	H	0.935264	0.340507	-0.578377
H214	H	1.435264	0.840507	-0.078377
H215	H	0.285541	0.351128	-0.350775
H216	H	0.785541	0.851128	0.149225
H217	H	0.935328	0.340398	-0.981667
H218	H	1.435328	0.840398	-0.481667
H219	H	0.285600	0.229611	-0.229680
H220	H	0.785600	0.729611	0.270320
C221	C	1.111403	0.476339	-0.214828
C222	C	1.611403	0.976339	0.285172
N223	N	1.148712	0.454823	-0.188252
N224	N	1.648712	0.954823	0.311748
H225	H	1.098591	0.582813	-0.224008
H226	H	1.598591	1.082813	0.275992
C227	C	0.429449	0.224338	-0.224415
C228	C	0.929449	0.724338	0.275585
N229	N	0.459904	0.197499	-0.197664
N230	N	0.959904	0.697499	0.302336
H231	H	1.098802	0.223963	-0.986561
H232	H	1.598802	0.723963	-0.486561
H233	H	0.615699	0.209573	-0.209697
H234	H	1.115699	0.709573	0.290303
H235	H	1.143685	0.736266	-0.191957
H236	H	1.643685	1.236266	0.308043
H237	H	0.749052	0.213551	-0.213660
H238	H	1.249052	0.713551	0.286340
H239	H	0.890213	0.372528	-0.729130
H240	H	1.390213	0.872528	-0.229130
C241	C	0.605145	0.340351	-0.340009
C242	C	1.105145	0.840351	0.159991
N243	N	0.574687	0.367201	-0.366747
N244	N	1.074687	0.867201	0.133253
C245	C	0.922369	0.349694	-0.471120
C246	C	1.422369	0.849694	0.028880
N247	N	0.885036	0.376278	-0.447373
N248	N	1.385036	0.876278	0.052627
C249	C	0.877343	0.835260	-0.381623
C250	C	1.377343	1.335260	0.118377
N251	N	0.840031	0.856770	-0.408200
N252	N	1.340031	1.356770	0.091800
H253	H	0.935325	1.080353	-0.340393
H254	H	1.435325	1.580353	0.159607
H255	H	1.143727	0.835315	-0.191968
H256	H	1.643727	1.335315	0.308032
C257	C	0.429392	0.364996	-0.364587
C258	C	0.929392	0.864996	0.135413
N259	N	0.459825	0.393656	-0.393142
N260	N	0.959825	0.893656	0.106858
H261	H	0.935143	0.578010	-0.340360
H262	H	1.435143	1.078010	0.159640
C263	C	1.156695	0.182741	-0.843971
C264	C	1.656695	0.682741	-0.343971
N265	N	1.194037	0.156149	-0.867699
N266	N	1.694037	0.656149	-0.367699
H267	H	1.098738	0.986113	-0.224038
H268	H	1.598738	1.486113	0.275962
H269	H	1.098815	0.223943	-1.085627
H270	H	1.598815	0.723943	-0.585627
H271	H	0.935101	0.478943	-0.340343
H272	H	1.435101	0.978943	0.159657
H273	H	1.098772	1.085180	-0.224052
H274	H	1.598772	1.585180	0.275948
H275	H	0.935296	0.981302	-0.340393
H276	H	1.435296	1.481302	0.159607
H277	H	0.935361	0.340383	-1.080717
H278	H	1.435361	0.840383	-0.580717
H279	H	0.890183	0.728789	-0.372449
H280	H	1.390183	1.228789	0.127551
H281	H	1.098712	0.224096	-0.484212
H282	H	1.598712	0.724096	0.015788
