data_functionalizedCrystal
_audit_creation_method	'MofGen! by Chris Wilmer'
_symmetry_space_group_name_H-M	'P1'
_symmetry_Int_Tables_number	1
_symmetry_cell_setting	triclinic
loop_
_symmetry_equiv_pos_as_xyz
  x,y,z
_cell_length_a	8.497374
_cell_length_b	18.215407
_cell_length_c	18.215405
_cell_angle_alpha	89.974667
_cell_angle_beta	89.985971
_cell_angle_gamma	90.003703
loop_
_atom_site_label
_atom_site_type_symbol
_atom_site_fract_x
_atom_site_fract_y
_atom_site_fract_z
Zn1	Zn	0.891978	1.124955	0.293103
Zn2	Zn	0.628155	1.124898	0.416139
Zn3	Zn	0.628196	1.001922	0.293092
Zn4	Zn	0.891878	1.001853	0.416133
O5	O	0.760052	1.063407	0.354617
O6	O	0.857006	1.227931	0.309431
O7	O	0.407398	1.108590	0.399814
O8	O	0.663247	1.018295	0.190109
O9	O	0.663177	1.227890	0.399825
O10	O	0.857046	1.108687	0.190117
O11	O	0.407429	1.018240	0.309412
O12	O	0.663149	0.898929	0.309406
O13	O	1.112653	1.018178	0.399816
O14	O	0.856875	0.898878	0.399805
O15	O	1.112727	1.108620	0.309426
O16	O	0.663079	1.108523	0.519122
O17	O	0.856835	1.018123	0.519118
C18	C	0.760007	0.872201	0.354604
C19	C	0.760025	0.790402	0.354616
C20	C	0.860771	0.602201	0.401761
C21	C	0.860791	0.525342	0.401763
C22	C	0.659367	0.525365	0.307486
C23	C	0.659357	0.602222	0.307481
C24	C	0.760056	0.640638	0.354622
C25	C	0.760086	0.486922	0.354630
C26	C	0.760107	0.403589	0.354632
C27	C	0.760038	0.723977	0.354619
C28	C	0.759976	1.063329	0.545823
C29	C	0.759996	1.063363	0.627622
C30	C	1.171532	1.063401	0.354618
C31	C	1.350176	1.063403	0.354626
C32	C	0.760098	1.255360	0.354630
C33	C	0.760118	1.337159	0.354636
C34	C	0.760163	1.063505	0.162664
C35	C	0.760210	1.063547	0.080865
C36	C	0.659293	1.110545	0.815793
C37	C	0.659332	1.110578	0.892652
C38	C	0.860924	1.016363	0.892688
C39	C	0.860892	1.016334	0.815831
C40	C	0.760068	1.063424	0.777385
C41	C	0.760138	1.063486	0.931101
C42	C	0.760180	1.063521	1.014435
C43	C	0.760028	1.063390	0.694046
H44	H	0.942771	0.633477	0.440145
C45	C	0.637784	1.209664	0.978940
C46	C	0.548612	1.162424	0.934842
H47	H	0.569443	1.241690	1.004974
H48	H	0.697759	1.181626	1.012857
H49	H	0.706609	1.237723	0.948891
H50	H	0.479795	1.134361	0.964892
H51	H	0.488610	1.190465	0.900921
C52	C	0.569912	0.720052	0.265610
C53	C	0.548644	0.644480	0.255662
H54	H	0.501574	0.746138	0.233616
H55	H	0.546629	0.732623	0.315033
H56	H	0.675955	0.732647	0.254915
H57	H	0.442603	0.631883	0.266362
H58	H	0.571915	0.631904	0.206227
H59	H	0.577199	1.148890	0.784493
C60	C	0.950470	0.974566	1.010521
C61	C	0.971729	0.964595	0.934950
H62	H	1.018870	0.942601	1.036609
H63	H	0.973674	1.024001	1.023070
H64	H	0.844449	0.963845	1.023138
H65	H	1.077748	0.975321	0.922333
H66	H	0.948536	0.915149	0.922396
C67	C	1.060159	0.923200	0.823580
C68	C	0.971670	0.964533	0.773607
H69	H	1.128539	0.891221	0.797511
H70	H	1.120581	0.955248	0.853517
H71	H	0.991364	0.895090	0.853595
H72	H	1.040465	0.992648	0.743595
H73	H	0.911243	0.932481	0.743656
H74	H	0.942805	0.494050	0.440147
C75	C	0.569947	0.407558	0.265633
C76	C	0.548676	0.483135	0.255673
H77	H	0.501600	0.381490	0.233647
H78	H	0.675975	0.394977	0.254940
H79	H	0.546664	0.394950	0.315065
H80	H	0.571971	0.495745	0.206241
H81	H	0.442624	0.495721	0.266360
