data_functionalizedCrystal
_audit_creation_method	'MofGen! by Chris Wilmer'
_symmetry_space_group_name_H-M	'P1'
_symmetry_Int_Tables_number	1
_symmetry_cell_setting	triclinic
loop_
_symmetry_equiv_pos_as_xyz
  x,y,z
_cell_length_a	10.654550
_cell_length_b	10.654550
_cell_length_c	9.130313
_cell_angle_alpha	90.000276
_cell_angle_beta	89.995631
_cell_angle_gamma	95.515069
loop_
_atom_site_label
_atom_site_type_symbol
_atom_site_fract_x
_atom_site_fract_y
_atom_site_fract_z
O1	O	0.176399	-1.667839	-0.121690
O2	O	0.193205	-1.302361	-0.121716
O3	O	0.002063	-1.493503	-0.121693
O4	O	0.367541	-1.476697	-0.121713
O5	O	0.002057	-1.493490	0.121906
O6	O	0.193199	-1.302348	0.121882
O7	O	0.176393	-1.667826	0.121909
Cu8	Cu	0.184796	-1.485086	0.144138
Cu9	Cu	0.184802	-1.485101	-0.143946
O10	O	0.367535	-1.476684	0.121886
C11	C	0.191968	-1.255556	0.000080
C12	C	0.188276	-1.116113	0.000070
C13	C	-0.044738	-1.492263	0.000105
C14	C	-0.184181	-1.488571	0.000103
N15	N	0.184790	-1.485084	0.346761
C16	C	-0.263667	-1.601112	0.000111
C17	C	-0.394688	-1.597636	0.000092
C18	C	-0.366725	-1.369066	0.000065
C19	C	-0.235706	-1.372544	0.000073
C20	C	0.414336	-1.477925	0.000084
C21	C	0.553779	-1.481616	0.000077
C22	C	0.177630	-1.714631	0.000110
C23	C	0.181322	-1.854074	0.000110
C24	C	0.300818	-1.036628	0.000068
C25	C	0.297341	-0.905607	0.000093
C26	C	0.068772	-0.933570	0.000117
C27	C	0.072250	-1.064588	0.000101
N28	N	0.184798	-1.485113	-0.346568
C29	C	0.100188	-1.569751	0.423423
C30	C	0.100189	-1.569763	0.576760
C31	C	0.269404	-1.400437	0.576759
C32	C	0.269396	-1.400420	0.423425
H33	H	-0.459401	-1.689279	0.000096
H34	H	-0.019401	-1.129309	0.000107
H35	H	-0.170985	-1.280893	0.000062
N36	N	-0.056359	-0.877982	0.000152
H37	H	-0.062898	-0.824239	-0.090143
H38	H	-0.127058	-0.948285	0.000213
N39	N	-0.208094	-1.726251	0.000141
H40	H	-0.236995	-1.775616	-0.090158
H41	H	-0.113043	-1.711275	0.000206
H42	H	0.395294	-1.078574	0.000053
N43	N	0.008938	-1.661060	0.340732
H44	H	-0.044658	-1.714695	0.412571
H45	H	-0.047036	-1.612495	0.277128
H46	H	0.338290	-1.331468	0.361002
N47	N	0.418707	-0.819847	0.000094
H48	H	0.422338	-0.764883	0.090411
H49	H	0.492682	-0.872434	0.000021
N50	N	0.360669	-1.309144	0.659452
H51	H	0.414262	-1.255504	0.587615
H52	H	0.312077	-1.253216	0.723094
N53	N	0.008950	-1.661095	0.659442
H54	H	0.021786	-1.648261	0.768212
H55	H	-0.080286	-1.645822	0.632653
H56	H	-0.408693	-1.274601	0.000043
