data_functionalizedCrystal
_audit_creation_method	'MofGen! by Chris Wilmer'
_symmetry_space_group_name_H-M	'P1'
_symmetry_Int_Tables_number	1
_symmetry_cell_setting	triclinic
loop_
_symmetry_equiv_pos_as_xyz
  x,y,z
_cell_length_a	12.759401
_cell_length_b	12.594516
_cell_length_c	12.759393
_cell_angle_alpha	90.030800
_cell_angle_beta	90.018496
_cell_angle_gamma	90.011977
loop_
_atom_site_label
_atom_site_type_symbol
_atom_site_fract_x
_atom_site_fract_y
_atom_site_fract_z
Zn1	Zn	1.606276	-0.423675	0.593987
Zn2	Zn	1.606180	-0.601694	0.418309
Zn3	Zn	1.430578	-0.423730	0.418326
Zn4	Zn	1.430576	-0.601612	0.593951
O5	O	1.518403	-0.512678	0.506143
O6	O	1.753285	-0.447300	0.570691
O7	O	1.582846	-0.578144	0.271291
O8	O	1.453927	-0.274777	0.441650
O9	O	1.753213	-0.578090	0.441621
O10	O	1.583011	-0.274736	0.570707
O11	O	1.453833	-0.447395	0.271303
O12	O	1.283557	-0.447316	0.441615
O13	O	1.453922	-0.577951	0.740977
O14	O	1.283555	-0.578005	0.570646
O15	O	1.583009	-0.447221	0.741003
O16	O	1.582844	-0.750629	0.441586
O17	O	1.453829	-0.750569	0.570629
C18	C	1.245435	-0.512658	0.506129
C19	C	1.128659	-0.512676	0.506148
C20	C	1.073823	-0.580834	0.573223
C21	C	0.964099	-0.580848	0.573234
C22	C	0.964056	-0.444541	0.439087
C23	C	1.073778	-0.444523	0.439081
C24	C	1.073847	-0.659533	0.650669
C25	C	0.964123	-0.659547	0.650681
C26	C	1.518354	-0.789219	0.506125
C27	C	1.518429	-0.907524	0.506152
C28	C	1.588682	-0.976771	0.436041
C29	C	1.614358	-1.047463	0.531933
C30	C	1.492885	-1.047632	0.410321
C31	C	1.544154	-0.976657	0.602095
C32	C	1.422637	-0.976820	0.480418
C33	C	1.448276	-1.047480	0.576377
C34	C	1.792436	-0.512698	0.506158
C35	C	1.909212	-0.512707	0.506165
C36	C	1.518476	-0.512570	0.780177
C37	C	1.518507	-0.512525	0.896954
C38	C	1.518480	-0.235057	0.506185
C39	C	1.518513	-0.116752	0.506202
C40	C	1.518390	-0.512708	0.233176
C41	C	1.518562	-0.512454	0.116400
C42	C	1.585732	-0.444447	0.951831
C43	C	1.585757	-0.444409	1.061555
C44	C	1.451330	-0.580534	1.061515
C45	C	1.451300	-0.580567	0.951793
C46	C	1.663346	-0.365859	0.951855
C47	C	1.663371	-0.365821	1.061580
H48	H	1.103654	-0.637550	0.732076
C49	C	1.534018	-0.227450	0.948251
C50	C	1.633943	-0.254592	0.911671
H51	H	1.515865	-0.158763	0.923436
H52	H	1.534045	-0.227426	1.022692
H53	H	1.484375	-0.277746	0.923417
H54	H	1.683588	-0.204299	0.936512
H55	H	1.633924	-0.254607	0.837215
H56	H	1.396610	-0.635930	1.106178
H57	H	1.565714	-0.945615	0.683229
C58	C	1.751246	-1.051946	0.661021
C59	C	1.723772	-1.089337	0.561360
H60	H	1.818801	-1.077783	0.679178
H61	H	1.701450	-1.076166	0.710899
H62	H	1.752138	-0.976527	0.660567
H63	H	1.722873	-1.164756	0.561815
H64	H	1.773581	-1.065123	0.511469
C65	C	1.535247	-0.278732	1.169287
C66	C	1.624064	-0.260092	1.107544
H67	H	1.510973	-0.213461	1.197656
H68	H	1.552783	-0.325808	1.224715
H69	H	1.481745	-0.309555	1.127356
H70	H	1.677570	-0.229276	1.149477
H71	H	1.606532	-0.212999	1.052108
C72	C	0.795839	-0.384053	0.379522
C73	C	0.903727	-0.369643	0.365357
H74	H	0.758599	-0.337819	0.333995
H75	H	0.777890	-0.368554	0.450129
H76	H	0.777860	-0.455557	0.364030
H77	H	0.921707	-0.298141	0.380856
H78	H	0.921683	-0.385135	0.294733
C79	C	1.062709	-0.309780	0.306497
C80	C	1.134054	-0.369591	0.365360
H81	H	1.099923	-0.263523	0.260981
H82	H	1.019933	-0.269140	0.352349
H83	H	1.019896	-0.356120	0.266227
H84	H	1.176862	-0.323252	0.405637
H85	H	1.176848	-0.410234	0.319503
C86	C	1.038038	-0.834590	0.585195
C87	C	1.119781	-0.765185	0.611147
H88	H	1.066399	-0.899815	0.560799
H89	H	0.996126	-0.803726	0.531754
H90	H	0.996161	-0.847311	0.645439
H91	H	1.161654	-0.752457	0.550900
H92	H	1.161711	-0.796055	0.664591
C93	C	1.839803	-0.413766	1.016433
C94	C	1.773211	-0.395637	1.101790
H95	H	1.907607	-0.432180	1.041260
H96	H	1.844243	-0.351233	0.975093
H97	H	1.812727	-0.470195	0.975066
H98	H	1.800283	-0.339203	1.143153
H99	H	1.768774	-0.458178	1.143147
C100	C	1.395167	-1.053113	0.756798
C101	C	1.368123	-1.089141	0.656533
H102	H	1.345690	-1.078841	0.806284
H103	H	1.395107	-0.977702	0.757609
H104	H	1.463041	-1.078380	0.774507
H105	H	1.300252	-1.063867	0.638821
H106	H	1.368173	-1.164568	0.655719
H107	H	0.934332	-0.741961	0.628749
C108	C	0.999973	-0.593726	0.823663
C109	C	0.918214	-0.619826	0.755097
H110	H	0.971627	-0.569207	0.888123
H111	H	1.041861	-0.539489	0.793346
H112	H	1.041870	-0.654789	0.836034
H113	H	0.876322	-0.558760	0.742719
H114	H	0.876309	-0.674067	0.785420
H115	H	1.740619	-0.395410	0.917820
C116	C	1.769198	-0.970505	0.383309
C117	C	1.668890	-0.934845	0.356073
H118	H	1.818715	-0.944614	0.333947
H119	H	1.770217	-1.045913	0.383216
H120	H	1.786695	-0.945156	0.451232
H121	H	1.651390	-0.960201	0.288154
H122	H	1.667869	-0.859421	0.356156
H123	H	1.471245	-1.078806	0.329257
C124	C	1.286621	-0.970648	0.350495
C125	C	1.313262	-0.934881	0.450959
H126	H	1.219101	-0.944748	0.332300
H127	H	1.286009	-1.046056	0.349672
H128	H	1.336679	-0.945378	0.301378
H129	H	1.263208	-0.960157	0.500078
H130	H	1.313866	-0.859456	0.451790
C131	C	1.318408	-0.715093	0.962778
C132	C	1.377389	-0.655383	0.891470
H133	H	1.272777	-0.761283	0.925535
H134	H	1.278263	-0.668695	1.005586
H135	H	1.364186	-0.755812	1.005563
H136	H	1.331610	-0.614658	0.848690
H137	H	1.417536	-0.701787	0.848644
