data_functionalizedCrystal
_audit_creation_method	'MofGen! by Chris Wilmer'
_symmetry_space_group_name_H-M	'P1'
_symmetry_Int_Tables_number	1
_symmetry_cell_setting	triclinic
loop_
_symmetry_equiv_pos_as_xyz
  x,y,z
_cell_length_a	14.519709
_cell_length_b	15.538191
_cell_length_c	14.185569
_cell_angle_alpha	82.124202
_cell_angle_beta	76.819419
_cell_angle_gamma	114.523881
loop_
_atom_site_label
_atom_site_type_symbol
_atom_site_fract_x
_atom_site_fract_y
_atom_site_fract_z
O1	O	-0.271310	-1.228085	-0.083424
O2	O	-0.164884	-0.954005	-0.083426
O3	O	-0.354783	-1.098314	-0.083416
O4	O	-0.081411	-1.083776	-0.083434
O5	O	-0.410876	-1.140944	0.083422
O6	O	-0.220977	-0.996635	0.083412
O7	O	-0.327403	-1.270715	0.083414
Cu8	Cu	-0.279312	-1.137568	0.098646
Cu9	Cu	-0.212975	-1.087153	-0.098658
O10	O	-0.137505	-1.126406	0.083404
C11	C	-0.181796	-0.940243	-0.000007
C12	C	-0.148628	-0.835725	-0.000007
C13	C	-0.416961	-1.118952	0.000003
C14	C	-0.518660	-1.116922	0.000004
C15	C	-0.310491	-1.284476	-0.000007
C16	C	-0.343656	-1.388993	-0.000014
C17	C	-0.891034	-1.109444	-0.000022
C18	C	-0.787426	-1.111520	-0.000015
C19	C	-0.704851	-1.113183	-0.000008
C20	C	-0.601236	-1.115260	-0.000003
C21	C	-0.075325	-1.105768	-0.000017
C22	C	0.026376	-1.107796	-0.000025
N23	N	-0.325973	-1.173034	0.237420
C24	C	-0.478139	-0.547381	-0.000001
C25	C	-0.446949	-0.449167	-0.000004
C26	C	-0.271514	-0.427017	-0.000015
C27	C	-0.302691	-0.525232	-0.000008
C28	C	-0.406004	-0.585407	-0.000002
C29	C	-0.230557	-0.563258	-0.000008
C30	C	-0.261730	-0.661463	-0.000006
C31	C	-0.365037	-0.721643	-0.000003
C32	C	-0.437177	-0.683612	0.000001
C33	C	-0.127242	-0.503080	-0.000021
C34	C	-0.055107	-0.541106	-0.000022
C35	C	-0.086282	-0.639314	-0.000012
C36	C	-0.189590	-0.699494	-0.000009
C37	C	-0.014142	-0.677345	-0.000016
C38	C	-0.045315	-0.775551	-0.000013
C39	C	-0.220763	-0.797700	-0.000007
N40	N	-0.166324	-1.051694	-0.237432
C41	C	-0.029276	-0.947494	0.605054
C42	C	-0.064616	-0.974366	0.710078
C43	C	-0.232734	-1.102177	0.710047
C44	C	-0.197409	-1.075313	0.605022
C45	C	-0.095679	-0.997972	0.552534
C46	C	-0.263812	-1.125791	0.552501
C47	C	-0.228488	-1.098932	0.447485
C48	C	-0.126760	-1.021596	0.394989
C49	C	-0.060354	-0.971113	0.447517
C50	C	-0.365540	-1.203137	0.604991
C51	C	-0.431943	-1.253615	0.552471
C52	C	-0.396622	-1.226752	0.447452
C53	C	-0.294894	-1.149415	0.394957
C54	C	-0.463027	-1.277234	0.394924
C55	C	-0.427703	-1.250375	0.289908
C56	C	-0.259569	-1.122556	0.289940
H57	H	-0.304892	-0.846700	0.000004
H58	H	-0.505697	-0.418212	-0.000005
O59	O	-0.492358	-1.299479	0.239038
C60	C	-0.589712	-1.373516	0.307884
H61	H	-0.603044	-1.354068	0.382755
H62	H	-0.586907	-1.446352	0.319034
C63	C	-0.665465	-1.406155	0.174930
C64	C	-0.681843	-1.382264	0.266885
H65	H	-0.722295	-1.411556	0.149640
H66	H	-0.599874	-1.356278	0.128547
H67	H	-0.663125	-1.466850	0.184234
H68	H	-0.684169	-1.321565	0.257578
H69	H	-0.747436	-1.432131	0.313267
H70	H	-0.187395	-0.378009	-0.000024
H71	H	-0.562268	-0.596381	0.000010
O72	O	-0.331630	-1.177229	0.760932
C73	C	-0.409122	-1.155187	0.735295
H74	H	-0.371232	-1.099404	0.659052
H75	H	-0.441835	-1.123386	0.794408
C76	C	-0.547299	-1.317933	0.824070
C77	C	-0.500764	-1.249426	0.730424
H78	H	-0.603832	-1.376063	0.821070
H79	H	-0.495093	-1.332783	0.841346
H80	H	-0.574551	-1.291420	0.873322
H81	H	-0.473502	-1.275934	0.681177
H82	H	-0.552968	-1.234582	0.713139
H83	H	0.053559	-0.884508	0.562316
O84	O	0.086229	-0.618755	-0.000161
C85	C	0.138566	-0.539229	-0.086588
H86	H	0.076755	-0.526779	-0.115391
H87	H	0.190184	-0.556157	-0.147091
C88	C	0.285425	-0.461603	-0.024979
C89	C	0.209507	-0.446306	-0.060351
H90	H	0.329188	-0.404284	-0.008797
H91	H	0.250167	-0.515183	0.033247
H92	H	0.328429	-0.475712	-0.075404
H93	H	0.166496	-0.432210	-0.009921
H94	H	0.244759	-0.392722	-0.118568
H95	H	-0.010533	-0.933254	0.752835
O96	O	-0.399831	-1.229377	0.707005
C97	C	-0.422771	-1.327743	0.742067
H98	H	-0.376472	-1.349110	0.681538
H99	H	-0.511953	-1.377251	0.760690
C100	C	-0.446769	-1.313210	0.911317
C101	C	-0.389896	-1.339450	0.836978
H102	H	-0.426495	-1.320434	0.969865
H103	H	-0.431317	-1.246940	0.887697
H104	H	-0.521083	-1.354470	0.926824
H105	H	-0.315585	-1.298183	0.821463
H106	H	-0.405334	-1.405714	0.860598
H107	H	0.013421	-0.806514	-0.000004
H108	H	-0.101863	-0.423115	-0.000026
O109	O	-0.395315	-0.817002	-0.000177
C110	C	-0.424825	-0.833815	-0.086567
H111	H	-0.385004	-0.761595	-0.146963
H112	H	-0.515192	-0.866106	-0.067026
C113	C	-0.437689	-0.994816	-0.051566
C114	C	-0.388773	-0.906116	-0.125749
H115	H	-0.415456	-1.039418	-0.075734
H116	H	-0.417812	-0.983492	0.006639
H117	H	-0.512992	-1.021713	-0.035289
H118	H	-0.313472	-0.879215	-0.142015
H119	H	-0.408636	-0.917438	-0.183957
H120	H	0.029012	-0.492097	-0.000031
H121	H	-0.176735	-1.059570	0.247202
H122	H	-0.097999	-0.999731	0.309478
H123	H	0.022480	-0.908127	0.404779
O124	O	-0.537489	-0.741993	-0.000169
C125	C	-0.554203	-0.702648	-0.086558
H126	H	-0.474002	-0.653732	-0.146955
H127	H	-0.597385	-0.657551	-0.067018
C128	C	-0.720967	-0.846745	-0.051555
C129	C	-0.622464	-0.786673	-0.125739
H130	H	-0.763078	-0.898574	-0.075722
H131	H	-0.709710	-0.873252	0.006649
H132	H	-0.756939	-0.809153	-0.035278
H133	H	-0.586488	-0.824262	-0.142006
H134	H	-0.633717	-0.760174	-0.183947
H135	H	-0.545854	-1.340213	0.437674
H136	H	-0.514772	-1.316590	0.595219
