data_functionalizedCrystal
_audit_creation_method	'MofGen! by Chris Wilmer'
_symmetry_space_group_name_H-M	'P1'
_symmetry_Int_Tables_number	1
_symmetry_cell_setting	triclinic
loop_
_symmetry_equiv_pos_as_xyz
  x,y,z
_cell_length_a	17.640112
_cell_length_b	29.839131
_cell_length_c	17.640968
_cell_angle_alpha	101.231391
_cell_angle_beta	87.860920
_cell_angle_gamma	101.266684
loop_
_atom_site_label
_atom_site_type_symbol
_atom_site_fract_x
_atom_site_fract_y
_atom_site_fract_z
Zn1	Zn	1.247771	-0.012909	0.195080
Zn2	Zn	1.221948	-0.105602	0.068098
Zn3	Zn	1.095086	-0.042134	0.093726
Zn4	Zn	1.120692	-0.099688	0.220680
O5	O	1.171374	-0.065083	0.144396
O6	O	1.350620	-0.015449	0.156796
O7	O	1.183596	-0.111889	-0.034776
O8	O	1.115431	0.024621	0.107183
O9	O	1.331648	-0.083550	0.063503
O10	O	1.227608	0.046093	0.181647
O11	O	1.090391	-0.065260	-0.015947
O12	O	0.992208	-0.059525	0.132006
O13	O	1.159073	-0.073471	0.323557
O14	O	1.011020	-0.101810	0.225278
O15	O	1.252437	-0.009714	0.304749
O16	O	1.208425	-0.167697	0.088326
O17	O	1.134033	-0.163352	0.200427
C18	C	0.974058	-0.083197	0.184201
C19	C	0.889649	-0.090955	0.201248
C20	C	0.563036	-0.006143	0.014898
C21	C	0.483723	-0.013439	0.030927
C22	C	0.503332	-0.057573	0.127883
C23	C	0.582649	-0.050277	0.111866
C24	C	0.612494	-0.024563	0.055372
C25	C	0.632108	-0.068697	0.152339
C26	C	0.711417	-0.061405	0.136320
C27	C	0.741268	-0.035692	0.079827
C28	C	0.691803	-0.017270	0.039352
C29	C	0.602261	-0.094415	0.208829
C30	C	0.651719	-0.112835	0.249303
C31	C	0.731031	-0.105540	0.233287
C32	C	0.760882	-0.079827	0.176794
C33	C	0.780495	-0.123962	0.273762
C34	C	0.859805	-0.116670	0.257742
C35	C	0.840191	-0.072535	0.160775
C36	C	1.171229	-0.181824	0.144386
C37	C	1.171242	-0.231756	0.144393
C38	C	1.210213	-0.543616	0.086078
C39	C	1.210312	-0.731276	0.086088
O40	O	1.243332	-0.757439	0.036500
N41	N	1.171543	-0.752503	0.144421
C42	C	1.132750	-0.726811	0.202759
O43	O	1.099784	-0.749171	0.252379
C44	C	1.132656	-0.539151	0.202750
C45	C	1.171421	-0.517928	0.144409
C46	C	1.248976	-0.522392	0.027742
C47	C	1.248947	-0.475481	0.027738
C48	C	1.210155	-0.449792	0.086069
C49	C	1.171392	-0.471016	0.144405
C50	C	1.093868	-0.513459	0.261090
C51	C	1.093850	-0.466541	0.261084
C52	C	1.132615	-0.445318	0.202743
C53	C	1.132572	-0.398416	0.202732
N54	N	1.171341	-0.377189	0.144399
C55	C	1.210133	-0.402877	0.086068
C56	C	1.132802	-0.825336	0.202758
C57	C	1.132824	-0.872251	0.202759
C58	C	1.210387	-0.876713	0.086090
C59	C	1.210360	-0.829797	0.086086
C60	C	1.171571	-0.804109	0.144425
C61	C	1.210069	-0.304360	0.086062
C62	C	1.210034	-0.257444	0.086061
C63	C	1.132474	-0.252986	0.202733
C64	C	1.132505	-0.299898	0.202732
C65	C	1.171308	-0.325583	0.144393
O66	O	1.099577	-0.372224	0.252299
O67	O	1.243109	-0.380507	0.036464
C68	C	1.210242	-0.590527	0.086082
C69	C	1.171479	-0.611751	0.144418
C70	C	1.132687	-0.586063	0.202750
C71	C	1.171501	-0.658666	0.144420
C72	C	1.210293	-0.684354	0.086088
C73	C	1.249062	-0.663127	0.027755
C74	C	1.249033	-0.616215	0.027751
C75	C	1.093918	-0.607290	0.261082
C76	C	1.093949	-0.654202	0.261082
C77	C	1.132741	-0.679890	0.202750
C78	C	1.369461	-0.046899	0.104435
C79	C	1.453873	-0.039150	0.087407
C80	C	1.211491	-0.037673	0.342479
C81	C	1.228587	-0.025992	0.426890
C82	C	1.171544	0.052117	0.144418
C83	C	1.171616	0.102061	0.144428
C84	C	1.131457	-0.092351	-0.052925
C85	C	1.114508	-0.103892	-0.137366
C86	C	1.041792	-0.153550	0.753463
C87	C	1.057872	-0.142567	0.832777
C88	C	1.155084	-0.076183	0.813183
C89	C	1.139010	-0.087159	0.733867
C90	C	1.082364	-0.125843	0.704013
C91	C	1.179581	-0.059452	0.684417
C92	C	1.163511	-0.070429	0.605107
C93	C	1.106869	-0.109113	0.575246
C94	C	1.066293	-0.136820	0.624703
C95	C	1.236231	-0.020770	0.714271
C96	C	1.276802	0.006936	0.664821
C97	C	1.260728	-0.004039	0.585510
C98	C	1.204086	-0.042722	0.555650
C99	C	1.301304	0.023669	0.536054
C100	C	1.285233	0.012692	0.456744
C101	C	1.188016	-0.053699	0.476340
H102	H	0.627408	-0.133774	0.295298
H103	H	0.756182	-0.144903	0.319754
H104	H	0.479021	-0.078511	0.173879
H105	H	1.100887	-0.232064	0.250224
C106	C	0.516169	-0.102243	0.226305
C107	C	0.493914	-0.059204	0.251131
C108	C	0.414616	-0.066398	0.267247
H109	H	0.488188	-0.118380	0.180946
H110	H	0.505458	-0.120178	0.265771
H111	H	0.504617	-0.041276	0.211668
H112	H	0.521874	-0.043060	0.296494
H113	H	0.403905	-0.084333	0.306713
H114	H	0.386641	-0.082536	0.221885
H115	H	0.399506	-0.037198	0.284099
C116	C	1.051918	-0.536530	0.324460
C117	C	1.104761	-0.552747	0.364494
C118	C	1.066143	-0.574005	0.422876
H119	H	1.028819	-0.514547	0.359272
H120	H	1.012982	-0.561941	0.302089
H121	H	1.143683	-0.527339	0.386866
H122	H	1.127862	-0.574735	0.329704
H123	H	1.027207	-0.599416	0.400504
H124	H	1.043045	-0.552019	0.457682
H125	H	1.101989	-0.585014	0.450041
C126	C	0.913389	-0.136683	0.301798
C127	C	0.870281	-0.160752	0.354718
C128	C	0.919618	-0.179191	0.395321
H129	H	0.938430	-0.157445	0.266528
H130	H	0.951053	-0.112099	0.328728
H131	H	0.832631	-0.185333	0.327790
H132	H	0.845242	-0.140000	0.390004
H133	H	0.957282	-0.154606	0.422251
H134	H	0.944656	-0.199950	0.360045
H135	H	0.890378	-0.195519	0.431237
H136	H	1.093788	-0.118051	0.510666
C137	C	1.291204	-0.593253	-0.035635
C138	C	1.325195	-0.625796	-0.086699
C139	C	1.364061	-0.604661	-0.145096
H140	H	1.255540	-0.582224	-0.062984
H141	H	1.330191	-0.567874	-0.013257
H142	H	1.286213	-0.651167	-0.109076
H143	H	1.360871	-0.636827	-0.059374
H144	H	1.403047	-0.579282	-0.122718
H145	H	1.328391	-0.593633	-0.172439
H146	H	1.387134	-0.626737	-0.179746
H147	H	1.280569	-0.543302	-0.019760
C148	C	0.980305	-0.195591	0.721182
C149	C	0.948228	-0.217518	0.781458
C150	C	0.891603	-0.256254	0.751746
H151	H	0.940898	-0.185790	0.696924
H152	H	1.003067	-0.216801	0.684403
H153	H	0.925465	-0.196312	0.818223
H154	H	0.987615	-0.227330	0.805722
H155	H	0.914365	-0.277463	0.714967
H156	H	0.852202	-0.246448	0.727488
H157	H	0.869837	-0.271138	0.792637
H158	H	1.141871	-0.085190	0.452035
H159	H	1.024830	-0.165132	0.873038
C160	C	1.253817	-0.008787	0.800353
C161	C	1.312125	0.031012	0.815911
C162	C	1.328351	0.042061	0.895198
H163	H	1.208521	-0.002996	0.828271
H164	H	1.270583	-0.034080	0.815664
H165	H	1.295356	0.056299	0.800609
H166	H	1.357433	0.025232	0.788012
H167	H	1.345117	0.016769	0.910509
H168	H	1.283050	0.047850	0.923109
H169	H	1.367918	0.069063	0.905763
H170	H	1.322925	0.038432	0.689139
H171	H	1.347430	0.055163	0.560372
C172	C	1.090610	-0.797413	0.265984
C173	C	1.033250	-0.780931	0.232755
C174	C	0.994371	-0.755205	0.290971
H175	H	1.067455	-0.816731	0.300751
H176	H	1.126304	-0.771817	0.293239
H177	H	0.997561	-0.806524	0.205512
H178	H	1.056383	-0.761607	0.197993
H179	H	1.030065	-0.729609	0.318227
H180	H	0.971221	-0.774525	0.325735
H181	H	0.955452	-0.744015	0.268433
H182	H	1.241600	-0.240166	0.038551
C183	C	1.291195	-0.691090	-0.035470
C184	C	1.282944	-0.736710	-0.022952
C185	C	1.321768	-0.762480	-0.081159
H186	H	1.269848	-0.691562	-0.084328
H187	H	1.344483	-0.677154	-0.034578
H188	H	1.229666	-0.750643	-0.023852
H189	H	1.304295	-0.736252	0.025895
H190	H	1.375057	-0.748544	-0.080267
H191	H	1.300417	-0.762949	-0.130013
H192	H	1.316181	-0.793435	-0.072670
H193	H	0.587339	0.014805	-0.031094
H194	H	1.241668	-0.325267	0.038559
H195	H	1.020148	-0.168312	0.600398
C196	C	1.051808	-0.438567	0.324379
C197	C	1.060093	-0.392935	0.311907
C198	C	1.021383	-0.367152	0.370202
H199	H	0.998515	-0.452462	0.323572
H200	H	1.073236	-0.438130	0.373194
H201	H	1.038662	-0.393374	0.263105
H202	H	1.113377	-0.379026	0.312721
H203	H	1.042811	-0.366715	0.419017
H204	H	0.968092	-0.381051	0.369390
H205	H	1.027005	-0.336187	0.361752
H206	H	1.318269	0.035254	0.416480
H207	H	0.864494	-0.051587	0.114783
H208	H	1.201208	-0.044687	0.837501
H209	H	1.280515	-0.458203	-0.019767
H210	H	0.443456	0.001566	-0.002031
H211	H	0.716106	0.003678	-0.006640
C212	C	0.827373	-0.027871	0.062421
C213	C	0.849626	-0.070915	0.037640
C214	C	0.928941	-0.063729	0.021606
H215	H	0.838159	-0.009944	0.022962
H216	H	0.855298	-0.011730	0.107824
H217	H	0.821711	-0.087048	-0.007758
H218	H	0.838860	-0.088848	0.077088
H219	H	0.956866	-0.047588	0.067009
H220	H	0.939720	-0.045801	-0.017852
H221	H	0.944052	-0.092933	0.004797
H222	H	1.241973	-0.897636	0.038594
C223	C	1.090716	-0.895202	0.266186
C224	C	1.056761	-0.862655	0.317278
C225	C	1.017976	-0.883776	0.375726
H226	H	1.051717	-0.920586	0.243883
H227	H	1.126447	-0.906217	0.293491
H228	H	1.021033	-0.851647	0.289976
H229	H	1.095743	-0.837269	0.339600
H230	H	1.053707	-0.894790	0.403031
H231	H	0.978981	-0.909159	0.353415
H232	H	0.994939	-0.861695	0.410402
C233	C	1.051991	-0.677280	0.324450
C234	C	1.104835	-0.693495	0.364484
C235	C	1.066218	-0.714759	0.422859
H236	H	1.028885	-0.655301	0.359263
H237	H	1.013059	-0.702692	0.302073
H238	H	1.143753	-0.668086	0.386860
H239	H	1.127943	-0.715480	0.329692
H240	H	1.027286	-0.740172	0.400483
H241	H	1.043114	-0.692777	0.457667
H242	H	1.102065	-0.725768	0.450025
H243	H	1.100942	-0.317178	0.250240
H244	H	1.241926	-0.812520	0.038580
H245	H	1.062330	-0.586378	0.308584
