data_functionalizedCrystal
_audit_creation_method	'MofGen! by Chris Wilmer'
_symmetry_space_group_name_H-M	'P1'
_symmetry_Int_Tables_number	1
_symmetry_cell_setting	triclinic
loop_
_symmetry_equiv_pos_as_xyz
  x,y,z
_cell_length_a	19.121324
_cell_length_b	19.077105
_cell_length_c	19.077068
_cell_angle_alpha	89.884684
_cell_angle_beta	89.730754
_cell_angle_gamma	89.971547
loop_
_atom_site_label
_atom_site_type_symbol
_atom_site_fract_x
_atom_site_fract_y
_atom_site_fract_z
Zn1	Zn	-0.451074	-1.044503	-0.302975
Zn2	Zn	0.048926	-0.544503	0.197025
Zn3	Zn	-0.338520	-1.044303	-0.425476
Zn4	Zn	0.161480	-0.544303	0.074524
Zn5	Zn	-0.329161	-0.931991	-0.303676
Zn6	Zn	0.170839	-0.431991	0.196324
Zn7	Zn	-0.450654	-0.922255	-0.415735
Zn8	Zn	0.049346	-0.422255	0.084265
O9	O	-0.392352	-0.985763	-0.361965
O10	O	0.107648	-0.485763	0.138035
O11	O	-0.440237	-1.142640	-0.323008
O12	O	0.059763	-0.642640	0.176992
O13	O	-0.239329	-1.033395	-0.413689
O14	O	0.260671	-0.533395	0.086311
O15	O	-0.341592	-0.951075	-0.205419
O16	O	0.158408	-0.451075	0.294581
O17	O	-0.357544	-1.142493	-0.413009
O18	O	0.142456	-0.642493	0.086991
O19	O	-0.431161	-1.033736	-0.204904
O20	O	0.068839	-0.533736	0.295096
O21	O	-0.232453	-0.950881	-0.324203
O22	O	0.267547	-0.450881	0.175797
O23	O	-0.341184	-0.832536	-0.314758
O24	O	0.158816	-0.332536	0.185242
O25	O	-0.548659	-0.934480	-0.396407
O26	O	-0.048659	-0.434480	0.103593
O27	O	-0.430444	-0.825383	-0.397087
O28	O	0.069556	-0.325383	0.102913
O29	O	-0.548968	-1.024295	-0.313563
O30	O	-0.048968	-0.524295	0.186437
O31	O	-0.357136	-1.023954	-0.522348
O32	O	0.142864	-0.523954	-0.022348
O33	O	-0.439520	-0.934286	-0.515191
O34	O	0.060480	-0.434286	-0.015191
C35	C	-0.384753	-0.803507	-0.354942
C36	C	0.115247	-0.303507	0.145058
C37	C	-0.381520	-0.725535	-0.351954
C38	C	0.118480	-0.225535	0.148046
C39	C	-0.399314	-0.978060	-0.544222
C40	C	0.100686	-0.478060	-0.044222
C41	C	-0.402318	-0.974828	-0.622194
C42	C	0.097682	-0.474828	-0.122194
C43	C	-0.574921	-0.978324	-0.353820
C44	C	-0.074921	-0.478324	0.146180
C45	C	-0.652720	-0.975154	-0.350349
C46	C	-0.152720	-0.475154	0.149651
C47	C	-0.692854	-1.016622	-0.395306
C48	C	-0.192854	-0.516622	0.104694
C49	C	-0.765955	-1.013644	-0.392036
C50	C	-0.265955	-0.513644	0.107964
C51	C	-0.798921	-0.969193	-0.343812
C52	C	-0.298921	-0.469193	0.156188
C53	C	-0.758782	-0.927723	-0.298850
C54	C	-0.258782	-0.427723	0.201150
C55	C	-0.685683	-0.930706	-0.302117
C56	C	-0.185683	-0.430706	0.197883
C57	C	-1.019455	-0.958042	-0.331614
C58	C	-0.519455	-0.458042	0.168386
C59	C	-1.092559	-0.955061	-0.328352
C60	C	-0.592559	-0.455061	0.171648
C61	C	-1.099727	-1.040983	-0.421537
C62	C	-0.599727	-0.540983	0.078463
C63	C	-1.026626	-1.043958	-0.424803
C64	C	-0.526626	-0.543958	0.075197
C65	C	-0.986493	-1.002492	-0.379838
C66	C	-0.486493	-0.502492	0.120162
C67	C	-0.873641	-0.966146	-0.340470
C68	C	-0.373641	-0.466146	0.159530
C69	C	-0.911774	-1.005543	-0.383178
C70	C	-0.411774	-0.505543	0.116822
C71	C	-0.210494	-0.993215	-0.370030
C72	C	0.289506	-0.493215	0.129970
C73	C	-0.132693	-0.996530	-0.373309
C74	C	0.367307	-0.496530	0.126691
C75	C	-0.399981	-1.168731	-0.369016
C76	C	0.100019	-0.668731	0.130984
C77	C	-0.403232	-1.246701	-0.372021
C78	C	0.096768	-0.746701	0.127979
C79	C	-0.426406	-0.685198	-0.393485
C80	C	0.073594	-0.185198	0.106515
C81	C	-0.423371	-0.611936	-0.390668
C82	C	0.076629	-0.111936	0.109332
C83	C	-0.375446	-0.579012	-0.346323
C84	C	0.124554	-0.079012	0.153677
C85	C	-0.330557	-0.619355	-0.304787
C86	C	0.169443	-0.119355	0.195213
C87	C	-0.333597	-0.692616	-0.307601
C88	C	0.166403	-0.192616	0.192399
C89	C	-0.361383	-0.360304	-0.333299
C90	C	0.138617	0.139696	0.166701
C91	C	-0.358346	-0.287038	-0.330490
C92	C	0.141654	0.212962	0.169510
C93	C	-0.451161	-0.279624	-0.416370
C94	C	0.048839	0.220376	0.083630
C95	C	-0.454193	-0.352886	-0.419184
C96	C	0.045807	0.147114	0.080816
C97	C	-0.409307	-0.393223	-0.377645
C98	C	0.090693	0.106777	0.122355
N99	N	-0.372340	-0.504127	-0.343444
N100	N	0.127660	-0.004127	0.156556
N101	N	-0.412416	-0.468107	-0.380521
N102	N	0.087584	0.031893	0.119479
C103	C	-0.360876	-1.020028	-0.662527
C104	C	0.139124	-0.520028	-0.162527
C105	C	-0.363706	-1.016993	-0.735790
C106	C	0.136294	-0.516993	-0.235790
C107	C	-0.407975	-0.968753	-0.768717
C108	C	0.092025	-0.468753	-0.268717
C109	C	-0.449423	-0.923551	-0.728378
C110	C	0.050577	-0.423551	-0.228378
C111	C	-0.446596	-0.926590	-0.655117
C112	C	0.053404	-0.426590	-0.155117
C113	C	-0.421029	-0.954655	-0.987427
C114	C	0.078971	-0.454655	-0.487427
C115	C	-0.423851	-0.951617	-1.060693
C116	C	0.076149	-0.451617	-0.560693
C117	C	-0.338134	-1.045060	-1.068100
C118	C	0.161866	-0.545060	-0.568100
C119	C	-0.335308	-1.048093	-0.994837
C120	C	0.164692	-0.548093	-0.494837
C121	C	-0.376758	-1.002893	-0.954504
C122	C	0.123242	-0.502893	-0.454504
N123	N	-0.410868	-0.965647	-0.843603
N124	N	0.089132	-0.465647	-0.343603
N125	N	-0.373869	-1.006003	-0.879620
N126	N	0.126131	-0.506003	-0.379620
C127	C	-0.385379	-0.993514	-0.178997
C128	C	0.114621	-0.493514	0.321003
C129	C	-0.382408	-0.996817	-0.101027
C130	C	0.117592	-0.496817	0.398973
H131	H	-0.666018	-1.052821	-0.434573
H132	H	-0.166018	-0.552821	0.065427
H133	H	-0.465430	-0.711999	-0.429598
H134	H	0.034570	-0.211999	0.070402
H135	H	-0.324823	-1.059308	-0.635723
H136	H	0.175177	-0.559308	-0.135723
H137	H	-0.324829	-0.393137	-0.299481
H138	H	0.175171	0.106863	0.200519
F139	F	-0.279556	-0.584313	-0.257587
F140	F	0.220444	-0.084313	0.242413
F141	F	-0.285824	-0.735545	-0.263396
F142	F	0.214176	-0.235545	0.236604
H143	H	-0.900491	-0.929953	-0.301207
H144	H	-0.400491	-0.429953	0.198793
H145	H	-0.480344	-0.889784	-0.622278
H146	H	0.019656	-0.389784	-0.122278
F147	F	-1.127643	-0.907772	-0.277001
F148	F	-0.627643	-0.407772	0.222999
F149	F	-0.876688	-1.052852	-0.434496
F150	F	-0.376688	-0.552852	0.065504
F151	F	-0.319598	-1.065103	-0.778713
F152	F	0.180402	-0.565103	-0.278713
F153	F	-0.471145	-0.569009	-0.434871
F154	F	0.028855	-0.069009	0.065129
F155	F	-0.288198	-1.099444	-0.959799
F156	F	0.211802	-0.599444	-0.459799
F157	F	-1.142443	-1.085113	-0.469387
F158	F	-0.642443	-0.585113	0.030613
F159	F	-0.496542	-0.872213	-0.763424
F160	F	0.003458	-0.372213	-0.263424
F161	F	-0.307331	-0.252000	-0.283294
F162	F	0.192669	0.248000	0.216706
F163	F	-0.498927	-0.236691	-0.460577
F164	F	0.001073	0.263309	0.039423
F165	F	-0.294026	-1.093164	-1.111029
F166	F	0.205974	-0.593164	-0.611029
H167	H	-0.493217	-0.379688	-0.455296
H168	H	0.006783	0.120312	0.044704
H169	H	-0.986787	-0.924274	-0.295003
H170	H	-0.486787	-0.424274	0.204997
H171	H	-0.459913	-0.912342	-1.087500
H172	H	0.040087	-0.412342	-0.587500
H173	H	-0.653007	-0.896940	-0.265507
H174	H	-0.153007	-0.396940	0.234493
F175	F	-0.465143	-0.906548	-0.944511
F176	F	0.034857	-0.406548	-0.444511
H177	H	-0.785629	-0.891534	-0.259582
H178	H	-0.285629	-0.391534	0.240418
F179	F	-0.808664	-1.057777	-0.439889
F180	F	-0.308664	-0.557777	0.060111
H181	H	-0.999790	-1.080143	-0.464083
H182	H	-0.499790	-0.580143	0.035917
