data_functionalizedCrystal
_audit_creation_method	'MofGen! by Chris Wilmer'
_symmetry_space_group_name_H-M	'P1'
_symmetry_Int_Tables_number	1
_symmetry_cell_setting	triclinic
loop_
_symmetry_equiv_pos_as_xyz
  x,y,z
_cell_length_a	15.297475
_cell_length_b	18.101395
_cell_length_c	15.297738
_cell_angle_alpha	99.656977
_cell_angle_beta	72.640597
_cell_angle_gamma	80.333681
loop_
_atom_site_label
_atom_site_type_symbol
_atom_site_fract_x
_atom_site_fract_y
_atom_site_fract_z
Zn1	Zn	1.512565	-0.619639	-0.771407
Zn2	Zn	1.485536	-0.717544	-0.615881
Zn3	Zn	1.330161	-0.567803	-0.589052
Zn4	Zn	1.356987	-0.717482	-0.744483
O5	O	1.421312	-0.655617	-0.680206
O6	O	1.639115	-0.654346	-0.773272
O7	O	1.442387	-0.676013	-0.482186
O8	O	1.354442	-0.471064	-0.613281
O9	O	1.619257	-0.726276	-0.659008
O10	O	1.488454	-0.509147	-0.747256
O11	O	1.328234	-0.565998	-0.462474
O12	O	1.203585	-0.565938	-0.587174
O13	O	1.400163	-0.726171	-0.878191
O14	O	1.223293	-0.675907	-0.701369
O15	O	1.514466	-0.654286	-0.897972
O16	O	1.468399	-0.821151	-0.632901
O17	O	1.373954	-0.821106	-0.727384
C18	C	1.179696	-0.615292	-0.638439
C19	C	1.076336	-0.598062	-0.620594
C20	C	0.826063	-0.778766	-0.807754
C21	C	0.923175	-0.794960	-0.824518
C22	C	0.961470	-0.745737	-0.773539
C23	C	0.902644	-0.680318	-0.705792
C24	C	0.805521	-0.664126	-0.689021
C25	C	0.940928	-0.631096	-0.654805
C26	C	0.882102	-0.565677	-0.587058
C27	C	0.784989	-0.549488	-0.570291
C28	C	0.746694	-0.598711	-0.621270
C29	C	1.038051	-0.647288	-0.671577
C30	C	1.017509	-0.532647	-0.552843
C31	C	0.920397	-0.516454	-0.536079
C32	C	1.421183	-0.848002	-0.680157
C33	C	1.421218	-0.930325	-0.680182
C34	C	1.421431	-1.229458	-0.680267
C35	C	1.362207	-1.198193	-0.739920
C36	C	1.361827	-1.112480	-0.739636
C37	C	1.421326	-1.081055	-0.680225
C38	C	1.377841	-1.091443	-0.577635
C39	C	1.377453	-1.177083	-0.577987
C40	C	1.524148	-1.218398	-0.722368
C41	C	1.523941	-1.133009	-0.724417
C42	C	1.421267	-0.997183	-0.680196
C43	C	1.421487	-1.313329	-0.680289
C44	C	1.663872	-0.696100	-0.722136
C45	C	1.767236	-0.713352	-0.740004
C46	C	1.463322	-0.696004	-0.922768
C47	C	1.481223	-0.713214	-1.026133
C48	C	1.421471	-0.462488	-0.680279
C49	C	1.421538	-0.380188	-0.680311
C50	C	1.549067	-0.778579	-1.084958
C51	C	1.565892	-0.794744	-1.182076
C52	C	1.514870	-0.745548	-1.220378
C53	C	1.447020	-0.680184	-1.161551
C54	C	1.430199	-0.664015	-1.064425
C55	C	1.396002	-0.630984	-1.199844
C56	C	1.328152	-0.565620	-1.141018
C57	C	1.311333	-0.549454	-1.043901
C58	C	1.362355	-0.598650	-1.005600
C59	C	1.412823	-0.647153	-1.296971
C60	C	1.293955	-0.532589	-1.276438
C61	C	1.277130	-0.516424	-1.179320
C62	C	1.379520	-0.615343	-0.438597
C63	C	1.361799	-0.597954	-0.335263
H64	H	1.085938	-0.700552	-0.726738
Cl65	Cl	1.065643	-0.470766	-0.488746
Cl66	Cl	1.229813	-0.470737	-1.324581
Cl67	Cl	1.341211	-0.578328	-0.883505
Cl68	Cl	1.083556	-0.766093	-0.794619
Cl69	Cl	0.846433	-0.434216	-0.450914
H70	H	1.560489	-1.255691	-0.796795
H71	H	1.417800	-1.196881	-0.531112
H72	H	1.256091	-0.496226	-0.996008
Cl73	Cl	0.624607	-0.578353	-0.600203
Cl74	Cl	1.651179	-0.876915	-1.256020
Cl75	Cl	1.245933	-1.208647	-0.695259
H76	H	0.971065	-0.848225	-0.879676
H77	H	1.418873	-1.070318	-0.531235
H78	H	0.794873	-0.818840	-0.849249
Cl79	Cl	1.536020	-0.765873	-1.342470
Cl80	Cl	0.711037	-0.467252	-0.485115
H81	H	1.390997	-1.106299	-0.815175
Cl82	Cl	1.597779	-1.101912	-0.664321
Cl83	Cl	1.407044	-1.252915	-0.856868
H84	H	1.221886	-0.463204	-1.131410
H85	H	1.286033	-1.077121	-0.710409
Cl86	Cl	1.262207	-1.034536	-0.525233
Cl87	Cl	1.592602	-1.249934	-0.655624
Cl88	Cl	1.498117	-0.729322	-1.370911
H89	H	1.590607	-0.818624	-1.053764
H90	H	1.301864	-1.181584	-0.544296
Cl91	Cl	1.574099	-1.125288	-0.841114
