data_functionalizedCrystal
_audit_creation_method	'MofGen! by Chris Wilmer'
_symmetry_space_group_name_H-M	'P1'
_symmetry_Int_Tables_number	1
_symmetry_cell_setting	triclinic
loop_
_symmetry_equiv_pos_as_xyz
  x,y,z
_cell_length_a	16.120530
_cell_length_b	16.120484
_cell_length_c	18.215399
_cell_angle_alpha	92.869789
_cell_angle_beta	87.083352
_cell_angle_gamma	90.167327
loop_
_atom_site_label
_atom_site_type_symbol
_atom_site_fract_x
_atom_site_fract_y
_atom_site_fract_z
Zn1	Zn	1.254472	-0.395614	-0.489889
Zn2	Zn	1.247316	-0.534672	-0.372722
Zn3	Zn	1.115412	-0.388579	-0.360305
Zn4	Zn	1.108324	-0.527567	-0.489215
O5	O	1.181381	-0.461608	-0.428033
O6	O	1.369888	-0.419978	-0.479825
O7	O	1.229790	-0.515322	-0.268090
O8	O	1.139820	-0.273149	-0.372580
O9	O	1.364630	-0.522143	-0.393742
O10	O	1.241987	-0.278317	-0.467785
O11	O	1.132881	-0.407988	-0.258968
O12	O	0.998106	-0.401099	-0.371927
O13	O	1.127740	-0.510034	-0.592289
O14	O	0.992899	-0.503212	-0.466637
O15	O	1.235114	-0.413088	-0.592784
O16	O	1.222917	-0.650093	-0.393090
O17	O	1.120801	-0.644873	-0.478677
C18	C	0.965330	-0.450622	-0.417862
C19	C	0.872902	-0.445942	-0.413529
C20	C	1.170336	-0.677655	-0.437175
C21	C	1.165686	-0.770085	-0.441114
C22	C	0.703675	-0.437378	-0.405624
C23	C	0.659925	-0.485899	-0.450498
C24	C	0.565761	-0.481134	-0.446099
C25	C	0.797847	-0.442142	-0.410022
C26	C	1.157203	-0.939316	-0.448321
C27	C	1.205708	-0.983066	-0.407764
C28	C	1.200988	-1.077232	-0.411774
C29	C	1.161922	-0.845142	-0.444312
C30	C	1.398275	-0.472638	-0.438244
C31	C	1.490703	-0.477338	-0.442595
C32	C	1.181435	-0.461553	-0.619986
C33	C	1.181457	-0.461530	-0.701785
C34	C	1.192492	-0.244718	-0.418872
C35	C	1.197227	-0.152292	-0.414969
C36	C	1.237389	-0.411002	-0.890236
C37	C	1.237400	-0.410978	-0.967094
C38	C	1.125591	-0.511932	-0.966568
C39	C	1.125577	-0.511951	-0.889711
C40	C	1.181480	-0.461487	-0.851547
C41	C	1.181506	-0.461445	-1.005263
C42	C	1.181518	-0.461419	-1.088596
C43	C	1.181468	-0.461511	-0.768209
C44	C	1.181379	-0.461605	-0.236826
C45	C	1.181529	-0.461402	-0.155025
H46	H	0.670413	-0.392264	-0.363906
H47	H	0.693188	-0.531017	-0.492219
H48	H	1.282925	-0.369866	-0.998591
H49	H	1.250779	-0.949801	-0.370029
N50	N	1.100670	-0.981053	-0.495653
N51	N	1.096872	-1.058598	-0.498881
H52	H	1.056945	-1.088085	-0.532308
H53	H	1.282907	-0.369908	-0.859165
N54	N	1.068495	-0.563472	-1.005564
N55	N	1.068515	-0.563449	-1.074186
H56	H	1.028191	-0.599851	-1.101728
H57	H	1.080044	-0.553062	-0.858209
