data_functionalizedCrystal
_audit_creation_method	'MofGen! by Chris Wilmer'
_symmetry_space_group_name_H-M	'P1'
_symmetry_Int_Tables_number	1
_symmetry_cell_setting	triclinic
loop_
_symmetry_equiv_pos_as_xyz
  x,y,z
_cell_length_a	10.723024
_cell_length_b	14.044220
_cell_length_c	9.198806
_cell_angle_alpha	89.995861
_cell_angle_beta	89.996352
_cell_angle_gamma	88.828373
loop_
_atom_site_label
_atom_site_type_symbol
_atom_site_fract_x
_atom_site_fract_y
_atom_site_fract_z
O1	O	1.670498	0.133040	-0.120888
O2	O	1.308620	0.145774	-0.120893
O3	O	1.484127	0.001387	-0.120876
O4	O	1.494991	0.277427	-0.120905
O5	O	1.484112	0.001387	0.120909
O6	O	1.308604	0.145774	0.120892
O7	O	1.670483	0.133039	0.120898
Cu8	Cu	1.489542	0.139407	0.142972
Cu9	Cu	1.489560	0.139407	-0.142967
O10	O	1.494975	0.277427	0.120881
C11	C	1.262020	0.144847	-0.000001
C12	C	1.123188	0.142075	-0.000003
C13	C	1.479364	-0.033958	0.000017
C14	C	1.465180	-0.139276	0.000019
C15	C	1.056288	0.222866	-0.000012
C16	C	0.912798	0.220002	-0.000013
C17	C	1.439248	-0.332106	-0.000003
C18	C	1.539849	-0.389085	-0.000006
C19	C	1.525420	-0.496383	-0.000017
C20	C	1.453675	-0.224799	0.000009
C21	C	1.717083	0.133966	0.000002
C22	C	1.855914	0.136739	-0.000006
C23	C	1.499738	0.312772	-0.000016
C24	C	1.513923	0.418090	-0.000027
N25	N	1.489539	0.139406	0.344086
N26	N	1.489573	0.139401	-0.344081
C27	C	1.563202	0.078514	0.416290
C28	C	1.563221	0.078511	0.583702
H29	H	0.855286	0.289166	-0.000027
H30	H	1.342291	-0.363906	-0.000008
C31	C	1.404365	0.209834	0.572057
C32	C	1.418189	0.317832	0.593709
C33	C	1.332981	0.388265	0.509835
C34	C	1.233950	0.350701	0.404308
C35	C	1.220122	0.242698	0.382651
C36	C	1.305330	0.172265	0.466525
H37	H	1.491501	0.345644	0.671831
H38	H	1.343218	0.468216	0.525868
H39	H	1.170875	0.402840	0.342219
H40	H	1.146810	0.214886	0.304529
H41	H	1.295093	0.092314	0.450493
C42	C	1.057068	0.045762	0.000007
C43	C	1.079235	-0.025111	-0.125538
C44	C	1.013119	-0.121427	-0.125529
C45	C	0.924836	-0.146870	0.000025
C46	C	0.902665	-0.075996	0.125579
C47	C	0.968781	0.020320	0.125570
H48	H	1.144592	-0.006278	-0.218489
H49	H	1.029533	-0.173893	-0.218473
H50	H	0.875893	-0.218169	0.000032
H51	H	0.837309	-0.094829	0.218530
H52	H	0.952368	0.072786	0.218514
C53	C	1.648426	0.008080	0.667573
C54	C	1.648366	0.008207	0.834979
C55	C	1.733574	-0.062226	0.918853
C56	C	1.818841	-0.132787	0.835322
C57	C	1.818903	-0.132917	0.667907
C58	C	1.733696	-0.062483	0.584033
H59	H	1.585244	0.060443	0.896822
H60	H	1.733527	-0.062129	1.042785
H61	H	1.881916	-0.184926	0.897411
H62	H	1.882026	-0.185153	0.606064
H63	H	1.733743	-0.062580	0.460101
H64	H	1.105243	0.294155	-0.000011
H65	H	1.626251	0.026381	0.354170
H66	H	1.426481	0.191531	0.406208
H67	H	0.913420	0.067571	-0.000007
H68	H	1.636814	-0.357284	-0.000102
