data_functionalizedCrystal
_audit_creation_method	'MofGen! by Chris Wilmer'
_symmetry_space_group_name_H-M	'P1'
_symmetry_Int_Tables_number	1
_symmetry_cell_setting	triclinic
loop_
_symmetry_equiv_pos_as_xyz
  x,y,z
_cell_length_a	27.732048
_cell_length_b	27.732048
_cell_length_c	26.809956
_cell_angle_alpha	90.000636
_cell_angle_beta	89.996742
_cell_angle_gamma	97.357345
loop_
_atom_site_label
_atom_site_type_symbol
_atom_site_fract_x
_atom_site_fract_y
_atom_site_fract_z
O1	O	0.640931	-0.057510	-0.041421
O2	O	0.500138	-0.066256	-0.041436
O3	O	0.574907	0.008514	-0.041419
O4	O	0.566162	-0.132280	-0.041439
O5	O	0.574893	0.008502	0.041541
O6	O	0.500123	-0.066267	0.041523
O7	O	0.640917	-0.057522	0.041539
Zn8	Zn	0.570518	-0.061896	0.054702
Zn9	Zn	0.570536	-0.061881	-0.054600
O10	O	0.566147	-0.132291	0.041521
C11	C	0.482124	-0.066078	0.000041
C12	C	0.428469	-0.065525	0.000036
C13	C	0.089654	-0.106229	0.000051
C14	C	-0.112006	-0.104178	0.000056
O15	O	-0.143262	-0.141398	0.000073
N16	N	-0.131130	-0.059843	0.000062
C17	C	-0.099835	-0.016017	0.000069
O18	O	-0.120728	0.021740	0.000079
C19	C	0.101824	-0.018068	0.000068
C20	C	0.120944	-0.062407	0.000057
C21	C	0.108775	-0.150563	0.000042
C22	C	0.159187	-0.151076	0.000038
C23	C	0.190477	-0.107253	0.000044
C24	C	0.171356	-0.062919	0.000054
C25	C	0.133117	0.025757	0.000079
C26	C	0.183535	0.025240	0.000080
C27	C	0.202655	-0.019098	0.000069
C28	C	0.253059	-0.019609	0.000056
N29	N	0.272183	-0.063944	0.000050
C30	C	0.240892	-0.107766	0.000044
C31	C	-0.205709	-0.014943	0.000069
C32	C	-0.256124	-0.014430	0.000068
C33	C	-0.268291	-0.102591	0.000056
C34	C	-0.217876	-0.103104	0.000053
C35	C	-0.186585	-0.059278	0.000063
C36	C	0.346761	-0.108839	0.000036
C37	C	0.397178	-0.109347	0.000030
C38	C	0.409341	-0.021186	0.000044
C39	C	0.358929	-0.020678	0.000048
C40	C	0.327639	-0.064508	0.000045
O41	O	0.284343	0.017592	0.000045
O42	O	0.261794	-0.145518	0.000045
C43	C	0.039242	-0.105716	0.000055
C44	C	0.020120	-0.061382	0.000065
C45	C	0.051411	-0.017560	0.000071
C46	C	-0.030294	-0.060869	0.000065
C47	C	-0.061585	-0.104691	0.000059
C48	C	-0.042461	-0.149026	0.000053
C49	C	0.007951	-0.149539	0.000049
C50	C	0.032287	0.026775	0.000077
C51	C	-0.018125	0.027284	0.000080
C52	C	-0.049416	-0.016538	0.000074
C53	C	0.574716	0.026515	0.000062
C54	C	0.574164	0.080170	0.000066
C55	C	0.658931	-0.057699	0.000060
C56	C	0.712586	-0.058252	0.000062
C57	C	0.566338	-0.150292	0.000039
C58	C	0.566891	-0.203947	0.000031
N59	N	0.570509	-0.061906	0.129298
C60	C	0.614867	0.418985	0.000045
C61	C	0.612816	0.620645	0.000038
O62	O	0.650037	0.651900	0.000021
N63	N	0.568481	0.639768	0.000034
C64	C	0.524656	0.608474	0.000028
O65	O	0.486899	0.629367	0.000019
C66	C	0.526707	0.406815	0.000031
C67	C	0.571045	0.387694	0.000041
C68	C	0.659202	0.399864	0.000054
C69	C	0.659714	0.349452	0.000059
C70	C	0.615892	0.318161	0.000054
C71	C	0.571557	0.337282	0.000045
C72	C	0.482882	0.375521	0.000022
C73	C	0.483399	0.325104	0.000021
C74	C	0.527737	0.305983	0.000031
C75	C	0.528247	0.255580	0.000045
N76	N	0.572583	0.236456	0.000050
C77	C	0.616405	0.267747	0.000054
C78	C	0.523582	0.714348	0.000027
C79	C	0.523069	0.764762	0.000027
C80	C	0.611230	0.776930	0.000036
C81	C	0.611742	0.726514	0.000040
C82	C	0.567917	0.695224	0.000031
C83	C	0.617477	0.161878	0.000064
C84	C	0.617986	0.111461	0.000071
C85	C	0.529825	0.099298	0.000059
C86	C	0.529316	0.149710	0.000055
C87	C	0.573147	0.180999	0.000056
O88	O	0.491047	0.224296	0.000057
O89	O	0.654156	0.246844	0.000053
C90	C	0.614355	0.469397	0.000041
C91	C	0.570021	0.488518	0.000032
C92	C	0.526198	0.457228	0.000027
C93	C	0.569508	0.538933	0.000032
C94	C	0.613330	0.570223	0.000036
C95	C	0.657665	0.551100	0.000041
C96	C	0.658177	0.500688	0.000045
C97	C	0.481863	0.476351	0.000023
C98	C	0.481355	0.526764	0.000019
C99	C	0.525177	0.558054	0.000023
N100	N	0.570549	-0.061867	-0.129196
C101	C	0.603640	-0.028781	0.473932
C102	C	0.603652	-0.028774	0.682810
O103	O	0.631801	-0.000613	0.709820
N104	N	0.570539	-0.061870	0.708925
C105	C	0.537419	-0.094969	0.682818
O106	O	0.509252	-0.123116	0.709824
C107	C	0.537406	-0.094974	0.473941
C108	C	0.570524	-0.061878	0.447829
C109	C	0.636755	0.004312	0.447819
C110	C	0.636754	0.004308	0.395603
C111	C	0.603637	-0.028789	0.369500
C112	C	0.570522	-0.061882	0.395612
C113	C	0.504284	-0.128070	0.447835
C114	C	0.504283	-0.128067	0.395613
C115	C	0.537401	-0.094972	0.369500
C116	C	0.537405	-0.094983	0.317293
N117	N	0.570517	-0.061887	0.291177
C118	C	0.603633	-0.028790	0.317281
C119	C	0.537429	-0.094965	0.792481
C120	C	0.537433	-0.094964	0.844700
C121	C	0.603665	-0.028768	0.844689
C122	C	0.603663	-0.028772	0.792469
C123	C	0.570542	-0.061868	0.766366
C124	C	0.603628	-0.028801	0.207623
C125	C	0.603625	-0.028809	0.155402
C126	C	0.537392	-0.095003	0.155418
C127	C	0.537396	-0.094997	0.207635
C128	C	0.570516	-0.061892	0.233735
O129	O	0.509266	-0.123126	0.290250
O130	O	0.631789	-0.000640	0.290266
C131	C	0.603642	-0.028777	0.526149
C132	C	0.570527	-0.061870	0.552261
C133	C	0.537410	-0.094968	0.526158
C134	C	0.570531	-0.061870	0.604480
C135	C	0.603647	-0.028773	0.630584
C136	C	0.636759	0.004324	0.604468
C137	C	0.636758	0.004320	0.552252
C138	C	0.504298	-0.128064	0.552273
C139	C	0.504303	-0.128058	0.604489
C140	C	0.537419	-0.094961	0.630593
H141	H	-0.202311	-0.139207	0.000047
O142	O	0.472045	-0.160171	0.473169
C143	C	0.424259	-0.152642	0.460396
H144	H	0.424321	-0.113939	0.446046
H145	H	0.399953	-0.158371	0.494734
H146	H	0.409862	-0.179528	0.430080
O147	O	0.668945	0.036518	0.526967
C148	C	0.698179	0.065719	0.561213
H149	H	0.678363	0.066124	0.598437
H150	H	0.705843	0.104376	0.546130
H151	H	0.733968	0.050270	0.566765
O152	O	0.701235	0.482094	0.000139
C153	C	0.704164	0.453288	0.043098
H154	H	0.678990	0.465023	0.073127
H155	H	0.743155	0.458104	0.057523
H156	H	0.692718	0.413444	0.033384
H157	H	0.445246	0.542327	0.000015
H158	H	0.510433	-0.121951	0.228896
O159	O	0.439248	0.446028	0.000044
C160	C	0.400012	0.473724	0.000026
H161	H	0.412573	0.511446	0.015727
H162	H	0.369326	0.454909	0.024112
H163	H	0.386407	0.477212	-0.039775
H164	H	-0.033688	0.063392	0.000085
H165	H	0.510430	-0.121952	0.134157
O166	O	0.480041	0.783414	0.000044
C167	C	0.488979	0.834621	0.000031
H168	H	0.526787	0.846741	0.015743
H169	H	0.460624	0.849892	0.024110
H170	H	0.486751	0.848638	-0.039770
H171	H	0.487892	0.688875	0.000020
O172	O	0.635781	0.003422	0.232919
C173	C	0.628275	0.051219	0.220162
H174	H	0.609638	0.051025	0.182251
H175	H	0.664787	0.075274	0.218366
H176	H	0.604331	0.066007	0.249554
H177	H	0.647846	0.710950	0.000047
O178	O	0.505332	-0.127164	0.870086
C179	C	0.530991	-0.156803	0.900298
H180	H	0.569104	-0.157358	0.884560
H181	H	0.510979	-0.195360	0.900889
H182	H	0.533637	-0.141659	0.939875
H183	H	0.321291	-0.144530	0.000035
O184	O	0.653831	0.807281	-0.000029
C185	C	0.680769	0.798673	-0.043001
H186	H	0.668613	0.760337	-0.057323
H187	H	0.721112	0.802521	-0.033340
H188	H	0.674366	0.826200	-0.073088
O189	O	0.439673	0.021425	0.000027
C190	C	0.411990	0.060671	0.000049
H191	H	0.374269	0.048122	-0.015658
H192	H	0.430818	0.091355	-0.024030
H193	H	0.408500	0.074272	0.039852
H194	H	0.477330	-0.155015	0.531024
H195	H	0.630630	-0.001820	0.865951
H196	H	0.446777	0.391080	0.000011
H197	H	0.663726	0.031271	0.625730
O198	O	0.026441	-0.192652	0.000065
C199	C	-0.011996	-0.231215	0.000048
H200	H	-0.046147	-0.217922	0.015756
H201	H	-0.001693	-0.262197	0.024129
H202	H	-0.019229	-0.244708	-0.039754
H203	H	0.447710	0.299629	0.000014
O204	O	0.700222	0.581520	-0.000044
C205	C	0.702557	0.611050	-0.043006
H206	H	0.677703	0.592398	-0.073036
H207	H	0.741539	0.617009	-0.057426
H208	H	0.690319	0.647622	-0.033296
H209	H	-0.067947	-0.184708	0.000046
H210	H	0.477335	-0.155012	0.625747
H211	H	0.493213	0.165279	0.000061
H212	H	0.477310	-0.155018	0.374362
H213	H	0.494146	0.073812	0.000057
H214	H	0.412743	-0.145454	0.000021
O215	O	0.062611	0.069391	0.000058
C216	C	0.034915	0.108627	0.000077
H217	H	-0.002806	0.096065	-0.015626
H218	H	0.053731	0.139312	-0.024007
H219	H	0.031423	0.122231	0.039879
H220	H	0.663720	0.031258	0.374345
O221	O	0.635724	0.003350	0.129959
C222	C	0.628587	-0.003710	0.078271
H223	H	0.610310	-0.042291	0.071119
H224	H	0.665214	0.002019	0.058392
H225	H	0.604468	0.023433	0.063505
O226	O	0.177676	-0.194189	0.000056
C227	C	0.139240	-0.232752	0.000040
H228	H	0.105088	-0.219458	0.015746
H229	H	0.149542	-0.263732	0.024125
H230	H	0.132009	-0.246248	-0.039760
O231	O	0.668975	0.036482	0.473094
C232	C	0.698188	0.065695	0.438839
H233	H	0.698573	0.045874	0.401617
H234	H	0.736850	0.073333	0.453913
H235	H	0.682766	0.101498	0.433286
H236	H	0.083302	-0.186251	0.000038
H237	H	0.630630	-0.001822	0.771211
O238	O	-0.298760	-0.145116	0.000073
C239	C	-0.347355	-0.135150	0.000062
H240	H	-0.349006	-0.097197	0.015769
H241	H	-0.370407	-0.163104	0.024146
H242	H	-0.361948	-0.137091	-0.039738
O243	O	0.661101	0.092968	0.000056
C244	C	0.699668	0.131401	0.000070
H245	H	0.686380	0.165552	-0.015640
H246	H	0.730649	0.121091	-0.024011
H247	H	0.713160	0.138637	0.039870
H248	H	0.653168	0.187348	0.000063
O249	O	0.340296	0.022361	0.000120
C250	C	0.311512	0.025296	0.043097
H251	H	0.298674	-0.012900	0.057416
H252	H	0.278637	0.044317	0.033444
H253	H	0.333948	0.046845	0.073184
H254	H	0.510457	-0.121917	0.771232
O255	O	-0.274614	0.028683	0.000094
C256	C	-0.236179	0.067248	0.000088
H257	H	-0.202029	0.053953	0.015792
H258	H	-0.246487	0.098223	0.024179
H259	H	-0.228943	0.080752	-0.039709
O260	O	-0.175269	0.027601	0.000007
C261	C	-0.145749	0.029956	-0.042965
H262	H	-0.143471	-0.008390	-0.057292
H263	H	-0.107726	0.048258	-0.033302
H264	H	-0.162180	0.051903	-0.073050
H265	H	0.117558	0.061861	0.000088
O266	O	0.213910	0.067826	-0.000001
C267	C	0.205282	0.094779	-0.042955
H268	H	0.187864	0.069132	-0.072988
H269	H	0.241196	0.114440	-0.057376
H270	H	0.179811	0.122558	-0.033234
O271	O	0.702827	0.330962	0.000042
C272	C	0.741390	0.369399	0.000057
H273	H	0.728098	0.403549	-0.015651
H274	H	0.772373	0.359094	-0.024026
H275	H	0.754883	0.376634	0.039858
O276	O	0.701762	0.430274	-0.000029
C277	C	0.704116	0.459812	-0.042986
H278	H	0.679260	0.441173	-0.073022
H279	H	0.743100	0.465757	-0.057400
H280	H	0.691892	0.496389	-0.033273
