data_functionalizedCrystal
_audit_creation_method	'MofGen! by Chris Wilmer'
_symmetry_space_group_name_H-M	'P1'
_symmetry_Int_Tables_number	1
_symmetry_cell_setting	triclinic
loop_
_symmetry_equiv_pos_as_xyz
  x,y,z
_cell_length_a	19.288864
_cell_length_b	8.597304
_cell_length_c	7.088638
_cell_angle_alpha	91.326745
_cell_angle_beta	96.204680
_cell_angle_gamma	84.239691
loop_
_atom_site_label
_atom_site_type_symbol
_atom_site_fract_x
_atom_site_fract_y
_atom_site_fract_z
O1	O	0.931281	0.176574	0.188694
O2	O	0.729419	0.202562	0.192843
O3	O	0.832691	-0.035161	0.153747
O4	O	0.828009	0.414297	0.227790
O5	O	0.818873	-0.003346	-0.159011
O6	O	0.715601	0.234376	-0.119915
O7	O	0.917462	0.208389	-0.124064
Cu8	Cu	0.815270	0.224287	-0.150547
Cu9	Cu	0.831612	0.186663	0.219326
O10	O	0.814190	0.446111	-0.084967
C11	C	0.696620	0.217635	0.036310
C12	C	0.619475	0.215131	0.035848
C13	C	0.824510	-0.076755	-0.012102
C14	C	0.820710	-0.248093	-0.040320
C15	C	0.576954	0.354609	0.058855
C16	C	0.504471	0.352250	0.058488
C17	C	0.474514	0.210401	0.035149
C18	C	0.517044	0.070906	0.012128
C19	C	0.589524	0.073271	0.012477
C20	C	0.369358	0.087742	0.126415
C21	C	0.296879	0.085382	0.126079
C22	C	0.250960	0.203102	0.034062
C23	C	0.277529	0.323206	-0.057589
C24	C	0.350009	0.325571	-0.057240
C25	C	0.395922	0.207821	0.034766
C26	C	0.129844	0.340031	0.056670
C27	C	0.057360	0.337667	0.056290
C28	C	0.069935	0.056318	0.009948
C29	C	0.142417	0.058687	0.010310
C30	C	0.172367	0.200548	0.033681
C31	C	0.950262	0.193315	0.032473
C32	C	1.027407	0.195818	0.032948
C33	C	0.822372	0.487706	0.080886
C34	C	0.826172	0.659042	0.109116
N35	N	0.803781	0.250749	-0.410695
N36	N	0.843106	0.160189	0.479472
H37	H	0.601335	0.470122	0.077889
H38	H	0.154230	0.455545	0.075672
H39	H	0.763041	0.344577	-0.476954
H40	H	0.406741	-0.008124	0.201357
C41	C	0.636302	-0.080166	-0.012819
C42	C	0.680661	-0.100708	-0.181352
C43	C	0.727440	-0.254147	-0.206644
C44	C	0.729861	-0.387044	-0.063402
C45	C	0.685501	-0.366506	0.105143
C46	C	0.638721	-0.213067	0.130434
H47	H	0.678870	-0.002326	-0.287399
H48	H	0.760279	-0.269350	-0.331412
H49	H	0.764490	-0.500629	-0.082124
H50	H	0.687291	-0.464888	0.211189
H51	H	0.605883	-0.197864	0.255203
H52	H	0.813118	-0.299670	-0.189866
C53	C	0.379235	0.457664	-0.158070
C54	C	0.424736	0.418499	-0.321682
C55	C	0.453961	0.550590	-0.422523
C56	C	0.437686	0.721845	-0.359752
C57	C	0.392183	0.761018	-0.196131
C58	C	0.362957	0.628928	-0.095290
H59	H	0.436786	0.291719	-0.368157
H60	H	0.487646	0.521590	-0.543646
H61	H	0.459320	0.819626	-0.434400
H62	H	0.380133	0.887799	-0.149657
H63	H	0.329273	0.657927	0.025833
H64	H	0.833754	-0.289385	0.258653
C65	C	0.898145	0.033415	-0.431024
C66	C	0.907622	0.011546	-0.214453
C67	C	0.962660	-0.115225	-0.124948
C68	C	1.008220	-0.220129	-0.252015
C69	C	0.998744	-0.198263	-0.468599
C70	C	0.943706	-0.071492	-0.558103
H71	H	0.873895	0.089205	-0.120379
H72	H	0.969674	-0.131411	0.035382
H73	H	1.048962	-0.313972	-0.185758
H74	H	1.032471	-0.275922	-0.562673
H75	H	0.936691	-0.055306	-0.718434
C76	C	0.227027	0.452712	-0.158816
C77	C	0.147300	0.450114	-0.159222
C78	C	0.096796	0.579619	-0.260436
C79	C	0.126019	0.711722	-0.361244
C80	C	0.205750	0.714324	-0.360842
C81	C	0.256254	0.584819	-0.259628
H82	H	0.125664	0.352320	-0.084595
H83	H	0.037774	0.577692	-0.260734
H84	H	0.088632	0.807589	-0.436169
H85	H	0.227386	0.812119	-0.435469
H86	H	0.315276	0.586746	-0.259330
C87	C	0.189194	-0.094747	-0.014975
C88	C	0.233549	-0.115295	-0.183516
C89	C	0.280326	-0.268738	-0.208811
C90	C	0.282748	-0.401632	-0.065565
C91	C	0.238392	-0.381087	0.102988
C92	C	0.191615	-0.227645	0.128282
H93	H	0.231758	-0.016915	-0.289566
H94	H	0.313162	-0.283945	-0.333585
H95	H	0.317375	-0.515219	-0.084289
H96	H	0.240183	-0.479467	0.209037
H97	H	0.158779	-0.212438	0.253057
H98	H	0.469844	0.465833	0.077219
H99	H	0.492649	-0.044591	-0.006849
H100	H	0.045549	-0.059190	-0.008938
H101	H	0.022739	0.451253	0.075016
H102	H	0.275253	-0.012409	0.200715
