data_functionalizedCrystal
_audit_creation_method	'MofGen! by Chris Wilmer'
_symmetry_space_group_name_H-M	'P1'
_symmetry_Int_Tables_number	1
_symmetry_cell_setting	triclinic
loop_
_symmetry_equiv_pos_as_xyz
  x,y,z
_cell_length_a	12.759395
_cell_length_b	13.897449
_cell_length_c	12.759394
_cell_angle_alpha	89.991787
_cell_angle_beta	89.985318
_cell_angle_gamma	90.001565
loop_
_atom_site_label
_atom_site_type_symbol
_atom_site_fract_x
_atom_site_fract_y
_atom_site_fract_z
Zn1	Zn	1.606082	0.545328	0.418459
Zn2	Zn	1.606027	0.384033	0.594104
Zn3	Zn	1.430435	0.384053	0.418439
Zn4	Zn	1.430373	0.545292	0.594096
O5	O	1.518229	0.464677	0.506274
O6	O	1.753096	0.523939	0.441770
O7	O	1.582738	0.249054	0.570796
O8	O	1.453785	0.405471	0.271420
O9	O	1.753056	0.405436	0.570816
O10	O	1.582832	0.523959	0.271435
O11	O	1.453731	0.249069	0.441736
O12	O	1.283406	0.405435	0.441728
O13	O	1.453678	0.680278	0.570802
O14	O	1.283360	0.523896	0.570783
O15	O	1.582771	0.680305	0.441762
O16	O	1.582677	0.405400	0.741124
O17	O	1.453624	0.523877	0.741118
C18	C	1.245262	0.464665	0.506253
C19	C	1.128485	0.464683	0.506270
C20	C	1.128508	0.588279	0.372112
C21	C	1.073658	0.650085	0.305046
C22	C	0.963937	0.650097	0.305064
C23	C	0.909062	0.588295	0.372154
C24	C	0.963912	0.526488	0.439220
C25	C	1.073636	0.526485	0.439197
C26	C	0.963889	0.402888	0.573371
C27	C	1.073611	0.402880	0.573360
C28	C	0.909014	0.341086	0.640461
C29	C	0.963864	0.279283	0.707534
C30	C	1.073592	0.279274	0.707514
C31	C	1.128460	0.341074	0.640426
C32	C	1.518223	0.716270	0.506283
C33	C	1.518221	0.823483	0.506287
C34	C	1.518218	0.910553	0.506291
C35	C	1.518217	1.019786	0.506286
C36	C	1.792263	0.464689	0.506296
C37	C	1.909039	0.464694	0.506305
C38	C	1.518166	0.464653	0.779242
C39	C	1.518235	0.464676	0.896018
C40	C	1.518226	1.214062	0.506286
C41	C	1.518222	1.106848	0.506276
C42	C	1.518321	0.464721	0.232241
C43	C	1.518361	0.464740	0.115464
C44	C	1.652719	0.341399	0.895971
C45	C	1.719988	0.279771	0.950808
C46	C	1.720050	0.279798	1.060530
C47	C	1.652837	0.341460	1.115417
C48	C	1.585568	0.403087	1.060580
C49	C	1.585512	0.403052	0.950856
C50	C	1.451091	0.526367	1.060627
C51	C	1.451023	0.526338	0.950905
C52	C	1.383879	0.588029	1.115514
C53	C	1.316603	0.649653	1.060677
C54	C	1.316543	0.649623	0.950948
C55	C	1.383754	0.587965	0.896068
H56	H	0.919176	0.228964	0.762149
Br57	Br	1.383470	0.587615	1.264421
Br58	Br	1.148021	0.195383	0.798531
Br59	Br	1.225406	0.733337	1.135169
H60	H	0.919279	0.700420	0.250447
H61	H	1.217801	0.341068	0.640397
Br62	Br	1.652965	0.341658	0.747063
Br63	Br	1.811209	0.196099	0.876316
Br64	Br	0.760153	0.588296	0.372161
Br65	Br	1.811352	0.196169	1.134957
H66	H	1.652902	0.341484	1.204758
Br67	Br	1.225253	0.733273	0.876536
Br68	Br	1.384015	0.588230	0.747160
H69	H	1.217849	0.588271	0.372085
H70	H	1.118350	0.700402	0.250421
H71	H	0.819673	0.341097	0.640469
