data_functionalizedCrystal
_audit_creation_method	'MofGen! by Chris Wilmer'
_symmetry_space_group_name_H-M	'P1'
_symmetry_Int_Tables_number	1
_symmetry_cell_setting	triclinic
loop_
_symmetry_equiv_pos_as_xyz
  x,y,z
_cell_length_a	16.956995
_cell_length_b	14.853567
_cell_length_c	16.053802
_cell_angle_alpha	92.572962
_cell_angle_beta	87.607939
_cell_angle_gamma	79.844701
loop_
_atom_site_label
_atom_site_type_symbol
_atom_site_fract_x
_atom_site_fract_y
_atom_site_fract_z
O1	O	1.061441	0.033312	-0.069485
O2	O	1.394774	0.366645	0.263849
O3	O	1.728107	0.699979	0.597182
O4	O	0.829318	0.064960	-0.069472
O5	O	1.162651	0.398293	0.263861
O6	O	1.495984	0.731626	0.597195
O7	O	0.951580	-0.082565	-0.069481
O8	O	1.284913	0.250768	0.263852
O9	O	1.618246	0.584102	0.597185
O10	O	0.939179	0.180837	-0.069475
O11	O	1.272512	0.514170	0.263858
O12	O	1.605845	0.847503	0.597191
O13	O	0.944850	-0.074476	0.069378
O14	O	1.278183	0.258857	0.402712
O15	O	1.611517	0.592191	0.736045
O16	O	0.822588	0.073049	0.069388
O17	O	1.155921	0.406382	0.402721
O18	O	1.489255	0.739715	0.736054
O19	O	1.054711	0.041401	0.069375
O20	O	1.388044	0.374734	0.402708
O21	O	1.721378	0.708067	0.736041
Zn22	Zn	0.937581	0.058509	0.091428
Zn23	Zn	1.270914	0.391842	0.424761
Zn24	Zn	1.604248	0.725176	0.758095
Zn25	Zn	0.946448	0.047852	-0.091525
Zn26	Zn	1.279781	0.381185	0.241808
Zn27	Zn	1.613114	0.714518	0.575141
O28	O	0.932449	0.188925	0.069384
O29	O	1.265782	0.522259	0.402717
O30	O	1.599116	0.855592	0.736051
C31	C	0.796247	0.070625	-0.000041
C32	C	1.129580	0.403958	0.333293
C33	C	1.462913	0.737291	0.666626
C34	C	0.707731	0.075442	-0.000036
C35	C	1.041065	0.408776	0.333297
C36	C	1.374398	0.742109	0.666631
C37	C	0.208472	0.111480	-0.000066
C38	C	0.541806	0.444813	0.333267
C39	C	0.875139	0.778146	0.666600
C40	C	0.291643	0.106946	-0.000066
C41	C	0.624976	0.440280	0.333268
C42	C	0.958309	0.773613	0.666601
C43	C	0.342636	0.021850	-0.000061
C44	C	0.675970	0.355184	0.333272
C45	C	1.009303	0.688517	0.666605
C46	C	0.310457	-0.058718	-0.000066
C47	C	0.643790	0.274616	0.333267
C48	C	0.977123	0.607949	0.666601
C49	C	0.227288	-0.054184	-0.000072
C50	C	0.560622	0.279150	0.333261
C51	C	0.893955	0.612483	0.666594
C52	C	0.592383	-0.000592	-0.000047
C53	C	0.925717	0.332741	0.333286
C54	C	1.259050	0.666075	0.666619
C55	C	0.675557	-0.005120	-0.000038
C56	C	1.008890	0.328214	0.333295
C57	C	1.342223	0.661547	0.666629
C58	C	0.656737	0.160545	-0.000040
C59	C	0.990070	0.493878	0.333294
C60	C	1.323403	0.827212	0.666627
C61	C	0.573567	0.165072	-0.000041
C62	C	0.906901	0.498405	0.333292
C63	C	1.240234	0.831738	0.666626
C64	C	0.541395	0.084503	-0.000050
C65	C	0.874728	0.417837	0.333283
C66	C	1.208062	0.751170	0.666617
N67	N	0.427650	0.017215	-0.000058
N68	N	0.760983	0.350548	0.333275
N69	N	1.094316	0.683881	0.666609
N70	N	0.456383	0.089140	-0.000059
N71	N	0.789717	0.422473	0.333274
N72	N	1.123050	0.755806	0.666607
C73	C	0.947653	-0.112067	-0.000054
C74	C	1.280986	0.221267	0.333279
C75	C	1.614320	0.554600	0.666613
C76	C	0.945970	-0.212023	-0.000061
C77	C	1.279303	0.121310	0.333272
C78	C	1.612636	0.454644	0.666606
C79	C	0.866225	-0.618500	-0.000041
C80	C	1.199558	-0.285167	0.333293
C81	C	1.532892	0.048166	0.666626
C82	C	1.011475	-0.650811	-0.000049
C83	C	1.344808	-0.317478	0.333285
C84	C	1.678142	0.015856	0.666618
C85	C	1.013058	-0.556898	-0.000054
C86	C	1.346392	-0.223564	0.333280
C87	C	1.679725	0.109769	0.666613
C88	C	0.941224	-0.493781	-0.000051
C89	C	1.274557	-0.160448	0.333282
C90	C	1.607891	0.172885	0.666616
C91	C	0.867806	-0.524578	-0.000043
C92	C	1.201140	-0.191245	0.333290
C93	C	1.534473	0.142089	0.666623
C94	C	1.086474	-0.526093	-0.000053
C95	C	1.419808	-0.192760	0.333280
C96	C	1.753141	0.140573	0.666614
C97	C	1.088061	-0.432175	-0.000057
C98	C	1.421394	-0.098842	0.333276
C99	C	1.754727	0.234492	0.666609
C100	C	1.016226	-0.369057	-0.000060
C101	C	1.349559	-0.035724	0.333273
C102	C	1.682892	0.297610	0.666606
C103	C	0.942805	-0.399859	-0.000054
C104	C	1.276138	-0.066525	0.333280
C105	C	1.609472	0.266808	0.666613
C106	C	0.870971	-0.336742	-0.000051
C107	C	1.204304	-0.003409	0.333283
C108	C	1.537637	0.329925	0.666616
C109	C	0.797550	-0.367542	-0.000050
C110	C	1.130883	-0.034209	0.333284
C111	C	1.464216	0.299124	0.666617
C112	C	0.795971	-0.461460	-0.000046
C113	C	1.129305	-0.128126	0.333287
C114	C	1.462638	0.205207	0.666620
C115	C	1.017804	-0.275139	-0.000064
C116	C	1.351137	0.058194	0.333270
C117	C	1.684471	0.391527	0.666603
C118	C	0.872552	-0.242819	-0.000053
C119	C	1.205885	0.090514	0.333280
C120	C	1.539219	0.423847	0.666613
C121	C	1.087782	0.035736	-0.000058
C122	C	1.421115	0.369069	0.333275
C123	C	1.754449	0.702402	0.666608
C124	C	1.176298	0.030918	-0.000068
C125	C	1.509631	0.364251	0.333265
C126	C	1.842964	0.697584	0.666598
C127	C	0.936376	0.218427	-0.000045
C128	C	1.269709	0.551760	0.333288
C129	C	1.603042	0.885094	0.666621
C130	C	0.938059	0.318383	-0.000044
C131	C	1.271393	0.651716	0.333290
C132	C	1.604726	0.985050	0.666623
N133	N	0.931536	0.065781	0.216289
N134	N	1.264869	0.399115	0.549622
N135	N	1.598202	0.732448	0.882955
N136	N	0.952499	0.040572	-0.216386
N137	N	1.285833	0.373905	0.116947
N138	N	1.619166	0.707238	0.450281
C139	C	0.983577	0.003029	0.259979
C140	C	1.316911	0.336362	0.593312
C141	C	1.650244	0.669695	0.926645
C142	C	0.979356	0.008124	0.347386
C143	C	1.312689	0.341457	0.680719
C144	C	1.646023	0.674791	1.014053
C145	C	0.923096	0.075976	0.391101
C146	C	1.256429	0.409310	0.724435
C147	C	1.589763	0.742643	1.057768
C148	C	0.871049	0.138732	0.347405
C149	C	1.204382	0.472065	0.680739
C150	C	1.537716	0.805398	1.014072
C151	C	0.875267	0.133632	0.260000
C152	C	1.208600	0.466965	0.593333
C153	C	1.541934	0.800298	0.926666
C154	C	0.904670	0.098227	0.652512
C155	C	1.238004	0.431561	0.985846
C156	C	1.571337	0.764894	1.319179
C157	C	0.900458	0.103324	0.739924
C158	C	1.233791	0.436657	1.073257
C159	C	1.567124	0.769991	1.406591
C160	C	1.008764	-0.027285	0.739899
C161	C	1.342098	0.306048	1.073232
C162	C	1.675431	0.639381	1.406565
C163	C	1.012981	-0.032376	0.652491
C164	C	1.346314	0.300958	0.985825
C165	C	1.679647	0.634291	1.319158
C166	C	0.960931	0.030377	0.608803
C167	C	1.294264	0.363710	0.942136
C168	C	1.627597	0.697043	1.275470
N169	N	0.918781	0.081188	0.480445
N170	N	1.252115	0.414521	0.813779
N171	N	1.585448	0.747854	1.147112
N172	N	0.965242	0.025161	0.519460
N173	N	1.298575	0.358494	0.852794
N174	N	1.631909	0.691827	1.186127
H175	H	0.532053	0.234366	-0.000047
H176	H	0.865386	0.567699	0.333286
H177	H	1.198720	0.901033	0.666619
H178	H	1.144957	-0.577488	-0.000048
H179	H	1.478291	-0.244155	0.333286
H180	H	1.811624	0.089178	0.666619
H181	H	0.814055	-0.191435	-0.000055
H182	H	1.147388	0.141899	0.333279
H183	H	1.480722	0.475232	0.666612
H184	H	1.029393	-0.052220	0.224391
H185	H	1.362727	0.281113	0.557725
H186	H	1.696060	0.614447	0.891058
Br187	Br	1.117437	-0.233339	-0.000045
Br188	Br	1.450770	0.099994	0.333288
Br189	Br	1.784104	0.433327	0.666622
H190	H	0.317835	0.172548	-0.000072
H191	H	0.651168	0.505881	0.333261
H192	H	0.984502	0.839215	0.666595
Br193	Br	0.183622	-0.163522	-0.000078
Br194	Br	0.516955	0.169811	0.333255
Br195	Br	0.850289	0.503144	0.666588
Br196	Br	0.379662	-0.174207	-0.000065
Br197	Br	0.712995	0.159126	0.333269
Br198	Br	1.046329	0.492459	0.666602
H199	H	1.021732	-0.042974	0.382958
H200	H	1.355065	0.290359	0.716291
H201	H	1.688398	0.623692	1.049625
H202	H	1.147845	-0.407106	-0.000059
H203	H	1.481178	-0.073773	0.333274
H204	H	1.814511	0.259560	0.666608
H205	H	0.682941	0.226139	-0.000034
H206	H	1.016274	0.559472	0.333300
H207	H	1.349608	0.892806	0.666633
Br208	Br	1.089336	-0.124458	0.593162
Br209	Br	1.422670	0.208875	0.926495
Br210	Br	1.756003	0.542209	1.259828
Br211	Br	0.744763	-0.120615	-0.000031
Br212	Br	1.078097	0.212719	0.333303
Br213	Br	1.411430	0.546052	0.666636
H214	H	0.566199	-0.066196	-0.000052
H215	H	0.899532	0.267137	0.333281
H216	H	1.232866	0.600471	0.666614
H217	H	0.739062	-0.316140	-0.000042
H218	H	1.072395	0.017193	0.333292
H219	H	1.405729	0.350526	0.666625
Br220	Br	0.696338	-0.503267	-0.000051
Br221	Br	1.029671	-0.169934	0.333283
Br222	Br	1.363004	0.163400	0.666616
Br223	Br	0.139273	0.226974	-0.000063
Br224	Br	0.472607	0.560307	0.333271
Br225	Br	0.805940	0.893640	0.666604
Br226	Br	1.079398	-0.112447	0.799193
Br227	Br	1.412732	0.220887	1.132526
Br228	Br	1.746065	0.554220	1.465860
H229	H	0.806447	-0.643583	-0.000043
H230	H	1.139781	-0.310249	0.333290
H231	H	1.473114	0.023084	0.666623
Br232	Br	0.824102	0.195421	0.799247
Br233	Br	1.157435	0.528755	1.132580
Br234	Br	1.490768	0.862088	1.465914
H235	H	1.069959	-0.702205	-0.000044
H236	H	1.403292	-0.368872	0.333289
H237	H	1.736625	-0.035538	0.666622
Br238	Br	0.834035	0.183390	0.593226
Br239	Br	1.167368	0.516723	0.926559
Br240	Br	1.500702	0.850057	1.259892
H241	H	0.825237	0.193976	0.383003
H242	H	1.158570	0.527309	0.716337
H243	H	1.491904	0.860642	1.049670
Br244	Br	0.804631	0.218794	0.200706
Br245	Br	1.137964	0.552128	0.534039
Br246	Br	1.471297	0.885461	0.867373
