data_functionalizedCrystal
_audit_creation_method	'MofGen! by Chris Wilmer'
_symmetry_space_group_name_H-M	'P1'
_symmetry_Int_Tables_number	1
_symmetry_cell_setting	triclinic
loop_
_symmetry_equiv_pos_as_xyz
  x,y,z
_cell_length_a	10.968094
_cell_length_b	10.489741
_cell_length_c	10.065875
_cell_angle_alpha	98.864183
_cell_angle_beta	69.209686
_cell_angle_gamma	84.625935
loop_
_atom_site_label
_atom_site_type_symbol
_atom_site_fract_x
_atom_site_fract_y
_atom_site_fract_z
O1	O	1.703104	0.131952	-0.287019
O2	O	1.325794	0.163589	-0.198286
O3	O	1.523036	-0.038164	-0.244680
O4	O	1.505862	0.333705	-0.240625
O5	O	1.560716	-0.076720	-0.480532
O6	O	1.363474	0.125034	-0.434138
O7	O	1.740783	0.093396	-0.522871
Zn8	Zn	1.558111	0.103093	-0.515951
Zn9	Zn	1.508467	0.153892	-0.205206
O10	O	1.543542	0.295150	-0.476477
C11	C	1.296320	0.144924	-0.304850
C12	C	1.152358	0.146733	-0.270994
C13	C	0.958894	0.129424	-0.343077
C14	C	1.107687	0.127561	-0.378083
C15	C	1.540579	-0.104923	-0.362300
C16	C	1.536698	-0.246400	-0.361385
C17	C	1.411198	-0.309634	-0.331861
C18	C	1.489061	-0.423084	-0.462090
C19	C	1.451941	-0.385047	-0.229566
C20	C	1.614627	-0.358002	-0.491723
C21	C	1.577474	-0.319938	-0.259090
C22	C	1.655432	-0.433368	-0.389369
C23	C	1.770257	0.112062	-0.416304
C24	C	1.914218	0.110255	-0.450151
C25	C	1.525999	0.361909	-0.358854
C26	C	1.529877	0.503388	-0.359759
N27	N	1.592002	0.068423	-0.728028
N28	N	1.474586	0.188552	0.006869
C29	C	1.546331	0.115160	0.057772
C30	C	1.520246	0.141825	0.221075
H31	H	0.986126	0.092458	-0.567737
H32	H	1.451666	-0.468092	-0.547914
H33	H	1.383116	-0.397862	-0.118753
N34	N	1.274545	-0.238545	-0.299855
H35	H	1.241359	-0.276367	-0.376673
H36	H	1.278086	-0.142671	-0.299772
H37	H	1.683406	-0.345333	-0.602622
N38	N	1.413284	0.251208	0.323466
H39	H	1.433170	0.337083	0.294017
H40	H	1.409855	0.254637	0.425575
N41	N	0.863647	0.152992	-0.187321
H42	H	0.868361	0.241204	-0.134300
H43	H	0.887969	0.082509	-0.139025
N44	N	1.057125	0.170304	-0.115225
H45	H	1.107385	0.182839	-0.048581
H46	H	1.009897	0.092591	-0.098803
H47	H	1.672748	-0.014152	0.194658
N48	N	1.792239	-0.504201	-0.421611
H49	H	1.853495	-0.494972	-0.520588
H50	H	1.788627	-0.599812	-0.419905
N51	N	1.626959	-0.260272	-0.145395
H52	H	1.565448	-0.269246	-0.046429
H53	H	1.630042	-0.164679	-0.147659
H54	H	1.627072	0.032590	-0.019544
H55	H	1.393855	0.271130	0.084184
N56	N	1.202919	0.103985	-0.533853
H57	H	1.295713	0.105994	-0.536781
H58	H	1.178533	0.174413	-0.582177
