data_functionalizedCrystal
_audit_creation_method	'MofGen! by Chris Wilmer'
_symmetry_space_group_name_H-M	'P1'
_symmetry_Int_Tables_number	1
_symmetry_cell_setting	triclinic
loop_
_symmetry_equiv_pos_as_xyz
  x,y,z
_cell_length_a	18.050589
_cell_length_b	18.215407
_cell_length_c	18.215407
_cell_angle_alpha	89.992262
_cell_angle_beta	90.004591
_cell_angle_gamma	89.976159
loop_
_atom_site_label
_atom_site_type_symbol
_atom_site_fract_x
_atom_site_fract_y
_atom_site_fract_z
Zn1	Zn	-0.295893	-1.124982	0.416097
Zn2	Zn	-0.420047	-1.124905	0.293041
Zn3	Zn	-0.295866	-1.001936	0.293049
Zn4	Zn	-0.420036	-1.001873	0.416070
O5	O	-0.357961	-1.063424	0.354564
O6	O	-0.312378	-1.227956	0.399782
O7	O	-0.403567	-1.108587	0.190057
O8	O	-0.191945	-1.018317	0.309387
O9	O	-0.403594	-1.227899	0.309372
O10	O	-0.191965	-1.108718	0.399790
O11	O	-0.312332	-1.018242	0.190064
O12	O	-0.312321	-0.898943	0.309360
O13	O	-0.403576	-1.018210	0.519058
O14	O	-0.403549	-0.898897	0.399743
O15	O	-0.312368	-1.108657	0.519078
O16	O	-0.523970	-1.108526	0.309345
O17	O	-0.523962	-1.018135	0.399734
C18	C	-0.357932	-0.872218	0.354550
C19	C	-0.357937	-0.790419	0.354561
C20	C	-0.310533	-0.602253	0.401711
C21	C	-0.310537	-0.525395	0.401712
C22	C	-0.405377	-0.525347	0.307424
C23	C	-0.405369	-0.602204	0.307419
C24	C	-0.357948	-0.640655	0.354566
C25	C	-0.357960	-0.486939	0.354573
C26	C	-0.357965	-0.403606	0.354575
C27	C	-0.357942	-0.723994	0.354564
C28	C	-0.550913	-1.063335	0.354552
C29	C	-0.633459	-1.063364	0.354571
C30	C	-0.832932	-1.014258	0.403708
C31	C	-0.882348	-0.996330	0.336554
C32	C	-0.784589	-1.063437	0.354581
C33	C	-0.882254	-1.081401	0.421742
C34	C	-0.930574	-1.063505	0.354596
C35	C	-0.832918	-1.045474	0.287392
C36	C	-0.832820	-1.130575	0.372625
C37	C	-0.882214	-1.112673	0.305425
C38	C	-0.700491	-1.063395	0.354573
C39	C	-1.014670	-1.063547	0.354596
C40	C	-0.164255	-1.063533	0.354593
C41	C	-0.081709	-1.063580	0.354605
C42	C	-0.357974	-1.063435	0.546517
C43	C	-0.357979	-1.063440	0.628316
C44	C	-0.357982	-0.255377	0.354577
C45	C	-0.357971	-0.337176	0.354578
C46	C	-0.405471	-1.110471	0.893375
C47	C	-0.405474	-1.110473	0.816516
C48	C	-0.310476	-1.016388	0.816506
C49	C	-0.310477	-1.016383	0.893363
C50	C	-0.357973	-1.063429	0.931796
C51	C	-0.357976	-1.063435	0.778080
C52	C	-0.357979	-1.063437	0.694746
C53	C	-0.357971	-1.063426	1.015135
C54	C	-0.357967	-1.063413	1.163358
C55	C	-0.357970	-1.063424	1.081559
H56	H	-0.443986	-0.494030	0.269039
H57	H	-0.271805	-0.978086	0.785205
H58	H	-0.271926	-0.494131	0.440101
O59	O	-0.451646	-1.156063	0.930790
C60	C	-0.499621	-1.114137	0.975223
H61	H	-0.473423	-1.058379	0.986729
H62	H	-0.509576	-1.144106	1.029273
H63	H	-0.554656	-1.106025	0.945596
O64	O	-0.806876	-1.198233	0.390980
C65	C	-0.831983	-1.216933	0.461848
H66	H	-0.845896	-1.164765	0.493553
H67	H	-0.786740	-1.248491	0.492057
H68	H	-0.883613	-1.252664	0.457240
O69	O	-0.264264	-0.970660	0.930576
C70	C	-0.222351	-0.929128	0.880176
H71	H	-0.219778	-0.959275	0.825395
H72	H	-0.163839	-0.921305	0.902390
H73	H	-0.249543	-0.873223	0.871988
H74	H	-0.903717	-1.154291	0.263839
O75	O	-0.807144	-0.964475	0.453118
C76	C	-0.832400	-0.893801	0.433831
H77	H	-0.846266	-0.892465	0.372787
H78	H	-0.787265	-0.851787	0.446063
H79	H	-0.884089	-0.880000	0.467044
O80	O	-0.264398	-0.639492	0.447528
C81	C	-0.222563	-0.589112	0.489152
H82	H	-0.219949	-0.534321	0.459014
H83	H	-0.164060	-0.611338	0.497098
H84	H	-0.249849	-0.580939	0.545000
O85	O	-0.451501	-0.639399	0.261597
C86	C	-0.493349	-0.588982	0.219976
H87	H	-0.495978	-0.534199	0.250117
H88	H	-0.551845	-0.611172	0.212027
H89	H	-0.466064	-0.580805	0.164129
H90	H	-0.904120	-0.939586	0.321306
H91	H	-0.811337	-1.030241	0.230585
H92	H	-0.903925	-1.096568	0.478534
O93	O	-0.451636	-1.156241	0.779308
C94	C	-0.493568	-1.197746	0.829714
H95	H	-0.463148	-1.200306	0.884502
H96	H	-0.501495	-1.255727	0.807517
H97	H	-0.549970	-1.170770	0.837880
