data_functionalizedCrystal
_audit_creation_method	'MofGen! by Chris Wilmer'
_symmetry_space_group_name_H-M	'P1'
_symmetry_Int_Tables_number	1
_symmetry_cell_setting	triclinic
loop_
_symmetry_equiv_pos_as_xyz
  x,y,z
_cell_length_a	15.995350
_cell_length_b	17.038272
_cell_length_c	15.072220
_cell_angle_alpha	89.999202
_cell_angle_beta	89.991149
_cell_angle_gamma	87.301966
loop_
_atom_site_label
_atom_site_type_symbol
_atom_site_fract_x
_atom_site_fract_y
_atom_site_fract_z
O1	O	1.118174	0.100774	-0.073708
O2	O	0.875285	0.113219	-0.073726
O3	O	0.995286	-0.006819	-0.073710
O4	O	0.998173	0.220812	-0.073724
O5	O	0.995255	-0.006813	0.073855
O6	O	0.875254	0.113226	0.073839
O7	O	1.118143	0.100781	0.073857
Zn8	Zn	0.996694	0.107004	0.097277
Zn9	Zn	0.996735	0.106995	-0.097146
O10	O	0.998142	0.220819	0.073841
C11	C	0.844038	0.112708	0.000054
C12	C	0.750978	0.111165	0.000047
C13	C	0.412836	0.105626	0.000066
C14	C	0.454180	0.020137	0.000400
C15	C	0.550981	0.021680	0.000062
C16	C	0.580592	0.108374	0.000057
C17	C	0.542527	0.150536	-0.084209
C18	C	0.445738	0.148388	-0.084273
C19	C	0.445489	0.150162	0.083536
C20	C	0.542433	0.150142	0.084644
C21	C	0.675401	0.109931	0.000049
C22	C	0.318027	0.104071	0.000068
C23	C	0.992645	-0.035945	0.000072
C24	C	0.984810	-0.122740	0.000071
C25	C	1.056739	-0.172836	0.000078
C26	C	1.049373	-0.254389	0.000069
C27	C	0.970077	-0.285843	0.000060
C28	C	0.898143	-0.235740	0.000051
C29	C	0.905510	-0.154189	0.000053
C30	C	0.944051	-0.531607	0.000046
C31	C	0.936689	-0.613164	0.000046
C32	C	1.087920	-0.631807	0.000062
C33	C	1.095280	-0.550254	0.000070
C34	C	1.023346	-0.500158	0.000056
C35	C	0.962546	-0.369202	0.000053
C36	C	1.030878	-0.416801	0.000056
C37	C	1.149390	0.101292	0.000075
C38	C	1.242450	0.102834	0.000076
C39	C	1.000784	0.249944	0.000057
C40	C	1.008618	0.336739	0.000052
N41	N	0.996671	0.107010	0.229966
N42	N	0.996763	0.106984	-0.229835
C43	C	0.996733	0.106992	0.589168
C44	C	0.932276	0.171007	0.551552
C45	C	0.932451	0.171241	0.448726
C46	C	0.996702	0.107001	0.410963
C47	C	1.085336	0.124819	0.448260
C48	C	1.084981	0.125274	0.551118
C49	C	0.973321	0.024970	0.551271
C50	C	0.971355	0.025517	0.448408
C51	C	0.996689	0.107004	0.310250
C52	C	0.996751	0.106991	0.689881
H53	H	0.422949	0.122217	0.147408
N54	N	0.411262	0.229227	0.084248
N55	N	0.333744	0.242245	0.086987
H56	H	0.309565	0.298082	0.087484
N57	N	0.567358	0.229448	0.091072
N58	N	0.513290	0.284859	0.091332
H59	H	0.530900	0.340869	0.095886
H60	H	1.095440	-0.391187	0.000044
H61	H	0.897983	-0.394821	0.000048
N62	N	0.849615	0.157902	0.582612
N63	N	0.837240	0.101234	0.632838
H64	H	0.778858	0.091976	0.654780
N65	N	1.109735	0.200323	0.581189
N66	N	1.067758	0.261170	0.559969
H67	H	1.085239	0.314177	0.581201
H68	H	0.417961	0.211153	-0.088100
N69	N	0.427872	-0.022747	0.076196
N70	N	0.454407	-0.092169	0.087771
H71	H	0.435822	-0.122459	0.141302
H72	H	0.425253	0.117636	-0.147261
H73	H	1.159850	-0.524651	0.000077
H74	H	0.561189	0.214228	-0.087345
N75	N	1.161385	-0.682990	0.000078
N76	N	1.154802	-0.755802	0.000077
H77	H	1.206689	-0.791951	0.000086
H78	H	0.568828	0.121246	-0.146918
H79	H	1.014806	-0.024351	0.422706
H80	H	0.567544	0.119364	0.146983
H81	H	1.121310	-0.147233	0.000090
H82	H	0.866755	0.160625	0.423511
N83	N	0.583660	-0.019905	0.075837
N84	N	0.534967	-0.050274	0.129342
H85	H	0.558043	-0.079650	0.182859
H86	H	0.947652	0.231532	0.577388
H87	H	0.909778	0.007836	0.577258
H88	H	1.134752	0.080487	0.575999
H89	H	0.576474	-0.011692	-0.060445
H90	H	0.872114	-0.638770	0.000053
N91	N	0.951920	0.247613	0.417851
N92	N	0.965428	0.300905	0.472269
H93	H	0.979165	0.354851	0.450465
H94	H	1.107945	-0.295174	0.000076
H95	H	0.885477	-0.490828	0.000035
N96	N	1.147241	0.067880	0.417572
N97	N	1.126676	0.013404	0.367750
H98	H	1.170395	-0.026812	0.346075
N99	N	0.817150	-0.267880	0.000031
N100	N	0.810582	-0.340693	0.000028
H101	H	0.753379	-0.363392	0.000016
H102	H	0.846938	-0.113400	0.000048
N103	N	0.426563	-0.022536	-0.074980
N104	N	0.376563	0.009739	-0.128947
H105	H	0.357056	-0.020397	-0.182187
H106	H	1.105400	0.183956	0.422489
H107	H	0.906125	0.011995	0.424032
N108	N	1.032205	-0.034785	0.581792
N109	N	1.091179	-0.017149	0.631237
H110	H	1.132769	-0.059346	0.652798
