data_functionalizedCrystal
_audit_creation_method	'MofGen! by Chris Wilmer'
_symmetry_space_group_name_H-M	'P1'
_symmetry_Int_Tables_number	1
_symmetry_cell_setting	triclinic
loop_
_symmetry_equiv_pos_as_xyz
  x,y,z
_cell_length_a	6.817900
_cell_length_b	15.301126
_cell_length_c	14.858572
_cell_angle_alpha	94.836512
_cell_angle_beta	104.524003
_cell_angle_gamma	104.177575
loop_
_atom_site_label
_atom_site_type_symbol
_atom_site_fract_x
_atom_site_fract_y
_atom_site_fract_z
V1	V	-4.041820	-0.125327	-0.290244
V2	V	-3.541820	0.374673	0.209756
O3	O	-4.025461	0.005439	-0.284428
O4	O	-3.525461	0.505439	0.215572
O5	O	-3.996683	-0.247940	-0.288539
O6	O	-3.496683	0.252060	0.211461
O7	O	-3.998413	-0.123655	-0.416702
O8	O	-3.498413	0.376345	0.083298
O9	O	-4.023718	-0.119707	-0.155378
O10	O	-3.523718	0.380293	0.344622
V11	V	-4.524378	-0.109655	-0.274079
V12	V	-4.024378	0.390345	0.225921
O13	O	-4.305195	-0.159703	-0.325704
O14	O	-3.805195	0.340297	0.174296
O15	O	-4.711200	-0.075279	-0.238620
O16	O	-4.211200	0.424721	0.261380
O17	O	-4.346309	0.012958	-0.275784
O18	O	-3.846309	0.512958	0.224216
O19	O	-4.658135	-0.240421	-0.279895
O20	O	-4.158135	0.259579	0.220105
O21	O	-4.659877	-0.115275	-0.408945
O22	O	-4.159877	0.384725	0.091055
O23	O	-4.344578	-0.111327	-0.147621
O24	O	-3.844578	0.388673	0.352379
C25	C	-3.842316	-0.277823	-0.284032
C26	C	-3.342316	0.222177	0.215968
C27	C	-3.886732	-0.378063	-0.283481
C28	C	-3.386732	0.121937	0.216519
C29	C	-3.844522	-0.119284	-0.447516
C30	C	-3.344522	0.380716	0.052484
C31	C	-3.890338	-0.118728	-0.550898
C32	C	-3.390338	0.381272	-0.050898
C33	C	-4.090019	-0.429757	-0.287871
C34	C	-3.590019	0.070243	0.212129
C35	C	-4.131743	-0.523944	-0.287358
C36	C	-3.631743	-0.023944	0.212642
C37	C	-3.970173	-0.566433	-0.282449
C38	C	-3.470173	-0.066433	0.217551
C39	C	-3.766870	-0.514732	-0.278061
C40	C	-3.266870	-0.014732	0.221939
C41	C	-3.725153	-0.420548	-0.278581
C42	C	-3.225153	0.079452	0.221419
C43	C	-3.853835	-0.711041	-0.276977
C44	C	-3.353835	-0.211041	0.223023
C45	C	-3.895553	-0.805231	-0.276456
C46	C	-3.395553	-0.305231	0.223544
C47	C	-4.260425	-0.814436	-0.285755
C48	C	-3.760425	-0.314436	0.214245
C49	C	-4.218707	-0.720253	-0.286274
C50	C	-3.718707	-0.220253	0.213726
C51	C	-4.015405	-0.668558	-0.281884
C52	C	-3.515405	-0.168558	0.218116
C53	C	-4.058023	-0.116699	-0.929461
C54	C	-3.558023	0.383301	-0.429461
C55	C	-4.011359	-0.117264	-0.824133
C56	C	-3.511359	0.382736	-0.324133
C57	C	-3.974182	-0.117714	-0.740183
C58	C	-3.474182	0.382286	-0.240183
C59	C	-3.927515	-0.118278	-0.634848
C60	C	-3.427515	0.381722	-0.134848
C61	C	-4.164018	0.042836	-0.280288
C62	C	-3.664018	0.542836	0.219712
C63	C	-4.098841	0.143075	-0.280846
C64	C	-3.598841	0.643075	0.219154
C65	C	-4.161811	-0.115701	-0.116802
C66	C	-3.661811	0.384299	0.383198
C67	C	-4.095234	-0.116252	-0.013420
C68	C	-3.595234	0.383748	0.486580
H69	H	-4.221589	-0.395169	-0.291860
H70	H	-3.721589	0.104831	0.208140
H71	H	-4.297276	-0.566030	-0.290935
H72	H	-3.797276	-0.066030	0.209065
H73	H	-3.764001	-0.839826	-0.272486
H74	H	-3.264001	-0.339826	0.227514
H75	H	-4.350272	-0.685660	-0.290266
H76	H	-3.850272	-0.185660	0.209734
H77	H	-4.425954	-0.856529	-0.289315
H78	H	-3.925954	-0.356529	0.210685
H79	H	-3.688292	-0.668954	-0.273410
H80	H	-3.188292	-0.168954	0.226590
H81	H	-3.635323	-0.549335	-0.274070
H82	H	-3.135323	-0.049335	0.225930
H83	H	-3.559620	-0.378460	-0.275009
H84	H	-3.059620	0.121540	0.224991
