data_functionalizedCrystal
_audit_creation_method	'MofGen! by Chris Wilmer'
_symmetry_space_group_name_H-M	'P1'
_symmetry_Int_Tables_number	1
_symmetry_cell_setting	triclinic
loop_
_symmetry_equiv_pos_as_xyz
  x,y,z
_cell_length_a	10.723024
_cell_length_b	10.540539
_cell_length_c	9.198806
_cell_angle_alpha	89.998955
_cell_angle_beta	89.996352
_cell_angle_gamma	84.496680
loop_
_atom_site_label
_atom_site_type_symbol
_atom_site_fract_x
_atom_site_fract_y
_atom_site_fract_z
O1	O	1.657276	0.178046	-0.120876
O2	O	1.294132	0.195088	-0.120880
O3	O	1.483989	0.001856	-0.120876
O4	O	1.467419	0.371278	-0.120880
O5	O	1.483974	0.001856	0.120909
O6	O	1.294117	0.195088	0.120905
O7	O	1.657261	0.178045	0.120909
Cu8	Cu	1.475688	0.186567	0.142984
Cu9	Cu	1.475706	0.186567	-0.142955
O10	O	1.467404	0.371277	0.120905
C11	C	1.247624	0.193848	0.000012
C12	C	1.109068	0.190137	0.000010
C13	C	1.034139	0.298260	0.000008
C14	C	0.890934	0.294427	0.000006
C15	C	1.482739	-0.045446	0.000014
C16	C	1.479021	-0.186392	0.000006
C17	C	1.336563	-0.369746	-0.000538
C18	C	1.340332	-0.223130	0.000006
C19	C	1.545756	-0.248085	0.138078
C20	C	1.541023	-0.394627	0.138194
C21	C	1.543861	-0.395146	-0.136760
C22	C	1.545138	-0.248164	-0.138586
C23	C	1.703769	0.179286	0.000014
C24	C	1.842325	0.182997	0.000007
C25	C	1.468654	0.418580	0.000012
C26	C	1.472372	0.559526	0.000011
N27	N	1.475684	0.186565	0.344098
N28	N	1.475719	0.186558	-0.344069
C29	C	1.555399	0.105075	0.416297
C30	C	1.555419	0.105071	0.583709
H31	H	0.826548	0.386988	-0.000001
O32	O	0.927595	0.060375	0.000024
H33	H	0.987584	0.056512	-0.098514
O34	O	1.645826	0.012658	0.665951
H35	H	1.743338	0.029445	0.636807
H36	H	1.067199	0.094732	-0.000026
O37	O	1.484348	-0.191634	0.274191
H38	H	1.406308	-0.119659	0.243850
O39	O	1.484458	-0.436901	-0.275413
H40	H	1.385525	-0.395096	-0.280325
H41	H	1.496309	-0.207281	-0.240728
O42	O	1.385315	0.279008	0.426369
H43	H	1.287787	0.262251	0.397276
H44	H	1.407472	0.256334	0.593853
O45	O	1.270753	-0.166641	-0.131075
H46	H	1.234100	-0.244039	-0.195425
H47	H	1.646253	-0.223995	-0.146922
H48	H	1.281784	-0.398318	-0.099552
O49	O	1.089580	0.424646	0.000008
H50	H	1.193359	0.407823	0.000001
H51	H	1.281995	-0.399926	0.097920
H52	H	1.287441	-0.181347	0.099145
O53	O	1.676551	-0.457773	-0.138013
H54	H	1.691571	-0.520884	-0.041753
H55	H	1.623629	0.035306	0.354172
O56	O	1.475666	-0.431948	0.274902
H57	H	1.540279	-0.498631	0.339334
O58	O	1.673134	-0.458250	0.146529
H59	H	1.740116	-0.384311	0.150470
H60	H	1.647605	-0.225783	0.143213
