data_functionalizedCrystal
_audit_creation_method	'MofGen! by Chris Wilmer'
_symmetry_space_group_name_H-M	'P1'
_symmetry_Int_Tables_number	1
_symmetry_cell_setting	triclinic
loop_
_symmetry_equiv_pos_as_xyz
  x,y,z
_cell_length_a	15.500227
_cell_length_b	15.944551
_cell_length_c	15.944499
_cell_angle_alpha	96.511826
_cell_angle_beta	87.169006
_cell_angle_gamma	87.159793
loop_
_atom_site_label
_atom_site_type_symbol
_atom_site_fract_x
_atom_site_fract_y
_atom_site_fract_z
O1	O	0.071847	-1.118407	0.104441
O2	O	0.071868	-0.873856	0.117796
O3	O	0.071859	-1.002832	-0.011160
O4	O	0.071857	-0.989430	0.233396
O5	O	-0.072029	-0.995005	-0.003365
O6	O	-0.072020	-0.866029	0.125591
O7	O	-0.072041	-1.110580	0.112235
Cu8	Cu	-0.085168	-0.987590	0.119625
Cu9	Cu	0.084996	-0.996846	0.110407
O10	O	-0.072031	-0.981604	0.241191
C11	C	-0.000073	-0.838649	0.121139
C12	C	-0.000065	-0.745403	0.119476
N13	N	-0.204853	-0.981086	0.126108
C14	C	-0.000083	-0.998370	-0.038557
C15	C	-0.000076	-0.996725	-0.131806
C16	C	-0.250134	-1.035757	0.071485
C17	C	-0.340706	-1.030845	0.076396
C18	C	-0.385996	-0.971267	0.135934
C19	C	-0.340709	-0.916591	0.190559
C20	C	-0.250138	-0.921498	0.185644
C21	C	-0.659462	-0.953587	0.153627
C22	C	-0.750039	-0.948686	0.158540
C23	C	-0.750030	-1.062940	0.044375
C24	C	-0.659457	-1.067846	0.039468
C25	C	-0.614178	-1.013166	0.094090
C26	C	-0.478576	-0.966247	0.140956
C27	C	-0.521600	-1.018183	0.089063
N28	N	0.204680	-1.003356	0.103917
C29	C	-0.000097	-1.145787	0.108892
C30	C	-0.000100	-1.239033	0.110555
C31	C	-0.000081	-0.530561	0.035570
C32	C	0.070863	-0.473393	0.070691
C33	C	-0.000075	-0.574677	0.116469
C34	C	-0.070999	-0.465699	0.078395
C35	C	-0.000089	-0.409764	0.113559
C36	C	0.070928	-0.518740	0.151608
C37	C	-0.070999	-0.511049	0.159305
C38	C	-0.000037	-0.453899	0.194483
C39	C	-0.000067	-0.669680	0.118143
C40	C	-0.000091	-0.314764	0.111891
C41	C	-0.000088	-1.071657	-0.423341
C42	C	-0.071032	-1.028846	-0.358473
C43	C	-0.000086	-0.990749	-0.467442
C44	C	0.070831	-1.036541	-0.366164
C45	C	-0.000080	-0.993690	-0.302533
C46	C	-0.071089	-0.947912	-0.403798
C47	C	0.070837	-0.955622	-0.411499
C48	C	-0.000124	-0.912752	-0.346647
C49	C	-0.000090	-0.989057	-0.562442
C50	C	-0.000082	-0.995375	-0.207534
C51	C	-0.000087	-0.986066	0.268588
C52	C	-0.000088	-0.987710	0.361837
H53	H	-0.213264	-1.084275	0.023006
H54	H	-0.622584	-1.116359	-0.009013
O55	O	-0.477665	-1.075970	0.031103
C56	C	-0.499844	-1.061135	-0.050848
H57	H	-0.524747	-0.992536	-0.049940
H58	H	-0.440296	-1.074033	-0.096245
H59	H	-0.552422	-1.104838	-0.072628
H60	H	-0.131014	-1.059806	-0.335133
O61	O	-0.615442	-0.900406	0.206576
C62	C	-0.563044	-0.851444	0.158724
H63	H	-0.590345	-0.848547	0.093960
H64	H	-0.562020	-0.784738	0.192907
H65	H	-0.494400	-0.881455	0.150610
H66	H	-0.000160	-0.845546	-0.313463
H67	H	-0.000161	-1.138799	-0.456667
O68	O	0.000113	-0.570430	-0.044504
C69	C	0.074275	-0.625884	-0.060670
H70	H	0.098647	-0.643406	0.001705
H71	H	0.057219	-0.685562	-0.101446
H72	H	0.126927	-0.593526	-0.095341
O73	O	0.142352	-0.453346	0.025866
C74	C	0.142114	-0.492769	-0.057867
H75	H	0.073076	-0.507268	-0.073621
H76	H	0.168911	-0.448783	-0.103143
H77	H	0.184162	-0.554131	-0.064546
H78	H	-0.131129	-0.910453	-0.420527
H79	H	0.130822	-0.924691	-0.434861
O80	O	0.142291	-1.081385	-0.346054
C81	C	0.116817	-1.150031	-0.303947
H82	H	0.048579	-1.166236	-0.321064
H83	H	0.163403	-1.207169	-0.324005
H84	H	0.117869	-1.132197	-0.232727
O85	O	-0.384557	-1.084051	0.023305
C86	C	-0.325162	-1.137682	-0.030304
H87	H	-0.260594	-1.142111	0.000632
H88	H	-0.351318	-1.203346	-0.041640
H89	H	-0.315544	-1.110958	-0.093253
O90	O	0.142501	-0.546405	0.188652
C91	C	0.142675	-0.506338	0.272143
H92	H	0.073758	-0.484004	0.295501
H93	H	0.169515	-0.552917	0.314819
H94	H	0.184894	-0.449696	0.273624
H95	H	-0.786904	-1.107457	-0.000097
H96	H	-0.786910	-0.900167	0.207026
O97	O	-0.142643	-0.437873	0.041565
C98	C	-0.217327	-0.458078	0.087541
H99	H	-0.200673	-0.466599	0.155013
H100	H	-0.269289	-0.404730	0.088710
H101	H	-0.242409	-0.519239	0.056077
O102	O	-0.384799	-0.858676	0.248283
C103	C	-0.437188	-0.804017	0.206106
H104	H	-0.450757	-0.836748	0.141133
H105	H	-0.500876	-0.787275	0.244614
H106	H	-0.402295	-0.743832	0.198465
O107	O	-0.206188	-0.868474	0.238824
C108	C	-0.228322	-0.880898	0.323188
H109	H	-0.253210	-0.946795	0.324995
H110	H	-0.168755	-0.874455	0.362105
H111	H	-0.280899	-0.831489	0.350684
O112	O	-0.522474	-0.908414	0.198903
C113	C	-0.500355	-0.923264	0.280867
H114	H	-0.434590	-0.959203	0.277222
H115	H	-0.497263	-0.860288	0.322026
H116	H	-0.551323	-0.962305	0.309633
H117	H	0.000002	-0.420730	0.261689
H118	H	-0.130980	-0.527911	0.196743
