data_functionalizedCrystal
_audit_creation_method	'MofGen! by Chris Wilmer'
_symmetry_space_group_name_H-M	'P1'
_symmetry_Int_Tables_number	1
_symmetry_cell_setting	triclinic
loop_
_symmetry_equiv_pos_as_xyz
  x,y,z
_cell_length_a	29.839135
_cell_length_b	29.839131
_cell_length_c	19.120904
_cell_angle_alpha	87.590850
_cell_angle_beta	87.580563
_cell_angle_gamma	90.043950
loop_
_atom_site_label
_atom_site_type_symbol
_atom_site_fract_x
_atom_site_fract_y
_atom_site_fract_z
Zn1	Zn	0.675899	-0.189671	0.397159
Zn2	Zn	0.679031	-0.261593	0.279706
Zn3	Zn	0.603982	-0.186482	0.279719
Zn4	Zn	0.600731	-0.264776	0.397107
O5	O	0.639911	-0.225631	0.338423
O6	O	0.739181	-0.199214	0.381595
O7	O	0.671747	-0.248963	0.181426
O8	O	0.613571	-0.124038	0.295325
O9	O	0.741482	-0.252055	0.295303
O10	O	0.666409	-0.126381	0.381608
O11	O	0.616608	-0.193779	0.181435
O12	O	0.540684	-0.196865	0.295274
O13	O	0.608031	-0.257480	0.495396
O14	O	0.538296	-0.254388	0.381519
O15	O	0.663257	-0.202300	0.495434
O16	O	0.668595	-0.324882	0.295253
O17	O	0.611068	-0.327221	0.381507
C18	C	0.523189	-0.225626	0.338393
C19	C	0.473254	-0.225636	0.338397
C20	C	0.162407	-0.198162	0.383422
C21	C	-0.025266	-0.198165	0.383442
O22	O	-0.050554	-0.174794	0.421690
N23	N	-0.047532	-0.225632	0.338449
C24	C	-0.022876	-0.253097	0.293445
O25	O	-0.046121	-0.276456	0.255171
C26	C	0.164796	-0.253091	0.293422
C27	C	0.187060	-0.225626	0.338422
C28	C	0.184671	-0.170698	0.428418
C29	C	0.231586	-0.170699	0.428415
C30	C	0.256238	-0.198164	0.383416
C31	C	0.233975	-0.225627	0.338420
C32	C	0.189451	-0.280554	0.248414
C33	C	0.236372	-0.280549	0.248411
C34	C	0.258636	-0.253084	0.293412
C35	C	0.305543	-0.253093	0.293418
N36	N	0.327809	-0.225626	0.338410
C37	C	0.303156	-0.198162	0.383410
C38	C	-0.121407	-0.253099	0.293461
C39	C	-0.168325	-0.253102	0.293467
C40	C	-0.170712	-0.198169	0.383464
C41	C	-0.123793	-0.198169	0.383460
C42	C	-0.099142	-0.225633	0.338454
C43	C	0.401682	-0.198166	0.383401
C44	C	0.448602	-0.198171	0.383396
C45	C	0.450985	-0.253102	0.293398
C46	C	0.404069	-0.253099	0.293405
C47	C	0.379419	-0.225628	0.338409
O48	O	0.330859	-0.276447	0.255184
O49	O	0.326410	-0.174799	0.421667
C50	C	0.115492	-0.198160	0.383424
C51	C	0.093228	-0.225624	0.338428
C52	C	0.117881	-0.253088	0.293429
C53	C	0.046310	-0.225626	0.338434
C54	C	0.021658	-0.198161	0.383434
C55	C	0.043924	-0.170695	0.428426
C56	C	0.090840	-0.170696	0.428424
C57	C	0.095615	-0.280555	0.248436
C58	C	0.048699	-0.280552	0.248443
C59	C	0.024047	-0.253087	0.293442
C60	C	0.639831	-0.342352	0.338388
C61	C	0.639837	-0.392287	0.338397
C62	C	0.669915	-0.700702	0.293576
C63	C	0.669970	-0.888376	0.293603
O64	O	0.695480	-0.911596	0.255468
N65	N	0.640002	-0.913074	0.338476
C66	C	0.610021	-0.890851	0.383348
O67	O	0.584536	-0.916164	0.421521
C68	C	0.609969	-0.703178	0.383324
C69	C	0.639935	-0.678482	0.338443
C70	C	0.699880	-0.676007	0.248700
C71	C	0.699864	-0.629091	0.248691
C72	C	0.669884	-0.606871	0.293558
C73	C	0.639920	-0.631567	0.338434
C74	C	0.579990	-0.680956	0.428199
C75	C	0.579980	-0.634034	0.428190
C76	C	0.609947	-0.609339	0.383310
C77	C	0.609924	-0.562431	0.383293
N78	N	0.639892	-0.537733	0.338420
C79	C	0.669872	-0.559953	0.293553
C80	C	0.610050	-0.989382	0.383357
C81	C	0.610062	-1.036300	0.383362
C82	C	0.670012	-1.033822	0.293618
C83	C	0.669997	-0.986903	0.293610
C84	C	0.640018	-0.964684	0.338484
C85	C	0.669836	-0.461427	0.293537
C86	C	0.669817	-0.414507	0.293530
C87	C	0.609869	-0.416989	0.383276
C88	C	0.609886	-0.463905	0.383281
C89	C	0.639874	-0.486122	0.338409
O90	O	0.584430	-0.539181	0.421413
O91	O	0.695360	-0.534632	0.255397
C92	C	0.669931	-0.747618	0.293585
C93	C	0.639967	-0.772314	0.338462
C94	C	0.609986	-0.750094	0.383329
C95	C	0.639979	-0.819232	0.338467
C96	C	0.669959	-0.841452	0.293600
C97	C	0.699927	-0.816754	0.248727
C98	C	0.699911	-0.769838	0.248718
C99	C	0.580019	-0.774791	0.428201
C100	C	0.580037	-0.821707	0.428206
C101	C	0.610017	-0.843927	0.383339
C102	C	0.757088	-0.225635	0.338454
C103	C	0.807022	-0.225637	0.338467
C104	C	0.634932	-0.230601	0.521611
C105	C	0.632810	-0.232719	0.599675
C106	C	0.640003	-0.108454	0.338473
C107	C	0.640042	-0.058520	0.338495
C108	C	0.644896	-0.220647	0.155947
C109	C	0.647105	-0.218402	0.077884
C110	C	0.660565	-0.204986	0.636371
C111	C	0.658566	-0.206975	0.709720
C112	C	0.628814	-0.236699	0.746373
C113	C	0.601056	-0.264432	0.709672
C114	C	0.603053	-0.262441	0.636324
C115	C	0.621344	-0.244145	0.967835
C116	C	0.619350	-0.246135	1.041188
C117	C	0.676859	-0.188677	1.041232
C118	C	0.678856	-0.186690	0.967882
C119	C	0.651096	-0.214422	0.931188
C120	C	0.626771	-0.238733	0.821347
C121	C	0.653137	-0.212386	0.856214
H122	H	0.256442	-0.302913	0.211760
Br123	Br	0.478814	-0.160897	0.444476
Br124	Br	0.539328	-0.744643	0.489101
H125	H	0.602549	-0.262936	0.851198
Br126	Br	0.696256	-0.169357	0.759519
H127	H	0.381618	-0.175795	0.420045
Br128	Br	0.560676	-0.304770	0.759414
Br129	Br	0.710488	-0.380994	0.232615
H130	H	0.699459	-0.166098	1.071116
Br131	Br	0.539293	-0.603883	0.489098
Br132	Br	0.700948	-0.164648	0.586635
H133	H	0.598747	-0.266733	0.937968
Br134	Br	0.710698	-1.063986	0.232724
Br135	Br	0.373853	-0.290389	0.232356
H136	H	0.595121	-0.270341	1.071029
Br137	Br	0.569385	-1.069809	0.444263
Br138	Br	-0.198534	-0.290383	0.232401
Br139	Br	0.710667	-0.953392	0.232698
Br140	Br	-0.087958	-0.290370	0.232366
Br141	Br	0.719236	-0.146351	0.918144
Br142	Br	0.261793	-0.133422	0.489490
H143	H	0.030577	-0.302921	0.211799
H144	H	0.585487	-0.484013	0.419828
H145	H	0.164604	-0.148331	0.465062
Br146	Br	0.159249	-0.317821	0.187324
Br147	Br	-0.093584	-0.160894	0.444534
H148	H	0.585458	-0.398890	0.419804
Br149	Br	0.010458	-0.133425	0.489500
H150	H	0.580448	-0.285020	0.606447
H151	H	0.471065	-0.275464	0.256762
H152	H	-0.190792	-0.175806	0.420104
H153	H	0.108962	-0.148331	0.465067
H154	H	0.677359	-0.188183	0.826369
H155	H	0.115682	-0.302919	0.211790
H156	H	0.724313	-0.749734	0.212172
Br157	Br	0.710534	-0.491572	0.232639
H158	H	0.724267	-0.608987	0.212147
Br159	Br	0.740574	-0.706154	0.187802
H160	H	0.724336	-0.834854	0.212192
H161	H	0.585636	-0.971294	0.419900
H162	H	0.555586	-0.701055	0.464743
H163	H	0.555630	-0.841810	0.464753
