data_functionalizedCrystal
_audit_creation_method	'MofGen! by Chris Wilmer'
_symmetry_space_group_name_H-M	'P1'
_symmetry_Int_Tables_number	1
_symmetry_cell_setting	triclinic
loop_
_symmetry_equiv_pos_as_xyz
  x,y,z
_cell_length_a	14.519709
_cell_length_b	15.538191
_cell_length_c	14.184742
_cell_angle_alpha	108.258488
_cell_angle_beta	75.247073
_cell_angle_gamma	114.523881
loop_
_atom_site_label
_atom_site_type_symbol
_atom_site_fract_x
_atom_site_fract_y
_atom_site_fract_z
O1	O	1.194609	-0.142482	-0.083291
O2	O	0.921248	-0.157022	-0.083321
O3	O	1.111141	-0.012712	-0.083305
O4	O	1.004716	-0.286792	-0.083307
O5	O	1.086585	0.025491	0.083550
O6	O	0.896692	-0.118820	0.083534
O7	O	1.170053	-0.104279	0.083564
Cu8	Cu	1.031130	-0.108061	0.098784
Cu9	Cu	1.060170	-0.153240	-0.098541
O10	O	0.980159	-0.248589	0.083548
C11	C	0.874838	-0.137245	0.000102
C12	C	0.773141	-0.135218	0.000091
C13	C	1.109998	0.041466	0.000120
C14	C	1.143166	0.145982	0.000114
N15	N	1.010711	-0.076284	0.237572
C16	C	0.400752	-0.127735	0.000137
C17	C	0.504364	-0.129813	0.000123
C18	C	0.586944	-0.131476	0.000113
C19	C	0.690562	-0.133554	0.000102
C20	C	1.216462	-0.124058	0.000138
C21	C	1.318160	-0.126086	0.000143
C22	C	0.981303	-0.302768	0.000120
C23	C	0.948135	-0.407286	0.000120
C24	C	0.813660	0.434324	0.000099
C25	C	0.844848	0.532539	0.000105
C26	C	1.020276	0.554690	0.000124
C27	C	0.989103	0.456475	0.000113
C28	C	0.885794	0.396299	0.000102
C29	C	1.061237	0.418450	0.000116
C30	C	1.030066	0.320244	0.000111
C31	C	0.926761	0.260063	0.000103
C32	C	0.854623	0.298093	0.000097
C33	C	1.164545	0.478628	0.000134
C34	C	1.236679	0.440603	0.000137
C35	C	1.205509	0.342394	0.000125
C36	C	1.102204	0.282213	0.000117
C37	C	1.277647	0.304364	0.000130
C38	C	1.246476	0.206158	0.000125
C39	C	1.071032	0.184007	0.000111
N40	N	1.080599	-0.185010	-0.237329
C41	C	0.950785	0.017015	0.395129
C42	C	0.966229	-0.007041	0.290094
C43	C	1.039763	-0.121502	0.290072
C44	C	1.024322	-0.097458	0.395109
C45	C	0.979833	-0.028198	0.447629
C46	C	1.053370	-0.142672	0.447609
C47	C	1.037934	-0.118627	0.552636
C48	C	0.993450	-0.049368	0.605163
C49	C	0.964398	-0.004153	0.552656
C50	C	1.097864	-0.211927	0.395087
C51	C	1.126913	-0.257141	0.447587
C52	C	1.111470	-0.233101	0.552616
C53	C	1.066986	-0.163842	0.605143
C54	C	1.140523	-0.278316	0.605123
C55	C	1.125087	-0.254270	0.710151
C56	C	1.051551	-0.139796	0.710171
H57	H	0.986909	0.135006	0.000095
Cl58	Cl	0.887569	0.136604	0.000105
Cl59	Cl	0.754152	0.580339	0.000108
H60	H	1.189923	0.558591	0.000130
H61	H	0.980889	-0.029786	0.690683
H62	H	0.770499	0.249092	0.000080
H63	H	0.914547	0.073405	0.437893
H64	H	1.320793	0.489612	0.000150
H65	H	0.729536	0.385323	0.000083
Cl66	Cl	1.407513	0.380028	0.000164
Cl67	Cl	1.150145	0.630349	0.000146
Cl68	Cl	1.337156	0.158354	0.000147
H69	H	0.928159	0.052236	0.595421
H70	H	1.075990	-0.177891	0.247296
H71	H	0.942568	0.029781	0.247353
H72	H	1.015312	-0.083407	0.752936
H73	H	1.110432	-0.231502	0.309567
Cl74	Cl	1.182841	-0.344206	0.381552
H75	H	1.176755	-0.334701	0.562346
H76	H	1.148741	-0.291089	0.752897
