data_functionalizedCrystal
_audit_creation_method	'MofGen! by Chris Wilmer'
_symmetry_space_group_name_H-M	'P1'
_symmetry_Int_Tables_number	1
_symmetry_cell_setting	triclinic
loop_
_symmetry_equiv_pos_as_xyz
  x,y,z
_cell_length_a	23.532407
_cell_length_b	23.532407
_cell_length_c	22.610064
_cell_angle_alpha	89.997161
_cell_angle_beta	89.988412
_cell_angle_gamma	97.151323
loop_
_atom_site_label
_atom_site_type_symbol
_atom_site_fract_x
_atom_site_fract_y
_atom_site_fract_z
O1	O	-0.069127	0.755263	-0.049101
O2	O	-0.079130	0.589400	-0.049117
O3	O	0.008803	0.677333	-0.049116
O4	O	-0.157060	0.667330	-0.049102
O5	O	0.008790	0.677318	0.049253
O6	O	-0.079143	0.589385	0.049252
O7	O	-0.069140	0.755248	0.049268
Zn8	Zn	-0.074144	0.672314	0.064878
Zn9	Zn	-0.074127	0.672334	-0.064728
O10	O	-0.157073	0.667315	0.049267
C11	C	-0.078882	0.568176	0.000065
C12	C	-0.078116	0.504959	0.000058
C13	C	-0.125350	0.105856	0.000089
C14	C	-0.124638	0.046456	0.000093
O15	O	-0.168424	0.009711	0.000118
N16	N	-0.072362	0.023830	0.000087
C17	C	-0.020794	0.060607	0.000084
O18	O	0.023737	0.035908	0.000081
C19	C	-0.021506	0.120006	0.000085
C20	C	-0.073785	0.142629	0.000084
C21	C	-0.177625	0.128479	0.000089
C22	C	-0.178336	0.187876	0.000084
C23	C	-0.126772	0.224649	0.000080
C24	C	-0.074497	0.202025	0.000080
C25	C	0.030062	0.156783	0.000086
C26	C	0.029345	0.216185	0.000087
C27	C	-0.022934	0.238808	0.000087
C28	C	-0.023643	0.298194	0.000070
N29	N	-0.075920	0.320820	0.000076
C30	C	-0.127484	0.284048	0.000080
C31	C	-0.019302	-0.064135	0.000084
C32	C	-0.018589	-0.123533	0.000079
C33	C	-0.122434	-0.137680	0.000088
C34	C	-0.123146	-0.078281	0.000089
C35	C	-0.071578	-0.041509	0.000089
C36	C	-0.128974	0.408784	0.000070
C37	C	-0.129680	0.468186	0.000063
C38	C	-0.025836	0.482329	0.000057
C39	C	-0.025129	0.422932	0.000061
C40	C	-0.076702	0.386160	0.000069
O41	O	0.020119	0.334974	0.000048
O42	O	-0.172007	0.308755	0.000092
C43	C	-0.178283	0.667577	0.000084
C44	C	-0.241500	0.668343	0.000090
C45	C	-0.640603	0.621110	0.000055
C46	C	-0.700003	0.621821	0.000051
O47	O	-0.736748	0.578035	0.000025
N48	N	-0.722629	0.674097	0.000057
C49	C	-0.685852	0.725666	0.000061
O50	O	-0.710551	0.770196	0.000065
C51	C	-0.626453	0.724954	0.000060
C52	C	-0.603830	0.672674	0.000061
C53	C	-0.617980	0.568834	0.000054
C54	C	-0.558584	0.568123	0.000060
C55	C	-0.521811	0.619687	0.000065
C56	C	-0.544434	0.671963	0.000066
C57	C	-0.589676	0.776521	0.000060
C58	C	-0.530274	0.775805	0.000059
C59	C	-0.507651	0.723525	0.000060
C60	C	-0.448265	0.722816	0.000077
N61	N	-0.425639	0.670539	0.000071
C62	C	-0.462412	0.618975	0.000065
C63	C	-0.810594	0.727157	0.000060
C64	C	-0.869992	0.727870	0.000064
C65	C	-0.884140	0.624025	0.000053
C66	C	-0.824740	0.623313	0.000053
C67	C	-0.787968	0.674881	0.000054
C68	C	-0.337675	0.617485	0.000076
C69	C	-0.278273	0.616779	0.000084
C70	C	-0.264131	0.720623	0.000092
C71	C	-0.323527	0.721330	0.000087
C72	C	-0.360299	0.669757	0.000078
O73	O	-0.411486	0.766579	0.000100
O74	O	-0.437704	0.574452	0.000053
C75	C	0.030013	0.677071	0.000065
C76	C	0.093230	0.676305	0.000055
C77	C	-0.069388	0.776472	0.000084
C78	C	-0.070154	0.839689	0.000087
N79	N	-0.074155	0.672304	0.153330
N80	N	-0.074111	0.672349	-0.153180
C81	C	-0.035196	0.711273	0.561972
C82	C	-0.035192	0.711276	0.623892
O83	O	-0.002076	0.744384	0.655911
N84	N	-0.074115	0.672334	0.654868
C85	C	-0.113041	0.633383	0.623920
O86	O	-0.146147	0.600259	0.655953
C87	C	-0.113042	0.633377	0.562001
C88	C	-0.074120	0.672326	0.531029
C89	C	0.003724	0.750218	0.531000
C90	C	0.003719	0.750215	0.469084
C91	C	-0.035206	0.711268	0.438141
C92	C	-0.074125	0.672323	0.469113
C93	C	-0.151965	0.594424	0.531055
C94	C	-0.151962	0.594422	0.469132
C95	C	-0.113040	0.633370	0.438159
C96	C	-0.113054	0.633374	0.376254
N97	N	-0.074131	0.672316	0.345279
C98	C	-0.035207	0.711263	0.376222
C99	C	-0.113035	0.633396	0.753954
C100	C	-0.113037	0.633403	0.815871
C101	C	-0.035187	0.711296	0.815839
C102	C	-0.035188	0.711291	0.753920
C103	C	-0.074112	0.672338	0.722978
C104	C	-0.035220	0.711255	0.246195
C105	C	-0.035230	0.711251	0.184274
C106	C	-0.113078	0.633357	0.184311
C107	C	-0.113071	0.633363	0.246227
C108	C	-0.074137	0.672314	0.277167
O109	O	-0.146152	0.600281	0.344196
O110	O	-0.002101	0.744376	0.344182
H111	H	0.072634	0.138375	0.000087
H112	H	-0.220908	0.206289	0.000084
H113	H	-0.608085	0.819093	0.000059
O114	O	0.079493	0.251824	0.000058
C115	C	0.125783	0.219114	0.000073
H116	H	0.111068	0.174698	-0.018545
H117	H	0.161896	0.241221	-0.028490
H118	H	0.141816	0.214972	0.047266
H119	H	-0.183658	0.562700	0.443941
O120	O	0.025704	0.401047	0.000080
C121	C	0.071063	0.446245	0.000054
H122	H	0.055331	0.486513	0.018673
H123	H	0.107580	0.434034	0.028611
H124	H	0.086956	0.454735	-0.047142
H125	H	-0.165717	-0.059867	0.000092
O126	O	-0.179034	0.373013	-0.000004
C127	C	-0.181731	0.338243	-0.050957
H128	H	-0.136542	0.335480	-0.067941
H129	H	-0.203215	0.293481	-0.039498
H130	H	-0.207615	0.357650	-0.086633
H131	H	0.016146	0.512280	0.000051
O132	O	-0.494635	0.825952	0.000087
C133	C	-0.527345	0.872242	0.000070
H134	H	-0.571765	0.857523	0.018691
H135	H	-0.505245	0.908349	0.028631
H136	H	-0.531476	0.888286	-0.047122
O137	O	-0.256393	0.565942	0.000056
C138	C	-0.301592	0.520584	0.000062
H139	H	-0.341853	0.536319	-0.018563
H140	H	-0.289372	0.484069	-0.028500
H141	H	-0.310099	0.504687	0.047253
O142	O	-0.373446	0.567425	0.000149
C143	C	-0.408232	0.564711	0.051101
H144	H	-0.411000	0.609895	0.068086
H145	H	-0.452990	0.543230	0.039640
H146	H	-0.388835	0.538816	0.086776
O147	O	-0.150900	0.595474	0.276225
C148	C	-0.185266	0.561109	0.235633
H149	H	-0.161926	0.560606	0.191486
H150	H	-0.194176	0.515577	0.253523
H151	H	-0.227485	0.579353	0.229065
H152	H	-0.780657	0.769152	0.000065
O153	O	-0.227771	0.092844	0.000065
C154	C	-0.274056	0.125562	0.000081
H155	H	-0.259328	0.169978	-0.018539
H156	H	-0.310161	0.103463	-0.028480
H157	H	-0.290106	0.129701	0.047274
O158	O	-0.172473	-0.173489	0.000122
C159	C	-0.160628	-0.230765	0.000108
H160	H	-0.115910	-0.232791	0.018727
H161	H	-0.193518	-0.257863	0.028671
H162	H	-0.162880	-0.247955	-0.047084
H163	H	-0.341947	0.763901	0.000096
H164	H	-0.540170	0.525551	0.000055
H165	H	-0.144772	0.601648	0.159107
O166	O	-0.150879	0.595639	0.723834
C167	C	-0.185873	0.625934	0.688036
H168	H	-0.162961	0.670623	0.678741
H169	H	-0.195014	0.602106	0.644503
H170	H	-0.227941	0.629571	0.711914
O171	O	-0.180417	0.490256	0.000032
C172	C	-0.169994	0.550569	0.000038
H173	H	-0.125465	0.564764	-0.018584
H174	H	-0.203418	0.568621	-0.028526
H175	H	-0.172670	0.567092	0.047228
O176	O	0.032245	-0.145410	0.000099
C177	C	0.077600	-0.100209	0.000077
H178	H	0.061864	-0.059944	0.018699
H179	H	0.114118	-0.112418	0.028634
H180	H	0.093494	-0.091715	-0.047117
H181	H	-0.234180	0.762605	0.000099
O182	O	0.002637	0.749108	0.154280
C183	C	0.036983	0.783491	0.194874
H184	H	0.037509	0.760145	0.239013
H185	H	0.082510	0.792438	0.176973
H186	H	0.018706	0.825690	0.201462
H187	H	-0.183658	0.562709	0.556263
O188	O	-0.653615	0.518688	0.000077
C189	C	-0.620897	0.472403	0.000061
H190	H	-0.576486	0.487126	0.018682
H191	H	-0.643005	0.436290	0.028622
H192	H	-0.616745	0.456367	-0.047132
H193	H	-0.144737	0.601694	0.841084
O194	O	0.030758	-0.028359	-0.000005
C195	C	0.033467	0.006415	-0.050960
H196	H	-0.011717	0.009178	-0.067938
H197	H	0.054948	0.051176	-0.039507
H198	H	0.059363	-0.012989	-0.086638
O199	O	-0.802862	0.572479	0.000022
C200	C	-0.848063	0.527124	0.000034
H201	H	-0.888325	0.542861	-0.018585
H202	H	-0.835849	0.490608	-0.028530
H203	H	-0.856565	0.511227	0.047225
H204	H	0.035423	0.781933	0.556189
O205	O	-0.919948	0.573986	0.000015
C206	C	-0.977224	0.585831	0.000027
H207	H	-0.979244	0.630556	-0.018588
H208	H	-1.004313	0.552952	-0.028541
H209	H	-0.994430	0.583562	0.047218
O210	O	0.002520	0.749117	0.276308
C211	C	-0.027797	0.784092	0.312117
H212	H	-0.072475	0.761155	0.321418
H213	H	-0.003970	0.793247	0.355646
H214	H	-0.031460	0.826153	0.288245
O215	O	-0.891869	0.778704	0.000044
C216	C	-0.846668	0.824059	0.000066
H217	H	-0.806398	0.808328	-0.018555
H218	H	-0.858869	0.860585	-0.028491
H219	H	-0.838188	0.839940	0.047261
H220	H	0.035414	0.781929	0.443870
H221	H	-0.003494	0.743005	0.728706
H222	H	-0.003492	0.743008	0.841045
