data_functionalizedCrystal
_audit_creation_method	'MofGen! by Chris Wilmer'
_symmetry_space_group_name_H-M	'P1'
_symmetry_Int_Tables_number	1
_symmetry_cell_setting	triclinic
loop_
_symmetry_equiv_pos_as_xyz
  x,y,z
_cell_length_a	14.908783
_cell_length_b	12.759400
_cell_length_c	14.908694
_cell_angle_alpha	93.270413
_cell_angle_beta	83.203601
_cell_angle_gamma	93.305724
loop_
_atom_site_label
_atom_site_type_symbol
_atom_site_fract_x
_atom_site_fract_y
_atom_site_fract_z
Zn1	Zn	1.413423	-0.363158	-0.591786
Zn2	Zn	1.404605	-0.529284	-0.440425
Zn3	Zn	1.253319	-0.363186	-0.431691
Zn4	Zn	1.262033	-0.548365	-0.582997
O5	O	1.333345	-0.450998	-0.511725
O6	O	1.538924	-0.377198	-0.579041
O7	O	1.377199	-0.499278	-0.312599
O8	O	1.274601	-0.216160	-0.452951
O9	O	1.532445	-0.499250	-0.467837
O10	O	1.392228	-0.216139	-0.570572
O11	O	1.266050	-0.377246	-0.306182
O12	O	1.127804	-0.395747	-0.444429
O13	O	1.289453	-0.531770	-0.710830
O14	O	1.134207	-0.531797	-0.555592
O15	O	1.400678	-0.395699	-0.717287
O16	O	1.385649	-0.678838	-0.459314
O17	O	1.280902	-0.692856	-0.564061
C18	C	1.098161	-0.465847	-0.498110
C19	C	0.997550	-0.472226	-0.492306
C20	C	0.815245	-0.357314	-0.597376
C21	C	0.720711	-0.363304	-0.591926
C22	C	0.713948	-0.490189	-0.475954
C23	C	0.808481	-0.484199	-0.481403
C24	C	0.859126	-0.417761	-0.542117
C25	C	0.953662	-0.411777	-0.547571
C26	C	0.946897	-0.538656	-0.431594
C27	C	0.852363	-0.544646	-0.426145
C28	C	1.333290	-0.723968	-0.511703
C29	C	1.333351	-0.840742	-0.511728
C30	C	1.387961	-0.888270	-0.457254
C31	C	1.388018	-0.997992	-0.457285
C32	C	1.278849	-1.012650	-0.566267
C33	C	1.278797	-0.902929	-0.566240
C34	C	1.442515	-0.826083	-0.402743
C35	C	1.497129	-0.873610	-0.348263
C36	C	1.497186	-0.983332	-0.348295
C37	C	1.442630	-1.045527	-0.402805
C38	C	1.569447	-0.436093	-0.525393
C39	C	1.670060	-0.429741	-0.531218
C40	C	1.347021	-0.465859	-0.747820
C41	C	1.352849	-0.472192	-0.848430
C42	C	1.333426	-0.176962	-0.511768
C43	C	1.333460	-0.060185	-0.511786
C44	C	1.248039	-0.357025	-1.030806
C45	C	1.253512	-0.362972	-1.125337
C46	C	1.369262	-0.490039	-1.132027
C47	C	1.363789	-0.484092	-1.037495
C48	C	1.303177	-0.417581	-0.986888
C49	C	1.297709	-0.411629	-0.892354
C50	C	1.413454	-0.538701	-0.899046
C51	C	1.418926	-0.544648	-0.993577
C52	C	1.319774	-0.436116	-0.276550
C53	C	1.314122	-0.429476	-0.175951
H54	H	0.856481	-0.303222	-0.646816
O55	O	0.664842	-0.554861	-0.417030
C56	C	0.689041	-0.659389	-0.438005
H57	H	0.759704	-0.659480	-0.476752
H58	H	0.638534	-0.701143	-0.481428
C59	C	0.601459	-0.716930	-0.302331
C60	C	0.688252	-0.717042	-0.349914
H61	H	0.600968	-0.752495	-0.247993
H62	H	0.585153	-0.646509	-0.288201
H63	H	0.559380	-0.751723	-0.338527
H64	H	0.730327	-0.682237	-0.313723
H65	H	0.704565	-0.787459	-0.364036
O66	O	0.678036	-0.304473	-0.645476
C67	C	0.620352	-0.236772	-0.590889
H68	H	0.644692	-0.223865	-0.521248
H69	H	0.548519	-0.273592	-0.583595
C70	C	0.591600	-0.146367	-0.720721
C71	C	0.621500	-0.130508	-0.635189
H72	H	0.592304	-0.080820	-0.748048
H73	H	0.630460	-0.191981	-0.757499
H74	H	0.531741	-0.177054	-0.714632
H75	H	0.681361	-0.099834	-0.641281
H76	H	0.582650	-0.084886	-0.598413
H77	H	1.442688	-1.134870	-0.402833
O78	O	1.549988	-0.813154	-0.295213
C79	C	1.495077	-0.749323	-0.233726
H80	H	1.423479	-0.786613	-0.223961
H81	H	1.493515	-0.668116	-0.261505
C82	C	1.621863	-0.693123	-0.154219
C83	C	1.533926	-0.738927	-0.142220
H84	H	1.645828	-0.686705	-0.097775
H85	H	1.658859	-0.736123	-0.195646
H86	H	1.620549	-0.625455	-0.177371
H87	H	1.535243	-0.806598	-0.119080
H88	H	1.496932	-0.695938	-0.100787
O89	O	0.803265	-0.609326	-0.367224
C90	C	0.827476	-0.713847	-0.388209
H91	H	0.898137	-0.713924	-0.426959
H92	H	0.776971	-0.755606	-0.431632
C93	C	0.739908	-0.771415	-0.252537
C94	C	0.826699	-0.771509	-0.300124
H95	H	0.739426	-0.806987	-0.198202
H96	H	0.723593	-0.700999	-0.238399
H97	H	0.697830	-0.806212	-0.288732
H98	H	0.868773	-0.736702	-0.263933
H99	H	0.843021	-0.841922	-0.314253
H100	H	1.208613	-0.313661	-1.161091
H101	H	1.541661	-1.022026	-0.303942
H102	H	0.994896	-0.357680	-0.597008
O103	O	0.989665	-0.597275	-0.377951
C104	C	1.083965	-0.577770	-0.395798
H105	H	1.098621	-0.497794	-0.426299
H106	H	1.113576	-0.641498	-0.445464
C107	C	1.109174	-0.676641	-0.269536
C108	C	1.127174	-0.578408	-0.306992
H109	H	1.135829	-0.677039	-0.214758
H110	H	1.045643	-0.689786	-0.257514
H111	H	1.133850	-0.729737	-0.310934
H112	H	1.102488	-0.525316	-0.265599
H113	H	1.190703	-0.565255	-0.319005
O114	O	1.238958	-0.346905	-0.843160
C115	C	1.287336	-0.272360	-0.791455
H116	H	1.360280	-0.263151	-0.824071
H117	H	1.286298	-0.300138	-0.719987
C118	C	1.153456	-0.177160	-0.747399
C119	C	1.243046	-0.165842	-0.787463
H120	H	1.126134	-0.111455	-0.744932
H121	H	1.120861	-0.227384	-0.782230
H122	H	1.152603	-0.200311	-0.687846
H123	H	1.243897	-0.142704	-0.847018
H124	H	1.275640	-0.115612	-0.752641
H125	H	1.442472	-0.736741	-0.402709
O126	O	1.225672	-0.856923	-0.619184
C127	C	1.177547	-0.935336	-0.667318
H128	H	1.172317	-1.011431	-0.630078
H129	H	1.214640	-0.949184	-0.738004
C130	C	1.088359	-0.806031	-0.720458
C131	C	1.081929	-0.899490	-0.674714
H132	H	1.029379	-0.783919	-0.725024
H133	H	1.120784	-0.753202	-0.688032
H134	H	1.119274	-0.817584	-0.779358
H135	H	1.051025	-0.887934	-0.615812
H136	H	1.049496	-0.952317	-0.707130
H137	H	1.458354	-0.588007	-0.863278
H138	H	1.198695	-0.302860	-0.989601
H139	H	1.234431	-1.063297	-0.610646
H140	H	1.418597	-0.544203	-1.173247
H141	H	1.468272	-0.598802	-1.034794
