data_functionalizedCrystal
_audit_creation_method	'MofGen! by Chris Wilmer'
_symmetry_space_group_name_H-M	'P1'
_symmetry_Int_Tables_number	1
_symmetry_cell_setting	triclinic
loop_
_symmetry_equiv_pos_as_xyz
  x,y,z
_cell_length_a	14.560432
_cell_length_b	14.560432
_cell_length_c	18.878441
_cell_angle_alpha	59.999529
_cell_angle_beta	90.002169
_cell_angle_gamma	60.001140
loop_
_atom_site_label
_atom_site_type_symbol
_atom_site_fract_x
_atom_site_fract_y
_atom_site_fract_z
Zr1	Zr	0.884789	1.005258	-0.092935
O2	O	0.738140	1.196865	-0.206043
O3	O	0.929742	0.813656	-0.058262
O4	O	0.929739	1.005262	-0.206041
O5	O	0.738148	1.005253	0.058308
O6	O	1.080880	1.005260	-0.206038
O7	O	0.738142	1.005258	-0.058264
O8	O	1.080884	0.662511	0.058312
O9	O	0.738143	1.348002	-0.206042
O10	O	1.061712	0.892461	-0.043471
O11	O	0.948922	0.892458	0.043523
O12	O	0.948919	1.118050	-0.130468
O13	O	0.836128	1.118048	-0.043474
Zr14	Zr	1.125850	1.005245	0.092989
Zr15	Zr	1.125841	1.005254	-0.092930
Zr16	Zr	0.884798	1.005249	0.092984
Zr17	Zr	0.884795	1.246304	-0.092933
Zr18	Zr	1.125844	0.764199	0.092987
O19	O	1.080898	1.196847	0.058316
O20	O	1.080885	1.196859	-0.206037
O21	O	0.738153	1.196853	0.058309
O22	O	1.272500	0.813638	0.206098
O23	O	1.272487	0.813650	-0.058255
O24	O	0.929755	0.813644	0.206091
O25	O	1.272492	1.005250	-0.058253
O26	O	1.080900	1.005241	0.206095
O27	O	0.929759	1.005243	0.206092
O28	O	1.272497	1.005244	0.058319
O29	O	0.929748	1.347998	-0.206039
O30	O	1.080892	0.662504	0.206093
O31	O	1.272496	0.662501	0.206097
O32	O	1.272489	0.662508	0.058316
O33	O	0.738151	1.347995	-0.058262
O34	O	0.929755	1.347992	-0.058258
O35	O	1.061721	0.892453	0.130522
O36	O	1.174511	0.892455	0.043528
O37	O	1.061718	1.118044	-0.043469
O38	O	0.948927	1.118042	0.043525
C39	C	1.005312	0.703739	0.000025
C40	C	1.005309	0.601409	0.000024
C41	C	0.838763	0.767933	-0.128418
C42	C	0.755491	0.803118	-0.192635
C43	C	0.755494	0.706965	-0.192632
C44	C	0.838781	0.575616	-0.128407
C45	C	0.922054	0.540431	-0.064190
C46	C	0.922039	0.636596	-0.064198
C47	C	1.088603	0.373909	0.064247
C48	C	1.088597	0.470060	0.064250
C49	C	1.171890	0.242560	0.128473
C50	C	1.255160	0.207374	0.192695
C51	C	1.255152	0.303536	0.192690
C52	C	1.171869	0.434876	0.128467
C53	C	0.703800	1.005256	0.000021
C54	C	0.601467	1.005258	0.000019
C55	C	0.601436	1.005280	-0.128433
C56	C	0.553344	1.005295	-0.192659
C57	C	0.457194	1.005295	-0.192656
C58	C	0.409137	1.005275	-0.128419
C59	C	0.457229	1.005260	-0.064193
C60	C	0.553379	1.005264	-0.064205
C61	C	0.457265	1.005229	0.064261
C62	C	0.553410	1.005239	0.064256
C63	C	0.409207	1.005210	0.128498
C64	C	0.457295	1.005204	0.192722
C65	C	0.553450	1.005205	0.192716
C66	C	0.601502	1.005223	0.128482
C67	C	1.306839	1.005246	0.000033
C68	C	1.409172	1.005245	0.000035
C69	C	1.005308	1.005262	-0.232529
C70	C	1.005304	1.005266	-0.311456
C71	C	1.005327	1.306763	0.000029
C72	C	1.005330	1.409093	0.000030
C73	C	0.946427	1.123020	-0.393948
C74	C	0.946438	1.123016	-0.468106
C75	C	1.005320	1.005256	-0.459770
C76	C	1.064204	0.887492	-0.377269
C77	C	1.064199	0.887498	-0.303114
C78	C	1.064208	0.887489	-0.531837
C79	C	1.064212	0.887483	-0.605997
C80	C	0.946447	1.123006	-0.696829
C81	C	0.946442	1.123012	-0.622673
C82	C	1.005325	1.005248	-0.540178
C83	C	1.005331	1.005241	0.232583
C84	C	1.005335	1.005237	0.311511
C85	C	1.306832	0.703734	0.000031
C86	C	1.409162	0.601402	0.000032
C87	C	1.005324	0.703729	0.232581
C88	C	1.005325	0.601395	0.311508
C89	C	1.306843	0.703724	0.232587
C90	C	1.409177	0.601388	0.311516
C91	C	0.703796	1.306779	-0.232533
C92	C	0.601462	1.409115	-0.311462
C93	C	0.703808	1.306768	0.000023
C94	C	0.601477	1.409100	0.000022
C95	C	1.005316	1.306774	-0.232527
C96	C	1.005315	1.409108	-0.311453
C97	C	1.064205	0.553335	0.393993
C98	C	1.064202	0.457194	0.468160
C99	C	1.005325	0.409110	0.459840
C100	C	0.946437	0.457179	0.377347
C101	C	0.946434	0.553324	0.303181
C102	C	1.516120	0.553331	0.303172
C103	C	1.612283	0.457189	0.377326
C104	C	1.601501	0.409099	0.459825
C105	C	1.494547	0.457166	0.468167
C106	C	1.398386	0.553312	0.394013
C107	C	0.494519	1.457183	-0.303117
C108	C	0.398356	1.553355	-0.377272
C109	C	0.409138	1.601450	-0.459770
C110	C	0.516092	1.553377	-0.468113
C111	C	0.612253	1.457214	-0.393959
C112	C	1.064204	1.457162	-0.303106
C113	C	1.064225	1.553303	-0.377259
C114	C	1.005349	1.601394	-0.459758
C115	C	0.946458	1.553331	-0.468104
C116	C	0.946444	1.457185	-0.393952
C117	C	1.291416	0.601380	-0.090787
C118	C	1.280620	0.553291	-0.136191
C119	C	1.376772	0.457142	-0.136187
C120	C	1.483729	0.409083	-0.090776
C121	C	1.494525	0.457171	-0.045372
C122	C	1.398364	0.553320	-0.045378
C123	C	1.612270	0.457200	0.045441
C124	C	1.516119	0.553343	0.045443
C125	C	1.719227	0.409141	0.090852
C126	C	1.730024	0.457223	0.136263
C127	C	1.633864	0.553377	0.136258
C128	C	1.526915	0.601432	0.090848
H129	H	0.838784	0.497330	-0.128416
C130	C	1.482706	0.404242	0.558924
N131	N	1.473790	0.364369	0.627284
H132	H	1.311312	0.592428	0.400819
H133	H	0.699328	1.418077	-0.400763
H134	H	0.418165	1.005179	0.245022
H135	H	1.213118	0.679638	-0.090770
H136	H	1.322969	0.100428	0.244979
C137	C	0.303347	1.707223	-0.541334
N138	N	0.223660	1.786885	-0.602765
C139	C	1.128973	0.757955	-0.368102
N140	N	1.177752	0.660385	-0.361195
H141	H	0.485719	1.418029	-0.235950
C142	C	1.171890	0.136791	0.128475
N143	N	1.171888	0.057123	0.128480
H144	H	1.797514	0.330857	0.090847
C145	C	0.707270	1.005222	0.128470
N146	N	0.786939	1.005216	0.128461
H147	H	0.898500	0.418014	0.370585
H148	H	0.311279	1.592479	-0.370462
C149	C	0.527934	1.606284	-0.558869
N150	N	0.536850	1.646128	-0.627230
C151	C	0.881640	1.404353	-0.403149
N152	N	0.832823	1.364568	-0.410083
C153	C	1.128983	1.404273	-0.212363
N154	N	1.177786	1.364436	-0.144017
C155	C	0.881682	1.252548	-0.787576
N156	N	0.832900	1.350115	-0.855929
C157	C	0.606349	1.005179	0.263374
N158	N	0.646189	1.005158	0.316596
C159	C	0.663884	0.947604	-0.263284
N160	N	0.594889	1.056429	-0.316498
C161	C	1.005373	1.707160	-0.541320
N162	N	1.005393	1.786826	-0.602749
H163	H	0.898471	1.218914	-0.400746
H164	H	1.562015	0.330804	-0.090786
H165	H	1.112179	1.592427	-0.370446
C166	C	1.162963	0.606152	-0.186132
N167	N	1.074346	0.645962	-0.223746
H168	H	0.898523	1.592502	-0.535285
C169	C	1.364895	0.404242	-0.186133
N170	N	1.355949	0.364397	-0.223752
H171	H	1.112160	0.418067	0.535322
C172	C	1.847675	0.404353	0.186209
N173	N	1.936295	0.364524	0.223831
C174	C	1.645754	0.606267	0.186207
N175	N	1.654714	0.646100	0.223832
H176	H	1.448616	0.679702	0.090854
H177	H	1.322966	0.274873	0.244982
C178	C	0.404291	1.005311	-0.263307
N179	N	0.364444	1.005326	-0.316522
H180	H	0.687690	0.735619	-0.244927
C181	C	0.838745	0.873712	-0.128422
N182	N	0.838730	0.953388	-0.128427
C183	C	1.528008	0.606219	0.212430
N184	N	1.536971	0.646055	0.144086
H185	H	0.330855	1.005259	-0.128415
H186	H	0.330921	1.005202	0.128501
H187	H	1.171850	0.513180	0.128461
C188	C	0.881620	1.252555	-0.558847
N189	N	0.832780	1.350129	-0.627195
H190	H	0.679718	1.005296	-0.128448
H191	H	0.898490	1.218903	-0.629466
C192	C	1.129002	0.757941	-0.596824
N193	N	1.177808	0.660368	-0.589914
C194	C	1.128966	0.757959	-0.212369
N195	N	1.177752	0.660386	-0.144020
H196	H	0.592482	1.005307	-0.244959
C197	C	1.005351	0.303334	0.541433
N198	N	1.005380	0.223658	0.602892
H199	H	1.112159	0.791593	-0.464666
H200	H	1.112151	0.592475	0.400784
C201	C	0.881671	0.606166	0.212449
N202	N	0.832889	0.645960	0.144111
H203	H	1.699361	0.418063	0.370518
H204	H	1.679811	0.330810	0.520199
