data_functionalizedCrystal
_audit_creation_method	'MofGen! by Chris Wilmer'
_symmetry_space_group_name_H-M	'P1'
_symmetry_Int_Tables_number	1
_symmetry_cell_setting	triclinic
loop_
_symmetry_equiv_pos_as_xyz
  x,y,z
_cell_length_a	19.805407
_cell_length_b	19.805404
_cell_length_c	12.759393
_cell_angle_alpha	89.964359
_cell_angle_beta	89.977649
_cell_angle_gamma	90.031534
loop_
_atom_site_label
_atom_site_type_symbol
_atom_site_fract_x
_atom_site_fract_y
_atom_site_fract_z
Zn1	Zn	1.034734	-0.269387	-0.594092
Zn2	Zn	1.534734	0.230613	-0.094092
Zn3	Zn	1.034638	-0.382592	-0.418401
Zn4	Zn	1.534638	0.117408	0.081599
Zn5	Zn	0.921545	-0.269426	-0.418417
Zn6	Zn	1.421545	0.230574	0.081583
Zn7	Zn	0.921506	-0.382543	-0.594027
Zn8	Zn	1.421506	0.117457	-0.094027
O9	O	0.978106	-0.325987	-0.506234
O10	O	1.478106	0.174013	-0.006234
O11	O	1.129438	-0.284408	-0.570807
O12	O	1.629438	0.215592	-0.070807
O13	O	1.019613	-0.367617	-0.271382
O14	O	1.519613	0.132383	0.228618
O15	O	0.936615	-0.174704	-0.441754
O16	O	1.436615	0.325296	0.058246
O17	O	1.129368	-0.367579	-0.441727
O18	O	1.629368	0.132421	0.058273
O19	O	1.019775	-0.174675	-0.570823
O20	O	1.519775	0.325325	-0.070823
O21	O	0.936523	-0.284475	-0.271393
O22	O	1.436523	0.215525	0.228607
O23	O	0.826823	-0.284427	-0.441691
O24	O	1.326823	0.215573	0.058309
O25	O	0.936549	-0.367496	-0.741057
O26	O	1.436549	0.132504	-0.241057
O27	O	0.826794	-0.367534	-0.570711
O28	O	1.326794	0.132466	-0.070711
O29	O	1.019737	-0.284360	-0.741105
O30	O	1.519737	0.215640	-0.241105
O31	O	1.019575	-0.477302	-0.441664
O32	O	1.519575	0.022698	0.058336
O33	O	0.936457	-0.477266	-0.570696
O34	O	1.436457	0.022734	-0.070696
C35	C	0.802250	-0.325980	-0.506196
C36	C	1.302250	0.174020	-0.006196
C37	C	0.727018	-0.325993	-0.506205
C38	C	1.227018	0.174007	-0.006205
C39	C	0.265266	-0.282761	-0.573590
C40	C	0.765266	0.217239	-0.073590
C41	C	0.335955	-0.282762	-0.573582
C42	C	0.835955	0.217238	-0.073582
C43	C	0.371256	-0.325997	-0.506268
C44	C	0.871256	0.174003	-0.006268
C45	C	0.335865	-0.369239	-0.438965
C46	C	0.835865	0.130761	0.061035
C47	C	0.265178	-0.369241	-0.438978
C48	C	0.765178	0.130759	0.061022
C49	C	0.620938	-0.369234	-0.438909
C50	C	1.120938	0.130766	0.061091
C51	C	0.691630	-0.369228	-0.438899
C52	C	1.191630	0.130772	0.061101
C53	C	0.691715	-0.282755	-0.573513
C54	C	1.191715	0.217245	-0.073513
C55	C	0.621028	-0.282757	-0.573526
C56	C	1.121028	0.217243	-0.073526
C57	C	0.585643	-0.326001	-0.506228
C58	C	1.085643	0.173999	-0.006228
C59	C	0.508995	-0.326000	-0.506238
C60	C	1.008995	0.174000	-0.006238
C61	C	0.447903	-0.325995	-0.506252
C62	C	0.947903	0.174005	-0.006252
C63	C	0.978020	-0.501843	-0.506194
C64	C	1.478020	-0.001843	-0.006194
C65	C	0.978045	-0.577075	-0.506212
C66	C	1.478045	-0.077075	-0.006212
C67	C	1.021551	-1.038862	-0.439194
C68	C	1.521551	-0.538862	0.060806
C69	C	1.021520	-0.968174	-0.439174
C70	C	1.521520	-0.468174	0.060826
C71	C	0.978194	-0.932837	-0.506290
C72	C	1.478194	-0.432837	-0.006290
C73	C	0.934893	-0.968192	-0.573423
C74	C	1.434893	-0.468192	-0.073423
C75	C	0.934922	-1.038879	-0.573438
C76	C	1.434922	-0.538879	-0.073438
C77	C	0.934775	-0.683118	-0.573365
C78	C	1.434775	-0.183118	-0.073365
C79	C	0.934751	-0.612426	-0.573348
C80	C	1.434751	-0.112426	-0.073348
C81	C	1.021373	-0.612413	-0.439102
C82	C	1.521373	-0.112413	0.060898
C83	C	1.021402	-0.683101	-0.439116
C84	C	1.521402	-0.183101	0.060884
C85	C	0.978098	-0.718449	-0.506245
C86	C	1.478098	-0.218449	-0.006245
C87	C	0.978132	-0.795098	-0.506265
C88	C	1.478132	-0.295098	-0.006265
C89	C	0.978163	-0.856190	-0.506276
C90	C	1.478163	-0.356190	-0.006276
C91	C	1.154648	-0.325995	-0.506273
C92	C	1.654648	0.174005	-0.006273
C93	C	1.229880	-0.325998	-0.506289
C94	C	1.729880	0.174002	-0.006289
C95	C	0.978150	-0.325918	-0.780268
C96	C	1.478150	0.174082	-0.280268
C97	C	0.978168	-0.325889	-0.897044
C98	C	1.478168	0.174111	-0.397044
C99	C	0.978210	-0.149444	-0.506298
C100	C	1.478210	0.350556	-0.006298
C101	C	0.978255	-0.074212	-0.506325
C102	C	1.478255	0.425788	-0.006325
C103	C	0.934922	-0.282588	-0.951919
C104	C	1.434922	0.217412	-0.451919
C105	C	0.934942	-0.282568	-1.061643
C106	C	1.434942	0.217432	-0.561643
C107	C	1.021461	-0.369151	-1.061609
C108	C	1.521461	0.130849	-0.561609
C109	C	1.021437	-0.369174	-0.951887
C110	C	1.521437	0.130826	-0.451887
C111	C	0.884973	-0.232599	-0.951939
C112	C	1.384973	0.267401	-0.451939
C113	C	0.884993	-0.232579	-1.061663
C114	C	1.384993	0.267421	-0.561663
C115	C	0.978101	-0.326007	-0.233267
C116	C	1.478101	0.173993	0.266733
C117	C	0.978213	-0.325846	-0.116491
C118	C	1.478213	0.174154	0.383509
H119	H	0.236530	-0.247549	-0.628398
H120	H	0.736530	0.252451	-0.128398
H121	H	1.056643	-0.404443	-0.907212
H122	H	1.556643	0.095557	-0.407212
C123	C	1.069057	-0.416756	-1.121939
C124	C	1.569057	0.083244	-0.621939
H125	H	1.062882	-0.410539	-1.195145
H126	H	1.562882	0.089461	-0.695145
H127	H	1.059122	-0.462236	-1.103933
H128	H	1.559122	0.037764	-0.603933
H129	H	1.114539	-0.406851	-1.103966
H130	H	1.614539	0.093149	-0.603966
H131	H	0.832535	-0.246638	-0.922153
H132	H	1.332535	0.253362	-0.422153
C133	C	1.069057	-0.721968	-0.365286
C134	C	1.569057	-0.221968	0.134714
H135	H	1.094835	-0.690790	-0.325294
H136	H	1.594835	-0.190790	0.174706
H137	H	1.098545	-0.749497	-0.405520
H138	H	1.598545	-0.249497	0.094480
H139	H	1.043186	-0.749587	-0.319474
H140	H	1.543186	-0.249587	0.180526
C141	C	0.374691	-0.416804	-0.364927
C142	C	0.874691	0.083196	0.135073
H143	H	0.343490	-0.442560	-0.324856
H144	H	0.843490	0.057440	0.175144
H145	H	0.402266	-0.390883	-0.319213
H146	H	0.902266	0.109117	0.180787
H147	H	0.402261	-0.446325	-0.405043
H148	H	0.902261	0.053675	0.094957
H149	H	1.056631	-0.583625	-0.384438
H150	H	1.556631	-0.083625	0.115562
C151	C	0.910367	-0.165344	-0.905988
C152	C	1.410367	0.334656	-0.405988
H153	H	0.921690	-0.135376	-0.961452
H154	H	1.421690	0.364624	-0.461452
H155	H	0.949172	-0.173399	-0.864082
H156	H	1.449172	0.326601	-0.364082
H157	H	0.875899	-0.145758	-0.864093
H158	H	1.375899	0.354242	-0.364093
C159	C	0.817723	-0.257937	-1.107631
C160	C	1.317723	0.242063	-0.607631
H161	H	0.820036	-0.257067	-1.181992
H162	H	1.320036	0.242933	-0.681992
H163	H	0.782017	-0.229558	-1.084660
H164	H	1.282017	0.270442	-0.584660
H165	H	0.809625	-0.302844	-1.084613
H166	H	1.309625	0.197156	-0.584613
C167	C	0.887090	-0.573553	-0.647173
C168	C	1.387090	-0.073553	-0.147173
H169	H	0.893282	-0.526392	-0.637556
H170	H	1.393282	-0.026392	-0.137556
H171	H	0.841622	-0.585185	-0.631729
H172	H	1.341622	-0.085185	-0.131729
H173	H	0.896974	-0.585094	-0.717786
H174	H	1.396974	-0.085094	-0.217786
C175	C	0.582020	-0.416800	-0.364888
C176	C	1.082020	0.083200	0.135112
H177	H	0.534865	-0.410620	-0.374543
H178	H	1.034865	0.089380	0.125457
H179	H	0.593584	-0.406847	-0.294320
H180	H	1.093584	0.093153	0.205680
H181	H	0.593592	-0.462288	-0.380152
H182	H	1.093592	0.037712	0.119848
H183	H	0.899510	-0.711891	-0.628018
H184	H	1.399510	-0.211891	-0.128018
C185	C	0.887237	-0.929323	-0.647251
C186	C	1.387237	-0.429323	-0.147251
H187	H	0.893425	-0.882161	-0.637637
H188	H	1.393425	-0.382161	-0.137637
H189	H	0.841770	-0.940957	-0.631813
H190	H	1.341770	-0.440957	-0.131813
H191	H	0.897127	-0.940866	-0.717861
H192	H	1.397127	-0.440866	-0.217861
H193	H	1.056836	-1.067629	-0.384546
H194	H	1.556836	-0.567629	0.115454
C195	C	0.904051	-0.161770	-1.101940
C196	C	1.404051	0.338230	-0.601940
H197	H	0.904067	-0.161761	-1.176398
H198	H	1.404067	0.338239	-0.676398
H199	H	0.947737	-0.150096	-1.077130
H200	H	1.447737	0.349904	-0.577130
H201	H	0.872103	-0.129773	-1.077152
H202	H	1.372103	0.370227	-0.577152
C203	C	0.374877	-0.235196	-0.647604
C204	C	0.874877	0.264804	-0.147604
H205	H	0.343729	-0.209440	-0.687684
H206	H	0.843729	0.290560	-0.187684
H207	H	0.402454	-0.261115	-0.693310
H208	H	0.902454	0.238885	-0.193310
H209	H	0.402453	-0.205674	-0.607477
H210	H	0.902453	0.294326	-0.107477
H211	H	0.899669	-1.067660	-0.628107
H212	H	1.399669	-0.567660	-0.128107
H213	H	0.720534	-0.247546	-0.628314
H214	H	1.220534	0.252454	-0.128314
C215	C	0.582201	-0.235200	-0.647575
C216	C	1.082201	0.264800	-0.147575
H217	H	0.613400	-0.209454	-0.687664
H218	H	1.113400	0.290546	-0.187664
H219	H	0.554626	-0.205680	-0.607477
H220	H	1.054626	0.294320	-0.107477
H221	H	0.554630	-0.261135	-0.693287
H222	H	1.054630	0.238865	-0.193287
C223	C	0.730463	-0.416791	-0.364857
C224	C	1.230463	0.083209	0.135143
H225	H	0.777630	-0.410589	-0.374483
H226	H	1.277630	0.089411	0.125517
H227	H	0.718864	-0.462280	-0.380114
H228	H	1.218864	0.037720	0.119886
H229	H	0.718861	-0.406834	-0.294291
H230	H	1.218861	0.093166	0.205709
C231	C	0.226253	-0.416800	-0.364946
C232	C	0.726253	0.083200	0.135054
H233	H	0.257399	-0.442545	-0.324847
H234	H	0.757399	0.057455	0.175153
H235	H	0.198675	-0.446321	-0.405060
H236	H	0.698675	0.053679	0.094940
H237	H	0.198676	-0.390872	-0.319242
H238	H	0.698676	0.109128	0.180758
C239	C	1.069150	-0.929292	-0.365337
C240	C	1.569150	-0.429292	0.134663
H241	H	1.094964	-0.960461	-0.325378
H242	H	1.594964	-0.460461	0.174622
H243	H	1.043269	-0.901763	-0.319510
H244	H	1.543269	-0.401763	0.180490
H245	H	1.098615	-0.901670	-0.405576
H246	H	1.598615	-0.401670	0.094424
