data_functionalizedCrystal
_audit_creation_method	'MofGen! by Chris Wilmer'
_symmetry_space_group_name_H-M	'P1'
_symmetry_Int_Tables_number	1
_symmetry_cell_setting	triclinic
loop_
_symmetry_equiv_pos_as_xyz
  x,y,z
_cell_length_a	11.169417
_cell_length_b	19.805405
_cell_length_c	11.169409
_cell_angle_alpha	89.961390
_cell_angle_beta	90.019824
_cell_angle_gamma	89.965947
loop_
_atom_site_label
_atom_site_type_symbol
_atom_site_fract_x
_atom_site_fract_y
_atom_site_fract_z
Zn1	Zn	1.834772	0.269393	0.678490
Zn2	Zn	1.834581	0.382602	0.477785
Zn3	Zn	1.634058	0.269434	0.477825
Zn4	Zn	1.633985	0.382547	0.678430
O5	O	1.734349	0.325994	0.578133
O6	O	2.002696	0.284416	0.651875
O7	O	1.807932	0.367630	0.309841
O8	O	1.660793	0.174712	0.504485
O9	O	2.002556	0.367590	0.504418
O10	O	1.808257	0.174681	0.651913
O11	O	1.660608	0.284486	0.309870
O12	O	1.466098	0.284433	0.504427
O13	O	1.660670	0.367496	0.846388
O14	O	1.466045	0.367536	0.651811
O15	O	1.808187	0.284362	0.846432
O16	O	1.807862	0.477311	0.504360
O17	O	1.660485	0.477271	0.651772
C18	C	1.422524	0.325983	0.578117
C19	C	1.289124	0.325995	0.578139
C20	C	1.734177	0.501850	0.578081
C21	C	1.734214	0.577082	0.578100
C22	C	1.810945	0.612352	0.654924
C23	C	1.810975	0.683040	0.654943
C24	C	1.734277	0.718457	0.578131
C25	C	1.657537	0.683182	0.501303
C26	C	1.657502	0.612495	0.501291
C27	C	1.657673	0.968255	0.501352
C28	C	1.657715	1.038948	0.501368
C29	C	1.811145	1.038801	0.655004
C30	C	1.811111	0.968114	0.654992
C31	C	1.734366	0.932845	0.578169
C32	C	1.734334	0.856196	0.578151
C33	C	1.734315	0.795104	0.578142
C34	C	2.047391	0.326004	0.578149
C35	C	2.180791	0.326009	0.578156
C36	C	1.734441	0.325919	0.891175
C37	C	1.734481	0.325887	1.024575
C38	C	1.734504	1.149451	0.578199
C39	C	1.734442	1.074219	0.578199
C40	C	1.734326	0.326020	0.266308
C41	C	1.734520	0.325861	0.132909
H42	H	1.873467	0.711754	0.717492
O43	O	1.583370	1.073384	0.426630
C44	C	1.567330	1.153308	0.264652
C45	C	1.651656	1.114339	0.349190
H46	H	1.622504	1.186440	0.202038
H47	H	1.512487	1.115991	0.209657
H48	H	1.504552	1.186380	0.319745
H49	H	1.714506	1.081266	0.294190
H50	H	1.706414	1.151693	0.404190
H51	H	1.595187	0.939545	0.438798
O52	O	1.885575	1.073167	0.729603
C53	C	1.953686	1.181998	0.797675
C54	C	1.869314	1.143166	0.713158
H55	H	1.940587	1.238599	0.784390
H56	H	1.932556	1.168115	0.894456
H57	H	2.050451	1.168020	0.776687
H58	H	1.772521	1.157122	0.734038
H59	H	1.890548	1.157052	0.616402
O60	O	1.885573	0.933606	0.729497
C61	C	1.953456	0.824644	0.797629
C62	C	1.869091	0.863638	0.713165
H63	H	1.940142	0.768069	0.784472
H64	H	2.050279	0.838451	0.776643
H65	H	1.932345	0.838552	0.894374
H66	H	1.890094	0.849751	0.616391
H67	H	1.772294	0.849828	0.734254
O68	O	1.583146	0.717689	0.426725
C69	C	1.515154	0.826648	0.358692
C70	C	1.599479	0.787657	0.443199
H71	H	1.528312	0.883224	0.372000
H72	H	1.536276	0.812830	0.261907
H73	H	1.418372	0.812750	0.379668
H74	H	1.696288	0.801535	0.422331
H75	H	1.578254	0.801478	0.539959
H76	H	1.595018	0.583779	0.438734
H77	H	1.873407	0.583520	0.717468
