data_functionalizedCrystal
_audit_creation_method	'MofGen! by Chris Wilmer'
_symmetry_space_group_name_H-M	'P1'
_symmetry_Int_Tables_number	1
_symmetry_cell_setting	triclinic
loop_
_symmetry_equiv_pos_as_xyz
  x,y,z
_cell_length_a	8.597340
_cell_length_b	22.610064
_cell_length_c	8.559649
_cell_angle_alpha	90.005107
_cell_angle_beta	102.374957
_cell_angle_gamma	82.306257
loop_
_atom_site_label
_atom_site_type_symbol
_atom_site_fract_x
_atom_site_fract_y
_atom_site_fract_z
O1	O	2.053695	-0.055477	-0.238061
O2	O	1.594574	-0.032079	-0.256313
O3	O	1.864583	-0.045840	-0.015217
O4	O	1.783686	-0.041716	-0.479156
O5	O	1.864537	-0.144207	-0.015252
O6	O	1.594528	-0.130446	-0.256348
O7	O	2.053648	-0.153844	-0.238096
Zn8	Zn	1.824080	-0.157763	-0.247227
Zn9	Zn	1.824142	-0.028160	-0.247181
O10	O	1.783639	-0.140083	-0.479191
C11	C	1.536318	-0.078294	-0.254368
C12	C	1.362803	-0.069452	-0.248502
N13	N	1.824050	-0.246213	-0.247258
C14	C	1.943705	-0.660953	-0.140441
C15	C	1.943714	-0.722874	-0.140429
O16	O	2.045380	-0.760074	-0.049632
N17	N	1.824145	-0.747755	-0.247148
C18	C	1.704549	-0.710713	-0.353874
O19	O	1.602846	-0.737563	-0.444644
C20	C	1.704534	-0.648793	-0.353876
C21	C	1.824121	-0.623916	-0.247162
C22	C	2.063281	-0.636075	-0.033734
C23	C	2.063272	-0.574159	-0.033747
C24	C	1.943689	-0.537121	-0.140468
C25	C	1.824113	-0.562000	-0.247176
C26	C	1.584933	-0.611752	-0.460593
C27	C	1.584928	-0.549829	-0.460586
C28	C	1.704515	-0.524951	-0.353871
C29	C	1.704521	-0.463046	-0.353910
N30	N	1.824090	-0.438164	-0.247192
C31	C	1.943674	-0.475201	-0.140471
C32	C	1.704587	-0.840749	-0.353859
C33	C	1.704607	-0.902667	-0.353865
C34	C	1.943771	-0.914823	-0.140418
C35	C	1.943756	-0.852904	-0.140421
C36	C	1.824156	-0.815867	-0.247140
C37	C	1.943649	-0.345173	-0.140509
C38	C	1.943634	-0.283251	-0.140537
C39	C	1.704466	-0.271100	-0.353977
C40	C	1.704485	-0.333017	-0.353956
C41	C	1.824084	-0.370052	-0.247209
O42	O	1.602903	-0.425809	-0.444657
O43	O	2.045348	-0.448343	-0.049701
C44	C	2.111905	-0.107627	-0.240040
C45	C	2.285419	-0.116466	-0.245907
C46	C	1.870691	-0.095335	0.044199
C47	C	1.888939	-0.096261	0.221294
N48	N	1.824187	0.060290	-0.247138
C49	C	1.777532	-0.090587	-0.538607
C50	C	1.759283	-0.089656	-0.715702
H51	H	1.296303	-0.022430	-0.246235
C52	C	2.194805	-0.546795	0.083655
C53	C	2.214059	-0.556288	0.265309
C54	C	2.345593	-0.528929	0.382724
C55	C	2.457873	-0.492077	0.318484
C56	C	2.438623	-0.482583	0.136821
C57	C	2.307089	-0.509942	0.019407
H58	H	2.130939	-0.583570	0.312872
H59	H	2.359843	-0.535957	0.517203
H60	H	2.555242	-0.471824	0.405401
H61	H	2.521742	-0.455301	0.089259
H62	H	2.292839	-0.502913	-0.115073
H63	H	1.607105	-0.240935	-0.440873
C64	C	2.057777	-0.104869	0.331449
C65	C	2.109281	-0.158577	0.450461
C66	C	2.278114	-0.167184	0.560615
C67	C	2.395444	-0.122083	0.551757
C68	C	2.343943	-0.068370	0.432741
C69	C	2.175109	-0.059763	0.322586
H70	H	2.022424	-0.191968	0.457022
H71	H	2.316238	-0.206946	0.648719
H72	H	2.520425	-0.128454	0.633300
H73	H	2.430800	-0.034980	0.426179
H74	H	2.136985	-0.020002	0.234482
C75	C	2.075182	-0.255886	-0.023140
C76	C	2.206713	-0.296630	0.094257
C77	C	2.338254	-0.269267	0.211652
C78	C	2.338263	-0.201159	0.211650
C79	C	2.206727	-0.160411	0.094249
C80	C	2.075186	-0.187774	-0.023146
H81	H	2.206711	-0.347051	0.094263
H82	H	2.435626	-0.299432	0.298560
H83	H	2.435638	-0.180904	0.298553
H84	H	2.206729	-0.109990	0.094243
H85	H	1.977814	-0.157609	-0.110054
C86	C	2.075294	-0.825541	-0.023024
C87	C	2.028802	-0.780607	0.099953
C88	C	2.160343	-0.753248	0.217358
C89	C	2.338377	-0.770823	0.211788
C90	C	2.384877	-0.815759	0.088807
C91	C	2.253336	-0.843118	-0.028599
H92	H	1.897003	-0.767595	0.104081
H93	H	2.125919	-0.719984	0.308397
H94	H	2.435752	-0.750571	0.298698
H95	H	2.516676	-0.828772	0.084679
H96	H	2.287760	-0.876383	-0.119638
C97	C	2.075308	-0.955573	-0.023011
C98	C	2.094572	-0.948037	0.158647
C99	C	2.226100	-0.988788	0.276045
C100	C	2.338365	-1.037076	0.211786
C101	C	2.319104	-1.044614	0.030119
C102	C	2.187576	-1.003863	-0.087279
H103	H	2.011464	-0.912290	0.206224
H104	H	2.240358	-0.983207	0.410527
H105	H	2.435730	-1.067242	0.298691
H106	H	2.402212	-1.080361	-0.017458
H107	H	2.173319	-1.009444	-0.221762
H108	H	1.351914	-0.163484	-0.248162
C109	C	1.453377	-0.639108	-0.577971
C110	C	1.275354	-0.621527	-0.572366
C111	C	1.143787	-0.648883	-0.689747
C112	C	1.190244	-0.693820	-0.812732
C113	C	1.368275	-0.711403	-0.818341
C114	C	1.499842	-0.684047	-0.700961
H115	H	1.240957	-0.588260	-0.481321
H116	H	1.011996	-0.635866	-0.685593
H117	H	1.092850	-0.714070	-0.899624
H118	H	1.402673	-0.744670	-0.909386
H119	H	1.631633	-0.697064	-0.705114
C120	C	1.572946	-0.360384	-0.471352
C121	C	1.460672	-0.397229	-0.407079
C122	C	1.329120	-0.424589	-0.524466
C123	C	1.309842	-0.415105	-0.706126
C124	C	1.422120	-0.378259	-0.770408
C125	C	1.553672	-0.350898	-0.653021
H126	H	1.474939	-0.404251	-0.272595
H127	H	1.246004	-0.451866	-0.476879
H128	H	1.212459	-0.435359	-0.793023
H129	H	1.407853	-0.371237	-0.904892
H130	H	1.636788	-0.323622	-0.700608
H131	H	1.487531	-0.519675	-0.547488
H132	H	2.041036	-0.375321	-0.053584
H133	H	1.634318	-0.083289	0.202756
H134	H	2.160661	-0.666226	0.053179
H135	H	1.607243	-0.922919	-0.440779
H136	H	1.607197	-0.810595	-0.440776
