data_functionalizedCrystal
_audit_creation_method	'MofGen! by Chris Wilmer'
_symmetry_space_group_name_H-M	'P1'
_symmetry_Int_Tables_number	1
_symmetry_cell_setting	triclinic
loop_
_symmetry_equiv_pos_as_xyz
  x,y,z
_cell_length_a	10.654550
_cell_length_b	16.992695
_cell_length_c	9.130313
_cell_angle_alpha	89.998255
_cell_angle_beta	89.996220
_cell_angle_gamma	87.576563
loop_
_atom_site_label
_atom_site_type_symbol
_atom_site_fract_x
_atom_site_fract_y
_atom_site_fract_z
O1	O	1.677356	0.110186	-0.121922
O2	O	1.312785	0.120685	-0.121899
O3	O	1.493609	0.001285	-0.121899
O4	O	1.496532	0.229586	-0.121922
O5	O	1.493607	0.001288	0.121700
O6	O	1.312783	0.120688	0.121700
O7	O	1.677354	0.110190	0.121676
Cu8	Cu	1.495068	0.115439	0.143931
Cu9	Cu	1.495071	0.115435	-0.144153
O10	O	1.496530	0.229589	0.121676
C11	C	1.265919	0.119915	-0.000097
C12	C	1.126277	0.117609	-0.000087
C13	C	1.052866	0.187910	-0.000116
C14	C	0.921658	0.185738	-0.000141
C15	C	0.937282	0.042959	-0.000115
C16	C	1.068488	0.045131	-0.000080
C17	C	1.043844	0.270342	-0.000137
C18	C	0.912636	0.268171	-0.000162
C19	C	1.489848	-0.027947	-0.000100
C20	C	1.478628	-0.115052	-0.000099
C21	C	1.586879	-0.164704	-0.000105
C22	C	1.576330	-0.246548	-0.000118
C23	C	1.457529	-0.278738	-0.000115
C24	C	1.349270	-0.229080	-0.000114
C25	C	1.359820	-0.147237	-0.000112
C26	C	1.413802	-0.522574	-0.000133
C27	C	1.403260	-0.604422	-0.000131
C28	C	1.630321	-0.621884	-0.000137
C29	C	1.640861	-0.540040	-0.000126
C30	C	1.532602	-0.490389	-0.000132
N31	N	1.446743	-0.362396	-0.000124
N32	N	1.543389	-0.406733	-0.000134
C33	C	1.724220	0.110959	-0.000129
C34	C	1.863862	0.113265	-0.000148
C35	C	1.500291	0.258821	-0.000126
C36	C	1.511510	0.345926	-0.000136
N37	N	1.495076	0.115441	0.346553
N38	N	1.495073	0.115427	-0.346776
C39	C	1.575168	0.062589	0.423205
C40	C	1.575164	0.062580	0.576542
C41	C	1.414971	0.168281	0.576561
C42	C	1.414970	0.168286	0.423227
C43	C	1.667658	0.001565	0.423195
C44	C	1.667654	0.001556	0.576532
H45	H	1.683620	-0.138501	-0.000098
Cl46	Cl	1.810978	0.031075	0.349744
H47	H	1.641004	-0.058735	0.381583
Cl48	Cl	0.852339	0.316118	-0.157570
H49	H	1.075960	0.302583	0.101811
H50	H	0.869116	0.293084	0.105003
Cl51	Cl	1.277703	-0.460166	-0.000145
Cl52	Cl	1.102408	0.310863	-0.162515
H53	H	1.765327	0.014998	0.618141
H54	H	1.664480	-0.286971	-0.000119
H55	H	1.252539	-0.255296	-0.000121
Cl56	Cl	1.766408	-0.684307	-0.000133
Cl57	Cl	1.223727	-0.084817	-0.000110
H58	H	1.128255	-0.012114	-0.000035
Cl59	Cl	1.314272	0.234712	0.672961
H60	H	1.306513	-0.630628	-0.000105
H61	H	1.349741	0.211316	0.360819
H62	H	0.890215	-0.016050	-0.000131
Cl63	Cl	1.612932	-0.086416	0.649966
H64	H	1.737601	-0.513837	-0.000128
