data_functionalizedCrystal
_audit_creation_method	'MofGen! by Chris Wilmer'
_symmetry_space_group_name_H-M	'P1'
_symmetry_Int_Tables_number	1
_symmetry_cell_setting	triclinic
loop_
_symmetry_equiv_pos_as_xyz
  x,y,z
_cell_length_a	15.625164
_cell_length_b	10.489741
_cell_length_c	14.185569
_cell_angle_alpha	76.708603
_cell_angle_beta	59.444361
_cell_angle_gamma	95.615627
loop_
_atom_site_label
_atom_site_type_symbol
_atom_site_fract_x
_atom_site_fract_y
_atom_site_fract_z
O1	O	-1.291121	0.032870	0.386325
O2	O	-1.003344	0.088937	0.281623
O3	O	-1.153783	-0.125588	0.336363
O4	O	-1.140683	0.247395	0.331585
O5	O	-1.198224	-0.188955	0.519368
O6	O	-1.047785	0.025570	0.464628
O7	O	-1.335562	-0.030497	0.569331
Cu8	Cu	-1.195731	-0.008249	0.533689
Cu9	Cu	-1.143175	0.066689	0.317264
O10	O	-1.185124	0.184028	0.514590
C11	C	-0.988715	0.060994	0.359718
C12	C	-0.878914	0.072124	0.319769
C13	C	-1.175014	-0.204668	0.427505
C14	C	-1.172054	-0.345894	0.426426
C15	C	-0.699929	0.122350	0.163713
C16	C	-0.803107	0.111888	0.201263
C17	C	-0.851564	0.042813	0.400772
C18	C	-0.748388	0.053276	0.363238
C19	C	-0.672578	0.093044	0.244708
C20	C	-0.721036	0.023970	0.444233
C21	C	-0.617869	0.034425	0.406702
C22	C	-0.542054	0.074188	0.288177
C23	C	-0.569411	0.103500	0.207177
C24	C	-0.796848	-0.015807	0.562763
C25	C	-0.769496	-0.045114	0.643757
C26	C	-0.666327	-0.034649	0.606227
C27	C	-0.590512	0.005113	0.487702
C28	C	-0.638970	-0.063961	0.687226
C29	C	-0.535804	-0.053505	0.649696
C30	C	-0.487345	0.015569	0.450171
C31	C	-1.076333	-0.401002	0.391593
C32	C	-1.143462	-0.530522	0.498275
C33	C	-1.099669	-0.468026	0.317855
C34	C	-1.239240	-0.473581	0.533198
C35	C	-1.195414	-0.411045	0.352691
C36	C	-1.262617	-0.540555	0.459421
C37	C	-0.350192	-0.002567	0.491230
C38	C	-0.459994	-0.013737	0.531165
C39	C	-1.163892	0.263109	0.423446
C40	C	-1.166850	0.404338	0.424517
N41	N	-1.232704	-0.060958	0.685913
N42	N	-1.106210	0.119387	0.165043
C43	C	-0.997584	0.274191	0.968010
C44	C	-1.025597	0.234272	1.083225
C45	C	-1.158838	0.044371	1.131668
C46	C	-1.130833	0.084270	1.016454
C47	C	-1.050206	0.199182	0.934633
C48	C	-1.183455	0.009261	0.983078
C49	C	-1.155455	0.049162	0.867875
C50	C	-1.074833	0.164071	0.786048
C51	C	-1.022206	0.239082	0.819430
C52	C	-1.264086	-0.105644	1.064902
C53	C	-1.316708	-0.180653	1.031526
C54	C	-1.288704	-0.140759	0.916319
C55	C	-1.208082	-0.025850	0.834493
C56	C	-1.341331	-0.215770	0.882937
C57	C	-1.313331	-0.175870	0.767734
C58	C	-1.180082	0.014051	0.719290
H59	H	-0.425614	0.047968	0.353651
H60	H	-1.217355	-0.359094	0.291126
H61	H	-1.114421	0.107615	0.652664
H62	H	-1.052040	0.196560	0.692245
F63	F	-1.402518	-0.302945	1.118614
F64	F	-0.488720	0.145844	0.081022
H65	H	-1.121486	-0.582434	0.559824
F66	F	-0.911761	0.396484	0.880922
H67	H	-0.982740	0.295365	1.110390
F68	F	-1.022498	-0.466794	0.198884
F69	F	-1.244648	-0.077920	1.218757
F70	F	-0.719665	-0.106296	0.813371
H71	H	-1.286884	-0.138123	1.158707
F72	F	-0.619239	0.164694	0.037558
F73	F	-0.832210	0.143081	0.115048
F74	F	-1.316374	-0.475050	0.652261
F75	F	-0.906649	-0.026947	0.602704
H76	H	-1.341399	-0.600719	0.488130
F77	F	-1.427147	-0.338054	0.970031
H78	H	-0.913302	0.010429	0.497280
H79	H	-0.956545	0.332647	0.752804
H80	H	-1.356183	-0.236950	0.740561
H81	H	-0.458050	0.082702	0.257621
F82	F	-0.506693	-0.084712	0.735899
F83	F	-0.850187	-0.087436	0.769902
H84	H	-0.997656	-0.340669	0.363050
