data_functionalizedCrystal
_audit_creation_method	'MofGen! by Chris Wilmer'
_symmetry_space_group_name_H-M	'P1'
_symmetry_Int_Tables_number	1
_symmetry_cell_setting	triclinic
loop_
_symmetry_equiv_pos_as_xyz
  x,y,z
_cell_length_a	18.215407
_cell_length_b	12.827892
_cell_length_c	18.215399
_cell_angle_alpha	90.023838
_cell_angle_beta	90.017368
_cell_angle_gamma	90.012835
loop_
_atom_site_label
_atom_site_type_symbol
_atom_site_fract_x
_atom_site_fract_y
_atom_site_fract_z
Zn1	Zn	1.125120	-0.416115	0.416088
Zn2	Zn	1.458454	-0.082782	0.749422
Zn3	Zn	1.791787	0.250552	1.082755
Zn4	Zn	1.125049	-0.590874	0.293031
Zn5	Zn	1.458383	-0.257541	0.626364
Zn6	Zn	1.791716	0.075792	0.959698
Zn7	Zn	1.002053	-0.416140	0.293041
Zn8	Zn	1.335386	-0.082807	0.626374
Zn9	Zn	1.668720	0.250527	0.959708
Zn10	Zn	1.002039	-0.590807	0.416061
Zn11	Zn	1.335373	-0.257474	0.749395
Zn12	Zn	1.668706	0.075860	1.082728
O13	O	1.063566	-0.503484	0.354555
O14	O	1.396899	-0.170151	0.687889
O15	O	1.730232	0.163183	1.021222
O16	O	1.228095	-0.439315	0.399772
O17	O	1.561429	-0.105982	0.733105
O18	O	1.894762	0.227352	1.066438
O19	O	1.108710	-0.567734	0.190048
O20	O	1.442043	-0.234401	0.523381
O21	O	1.775376	0.098933	0.856715
O22	O	1.018414	-0.269901	0.309379
O23	O	1.351747	0.063433	0.642713
O24	O	1.685080	0.396766	0.976046
O25	O	1.228043	-0.567710	0.309362
O26	O	1.561376	-0.234376	0.642695
O27	O	1.894710	0.098957	0.976029
O28	O	1.108831	-0.269882	0.399782
O29	O	1.442164	0.063451	0.733115
O30	O	1.775498	0.396784	1.066448
O31	O	1.018345	-0.439358	0.190056
O32	O	1.351678	-0.106024	0.523389
O33	O	1.685011	0.227309	0.856722
O34	O	0.899067	-0.439292	0.309353
O35	O	1.232400	-0.105959	0.642686
O36	O	1.565734	0.227374	0.976020
O37	O	1.018390	-0.567595	0.519049
O38	O	1.351724	-0.234262	0.852382
O39	O	1.685057	0.099072	1.185716
O40	O	0.899057	-0.567619	0.399735
O41	O	1.232390	-0.234286	0.733069
O42	O	1.565724	0.099047	1.066402
O43	O	1.108818	-0.439250	0.519069
O44	O	1.442151	-0.105916	0.852403
O45	O	1.775484	0.227417	1.185736
O46	O	1.108696	-0.737101	0.309336
O47	O	1.442030	-0.403768	0.642669
O48	O	1.775363	-0.070435	0.976002
O49	O	1.018321	-0.737052	0.399725
O50	O	1.351655	-0.403719	0.733059
O51	O	1.684988	-0.070385	1.066392
C52	C	0.872359	-0.503452	0.354543
C53	C	1.205693	-0.170119	0.687876
C54	C	1.539026	0.163215	1.021209
C55	C	0.790560	-0.503463	0.354555
C56	C	1.123894	-0.170130	0.687888
C57	C	1.457227	0.163203	1.021221
C58	C	0.602393	-0.436746	0.401705
C59	C	0.935726	-0.103412	0.735039
C60	C	1.269059	0.229921	1.068372
C61	C	0.525534	-0.436755	0.401708
C62	C	0.858867	-0.103421	0.735041
C63	C	1.192201	0.229912	1.068374
C64	C	0.525490	-0.570252	0.307419
C65	C	0.858824	-0.236918	0.640752
C66	C	1.192157	0.096415	0.974085
C67	C	0.602348	-0.570237	0.307413
C68	C	0.935681	-0.236903	0.640746
C69	C	1.269014	0.096430	0.974080
C70	C	0.640797	-0.503485	0.354560
C71	C	0.974130	-0.170152	0.687894
C72	C	1.307464	0.163181	1.021227
C73	C	0.487081	-0.503509	0.354569
C74	C	0.820414	-0.170176	0.687902
C75	C	1.153747	0.163157	1.021235
C76	C	0.403747	-0.503519	0.354571
C77	C	0.737080	-0.170186	0.687904
C78	C	1.070414	0.163147	1.021238
C79	C	0.724136	-0.503473	0.354557
C80	C	1.057469	-0.170140	0.687891
C81	C	1.390803	0.163193	1.021224
C82	C	1.063519	-0.774994	0.354542
C83	C	1.396853	-0.441661	0.687876
C84	C	1.730186	-0.108327	1.021209
C85	C	1.063567	-0.891147	0.354562
C86	C	1.396900	-0.557814	0.687895
C87	C	1.730234	-0.224480	1.021228
C88	C	1.108341	-0.942922	0.309883
C89	C	1.441674	-0.609588	0.643217
C90	C	1.775007	-0.276255	0.976550
C91	C	1.108391	-1.062972	0.309902
C92	C	1.441724	-0.729639	0.643235
C93	C	1.775058	-0.396305	0.976569
C94	C	1.255518	-0.503517	0.354569
C95	C	1.588852	-0.170184	0.687902
C96	C	1.922185	0.163150	1.021236
C97	C	1.337317	-0.503531	0.354575
C98	C	1.670651	-0.170198	0.687908
C99	C	2.003984	0.163135	1.021241
C100	C	1.063610	-0.503412	0.546508
C101	C	1.396944	-0.170079	0.879842
C102	C	1.730277	0.163255	1.213175
C103	C	1.063629	-0.503381	0.628307
C104	C	1.396963	-0.170048	0.961641
C105	C	1.730296	0.163285	1.294974
C106	C	1.063632	-0.230914	0.354585
C107	C	1.396965	0.102419	0.687918
C108	C	1.730298	0.435753	1.021251
C109	C	1.063660	-0.114761	0.354597
C110	C	1.396993	0.218573	0.687930
C111	C	1.730327	0.551906	1.021264
C112	C	1.063563	-0.503480	0.163349
C113	C	1.396897	-0.170147	0.496683
C114	C	1.730230	0.163186	0.830016
C115	C	1.063687	-0.503217	0.081551
C116	C	1.397020	-0.169883	0.414884
C117	C	1.730353	0.163450	0.748217
C118	C	1.110732	-0.436489	0.816513
C119	C	1.444065	-0.103156	1.149846
C120	C	1.777398	0.230177	1.483180
C121	C	1.110741	-0.436459	0.893372
C122	C	1.444074	-0.103126	1.226705
C123	C	1.777407	0.230208	1.560038
C124	C	1.016579	-0.570112	0.893340
C125	C	1.349912	-0.236778	1.226673
C126	C	1.683246	0.096555	1.560006
C127	C	1.016567	-0.570136	0.816482
C128	C	1.349901	-0.236803	1.149816
C129	C	1.683234	0.096531	1.483149
C130	C	1.063648	-0.503327	0.778071
C131	C	1.396981	-0.169993	1.111404
C132	C	1.730314	0.163340	1.444738
C133	C	1.063668	-0.503272	0.931787
C134	C	1.397002	-0.169938	1.265120
C135	C	1.730335	0.163395	1.598454
C136	C	1.063678	-0.503239	1.015121
C137	C	1.397011	-0.169906	1.348454
C138	C	1.730344	0.163428	1.681788
C139	C	1.063638	-0.503357	0.694732
C140	C	1.396971	-0.170024	1.028065
C141	C	1.730304	0.163309	1.361399
H142	H	1.146639	-0.898374	0.271621
H143	H	1.479972	-0.565040	0.604955
H144	H	1.813306	-0.231707	0.938288
O145	O	0.639545	-0.635171	0.261591
O146	O	0.972878	-0.301838	0.594924
O147	O	1.306211	0.031495	0.928257
C148	C	0.589130	-0.694079	0.219970
C149	C	0.922463	-0.360745	0.553303
C150	C	1.255796	-0.027412	0.886637
H151	H	0.534353	-0.697767	0.250111
H152	H	0.867687	-0.364433	0.583445
H153	H	1.201020	-0.031100	0.916778
H154	H	0.611332	-0.776394	0.212021
H155	H	0.944665	-0.443061	0.545354
H156	H	1.277998	-0.109727	0.878688
H157	H	0.580937	-0.655712	0.164123
H158	H	0.914270	-0.322379	0.497456
H159	H	1.247604	0.010954	0.830790
H160	H	1.146721	-1.107497	0.271650
H161	H	1.480054	-0.774164	0.604983
H162	H	1.813388	-0.440830	0.938316
H163	H	1.149066	-0.382086	0.785241
H164	H	1.482399	-0.048753	1.118574
H165	H	1.815732	0.284581	1.451907
O166	O	1.156444	-0.371389	0.930631
O167	O	1.489777	-0.038055	1.263965
O168	O	1.823111	0.295278	1.597298
C169	C	1.140370	-0.267240	0.911870
C170	C	1.473703	0.066093	1.245203
C171	C	1.807036	0.399426	1.578536
H172	H	1.112070	-0.265095	0.856062
H173	H	1.445403	0.068238	1.189396
H174	H	1.778737	0.401572	1.522729
H175	H	1.193493	-0.220391	0.909250
H176	H	1.526826	0.112942	1.242584
H177	H	1.860160	0.446275	1.575917
H178	H	1.102549	-0.232018	0.955123
H179	H	1.435882	0.101316	1.288457
H180	H	1.769216	0.434649	1.621790
H181	H	0.978249	-0.624508	0.924624
H182	H	1.311583	-0.291175	1.257957
H183	H	1.644916	0.042159	1.591290
O184	O	1.017821	-1.061707	0.400158
O185	O	1.351155	-0.728373	0.733491
O186	O	1.684488	-0.395040	1.066824
C187	C	0.944477	-1.088422	0.384047
C188	C	1.277810	-0.755088	0.717380
C189	C	1.611144	-0.421755	1.050713
H190	H	0.940786	-1.118550	0.325275
H191	H	1.274119	-0.785217	0.658608
H192	H	1.607452	-0.451883	0.991941
H193	H	0.908131	-1.016632	0.390300
H194	H	1.241464	-0.683299	0.723633
H195	H	1.574797	-0.349965	1.056967
H196	H	0.925206	-1.151683	0.423536
H197	H	1.258540	-0.818350	0.756869
H198	H	1.591873	-0.485017	1.090203
O199	O	0.488026	-0.635063	0.261696
O200	O	0.821359	-0.301730	0.595029
O201	O	1.154692	0.031603	0.928362
C202	C	0.411954	-0.620751	0.271797
C203	C	0.745287	-0.287418	0.605130
C204	C	1.078620	0.045916	0.938464
H205	H	0.401480	-0.586628	0.328632
H206	H	0.734814	-0.253295	0.661965
H207	H	1.068147	0.080039	0.995299
H208	H	0.382738	-0.699024	0.266717
H209	H	0.716071	-0.365691	0.600050
H210	H	1.049405	-0.032358	0.933383
H211	H	0.390129	-0.565029	0.228212
H212	H	0.723462	-0.231696	0.561545
H213	H	1.056795	0.101637	0.894879
H214	H	0.978220	-0.624562	0.785182
H215	H	1.311554	-0.291229	1.118515
H216	H	1.644887	0.042105	1.451849
O217	O	0.639629	-0.371804	0.447523
O218	O	0.972962	-0.038470	0.780856
O219	O	1.306296	0.294863	1.114190
C220	C	0.589247	-0.312919	0.489147
C221	C	0.922581	0.020414	0.822480
C222	C	1.255914	0.353748	1.155814
H223	H	0.534451	-0.309258	0.459010
H224	H	0.867784	0.024076	0.792343
H225	H	1.201117	0.357409	1.125676
H226	H	0.611462	-0.230593	0.497094
H227	H	0.944795	0.102740	0.830427
H228	H	1.278128	0.436073	1.163760
H229	H	0.581090	-0.351288	0.544995
H230	H	0.914423	-0.017955	0.878328
H231	H	1.247756	0.315378	1.211662
O232	O	0.488148	-0.372073	0.447543
O233	O	0.821481	-0.038740	0.780877
O234	O	1.154815	0.294594	1.114210
C235	C	0.443717	-0.431664	0.495019
C236	C	0.777050	-0.098331	0.828352
C237	C	1.110384	0.235002	1.161686
H238	H	0.432185	-0.510812	0.468968
H239	H	0.765519	-0.177478	0.802301
H240	H	1.098852	0.155855	1.135635
H241	H	0.389679	-0.389123	0.504938
H242	H	0.723012	-0.055790	0.838271
H243	H	1.056345	0.277543	1.171605
H244	H	0.473357	-0.443244	0.549540
H245	H	0.806691	-0.109911	0.882873
H246	H	1.140024	0.223423	1.216207
O247	O	1.017982	-0.944400	0.400250
O248	O	1.351315	-0.611067	0.733583
O249	O	1.684648	-0.277733	1.066917
C250	C	1.059922	-1.007422	0.447802
C251	C	1.393255	-0.674089	0.781135
C252	C	1.726588	-0.340755	1.114469
H253	H	1.115726	-1.023624	0.421888
H254	H	1.449059	-0.690291	0.755222
H255	H	1.782392	-0.356958	1.088555
H256	H	1.030022	-1.084245	0.457602
H257	H	1.363355	-0.750911	0.790936
H258	H	1.696689	-0.417578	1.124269
H259	H	1.067931	-0.965361	0.502367
H260	H	1.401264	-0.632028	0.835700
H261	H	1.734597	-0.298694	1.169033
