data_functionalizedCrystal
_audit_creation_method	'MofGen! by Chris Wilmer'
_symmetry_space_group_name_H-M	'P1'
_symmetry_Int_Tables_number	1
_symmetry_cell_setting	triclinic
loop_
_symmetry_equiv_pos_as_xyz
  x,y,z
_cell_length_a	27.732048
_cell_length_b	16.992695
_cell_length_c	16.053802
_cell_angle_alpha	87.258926
_cell_angle_beta	87.437704
_cell_angle_gamma	93.344561
loop_
_atom_site_label
_atom_site_type_symbol
_atom_site_fract_x
_atom_site_fract_y
_atom_site_fract_z
O1	O	0.646871	-0.089927	-0.069478
O2	O	1.146871	0.410073	0.430522
O3	O	0.506690	-0.104106	-0.069469
O4	O	1.006690	0.395894	0.430531
O5	O	0.576219	0.017119	-0.069467
O6	O	1.076219	0.517119	0.430533
O7	O	0.577343	-0.211152	-0.069480
O8	O	1.077343	0.288848	0.430520
O9	O	0.572391	0.010474	0.069392
O10	O	1.072391	0.510474	0.569392
O11	O	0.502862	-0.110752	0.069389
O12	O	1.002862	0.389248	0.569389
O13	O	0.643043	-0.096572	0.069381
O14	O	1.143043	0.403428	0.569381
Zn15	Zn	0.572345	-0.104717	0.091432
Zn16	Zn	1.072345	0.395283	0.591432
Zn17	Zn	0.577389	-0.095962	-0.091520
Zn18	Zn	1.077389	0.404038	0.408480
O19	O	0.573515	-0.217797	0.069379
O20	O	1.073515	0.282203	0.569379
C21	C	0.486757	-0.107132	-0.000039
C22	C	0.986757	0.392868	0.499961
C23	C	0.433063	-0.106235	-0.000035
C24	C	0.933063	0.393765	0.499965
C25	C	0.572859	0.042991	-0.000038
C26	C	1.072859	0.542991	0.499962
C27	C	0.568545	0.129983	-0.000038
C28	C	1.068545	0.629983	0.499962
C29	C	0.662977	-0.093547	-0.000051
C30	C	1.162977	0.406453	0.499949
C31	C	0.716671	-0.094443	-0.000060
C32	C	1.216671	0.405557	0.499940
C33	C	1.052632	-0.028450	-0.000028
C34	C	1.552632	0.471550	0.499972
C35	C	1.254435	-0.031776	-0.000025
C36	C	1.754435	0.468224	0.499975
O37	O	1.283080	0.028569	0.000014
O38	O	1.783080	0.528569	0.500014
N39	N	1.276667	-0.103657	-0.000032
N40	N	1.776667	0.396343	0.499968
C41	C	1.248444	-0.174713	-0.000034
C42	C	1.748444	0.325287	0.499966
O43	O	1.271984	-0.235929	-0.000031
O44	O	1.771984	0.264071	0.499969
C45	C	1.046642	-0.171387	-0.000030
C46	C	1.546642	0.328613	0.499970
C47	C	1.024413	-0.099500	-0.000032
C48	C	1.524413	0.400500	0.499968
C49	C	1.030403	0.043430	-0.000029
C50	C	1.530403	0.543430	0.499971
C51	C	0.979955	0.044261	-0.000034
C52	C	1.479955	0.544261	0.499966
C53	C	0.951736	-0.026789	-0.000038
C54	C	1.451736	0.473211	0.499962
C55	C	0.973965	-0.098669	-0.000037
C56	C	1.473965	0.401331	0.499963
C57	C	1.018420	-0.242441	-0.000026
C58	C	1.518420	0.257559	0.499974
C59	C	0.967966	-0.241604	-0.000023
C60	C	1.467966	0.258396	0.499977
C61	C	0.945738	-0.169717	-0.000025
C62	C	1.445738	0.330283	0.499975
C63	C	0.895299	-0.168888	-0.000047
C64	C	1.395299	0.331112	0.499953
N65	N	0.873067	-0.097007	-0.000040
N66	N	1.373067	0.402993	0.499960
C67	C	0.901286	-0.025957	-0.000036
C68	C	1.401286	0.474043	0.499964
C69	C	1.354394	-0.176454	-0.000037
C70	C	1.854394	0.323546	0.499963
C71	C	1.404844	-0.177285	-0.000040
C72	C	1.904844	0.322715	0.499960
C73	C	1.410831	-0.034348	-0.000030
C74	C	1.910831	0.465652	0.499970
C75	C	1.360380	-0.033517	-0.000033
C76	C	1.860380	0.466483	0.499967
C77	C	1.332162	-0.104572	-0.000031
C78	C	1.832162	0.395428	0.499969
C79	C	0.795342	-0.024218	-0.000047
C80	C	1.295342	0.475782	0.499953
C81	C	0.744889	-0.023393	-0.000056
C82	C	1.244889	0.476607	0.499944
C83	C	0.738907	-0.166330	-0.000062
C84	C	1.238907	0.333670	0.499938
C85	C	0.789355	-0.167155	-0.000057
C86	C	1.289355	0.332845	0.499943
C87	C	0.817571	-0.096092	-0.000048
C88	C	1.317571	0.403908	0.499952
O89	O	0.866623	-0.229201	-0.000077
O90	O	1.366623	0.270799	0.499923
O91	O	0.877737	0.035249	-0.000020
O92	O	1.377737	0.535249	0.499980
C93	C	1.103079	-0.029281	-0.000023
C94	C	1.603079	0.470719	0.499977
C95	C	1.125308	-0.101162	-0.000022
C96	C	1.625308	0.398838	0.499978
C97	C	1.097090	-0.172211	-0.000026
C98	C	1.597090	0.327789	0.499974
C99	C	1.175759	-0.101993	-0.000024
C100	C	1.675759	0.398007	0.499976
C101	C	1.203978	-0.030944	-0.000020
C102	C	1.703978	0.469056	0.499980
C103	C	1.181746	0.040938	-0.000013
C104	C	1.681746	0.540938	0.499987
C105	C	1.131298	0.041769	-0.000018
C106	C	1.631298	0.541769	0.499982
C107	C	1.119322	-0.244093	-0.000033
C108	C	1.619322	0.255907	0.499967
C109	C	1.169770	-0.244918	-0.000028
C110	C	1.669770	0.255082	0.499972
C111	C	1.197988	-0.173868	-0.000024
C112	C	1.697988	0.326132	0.499976
C113	C	0.576875	-0.243670	-0.000053
C114	C	1.076875	0.256330	0.499947
C115	C	0.581189	-0.330661	-0.000058
C116	C	1.081189	0.169339	0.499942
N117	N	0.568906	-0.110692	0.216292
N118	N	1.068906	0.389308	0.716292
C119	C	0.610168	0.180728	-0.000039
C120	C	1.110168	0.680728	0.499961
C121	C	0.606112	0.262466	-0.000047
C122	C	1.106112	0.762466	0.499953
C123	C	0.560432	0.293457	-0.000047
C124	C	1.060432	0.793457	0.499953
C125	C	0.518806	0.242706	-0.000048
C126	C	1.018806	0.742706	0.499952
C127	C	0.522862	0.160970	-0.000046
C128	C	1.022862	0.660970	0.499954
C129	C	0.543619	0.536851	-0.000057
C130	C	1.043619	1.036851	0.499943
C131	C	0.539565	0.618594	-0.000057
C132	C	1.039565	1.118594	0.499943
C133	C	0.626872	0.638348	-0.000057
C134	C	1.126872	1.138348	0.499943
C135	C	0.630925	0.556610	-0.000051
C136	C	1.130925	1.056610	0.499949
C137	C	0.589299	0.505866	-0.000056
C138	C	1.089299	1.005866	0.499944
N139	N	0.556285	0.377006	-0.000052
N140	N	1.056285	0.877006	0.499948
N141	N	0.593446	0.422319	-0.000057
N142	N	1.093446	0.922319	0.499943
N143	N	0.580831	-0.089980	-0.216381
N144	N	1.080831	0.410020	0.283619
C145	C	0.598503	-0.059128	0.259987
C146	C	1.098503	0.440872	0.759987
C147	C	0.596102	-0.063315	0.347394
C148	C	1.096102	0.436685	0.847394
C149	C	0.564107	-0.119070	0.391104
C150	C	1.064107	0.380930	0.891104
C151	C	0.534507	-0.170636	0.347403
C152	C	1.034507	0.329364	0.847403
C153	C	0.536906	-0.166445	0.259998
C154	C	1.036906	0.333555	0.759998
C155	C	0.553629	-0.137355	0.652513
C156	C	1.053629	0.362645	1.152513
C157	C	0.551234	-0.141544	0.739924
C158	C	1.051234	0.358456	1.239924
C159	C	0.612829	-0.034222	0.739909
C160	C	1.112829	0.465778	1.239909
C161	C	0.615226	-0.030039	0.652503
C162	C	1.115226	0.469961	1.152503
C163	C	0.585625	-0.081602	0.608809
C164	C	1.085625	0.418398	1.108809
N165	N	0.561654	-0.123353	0.480448
N166	N	1.061654	0.376647	0.980448
N167	N	0.588076	-0.077315	0.519467
N168	N	1.088076	0.422685	1.019467
H169	H	0.726794	0.035148	-0.000060
H170	H	1.226794	0.535148	0.499940
O171	O	1.428814	-0.254822	-0.000037
O172	O	1.928814	0.245178	0.499963
H173	H	1.419251	-0.286231	-0.056628
H174	H	1.919251	0.213769	0.443372
O175	O	0.680197	0.523194	-0.000069
O176	O	1.180197	1.023194	0.499931
H177	H	0.698795	0.540920	0.056519
H178	H	1.198795	1.040920	0.556519
H179	H	0.509724	0.495545	-0.000061
H180	H	1.009724	0.995545	0.499939
H181	H	1.331423	-0.234319	-0.000036
H182	H	1.831423	0.265681	0.499964
O183	O	0.490291	0.652013	-0.000058
O184	O	0.990291	1.152013	0.499942
H185	H	0.484792	0.686064	0.056546
H186	H	0.984792	1.186064	0.556546
O187	O	0.825768	0.052430	-0.000041
O188	O	1.325768	0.552430	0.499959
H189	H	0.847330	0.052775	0.056561
H190	H	1.347330	0.552775	0.556561
O191	O	1.193737	-0.322463	-0.000022
O192	O	1.693737	0.177537	0.499978
H193	H	1.218141	-0.323571	-0.056616
H194	H	1.718141	0.176429	0.443384
O195	O	0.649741	0.030098	0.605372
O196	O	1.149741	0.530098	1.105372
H197	H	0.675591	-0.000729	0.565546
H198	H	1.175591	0.499271	1.065546
O199	O	1.088888	-0.320728	-0.000041
O200	O	1.588888	0.179272	0.499959
H201	H	1.112828	-0.370845	-0.000050
H202	H	1.612828	0.129155	0.499950
H203	H	0.525179	-0.186949	0.775509
H204	H	1.025179	0.313051	1.275509
H205	H	0.508454	-0.216030	0.382997
H206	H	1.008454	0.283970	0.882997
H207	H	0.660762	0.679672	-0.000055
H208	H	1.160762	1.179672	0.499945
H209	H	0.481612	0.267945	-0.000053
H210	H	0.981612	0.767945	0.499947
H211	H	0.636928	0.007759	0.775493
H212	H	1.136928	0.507759	1.275493
H213	H	0.647365	0.155502	-0.000034
H214	H	1.147365	0.655502	0.499966
O215	O	0.708466	-0.242961	-0.000066
O216	O	1.208466	0.257039	0.499934
H217	H	0.715154	-0.280096	0.056530
H218	H	1.215154	0.219904	0.556530
H219	H	0.640006	0.303780	-0.000046
H220	H	1.140006	0.803780	0.499954
H221	H	0.512805	-0.208432	0.224422
H222	H	1.012805	0.291568	0.724422
H223	H	1.433816	0.023503	-0.000029
H224	H	1.933816	0.523503	0.499971
O225	O	0.633002	0.001021	0.212841
O226	O	1.133002	0.501021	0.712841
H227	H	0.658854	-0.029784	0.172997
H228	H	1.158854	0.470216	0.672997
H229	H	0.488968	0.119653	-0.000045
H230	H	0.988968	0.619653	0.499955
O231	O	0.955981	0.121794	-0.000015
O232	O	1.455981	0.621794	0.499985
H233	H	0.984085	0.171052	0.000002
H234	H	1.484085	0.671052	0.500002
H235	H	0.620202	-0.021328	0.382970
H236	H	1.120202	0.478672	0.882970
H237	H	1.053373	0.101291	-0.000023
H238	H	1.553373	0.601291	0.499977
H239	H	0.529527	-0.179341	0.616945
H240	H	1.029527	0.320659	1.116945
O241	O	1.336407	0.044017	-0.000019
O242	O	1.836407	0.544017	0.499981
H243	H	1.349090	0.080840	-0.056609
H244	H	1.849090	0.580840	0.443391
O245	O	1.042383	-0.319982	-0.000004
O246	O	1.542383	0.180018	0.499996
H247	H	1.032819	-0.351397	-0.056591
H248	H	1.532819	0.148603	0.443409
O249	O	0.937529	-0.318242	-0.000019
O250	O	1.437529	0.181758	0.499981
H251	H	0.947336	-0.349963	-0.056618
H252	H	1.447336	0.150037	0.443382
O253	O	0.813335	-0.244686	-0.000058
O254	O	1.313335	0.255314	0.499942
H255	H	0.785235	-0.293951	-0.000059
H256	H	1.285235	0.206049	0.499941
O257	O	1.107328	0.119305	-0.000004
O258	O	1.607328	0.619305	0.499996
H259	H	1.120014	0.156128	-0.056592
H260	H	1.620014	0.656128	0.443408
O261	O	1.212186	0.117573	0.000000
O262	O	1.712186	0.617573	0.500000
H263	H	1.251000	0.104908	0.000012
H264	H	1.751000	0.604908	0.500012
