data_functionalizedCrystal
_audit_creation_method	'MofGen! by Chris Wilmer'
_symmetry_space_group_name_H-M	'P1'
_symmetry_Int_Tables_number	1
_symmetry_cell_setting	triclinic
loop_
_symmetry_equiv_pos_as_xyz
  x,y,z
_cell_length_a	25.639243
_cell_length_b	25.639240
_cell_length_c	25.639233
_cell_angle_alpha	89.974071
_cell_angle_beta	89.984038
_cell_angle_gamma	90.035481
loop_
_atom_site_label
_atom_site_type_symbol
_atom_site_fract_x
_atom_site_fract_y
_atom_site_fract_z
Zn1	Zn	0.799247	-0.208176	-0.295630
Zn2	Zn	0.799179	-0.295595	-0.208183
Zn3	Zn	0.711823	-0.208180	-0.208203
Zn4	Zn	0.711777	-0.295587	-0.295582
O5	O	0.755506	-0.251885	-0.251900
O6	O	0.872403	-0.219775	-0.284041
O7	O	0.787582	-0.284004	-0.135020
O8	O	0.723467	-0.135014	-0.219829
O9	O	0.872353	-0.284001	-0.219794
O10	O	0.787697	-0.135012	-0.284061
O11	O	0.723402	-0.219781	-0.135035
O12	O	0.638652	-0.219772	-0.219783
O13	O	0.723389	-0.283987	-0.368754
O14	O	0.638618	-0.283990	-0.283980
O15	O	0.787653	-0.219767	-0.368789
O16	O	0.787538	-0.368759	-0.219749
O17	O	0.723324	-0.368753	-0.283960
C18	C	0.619664	-0.251881	-0.251879
C19	C	0.561550	-0.251892	-0.251882
C20	C	0.201207	-0.218495	-0.285409
C21	C	0.146603	-0.218494	-0.285412
O22	O	0.118383	-0.190088	-0.313891
N23	N	0.119267	-0.251883	-0.251914
C24	C	0.146539	-0.285271	-0.218407
O25	O	0.118274	-0.313670	-0.189914
C26	C	0.201142	-0.285268	-0.218401
C27	C	0.228475	-0.251881	-0.251905
C28	C	0.228540	-0.185109	-0.318909
C29	C	0.283140	-0.185111	-0.318907
C30	C	0.310408	-0.218497	-0.285403
C31	C	0.283076	-0.251882	-0.251903
C32	C	0.228413	-0.318653	-0.184892
C33	C	0.283020	-0.318647	-0.184889
C34	C	0.310353	-0.285260	-0.218393
C35	C	0.364944	-0.285270	-0.218396
N36	N	0.392279	-0.251881	-0.251894
C37	C	0.365011	-0.218494	-0.285398
C38	C	0.031869	-0.285273	-0.218420
C39	C	-0.022734	-0.285279	-0.218428
C40	C	-0.022667	-0.218501	-0.285432
C41	C	0.031937	-0.218498	-0.285427
C42	C	0.059204	-0.251884	-0.251918
C43	C	0.479676	-0.218500	-0.285390
C44	C	0.534282	-0.218506	-0.285386
C45	C	0.534210	-0.285281	-0.218380
C46	C	0.479609	-0.285278	-0.218385
C47	C	0.452344	-0.251883	-0.251892
O48	O	0.393198	-0.313659	-0.189930
O49	O	0.393283	-0.190095	-0.313881
C50	C	0.755433	-0.387727	-0.251859
C51	C	0.755449	-0.445841	-0.251859
C52	C	0.788967	-0.806164	-0.285405
C53	C	0.788983	-0.860769	-0.285416
O54	O	0.817394	-0.888972	-0.313897
N55	N	0.755579	-0.888124	-0.251950
C56	C	0.722154	-0.860871	-0.218475
O57	O	0.693742	-0.889153	-0.190011
C58	C	0.722136	-0.806268	-0.218467
C59	C	0.755546	-0.778916	-0.251932
C60	C	0.822374	-0.778812	-0.318867
C61	C	0.822359	-0.724212	-0.318856
C62	C	0.788938	-0.696963	-0.285383
C63	C	0.755531	-0.724315	-0.251920
C64	C	0.688708	-0.779017	-0.184996
C65	C	0.688693	-0.724410	-0.184991
C66	C	0.722103	-0.697058	-0.218455
C67	C	0.722095	-0.642466	-0.218435
N68	N	0.755499	-0.615112	-0.251901
C69	C	0.788920	-0.642360	-0.285375
C70	C	0.722193	-0.975542	-0.218494
C71	C	0.722213	-1.030144	-0.218499
C72	C	0.789041	-1.030038	-0.285441
C73	C	0.789024	-0.975435	-0.285433
C74	C	0.755597	-0.948187	-0.251960
C75	C	0.788887	-0.527695	-0.285348
C76	C	0.788870	-0.473090	-0.285332
C77	C	0.722040	-0.473201	-0.218392
C78	C	0.722058	-0.527801	-0.218406
C79	C	0.755483	-0.555047	-0.251888
O80	O	0.693697	-0.614229	-0.189971
O81	O	0.817322	-0.614072	-0.313839
C82	C	0.891879	-0.251888	-0.251921
C83	C	0.949993	-0.251890	-0.251930
C84	C	0.755523	-0.251875	-0.388273
C85	C	0.755530	-0.251871	-0.446387
C86	C	0.755595	-0.115511	-0.251952
C87	C	0.755633	-0.057397	-0.251975
C88	C	0.789035	-0.218333	-0.806774
C89	C	0.789041	-0.218318	-0.861378
O90	O	0.817486	-0.189864	-0.889635
N91	N	0.755588	-0.251749	-0.888669
C92	C	0.722122	-0.285192	-0.861354
O93	O	0.693668	-0.313626	-0.889581
C94	C	0.722114	-0.285204	-0.806750
C95	C	0.755573	-0.251775	-0.779462
C96	C	0.822491	-0.184906	-0.779485
C97	C	0.822485	-0.184921	-0.724884
C98	C	0.789023	-0.218363	-0.697572
C99	C	0.755567	-0.251790	-0.724861
C100	C	0.688646	-0.318644	-0.779436
C101	C	0.688640	-0.318653	-0.724828
C102	C	0.722099	-0.285223	-0.697540
C103	C	0.722099	-0.285247	-0.642949
N104	N	0.755552	-0.251817	-0.615657
C105	C	0.789014	-0.218375	-0.642969
C106	C	0.722143	-0.285165	-0.976024
C107	C	0.722154	-0.285157	-1.030627
C108	C	0.789072	-0.218282	-1.030647
C109	C	0.789063	-0.218293	-0.976044
C110	C	0.755596	-0.251735	-0.948733
C111	C	0.789000	-0.218410	-0.528304
C112	C	0.788992	-0.218429	-0.473699
C113	C	0.722072	-0.285302	-0.473683
C114	C	0.722081	-0.285285	-0.528283
C115	C	0.755547	-0.251834	-0.555593
O116	O	0.693668	-0.313686	-0.614657
O117	O	0.817459	-0.189941	-0.614735
C118	C	0.755520	-0.251856	-0.116057
C119	C	0.755614	-0.251713	-0.057943
H120	H	-0.044878	-0.191315	-0.312711
N121	N	0.856668	-0.150737	-0.807378
N122	N	0.853232	-0.102493	-0.801286
H123	H	0.877374	-0.078360	-0.820982
H124	H	0.694857	-0.550072	-0.191153
H125	H	0.816308	-0.191071	-0.953829
N126	N	0.654556	-0.696578	-0.150790
N127	N	0.672964	-0.666116	-0.117481
H128	H	0.648856	-0.646461	-0.093325
N129	N	0.200495	-0.352745	-0.150662
N130	N	0.151742	-0.352744	-0.150657
H131	H	0.132025	-0.376821	-0.126478
N132	N	0.856521	-0.806648	-0.353053
N133	N	0.856544	-0.855401	-0.353059
H134	H	0.880665	-0.875058	-0.377201
N135	N	0.687892	-0.319418	-0.556161
N136	N	0.639651	-0.315931	-0.550049
H137	H	0.615497	-0.340030	-0.569738
N138	N	0.823184	-0.184235	-0.556186
N139	N	0.853049	-0.154394	-0.531806
H140	H	0.877193	-0.130259	-0.551497
N141	N	0.654462	-0.352797	-0.807288
N142	N	0.606219	-0.349329	-0.801172
H143	H	0.582074	-0.373453	-0.820840
N144	N	0.562192	-0.184399	-0.319616
N145	N	0.537835	-0.154592	-0.349526
H146	H	0.557545	-0.130504	-0.373701
H147	H	0.556421	-0.312465	-0.191103
H148	H	0.694830	-0.312531	-0.451436
N149	N	0.451839	-0.184390	-0.319623
N150	N	0.476258	-0.154590	-0.349533
H151	H	0.456599	-0.130503	-0.373715
H152	H	0.694830	-0.451006	-0.191137
N153	N	0.823181	-1.057885	-0.319629
N154	N	0.823187	-1.106638	-0.319627
H155	H	0.847297	-1.126307	-0.343770
N156	N	0.654577	-0.806955	-0.150822
N157	N	0.654585	-0.855707	-0.150830
H158	H	0.630476	-0.875439	-0.126695
H159	H	0.816241	-0.191207	-0.451483
H160	H	0.305389	-0.157922	-0.346188
H161	H	0.206344	-0.157919	-0.346192
N162	N	0.823251	-0.184124	-1.058560
N163	N	0.823248	-0.184121	-1.107312
H164	H	0.847385	-0.159998	-1.127027
H165	H	0.054187	-0.191310	-0.312708
H166	H	0.457354	-0.312470	-0.191110
N167	N	0.310864	-0.352751	-0.150653
N168	N	0.286449	-0.382554	-0.120743
H169	H	0.306112	-0.406639	-0.096563
N170	N	-0.050642	-0.319395	-0.184210
N171	N	-0.026282	-0.349202	-0.154302
H172	H	-0.045990	-0.373296	-0.130132
H173	H	0.849730	-0.157699	-0.702671
H174	H	0.054066	-0.312464	-0.191135
N175	N	0.687979	-0.319300	-1.058506
N176	N	0.687983	-0.319286	-1.107258
H177	H	0.663843	-0.343399	-1.126947
N178	N	0.687952	-0.319325	-0.948130
N179	N	0.639710	-0.315854	-0.954227
H180	H	0.615561	-0.339978	-0.934529
H181	H	0.695013	-1.052410	-0.191243
N182	N	0.823005	-0.445159	-0.319517
N183	N	0.852843	-0.469499	-0.349401
H184	H	0.876950	-0.449775	-0.373545
N185	N	0.823031	-0.555513	-0.319553
N186	N	0.852854	-0.531076	-0.349424
H187	H	0.876971	-0.550721	-0.373580
N188	N	0.856490	-0.696285	-0.353044
N189	N	0.886324	-0.720629	-0.382926
H190	H	0.910430	-0.700909	-0.407074
H191	H	0.816228	-0.953168	-0.312683
N192	N	0.688044	-0.947720	-0.184295
N193	N	0.658223	-0.972155	-0.154420
H194	H	0.634105	-0.952508	-0.130267
H195	H	0.661380	-0.345880	-0.702595
