data_functionalizedCrystal
_audit_creation_method	'MofGen! by Chris Wilmer'
_symmetry_space_group_name_H-M	'P1'
_symmetry_Int_Tables_number	1
_symmetry_cell_setting	triclinic
loop_
_symmetry_equiv_pos_as_xyz
  x,y,z
_cell_length_a	6.817900
_cell_length_b	17.078472
_cell_length_c	9.514088
_cell_angle_alpha	93.258389
_cell_angle_beta	118.843545
_cell_angle_gamma	99.306020
loop_
_atom_site_label
_atom_site_type_symbol
_atom_site_fract_x
_atom_site_fract_y
_atom_site_fract_z
V1	V	-4.196319	-0.111173	-0.500580
O2	O	-4.202103	0.003895	-0.491217
O3	O	-4.125999	-0.219046	-0.496996
O4	O	-4.231301	-0.110098	-0.718973
O5	O	-4.096072	-0.105807	-0.267704
V6	V	-4.671982	-0.097335	-0.472745
O7	O	-4.474817	-0.141529	-0.561637
O8	O	-4.843681	-0.066979	-0.411688
O9	O	-4.519095	0.010538	-0.476328
O10	O	-4.783595	-0.212403	-0.482108
O11	O	-4.889626	-0.102701	-0.705621
O12	O	-4.413793	-0.098410	-0.254352
C13	C	-3.962969	-0.245323	-0.489058
C14	C	-3.987317	-0.333515	-0.487584
C15	C	-4.097291	-0.106349	-0.772209
C16	C	-4.207031	-0.106183	-0.950745
C17	C	-4.183141	-0.379010	-0.494897
C18	C	-4.206013	-0.461876	-0.493521
C19	C	-4.033051	-0.499244	-0.484822
C20	C	-3.837215	-0.453742	-0.477514
C21	C	-3.814353	-0.370879	-0.478901
C22	C	-4.081660	-0.746634	-0.479826
C23	C	-4.104535	-0.829503	-0.478434
C24	C	-4.473334	-0.837631	-0.494445
C25	C	-4.450449	-0.754765	-0.495821
C26	C	-4.254621	-0.709272	-0.488522
N27	N	-4.056422	-0.583945	-0.483411
N28	N	-4.231260	-0.624573	-0.489945
C29	C	-4.345465	0.036811	-0.484262
C30	C	-4.300359	0.125002	-0.485746
C31	C	-4.211142	-0.102162	-0.201108
C32	C	-4.080640	-0.102323	-0.022570
H33	H	-4.323980	-0.348591	-0.501965
C34	C	-3.824500	-0.098237	-0.922320
C35	C	-3.787847	-0.166732	-0.847085
C36	C	-3.551917	-0.162999	-0.754707
H37	H	-3.759685	-0.095836	-0.991156
H38	H	-3.754137	-0.051644	-0.841826
H39	H	-3.858181	-0.213312	-0.927569
H40	H	-3.852608	-0.169146	-0.778222
H41	H	-3.481554	-0.116407	-0.674213
H42	H	-3.487123	-0.160596	-0.823554
H43	H	-3.527016	-0.209467	-0.703637
H44	H	-4.399211	-0.109364	-1.025848
H45	H	-3.922202	-0.709602	-0.473872
H46	H	-4.365472	-0.498916	-0.499479
H47	H	-4.591304	-0.724348	-0.502917
H48	H	-4.632771	-0.874681	-0.500388
C49	C	-3.916607	-0.870095	-0.468666
C50	C	-3.830170	-0.906325	-0.328579
C51	C	-3.657042	-0.943719	-0.319513
H52	H	-3.977783	-0.909819	-0.561748
H53	H	-3.796591	-0.831153	-0.464429
H54	H	-3.950164	-0.945263	-0.332829
H55	H	-3.768950	-0.866619	-0.235473
H56	H	-3.537027	-0.904777	-0.315276
H57	H	-3.718237	-0.983439	-0.412602
H58	H	-3.598359	-0.968299	-0.224458
H59	H	-3.654898	-0.333837	-0.472953
C60	C	-3.649283	-0.494328	-0.467736
C61	C	-3.562848	-0.530558	-0.327650
C62	C	-3.389696	-0.567941	-0.318571
H63	H	-3.710439	-0.534050	-0.560817
H64	H	-3.529273	-0.455380	-0.463491
H65	H	-3.682836	-0.569502	-0.331908
H66	H	-3.501648	-0.490853	-0.234543
H67	H	-3.269685	-0.528994	-0.314326
H68	H	-3.450870	-0.607660	-0.411659
H69	H	-3.331013	-0.592522	-0.223516
