data_functionalizedCrystal
_audit_creation_method	'MofGen! by Chris Wilmer'
_symmetry_space_group_name_H-M	'P1'
_symmetry_Int_Tables_number	1
_symmetry_cell_setting	triclinic
loop_
_symmetry_equiv_pos_as_xyz
  x,y,z
_cell_length_a	23.532407
_cell_length_b	12.837943
_cell_length_c	11.892110
_cell_angle_alpha	94.311069
_cell_angle_beta	93.860410
_cell_angle_gamma	91.161191
loop_
_atom_site_label
_atom_site_type_symbol
_atom_site_fract_x
_atom_site_fract_y
_atom_site_fract_z
O1	O	0.144688	-1.380593	-0.094007
O2	O	0.137378	-1.078863	-0.094012
O3	O	0.058624	-1.238825	-0.093989
O4	O	0.223442	-1.220631	-0.094030
O5	O	0.065180	-1.225486	0.094017
O6	O	0.143934	-1.065524	0.093993
O7	O	0.151244	-1.367254	0.093999
Zn8	Zn	0.148630	-1.214271	0.123846
Zn9	Zn	0.139992	-1.231846	-0.123859
O10	O	0.229998	-1.207292	0.093975
C11	C	0.138187	-1.033599	-0.000010
C12	C	0.130823	-0.918597	-0.000011
C13	C	0.040660	-1.231692	0.000017
C14	C	-0.022637	-1.230298	0.000026
C15	C	0.150435	-1.412519	-0.000006
C16	C	0.157799	-1.527521	-0.000012
C17	C	-0.416812	-1.316227	-0.000035
C18	C	-0.476287	-1.314934	-0.000043
O19	O	-0.508463	-1.394590	-0.000084
N20	N	-0.504370	-1.219835	-0.000044
C21	C	-0.472975	-1.126025	-0.000048
O22	O	-0.502322	-1.045018	-0.000051
C23	C	-0.413501	-1.127321	-0.000047
C24	C	-0.385421	-1.222424	-0.000035
C25	C	-0.388732	-1.411324	-0.000024
C26	C	-0.329261	-1.412617	-0.000013
C27	C	-0.297871	-1.318813	-0.000013
C28	C	-0.325951	-1.223717	-0.000024
C29	C	-0.382108	-1.033512	-0.000059
C30	C	-0.322631	-1.034816	-0.000060
C31	C	-0.294551	-1.129920	-0.000047
C32	C	-0.235089	-1.131207	-0.000014
N33	N	-0.207006	-1.226306	-0.000013
C34	C	-0.238397	-1.320109	-0.000013
C35	C	-0.597873	-1.123312	-0.000051
C36	C	-0.657345	-1.122015	-0.000043
C37	C	-0.660653	-1.310925	-0.000041
C38	C	-0.601180	-1.312220	-0.000040
C39	C	-0.569790	-1.218411	-0.000050
C40	C	-0.113504	-1.322817	0.000011
C41	C	-0.054028	-1.324101	0.000026
C42	C	-0.050725	-1.135193	0.000018
C43	C	-0.110196	-1.133908	0.000008
C44	C	-0.141584	-1.227729	0.000001
O45	O	-0.202877	-1.051594	0.000022
O46	O	-0.209042	-1.401104	-0.000025
C47	C	0.247962	-1.214425	-0.000033
C48	C	0.311259	-1.215820	-0.000049
N49	N	0.154525	-1.202285	0.292898
C50	C	0.219356	-0.676728	-0.000017
C51	C	0.212439	-0.568673	-0.000017
C52	C	0.110073	-0.594431	-0.000004
C53	C	0.116990	-0.702485	-0.000003
C54	C	0.171633	-0.743630	-0.000012
C55	C	0.178549	-0.851687	-0.000020
C56	C	0.076184	-0.877442	0.000002
C57	C	0.069267	-0.769387	0.000002
C58	C	0.093048	-1.327232	0.529565
C59	C	0.097173	-1.318861	0.647905
C60	C	0.166897	-1.177168	0.647922
C61	C	0.162772	-1.185539	0.529582
C62	C	0.125847	-1.260574	0.470407
C63	C	0.121725	-1.268950	0.352064
C64	C	0.191446	-1.127252	0.352084
C65	C	0.195571	-1.118881	0.470424
N66	N	0.134097	-1.243832	0.707088
H67	H	-0.139054	-1.399215	0.000000
H68	H	0.263848	-0.710228	-0.000026
H69	H	0.225633	-1.057786	0.518618
N70	N	0.224950	-1.059140	0.291672
N71	N	0.257913	-0.992150	0.344526
H72	H	0.281577	-0.944047	0.301861
N73	N	0.261188	-0.500334	-0.000002
N74	N	0.298989	-0.498159	0.079248
H75	H	0.333420	-0.449893	0.079264
N76	N	0.013449	-0.727373	-0.000003
N77	N	-0.029157	-0.787123	-0.000006
H78	H	-0.068580	-0.757454	-0.000013
N79	N	-0.290558	-0.939000	-0.000078
N80	N	-0.259758	-0.924275	-0.079325
H81	H	-0.237106	-0.856607	-0.079337
H82	H	-0.306404	-1.490060	-0.000007
N83	N	-0.420783	-1.507160	-0.000031
N84	N	-0.395692	-1.592052	-0.000025
H85	H	-0.418324	-1.659743	-0.000024
H86	H	0.065588	-0.560905	0.000097
H87	H	0.037324	-0.931927	-0.000001
H88	H	0.091660	-1.330050	0.303885
H89	H	-0.031168	-1.401549	0.000039
N90	N	0.234358	-0.893736	-0.000035
N91	N	0.246879	-0.956780	-0.079284
H92	H	0.286296	-0.986476	-0.079292
N93	N	-0.572490	-1.409355	-0.000025
N94	N	-0.536914	-1.425532	0.079223
H95	H	-0.516653	-1.494138	0.079234
N96	N	-0.692727	-1.406746	-0.000074
N97	N	-0.689955	-1.475750	-0.079329
H98	H	-0.712609	-1.543420	-0.079355
N99	N	-0.686014	-1.024858	-0.000030
N100	N	-0.657973	-0.941117	-0.000023
H101	H	-0.678218	-0.872496	-0.000017
N102	N	0.063660	-1.386938	0.708328
N103	N	0.010512	-1.386985	0.695115
H104	H	-0.013161	-1.435065	0.737787
H105	H	0.062986	-1.388336	0.481384
H106	H	0.196956	-1.116069	0.696118
H107	H	-0.404960	-0.956069	-0.000076
N108	N	-0.565820	-1.027472	-0.000057
N109	N	-0.590907	-0.942576	-0.000060
H110	H	-0.568273	-0.874888	-0.000067
H111	H	-0.133059	-1.056465	0.000030
H112	H	-0.025156	-1.058821	0.000021
