data_functionalizedCrystal
_audit_creation_method	'MofGen! by Chris Wilmer'
_symmetry_space_group_name_H-M	'P1'
_symmetry_Int_Tables_number	1
_symmetry_cell_setting	triclinic
loop_
_symmetry_equiv_pos_as_xyz
  x,y,z
_cell_length_a	25.639239
_cell_length_b	19.805407
_cell_length_c	19.805399
_cell_angle_alpha	90.021064
_cell_angle_beta	89.971274
_cell_angle_gamma	89.962329
loop_
_atom_site_label
_atom_site_type_symbol
_atom_site_fract_x
_atom_site_fract_y
_atom_site_fract_z
Zn1	Zn	-0.208177	-1.034678	-0.382741
Zn2	Zn	-0.295611	-1.034569	-0.269551
Zn3	Zn	-0.208190	-0.921493	-0.269563
Zn4	Zn	-0.295582	-0.921432	-0.382694
O5	O	-0.251890	-0.978043	-0.326137
O6	O	-0.219782	-1.129380	-0.367741
O7	O	-0.284032	-1.019548	-0.174836
O8	O	-0.135023	-0.936578	-0.284601
O9	O	-0.284020	-1.129300	-0.284580
O10	O	-0.135014	-1.019735	-0.367752
O11	O	-0.219804	-0.936472	-0.174845
O12	O	-0.219776	-0.826768	-0.284555
O13	O	-0.283970	-0.936475	-0.477417
O14	O	-0.283982	-0.826723	-0.367673
O15	O	-0.219754	-1.019676	-0.477452
O16	O	-0.368772	-1.019489	-0.284535
O17	O	-0.368751	-0.936368	-0.367661
C18	C	-0.251878	-0.802187	-0.326111
C19	C	-0.251885	-0.726955	-0.326116
C20	C	-0.285367	-0.691605	-0.369324
C21	C	-0.285367	-0.620917	-0.369331
C22	C	-0.251887	-0.585579	-0.326127
C23	C	-0.218401	-0.620934	-0.282917
C24	C	-0.218399	-0.691621	-0.282913
C25	C	-0.218409	-0.335860	-0.282932
C26	C	-0.218415	-0.265168	-0.282938
C27	C	-0.285377	-0.265156	-0.369350
C28	C	-0.285375	-0.335843	-0.369346
C29	C	-0.251887	-0.371192	-0.326139
C30	C	-0.251887	-0.447840	-0.326132
C31	C	-0.251889	-0.508932	-0.326130
C32	C	-0.387733	-0.977929	-0.326106
C33	C	-0.445847	-0.977942	-0.326116
C34	C	-0.806208	-1.021437	-0.282927
C35	C	-0.860813	-1.021463	-0.282936
O36	O	-0.889048	-1.058326	-0.246182
N37	N	-0.888129	-0.978162	-0.326182
C38	C	-0.860838	-0.934836	-0.369427
O39	O	-0.889087	-0.898008	-0.406212
C40	C	-0.806235	-0.934814	-0.369420
C41	C	-0.778921	-0.978113	-0.326167
C42	C	-0.778895	-1.064733	-0.239678
C43	C	-0.724294	-1.064706	-0.239668
C44	C	-0.697007	-1.021382	-0.282908
C45	C	-0.724321	-0.978086	-0.326157
C46	C	-0.778945	-0.891492	-0.412668
C47	C	-0.724338	-0.891474	-0.412658
C48	C	-0.697025	-0.934773	-0.369405
C49	C	-0.642433	-0.934735	-0.369387
N50	N	-0.615117	-0.978036	-0.326141
C51	C	-0.642404	-1.021360	-0.282901
C52	C	-0.975509	-0.934887	-0.369437
C53	C	-1.030111	-0.934906	-0.369440
C54	C	-1.030082	-1.021533	-0.282951
C55	C	-0.975478	-1.021511	-0.282944
C56	C	-0.948192	-0.978188	-0.326191
C57	C	-0.527739	-1.021299	-0.282884
C58	C	-0.473133	-1.021266	-0.282876
C59	C	-0.473168	-0.934641	-0.369368
C60	C	-0.527768	-0.934671	-0.369373
C61	C	-0.555053	-0.978006	-0.326129
O62	O	-0.614163	-0.897893	-0.406125
O63	O	-0.614148	-1.058188	-0.246129
C64	C	-0.115517	-0.978175	-0.326183
C65	C	-0.057403	-0.978232	-0.326203
C66	C	-0.251857	-0.978081	-0.502680
C67	C	-0.251843	-0.978097	-0.577912
C68	C	-0.251899	-0.154585	-0.326158
C69	C	-0.251895	-0.229817	-0.326150
C70	C	-0.218404	-1.021421	-0.613275
C71	C	-0.218389	-1.021428	-0.683964
C72	C	-0.251816	-0.978114	-0.719288
C73	C	-0.285256	-0.934785	-0.683920
C74	C	-0.285268	-0.934775	-0.613232
C75	C	-0.285207	-0.934823	-0.968993
C76	C	-0.285194	-0.934838	-1.039685
C77	C	-0.218328	-1.021476	-1.039724
C78	C	-0.218340	-1.021466	-0.969037
C79	C	-0.251778	-0.978135	-0.933675
C80	C	-0.251794	-0.978127	-0.857027
C81	C	-0.251803	-0.978125	-0.795935
C82	C	-0.251885	-0.978044	-0.150281
C83	C	-0.251752	-0.978159	-0.075050
H84	H	-0.312642	-0.236367	-0.404534
N85	N	-0.319403	-0.890537	-0.719993
N86	N	-0.367650	-0.894966	-0.712081
H87	H	-0.391767	-0.863711	-0.737554
H88	H	-0.550008	-0.899415	-0.404596
N89	N	-0.184188	-1.065709	-0.932967
N90	N	-0.135941	-1.061265	-0.940881
H91	H	-0.111818	-1.092512	-0.915408
N92	N	-0.555596	-1.065566	-0.238706
N93	N	-0.531193	-1.104215	-0.200095
H94	H	-0.550866	-1.135476	-0.168890
H95	H	-0.312492	-0.899489	-0.584441
N96	N	-0.184202	-0.229071	-0.238817
N97	N	-0.150914	-0.189664	-0.262721
H98	H	-0.126752	-0.164170	-0.231563
N99	N	-0.184251	-1.065656	-0.577196
N100	N	-0.150938	-1.041865	-0.537761
H101	H	-0.126814	-1.073105	-0.512281
H102	H	-0.702058	-1.099966	-0.204449
N103	N	-0.184232	-1.065676	-0.720094
N104	N	-0.150904	-1.041902	-0.759542
H105	H	-0.126778	-1.073153	-0.785060
N106	N	-0.184174	-1.065734	-1.075857
N107	N	-0.184165	-1.065740	-1.138970
H108	H	-0.160045	-1.096999	-1.164489
H109	H	-0.312415	-0.899563	-1.068444
N110	N	-0.319574	-0.727688	-0.413455
N111	N	-0.349467	-0.696113	-0.452031
H112	H	-0.373627	-0.721595	-0.483201
H113	H	-0.312639	-0.364612	-0.404526
H114	H	-0.191145	-0.364633	-0.247745
H115	H	-0.702125	-0.856196	-0.447877
N116	N	-0.445297	-0.890392	-0.413546
N117	N	-0.469686	-0.851738	-0.452167
H118	H	-0.450002	-0.820490	-0.483373
N119	N	-0.319568	-0.584819	-0.413476
N120	N	-0.349459	-0.616378	-0.452047
H121	H	-0.373615	-0.590884	-0.483228
N122	N	-0.184201	-0.584829	-0.238793
N123	N	-0.184207	-0.521717	-0.238802
H124	H	-0.160053	-0.496218	-0.207638
N125	N	-0.184189	-0.727722	-0.238779
N126	N	-0.154296	-0.696164	-0.200209
H127	H	-0.130132	-0.721659	-0.169041
N128	N	-0.319366	-0.890560	-0.932888
N129	N	-0.349209	-0.851893	-0.964438
H130	H	-0.373335	-0.820629	-0.938938
N131	N	-0.445237	-1.065488	-0.238680
N132	N	-0.451376	-1.061034	-0.176222
H133	H	-0.431676	-1.092265	-0.145007
N134	N	-0.806754	-1.108999	-0.195504
N135	N	-0.782350	-1.147651	-0.156898
H136	H	-0.802021	-1.178914	-0.125695
H137	H	-1.052309	-1.056812	-0.247745
H138	H	-0.953243	-1.056769	-0.247724
N139	N	-1.058000	-0.890661	-0.413616
N140	N	-1.033623	-0.851982	-0.452215
H141	H	-1.053318	-0.820734	-0.483418
H142	H	-0.953295	-0.899603	-0.404652
N143	N	-0.806838	-0.847275	-0.456863
N144	N	-0.837263	-0.871079	-0.500025
H145	H	-0.856963	-0.839850	-0.531241
