data_functionalizedCrystal
_audit_creation_method	'MofGen! by Chris Wilmer'
_symmetry_space_group_name_H-M	'P1'
_symmetry_Int_Tables_number	1
_symmetry_cell_setting	triclinic
loop_
_symmetry_equiv_pos_as_xyz
  x,y,z
_cell_length_a	16.959455
_cell_length_b	12.827893
_cell_length_c	12.827885
_cell_angle_alpha	89.974949
_cell_angle_beta	89.979870
_cell_angle_gamma	90.000457
loop_
_atom_site_label
_atom_site_type_symbol
_atom_site_fract_x
_atom_site_fract_y
_atom_site_fract_z
Zn1	Zn	1.208520	-0.416067	-0.590907
Zn2	Zn	1.208467	-0.590845	-0.416182
Zn3	Zn	1.076335	-0.416109	-0.416178
Zn4	Zn	1.076351	-0.590758	-0.590879
O5	O	1.142419	-0.503445	-0.503536
O6	O	1.319124	-0.439271	-0.567743
O7	O	1.190911	-0.567720	-0.269945
O8	O	1.093885	-0.269868	-0.439366
O9	O	1.319085	-0.567679	-0.439373
O10	O	1.191001	-0.269837	-0.567739
O11	O	1.093834	-0.439342	-0.269942
O12	O	0.965726	-0.439258	-0.439339
O13	O	1.093913	-0.567531	-0.737119
O14	O	0.965738	-0.567571	-0.567691
O15	O	1.191016	-0.439187	-0.737139
O16	O	1.190927	-0.737069	-0.439346
O17	O	1.093862	-0.737005	-0.567695
C18	C	0.937052	-0.503410	-0.503512
C19	C	0.849196	-0.503421	-0.503527
C20	C	1.142447	-0.230875	-0.503555
C21	C	1.142459	-0.114722	-0.503563
C22	C	1.142412	-0.774955	-0.503540
C23	C	1.142481	-0.891108	-0.503577
C24	C	0.477689	-0.436577	-0.436843
C25	C	0.477751	-0.570399	-0.570290
C26	C	0.560297	-0.570384	-0.570283
C27	C	0.601543	-0.503465	-0.503555
C28	C	0.560243	-0.436562	-0.436832
C29	C	0.601603	-0.637293	-0.636997
C30	C	0.684153	-0.637281	-0.636992
C31	C	0.725401	-0.570357	-0.570268
C32	C	0.684096	-0.503451	-0.503544
C33	C	0.725342	-0.436533	-0.436815
C34	C	0.684039	-0.369620	-0.370096
C35	C	0.601491	-0.369638	-0.370108
C36	C	0.807950	-0.570339	-0.570256
C37	C	0.807896	-0.436518	-0.436805
C38	C	1.348587	-0.503480	-0.503561
C39	C	1.436443	-0.503495	-0.503572
C40	C	1.142472	-0.503345	-0.776107
C41	C	1.142495	-0.503302	-0.892260
C42	C	1.094413	-0.062952	-0.440051
C43	C	1.094425	0.057098	-0.440058
C44	C	1.190550	-0.439780	-0.944055
C45	C	1.190575	-0.439735	-1.064105
C46	C	1.142410	-0.503469	-0.232027
C47	C	1.142541	-0.503218	-0.115874
H48	H	0.841473	-0.382018	-0.382472
F49	F	1.196233	-0.056491	-0.574651
F50	F	1.040662	0.115286	-0.368977
H51	H	1.231720	-0.385355	-1.108648
H52	H	1.231671	-0.385428	-0.899522
H53	H	1.183620	0.064378	-0.557952
H54	H	1.101367	-0.557644	-0.936793
F55	F	1.088765	-0.574311	-1.057664
H56	H	0.717632	-0.315140	-0.315761
H57	H	0.567854	-0.315163	-0.315787
H58	H	0.444057	-0.382096	-0.382524
H59	H	0.717776	-0.691765	-0.691320
H60	H	0.568014	-0.691781	-0.691316
F61	F	0.851904	-0.641553	-0.641252
F62	F	0.433852	-0.641632	-0.641284
H63	H	1.053269	-0.107507	-0.385674
