data_functionalizedCrystal
_audit_creation_method	'MofGen! by Chris Wilmer'
_symmetry_space_group_name_H-M	'P1'
_symmetry_Int_Tables_number	1
_symmetry_cell_setting	triclinic
loop_
_symmetry_equiv_pos_as_xyz
  x,y,z
_cell_length_a	16.974800
_cell_length_b	14.853559
_cell_length_c	15.455313
_cell_angle_alpha	92.670929
_cell_angle_beta	90.973911
_cell_angle_gamma	83.510332
loop_
_atom_site_label
_atom_site_type_symbol
_atom_site_fract_x
_atom_site_fract_y
_atom_site_fract_z
O1	O	1.049197	0.114925	0.001552
O2	O	0.819779	0.128693	-0.014560
O3	O	0.940620	-0.009414	-0.006073
O4	O	0.928357	0.253033	-0.006936
O5	O	0.933709	-0.001549	0.137704
O6	O	0.812869	0.136558	0.129217
O7	O	1.042287	0.122790	0.145328
Cu8	Cu	0.926947	0.130392	0.150400
Cu9	Cu	0.935119	0.121091	-0.019632
O10	O	0.921446	0.260898	0.136841
C11	C	0.786964	0.131958	0.055266
C12	C	0.699480	0.129958	0.049122
C13	C	0.654618	0.133303	0.124610
C14	C	0.572419	0.131409	0.118840
C15	C	0.535083	0.126176	0.037580
C16	C	0.579952	0.122828	-0.037913
C17	C	0.662150	0.124715	-0.032142
C18	C	0.289653	0.120065	0.011916
C19	C	0.207448	0.118180	0.006150
C20	C	0.199921	0.126760	0.162904
C21	C	0.282121	0.128652	0.168668
C22	C	0.326982	0.125299	0.093175
N23	N	0.451063	0.124243	0.031680
N24	N	0.411002	0.127226	0.099076
C25	C	0.936610	-0.039071	0.065775
C26	C	0.934949	-0.139157	0.065654
C27	C	0.931667	-0.566627	-0.013214
C28	C	0.924133	-0.558047	0.143537
C29	C	0.925701	-0.464012	0.143647
C30	C	0.930250	-0.421280	0.065326
C31	C	0.933232	-0.472583	-0.013106
C32	C	0.922711	-0.412701	0.222078
C33	C	0.924277	-0.318660	0.222192
C34	C	0.928833	-0.275927	0.143870
C35	C	0.931816	-0.327236	0.065434
C36	C	0.936366	-0.284504	-0.012887
C37	C	0.939354	-0.335813	-0.091323
C38	C	0.937788	-0.429851	-0.091428
C39	C	0.930399	-0.181889	0.143975
C40	C	0.937931	-0.190460	-0.012779
C41	C	1.075102	0.119526	0.075500
C42	C	1.162586	0.121526	0.081638
C43	C	0.925456	0.290555	0.064991
C44	C	0.927117	0.390641	0.065107
N45	N	0.921205	0.136934	0.269993
N46	N	0.940867	0.114543	-0.139224
C47	C	0.972560	0.078283	0.318994
C48	C	0.968225	0.083238	0.409497
C49	C	0.912537	0.146850	0.450998
C50	C	0.861177	0.205503	0.401990
C51	C	0.865509	0.200543	0.311488
C52	C	0.893839	0.168236	0.721266
C53	C	0.889512	0.173194	0.811775
C54	C	0.996560	0.050927	0.819276
C55	C	1.000890	0.045976	0.728772
C56	C	0.949526	0.104626	0.679772
N57	N	0.908106	0.151918	0.543507
N58	N	0.953954	0.099553	0.587264
H59	H	0.698676	0.121993	-0.093613
C60	C	0.941027	-0.485397	-0.176671
C61	C	0.945348	-0.427852	-0.245241
C62	C	0.948321	-0.478990	-0.323779
H63	H	0.894656	-0.515485	-0.183284
H64	H	0.986497	-0.529029	-0.176826
H65	H	0.899883	-0.384236	-0.245088
H66	H	0.991717	-0.397763	-0.238658
H67	H	0.993791	-0.522622	-0.323933
H68	H	0.901948	-0.509076	-0.330382
H69	H	0.951260	-0.439954	-0.370312
H70	H	1.038376	0.003175	0.859179
H71	H	0.844163	0.224998	0.845560
C72	C	0.800672	0.274429	0.447156
C73	C	0.749913	0.229098	0.495760
C74	C	0.694173	0.292565	0.537387
H75	H	0.770623	0.308681	0.405104
H76	H	0.827345	0.313974	0.484490
H77	H	0.723242	0.189569	0.458430
H78	H	0.779939	0.194850	0.537826
H79	H	0.720847	0.332110	0.574720
H80	H	0.664130	0.326813	0.495329
H81	H	0.659732	0.261817	0.570376
C82	C	0.809711	0.264334	0.258437
C83	C	0.760029	0.321122	0.314151
C84	C	0.708621	0.379905	0.265313
H85	H	0.778490	0.229967	0.220831
H86	H	0.839765	0.300070	0.225131
H87	H	0.729978	0.285390	0.347443
H88	H	0.791228	0.355509	0.351758
H89	H	0.738675	0.415641	0.232007
H90	H	0.677406	0.345530	0.227709
H91	H	0.674911	0.418448	0.303108
H92	H	1.017910	0.026487	0.285210
H93	H	0.535898	0.134118	0.180311
C94	C	0.539267	0.117194	-0.126060
C95	C	0.457676	0.116283	-0.114960
C96	C	0.420173	0.111108	-0.196143
H97	H	0.560147	0.063225	-0.156970
H98	H	0.548283	0.168285	-0.157746
H99	H	0.448666	0.065196	-0.083287
H100	H	0.436774	0.170247	-0.084065
H101	H	0.429189	0.162200	-0.227829
H102	H	0.441059	0.057139	-0.227046
H103	H	0.364809	0.110498	-0.188622
C104	C	0.921008	-0.262796	0.307254
C105	C	0.923337	-0.171292	0.290589
C106	C	0.920319	-0.119802	0.368926
H107	H	0.965107	-0.283097	0.342726
H108	H	0.873267	-0.269627	0.336222
H109	H	0.971072	-0.164466	0.261634
H110	H	0.879240	-0.150964	0.255130
H111	H	0.872578	-0.126632	0.397894
H112	H	0.964419	-0.140110	0.404392
H113	H	0.921891	-0.057710	0.357629
H114	H	0.927948	-0.140116	0.207835
H115	H	0.312514	0.132909	0.234839
C116	C	0.919150	-0.604265	0.228655
C117	C	0.916855	-0.539204	0.297363
C118	C	0.912256	-0.581748	0.375790
H119	H	0.964281	-0.647530	0.235216
H120	H	0.872443	-0.633983	0.228691
H121	H	0.963558	-0.509501	0.297328
H122	H	0.871727	-0.495936	0.290832
H123	H	0.865548	-0.611466	0.375826
H124	H	0.957387	-0.625012	0.382341
H125	H	0.910691	-0.537610	0.422417
H126	H	0.177052	0.113922	-0.060025
H127	H	0.852018	0.215993	0.681377
H128	H	0.685010	0.137571	0.190781
C129	C	1.024089	0.019522	0.462549
C130	C	1.073805	-0.037223	0.406835
C131	C	1.125290	-0.095920	0.455676
H132	H	0.994117	-0.016257	0.495886
H133	H	1.055274	0.053981	0.500128
H134	H	1.042624	-0.071679	0.369272
H135	H	1.103795	-0.001469	0.373498
H136	H	1.156475	-0.061461	0.493255
H137	H	1.095311	-0.131693	0.489011
H138	H	1.159033	-0.134423	0.417882
C139	C	1.061376	-0.023185	0.683875
C140	C	1.105410	-0.073507	0.746159
C141	C	1.161132	-0.137232	0.704832
H142	H	1.095976	0.007311	0.650865
H143	H	1.034699	-0.062788	0.646608
H144	H	1.132087	-0.033909	0.783410
H145	H	1.070832	-0.104023	0.779172
H146	H	1.134455	-0.176835	0.667565
H147	H	1.195727	-0.106728	0.671824
H148	H	1.191012	-0.171388	0.747085
H149	H	0.163386	0.129488	0.224367
H150	H	0.326170	0.117332	-0.049557
C151	C	0.944159	-0.289279	-0.176304
C152	C	0.877536	-0.225562	-0.185559
C153	C	0.881936	-0.182668	-0.263826
H154	H	0.945678	-0.333198	-0.223106
H155	H	0.990817	-0.259470	-0.176307
H156	H	0.830890	-0.255371	-0.185563
H157	H	0.876004	-0.181626	-0.138776
H158	H	0.928594	-0.152858	-0.263829
H159	H	0.883456	-0.226592	-0.310622
H160	H	0.836737	-0.139425	-0.270112
H161	H	0.941640	-0.155676	-0.076558
H162	H	0.934103	-0.608407	-0.077075
H163	H	0.919002	-0.447500	0.285842
