data_functionalizedCrystal
_audit_creation_method	'MofGen! by Chris Wilmer'
_symmetry_space_group_name_H-M	'P1'
_symmetry_Int_Tables_number	1
_symmetry_cell_setting	triclinic
loop_
_symmetry_equiv_pos_as_xyz
  x,y,z
_cell_length_a	15.944564
_cell_length_b	15.944551
_cell_length_c	17.666332
_cell_angle_alpha	90.006373
_cell_angle_beta	90.002819
_cell_angle_gamma	96.498664
loop_
_atom_site_label
_atom_site_type_symbol
_atom_site_fract_x
_atom_site_fract_y
_atom_site_fract_z
O1	O	-1.114513	0.108391	0.062861
O2	O	-0.614513	0.608391	0.562861
O3	O	-0.869965	0.121736	0.062879
O4	O	-0.369965	0.621736	0.562879
O5	O	-0.998917	-0.007211	0.062874
O6	O	-0.498917	0.492789	0.562874
O7	O	-0.985561	0.237338	0.062866
O8	O	-0.485561	0.737338	0.562866
O9	O	-0.998915	-0.007231	-0.063023
O10	O	-0.498915	0.492769	0.436977
O11	O	-0.869963	0.121716	-0.063018
O12	O	-0.369963	0.621716	0.436982
O13	O	-1.114511	0.108370	-0.063036
O14	O	-0.614511	0.608370	0.436964
Cu15	Cu	-0.992236	0.115041	-0.074522
Cu16	Cu	-0.492236	0.615041	0.425478
Cu17	Cu	-0.992239	0.115066	0.074365
Cu18	Cu	-0.492239	0.615066	0.574365
O19	O	-0.985559	0.237318	-0.063031
O20	O	-0.485559	0.737318	0.436969
C21	C	-0.838670	0.121170	-0.000067
C22	C	-0.338670	0.621170	0.499933
C23	C	-0.745425	0.119504	-0.000060
C24	C	-0.245425	0.619504	0.499940
C25	C	-0.998361	-0.038515	-0.000072
C26	C	-0.498361	0.461485	0.499928
C27	C	-0.996699	-0.131761	-0.000063
C28	C	-0.496699	0.368239	0.499937
C29	C	-0.530569	0.035589	-0.000072
C30	C	-0.030569	0.535589	0.499928
C31	C	-0.469551	0.074559	0.062001
C32	C	0.030449	0.574559	0.562001
C33	C	-0.574700	0.116488	-0.000069
C34	C	-0.074700	0.616488	0.499931
C35	C	-0.469570	0.074558	-0.062124
C36	C	0.030430	0.574558	0.437876
C37	C	-0.409788	0.113570	-0.000081
C38	C	0.090212	0.613570	0.499919
C39	C	-0.514909	0.155481	0.062055
C40	C	-0.014909	0.655481	0.562055
C41	C	-0.514936	0.155468	-0.062125
C42	C	-0.014936	0.655468	0.437875
C43	C	-0.453935	0.194497	-0.000037
C44	C	0.046065	0.694497	0.499963
C45	C	-0.669701	0.118167	-0.000061
C46	C	-0.169701	0.618167	0.499939
C47	C	-0.314787	0.111898	-0.000083
C48	C	0.185213	0.611898	0.499917
C49	C	-0.145807	0.108925	-0.000088
C50	C	0.354193	0.608925	0.499912
C51	C	-0.239057	0.110558	-0.000090
C52	C	0.260943	0.610558	0.499910
C53	C	-0.986114	0.268622	-0.000083
C54	C	-0.486114	0.768622	0.499917
C55	C	-0.987777	0.361868	-0.000087
C56	C	-0.487777	0.861868	0.499913
N57	N	-0.992241	0.115023	-0.179242
N58	N	-0.492241	0.615023	0.320758
C59	C	-1.071680	0.576729	-0.000081
C60	C	-0.571680	1.076729	0.499919
C61	C	-1.032717	0.637733	-0.062153
C62	C	-0.532717	1.137733	0.437847
C63	C	-0.990784	0.532594	-0.000080
C64	C	-0.490784	1.032594	0.499920
C65	C	-1.032700	0.637739	0.061971
C66	C	-0.532700	1.137739	0.561971
C67	C	-0.993695	0.697507	-0.000071
C68	C	-0.493695	1.197507	0.499929
C69	C	-0.951798	0.592370	-0.062203
C70	C	-0.451798	1.092370	0.437797
C71	C	-0.951793	0.592370	0.061977
C72	C	-0.451793	1.092370	0.561977
C73	C	-0.912771	0.653356	-0.000110
C74	C	-0.412771	1.153356	0.499890
C75	C	-0.989109	0.437592	-0.000086
C76	C	-0.489109	0.937592	0.499914
C77	C	-0.995363	0.792508	-0.000070
C78	C	-0.495363	1.292508	0.499930
N79	N	-0.992242	0.115077	0.179085
N80	N	-0.492242	0.615077	0.679085
C81	C	-1.043065	0.166119	0.781147
C82	C	-0.543065	0.666119	1.281147
C83	C	-1.043071	0.166123	0.701900
C84	C	-0.543071	0.666123	1.201900
C85	C	-0.992238	0.115040	0.662266
C86	C	-0.492238	0.615040	1.162266
C87	C	-0.941410	0.063934	0.701887
C88	C	-0.441410	0.563934	1.201887
C89	C	-0.941412	0.063925	0.781133
C90	C	-0.441412	0.563925	1.281133
N91	N	-0.918677	0.112605	0.537846
N92	N	-0.418677	0.612605	1.037846
N93	N	-0.918677	0.112618	0.462565
N94	N	-0.418677	0.612618	0.962565
C95	C	-0.992231	0.115061	0.423502
C96	C	-0.492231	0.615061	0.923502
N97	N	-1.065785	0.117507	0.462564
N98	N	-0.565785	0.617507	0.962564
N99	N	-1.065783	0.117499	0.537851
N100	N	-0.565783	0.617499	1.037851
C101	C	-0.992231	0.115043	0.576337
C102	C	-0.492231	0.615043	1.076337
C103	C	-1.043066	0.166164	0.297962
C104	C	-0.543066	0.666164	0.797962
C105	C	-1.043074	0.166161	0.218713
C106	C	-0.543074	0.666161	0.718713
C107	C	-0.941406	0.063977	0.218701
C108	C	-0.441406	0.563977	0.718701
C109	C	-0.941406	0.063975	0.297949
C110	C	-0.441406	0.563975	0.797949
C111	C	-0.992235	0.115073	0.337574
C112	C	-0.492235	0.615073	0.837574
H113	H	-0.563902	-0.031547	0.000007
H114	H	-0.063902	0.468453	0.500007
H115	H	-1.084467	0.207767	0.186463
H116	H	-0.584467	0.707767	0.686463
H117	H	-0.900018	0.022383	0.186432
H118	H	-0.400018	0.522383	0.686432
H119	H	-0.449441	0.040351	0.114481
H120	H	0.050559	0.540351	0.614481
H121	H	-0.900023	0.022316	0.813384
H122	H	-0.400023	0.522316	1.313384
O123	O	-0.538600	0.196331	0.124757
O124	O	-0.038600	0.696331	0.624757
C125	C	-0.466703	0.223327	0.168615
C126	C	0.033297	0.723327	0.668615
H127	H	-0.408218	0.228853	0.131035
H128	H	0.091782	0.728853	0.631035
H129	H	-0.474094	0.287444	0.194763
H130	H	0.025906	0.787444	0.694763
H131	H	-0.459658	0.175514	0.215511
H132	H	0.040342	0.675514	0.715511
H133	H	-0.535066	0.189648	-0.114608
H134	H	-0.035066	0.689648	0.385392
O135	O	-0.910998	0.568217	0.124530
O136	O	-0.410998	1.068217	0.624530
C137	C	-0.909360	0.480001	0.123286
C138	C	-0.409360	0.980001	0.623286
H139	H	-0.916875	0.456219	0.062536
H140	H	-0.416875	0.956219	0.562536
H141	H	-0.846600	0.464004	0.146994
H142	H	-0.346600	0.964004	0.646994
H143	H	-0.963278	0.448446	0.159321
H144	H	-0.463278	0.948446	0.659321
O145	O	-1.092397	0.215909	0.336378
O146	O	-0.592397	0.715909	0.836378
C147	C	-1.068955	0.301131	0.317042
C148	C	-0.568955	0.801131	0.817042
H149	H	-1.036383	0.304658	0.259504
H150	H	-0.536383	0.804658	0.759504
H151	H	-1.127684	0.335692	0.314337
H152	H	-0.627684	0.835692	0.814337
H153	H	-1.023845	0.331954	0.361648
H154	H	-0.523845	0.831954	0.861648
O155	O	-1.073646	0.661604	0.124553
O156	O	-0.573646	1.161604	0.624553
C157	C	-1.157399	0.622214	0.124298
C158	C	-0.657399	1.122214	0.624298
H159	H	-1.161424	0.562807	0.087958
H160	H	-0.661424	1.062807	0.587958
H161	H	-1.177535	0.604518	0.184664
H162	H	-0.677535	1.104518	0.684664
H163	H	-1.200961	0.667462	0.100065
H164	H	-0.700961	1.167462	0.600065
H165	H	-0.449483	0.040317	-0.114599
H166	H	0.050517	0.540317	0.385401
O167	O	-1.092523	0.215769	0.819521
O168	O	-0.592523	0.715769	1.319521
C169	C	-1.137369	0.260884	0.767559
C170	C	-0.637369	0.760884	1.267559
H171	H	-1.142331	0.226124	0.711062
H172	H	-0.642331	0.726124	1.211062
H173	H	-1.203393	0.266266	0.790450
H174	H	-0.703393	0.766266	1.290450
H175	H	-1.102647	0.326742	0.759147
H176	H	-0.602647	0.826742	1.259147
H177	H	-0.420776	0.261702	-0.000005
H178	H	0.079224	0.761702	0.499995
O179	O	-1.151840	0.537130	-0.000195
O180	O	-0.651840	1.037130	0.499805
C181	C	-1.209574	0.597889	-0.000901
C182	C	-0.709574	1.097889	0.499099
H183	H	-1.177518	0.659666	-0.025044
H184	H	-0.677518	1.159666	0.474956
H185	H	-1.266239	0.574329	-0.037547
H186	H	-0.766239	1.074329	0.462453
H187	H	-1.231650	0.608801	0.059315
H188	H	-0.731650	1.108801	0.559315
O189	O	-1.073667	0.661664	-0.124706
O190	O	-0.573667	1.161664	0.375294
C191	C	-1.157411	0.622249	-0.124502
C192	C	-0.657411	1.122249	0.375498
H193	H	-1.176904	0.604012	-0.064098
H194	H	-0.676904	1.104012	0.435902
H195	H	-1.201233	0.667698	-0.147951
H196	H	-0.701233	1.167698	0.352049
H197	H	-1.161812	0.563167	-0.161294
H198	H	-0.661812	1.063167	0.338706
O199	O	-0.911064	0.568368	-0.124853
O200	O	-0.411064	1.068368	0.375147
C201	C	-0.910001	0.480071	-0.124106
C202	C	-0.410001	0.980071	0.375894
H203	H	-0.963925	0.449883	-0.087326
H204	H	-0.463925	0.949883	0.412674
H205	H	-0.917935	0.454610	-0.184292
H206	H	-0.417935	0.954610	0.315708
H207	H	-0.847287	0.464321	-0.100098
H208	H	-0.347287	0.964321	0.399902
H209	H	-1.084458	0.207734	0.669642
H210	H	-0.584458	0.707734	1.169642
H211	H	-0.845564	0.686512	-0.000139
H212	H	-0.345564	1.186512	0.499861
H213	H	-0.900023	0.022341	0.669612
H214	H	-0.400023	0.522341	1.169612
O215	O	-0.891949	0.014324	0.336314
O216	O	-0.391949	0.514324	0.836314
C217	C	-0.847098	-0.030779	0.284343
C218	C	-0.347098	0.469221	0.784343
H219	H	-0.842130	0.003993	0.227859
H220	H	-0.342130	0.503993	0.727859
H221	H	-0.781076	-0.036166	0.307241
H222	H	-0.281076	0.463834	0.807241
H223	H	-0.881819	-0.096636	0.275902
H224	H	-0.381819	0.403364	0.775902
