data_functionalizedCrystal
_audit_creation_method	'MofGen! by Chris Wilmer'
_symmetry_space_group_name_H-M	'P1'
_symmetry_Int_Tables_number	1
_symmetry_cell_setting	triclinic
loop_
_symmetry_equiv_pos_as_xyz
  x,y,z
_cell_length_a	12.759401
_cell_length_b	29.839131
_cell_length_c	12.759393
_cell_angle_alpha	89.954959
_cell_angle_beta	89.980718
_cell_angle_gamma	90.036753
loop_
_atom_site_label
_atom_site_type_symbol
_atom_site_fract_x
_atom_site_fract_y
_atom_site_fract_z
Zn1	Zn	1.606099	-0.178811	-0.593918
Zn2	Zn	1.605933	-0.253949	-0.418195
Zn3	Zn	1.430403	-0.178835	-0.418253
Zn4	Zn	1.430327	-0.253917	-0.593833
O5	O	1.518191	-0.216378	-0.506050
O6	O	1.753098	-0.188781	-0.570620
O7	O	1.582610	-0.244008	-0.271182
O8	O	1.453811	-0.115965	-0.441616
O9	O	1.752976	-0.243985	-0.441517
O10	O	1.582895	-0.115947	-0.570676
O11	O	1.453650	-0.188823	-0.271224
O12	O	1.283372	-0.188792	-0.441533
O13	O	1.453682	-0.243930	-0.740865
O14	O	1.283316	-0.243954	-0.570530
O15	O	1.582821	-0.188750	-0.740928
O16	O	1.582536	-0.316812	-0.441434
O17	O	1.453520	-0.316788	-0.570474
C18	C	1.245223	-0.216372	-0.506029
C19	C	1.128446	-0.216381	-0.506045
C20	C	1.073583	-0.245147	-0.573108
C21	C	0.963859	-0.245149	-0.573129
C22	C	0.963872	-0.187617	-0.439014
C23	C	1.073594	-0.187613	-0.439000
C24	C	0.813946	-0.261269	-0.696980
C25	C	0.759078	-0.290042	-0.764034
C26	C	0.794639	-0.333885	-0.779957
C27	C	0.885065	-0.348963	-0.728811
C28	C	0.939927	-0.320192	-0.661749
C29	C	0.904368	-0.276343	-0.645846
C30	C	1.223509	-0.171498	-0.315147
C31	C	1.278372	-0.142729	-0.248079
C32	C	1.242814	-0.098885	-0.232146
C33	C	1.152384	-0.083809	-0.283274
C34	C	1.097521	-0.112578	-0.350341
C35	C	1.133087	-0.156421	-0.366277
C36	C	1.518030	-0.333100	-0.505961
C37	C	1.518058	-0.383035	-0.505958
C38	C	1.585390	-0.692634	-0.573347
C39	C	1.585504	-0.880307	-0.573410
O40	O	1.642594	-0.904534	-0.630641
N41	N	1.518369	-0.903820	-0.506166
C42	C	1.451196	-0.880412	-0.438907
O43	O	1.394089	-0.904717	-0.381721
C44	C	1.451078	-0.692740	-0.438850
C45	C	1.518224	-0.669229	-0.506091
C46	C	1.652530	-0.669123	-0.640583
C47	C	1.652505	-0.622208	-0.640563
C48	C	1.585339	-0.598803	-0.573306
C49	C	1.518199	-0.622314	-0.506070
C50	C	1.383900	-0.669332	-0.371596
C51	C	1.383875	-0.622411	-0.371590
C52	C	1.451021	-0.598901	-0.438831
C53	C	1.451008	-0.551993	-0.438793
N54	N	1.518143	-0.528480	-0.506037
C55	C	1.585308	-0.551885	-0.573293
C56	C	1.451265	-0.978942	-0.438940
C57	C	1.451295	-1.025860	-0.438953
C58	C	1.585602	-1.025752	-0.573458
C59	C	1.585575	-0.978833	-0.573439
C60	C	1.518399	-0.955429	-0.506184
C61	C	1.585251	-0.453359	-0.573245
C62	C	1.585223	-0.406440	-0.573215
C63	C	1.450914	-0.406552	-0.438714
C64	C	1.450945	-0.453467	-0.438739
C65	C	1.518117	-0.476870	-0.506013
O66	O	1.393939	-0.527737	-0.381601
O67	O	1.642391	-0.527572	-0.630487
C68	C	1.585415	-0.739549	-0.573368
C69	C	1.518274	-0.763060	-0.506132
C70	C	1.451109	-0.739655	-0.438875
C71	C	1.518305	-0.809978	-0.506144
C72	C	1.585471	-0.833383	-0.573401
C73	C	1.652605	-0.809870	-0.640645
C74	C	1.652580	-0.762954	-0.640624
C75	C	1.383974	-0.763168	-0.371631
C76	C	1.384006	-0.810083	-0.371656
C77	C	1.451171	-0.833488	-0.438913
C78	C	1.792224	-0.216384	-0.506071
C79	C	1.909000	-0.216386	-0.506081
C80	C	1.518261	-0.216334	-0.780083
C81	C	1.518291	-0.216315	-0.896860
C82	C	1.518380	-0.099199	-0.506162
C83	C	1.518461	-0.049265	-0.506209
C84	C	1.451196	-0.187559	-1.061474
C85	C	1.451167	-0.187574	-0.951750
C86	C	1.585457	-0.245039	-0.951700
C87	C	1.585491	-0.245022	-1.061422
C88	C	1.413670	-0.134614	-0.801849
C89	C	1.346496	-0.105895	-0.747014
C90	C	1.244004	-0.098989	-0.782628
C91	C	1.208665	-0.120809	-0.873076
C92	C	1.275834	-0.149531	-0.927906
C93	C	1.378341	-0.156429	-0.892294
C94	C	1.622976	-0.297982	-1.211324
C95	C	1.690141	-0.326707	-1.266156
C96	C	1.792635	-0.333618	-1.230544
C97	C	1.827969	-0.311806	-1.140093
C98	C	1.760804	-0.283080	-1.085261
C99	C	1.658312	-0.276169	-1.120880
C100	C	1.518181	-0.216390	-0.233082
C101	C	1.518354	-0.216282	-0.116306
H102	H	1.023893	-0.100297	-0.391980
N103	N	1.032278	-0.335591	-0.609491
N104	N	1.027384	-0.368376	-0.548639
H105	H	1.092611	-0.379252	-0.511735
N106	N	0.777645	-0.216479	-0.680722
N107	N	0.835149	-0.184003	-0.703778
H108	H	0.809509	-0.152369	-0.692295
N109	N	1.382349	-0.477478	-0.370052
N110	N	1.315375	-0.503664	-0.406952
H111	H	1.266921	-0.520616	-0.358441
N112	N	0.921361	-0.393754	-0.745071
N113	N	0.872366	-0.419437	-0.804946
H114	H	0.898002	-0.451072	-0.816432
N115	N	1.653833	-0.382423	-0.641881
N116	N	1.720794	-0.356239	-0.604950
H117	H	1.769255	-0.339279	-0.653439
H118	H	1.252476	-0.207198	-0.328124
H119	H	1.661363	-0.344467	-1.339808
H120	H	0.685454	-0.277761	-0.805679
N121	N	1.382644	-0.158192	-1.117537
N122	N	1.419681	-0.129555	-1.178787
H123	H	1.371268	-0.108813	-1.218380
H124	H	1.329279	-0.744115	-0.316864
H125	H	0.749959	-0.357312	-0.834555
N126	N	1.382604	-0.083596	-0.654648
N127	N	1.383640	-0.041738	-0.650932
H128	H	1.409139	-0.025989	-0.585699
H129	H	1.287489	-0.075463	-0.177524
N130	N	1.518284	-0.290923	-1.247726
N131	N	1.486748	-0.310403	-1.328482
H132	H	1.412809	-0.305419	-1.354193
H133	H	0.919197	-0.164195	-0.384427
N134	N	1.116064	-0.039023	-0.266984
N135	N	1.165057	-0.013341	-0.207102
H136	H	1.139407	0.018289	-0.195591
N137	N	1.239772	-0.171817	-1.020301
N138	N	1.299760	-0.197456	-1.069254
H139	H	1.274292	-0.213194	-1.134514
N140	N	1.103958	-0.113756	-0.909428
N141	N	1.043997	-0.088111	-0.860462
H142	H	0.970045	-0.083129	-0.886137
N143	N	1.315288	-0.693343	-0.302938
N144	N	1.248333	-0.719529	-0.339871
H145	H	1.199868	-0.736488	-0.291383
H146	H	1.640292	-1.044816	-0.628220
N147	N	1.175397	-0.069654	-0.726601
N148	N	1.206954	-0.050179	-0.645846
H149	H	1.158506	-0.029460	-0.606273
N150	N	1.370735	-0.158137	-0.195847
N151	N	1.402480	-0.197285	-0.210083
H152	H	1.467710	-0.208167	-0.173195
N153	N	1.653885	-0.477253	-0.641955
N154	N	1.750828	-0.471972	-0.635060
H155	H	1.799307	-0.488846	-0.683582
N156	N	1.129598	-0.274535	-0.641595
N157	N	1.080594	-0.300217	-0.701468
H158	H	1.120152	-0.320973	-0.749841
N159	N	1.518368	-0.141659	-0.765461
N160	N	1.549894	-0.122178	-0.684701
H161	H	1.623837	-0.127154	-0.658995
N162	N	1.315426	-0.834103	-0.302965
N163	N	1.352429	-0.860299	-0.236056
H164	H	1.303992	-0.877262	-0.187549
H165	H	1.640251	-0.959694	-0.628193
H166	H	1.640116	-0.268439	-0.906999
H167	H	1.707178	-0.603068	-0.695319
N168	N	1.721163	-0.693018	-0.709287
N169	N	1.818104	-0.687732	-0.702391
H170	H	1.866588	-0.704605	-0.750912
N171	N	1.382719	-1.049866	-0.370242
N172	N	1.322760	-1.028957	-0.310199
H173	H	1.274323	-1.045909	-0.261671
H174	H	1.396560	-0.959890	-0.384170
H175	H	1.847317	-0.357011	-1.275196
H176	H	1.329168	-0.603358	-0.316823
H177	H	1.911427	-0.317433	-1.111095
N178	N	1.721197	-0.833782	-0.709363
N179	N	1.714164	-0.828510	-0.806301
H180	H	1.762600	-0.845401	-0.854835
N181	N	1.382327	-0.382632	-0.370011
N182	N	1.382324	-0.340742	-0.370010
H183	H	1.333883	-0.323847	-0.321490
H184	H	1.707257	-0.743815	-0.695378
N185	N	1.796910	-0.260804	-0.992865
N186	N	1.888425	-0.266977	-0.961072
H187	H	1.913926	-0.251245	-0.895818
