data_functionalizedCrystal
_audit_creation_method	'MofGen! by Chris Wilmer'
_symmetry_space_group_name_H-M	'P1'
_symmetry_Int_Tables_number	1
_symmetry_cell_setting	triclinic
loop_
_symmetry_equiv_pos_as_xyz
  x,y,z
_cell_length_a	8.497374
_cell_length_b	13.032721
_cell_length_c	13.032831
_cell_angle_alpha	89.097115
_cell_angle_beta	82.827283
_cell_angle_gamma	82.830905
loop_
_atom_site_label
_atom_site_type_symbol
_atom_site_fract_x
_atom_site_fract_y
_atom_site_fract_z
Zn1	Zn	1.299749	-0.609635	-1.519982
Zn2	Zn	1.633082	-0.276302	-1.186649
Zn3	Zn	1.966416	0.057031	-0.853316
Zn4	Zn	1.064703	-0.781567	-1.498071
Zn5	Zn	1.398037	-0.448233	-1.164738
Zn6	Zn	1.731370	-0.114900	-0.831405
Zn7	Zn	0.998870	-0.587743	-1.348061
Zn8	Zn	1.332203	-0.254410	-1.014727
Zn9	Zn	1.665537	0.078923	-0.681394
Zn10	Zn	1.291326	-0.759681	-1.326132
Zn11	Zn	1.624660	-0.426347	-0.992799
Zn12	Zn	1.957993	-0.093014	-0.659465
O13	O	1.163662	-0.684657	-1.423062
O14	O	1.496996	-0.351323	-1.089728
O15	O	1.830329	-0.017990	-0.756395
O16	O	1.299646	-0.650764	-1.660983
O17	O	1.632979	-0.317431	-1.327649
O18	O	1.966313	0.015903	-0.994316
O19	O	0.835209	-0.755853	-1.478179
O20	O	1.168542	-0.422520	-1.144846
O21	O	1.501876	-0.089186	-0.811513
O22	O	1.014756	-0.446737	-1.389213
O23	O	1.348089	-0.113404	-1.055880
O24	O	1.681422	0.219930	-0.722547
O25	O	1.126959	-0.777081	-1.644885
O26	O	1.460292	-0.443748	-1.311551
O27	O	1.793626	-0.110414	-0.978218
O28	O	1.235810	-0.462821	-1.515523
O29	O	1.569144	-0.129488	-1.182190
O30	O	1.902477	0.203846	-0.848857
O31	O	0.786842	-0.613452	-1.367967
O32	O	1.120175	-0.280118	-1.034634
O33	O	1.453508	0.053215	-0.701301
O34	O	1.006589	-0.592230	-1.201245
O35	O	1.339922	-0.258896	-0.867911
O36	O	1.673255	0.074437	-0.534578
O37	O	1.513205	-0.739780	-1.351839
O38	O	1.846538	-0.406446	-1.018506
O39	O	2.179872	-0.073113	-0.685173
O40	O	1.221455	-0.718552	-1.185134
O41	O	1.554789	-0.385218	-0.851801
O42	O	1.888122	-0.051885	-0.518467
O43	O	1.519393	-0.629542	-1.494260
O44	O	1.852727	-0.296209	-1.160927
O45	O	2.186060	0.037125	-0.827594
O46	O	1.118792	-0.922574	-1.456916
O47	O	1.452125	-0.589241	-1.123583
O48	O	1.785459	-0.255907	-0.790250
O49	O	1.285291	-0.906494	-1.330593
O50	O	1.618624	-0.573161	-0.997260
O51	O	1.951958	-0.239828	-0.663927
C52	C	1.208312	-0.951852	-1.389026
C53	C	1.541645	-0.618519	-1.055692
C54	C	1.874978	-0.285185	-0.722359
C55	C	1.227486	-1.066171	-1.374559
C56	C	1.560819	-0.732838	-1.041225
C57	C	1.894153	-0.399505	-0.707892
C58	C	1.105965	-0.650641	-1.155876
C59	C	1.439299	-0.317308	-0.822543
C60	C	1.772632	0.016026	-0.489209
C61	C	1.081324	-0.636114	-1.041569
C62	C	1.414657	-0.302780	-0.708236
C63	C	1.747990	0.030553	-0.374903
C64	C	1.153738	-1.125067	-1.430666
C65	C	1.487071	-0.791733	-1.097333
C66	C	1.820404	-0.458400	-0.764000
C67	C	1.173554	-1.243222	-1.415716
C68	C	1.506887	-0.909888	-1.082382
C69	C	1.840220	-0.576555	-0.749049
C70	C	1.575141	-0.684657	-1.423054
C71	C	1.908475	-0.351324	-1.089720
C72	C	2.241808	-0.017990	-0.756387
C73	C	1.753788	-0.684668	-1.423055
C74	C	2.087121	-0.351335	-1.089721
C75	C	2.420454	-0.018002	-0.756388
C76	C	1.221586	-0.718806	-1.691291
C77	C	1.554919	-0.385473	-1.357957
C78	C	1.888252	-0.052139	-1.024624
C79	C	1.246269	-0.733358	-1.805594
C80	C	1.579602	-0.400025	-1.472260
C81	C	1.912936	-0.066692	-1.138927
C82	C	1.118879	-0.416421	-1.457259
C83	C	1.452212	-0.083088	-1.123925
C84	C	1.785546	0.250245	-0.790592
C85	C	1.099795	-0.302116	-1.471831
C86	C	1.433128	0.031218	-1.138498
C87	C	1.766462	0.364551	-0.805165
C88	C	1.176523	-0.692239	-0.982652
C89	C	1.509856	-0.358905	-0.649318
C90	C	1.843189	-0.025572	-0.315985
C91	C	1.151057	-0.677225	-0.864510
C92	C	1.484390	-0.343892	-0.531176
C93	C	1.817724	-0.010559	-0.197843
H94	H	1.075935	-1.088019	-1.489775
H95	H	1.409268	-0.754685	-1.156442
H96	H	1.742602	-0.421352	-0.823109
C97	C	1.332603	-1.116220	-1.294708
C98	C	1.665936	-0.782887	-0.961375
C99	C	1.999269	-0.449553	-0.628041
N100	N	1.411776	-1.153915	-1.234560
N101	N	1.745109	-0.820582	-0.901227
N102	N	2.078443	-0.487248	-0.567894
H103	H	1.050699	-0.618052	-0.827493
H104	H	1.384033	-0.284718	-0.494159
H105	H	1.717366	0.048615	-0.160826
H106	H	1.276884	-0.751400	-1.019674
H107	H	1.610217	-0.418067	-0.686341
H108	H	1.943551	-0.084734	-0.353008
H109	H	1.346641	-0.792522	-0.842611
H110	H	1.679975	-0.459189	-0.509277
H111	H	2.013308	-0.125855	-0.175944
C112	C	1.278676	-1.293266	-1.335861
C113	C	1.612009	-0.959933	-1.002527
C114	C	1.945342	-0.626599	-0.669194
N115	N	1.357849	-1.330961	-1.275713
N116	N	1.691182	-0.997628	-0.942380
N117	N	2.024516	-0.664295	-0.609047
H118	H	1.021987	-1.265071	-1.530944
H119	H	1.355321	-0.931737	-1.197611
H120	H	1.688654	-0.598404	-0.864277
H121	H	0.980973	-0.576944	-1.004548
H122	H	1.314307	-0.243611	-0.671215
H123	H	1.647640	0.089723	-0.337881
