data_functionalizedCrystal
_audit_creation_method	'MofGen! by Chris Wilmer'
_symmetry_space_group_name_H-M	'P1'
_symmetry_Int_Tables_number	1
_symmetry_cell_setting	triclinic
loop_
_symmetry_equiv_pos_as_xyz
  x,y,z
_cell_length_a	19.121241
_cell_length_b	19.121063
_cell_length_c	19.120904
_cell_angle_alpha	85.258387
_cell_angle_beta	90.124528
_cell_angle_gamma	95.003121
loop_
_atom_site_label
_atom_site_type_symbol
_atom_site_fract_x
_atom_site_fract_y
_atom_site_fract_z
Zn1	Zn	1.043557	-0.254510	0.452551
Zn2	Zn	1.043470	-0.367161	0.339898
Zn3	Zn	0.931342	-0.254092	0.330304
Zn4	Zn	0.920835	-0.377147	0.452491
O5	O	0.984801	-0.313228	0.393811
O6	O	1.141831	-0.265449	0.441648
O7	O	1.032957	-0.347808	0.240344
O8	O	0.950661	-0.155504	0.342530
O9	O	1.141767	-0.348213	0.358882
O10	O	1.033105	-0.155811	0.432344
O11	O	0.950577	-0.264736	0.233295
O12	O	0.831663	-0.274420	0.342472
O13	O	0.932754	-0.365234	0.550781
O14	O	0.823943	-0.364828	0.432242
O15	O	1.022917	-0.275133	0.550825
O16	O	1.022769	-0.467129	0.358824
O17	O	0.932669	-0.474466	0.441546
C18	C	0.802319	-0.320663	0.386310
C19	C	0.724250	-0.323861	0.383118
C20	C	0.687602	-0.282348	0.424782
C21	C	0.614249	-0.285349	0.421777
C22	C	0.577546	-0.329869	0.377111
C23	C	0.614200	-0.371384	0.335443
C24	C	0.687552	-0.368378	0.338445
C25	C	0.356069	-0.341093	0.365885
C26	C	0.282712	-0.344097	0.362887
C27	C	0.282766	-0.258061	0.449221
C28	C	0.356119	-0.255063	0.452222
C29	C	0.392767	-0.296575	0.410551
C30	C	0.502567	-0.332939	0.374040
C31	C	0.467744	-0.293500	0.413619
C32	C	0.976588	-0.496375	0.401236
C33	C	0.973137	-0.574724	0.404438
C34	C	1.018459	-0.607690	0.362913
C35	C	1.015218	-0.681308	0.365929
C36	C	0.966651	-0.721959	0.410467
C37	C	0.921327	-0.688989	0.451998
C38	C	0.924572	-0.615372	0.448985
C39	C	0.954507	-0.944426	0.421721
C40	C	0.951264	-1.018048	0.424729
C41	C	1.045157	-1.010363	0.338661
C42	C	1.048395	-0.936745	0.335649
C43	C	1.003073	-0.903781	0.377182
C44	C	0.963335	-0.797209	0.413550
C45	C	1.006393	-0.828532	0.374103
C46	C	1.167996	-0.305764	0.401342
C47	C	1.246063	-0.302584	0.404551
C48	C	0.976673	-0.321344	0.576998
C49	C	0.973209	-0.324803	0.655062
C50	C	0.993065	-0.129365	0.386373
C51	C	0.996587	-0.051014	0.383204
C52	C	0.992940	-0.305090	0.211336
C53	C	0.996549	-0.301428	0.133270
C54	C	1.018523	-0.279519	0.691760
C55	C	1.015260	-0.282766	0.765109
C56	C	0.966686	-0.331301	0.801758
C57	C	0.921368	-0.376587	0.765054
C58	C	0.924628	-0.373336	0.691707
C59	C	0.954491	-0.343462	1.023219
C60	C	0.951236	-0.346711	1.096572
C61	C	1.045127	-0.252889	1.096621
C62	C	1.048386	-0.249645	1.023272
C63	C	1.003065	-0.294928	0.986575
C64	C	0.963351	-0.334623	0.876732
C65	C	1.006397	-0.291602	0.911602
H66	H	0.252830	-0.380353	0.326515
H67	H	1.045939	-0.795432	0.337842
H68	H	0.923790	-0.830315	0.449812
N69	N	0.910970	-0.386968	0.916276
H70	H	0.920178	-0.436328	0.906008
H71	H	0.861866	-0.377441	0.900992
N72	N	1.064101	-0.716865	0.321141
H73	H	1.095357	-0.679942	0.292465
H74	H	1.035630	-0.747173	0.288696
N75	N	0.727183	-0.234334	0.472963
H76	H	0.754891	-0.263229	0.507874
H77	H	0.692787	-0.208504	0.498851
N78	N	0.898878	-1.061896	0.472769
H79	H	0.870660	-1.029843	0.498624
H80	H	0.924657	-1.092680	0.507712
H81	H	0.881815	-0.416103	0.794900
H82	H	0.497631	-0.257250	0.449982
N83	N	0.875747	-0.422176	0.652128
H84	H	0.883820	-0.472664	0.667376
H85	H	0.885200	-0.412692	0.600112
H86	H	0.881785	-0.722093	0.488265
H87	H	0.385997	-0.218813	0.488596
N88	N	1.100764	-0.197272	0.983761
H89	H	1.075031	-0.164421	0.950841
H90	H	1.133377	-0.223273	0.955862
N91	N	1.070918	-0.227174	0.652235
H92	H	1.099127	-0.198980	0.686616
H93	H	1.045148	-0.194368	0.619305
N94	N	1.064120	-0.233912	0.804691
H95	H	1.095384	-0.202671	0.770344
H96	H	1.093983	-0.262618	0.837631
H97	H	1.087942	-0.903648	0.299382
H98	H	1.082024	-0.216022	1.126508
N99	N	1.070846	-0.563846	0.314879
H100	H	1.045122	-0.533060	0.279887
H101	H	1.099055	-0.595948	0.289081
N102	N	1.058790	-0.239261	0.872075
H103	H	1.087007	-0.211066	0.906451
H104	H	1.033021	-0.206454	0.839146
N105	N	0.905622	-0.908877	0.466509
H106	H	0.874360	-0.945802	0.495175
H107	H	0.875757	-0.878431	0.435307
H108	H	0.584412	-0.251546	0.455705
N109	N	0.898845	-0.399064	1.136103
H110	H	0.870629	-0.427258	1.101726
H111	H	0.866284	-0.373042	1.164041
N112	N	0.905590	-0.392278	0.983641
H113	H	0.874320	-0.423511	1.017990
H114	H	0.934039	-0.422397	0.955689
H115	H	0.385899	-0.374896	0.331954
N116	N	1.094034	-1.045916	0.293864
H117	H	1.084610	-1.098720	0.302528
H118	H	1.144270	-1.031442	0.306366
H119	H	0.887667	-0.588532	0.482800
N120	N	0.243232	-0.213284	0.494152
H121	H	0.258732	-0.161900	0.481802
H122	H	0.253299	-0.226064	0.545270
H123	H	0.717390	-0.402182	0.304517
N124	N	0.574618	-0.419394	0.287259
H125	H	0.522588	-0.415000	0.291679
H126	H	0.584707	-0.469711	0.300671
H127	H	0.472675	-0.369187	0.337673
