data_functionalizedCrystal
_audit_creation_method	'MofGen! by Chris Wilmer'
_symmetry_space_group_name_H-M	'P1'
_symmetry_Int_Tables_number	1
_symmetry_cell_setting	triclinic
loop_
_symmetry_equiv_pos_as_xyz
  x,y,z
_cell_length_a	10.654550
_cell_length_b	8.559649
_cell_length_c	7.681481
_cell_angle_alpha	85.086760
_cell_angle_beta	84.203385
_cell_angle_gamma	102.868216
loop_
_atom_site_label
_atom_site_type_symbol
_atom_site_fract_x
_atom_site_fract_y
_atom_site_fract_z
O1	O	-0.029228	-2.104699	-0.146401
O2	O	0.035560	-1.640212	-0.146409
O3	O	-0.180677	-1.883136	-0.146398
O4	O	0.187009	-1.861776	-0.146412
O5	O	-0.207346	-1.913035	0.146461
O6	O	0.008891	-1.670112	0.146450
O7	O	-0.055897	-2.134598	0.146458
Zn8	Zn	-0.027737	-1.907102	0.192952
Zn9	Zn	0.007400	-1.867709	-0.192903
O10	O	0.160340	-1.891675	0.146447
C11	C	0.027135	-1.595686	0.000019
C12	C	0.041750	-1.418468	0.000016
C13	C	-0.240647	-1.896517	0.000029
C14	C	-0.379605	-1.891824	0.000023
C15	C	-0.047472	-2.179124	0.000026
C16	C	-0.062085	-2.356341	0.000018
C17	C	-0.473866	-2.034854	0.000031
C18	C	-0.604430	-2.030434	0.000018
C19	C	-0.546457	-1.739944	-0.000002
C20	C	-0.415896	-1.744364	-0.000003
C21	C	-0.437576	-2.182315	0.000056
C22	C	-0.531840	-2.325356	0.000066
C23	C	-0.662403	-2.320937	0.000054
C24	C	-0.698703	-2.173475	0.000032
C25	C	0.220311	-1.878293	0.000016
C26	C	0.359270	-1.882985	0.000011
N27	N	-0.051719	-1.933999	0.456287
N28	N	0.031371	-1.840824	-0.456238
H29	H	-0.331269	-2.185930	0.000072
C30	C	0.145945	-1.712321	0.442181
C31	C	0.164523	-1.692136	0.239414
C32	C	0.279099	-1.563630	0.137820
C33	C	0.375096	-1.455309	0.238993
C34	C	0.356521	-1.475490	0.441772
C35	C	0.241945	-1.603996	0.543365
H36	H	0.093458	-1.772325	0.164509
H37	H	0.292849	-1.548691	-0.012290
H38	H	0.459912	-1.360181	0.163788
H39	H	0.427586	-1.395301	0.516676
H40	H	0.228195	-1.618935	0.693476
H41	H	-0.502271	-2.445409	0.000040
H42	H	-0.576025	-1.619888	-0.000018
H43	H	-0.136528	-2.029129	0.531497
H44	H	-0.739149	-2.437406	0.000044
H45	H	-0.805017	-2.169886	0.000003
H46	H	-0.339145	-1.627896	-0.000007
H47	H	-0.162163	-1.438728	0.000012
H48	H	0.141835	-1.336070	0.000003
