data_functionalizedCrystal
_audit_creation_method	'MofGen! by Chris Wilmer'
_symmetry_space_group_name_H-M	'P1'
_symmetry_Int_Tables_number	1
_symmetry_cell_setting	triclinic
loop_
_symmetry_equiv_pos_as_xyz
  x,y,z
_cell_length_a	25.639242
_cell_length_b	29.839125
_cell_length_c	25.639239
_cell_angle_alpha	89.983129
_cell_angle_beta	90.030990
_cell_angle_gamma	89.986798
loop_
_atom_site_label
_atom_site_type_symbol
_atom_site_fract_x
_atom_site_fract_y
_atom_site_fract_z
Zn1	Zn	0.799219	-0.254022	-0.208331
Zn2	Zn	0.799144	-0.178893	-0.295747
Zn3	Zn	0.711797	-0.178903	-0.208316
Zn4	Zn	0.711740	-0.253993	-0.295726
O5	O	0.755475	-0.216453	-0.252030
O6	O	0.872374	-0.244064	-0.219943
O7	O	0.787550	-0.116028	-0.284152
O8	O	0.723449	-0.188885	-0.135153
O9	O	0.872319	-0.188867	-0.284167
O10	O	0.787677	-0.244074	-0.135164
O11	O	0.723376	-0.116035	-0.219917
O12	O	0.638624	-0.188856	-0.219896
O13	O	0.723352	-0.316864	-0.284130
O14	O	0.638583	-0.244025	-0.284115
O15	O	0.787622	-0.316886	-0.219922
O16	O	0.787495	-0.188839	-0.368910
O17	O	0.723280	-0.244015	-0.368894
C18	C	0.619633	-0.216439	-0.252002
C19	C	0.561519	-0.216443	-0.252002
C20	C	0.755489	-0.333632	-0.252026
C21	C	0.755495	-0.383566	-0.252024
C22	C	0.310362	-0.245247	-0.218648
C23	C	0.364966	-0.245244	-0.218643
O24	O	0.393234	-0.269731	-0.190261
N25	N	0.392245	-0.216458	-0.252024
C26	C	0.364916	-0.187676	-0.285416
O27	O	0.393133	-0.163192	-0.313810
C28	C	0.310313	-0.187682	-0.285424
C29	C	0.283037	-0.216466	-0.252037
C30	C	0.283086	-0.274029	-0.185264
C31	C	0.228485	-0.274031	-0.185269
C32	C	0.201161	-0.245250	-0.218657
C33	C	0.228437	-0.216468	-0.252041
C34	C	0.282985	-0.158902	-0.318818
C35	C	0.228378	-0.158910	-0.318823
C36	C	0.201103	-0.187695	-0.285436
C37	C	0.146511	-0.187689	-0.285434
N38	N	0.119233	-0.216475	-0.252053
C39	C	0.146557	-0.245256	-0.218665
C40	C	0.479587	-0.187668	-0.285399
C41	C	0.534189	-0.187661	-0.285389
C42	C	0.534235	-0.245229	-0.218616
C43	C	0.479632	-0.245234	-0.218624
C44	C	0.452308	-0.216454	-0.252018
C45	C	0.031892	-0.245257	-0.218677
C46	C	-0.022713	-0.245255	-0.218683
C47	C	-0.022754	-0.187688	-0.285457
C48	C	0.031846	-0.187689	-0.285449
C49	C	0.059168	-0.216477	-0.252057
O50	O	0.118209	-0.163216	-0.313803
O51	O	0.118334	-0.269740	-0.190281
C52	C	0.788996	-0.693224	-0.218503
C53	C	0.789022	-0.880897	-0.218458
O54	O	0.817467	-0.905174	-0.190007
N55	N	0.755565	-0.904351	-0.251883
C56	C	0.722096	-0.880885	-0.285320
O57	O	0.693636	-0.905140	-0.313746
C58	C	0.722068	-0.693212	-0.285362
C59	C	0.755531	-0.669760	-0.251938
C60	C	0.822456	-0.669771	-0.185081
C61	C	0.822451	-0.622856	-0.185095
C62	C	0.788986	-0.599393	-0.218530
C63	C	0.755526	-0.622845	-0.251951
C64	C	0.688597	-0.669747	-0.318795
C65	C	0.688592	-0.622826	-0.318802
C66	C	0.722055	-0.599374	-0.285378
C67	C	0.722057	-0.552466	-0.285400
N68	N	0.755514	-0.529012	-0.251974
C69	C	0.788979	-0.552475	-0.218539
C70	C	0.722114	-0.979415	-0.285297
C71	C	0.722122	-1.026333	-0.285287
C72	C	0.789047	-1.026342	-0.218424
C73	C	0.789042	-0.979423	-0.218437
C74	C	0.755571	-0.955961	-0.251871
C75	C	0.788967	-0.453949	-0.218570
C76	C	0.788960	-0.407029	-0.218588
C77	C	0.722033	-0.407025	-0.285449
C78	C	0.722041	-0.453940	-0.285433
C79	C	0.755510	-0.477401	-0.251990
O80	O	0.693623	-0.528160	-0.313832
O81	O	0.817427	-0.528211	-0.190110
C82	C	0.789001	-0.740139	-0.218489
C83	C	0.755541	-0.763591	-0.251911
C84	C	0.722076	-0.740128	-0.285346
C85	C	0.755548	-0.810509	-0.251901
C86	C	0.789013	-0.833972	-0.218466
C87	C	0.822471	-0.810518	-0.185041
C88	C	0.822466	-0.763602	-0.185054
C89	C	0.688619	-0.763582	-0.318771
C90	C	0.688627	-0.810498	-0.318755
C91	C	0.722092	-0.833961	-0.285320
C92	C	0.891848	-0.216468	-0.252059
C93	C	0.949962	-0.216474	-0.252071
C94	C	0.755387	-0.216433	-0.387873
C95	C	0.755398	-0.216439	-0.445987
C96	C	0.755491	-0.099731	-0.251997
C97	C	0.755587	-0.049797	-0.251852
C98	C	0.788999	-0.187772	-0.806345
C99	C	0.789020	-0.187778	-0.860950
O100	O	0.817498	-0.163382	-0.889183
N101	N	0.755567	-0.216483	-0.888269
C102	C	0.722096	-0.245187	-0.860982
O103	O	0.693644	-0.269603	-0.889233
C104	C	0.722079	-0.245183	-0.806378
C105	C	0.755530	-0.216473	-0.779062
C106	C	0.822448	-0.159065	-0.779029
C107	C	0.822427	-0.159059	-0.724428
C108	C	0.788957	-0.187759	-0.697144
C109	C	0.755509	-0.216466	-0.724461
C110	C	0.688611	-0.273888	-0.779092
C111	C	0.688597	-0.273882	-0.724485
C112	C	0.722047	-0.245172	-0.697168
C113	C	0.722018	-0.245161	-0.642577
N114	N	0.755470	-0.216456	-0.615257
C115	C	0.788940	-0.187755	-0.642541
C116	C	0.722135	-0.245194	-0.975652
C117	C	0.722150	-0.245196	-1.030254
C118	C	0.789074	-0.187788	-1.030219
C119	C	0.789057	-0.187784	-0.975616
C120	C	0.755588	-0.216489	-0.948333
C121	C	0.788893	-0.187743	-0.527876
C122	C	0.788867	-0.187738	-0.473271
C123	C	0.721945	-0.245148	-0.473311
C124	C	0.721968	-0.245152	-0.527912
C125	C	0.755447	-0.216448	-0.555193
O126	O	0.693556	-0.269545	-0.614309
O127	O	0.817392	-0.163347	-0.614283
C128	C	0.755578	-0.216484	-0.115657
C129	C	0.755621	-0.216497	-0.057543
H130	H	-0.044919	-0.268695	-0.191492
O131	O	0.058347	-0.273235	-0.186190
C132	C	0.022555	-0.298644	-0.156739
H133	H	-0.016371	-0.280243	-0.154905
H134	H	0.038346	-0.303501	-0.115549
H135	H	0.016748	-0.332734	-0.175946
O136	O	0.689518	-0.384297	-0.317984
C137	C	0.659977	-0.415054	-0.347479
H138	H	0.681388	-0.448504	-0.349280
H139	H	0.654379	-0.401494	-0.388677
H140	H	0.620278	-0.420033	-0.328331
O141	O	0.854893	-0.740778	-0.152551
C142	C	0.825145	-0.713652	-0.118770
H143	H	0.785512	-0.706609	-0.137210
H144	H	0.846446	-0.680666	-0.111760
H145	H	0.819421	-0.731745	-0.080026
O146	O	0.201918	-0.130910	-0.351279
C147	C	0.237706	-0.105515	-0.380753
H148	H	0.276637	-0.103991	-0.359329
H149	H	0.221917	-0.070110	-0.386273
H150	H	0.243502	-0.121907	-0.420488
H151	H	0.849721	-0.829630	-0.157818
H152	H	0.694732	-0.268531	-0.550154
O153	O	0.821680	-0.159990	-1.056733
C154	C	0.855424	-0.185628	-1.088258
H155	H	0.858564	-0.221014	-1.071778
H156	H	0.895694	-0.169448	-1.088820
H157	H	0.839301	-0.187155	-1.129666
O158	O	0.854950	-0.131236	-0.697838
C159	C	0.888698	-0.156838	-0.666223
H160	H	0.870225	-0.190867	-0.658038
H161	H	0.895713	-0.138540	-0.627831
H162	H	0.927444	-0.161812	-0.687235
O163	O	0.855049	-0.131205	-0.805453
C164	C	0.907137	-0.141085	-0.792042
H165	H	0.908164	-0.158370	-0.752397
H166	H	0.930613	-0.108686	-0.790134
H167	H	0.924752	-0.164189	-0.822750
O168	O	0.560807	-0.273239	-0.186260
C169	C	0.592398	-0.302195	-0.216081
H170	H	0.575921	-0.304905	-0.257265
H171	H	0.593043	-0.336799	-0.197235
H172	H	0.633774	-0.288297	-0.217856
H173	H	0.661378	-0.829589	-0.345978
H174	H	0.661368	-0.744483	-0.345999
O175	O	0.821413	-0.159834	-0.446817
C176	C	0.850949	-0.134498	-0.482612
H177	H	0.852758	-0.152907	-0.521523
H178	H	0.892143	-0.129736	-0.466802
H179	H	0.831833	-0.100364	-0.488455
O180	O	0.689390	-0.273045	-0.446883
C181	C	0.659880	-0.298399	-0.482698
H182	H	0.658085	-0.280001	-0.521631
H183	H	0.618681	-0.303166	-0.466948
H184	H	0.679010	-0.332530	-0.488475
H185	H	0.661343	-0.297259	-0.702273
O186	O	0.202075	-0.302038	-0.152823
C187	C	0.237910	-0.327429	-0.123348
H188	H	0.276823	-0.328942	-0.144766
H189	H	0.222156	-0.362837	-0.117837
H190	H	0.243730	-0.311041	-0.083609
H191	H	0.816212	-0.387937	-0.191370
O192	O	0.689597	-0.273017	-1.056810
C193	C	0.655866	-0.247420	-1.088450
H194	H	0.652659	-0.212031	-1.072019
H195	H	0.615617	-0.263637	-1.089094
H196	H	0.672046	-0.245894	-1.129819
H197	H	0.305328	-0.297468	-0.158075
H198	H	0.816296	-1.045454	-0.191200
O199	O	0.821504	-0.476784	-0.186158
C200	C	0.855265	-0.503916	-0.215924
H201	H	0.836795	-0.510947	-0.255539
H202	H	0.862298	-0.536908	-0.194616
H203	H	0.894002	-0.485835	-0.221687
O204	O	0.689645	-1.049061	-0.317833
C205	C	0.701041	-1.037596	-0.369947
H206	H	0.721139	-1.003535	-0.371037
H207	H	0.663289	-1.035979	-0.393383
H208	H	0.727909	-1.064004	-0.387561
H209	H	0.816289	-0.960332	-0.191219
O210	O	0.689567	-0.273090	-0.949232
C211	C	0.660058	-0.298432	-0.985059
H212	H	0.658280	-0.280029	-1.023990
H213	H	0.618852	-0.303190	-0.969321
H214	H	0.679177	-0.332567	-0.990836
O215	O	0.656101	-0.301822	-0.805537
C216	C	0.626554	-0.327143	-0.769736
H217	H	0.647960	-0.328703	-0.730796
H218	H	0.620957	-0.362539	-0.785493
H219	H	0.586855	-0.310662	-0.763971
O220	O	0.453219	-0.273240	-0.186179
C221	C	0.489053	-0.298630	-0.156700
H222	H	0.527967	-0.300144	-0.178114
H223	H	0.473298	-0.334038	-0.151187
H224	H	0.494869	-0.282240	-0.116961
O225	O	0.560601	-0.159682	-0.317867
C226	C	0.524767	-0.134273	-0.347325
H227	H	0.485851	-0.152676	-0.349167
H228	H	0.540519	-0.129415	-0.388511
H229	H	0.518956	-0.100184	-0.328117
H230	H	0.694859	-0.960316	-0.312526
O231	O	0.452989	-0.159683	-0.317762
C232	C	0.421416	-0.130707	-0.287949
H233	H	0.413252	-0.146615	-0.248357
H234	H	0.383010	-0.124652	-0.309243
H235	H	0.442453	-0.097424	-0.282139
H236	H	0.661348	-0.688833	-0.346012
O237	O	0.656068	-0.600104	-0.351337
C238	C	0.626531	-0.630869	-0.380825
H239	H	0.647948	-0.664317	-0.382622
H240	H	0.620928	-0.617315	-0.422025
H241	H	0.586834	-0.635852	-0.361674
O242	O	0.058404	-0.159789	-0.317903
C243	C	0.089968	-0.185315	-0.351725
H244	H	0.098165	-0.219390	-0.333344
H245	H	0.128357	-0.167007	-0.358698
H246	H	0.068905	-0.190191	-0.390480
H247	H	0.816296	-0.164406	-0.953378
O248	O	0.309529	-0.131006	-0.351281
C249	C	0.341094	-0.156530	-0.385103
H250	H	0.349304	-0.190600	-0.366717
H251	H	0.379477	-0.138214	-0.392086
H252	H	0.320027	-0.161416	-0.423854
H253	H	0.816155	-0.164371	-0.550082
O254	O	-0.049246	-0.159756	-0.317963
C255	C	-0.035936	-0.169504	-0.370090
H256	H	0.003719	-0.186765	-0.371200
H257	H	-0.034097	-0.137047	-0.393482
H258	H	-0.066664	-0.192582	-0.387737
O259	O	0.854897	-0.600104	-0.152541
C260	C	0.843507	-0.611594	-0.100434
H261	H	0.801738	-0.624481	-0.097796
H262	H	0.848028	-0.580751	-0.074598
H263	H	0.871543	-0.638841	-0.086773
H264	H	0.849707	-0.688870	-0.157851
O265	O	0.689510	-0.476772	-0.317829
C266	C	0.655755	-0.503894	-0.288043
H267	H	0.674228	-0.510929	-0.248423
H268	H	0.648727	-0.536884	-0.309327
H269	H	0.617016	-0.485802	-0.282292
