data_functionalizedCrystal
_audit_creation_method	'MofGen! by Chris Wilmer'
_symmetry_space_group_name_H-M	'P1'
_symmetry_Int_Tables_number	1
_symmetry_cell_setting	triclinic
loop_
_symmetry_equiv_pos_as_xyz
  x,y,z
_cell_length_a	6.817900
_cell_length_b	17.078472
_cell_length_c	16.255661
_cell_angle_alpha	96.262601
_cell_angle_beta	103.488922
_cell_angle_gamma	99.306020
loop_
_atom_site_label
_atom_site_type_symbol
_atom_site_fract_x
_atom_site_fract_y
_atom_site_fract_z
V1	V	-4.005724	-0.110408	-0.263786
O2	O	-4.015074	0.004646	-0.258852
O3	O	-3.936769	-0.218286	-0.261897
O4	O	-3.957554	-0.108999	-0.378870
O5	O	-3.994145	-0.105398	-0.141069
V6	V	-4.491986	-0.096612	-0.249118
O7	O	-4.260975	-0.140671	-0.295960
O8	O	-4.686932	-0.066349	-0.216943
O9	O	-4.337734	0.011266	-0.251006
O10	O	-4.600033	-0.211666	-0.254052
O11	O	-4.620962	-0.101622	-0.371834
O12	O	-4.316949	-0.098021	-0.134034
C13	C	-3.776761	-0.244575	-0.257714
C14	C	-3.801671	-0.332769	-0.256938
C15	C	-3.994710	-0.378254	-0.260791
C16	C	-4.018106	-0.461122	-0.260066
C17	C	-3.848456	-0.498502	-0.255482
C18	C	-3.655402	-0.453012	-0.251631
C19	C	-3.632012	-0.370147	-0.252362
C20	C	-3.898967	-0.745900	-0.252849
C21	C	-3.922372	-0.828771	-0.252116
C22	C	-4.285076	-0.836875	-0.260553
C23	C	-4.261666	-0.754007	-0.261278
C24	C	-4.068617	-0.708525	-0.257432
N25	N	-3.872364	-0.583206	-0.254738
N26	N	-4.044714	-0.623823	-0.258181
C27	C	-3.803274	-0.105168	-0.406923
C28	C	-3.845037	-0.104730	-0.501005
C29	C	-3.756589	-0.099496	-0.723828
C30	C	-3.900164	-0.167046	-0.793252
C31	C	-3.921578	-0.103908	-0.673254
C32	C	-3.852440	-0.035585	-0.771468
C33	C	-3.995497	-0.103111	-0.839638
C34	C	-4.064623	-0.171518	-0.741448
C35	C	-4.016849	-0.039998	-0.719649
C36	C	-4.160557	-0.107567	-0.789054
C37	C	-3.878989	-0.104368	-0.577405
C38	C	-4.038102	-0.102657	-0.935487
C39	C	-4.161083	0.037551	-0.255187
C40	C	-4.115412	0.125744	-0.255969
C41	C	-4.134570	-0.101855	-0.105976
C42	C	-4.072047	-0.102289	-0.011893
H43	H	-4.442249	-0.873916	-0.263684
H44	H	-4.065655	0.013718	-0.687582
O45	O	-3.746146	0.033031	-0.787671
C46	C	-3.685055	0.177637	-0.766966
C47	C	-3.805623	0.099997	-0.748572
H48	H	-3.733066	0.231800	-0.735349
H49	H	-3.719380	0.177662	-0.839040
H50	H	-3.513330	0.180925	-0.740074
H51	H	-3.977381	0.096659	-0.775410
H52	H	-3.771126	0.100005	-0.676491
O53	O	-3.444538	-0.325858	-0.248505
C54	C	-3.171425	-0.216677	-0.170757
C55	C	-3.383767	-0.266756	-0.175026
H56	H	-3.122207	-0.168892	-0.111345
H57	H	-3.180548	-0.186463	-0.230344
H58	H	-3.054244	-0.257648	-0.167396
H59	H	-3.501063	-0.225840	-0.178360
H60	H	-3.374475	-0.296978	-0.115440
O61	O	-4.159418	-0.341874	-0.265354
C62	C	-4.379751	-0.264016	-0.344755
C63	C	-4.193149	-0.305160	-0.339679
H64	H	-4.407107	-0.234337	-0.404851
H65	H	-4.348706	-0.216535	-0.285854
H66	H	-4.521687	-0.310773	-0.347343
H67	H	-4.051130	-0.258462	-0.337117
H68	H	-4.224369	-0.352657	-0.398579
H69	H	-3.851280	-0.220759	-0.825296
H70	H	-4.175297	-0.498152	-0.263205
O71	O	-3.757558	-0.865102	-0.247517
C72	C	-3.537417	-0.943056	-0.168172
C73	C	-3.724053	-0.901929	-0.173267
H74	H	-3.510296	-0.972856	-0.108155
H75	H	-3.395319	-0.896344	-0.165493
H76	H	-3.568560	-0.990465	-0.227141
H77	H	-3.693110	-0.854525	-0.114312
H78	H	-3.866090	-0.948688	-0.175988
H79	H	-4.399820	-0.723579	-0.265017
H80	H	-3.741777	-0.708877	-0.249712
O81	O	-3.552529	-0.095636	-0.689762
C82	C	-3.292980	-0.159466	-0.611749
C83	C	-3.524128	-0.163923	-0.650271
H84	H	-3.269941	-0.214676	-0.579828
H85	H	-3.228544	-0.103038	-0.562171
H86	H	-3.209314	-0.157405	-0.664791
H87	H	-3.607965	-0.166014	-0.597289
H88	H	-3.588407	-0.220343	-0.699870
O89	O	-3.490591	-0.489336	-0.247027
C90	C	-3.270430	-0.567280	-0.167676
C91	C	-3.457087	-0.526165	-0.172778
H92	H	-3.243309	-0.597081	-0.107659
H93	H	-3.128342	-0.520562	-0.164992
H94	H	-3.301548	-0.614687	-0.226645
H95	H	-3.426169	-0.478762	-0.113824
H96	H	-3.599115	-0.572931	-0.175504
H97	H	-4.331777	-0.110998	-0.817398
O98	O	-4.170816	-0.240183	-0.725299
C99	C	-4.152519	-0.360751	-0.661830
C100	C	-4.032014	-0.283027	-0.680080
H101	H	-4.040353	-0.395404	-0.625253
H102	H	-4.245004	-0.399362	-0.724889
H103	H	-4.261447	-0.344994	-0.621785
H104	H	-3.922979	-0.298710	-0.720099
H105	H	-3.939666	-0.244437	-0.616990
