data_functionalizedCrystal
_audit_creation_method	'MofGen! by Chris Wilmer'
_symmetry_space_group_name_H-M	'P1'
_symmetry_Int_Tables_number	1
_symmetry_cell_setting	triclinic
loop_
_symmetry_equiv_pos_as_xyz
  x,y,z
_cell_length_a	15.995292
_cell_length_b	15.995350
_cell_length_c	15.072220
_cell_angle_alpha	90.001101
_cell_angle_beta	89.986330
_cell_angle_gamma	83.480495
loop_
_atom_site_label
_atom_site_type_symbol
_atom_site_fract_x
_atom_site_fract_y
_atom_site_fract_z
O1	O	1.111026	0.107689	-0.073802
O2	O	1.611026	0.607689	0.426198
O3	O	0.867244	0.121068	-0.073798
O4	O	1.367244	0.621068	0.426202
O5	O	0.995799	-0.007511	-0.073799
O6	O	1.495799	0.492489	0.426201
O7	O	0.982471	0.236267	-0.073801
O8	O	1.482471	0.736267	0.426199
O9	O	0.995767	-0.007503	0.073766
O10	O	1.495767	0.492497	0.573766
O11	O	0.867213	0.121075	0.073767
O12	O	1.367213	0.621075	0.573767
O13	O	1.110994	0.107696	0.073763
O14	O	1.610994	0.607696	0.573763
Zn15	Zn	0.989098	0.114387	0.097194
Zn16	Zn	1.489098	0.614387	0.597194
Zn17	Zn	0.989140	0.114377	-0.097229
Zn18	Zn	1.489140	0.614377	0.402771
O19	O	0.982440	0.236275	0.073764
O20	O	1.482440	0.736275	0.573764
C21	C	0.836033	0.120527	-0.000015
C22	C	1.336033	0.620527	0.499985
C23	C	0.743080	0.118894	-0.000014
C24	C	1.243080	0.618894	0.499986
C25	C	0.405341	0.112893	-0.000024
C26	C	0.905341	0.612893	0.499976
C27	C	0.428654	0.205697	-0.000354
C28	C	0.928654	0.705697	0.499646
C29	C	0.525329	0.207461	-0.000017
C30	C	1.025329	0.707461	0.499983
C31	C	0.572897	0.115871	-0.000019
C32	C	1.072897	0.615871	0.499981
C33	C	0.543777	0.069477	0.084245
C34	C	1.043777	0.569477	0.584245
C35	C	0.446987	0.068360	0.084312
C36	C	0.946987	0.568360	0.584312
C37	C	0.447168	0.066457	-0.083497
C38	C	0.947168	0.566457	0.416503
C39	C	0.543660	0.069896	-0.084607
C40	C	1.043660	0.569896	0.415393
C41	C	0.667593	0.117549	-0.000014
C42	C	1.167593	0.617549	0.499986
C43	C	0.310646	0.111212	-0.000023
C44	C	0.810646	0.611212	0.499977
C45	C	0.995232	-0.038702	-0.000018
C46	C	1.495232	0.461298	0.499982
C47	C	0.993580	-0.131652	-0.000023
C48	C	1.493580	0.368348	0.499977
C49	C	0.987648	-0.469398	-0.000020
C50	C	1.487648	0.030602	0.499980
C51	C	0.896094	-0.421945	-0.000350
C52	C	1.396094	0.078055	0.499650
C53	C	0.897746	-0.325255	-0.000017
C54	C	1.397746	0.174745	0.499983
C55	C	0.990591	-0.301838	-0.000022
C56	C	1.490591	0.198162	0.499978
C57	C	1.035730	-0.342921	0.084242
C58	C	1.535730	0.157079	0.584242
C59	C	1.033430	-0.439556	0.084313
C60	C	1.533430	0.060444	0.584313
C61	C	1.035358	-0.439923	-0.083496
C62	C	1.535358	0.060077	0.416504
C63	C	1.035336	-0.342978	-0.084610
C64	C	1.535336	0.157022	0.415390
C65	C	0.992259	-0.207141	-0.000021
C66	C	1.492259	0.292859	0.499979
C67	C	0.985983	-0.564095	-0.000016
C68	C	1.485983	-0.064095	0.499984
C69	C	1.142206	0.108237	-0.000022
C70	C	1.642206	0.608237	0.499978
C71	C	1.235159	0.109870	-0.000029
C72	C	1.735159	0.609870	0.499971
C73	C	0.983006	0.267466	-0.000018
C74	C	1.483006	0.767466	0.499982
C75	C	0.984658	0.360416	-0.000019
C76	C	1.484658	0.860416	0.499981
N77	N	0.989076	0.114393	0.229883
N78	N	1.489076	0.614393	0.729883
N79	N	0.989169	0.114365	-0.229918
N80	N	1.489169	0.614365	0.270082
C81	C	0.989139	0.114374	0.589085
C82	C	1.489139	0.614374	1.089085
C83	C	0.920120	0.182943	0.551478
C84	C	1.420120	0.682943	1.051478
C85	C	0.920279	0.183193	0.448653
C86	C	1.420279	0.683193	0.948653
C87	C	0.989107	0.114383	0.410880
C88	C	1.489107	0.614383	0.910880
C89	C	1.076474	0.133447	0.448170
C90	C	1.576474	0.633447	0.948170
C91	C	1.076087	0.133934	0.551028
C92	C	1.576087	0.633934	1.051028
C93	C	0.971569	0.026538	0.551186
C94	C	1.471569	0.526538	1.051186
C95	C	0.969564	0.027124	0.448322
C96	C	1.469564	0.527124	0.948322
C97	C	0.989094	0.114387	0.310167
C98	C	1.489094	0.614387	0.810167
C99	C	0.989157	0.114372	0.689798
C100	C	1.489157	0.614372	1.189798
H101	H	0.432436	0.000316	0.088138
H102	H	0.932436	0.500316	0.588138
C103	C	0.588190	-0.020419	-0.091484
C104	C	1.088190	0.479581	0.408516
H105	H	0.625357	-0.031320	-0.042635
H106	H	1.125357	0.468680	0.457365
H107	H	0.619266	-0.026448	-0.145265
H108	H	1.119266	0.473552	0.354735
H109	H	0.547414	-0.059214	-0.090770
H110	H	1.047414	0.440786	0.409230
C111	C	0.935081	0.270510	0.586345
C112	C	1.435081	0.770510	1.086345
H113	H	0.893113	0.311568	0.563301
H114	H	1.393113	0.811568	1.063301
H115	H	0.989030	0.283186	0.567934
H116	H	1.489030	0.783186	1.067934
H117	H	0.932322	0.270803	0.649308
H118	H	1.432322	0.770803	1.149308
C119	C	0.935452	0.271240	0.415389
C120	C	1.435452	0.771240	0.915389
H121	H	0.935597	0.271695	0.352359
H122	H	1.435597	0.771695	0.852359
H123	H	0.988192	0.284693	0.436689
H124	H	1.488192	0.784693	0.936689
H125	H	0.891918	0.311653	0.436589
H126	H	1.391918	0.811653	0.936589
H127	H	0.433174	-0.001853	-0.084068
H128	H	0.933174	0.498147	0.415932
H129	H	1.016568	-0.026291	0.422614
H130	H	1.516568	0.473709	0.922614
H131	H	0.575645	0.002079	0.087377
H132	H	1.075645	0.502079	0.587377
C133	C	1.124227	-0.483147	0.089496
C134	C	1.624227	0.016853	0.589496
H135	H	1.123438	-0.542447	0.089572
H136	H	1.623438	-0.042447	0.589572
H137	H	1.150010	-0.466551	0.142442
H138	H	1.650010	0.033449	0.642442
H139	H	1.155246	-0.467343	0.039664
H140	H	1.655246	0.032657	0.539664
C141	C	0.570845	0.113010	0.168964
C142	C	1.070845	0.613010	0.668964
H143	H	0.599883	0.159451	0.153163
H144	H	1.099883	0.659451	0.653163
H145	H	0.606896	0.074113	0.203057
H146	H	1.106896	0.574113	0.703057
H147	H	0.522444	0.132341	0.202929
H148	H	1.022444	0.632341	0.702929
C149	C	0.551053	0.256552	-0.081609
C150	C	1.051053	0.756552	0.418391
H151	H	0.502376	0.275597	-0.115258
H152	H	1.002376	0.775597	0.384742
H153	H	0.588855	0.220821	-0.117263
H154	H	1.088855	0.720821	0.382737
H155	H	0.577783	0.303541	-0.062638
H156	H	1.077783	0.803541	0.437362
C157	C	1.039553	-0.042397	0.584042
C158	C	1.539553	0.457603	1.084042
H159	H	1.078461	-0.017815	0.620680
H160	H	1.578461	0.482185	1.120680
H161	H	1.068337	-0.068842	0.534576
H162	H	1.568337	0.431158	1.034576
H163	H	1.013801	-0.083053	0.617163
H164	H	1.513801	0.416947	1.117163
H165	H	0.400671	0.241465	-0.060784
H166	H	0.900671	0.741465	0.439216
H167	H	0.854969	0.171775	0.576241
H168	H	1.354969	0.671775	1.076241
H169	H	1.000488	-0.457848	0.147305
H170	H	1.500488	0.042152	0.647305
H171	H	0.862262	-0.296828	-0.060421
H172	H	1.362262	0.203172	0.439579
H173	H	0.859513	-0.440472	-0.060777
H174	H	1.359513	0.059528	0.439223
C175	C	0.409022	0.105728	-0.169780
C176	C	0.909022	0.605728	0.330220
H177	H	0.367226	0.150817	-0.155699
H178	H	0.867226	0.650817	0.344301
H179	H	0.384266	0.064264	-0.202687
H180	H	0.884266	0.564264	0.297313
H181	H	0.452043	0.126352	-0.204175
H182	H	0.952043	0.626352	0.295825
H183	H	0.859650	-0.441528	0.059742
H184	H	1.359650	0.058472	0.559742
H185	H	0.562243	0.103675	-0.146945
H186	H	1.062243	0.603675	0.353055
H187	H	1.004352	-0.314530	0.146953
H188	H	1.504352	0.185470	0.646953
H189	H	0.861997	-0.297380	0.060491
H190	H	1.361997	0.202620	0.560491
C191	C	0.994938	-0.467658	-0.169777
C192	C	1.494938	0.032342	0.330223
H193	H	0.948582	-0.497476	-0.155694
H194	H	1.448582	0.002524	0.344306
H195	H	1.035343	-0.503142	-0.202683
H196	H	1.535343	-0.003142	0.297317
H197	H	0.975930	-0.419457	-0.204174
H198	H	1.475930	0.080543	0.295826
H199	H	1.103044	-0.327630	-0.089702
H200	H	1.603044	0.172370	0.410298
C201	C	1.126544	-0.482853	-0.084276
C202	C	1.626544	0.017147	0.415724
H203	H	1.135530	-0.518571	-0.034006
H204	H	1.635530	-0.018571	0.465994
H205	H	1.164372	-0.441199	-0.082430
H206	H	1.664372	0.058801	0.417570
H207	H	1.135975	-0.515294	-0.136868
H208	H	1.635975	-0.015294	0.363132
C209	C	0.389442	0.253764	0.080820
C210	C	0.889442	0.753764	0.580820
H211	H	0.403829	0.309775	0.080107
H212	H	0.903829	0.809775	0.580107
H213	H	0.410321	0.226426	0.133591
H214	H	0.910321	0.726426	0.633591
H215	H	0.329975	0.254756	0.078827
H216	H	0.829975	0.754756	0.578827
C217	C	1.097891	0.218997	0.413367
C218	C	1.597891	0.718997	0.913367
H219	H	1.053709	0.243207	0.376123
H220	H	1.553709	0.743207	0.876123
H221	H	1.148852	0.211096	0.380490
H222	H	1.648852	0.711096	0.880490
H223	H	1.104307	0.255478	0.462026
H224	H	1.604307	0.755478	0.962026
H225	H	0.543720	0.244020	0.060489
H226	H	1.043720	0.744020	0.560489
C227	C	1.147520	0.067782	0.415116
C228	C	1.647520	0.567782	0.915116
H229	H	1.199780	0.080497	0.438451
H230	H	1.699780	0.580497	0.938451
H231	H	1.149520	0.068965	0.352143
H232	H	1.649520	0.568965	0.852143
H233	H	1.137093	0.013372	0.434377
H234	H	1.637093	0.513372	0.934377
H235	H	0.420156	0.100496	0.147302
H236	H	0.920156	0.600496	0.647302
C237	C	1.096992	0.220471	0.583429
C238	C	1.596992	0.720471	1.083429
H239	H	1.105636	0.254999	0.533730
H240	H	1.605636	0.754999	1.033730
H241	H	1.146621	0.213405	0.618512
H242	H	1.646621	0.713405	1.118512
H243	H	1.051600	0.246406	0.618021
H244	H	1.551600	0.746406	1.118021
C245	C	1.127873	-0.323855	0.088481
C246	C	1.627873	0.176145	0.588481
H247	H	1.139660	-0.290587	0.038781
H248	H	1.639660	0.209413	0.538781
H249	H	1.164180	-0.375149	0.087699
H250	H	1.664180	0.124851	0.587699
H251	H	1.136621	-0.294047	0.141576
H252	H	1.636621	0.205953	0.641576
C253	C	0.832546	0.167870	0.414591
C254	C	1.332546	0.667870	0.914591
H255	H	0.796486	0.161439	0.463618
H256	H	1.296486	0.661439	0.963618
H257	H	0.837140	0.118256	0.379454
H258	H	1.337140	0.618256	0.879454
H259	H	0.809877	0.214477	0.379702
H260	H	1.309877	0.714477	0.879702
C261	C	0.990819	-0.306092	-0.168826
C262	C	1.490819	0.193908	0.331174
H263	H	0.945156	-0.265784	-0.152515
H264	H	1.445156	0.234216	0.347485
H265	H	0.970259	-0.349989	-0.201913
H266	H	1.470259	0.150011	0.298087
H267	H	1.029579	-0.279726	-0.203999
H268	H	1.529579	0.220274	0.296001
H269	H	1.129050	0.085960	0.575902
H270	H	1.629050	0.585960	1.075902
H271	H	0.909244	0.008203	0.577177
H272	H	1.409244	0.508203	1.077177
C273	C	0.882743	0.007577	0.415406
C274	C	1.382743	0.507577	0.915406
H275	H	0.858502	0.052398	0.378991
H276	H	1.358502	0.552398	0.878991
H277	H	0.847126	0.001415	0.464857
H278	H	1.347126	0.501415	0.964857
H279	H	0.889043	-0.043139	0.382041
H280	H	1.389043	0.456861	0.882041
