data_functionalizedCrystal
_audit_creation_method	'MofGen! by Chris Wilmer'
_symmetry_space_group_name_H-M	'P1'
_symmetry_Int_Tables_number	1
_symmetry_cell_setting	triclinic
loop_
_symmetry_equiv_pos_as_xyz
  x,y,z
_cell_length_a	16.109301
_cell_length_b	16.109304
_cell_length_c	9.130307
_cell_angle_alpha	89.999978
_cell_angle_beta	90.001055
_cell_angle_gamma	83.462059
loop_
_atom_site_label
_atom_site_type_symbol
_atom_site_fract_x
_atom_site_fract_y
_atom_site_fract_z
O1	O	1.103130	0.106865	-0.121698
O2	O	0.861068	0.120164	-0.121720
O3	O	0.988747	-0.007516	-0.121709
O4	O	0.975450	0.234546	-0.121708
O5	O	0.988743	-0.007516	0.121890
O6	O	0.861063	0.120164	0.121879
O7	O	1.103125	0.106865	0.121901
Cu8	Cu	0.982094	0.113515	0.144133
Cu9	Cu	0.982099	0.113515	-0.143951
O10	O	0.975446	0.234545	0.121891
C11	C	0.830091	0.119626	0.000077
C12	C	0.737795	0.118010	0.000068
C13	C	0.988206	-0.038491	0.000087
C14	C	0.986590	-0.130786	0.000077
C15	C	0.515524	0.190018	0.000085
C16	C	0.428803	0.188494	0.000095
C17	C	0.448676	0.037005	0.000088
C18	C	0.535395	0.038530	0.000089
C19	C	0.568816	0.115039	0.000080
C20	C	0.395377	0.111990	0.000089
C21	C	0.301351	0.110337	0.000099
C22	C	0.662848	0.116693	0.000073
C23	C	1.134102	0.107404	0.000102
C24	C	1.226398	0.109019	0.000101
C25	C	0.982859	-0.343124	-0.132704
C26	C	0.981333	-0.429844	-0.132702
C27	C	0.981332	-0.429841	0.132883
C28	C	0.982852	-0.343121	0.132880
C29	C	0.983620	-0.299766	0.000082
C30	C	0.980573	-0.473205	0.000086
C31	C	0.978919	-0.567231	0.000089
C32	C	0.985273	-0.205734	0.000080
C33	C	0.975987	0.265520	0.000091
C34	C	0.977603	0.357816	0.000092
N35	N	0.982096	0.113514	0.346756
C36	C	1.095202	0.000486	0.346755
C37	C	1.151760	-0.056026	0.423422
C38	C	1.151768	-0.056026	0.576755
C39	C	1.095210	0.000490	0.653426
C40	C	1.038652	0.057002	0.576759
C41	C	1.038652	0.056997	0.423422
C42	C	0.925543	0.170025	0.576760
C43	C	0.925538	0.170030	0.423426
C44	C	0.868985	0.226541	0.653430
C45	C	0.812430	0.283058	0.576763
C46	C	0.812425	0.283056	0.423421
C47	C	0.868980	0.226542	0.346760
N48	N	0.982102	0.113513	0.653426
H49	H	0.385416	0.249550	0.000101
H50	H	0.421454	-0.025285	0.000104
O51	O	0.983682	-0.296348	0.276105
H52	H	0.982909	-0.341065	0.368448
O53	O	0.980491	-0.476609	-0.275920
H54	H	0.981277	-0.431888	-0.368256
O55	O	0.592885	-0.042343	0.000087
H56	H	0.555078	-0.095800	0.000073
H57	H	0.983482	-0.307825	-0.240836
O58	O	0.868994	0.226540	0.818811
H59	H	0.820162	0.275327	0.859241
O60	O	0.980529	-0.476605	0.276112
H61	H	0.979359	-0.544193	0.253808
O62	O	1.095192	0.000489	0.181374
H63	H	1.144016	-0.048305	0.140941
O64	O	1.212739	-0.117005	0.340733
H65	H	1.203231	-0.107518	0.221230
O66	O	1.212773	-0.116969	0.659461
H67	H	1.252105	-0.156264	0.580395
O68	O	1.095214	0.000494	0.818807
H69	H	1.144046	-0.048294	0.859237
O70	O	0.751435	0.344013	0.659450
H71	H	0.760943	0.334519	0.778951
O72	O	0.751424	0.344011	0.340729
H73	H	0.712106	0.383309	0.419808
O74	O	0.551570	0.272536	0.000108
H75	H	0.530154	0.308575	-0.099164
H76	H	0.868983	0.226538	0.221907
