data_functionalizedCrystal
_audit_creation_method	'MofGen! by Chris Wilmer'
_symmetry_space_group_name_H-M	'P1'
_symmetry_Int_Tables_number	1
_symmetry_cell_setting	triclinic
loop_
_symmetry_equiv_pos_as_xyz
  x,y,z
_cell_length_a	20.453700
_cell_length_b	19.551136
_cell_length_c	11.102300
_cell_angle_alpha	85.463034
_cell_angle_beta	108.605850
_cell_angle_gamma	78.349158
loop_
_atom_site_label
_atom_site_type_symbol
_atom_site_fract_x
_atom_site_fract_y
_atom_site_fract_z
V1	V	1.358828	-0.096676	0.396882
O2	O	1.357416	0.004646	0.388683
O3	O	1.339606	-0.191693	0.394787
O4	O	1.351268	-0.095189	0.569694
O5	O	1.345673	-0.092526	0.212566
V6	V	1.519327	-0.084557	0.374761
O7	O	1.447397	-0.123261	0.445406
O8	O	1.580824	-0.057972	0.326237
O9	O	1.464147	0.010460	0.376856
O10	O	1.559872	-0.185879	0.382960
O11	O	1.571615	-0.088707	0.559078
O12	O	1.452485	-0.086044	0.201950
V13	V	1.025495	-0.096676	0.396882
O14	O	1.024082	0.004646	0.388683
O15	O	1.006273	-0.191693	0.394787
O16	O	1.017935	-0.095189	0.569694
O17	O	1.012339	-0.092526	0.212566
V18	V	1.185994	-0.084557	0.374761
O19	O	1.114063	-0.123261	0.445406
O20	O	1.247491	-0.057972	0.326237
O21	O	1.130814	0.010460	0.376856
O22	O	1.226538	-0.185879	0.382960
O23	O	1.238282	-0.088707	0.559078
O24	O	1.119151	-0.086044	0.201950
C25	C	1.286911	-0.214856	0.388686
C26	C	1.298347	-0.292534	0.388125
V27	V	1.692162	-0.096676	0.396882
O28	O	1.690749	0.004646	0.388683
O29	O	1.672939	-0.191693	0.394787
O30	O	1.684602	-0.095189	0.569694
O31	O	1.679006	-0.092526	0.212566
V32	V	1.852660	-0.084557	0.374761
O33	O	1.780730	-0.123261	0.445406
O34	O	1.914158	-0.057972	0.326237
O35	O	1.797480	0.010460	0.376856
O36	O	1.893205	-0.185879	0.382960
O37	O	1.904948	-0.088707	0.559078
O38	O	1.785818	-0.086044	0.201950
C39	C	1.284869	-0.319024	0.271396
C40	C	1.295637	-0.392009	0.270829
C41	C	1.319869	-0.438500	0.386998
C42	C	1.333352	-0.412002	0.503744
C43	C	1.322591	-0.339019	0.504307
C44	C	1.312218	-0.559511	0.471230
C45	C	1.322974	-0.632491	0.470661
C46	C	1.353063	-0.663604	0.385265
C47	C	1.372383	-0.621724	0.300416
C48	C	1.361622	-0.548741	0.300980
C49	C	1.331540	-0.517638	0.386400
C50	C	1.351260	-0.769232	0.267914
C51	C	1.362033	-0.842218	0.267353
C52	C	1.399742	-0.862210	0.500270
C53	C	1.388976	-0.789225	0.500828
C54	C	1.364732	-0.742740	0.384646
C55	C	1.301787	-0.091755	0.611795
C56	C	1.322680	-0.091168	0.753073
C57	C	1.404623	0.033619	0.382954
C58	C	1.386266	0.111296	0.383523
C59	C	1.389747	-0.089481	0.159842
C60	C	1.361933	-0.090064	0.018562
C61	C	0.953577	-0.214856	0.388686
C62	C	0.965014	-0.292534	0.388125
C63	C	1.393411	-0.094382	0.825943
C64	C	1.413037	-0.093828	0.958688
C65	C	1.291196	-0.086848	0.945682
C66	C	1.271569	-0.087397	0.812938
C67	C	0.968453	-0.091755	0.611795
C68	C	0.989346	-0.091168	0.753073
C69	C	1.071289	0.033619	0.382954
C70	C	1.052933	0.111296	0.383523
C71	C	1.056413	-0.089481	0.159842
C72	C	1.028600	-0.090064	0.018562
C73	C	1.620244	-0.214856	0.388686
C74	C	1.631680	-0.292534	0.388125
C75	C	1.635120	-0.091755	0.611795
C76	C	1.656013	-0.091168	0.753073
C77	C	1.737956	0.033619	0.382954
C78	C	1.719599	0.111296	0.383523
C79	C	1.723080	-0.089481	0.159842
C80	C	1.695266	-0.090064	0.018562
C81	C	1.031299	-0.332575	0.394235
C82	C	1.042057	-0.405563	0.393727
C83	C	0.986528	-0.438509	0.387101
C84	C	0.920238	-0.398462	0.380995
C85	C	0.909482	-0.325476	0.381511
C86	C	1.101644	0.151337	0.377417
C87	C	1.084401	0.224324	0.377931
C88	C	1.018448	0.257270	0.384560
C89	C	0.969733	0.217224	0.390663
C90	C	0.986974	0.144238	0.390140
C91	C	1.697965	-0.332575	0.394235
C92	C	1.708724	-0.405563	0.393727
C93	C	1.653194	-0.438509	0.387101
C94	C	1.586904	-0.398462	0.380995
C95	C	1.576149	-0.325476	0.381511
C96	C	1.768310	0.151337	0.377417
C97	C	1.751067	0.224324	0.377931
C98	C	1.685115	0.257270	0.384560
C99	C	1.636399	0.217224	0.390663
C100	C	1.653641	0.144238	0.390140
C101	C	1.060077	-0.094382	0.825943
C102	C	1.079704	-0.093828	0.958688
C103	C	0.957862	-0.086848	0.945682
C104	C	0.938236	-0.087397	0.812938
C105	C	1.726744	-0.094382	0.825943
C106	C	1.746371	-0.093828	0.958688
C107	C	1.624529	-0.086848	0.945682
C108	C	1.604902	-0.087397	0.812938
H109	H	1.265133	-0.281180	0.176791
O110	O	1.504651	-0.282293	0.374916
H111	H	1.482742	-0.241411	0.287778
H112	H	1.096037	-0.438159	0.398696
O113	O	1.781866	-0.098433	0.761371
H114	H	1.824066	-0.147840	0.803853
O115	O	1.528607	-0.083920	0.734323
H116	H	1.525961	-0.131843	0.687393
O117	O	0.902771	-0.082933	1.010303
H118	H	0.850298	-0.080836	0.937340
H119	H	1.762703	-0.438159	0.398696
O120	O	1.489327	-0.097289	1.037276
H121	H	1.510400	-0.145045	1.111958
H122	H	1.399946	-0.767657	0.595882
H123	H	1.582920	-0.083780	0.994441
H124	H	1.671084	0.316700	0.384984
O125	O	1.664804	-0.517230	0.386539
H126	H	1.615059	-0.533419	0.380913
H127	H	1.582700	0.244059	0.396059
H128	H	1.213968	-0.084775	0.753604
H129	H	1.803965	-0.096444	1.018013
H130	H	1.396878	-0.647052	0.230871
H131	H	1.541696	-0.425298	0.375600
H132	H	1.137298	-0.096444	1.018013
O133	O	1.757872	-0.297059	0.401398
H134	H	1.741810	-0.256523	0.314866
O135	O	0.860348	-0.434002	0.373840
H136	H	0.843171	-0.425759	0.457961
H137	H	1.101696	-0.097451	0.777205
O138	O	1.601105	0.101051	0.396754
H139	H	1.552355	0.136225	0.401468
H140	H	0.947307	0.111641	0.395123
O141	O	1.281089	-0.420593	0.144923
H142	H	1.315510	-0.404439	0.093921
O143	O	1.382421	-0.503562	0.209425
H144	H	1.405141	-0.537450	0.149930
O145	O	1.325121	-0.719087	0.142614
H146	H	1.317569	-0.749772	0.061347
H147	H	1.351061	-0.863784	0.172295
H148	H	0.880635	-0.084775	0.753604
H149	H	1.155350	0.124523	0.372020
O150	O	1.425879	-0.912342	0.625573
H151	H	1.431095	-0.967543	0.605573
H152	H	1.435029	-0.097451	0.777205
H153	H	1.822016	0.124523	0.372020
H154	H	1.307240	-0.666584	0.539747
H155	H	0.855504	-0.292879	0.376530
O156	O	1.136953	0.267503	0.371357
H157	H	1.113888	0.323792	0.372817
O158	O	1.803623	0.267505	0.371394
H159	H	1.852386	0.232327	0.366734
O160	O	0.999866	0.335989	0.385151
H161	H	1.001134	0.364230	0.295480
O162	O	1.279759	-0.525954	0.563333
H163	H	1.268120	-0.567333	0.622220
H164	H	0.995295	-0.497939	0.386681
O165	O	1.236072	-0.082793	1.010252
H166	H	1.261603	-0.082960	1.114803
H167	H	1.333569	-0.317453	0.599365
O168	O	1.359491	-0.462140	0.629045
H169	H	1.364704	-0.517340	0.609043
O170	O	1.091201	-0.297051	0.401409
H171	H	1.139099	-0.337167	0.405594
H172	H	0.916033	0.244059	0.396059
