data_functionalizedCrystal
_audit_creation_method	'MofGen! by Chris Wilmer'
_symmetry_space_group_name_H-M	'P1'
_symmetry_Int_Tables_number	1
_symmetry_cell_setting	triclinic
loop_
_symmetry_equiv_pos_as_xyz
  x,y,z
_cell_length_a	14.044220
_cell_length_b	16.109301
_cell_length_c	14.586319
_cell_angle_alpha	89.994786
_cell_angle_beta	90.001391
_cell_angle_gamma	88.325179
loop_
_atom_site_label
_atom_site_type_symbol
_atom_site_fract_x
_atom_site_fract_y
_atom_site_fract_z
O1	O	1.257643	0.200436	-0.076149
O2	O	1.757643	0.700436	0.423851
O3	O	0.981677	0.193203	-0.076172
O4	O	1.481677	0.693203	0.423828
O5	O	1.127241	0.076352	-0.076150
O6	O	1.627241	0.576352	0.423850
O7	O	1.112079	0.317286	-0.076170
O8	O	1.612079	0.817286	0.423830
O9	O	1.127231	0.076350	0.076331
O10	O	1.627231	0.576350	0.576331
O11	O	0.981666	0.193200	0.076309
O12	O	1.481666	0.693200	0.576309
O13	O	1.257633	0.200433	0.076332
O14	O	1.757633	0.700433	0.576332
Cu15	Cu	1.119649	0.196816	0.090243
Cu16	Cu	1.619649	0.696816	0.590243
Cu17	Cu	1.119661	0.196820	-0.090083
Cu18	Cu	1.619661	0.696820	0.409917
O19	O	1.112069	0.317284	0.076311
O20	O	1.612069	0.817284	0.576311
C21	C	1.126622	0.045330	0.000091
C22	C	1.626622	0.545330	0.500091
C23	C	1.124781	-0.047102	0.000092
C24	C	1.624781	0.452898	0.500092
C25	C	0.946358	0.190036	0.000066
C26	C	1.446358	0.690036	0.500066
C27	C	0.841135	0.180592	0.000058
C28	C	1.341135	0.680592	0.500058
C29	C	1.206874	-0.263266	0.000084
C30	C	1.706874	0.236734	0.500084
C31	C	1.205137	-0.350116	0.000076
C32	C	1.705137	0.149884	0.500076
C33	C	1.032429	-0.343091	0.000066
C34	C	1.532429	0.156909	0.500066
C35	C	1.034168	-0.256243	0.000067
C36	C	1.534168	0.243757	0.500067
C37	C	1.121393	-0.216333	0.000081
C38	C	1.621393	0.283667	0.500081
C39	C	1.117917	-0.390031	0.000072
C40	C	1.617917	0.109969	0.500072
C41	C	1.116032	-0.484197	0.000064
C42	C	1.616032	0.015803	0.500064
C43	C	1.123278	-0.122161	0.000087
C44	C	1.623278	0.377839	0.500087
C45	C	0.648479	0.163326	0.000077
C46	C	1.148479	0.663326	0.500077
C47	C	0.590825	0.230306	0.000075
C48	C	1.090825	0.730306	0.500075
C49	C	0.483625	0.220699	0.000086
C50	C	0.983625	0.720699	0.500086
C51	C	0.755690	0.172932	0.000066
C52	C	1.255690	0.672932	0.500066
C53	C	1.292952	0.203600	0.000093
C54	C	1.792952	0.703600	0.500093
C55	C	1.398175	0.213044	0.000095
C56	C	1.898175	0.713044	0.500095
C57	C	1.112688	0.348306	0.000068
C58	C	1.612688	0.848306	0.500068
C59	C	1.114529	0.440738	0.000061
C60	C	1.614529	0.940738	0.500061
N61	N	1.119647	0.196814	0.217075
N62	N	1.619647	0.696814	0.717075
N63	N	1.119670	0.196816	-0.216915
N64	N	1.619670	0.696816	0.283085
C65	C	1.184125	0.145093	0.452091
C66	C	1.684125	0.645093	0.952091
C67	C	1.184128	0.145092	0.548072
C68	C	1.684128	0.645092	1.048072
C69	C	1.055186	0.248539	0.548063
C70	C	1.555186	0.748539	1.048063
C71	C	1.055179	0.248536	0.452083
C72	C	1.555179	0.748536	0.952083
C73	C	1.119654	0.196814	0.404100
C74	C	1.619654	0.696814	0.904100
C75	C	1.119663	0.196816	0.596061
C76	C	1.619663	0.696816	1.096061
C77	C	1.119666	0.196814	0.700128
C78	C	1.619666	0.696814	1.200128
C79	C	1.119651	0.196815	0.300026
C80	C	1.619651	0.696815	0.800026
H81	H	1.274744	-0.388326	0.000077
H82	H	1.774744	0.111674	0.500077
C83	C	0.632896	0.317520	0.000056
C84	C	1.132896	0.817520	0.500056
H85	H	0.582623	0.358281	0.000060
H86	H	1.082623	0.858281	0.500060
H87	H	0.671000	0.324039	-0.053122
H88	H	1.171000	0.824039	0.446878
H89	H	0.671012	0.324046	0.053231
H90	H	1.171012	0.824046	0.553231
H91	H	0.617330	0.098774	0.000087
H92	H	1.117330	0.598774	0.500087
C93	C	1.255035	0.088195	0.399312
C94	C	1.755035	0.588195	0.899312
H95	H	1.293425	0.057386	0.441644
H96	H	1.793425	0.557386	0.941644
H97	H	1.294480	0.121042	0.361863
H98	H	1.794480	0.621042	0.861863
H99	H	1.220940	0.051037	0.361880
H100	H	1.720940	0.551037	0.861880
H101	H	1.236624	0.102975	0.587144
H102	H	1.736624	0.602975	1.087144
H103	H	1.002675	0.290653	0.413006
H104	H	1.502675	0.790653	0.913006
H105	H	1.002693	0.290650	0.587140
H106	H	1.502693	0.790650	1.087140
C107	C	1.302815	-0.219364	0.000092
C108	C	1.802815	0.280636	0.500092
H109	H	1.291610	-0.160918	0.000102
H110	H	1.791610	0.339082	0.500102
H111	H	1.338012	-0.235035	-0.053079
H112	H	1.838012	0.264965	0.446921
H113	H	1.338006	-0.235047	0.053274
H114	H	1.838006	0.264953	0.553274
H115	H	0.964554	-0.218029	0.000061
H116	H	1.464554	0.281971	0.500061
C117	C	0.936490	-0.386995	0.000063
C118	C	1.436490	0.113005	0.500063
H119	H	0.947695	-0.445441	0.000073
H120	H	1.447695	0.054559	0.500073
H121	H	0.901291	-0.371317	-0.053110
H122	H	1.401291	0.128683	0.446890
H123	H	0.901298	-0.371321	0.053244
H124	H	1.401298	0.128679	0.553244
