data_functionalizedCrystal
_audit_creation_method	'MofGen! by Chris Wilmer'
_symmetry_space_group_name_H-M	'P1'
_symmetry_Int_Tables_number	1
_symmetry_cell_setting	triclinic
loop_
_symmetry_equiv_pos_as_xyz
  x,y,z
_cell_length_a	12.759401
_cell_length_b	13.897447
_cell_length_c	12.759393
_cell_angle_alpha	90.030719
_cell_angle_beta	90.018202
_cell_angle_gamma	90.019691
loop_
_atom_site_label
_atom_site_type_symbol
_atom_site_fract_x
_atom_site_fract_y
_atom_site_fract_z
Zn1	Zn	1.606217	-0.383967	0.593978
Zn2	Zn	1.606097	-0.545292	0.418296
Zn3	Zn	1.430520	-0.384013	0.418317
Zn4	Zn	1.430493	-0.545222	0.593938
O5	O	1.518332	-0.464624	0.506132
O6	O	1.753222	-0.405377	0.570681
O7	O	1.582768	-0.523947	0.271278
O8	O	1.453888	-0.249026	0.441644
O9	O	1.753134	-0.523902	0.441609
O10	O	1.582972	-0.248991	0.570701
O11	O	1.453772	-0.405456	0.271293
O12	O	1.283495	-0.405388	0.441605
O13	O	1.453842	-0.523782	0.740964
O14	O	1.283475	-0.523827	0.570633
O15	O	1.582946	-0.405309	0.740993
O16	O	1.582742	-0.680265	0.441570
O17	O	1.453726	-0.680213	0.570613
C18	C	1.245364	-0.464606	0.506118
C19	C	1.128588	-0.464622	0.506137
C20	C	1.073743	-0.526392	0.573210
C21	C	0.964019	-0.526404	0.573222
C22	C	0.963994	-0.402873	0.439077
C23	C	1.073716	-0.402857	0.439072
C24	C	1.128614	-0.588156	0.640275
C25	C	1.073769	-0.649932	0.707354
C26	C	0.964045	-0.649944	0.707365
C27	C	0.909166	-0.588181	0.640298
C28	C	1.518246	-0.715238	0.506108
C29	C	1.518306	-0.822452	0.506132
C30	C	1.518357	-0.909522	0.506156
C31	C	1.518430	-1.018754	0.506183
C32	C	1.792365	-0.464642	0.506147
C33	C	1.909142	-0.464650	0.506153
C34	C	1.518404	-0.464532	0.780166
C35	C	1.518435	-0.464493	0.896942
C36	C	1.518446	-0.213031	0.506180
C37	C	1.518495	-0.105817	0.506200
C38	C	1.518320	-0.464645	0.233165
C39	C	1.518493	-0.464412	0.116389
C40	C	1.585641	-0.526122	1.061525
C41	C	1.585610	-0.526165	0.951801
C42	C	1.451279	-0.402781	0.951813
C43	C	1.451306	-0.402743	1.061535
C44	C	1.652828	-0.587790	1.116378
C45	C	1.719983	-0.649504	1.061515
C46	C	1.719951	-0.649547	0.951791
C47	C	1.652766	-0.587877	0.896930
H48	H	1.217957	-0.588155	0.640272
O49	O	0.910643	-0.343026	0.373810
C50	C	0.847126	-0.397884	0.305871
H51	H	0.880178	-0.473842	0.299244
H52	H	0.763979	-0.401255	0.338348
C53	C	0.804819	-0.257355	0.204875
C54	C	0.845419	-0.350646	0.196730
H55	H	0.803761	-0.228215	0.137553
H56	H	0.847608	-0.220395	0.250649
H57	H	0.735534	-0.260177	0.231944
H58	H	0.914707	-0.347822	0.169674
H59	H	0.802641	-0.387605	0.150948
H60	H	1.652733	-0.587929	0.807585
O61	O	1.785126	-0.709629	0.898611
C62	C	1.762117	-0.805757	0.925390
H63	H	1.721749	-0.807724	1.005053
H64	H	1.708074	-0.838269	0.863629
C65	C	1.914100	-0.861768	0.832616
C66	C	1.864527	-0.864185	0.930463
H67	H	1.977269	-0.897811	0.835741
H68	H	1.929599	-0.797006	0.814571
H69	H	1.869053	-0.888860	0.781159
H70	H	1.909568	-0.837083	0.981915
H71	H	1.849037	-0.928945	0.948517
O72	O	1.386124	-0.342904	0.898362
C73	C	1.400483	-0.356187	0.789754
H74	H	1.481544	-0.387790	0.774772
H75	H	1.338134	-0.407559	0.758602
C76	C	1.291329	-0.219793	0.751839
C77	C	1.390893	-0.258601	0.733436
H78	H	1.285409	-0.159599	0.717097
H79	H	1.281651	-0.210846	0.825010
H80	H	1.239382	-0.262612	0.725878
H81	H	1.442837	-0.215787	0.759408
H82	H	1.400579	-0.267538	0.660268
O83	O	1.386048	-0.342708	1.114674
C84	C	1.326729	-0.288297	1.042734
H85	H	1.369742	-0.284980	0.964523
H86	H	1.246918	-0.323621	1.031053
C87	C	1.258810	-0.189696	1.181641
C88	C	1.311644	-0.185616	1.085583
H89	H	1.249500	-0.126359	1.208073
H90	H	1.298771	-0.226356	1.230109
H91	H	1.192307	-0.219137	1.171893
H92	H	1.378150	-0.156187	1.095334
H93	H	1.271694	-0.148949	1.037117
H94	H	1.118372	-0.352551	0.384462
H95	H	1.118459	-0.700211	0.761963
H96	H	0.819822	-0.588187	0.640322
O97	O	1.785209	-0.709317	1.114964
C98	C	1.770824	-0.696065	1.223573
H99	H	1.736450	-0.621617	1.238567
H100	H	1.714861	-0.753265	1.254703
C101	C	1.919358	-0.796322	1.261489
C102	C	1.877148	-0.704881	1.279906
H103	H	1.984942	-0.801765	1.296240
H104	H	1.929048	-0.805254	1.188318
H105	H	1.872713	-0.843979	1.287431
H106	H	1.923786	-0.657227	1.253953
H107	H	1.867468	-0.695941	1.353075
H108	H	1.652864	-0.587760	1.205721
H109	H	0.919394	-0.700238	0.761991
