data_functionalizedCrystal
_audit_creation_method	'MofGen! by Chris Wilmer'
_symmetry_space_group_name_H-M	'P1'
_symmetry_Int_Tables_number	1
_symmetry_cell_setting	triclinic
loop_
_symmetry_equiv_pos_as_xyz
  x,y,z
_cell_length_a	12.759401
_cell_length_b	12.827892
_cell_length_c	12.827885
_cell_angle_alpha	89.972922
_cell_angle_beta	90.019639
_cell_angle_gamma	89.981145
loop_
_atom_site_label
_atom_site_type_symbol
_atom_site_fract_x
_atom_site_fract_y
_atom_site_fract_z
Zn1	Zn	1.606234	0.415938	0.590875
Zn2	Zn	1.606121	0.590716	0.416144
Zn3	Zn	1.430536	0.415994	0.416148
Zn4	Zn	1.430516	0.590642	0.590843
O5	O	1.518352	0.503323	0.503502
O6	O	1.753240	0.439130	0.567708
O7	O	1.582790	0.567593	0.269908
O8	O	1.453899	0.269751	0.439340
O9	O	1.753157	0.567539	0.439334
O10	O	1.582983	0.269709	0.567712
O11	O	1.453789	0.439226	0.269911
O12	O	1.283513	0.439154	0.439310
O13	O	1.453864	0.567413	0.737084
O14	O	1.283498	0.567468	0.567658
O15	O	1.582963	0.439059	0.737107
O16	O	1.582771	0.736942	0.439303
O17	O	1.453755	0.736888	0.567654
C18	C	1.245384	0.503310	0.503482
C19	C	1.128608	0.503329	0.503498
C20	C	1.073766	0.570244	0.570223
C21	C	0.964042	0.570248	0.570244
C22	C	0.964011	0.436420	0.436804
C23	C	1.073734	0.436412	0.436790
C24	C	1.518277	0.774832	0.503498
C25	C	1.518341	0.890986	0.503531
C26	C	1.582256	0.942762	0.440092
C27	C	1.582324	1.062813	0.440124
C28	C	1.792385	0.503336	0.503524
C29	C	1.909162	0.503342	0.503533
C30	C	1.518424	0.503221	0.776073
C31	C	1.518455	0.503178	0.892226
C32	C	1.518447	1.230752	0.503543
C33	C	1.518466	1.114599	0.503592
C34	C	1.518340	0.503348	0.231992
C35	C	1.518513	0.503097	0.115840
C36	C	1.454593	0.566666	0.943999
C37	C	1.454624	0.566623	1.064050
H38	H	1.118387	0.381915	0.382454
F39	F	1.383152	0.637666	1.122242
F40	F	1.132163	0.641461	0.641222
H41	H	1.463675	0.935534	0.557871
F42	F	0.905679	0.641465	0.641265
H43	H	1.573185	0.448735	1.071323
F44	F	1.589956	0.432094	0.950453
F45	F	1.653844	1.121009	0.369126
F46	F	0.905601	0.365207	0.365812
H47	H	1.636931	0.898216	0.385758
H48	H	1.463738	1.070080	0.557904
H49	H	1.399900	0.621057	0.899447
