data_functionalizedCrystal
_audit_creation_method	'MofGen! by Chris Wilmer'
_symmetry_space_group_name_H-M	'P1'
_symmetry_Int_Tables_number	1
_symmetry_cell_setting	triclinic
loop_
_symmetry_equiv_pos_as_xyz
  x,y,z
_cell_length_a	12.811438
_cell_length_b	12.837942
_cell_length_c	9.798715
_cell_angle_alpha	90.002842
_cell_angle_beta	84.571030
_cell_angle_gamma	89.413151
loop_
_atom_site_label
_atom_site_type_symbol
_atom_site_fract_x
_atom_site_fract_y
_atom_site_fract_z
O1	O	1.406632	0.139704	-0.060630
O2	O	1.102569	0.154888	-0.022989
O3	O	1.247858	-0.003636	-0.040983
O4	O	1.261343	0.298228	-0.042635
O5	O	1.247846	-0.003637	-0.267963
O6	O	1.102557	0.154887	-0.249969
O7	O	1.406620	0.139703	-0.287610
Zn8	Zn	1.254587	0.147295	-0.304828
Zn9	Zn	1.254602	0.147296	-0.005771
O10	O	1.261331	0.298227	-0.269616
C11	C	1.063374	0.154036	-0.131628
C12	C	0.946603	0.151486	-0.117172
C13	C	0.782022	0.147891	0.026914
C14	C	0.891739	0.150287	0.013343
C15	C	0.891741	0.150285	-0.234125
C16	C	0.782024	0.147890	-0.220555
C17	C	0.727168	0.146694	-0.090031
C18	C	0.617448	0.144306	-0.076461
C19	C	0.617452	0.144297	-0.323929
C20	C	0.727170	0.146693	-0.337499
C21	C	1.243297	-0.042277	-0.153908
C22	C	1.229711	-0.157412	-0.152224
C23	C	1.393039	-0.397664	-0.172415
C24	C	1.380279	-0.505845	-0.170833
C25	C	1.191431	-0.481958	-0.147469
C26	C	1.204191	-0.373777	-0.149051
C27	C	1.304999	-0.331634	-0.161526
C28	C	1.317758	-0.223451	-0.163118
C29	C	1.128911	-0.199566	-0.139744
C30	C	1.116151	-0.307747	-0.138162
C31	C	1.445815	0.140555	-0.178968
C32	C	1.562586	0.143106	-0.193415
C33	C	1.265892	0.336868	-0.156687
C34	C	1.279478	0.452004	-0.158362
N35	N	1.254583	0.147293	-0.508927
C36	C	1.321257	0.207178	-0.584955
C37	C	1.321274	0.207177	-0.742120
N38	N	1.254613	0.147290	0.198327
H39	H	0.572786	0.143337	0.029818
H40	H	1.378330	0.258444	-0.533692
H41	H	0.572778	0.143327	-0.419154
C42	C	1.503927	-0.351305	-0.186145
N43	N	1.587449	-0.316388	-0.196486
C44	C	1.428647	-0.177096	-0.176837
N45	N	1.512172	-0.142184	-0.187164
H46	H	0.936397	0.151262	0.108572
H47	H	0.936424	0.151247	-0.340392
C48	C	1.477131	-0.578475	-0.182821
N49	N	1.550085	-0.633180	-0.191853
C50	C	1.398392	0.276442	-0.830402
N51	N	1.456481	0.328614	-0.896900
C52	C	0.787522	0.148055	-0.481068
N53	N	0.832977	0.149101	-0.589207
H54	H	1.109358	-0.516290	-0.137297
H55	H	1.034076	-0.342075	-0.128000
C56	C	1.177539	0.077971	-0.713405
N57	N	1.119504	0.025739	-0.646913
H58	H	1.197517	0.096020	-0.560191
H59	H	1.057222	-0.145792	-0.130889
C60	C	0.721678	0.146583	0.170489
N61	N	0.676228	0.145597	0.278633
