data_functionalizedCrystal
_audit_creation_method	'MofGen! by Chris Wilmer'
_symmetry_space_group_name_H-M	'P1'
_symmetry_Int_Tables_number	1
_symmetry_cell_setting	triclinic
loop_
_symmetry_equiv_pos_as_xyz
  x,y,z
_cell_length_a	13.033808
_cell_length_b	21.295417
_cell_length_c	13.032268
_cell_angle_alpha	97.140648
_cell_angle_beta	103.297372
_cell_angle_gamma	97.225669
loop_
_atom_site_label
_atom_site_type_symbol
_atom_site_fract_x
_atom_site_fract_y
_atom_site_fract_z
Zn1	Zn	1.547375	-0.162224	-0.394581
Zn2	Zn	2.047375	0.337776	0.105419
Zn3	Zn	1.569796	-0.252200	-0.216982
Zn4	Zn	2.069796	0.247800	0.283018
Zn5	Zn	1.392329	-0.162269	-0.239520
Zn6	Zn	1.892329	0.337731	0.260480
Zn7	Zn	1.369704	-0.282790	-0.417041
Zn8	Zn	1.869704	0.217210	0.082959
O9	O	1.469801	-0.214871	-0.317031
O10	O	1.969801	0.285129	0.182969
O11	O	1.698976	-0.161339	-0.352190
O12	O	2.198976	0.338661	0.147810
O13	O	1.565107	-0.227487	-0.071353
O14	O	2.065107	0.272513	0.428647
O15	O	1.412981	-0.074170	-0.260122
O16	O	1.912981	0.425830	0.239878
O17	O	1.715449	-0.227444	-0.221709
O18	O	2.215449	0.272556	0.278291
O19	O	1.526893	-0.074137	-0.374045
O20	O	2.026893	0.425863	0.125955
O21	O	1.434722	-0.161415	-0.087912
O22	O	1.934722	0.338585	0.412088
O23	O	1.240701	-0.191077	-0.281901
O24	O	1.740701	0.308923	0.218099
O25	O	1.374421	-0.279579	-0.562681
O26	O	1.874421	0.220421	-0.062681
O27	O	1.224079	-0.279623	-0.412325
O28	O	1.724079	0.220377	0.087675
O29	O	1.504955	-0.191001	-0.546179
O30	O	2.004955	0.308999	-0.046179
O31	O	1.543169	-0.344351	-0.243488
O32	O	2.043169	0.155649	0.256512
O33	O	1.396162	-0.366825	-0.390470
O34	O	1.896162	0.133175	0.109530
C35	C	1.193852	-0.238675	-0.351996
C36	C	1.693852	0.261325	0.148004
C37	C	1.075797	-0.248875	-0.366980
C38	C	1.575797	0.251125	0.133020
C39	C	1.469669	-0.378429	-0.316990
C40	C	1.969669	0.121571	0.183010
C41	C	1.469706	-0.448395	-0.316996
C42	C	1.969706	0.051605	0.183004
C43	C	0.909332	-0.220102	-0.324717
C44	C	1.409332	0.279898	0.175283
C45	C	1.031348	-0.209559	-0.309227
C46	C	1.531348	0.290441	0.190773
C47	C	1.546303	-0.469539	-0.240524
C48	C	2.046303	0.030461	0.259476
C49	C	1.546350	-0.535280	-0.240541
C50	C	2.046350	-0.035280	0.259459
C51	C	1.469782	-0.579874	-0.317022
C52	C	1.969782	-0.079874	0.182978
C53	C	1.393177	-0.558723	-0.393508
C54	C	1.893177	-0.058723	0.106492
C55	C	1.393139	-0.492984	-0.393494
C56	C	1.893139	0.007016	0.106506
N57	N	1.375841	-0.691856	-0.336891
N58	N	1.875841	-0.191856	0.163109
N59	N	1.375881	-0.754305	-0.336897
N60	N	1.875881	-0.254305	0.163103
C61	C	1.469893	-0.777943	-0.317068
C62	C	1.969893	-0.277943	0.182932
N63	N	1.563868	-0.736772	-0.297211
N64	N	2.063868	-0.236772	0.202789
N65	N	1.563827	-0.674317	-0.297200
N66	N	2.063827	-0.174317	0.202800
C67	C	1.469815	-0.651158	-0.317045
C68	C	1.969815	-0.151158	0.182955
C69	C	1.546548	-0.870370	-0.240611
C70	C	2.046548	-0.370370	0.259389
C71	C	1.546595	-0.936112	-0.240635
C72	C	2.046595	-0.436112	0.259365
C73	C	1.393413	-0.959554	-0.393597
C74	C	1.893413	-0.459554	0.106403
C75	C	1.393374	-0.893813	-0.393577
C76	C	1.893374	-0.393813	0.106423
C77	C	1.469941	-0.849225	-0.317078
C78	C	1.969941	-0.349225	0.182922
C79	C	1.746827	-0.190975	-0.281930
C80	C	2.246827	0.309025	0.218070
C81	C	1.864879	-0.180791	-0.266972
C82	C	2.364879	0.319209	0.233028
C83	C	1.434663	-0.238697	-0.594042
C84	C	1.934663	0.261303	-0.094042
C85	C	1.419690	-0.248851	-0.712088
C86	C	1.919690	0.251149	-0.212088
C87	C	1.469959	-0.050673	-0.317092
C88	C	1.969959	0.449327	0.182908
C89	C	1.470027	0.019298	-0.317118
C90	C	1.970027	0.519298	0.182882
C91	C	1.477599	-0.209550	-0.756552
C92	C	1.977599	0.290450	-0.256552
C93	C	1.462125	-0.220044	-0.878558
C94	C	1.962125	0.279956	-0.378558
C95	C	1.504863	-0.191086	-0.041090
C96	C	2.004863	0.308914	0.458910
C97	C	1.520043	-0.180738	0.076981
C98	C	2.020043	0.319262	0.576981
H99	H	0.857057	-0.261564	-0.385617
H100	H	1.357057	0.238436	0.114383
H101	H	1.083620	-0.168098	-0.248314
H102	H	1.583620	0.331902	0.251686
Cl103	Cl	0.945580	-0.116780	-0.172930
Cl104	Cl	1.445580	0.383220	0.327070
Cl105	Cl	1.614299	-0.116798	-0.842350
Cl106	Cl	2.114299	0.383202	-0.342350
Cl107	Cl	1.297070	-0.867231	-0.489714
Cl108	Cl	1.797070	-0.367231	0.010286
Cl109	Cl	1.325447	-0.312791	-0.792762
Cl110	Cl	1.825447	0.187209	-0.292762
Cl111	Cl	1.642572	-0.413489	-0.144368
Cl112	Cl	2.142572	0.086511	0.355632
H113	H	1.330836	-0.595036	-0.455780
H114	H	1.830836	-0.095036	0.044220
H115	H	1.023527	-0.290340	-0.427887
H116	H	1.523527	0.209660	0.072113
H117	H	1.608729	-0.552499	-0.178269
H118	H	2.108729	-0.052499	0.321731
H119	H	1.330763	-0.475769	-0.455768
H120	H	1.830763	0.024231	0.044232
H121	H	1.608896	-0.834064	-0.178323
H122	H	2.108896	-0.334064	0.321677
Cl123	Cl	1.642906	-0.962693	-0.144497
Cl124	Cl	2.142906	-0.462693	0.355503
Cl125	Cl	1.297161	-1.015610	-0.489752
Cl126	Cl	1.797161	-0.515610	0.010248
Cl127	Cl	1.571810	-0.145593	-0.675882
Cl128	Cl	2.071810	0.354407	-0.175882
H129	H	1.401079	-0.261458	-0.930813
H130	H	1.901079	0.238542	-0.430813
