data_functionalizedCrystal
_audit_creation_method	'MofGen! by Chris Wilmer'
_symmetry_space_group_name_H-M	'P1'
_symmetry_Int_Tables_number	1
_symmetry_cell_setting	triclinic
loop_
_symmetry_equiv_pos_as_xyz
  x,y,z
_cell_length_a	18.215407
_cell_length_b	13.031981
_cell_length_c	18.215399
_cell_angle_alpha	82.788957
_cell_angle_beta	89.980167
_cell_angle_gamma	97.192004
loop_
_atom_site_label
_atom_site_type_symbol
_atom_site_fract_x
_atom_site_fract_y
_atom_site_fract_z
Zn1	Zn	1.087918	-0.416110	-0.378877
Zn2	Zn	1.587918	0.083890	0.121123
Zn3	Zn	1.072220	-0.590902	-0.240168
Zn4	Zn	1.572220	-0.090902	0.259832
Zn5	Zn	0.964848	-0.416144	-0.255822
Zn6	Zn	1.464848	0.083856	0.244178
Zn7	Zn	0.949215	-0.590844	-0.363199
Zn8	Zn	1.449215	-0.090844	0.136801
O9	O	1.018550	-0.503500	-0.309516
O10	O	1.518550	-0.003500	0.190484
O11	O	1.188819	-0.439306	-0.360488
O12	O	1.688819	0.060694	0.139512
O13	O	1.057949	-0.567758	-0.139257
O14	O	1.557949	-0.067758	0.360743
O15	O	0.994285	-0.269876	-0.285258
O16	O	1.494285	0.230124	0.214742
O17	O	1.177285	-0.567725	-0.258579
O18	O	1.677285	-0.067725	0.241421
O19	O	1.084705	-0.269851	-0.375666
O20	O	1.584705	0.230149	0.124334
O21	O	0.979063	-0.439364	-0.150757
O22	O	1.479063	0.060636	0.349243
O23	O	0.859791	-0.439308	-0.270055
O24	O	1.359791	0.060692	0.229945
O25	O	0.967642	-0.567626	-0.468266
O26	O	1.467642	-0.067626	0.031734
O27	O	0.848305	-0.567659	-0.348944
O28	O	1.348305	-0.067659	0.151056
O29	O	1.069546	-0.439250	-0.479785
O30	O	1.569546	0.060750	0.020215
O31	O	1.042790	-0.737158	-0.243376
O32	O	1.542790	-0.237158	0.256624
O33	O	0.952419	-0.737115	-0.333766
O34	O	1.452419	-0.237115	0.166234
C35	C	0.827345	-0.503482	-0.309497
C36	C	1.327345	-0.003482	0.190503
C37	C	0.745545	-0.503499	-0.309504
C38	C	1.245545	-0.003499	0.190496
C39	C	0.551380	-0.570437	-0.350513
C40	C	1.051380	-0.070437	0.149487
C41	C	0.474521	-0.570440	-0.350522
C42	C	0.974521	-0.070440	0.149478
C43	C	0.486470	-0.436581	-0.268534
C44	C	0.986470	0.063419	0.231466
C45	C	0.563328	-0.436574	-0.268530
C46	C	1.063328	0.063426	0.231470
C47	C	0.595781	-0.503507	-0.309518
C48	C	1.095781	-0.003507	0.190482
C49	C	0.442064	-0.503518	-0.309531
C50	C	0.942064	-0.003518	0.190469
C51	C	0.358730	-0.503521	-0.309540
C52	C	0.858730	-0.003521	0.190460
C53	C	0.679120	-0.503503	-0.309510
C54	C	1.179120	-0.003503	0.190490
C55	C	0.994225	-0.775061	-0.285187
C56	C	1.494225	-0.275061	0.214813
C57	C	0.983886	-0.891236	-0.274803
C58	C	1.483886	-0.391236	0.225197
C59	C	1.023985	-0.942934	-0.314950
C60	C	1.523985	-0.442934	0.185050
C61	C	1.013300	-1.063007	-0.304219
C62	C	1.513300	-0.563007	0.195781
C63	C	1.210501	-0.503518	-0.309536
C64	C	1.710501	-0.003518	0.190464
C65	C	1.292299	-0.503526	-0.309545
C66	C	1.792299	-0.003526	0.190455
C67	C	1.018601	-0.503428	-0.501476
C68	C	1.518601	-0.003428	-0.001476
C69	C	1.018623	-0.503397	-0.583278
C70	C	1.518623	-0.003397	-0.083278
C71	C	1.042990	-0.230878	-0.333957
C72	C	1.542990	0.269122	0.166043
C73	C	1.053405	-0.114703	-0.344372
C74	C	1.553405	0.385297	0.155628
C75	C	1.071707	-0.436489	-0.777476
C76	C	1.571707	0.063511	-0.277476
C77	C	1.071719	-0.436458	-0.854338
C78	C	1.571719	0.063542	-0.354338
C79	C	0.965605	-0.570143	-0.842331
C80	C	1.465605	-0.070143	-0.342331
C81	C	0.965591	-0.570168	-0.765472
C82	C	1.465591	-0.070168	-0.265472
C83	C	1.018646	-0.503342	-0.733046
C84	C	1.518646	-0.003342	-0.233046
C85	C	1.018672	-0.503287	-0.886767
C86	C	1.518672	-0.003287	-0.386767
C87	C	1.018684	-0.503255	-0.970104
C88	C	1.518684	-0.003255	-0.470104
C89	C	1.018634	-0.503373	-0.649704
C90	C	1.518634	-0.003373	-0.149704
C91	C	1.018548	-0.503496	-0.118311
C92	C	1.518548	-0.003496	0.381689
C93	C	1.018695	-0.503232	-0.036536
C94	C	1.518695	-0.003232	0.463464
H95	H	1.066223	-0.898304	-0.357269
H96	H	1.566223	-0.398304	0.142731
O97	O	0.962801	-1.116191	-0.253815
O98	O	1.462801	-0.616191	0.246185
C99	C	0.891790	-1.089644	-0.272174
C100	C	1.391790	-0.589644	0.227826
H101	H	0.890703	-1.059515	-0.333635
H102	H	1.390703	-0.559515	0.166365
H103	H	0.849083	-1.161535	-0.259422
H104	H	1.349083	-0.661535	0.240578
H105	H	0.878164	-1.026420	-0.238309
H106	H	1.378164	-0.526420	0.261691
H107	H	0.599481	-0.382065	-0.235147
H108	H	1.099481	0.117935	0.264853
O109	O	0.914078	-0.635016	-0.722202
O110	O	1.414078	-0.135016	-0.222202
C111	C	0.925454	-0.620722	-0.647410
C112	C	1.425454	-0.120722	-0.147410
H113	H	0.956784	-0.540064	-0.644154
H114	H	1.456784	-0.040064	-0.144154
H115	H	0.869690	-0.627815	-0.617551
H116	H	1.369690	-0.127815	-0.117551
H117	H	0.959084	-0.682726	-0.620045
H118	H	1.459084	-0.182726	-0.120045
H119	H	1.114907	-0.382072	-0.751078
H120	H	1.614907	0.117928	-0.251078
H121	H	0.577801	-0.624936	-0.383890
H122	H	1.077801	-0.124936	0.116110
H123	H	1.114926	-0.382018	-0.890510
H124	H	1.614926	0.117982	-0.390510
O125	O	0.431496	-0.635556	-0.390358
O126	O	0.931496	-0.135556	0.109642
C127	C	0.476626	-0.694607	-0.426547
C128	C	0.976626	-0.194607	0.073453
H129	H	0.531080	-0.698167	-0.396074
H130	H	1.031080	-0.198167	0.103926
H131	H	0.447046	-0.776974	-0.426926
H132	H	0.947046	-0.276974	0.073074
H133	H	0.488245	-0.656432	-0.485902
H134	H	0.988245	-0.156432	0.014098
H135	H	1.095646	-1.070076	-0.386694
H136	H	1.595646	-0.570076	0.113306
O137	O	0.933389	-0.944424	-0.224402
O138	O	1.433389	-0.444424	0.275598
C139	C	0.862379	-0.917877	-0.242761
C140	C	1.362379	-0.417877	0.257239
H141	H	0.861291	-0.887748	-0.304222
H142	H	1.361291	-0.387748	0.195778
H143	H	0.819671	-0.989767	-0.230009
H144	H	1.319671	-0.489767	0.269991
H145	H	0.848752	-0.854652	-0.208896
H146	H	1.348752	-0.354652	0.291104
O147	O	0.914146	-0.635026	-0.873948
O148	O	1.414146	-0.135026	-0.373948
C149	C	0.925524	-0.620653	-0.951315
C150	C	1.425524	-0.120653	-0.451315
H151	H	0.985388	-0.586422	-0.964893
H152	H	1.485388	-0.086422	-0.464893
H153	H	0.913521	-0.698935	-0.973503
H154	H	1.413521	-0.198935	-0.473503
H155	H	0.886865	-0.564984	-0.978110
H156	H	1.386865	-0.064984	-0.478110
H157	H	0.460037	-0.382088	-0.235162
H158	H	0.960037	0.117912	0.264838
