data_functionalizedCrystal
_audit_creation_method	'MofGen! by Chris Wilmer'
_symmetry_space_group_name_H-M	'P1'
_symmetry_Int_Tables_number	1
_symmetry_cell_setting	triclinic
loop_
_symmetry_equiv_pos_as_xyz
  x,y,z
_cell_length_a	15.297327
_cell_length_b	15.298068
_cell_length_c	15.298259
_cell_angle_alpha	91.587309
_cell_angle_beta	88.343348
_cell_angle_gamma	110.796215
loop_
_atom_site_label
_atom_site_type_symbol
_atom_site_fract_x
_atom_site_fract_y
_atom_site_fract_z
Zn1	Zn	-0.016726	1.250186	-0.729757
Zn2	Zn	0.483274	1.750186	-0.229757
Zn3	Zn	-0.190346	1.241196	-0.607365
Zn4	Zn	0.309654	1.741196	-0.107365
Zn5	Zn	-0.067966	1.118939	-0.565017
Zn6	Zn	0.432034	1.618939	-0.065017
Zn7	Zn	-0.199110	1.067715	-0.729617
Zn8	Zn	0.300890	1.567715	-0.229617
O9	O	-0.118537	1.169509	-0.657939
O10	O	0.381463	1.669509	-0.157939
O11	O	-0.014645	1.376523	-0.731303
O12	O	0.485355	1.876523	-0.231303
O13	O	-0.191888	1.242653	-0.481640
O14	O	0.308112	1.742653	0.018360
O15	O	0.066375	1.161548	-0.569206
O16	O	0.566375	1.661548	-0.069206
O17	O	-0.142203	1.369919	-0.641382
O18	O	0.357797	1.869919	-0.141382
O19	O	0.104021	1.257975	-0.690240
O20	O	0.604021	1.757975	-0.190240
O21	O	-0.101976	1.152831	-0.450527
O22	O	0.398024	1.652831	0.049473
O23	O	-0.110475	0.984614	-0.569070
O24	O	0.389525	1.484614	-0.069070
O25	O	-0.157140	1.074245	-0.849743
O26	O	0.342860	1.574245	-0.349743
O27	O	-0.206826	0.946980	-0.690001
O28	O	0.293174	1.446980	-0.190001
O29	O	-0.023144	1.208306	-0.849846
O30	O	0.476856	1.708306	-0.349846
O31	O	-0.319053	1.192984	-0.641246
O32	O	0.180947	1.692984	-0.141246
O33	O	-0.325492	1.065528	-0.731064
O34	O	0.174508	1.565528	-0.231064
C35	C	-0.165162	0.932729	-0.624925
C36	C	0.334838	1.432729	-0.124925
C37	C	-0.185127	0.831427	-0.610825
C38	C	0.314873	1.331427	-0.110825
C39	C	0.023930	0.559506	-0.758747
C40	C	0.523930	1.059506	-0.258747
C41	C	0.042686	0.654683	-0.772000
C42	C	0.542686	1.154683	-0.272000
C43	C	-0.014265	0.698874	-0.731708
C44	C	0.485735	1.198874	-0.231708
C45	C	-0.089977	0.647877	-0.678160
C46	C	0.410023	1.147877	-0.178160
C47	C	-0.108740	0.552689	-0.664911
C48	C	0.391260	1.052689	-0.164911
C49	C	-0.146935	0.692057	-0.637871
C50	C	0.353065	1.192057	-0.137871
C51	C	-0.222647	0.641060	-0.584324
C52	C	0.277353	1.141060	-0.084324
C53	C	-0.241405	0.545881	-0.571077
C54	C	0.258595	1.045881	-0.071077
C55	C	-0.184454	0.501691	-0.611370
C56	C	0.315546	1.001691	-0.111370
C57	C	-0.128172	0.787246	-0.651120
C58	C	0.371828	1.287246	-0.151120
C59	C	-0.260841	0.780429	-0.557284
C60	C	0.239159	1.280429	-0.057284
C61	C	-0.279598	0.685251	-0.544031
C62	C	0.220402	1.185251	-0.044031
C63	C	-0.355335	1.122744	-0.690758
C64	C	0.144665	1.622744	-0.190758
C65	C	-0.456618	1.102817	-0.704838
C66	C	0.043382	1.602817	-0.204838
C67	C	-0.728520	1.312264	-0.557651
C68	C	-0.228520	1.812264	-0.057651
C69	C	-0.633360	1.330986	-0.544417
C70	C	-0.133360	1.830986	-0.044417
C71	C	-0.589170	1.273946	-0.584521
C72	C	-0.089170	1.773946	-0.084521
C73	C	-0.640149	1.198179	-0.637861
C74	C	-0.140149	1.698179	-0.137861
C75	C	-0.735319	1.179450	-0.651090
C76	C	-0.235319	1.679450	-0.151090
C77	C	-0.595969	1.141132	-0.677961
C78	C	-0.095969	1.641132	-0.177961
C79	C	-0.646948	1.065365	-0.731301
C80	C	-0.146948	1.565365	-0.231301
C81	C	-0.742109	1.046640	-0.744528
C82	C	-0.242109	1.546640	-0.244528
C83	C	-0.786299	1.103680	-0.704424
C84	C	-0.286299	1.603680	-0.204424
C85	C	-0.500799	1.159861	-0.664732
C86	C	-0.000799	1.659861	-0.164732
C87	C	-0.507598	1.027047	-0.758171
C88	C	-0.007598	1.527047	-0.258171
C89	C	-0.602757	1.008325	-0.771405
C90	C	-0.102757	1.508325	-0.271405
C91	C	0.119194	1.216478	-0.625015
C92	C	0.619194	1.716478	-0.125015
C93	C	0.220500	1.236494	-0.610984
C94	C	0.720500	1.736494	-0.110984
C95	C	-0.085404	1.136564	-0.881807
C96	C	0.414596	1.636564	-0.381807
C97	C	-0.071285	1.122525	-0.977207
C98	C	0.428715	1.622525	-0.477207
C99	C	-0.071731	1.407213	-0.691082
C100	C	0.428269	1.907213	-0.191082
C101	C	-0.051785	1.508508	-0.705206
C102	C	0.448215	2.008508	-0.205206
C103	C	-0.218742	1.270016	-1.310911
C104	C	0.281258	1.770016	-0.810911
C105	C	-0.232014	1.283200	-1.221279
C106	C	0.267986	1.783200	-0.721279
C107	C	-0.191833	1.243033	-1.160257
C108	C	0.308167	1.743033	-0.660257
C109	C	-0.138377	1.189678	-1.188875
C110	C	0.361623	1.689678	-0.688875
C111	C	-0.125109	1.176486	-1.278516
C112	C	0.374891	1.676486	-0.778516
C113	C	-0.098200	1.149504	-1.127862
C114	C	0.401800	1.649504	-0.627862
C115	C	-0.044745	1.096149	-1.156480
C116	C	0.455255	1.596149	-0.656480
C117	C	-0.031479	1.082960	-1.246112
C118	C	0.468521	1.582960	-0.746112
C119	C	-0.071660	1.123127	-1.307135
C120	C	0.428340	1.623127	-0.807135
C121	C	-0.111468	1.162695	-1.038220
C122	C	0.388532	1.662695	-0.538220
C123	C	-0.017836	1.069166	-1.005825
C124	C	0.482164	1.569166	-0.505825
C125	C	-0.004563	1.055982	-1.095458
C126	C	0.495437	1.555982	-0.595458
C127	C	-0.151465	1.202391	-0.434940
C128	C	0.348535	1.702391	0.065060
C129	C	-0.165293	1.216657	-0.339530
C130	C	0.334707	1.716657	0.160470
H131	H	-0.066526	0.828758	-0.694718
H132	H	0.433474	1.328758	-0.194718
Cl133	Cl	-0.666855	0.913077	-0.838457
Cl134	Cl	-0.166855	1.413077	-0.338457
H135	H	0.001014	0.776373	-0.742498
H136	H	0.501014	1.276373	-0.242498
Cl137	Cl	-0.452054	0.955330	-0.808585
Cl138	Cl	0.047946	1.455330	-0.308585
H139	H	0.104328	0.696197	-0.815602
H140	H	0.604328	1.196197	-0.315602
Cl141	Cl	0.035679	1.015841	-1.282088
Cl142	Cl	0.535679	1.515841	-0.782088
H143	H	-0.511687	1.289194	-0.573742
H144	H	-0.011687	1.789194	-0.073742
H145	H	-0.307220	0.816407	-0.524479
H146	H	0.192780	1.316407	-0.024479
Cl147	Cl	-0.336584	0.481774	-0.503757
Cl148	Cl	0.163416	0.981774	-0.003757
H149	H	-0.199727	0.424187	-0.600589
H150	H	0.300273	0.924187	-0.100589
H151	H	-0.764510	1.358693	-0.524998
H152	H	-0.264510	1.858693	-0.024998
H153	H	-0.863785	1.088442	-0.715198
H154	H	-0.363785	1.588442	-0.215198
Cl155	Cl	0.062635	0.988908	-1.131446
Cl156	Cl	0.562635	1.488908	-0.631446
Cl157	Cl	0.032667	1.018653	-0.929117
Cl158	Cl	0.532667	1.518653	-0.429117
Cl159	Cl	0.095506	0.503944	-0.809406
Cl160	Cl	0.595506	1.003944	-0.309406
H161	H	-0.341244	0.643716	-0.500433
H162	H	0.158756	1.143716	-0.000433
H163	H	-0.591857	1.392674	-0.500988
H164	H	-0.091857	1.892674	-0.000988
Cl165	Cl	-0.806195	0.951386	-0.811579
Cl166	Cl	-0.306195	1.451386	-0.311579
H167	H	-0.459300	1.221551	-0.621302
H168	H	0.040700	1.721551	-0.121302
H169	H	-0.275548	1.326631	-1.197985
H170	H	0.224452	1.826631	-0.697985
H171	H	-0.154986	1.206144	-1.014929
H172	H	0.345014	1.706144	-0.514929
Cl173	Cl	-0.208514	1.259614	-1.047575
Cl174	Cl	0.291486	1.759614	-0.547575
H175	H	-0.251460	1.302706	-1.360602
H176	H	0.248540	1.802706	-0.860602
H177	H	-0.060854	1.112398	-1.380122
H178	H	0.439146	1.612398	-0.880122
