data_functionalizedCrystal
_audit_creation_method	'MofGen! by Chris Wilmer'
_symmetry_space_group_name_H-M	'P1'
_symmetry_Int_Tables_number	1
_symmetry_cell_setting	triclinic
loop_
_symmetry_equiv_pos_as_xyz
  x,y,z
_cell_length_a	20.919287
_cell_length_b	23.196402
_cell_length_c	23.196401
_cell_angle_alpha	60.007332
_cell_angle_beta	86.857711
_cell_angle_gamma	58.217450
loop_
_atom_site_label
_atom_site_type_symbol
_atom_site_fract_x
_atom_site_fract_y
_atom_site_fract_z
Zr1	Zr	0.616795	0.630980	-0.106252
O2	O	0.514560	0.751242	-0.193224
O3	O	0.648127	0.510719	-0.079593
O4	O	0.648108	0.630982	-0.199858
O5	O	0.514604	0.630978	0.021912
O6	O	0.753464	0.630982	-0.205088
O7	O	0.514579	0.630979	-0.072959
O8	O	0.753497	0.415854	0.010044
O9	O	0.514571	0.846106	-0.193220
O10	O	0.740126	0.560184	-0.072124
O11	O	0.661519	0.560183	0.002580
O12	O	0.661497	0.701777	-0.139016
O13	O	0.582891	0.701775	-0.064312
Zr14	Zr	0.784866	0.630979	0.036713
Zr15	Zr	0.784826	0.630981	-0.114594
Zr16	Zr	0.616836	0.630978	0.045055
Zr17	Zr	0.616812	0.782277	-0.106247
Zr18	Zr	0.784849	0.479681	0.036708
O19	O	0.753535	0.751240	0.010054
O20	O	0.753477	0.751243	-0.205085
O21	O	0.514617	0.751239	0.021915
O22	O	0.887101	0.510716	0.123685
O23	O	0.887044	0.510720	-0.091454
O24	O	0.648184	0.510715	0.135546
O25	O	0.887057	0.630981	-0.091450
O26	O	0.753553	0.630977	0.130319
O27	O	0.648197	0.630977	0.135550
O28	O	0.887083	0.630979	0.003420
O29	O	0.648132	0.846107	-0.199851
O30	O	0.753529	0.415852	0.130312
O31	O	0.887091	0.415852	0.123682
O32	O	0.887059	0.415854	0.003413
O33	O	0.514603	0.846105	-0.072952
O34	O	0.648164	0.846105	-0.079582
O35	O	0.740164	0.560182	0.069477
O36	O	0.818771	0.560183	-0.005226
O37	O	0.740142	0.701776	-0.072119
O38	O	0.661535	0.701775	0.002585
C39	C	0.700809	0.441730	-0.034775
C40	C	0.700802	0.377500	-0.034777
C41	C	0.758858	0.295071	0.014601
C42	C	0.758863	0.234710	0.014607
C43	C	0.700819	0.256784	-0.034776
C44	C	0.642753	0.339227	-0.084159
C45	C	0.642744	0.399585	-0.084159
C46	C	0.682730	0.201198	-0.097670
C47	C	0.682743	0.140839	-0.097670
C48	C	0.700840	0.070622	-0.034774
C49	C	0.718940	0.060763	0.028125
C50	C	0.718931	0.121121	0.028124
C51	C	0.700821	0.191342	-0.034781
C52	C	0.758905	-0.077260	0.014615
C53	C	0.758905	-0.137620	0.014622
C54	C	0.642797	-0.033100	-0.084150
C55	C	0.642794	0.027257	-0.084151
C56	C	0.700852	0.005172	-0.034769
C57	C	0.490651	0.630978	-0.024335
C58	C	0.419317	0.630978	-0.020794
C59	C	0.385791	0.630981	-0.071396
C60	C	0.318768	0.630977	-0.068065
C61	C	0.285270	0.630975	-0.014134
C62	C	0.318802	0.630970	0.036473
C63	C	0.385827	0.630968	0.033145
C64	C	0.082902	0.630974	-0.001466
C65	C	0.015871	0.630978	0.001857
C66	C	0.015842	0.630983	-0.102681
C67	C	0.082865	0.630987	-0.106007
C68	C	0.116394	0.630977	-0.055398
C69	C	0.216760	0.630973	-0.010729
C70	C	0.184906	0.630973	-0.058800
C71	C	0.911011	0.630980	-0.045204
C72	C	0.982344	0.630981	-0.048745
C73	C	0.700780	0.630982	-0.224031
C74	C	0.700763	0.630983	-0.288265
C75	C	0.700852	0.820229	-0.034763
C76	C	0.700859	0.884459	-0.034761
C77	C	0.659724	0.704891	-0.353355
C78	C	0.659744	0.704892	-0.413712
C79	C	0.700792	0.630981	-0.408973
C80	C	0.741841	0.557064	-0.343871
C81	C	0.741826	0.557065	-0.283517
C82	C	0.694956	0.574355	-0.476002
C83	C	0.694965	0.574357	-0.536356
C84	C	0.700842	0.630975	-0.595123
C85	C	0.706694	0.687605	-0.593534
C86	C	0.706680	0.687606	-0.533180
C87	C	0.700813	0.630972	-0.474413
C88	C	0.659822	0.704889	-0.725661
C89	C	0.659848	0.704887	-0.786017
C90	C	0.741940	0.557057	-0.716174
C91	C	0.741920	0.557061	-0.655820
C92	C	0.700856	0.630979	-0.660568
C93	C	0.700881	0.630976	0.154493
C94	C	0.700898	0.630975	0.218726
C95	C	0.910990	0.441730	-0.045210
C96	C	0.982316	0.377501	-0.048753
C97	C	0.700860	0.441727	0.154487
C98	C	0.700870	0.377496	0.218718
C99	C	0.911040	0.441728	0.144052
C100	C	0.982383	0.377497	0.204742
C101	C	0.490621	0.820231	-0.213591
C102	C	0.419278	0.884462	-0.274281
C103	C	0.490672	0.820228	-0.024329
C104	C	0.419346	0.884458	-0.020785
C105	C	0.700802	0.820232	-0.224025
C106	C	0.700792	0.884463	-0.288257
C107	C	0.974759	0.347339	-0.085343
C108	C	1.041771	0.286997	-0.088686
C109	C	1.116339	0.256814	-0.055435
C110	C	1.123893	0.286983	-0.018844
C111	C	1.056882	0.347328	-0.015505
C112	C	0.741926	0.347332	0.283808
C113	C	0.741932	0.286989	0.344167
C114	C	0.700886	0.256807	0.339433
C115	C	0.659825	0.286977	0.274337
C116	C	0.659815	0.347323	0.213980
C117	C	1.056925	0.347335	0.194248
C118	C	1.123966	0.286992	0.251267
C119	C	1.116463	0.256809	0.318780
C120	C	1.041912	0.286977	0.329273
C121	C	0.974873	0.347323	0.272255
C122	C	0.344736	0.914631	-0.263787
C123	C	0.277695	0.974993	-0.320806
C124	C	0.285198	1.005180	-0.388318
C125	C	0.359749	0.975007	-0.398812
C126	C	0.426788	0.914651	-0.341793
C127	C	0.426902	0.914626	0.015798
C128	C	0.359890	0.974985	0.019125
C129	C	0.285323	1.005170	-0.014129
C130	C	0.277768	0.974998	-0.050717
C131	C	0.344779	0.914645	-0.054047
C132	C	0.741846	0.914626	-0.283502
C133	C	0.741852	0.974970	-0.343849
C134	C	0.700799	1.005153	-0.408951
C135	C	0.659744	0.974984	-0.413705
C136	C	0.659743	0.914637	-0.353358
H137	H	0.733666	0.113090	0.079339
C138	C	0.614621	1.008165	-0.485326
N139	N	0.580643	1.033152	-0.539273
C140	C	0.786970	0.475757	-0.211912
N141	N	0.820970	0.414514	-0.157977
H142	H	1.184615	0.262399	0.008227
H143	H	0.338611	0.890057	-0.208820
H144	H	0.595523	0.094377	-0.124364
H145	H	1.171057	0.207671	0.365202
C146	C	0.508783	0.881461	-0.353349
N147	N	0.570542	0.856464	-0.362058
C148	C	0.179928	0.630932	0.048612
N149	N	0.152193	0.630883	0.093316
C150	C	0.578880	0.490265	-0.138486
N151	N	0.530778	0.558566	-0.179407
C152	C	0.738844	-0.016473	0.097316
N153	N	0.753836	-0.074648	0.149429
C154	C	0.822719	0.270772	0.068927
N155	N	0.870819	0.252470	0.109847
C156	C	0.614682	0.253763	0.269142
N157	N	0.580684	0.228740	0.265231
C158	C	0.700914	0.190416	0.405834
N159	N	0.700941	0.140407	0.455850
C160	C	0.368218	1.008156	0.059382
N161	N	0.374493	1.033136	0.089705
C162	C	0.211615	1.071557	-0.010455
N163	N	0.156102	1.121557	-0.007683
H164	H	0.914049	0.371913	-0.112430
C165	C	0.614656	0.380487	0.142382
N166	N	0.580642	0.405463	0.088455
H167	H	0.338616	0.890083	-0.083836
H168	H	1.170897	0.207677	-0.058158
C169	C	1.033672	0.253760	0.403543
N170	N	1.027467	0.228734	0.459485
H171	H	0.806140	0.167584	0.054819
C172	C	1.065198	0.380530	0.119989
N173	N	1.071436	0.405532	0.064058
H174	H	0.914180	0.371873	0.280809
C175	C	1.033444	0.253816	-0.128933
N176	N	1.027169	0.228823	-0.159245
C177	C	0.367990	1.008214	-0.473082
N178	N	0.374194	1.033222	-0.529024
H179	H	1.184662	0.262435	0.242711
H180	H	0.626387	0.765078	-0.729528
H181	H	1.063046	0.371878	0.014294
C182	C	0.787078	0.380526	0.289032
N183	N	0.821084	0.405528	0.292972
C184	C	0.195697	1.008170	-0.309248
N185	N	0.133938	1.033157	-0.300540
C186	C	0.211445	1.071567	-0.451033
N187	N	0.155891	1.121567	-0.498268
H188	H	0.775372	0.262432	0.397165
H189	H	0.413058	0.630988	-0.115315
C190	C	0.508920	0.881438	0.052379
N191	N	0.570695	0.856449	0.079931
C192	C	0.195736	1.008199	-0.087281
N193	N	0.133948	1.033201	-0.114815
H194	H	0.626308	0.890085	-0.357240
C195	C	0.787013	1.008148	-0.338604
N196	N	0.821028	1.033137	-0.334651
C197	C	0.787015	0.881431	-0.211895
N198	N	0.821044	0.856429	-0.157963
H199	H	0.806175	-0.095244	0.054828
H200	H	0.806180	-0.204740	0.054836
C201	C	0.578904	0.363507	-0.138481
N202	N	0.530810	0.381797	-0.179398
H203	H	0.700806	1.054291	-0.458084
H204	H	0.668009	0.148872	-0.148886
C205	C	0.578946	-0.008814	-0.138472
N206	N	0.530851	0.009476	-0.179388
C207	C	0.119711	0.630982	-0.165332
N208	N	0.147464	0.630979	-0.210017
C209	C	0.281904	0.630958	-0.123722
N210	N	0.254143	0.630935	-0.165641
C211	C	0.662823	0.278435	-0.166865
N212	N	0.647830	0.336608	-0.218981
H213	H	-0.011401	0.630977	0.045777
C214	C	0.281971	0.630933	0.095815
N215	N	0.254236	0.630897	0.140516
C216	C	-0.021041	0.630984	-0.158343
N217	N	-0.048818	0.630980	-0.200267
H218	H	0.413125	0.630964	0.074351
C219	C	0.614595	0.786200	-0.485322
N220	N	0.580588	0.847441	-0.539257
H221	H	0.110195	0.630968	0.039741
H222	H	0.626290	0.765081	-0.357228
C223	C	0.713128	0.749889	-0.531431
N224	N	0.717989	0.796799	-0.530113
H225	H	0.212184	0.630970	-0.102709
H226	H	0.690196	0.528249	-0.537645
C227	C	0.713163	0.749887	-0.658175
N228	N	0.718034	0.796797	-0.706864
C229	C	0.787058	0.475755	-0.584215
N230	N	0.821058	0.414512	-0.530281
H231	H	0.626431	0.765074	-0.839018
H232	H	0.775364	0.496877	-0.712314
H233	H	0.690165	0.528251	-0.428156
H234	H	0.775264	0.496885	-0.340016
