data_functionalizedCrystal
_audit_creation_method	'MofGen! by Chris Wilmer'
_symmetry_space_group_name_H-M	'P1'
_symmetry_Int_Tables_number	1
_symmetry_cell_setting	triclinic
loop_
_symmetry_equiv_pos_as_xyz
  x,y,z
_cell_length_a	8.559649
_cell_length_b	7.681481
_cell_length_c	8.597304
_cell_angle_alpha	103.491353
_cell_angle_beta	102.375399
_cell_angle_gamma	94.912555
loop_
_atom_site_label
_atom_site_type_symbol
_atom_site_fract_x
_atom_site_fract_y
_atom_site_fract_z
O1	O	-2.105021	0.140796	-0.037135
O2	O	-1.605021	0.640796	0.462865
O3	O	-1.639815	0.153286	0.045186
O4	O	-1.139815	0.653286	0.545186
O5	O	-1.885141	0.111598	-0.229572
O6	O	-1.385141	0.611598	0.270428
O7	O	-1.859695	0.182484	0.237623
O8	O	-1.359695	0.682484	0.737623
O9	O	-1.915337	-0.186401	-0.263458
O10	O	-1.415337	0.313599	0.236542
O11	O	-1.670010	-0.144713	0.011299
O12	O	-1.170010	0.355287	0.511299
O13	O	-2.135217	-0.157203	-0.071021
O14	O	-1.635217	0.342797	0.428979
Zn15	Zn	-1.907408	-0.198272	-0.035241
Zn16	Zn	-1.407408	0.301728	0.464759
Zn17	Zn	-1.867624	0.194355	0.009406
Zn18	Zn	-1.367624	0.694355	0.509406
O19	O	-1.889890	-0.115515	0.203737
O20	O	-1.389890	0.384485	0.703737
C21	C	-1.595383	0.005233	0.034481
C22	C	-1.095383	0.505233	0.534481
C23	C	-1.418002	0.008051	0.053051
C24	C	-0.918002	0.508051	0.553051
N25	N	-1.934571	-0.466230	-0.065713
N26	N	-1.434571	0.033770	0.434287
C27	C	-1.899189	-0.046388	-0.305772
C28	C	-1.399189	0.453612	0.194228
C29	C	-1.896040	-0.073167	-0.482337
C30	C	-1.396040	0.426833	0.017663
C31	C	-1.179649	-0.009150	-0.060316
C32	C	-0.679649	0.490850	0.439684
C33	C	-1.357029	-0.011966	-0.078886
C34	C	-0.857029	0.488034	0.421114
N35	N	-1.840473	0.462310	0.039864
N36	N	-1.340473	0.962310	0.539864
C37	C	-1.875842	0.042475	0.279937
C38	C	-1.375842	0.542475	0.779937
C39	C	-1.878990	0.069265	0.456504
C40	C	-1.378990	0.569265	0.956504
H41	H	-1.334492	0.027355	0.180223
H42	H	-0.834492	0.527355	0.680223
H43	H	-1.440529	-0.031250	-0.206048
H44	H	-0.940529	0.468750	0.293952
Cl45	Cl	-1.692167	-0.396349	0.206248
Cl46	Cl	-1.192167	0.103651	0.706248
Cl47	Cl	-1.860169	0.289189	-0.415791
Cl48	Cl	-1.360169	0.789189	0.084209
H49	H	-2.030644	-0.557785	-0.173474
H50	H	-1.530644	-0.057785	0.326526
Cl51	Cl	-1.914837	-0.293100	-0.610043
Cl52	Cl	-1.414837	0.206900	-0.110043
