data_functionalizedCrystal
_audit_creation_method	'MofGen! by Chris Wilmer'
_symmetry_space_group_name_H-M	'P1'
_symmetry_Int_Tables_number	1
_symmetry_cell_setting	triclinic
loop_
_symmetry_equiv_pos_as_xyz
  x,y,z
_cell_length_a	27.440280
_cell_length_b	12.477989
_cell_length_c	27.440280
_cell_angle_alpha	64.375538
_cell_angle_beta	89.999308
_cell_angle_gamma	55.719733
loop_
_atom_site_label
_atom_site_type_symbol
_atom_site_fract_x
_atom_site_fract_y
_atom_site_fract_z
Zr1	Zr	0.434520	1.177988	-0.028991
O2	O	0.350034	1.402526	-0.100132
O3	O	0.465043	0.953447	-0.011806
O4	O	0.458375	1.177962	-0.106803
O5	O	0.356702	1.178031	0.075059
O6	O	0.538578	1.177945	-0.106806
O7	O	0.356701	1.178011	-0.005135
O8	O	0.550505	0.776329	0.063126
O9	O	0.344775	1.579648	-0.094873
O10	O	0.532329	1.045792	0.001106
O11	O	0.472475	1.045820	0.060957
O12	O	0.464625	1.310158	-0.050890
O13	O	0.404771	1.310186	0.008961
Zr14	Zr	0.562435	1.177993	0.098903
Zr15	Zr	0.562434	1.177960	-0.028997
Zr16	Zr	0.434521	1.178021	0.098909
Zr17	Zr	0.426132	1.460477	-0.020604
Zr18	Zr	0.570822	0.895504	0.090516
O19	O	0.531912	1.402534	0.081718
O20	O	0.531911	1.402486	-0.100139
O21	O	0.350035	1.402573	0.081726
O22	O	0.646921	0.953455	0.170044
O23	O	0.646919	0.953408	-0.011814
O24	O	0.465044	0.953494	0.170052
O25	O	0.640253	1.177950	-0.005147
O26	O	0.538579	1.178018	0.176715
O27	O	0.458377	1.178036	0.176718
O28	O	0.640253	1.177970	0.075047
O29	O	0.446449	1.579626	-0.094877
O30	O	0.550505	0.776355	0.164789
O31	O	0.652180	0.776333	0.164785
O32	O	0.652179	0.776307	0.063121
O33	O	0.344775	1.579674	0.006791
O34	O	0.446450	1.579652	0.006787
O35	O	0.532330	1.045823	0.120802
O36	O	0.592183	1.045795	0.060952
O37	O	0.524479	1.310160	0.008956
O38	O	0.464626	1.310189	0.068806
C39	C	0.508969	0.824639	0.024465
C40	C	0.512529	0.704715	0.020904
C41	C	0.338477	1.178025	0.034963
C42	C	0.284174	1.178037	0.034965
C43	C	-0.052522	1.177945	-0.009225
C44	C	-0.103539	1.177934	-0.009226
O45	O	-0.129913	1.177868	-0.046788
N46	N	-0.129057	1.177948	0.034953
C47	C	-0.103550	1.177958	0.079138
O48	O	-0.129939	1.177968	0.116716
C49	C	-0.052531	1.177958	0.079141
C50	C	-0.027020	1.177959	0.034956
C51	C	-0.027010	1.177945	-0.053406
C52	C	0.024003	1.177958	-0.053406
C53	C	0.049505	1.177972	-0.009225
C54	C	0.023993	1.177973	0.034956
C55	C	-0.027022	1.177957	0.123328
C56	C	0.024001	1.177955	0.123326
C57	C	0.049512	1.177957	0.079142
C58	C	0.100509	1.178001	0.079138
N59	N	0.126026	1.177987	0.034959
C60	C	0.100524	1.177972	-0.009223
C61	C	-0.210694	1.177956	0.079131
C62	C	-0.261715	1.177966	0.079127
C63	C	-0.261700	1.177940	-0.009237
C64	C	-0.210680	1.177940	-0.009235
C65	C	-0.185176	1.177941	0.034952
C66	C	0.207656	1.178002	-0.009219
C67	C	0.258672	1.178022	-0.009216
C68	C	0.258654	1.178041	0.079149
C69	C	0.207641	1.178029	0.079145
C70	C	0.182144	1.178005	0.034958
O71	O	0.126916	1.178061	0.116682
O72	O	0.126925	1.177943	-0.046790
C73	C	0.658478	1.177956	0.034949
C74	C	0.712781	1.177944	0.034947
C75	C	0.498476	1.177949	-0.125028
C76	C	0.498476	1.177935	-0.179325
C77	C	0.487986	1.531342	0.045447
C78	C	0.484425	1.651266	0.049008
C79	C	0.463141	1.316012	-0.543198
C80	C	0.463142	1.316020	-0.594220
O81	O	0.433105	1.433381	-0.643690
N82	N	0.498482	1.178025	-0.592596
C83	C	0.533827	1.040013	-0.539945
O84	O	0.563887	0.922639	-0.543249
C85	C	0.533829	1.040006	-0.488924
C86	C	0.498482	1.178010	-0.490553
C87	C	0.427798	1.454004	-0.544824
C88	C	0.427795	1.453995	-0.493805
C89	C	0.463137	1.315994	-0.441160
C90	C	0.498480	1.178001	-0.439534
C91	C	0.569178	0.901996	-0.436275
C92	C	0.569176	0.902001	-0.385253
C93	C	0.533830	1.040005	-0.386882
C94	C	0.533819	1.039991	-0.335871
N95	N	0.498479	1.177986	-0.337495
C96	C	0.463138	1.315987	-0.390140
C97	C	0.533822	1.040038	-0.647094
C98	C	0.533818	1.040043	-0.698114
C99	C	0.463133	1.316051	-0.752385
C100	C	0.463135	1.316044	-0.701364
C101	C	0.498483	1.178033	-0.648718
C102	C	0.463136	1.315958	-0.282995
C103	C	0.463135	1.315936	-0.231969
C104	C	0.533821	1.039930	-0.177703
C105	C	0.533820	1.039950	-0.228724
C106	C	0.498476	1.177976	-0.281371
O107	O	0.563843	0.922690	-0.286380
O108	O	0.433090	1.433342	-0.386826
C109	C	0.498478	1.178032	0.194940
C110	C	0.498479	1.178046	0.249237
C111	C	0.668969	0.824605	0.024458
C112	C	0.726833	0.704669	0.020895
C113	C	0.508970	0.824681	0.184448
C114	C	0.512531	0.704771	0.235185
C115	C	0.668970	0.824646	0.184442
C116	C	0.726834	0.704724	0.235176
C117	C	0.327984	1.531335	-0.114529
C118	C	0.270120	1.651256	-0.165263
C119	C	0.327985	1.531376	0.045454
C120	C	0.270122	1.651312	0.049017
C121	C	0.487985	1.531300	-0.114536
C122	C	0.484424	1.651210	-0.165273
C123	C	0.722762	0.648344	-0.012022
C124	C	0.777126	0.535668	-0.015381
C125	C	0.835559	0.479310	0.014180
C126	C	0.839628	0.535645	0.047099
C127	C	0.785265	0.648328	0.050454
C128	C	0.545447	0.648461	0.290255
C129	C	0.548790	0.535808	0.337933
C130	C	0.519221	0.479460	0.330538
C131	C	0.486301	0.535781	0.275462
C132	C	0.482954	0.648439	0.227786
C133	C	0.785256	0.648393	0.227760
C134	C	0.839630	0.535730	0.275425
C135	C	0.835580	0.479392	0.330506
C136	C	0.777152	0.535734	0.337921
C137	C	0.722780	0.648403	0.290256
C138	C	0.211698	1.707601	-0.157847
C139	C	0.157323	1.820300	-0.205511
C140	C	0.161373	1.876644	-0.260592
C141	C	0.219801	1.820294	-0.268008
C142	C	0.274174	1.707605	-0.220343
C143	C	0.274192	1.707648	0.081929
C144	C	0.219827	1.820356	0.085275
C145	C	0.161394	1.876718	0.055712
C146	C	0.157325	1.820377	0.022796
C147	C	0.211689	1.707679	0.019447
C148	C	0.514000	1.707523	-0.157860
C149	C	0.510666	1.820176	-0.205528
C150	C	0.477752	1.876522	-0.260607
C151	C	0.448175	1.820199	-0.268019
C152	C	0.451513	1.707540	-0.220352
H153	H	0.457636	0.697259	0.075789
H154	H	0.117094	1.968402	-0.299399
H155	H	0.539315	0.658729	-0.005884
H156	H	0.887212	0.489742	0.071166
H157	H	-0.282472	1.177925	-0.045211
H158	H	0.434356	1.428419	-0.795259
H159	H	-0.189934	1.177969	0.115112
H160	H	0.879859	0.387649	0.369313
H161	H	0.540802	1.661663	-0.113016
H162	H	0.773864	0.489847	0.382774
H163	H	0.575599	0.489965	0.382773
H164	H	0.788565	0.694247	0.182914
H165	H	0.521950	0.387727	0.369364
H166	H	0.117132	1.968484	0.058444
H167	H	0.675212	0.694254	0.296303
H168	H	0.569526	0.694327	0.296287
H169	H	0.675188	0.694230	-0.036102
H170	H	0.321743	1.661730	-0.226389
H171	H	0.773801	0.489813	-0.042187
H172	H	0.475039	1.968257	-0.299416
H173	H	0.279441	1.178027	-0.045198
H174	H	0.462227	0.489885	0.269450
H175	H	0.456153	0.694271	0.182947
H176	H	0.223091	1.866184	-0.312860
H177	H	0.879820	0.387555	0.011443
H178	H	0.186903	1.177980	-0.045200
H179	H	0.788588	0.694173	0.077262
H180	H	0.044773	1.177953	-0.089384
H181	H	0.044765	1.177952	0.159310
H182	H	0.109741	1.866284	-0.001273
H183	H	0.887199	0.489867	0.269377
H184	H	0.562594	0.927576	-0.227397
H185	H	0.208367	1.661813	-0.007352
H186	H	-0.047768	1.177928	-0.089384
H187	H	0.208389	1.661732	-0.113002
H188	H	0.321766	1.661767	0.106008
H189	H	0.562593	0.927667	-0.696781
H190	H	0.534751	1.866023	-0.199482
H191	H	0.421376	1.866093	-0.312871
H192	H	0.109754	1.866161	-0.199463
H193	H	0.223152	1.866210	0.112081
H194	H	0.427425	1.661702	-0.226395
H195	H	-0.189912	1.177940	-0.045214
H196	H	-0.047786	1.177955	0.159307
H197	H	0.186863	1.178050	0.115120
H198	H	-0.282489	1.177989	0.115101
H199	H	0.434348	1.428321	-0.233302
H200	H	0.279424	1.178059	0.115120
H201	H	0.434355	1.428352	-0.325857
H202	H	0.399018	1.566388	-0.587686
H203	H	0.434352	1.428419	-0.702696
H204	H	0.562604	0.927646	-0.604229
H205	H	0.597962	0.789618	-0.434938
H206	H	0.399015	1.566372	-0.495139
H207	H	0.597962	0.789613	-0.342388
H208	H	0.562593	0.927573	-0.134831
