data_functionalizedCrystal
_audit_creation_method	'MofGen! by Chris Wilmer'
_symmetry_space_group_name_H-M	'P1'
_symmetry_Int_Tables_number	1
_symmetry_cell_setting	triclinic
loop_
_symmetry_equiv_pos_as_xyz
  x,y,z
_cell_length_a	12.811457
_cell_length_b	11.792241
_cell_length_c	11.892095
_cell_angle_alpha	93.915739
_cell_angle_beta	91.498327
_cell_angle_gamma	84.118185
loop_
_atom_site_label
_atom_site_type_symbol
_atom_site_fract_x
_atom_site_fract_y
_atom_site_fract_z
O1	O	1.390087	0.156591	0.048503
O2	O	1.890087	0.656591	0.548503
O3	O	1.086807	0.170827	0.017409
O4	O	1.586807	0.670827	0.517409
O5	O	1.245806	-0.001417	0.033718
O6	O	1.745806	0.498583	0.533718
O7	O	1.231088	0.328835	0.032194
O8	O	1.731088	0.828835	0.532194
O9	O	1.232549	0.012922	0.220366
O10	O	1.732549	0.512922	0.720366
O11	O	1.073550	0.185166	0.204057
O12	O	1.573550	0.685166	0.704057
O13	O	1.376830	0.170930	0.235150
O14	O	1.876830	0.670930	0.735150
Zn15	Zn	1.223085	0.180325	0.249238
Zn16	Zn	1.723085	0.680325	0.749238
Zn17	Zn	1.240552	0.161432	0.003322
Zn18	Zn	1.740552	0.661432	0.503322
O19	O	1.217830	0.343174	0.218841
O20	O	1.717830	0.843174	0.718841
C21	C	1.041352	0.176760	0.106752
C22	C	1.541352	0.676760	0.606752
C23	C	0.925661	0.173060	0.094892
C24	C	1.425661	0.673060	0.594892
C25	C	0.693812	0.181720	0.276110
C26	C	1.193812	0.681720	0.776110
C27	C	0.585110	0.178244	0.264971
C28	C	1.085110	0.678244	0.764971
C29	C	0.599553	0.162623	0.061477
C30	C	1.099553	0.662623	0.561477
C31	C	0.708256	0.166099	0.072615
C32	C	1.208256	0.666099	0.572615
C33	C	0.755380	0.175649	0.179935
C34	C	1.255380	0.675649	0.679935
C35	C	0.864084	0.179134	0.191073
C36	C	1.364084	0.679134	0.691073
C37	C	0.878526	0.163505	-0.012420
C38	C	1.378526	0.663505	0.487580
C39	C	0.769824	0.160028	-0.023559
C40	C	1.269824	0.660028	0.476441
C41	C	1.238253	-0.036544	0.126947
C42	C	1.738253	0.463456	0.626947
C43	C	1.235485	-0.162574	0.126662
C44	C	1.735485	0.337426	0.626662
C45	C	1.230398	-0.393318	0.126122
C46	C	1.730398	0.106682	0.626122
C47	C	1.233225	-0.264915	0.126422
C48	C	1.733225	0.235085	0.626422
C49	C	1.422285	0.164997	0.145805
C50	C	1.922285	0.664997	0.645805
C51	C	1.537976	0.168697	0.157658
C52	C	2.037976	0.668697	0.657658
C53	C	1.225384	0.378301	0.125610
C54	C	1.725384	0.878301	0.625610
C55	C	1.228152	0.504331	0.125887
C56	C	1.728152	1.004331	0.625887
N57	N	1.211172	0.193218	0.417070
N58	N	1.711172	0.693218	0.917070
N59	N	1.252473	0.148531	-0.164510
N60	N	1.752473	0.648531	0.335490
C61	C	1.335369	0.058751	0.666457
C62	C	1.835369	0.558751	1.166457
C63	C	1.327050	0.067771	0.783946
C64	C	1.827050	0.567771	1.283946
C65	C	1.186209	0.220273	0.769537
C66	C	1.686209	0.720273	1.269537
C67	C	1.194528	0.211252	0.652049
C68	C	1.694528	0.711252	1.152049
C69	C	1.269112	0.130490	0.600513
C70	C	1.769112	0.630490	1.100513
C71	C	1.277436	0.121476	0.483023
C72	C	1.777436	0.621476	0.983023
C73	C	1.136591	0.273971	0.468616
C74	C	1.636591	0.773971	0.968616
C75	C	1.128271	0.282991	0.586105
C76	C	1.628271	0.782991	1.086105
H77	H	0.561167	0.154828	-0.025898
H78	H	1.061167	0.654828	0.474102
Br79	Br	0.757770	0.194702	0.421753
Br80	Br	1.257770	0.694702	0.921753
H81	H	1.338168	0.055718	0.441065
H82	H	1.838168	0.555718	0.941065
H83	H	1.396105	-0.007001	0.624497
H84	H	1.896105	0.492999	1.124497
Br85	Br	1.416969	-0.029598	0.873439
Br86	Br	1.916969	0.470402	1.373439
H87	H	0.534983	0.183193	0.343287
H88	H	1.034983	0.683193	0.843287
Br89	Br	0.705864	0.147022	-0.169200
Br90	Br	1.205864	0.647022	0.330800
Br91	Br	1.084979	0.329857	0.839488
Br92	Br	1.584979	0.829857	1.339488
H93	H	0.928667	0.158569	-0.090733
H94	H	1.428667	0.658569	0.409267
Br95	Br	1.027050	0.392587	0.656052
Br96	Br	1.527050	0.892587	1.156052
H97	H	1.082642	0.332389	0.414911
H98	H	1.582642	0.832389	0.914911
H99	H	0.902450	0.186917	0.278458
H100	H	1.402450	0.686917	0.778458
