data_functionalizedCrystal
_audit_creation_method	'MofGen! by Chris Wilmer'
_symmetry_space_group_name_H-M	'P1'
_symmetry_Int_Tables_number	1
_symmetry_cell_setting	triclinic
loop_
_symmetry_equiv_pos_as_xyz
  x,y,z
_cell_length_a	14.628931
_cell_length_b	14.628931
_cell_length_c	14.628931
_cell_angle_alpha	60.000000
_cell_angle_beta	90.000118
_cell_angle_gamma	59.999836
loop_
_atom_site_label
_atom_site_type_symbol
_atom_site_fract_x
_atom_site_fract_y
_atom_site_fract_z
Zr1	Zr	0.880617	1.000578	-0.119962
O2	O	0.734655	1.191284	-0.265923
O3	O	0.925362	0.809872	-0.075216
O4	O	0.925361	1.000578	-0.265922
O5	O	0.734656	1.000578	0.075215
O6	O	1.075793	1.000577	-0.265922
O7	O	0.734656	1.000578	-0.075217
O8	O	1.075795	0.659439	0.075216
O9	O	0.734655	1.341717	-0.265923
O10	O	1.056711	0.888312	-0.056133
O11	O	0.944445	0.888312	0.056132
O12	O	0.944444	1.112844	-0.168399
O13	O	0.832179	1.112844	-0.056134
Zr14	Zr	1.120539	1.000577	0.119960
Zr15	Zr	1.120539	1.000577	-0.119961
Zr16	Zr	0.880617	1.000578	0.119960
Zr17	Zr	0.880616	1.240500	-0.119962
Zr18	Zr	1.120540	0.760655	0.119961
O19	O	1.075794	1.191283	0.075215
O20	O	1.075793	1.191283	-0.265922
O21	O	0.734656	1.191284	0.075215
O22	O	1.266501	0.809871	0.265922
O23	O	1.266500	0.809871	-0.075216
O24	O	0.925363	0.809872	0.265921
O25	O	1.266500	1.000577	-0.075216
O26	O	1.075794	1.000577	0.265921
O27	O	0.925362	1.000578	0.265921
O28	O	1.266500	1.000577	0.075216
O29	O	0.925361	1.341716	-0.265923
O30	O	1.075795	0.659439	0.265922
O31	O	1.266501	0.659439	0.265922
O32	O	1.266501	0.659439	0.075216
O33	O	0.734655	1.341717	-0.075218
O34	O	0.925361	1.341716	-0.075217
O35	O	1.056711	0.888312	0.168398
O36	O	1.168977	0.888311	0.056133
O37	O	1.056710	1.112843	-0.056134
O38	O	0.944445	1.112844	0.056132
C39	C	1.000578	0.700472	0.000000
C40	C	1.000579	0.598619	0.000000
C41	C	1.079337	0.369186	0.078758
C42	C	1.079338	0.474455	0.078760
C43	C	0.700472	1.000578	-0.000001
C44	C	0.598619	1.000579	-0.000001
C45	C	0.608902	0.889196	0.055690
C46	C	0.503632	0.889194	0.055692
C47	C	1.300684	1.000577	-0.000000
C48	C	1.402537	1.000576	-0.000000
C49	C	1.000577	1.000578	-0.300106
C50	C	1.000577	1.000578	-0.401959
C51	C	1.000577	1.300683	-0.000001
C52	C	1.000577	1.402537	-0.000001
C53	C	1.079337	1.000577	-0.447368
C54	C	1.079338	1.000577	-0.552638
C55	C	1.000578	1.000578	0.300105
C56	C	1.000579	1.000578	0.401958
C57	C	1.300684	0.700471	0.000000
C58	C	1.402537	0.598617	0.000001
C59	C	1.000579	0.700472	0.300105
C60	C	1.000580	0.598619	0.401958
C61	C	1.300685	0.700471	0.300106
C62	C	1.402538	0.598617	0.401959
C63	C	0.700471	1.300684	-0.300107
C64	C	0.598617	1.402538	-0.401960
C65	C	0.700472	1.300684	-0.000002
C66	C	0.598618	1.402538	-0.000002
C67	C	1.000577	1.300683	-0.300106
C68	C	1.000576	1.402537	-0.401960
C69	C	1.392255	0.553208	-0.055690
C70	C	1.497525	0.447937	-0.055691
C71	C	1.056271	0.553209	0.503059
C72	C	1.056273	0.447939	0.608331
C73	C	1.503639	0.553208	0.391677
C74	C	1.608911	0.447937	0.496947
H75	H	0.933144	0.627006	-0.067430
H76	H	0.933153	0.509023	-0.067433
H77	H	1.305518	0.592271	-0.103374
Cl78	Cl	0.926957	0.538331	0.388638
H79	H	0.512261	0.793835	0.103363
Cl80	Cl	0.464708	1.147811	-0.073610
Cl81	Cl	1.611960	0.462806	0.073627
Cl82	Cl	0.926969	0.462808	0.464143
Cl83	Cl	1.516960	0.613509	0.257766
Cl84	Cl	1.183449	0.204782	0.182864
H85	H	0.695639	0.793839	0.103374
Cl86	Cl	1.183452	1.000567	-0.387070
Cl87	Cl	1.742815	0.387643	0.483616
Cl88	Cl	1.464724	0.462806	0.611381
Cl89	Cl	0.389197	1.147817	-0.073628
H90	H	1.393918	0.559564	0.488696
H91	H	1.146763	0.446077	0.146193
H92	H	0.933142	1.000585	-0.559002
Cl93	Cl	1.183444	1.000587	-0.612929
Cl94	Cl	0.896473	1.000568	-0.462249
Cl95	Cl	1.484194	0.387644	-0.129302
Cl96	Cl	1.536449	0.538329	0.073610
Cl97	Cl	1.129879	0.613512	0.516380
H98	H	1.103954	0.408886	0.695061
