data_functionalizedCrystal
_audit_creation_method	'MofGen! by Chris Wilmer'
_symmetry_space_group_name_H-M	'P1'
_symmetry_Int_Tables_number	1
_symmetry_cell_setting	triclinic
loop_
_symmetry_equiv_pos_as_xyz
  x,y,z
_cell_length_a	10.723024
_cell_length_b	10.723024
_cell_length_c	9.198806
_cell_angle_alpha	89.998891
_cell_angle_beta	90.003648
_cell_angle_gamma	95.532131
loop_
_atom_site_label
_atom_site_type_symbol
_atom_site_fract_x
_atom_site_fract_y
_atom_site_fract_z
O1	O	-1.657188	0.175024	-0.120876
O2	O	-1.294035	0.191778	-0.120880
O3	O	-1.483988	0.001825	-0.120876
O4	O	-1.467235	0.364977	-0.120880
O5	O	-1.483973	0.001824	0.120909
O6	O	-1.294020	0.191777	0.120905
O7	O	-1.657173	0.175024	0.120909
Cu8	Cu	-1.475595	0.183401	0.142984
Cu9	Cu	-1.475613	0.183401	-0.142955
O10	O	-1.467220	0.364977	0.120905
C11	C	-1.482762	-0.044675	0.000014
C12	C	-1.479114	-0.183229	0.000006
C13	C	-1.247528	0.190558	0.000012
C14	C	-1.108974	0.186911	0.000010
N15	N	-1.475592	0.183399	0.344098
C16	C	-1.703680	0.176243	0.000014
C17	C	-1.842234	0.179891	0.000006
C18	C	-1.033991	0.293198	0.000008
C19	C	-0.890788	0.289431	0.000006
C20	C	-1.468447	0.411477	0.000012
C21	C	-1.472094	0.550031	0.000010
C22	C	-1.365807	0.625014	0.000008
C23	C	-1.369574	0.768217	0.000006
N24	N	-1.475626	0.183393	-0.344069
C25	C	-1.555347	0.103292	0.416297
C26	C	-1.555367	0.103288	0.583709
H27	H	-1.075814	0.386984	0.000015
H28	H	-1.570109	0.752346	0.000015
H29	H	-0.826355	0.380421	-0.000002
H30	H	-0.906659	0.088896	-0.000001
H31	H	-1.565880	0.591853	-0.000042
H32	H	-1.623611	0.034707	0.354172
C33	C	-1.246645	0.855259	0.000002
N34	N	-1.154051	0.920823	-0.000004
H35	H	-1.623653	0.034709	0.645797
H36	H	-1.407345	0.251984	0.593853
H37	H	-1.407319	0.251975	0.406225
C38	C	-1.239101	0.568520	0.000019
N39	N	-1.143663	0.525972	0.000035
C40	C	-1.052481	0.060205	0.000011
N41	N	-1.009932	-0.035233	0.000010
