data_functionalizedCrystal
_audit_creation_method	'MofGen! by Chris Wilmer'
_symmetry_space_group_name_H-M	'P1'
_symmetry_Int_Tables_number	1
_symmetry_cell_setting	triclinic
loop_
_symmetry_equiv_pos_as_xyz
  x,y,z
_cell_length_a	27.440280
_cell_length_b	14.560438
_cell_length_c	14.560438
_cell_angle_alpha	90.000546
_cell_angle_beta	60.005574
_cell_angle_gamma	120.002364
loop_
_atom_site_label
_atom_site_type_symbol
_atom_site_fract_x
_atom_site_fract_y
_atom_site_fract_z
Zr1	Zr	0.533383	0.120508	0.884897
O2	O	0.635047	0.267156	0.738273
O3	O	0.431720	0.075555	0.929828
O4	O	0.533384	0.267157	0.929853
O5	O	0.533382	-0.075587	0.738249
O6	O	0.533382	0.267156	1.080994
O7	O	0.533384	0.075554	0.738249
O8	O	0.351525	-0.075585	1.080950
O9	O	0.715239	0.267154	0.738293
O10	O	0.473534	0.056380	1.061806
O11	O	0.473534	-0.056414	0.949012
O12	O	0.593229	0.169173	0.949040
O13	O	0.593229	0.056379	0.836246
Zr14	Zr	0.533378	-0.120545	1.125950
Zr15	Zr	0.533381	0.120507	1.125949
Zr16	Zr	0.533381	-0.120544	0.884897
Zr17	Zr	0.661280	0.120506	0.884928
Zr18	Zr	0.405481	-0.120542	1.125919
O19	O	0.635041	-0.075592	1.081019
O20	O	0.635044	0.267154	1.081018
O21	O	0.635044	-0.075589	0.738273
O22	O	0.431714	-0.267193	1.272574
O23	O	0.431717	0.075552	1.272573
O24	O	0.431717	-0.267190	0.929829
O25	O	0.533379	0.075550	1.272598
O26	O	0.533378	-0.267194	1.080994
O27	O	0.533379	-0.267193	0.929853
O28	O	0.533378	-0.075591	1.272598
O29	O	0.715238	0.267153	0.929897
O30	O	0.351523	-0.267190	1.080950
O31	O	0.351522	-0.267191	1.272554
O32	O	0.351523	-0.075587	1.272554
O33	O	0.715238	0.075550	0.738293
O34	O	0.715236	0.075548	0.929897
O35	O	0.473532	-0.169210	1.061806
O36	O	0.473532	-0.056416	1.174601
O37	O	0.593227	0.056377	1.061835
O38	O	0.593227	-0.056417	0.949041
C39	C	0.373400	-0.000015	1.005385
C40	C	0.319104	-0.000014	1.005371
C41	C	0.533383	0.301501	1.005423
C42	C	0.533384	0.403834	1.005423
C43	C	0.533378	-0.301538	1.005424
C44	C	0.533377	-0.403871	1.005424
C45	C	-0.017638	0.058849	1.064332
C46	C	-0.068662	0.058846	1.064343
O47	O	-0.095068	0.108884	1.114450
N48	N	-0.094178	-0.000029	1.005464
C49	C	-0.068672	-0.058914	0.946581
O50	O	-0.095062	-0.108993	0.896502
C51	C	-0.017653	-0.058917	0.946578
C52	C	0.007866	-0.000029	1.005451
C53	C	0.007880	0.117731	1.123202
C54	C	0.058901	0.117736	1.123189
C55	C	0.084405	0.058858	1.064308
C56	C	0.058887	-0.000024	1.005439
C57	C	0.007848	-0.117808	0.887702
C58	C	0.058871	-0.117807	0.887704
C59	C	0.084389	-0.058918	0.946577
C60	C	0.135411	-0.058898	0.946545
N61	N	0.160928	-0.000023	1.005423
C62	C	0.135424	0.058855	1.064305
C63	C	-0.175818	-0.058905	0.946593
C64	C	-0.226833	-0.058897	0.946589
C65	C	-0.226819	0.058862	1.064353
C66	C	-0.175800	0.058859	1.064350
C67	C	-0.150301	-0.000030	1.005472
C68	C	0.242573	0.058861	1.064274
C69	C	0.293601	0.058864	1.064253
C70	C	0.293581	-0.058899	0.946494
C71	C	0.242560	-0.058898	0.946510
C72	C	0.217056	-0.000015	1.005409
O73	O	0.161848	-0.108914	0.896467
O74	O	0.161813	0.108914	1.114388
C75	C	0.693361	-0.000022	1.005462
C76	C	0.747657	-0.000023	1.005475
C77	C	0.533383	-0.000016	0.703904
C78	C	0.533384	-0.000016	0.601571
C79	C	0.595863	0.510787	0.946556
C80	C	0.595860	0.606936	0.946559
C81	C	0.470893	0.489165	1.064298
C82	C	0.470898	0.393019	1.064301
C83	C	0.658350	0.521602	0.887678
C84	C	0.720833	0.628560	0.828805
C85	C	0.720830	0.724709	0.828809
C86	C	0.658343	0.713900	0.887685
C87	C	0.595863	0.058856	0.494632
C88	C	0.595860	0.058857	0.398483
C89	C	0.470893	-0.058895	0.516226
C90	C	0.470898	-0.058888	0.612372
C91	C	0.658350	0.117729	0.483831
C92	C	0.720833	0.176604	0.376887
C93	C	0.720830	0.176605	0.280738
C94	C	0.658343	0.117731	0.291533
C95	C	0.533378	-0.000020	1.306943
C96	C	0.533377	-0.000021	1.409276
C97	C	0.373397	-0.000017	1.306904
C98	C	0.319101	-0.000016	1.409224
C99	C	0.373397	-0.301534	1.005385
C100	C	0.319101	-0.403866	1.005372
C101	C	0.373395	-0.301536	1.306904
C102	C	0.319097	-0.403869	1.409224
C103	C	0.693367	0.301499	0.703943
C104	C	0.747664	0.403832	0.601623
C105	C	0.693364	-0.000020	0.703943
C106	C	0.747661	-0.000021	0.601623
C107	C	0.693364	0.301497	1.005462
C108	C	0.747661	0.403829	1.005475
C109	C	0.293603	0.058872	1.398397
C110	C	0.242593	0.058895	1.494528
C111	C	0.217077	0.000022	1.601485
C112	C	0.242579	-0.058868	1.612310
C113	C	0.293592	-0.058884	1.516180
C114	C	0.293601	-0.510810	1.064243
C115	C	0.242591	-0.606971	1.064227
C116	C	0.217077	-0.596185	1.005344
C117	C	0.242581	-0.489230	0.946466
C118	C	0.293594	-0.393071	0.946476
C119	C	0.293598	-0.393048	1.516162
C120	C	0.242587	-0.489191	1.612312
C121	C	0.217071	-0.596154	1.601521
C122	C	0.242575	-0.606972	1.494571
C123	C	0.293589	-0.510830	1.398424
C124	C	0.773169	0.393011	0.494684
C125	C	0.824197	0.489154	0.398535
C126	C	0.849714	0.596117	0.409326
C127	C	0.824207	0.606935	0.516275
C128	C	0.773185	0.510794	0.612423
C129	C	0.773163	-0.058899	0.612450
C130	C	0.824188	-0.058895	0.516319
C131	C	0.849706	-0.000019	0.409362
C132	C	0.824201	0.058866	0.398537
C133	C	0.773181	0.058869	0.494667
C134	C	0.773158	0.393007	1.064369
C135	C	0.824169	0.489150	1.064403
C136	C	0.849685	0.596113	1.005536
C137	C	0.824182	0.606933	0.946641
C138	C	0.773169	0.510791	0.946614
H139	H	0.314378	0.106822	1.112194
H140	H	0.175539	-0.674493	1.005345
H141	H	0.752419	0.519618	0.699494
H142	H	0.771708	0.637352	0.780877
Cl143	Cl	0.152944	0.000051	1.722324
H144	H	0.891250	-0.000031	0.331096
H145	H	0.752391	-0.106850	0.699532
Cl146	Cl	0.856274	0.741410	0.872630
H147	H	0.314365	-0.305962	1.524970
H148	H	-0.012882	0.165676	1.171155
H149	H	0.891260	0.674393	0.331028
Cl150	Cl	0.741128	0.524416	0.872556
Cl151	Cl	0.741122	0.132886	0.481036
H152	H	0.221831	-0.694049	1.112177
H153	H	0.752391	0.305921	1.112305
Cl154	Cl	0.090922	-0.191845	0.813682
Cl155	Cl	0.325663	-0.524400	1.138279
Cl156	Cl	0.799379	0.859166	0.754808
Cl157	Cl	0.799384	0.250620	0.363319
Cl158	Cl	0.210498	-0.475689	0.872450
Cl159	Cl	0.325672	0.132898	1.263947
Cl160	Cl	0.392351	0.258557	1.138332
Cl161	Cl	0.210540	0.132929	1.480893
Cl162	Cl	0.210518	0.132884	1.138320
H163	H	0.221797	-0.106799	1.699407
Cl164	Cl	0.658341	0.117748	0.170657
Cl165	Cl	0.856249	0.475527	0.264098
Cl166	Cl	0.856237	-0.132935	0.529954
Cl167	Cl	0.392344	0.475583	1.138302
H168	H	0.079674	0.165684	1.171133
H169	H	0.221793	-0.694074	1.485802
H170	H	0.891224	0.674388	1.005567
H171	H	0.844928	0.480318	1.112361
H172	H	0.658359	0.117731	0.562113
Cl173	Cl	-0.143762	-0.132936	0.872557
Cl174	Cl	0.856292	0.741412	0.529822
Cl175	Cl	0.210487	-0.132913	0.872482
Cl176	Cl	0.325635	-0.524454	1.263991
Cl177	Cl	0.325641	-0.258631	0.872466
H178	H	0.771707	0.224553	0.193665
H179	H	-0.155026	0.106810	1.112290
H180	H	0.221827	-0.480362	1.699386
Cl181	Cl	-0.258892	0.132877	1.138380
Cl182	Cl	0.152937	-0.717009	1.722404
H183	H	0.844985	0.106801	0.311439
Cl184	Cl	-0.024222	-0.191848	0.813689
Cl185	Cl	0.741100	0.258555	0.481089
Cl186	Cl	0.325651	-0.132914	0.872477
Cl187	Cl	-0.258897	-0.132913	0.872555
Cl188	Cl	0.392344	-0.132908	0.529790
H189	H	0.658359	0.443320	0.887666
H190	H	0.658345	0.792196	0.887694
H191	H	0.420022	-0.106846	0.699448
H192	H	0.314346	-0.106844	1.525011
