data_functionalizedCrystal
_audit_creation_method	'MofGen! by Chris Wilmer'
_symmetry_space_group_name_H-M	'P1'
_symmetry_Int_Tables_number	1
_symmetry_cell_setting	triclinic
loop_
_symmetry_equiv_pos_as_xyz
  x,y,z
_cell_length_a	23.532407
_cell_length_b	23.532407
_cell_length_c	22.610064
_cell_angle_alpha	90.008651
_cell_angle_beta	89.997005
_cell_angle_gamma	97.151322
loop_
_atom_site_label
_atom_site_type_symbol
_atom_site_fract_x
_atom_site_fract_y
_atom_site_fract_z
O1	O	0.069128	-0.755268	-0.049117
O2	O	0.569128	-0.255268	0.450883
O3	O	0.079132	-0.589405	-0.049135
O4	O	0.579132	-0.089405	0.450865
O5	O	-0.008802	-0.677338	-0.049114
O6	O	0.491198	-0.177338	0.450886
O7	O	0.157062	-0.667335	-0.049137
O8	O	0.657062	-0.167335	0.450863
O9	O	-0.008792	-0.677313	0.049255
O10	O	0.491208	-0.177313	0.549255
O11	O	0.079142	-0.589380	0.049234
O12	O	0.579142	-0.089380	0.549234
O13	O	0.069138	-0.755243	0.049252
O14	O	0.569138	-0.255243	0.549252
Zn15	Zn	0.074142	-0.672308	0.064862
Zn16	Zn	0.574142	-0.172308	0.564862
Zn17	Zn	0.074128	-0.672340	-0.064744
Zn18	Zn	0.574128	-0.172340	0.435256
O19	O	0.157072	-0.667310	0.049232
O20	O	0.657072	-0.167310	0.549232
C21	C	0.078882	-0.568176	0.000048
C22	C	0.578882	-0.068176	0.500048
C23	C	0.078116	-0.504959	0.000041
C24	C	0.578116	-0.004959	0.500041
N25	N	0.074150	-0.672290	0.153314
N26	N	0.574150	-0.172290	0.653314
C27	C	-0.030013	-0.677071	0.000072
C28	C	0.469987	-0.177071	0.500072
C29	C	-0.093230	-0.676305	0.000076
C30	C	0.406770	-0.176305	0.500076
C31	C	-0.492333	-0.723539	0.000049
C32	C	0.007667	-0.223539	0.500049
C33	C	-0.551733	-0.722827	0.000044
C34	C	-0.051733	-0.222827	0.500044
O35	O	-0.588478	-0.766613	0.000027
O36	O	-0.088478	-0.266613	0.500027
N37	N	-0.574359	-0.670551	0.000039
N38	N	-0.074359	-0.170551	0.500039
C39	C	-0.537582	-0.618983	0.000032
C40	C	-0.037582	-0.118983	0.500032
O41	O	-0.562281	-0.574452	0.000027
O42	O	-0.062281	-0.074452	0.500027
C43	C	-0.478182	-0.619695	0.000033
C44	C	0.021818	-0.119695	0.500033
C45	C	-0.455560	-0.671974	0.000044
C46	C	0.044440	-0.171974	0.500044
C47	C	-0.469710	-0.775814	0.000060
C48	C	0.030290	-0.275814	0.500060
C49	C	-0.410313	-0.776525	0.000065
C50	C	0.089687	-0.276525	0.500065
C51	C	-0.373540	-0.724961	0.000060
C52	C	0.126460	-0.224961	0.500060
C53	C	-0.396164	-0.672685	0.000050
C54	C	0.103836	-0.172685	0.500050
C55	C	-0.441406	-0.568127	0.000022
C56	C	0.058594	-0.068127	0.500022
C57	C	-0.382004	-0.568844	0.000021
C58	C	0.117996	-0.068844	0.500021
C59	C	-0.359381	-0.621123	0.000033
C60	C	0.140619	-0.121123	0.500033
C61	C	-0.299995	-0.621832	0.000050
C62	C	0.200005	-0.121832	0.500050
N63	N	-0.277368	-0.674109	0.000056
N64	N	0.222632	-0.174109	0.500056
C65	C	-0.314141	-0.725673	0.000061
C66	C	0.185859	-0.225673	0.500061
C67	C	-0.662324	-0.617491	0.000031
C68	C	-0.162324	-0.117491	0.500031
C69	C	-0.721722	-0.616778	0.000034
C70	C	-0.221722	-0.116778	0.500034
C71	C	-0.735869	-0.720623	0.000045
C72	C	-0.235869	-0.220623	0.500045
C73	C	-0.676470	-0.721335	0.000046
C74	C	-0.176470	-0.221335	0.500046
C75	C	-0.639698	-0.669767	0.000036
C76	C	-0.139698	-0.169767	0.500036
C77	C	-0.189405	-0.727163	0.000073
C78	C	0.310595	-0.227163	0.500073
C79	C	-0.130003	-0.727869	0.000081
C80	C	0.369997	-0.227869	0.500081
C81	C	-0.115860	-0.624025	0.000067
C82	C	0.384140	-0.124025	0.500067
C83	C	-0.175257	-0.623318	0.000062
C84	C	0.324743	-0.123318	0.500062
C85	C	-0.212029	-0.674891	0.000063
C86	C	0.287971	-0.174891	0.500063
O87	O	-0.263215	-0.578070	0.000065
O88	O	0.236785	-0.078070	0.500065
O89	O	-0.289433	-0.770196	0.000058
O90	O	0.210567	-0.270196	0.500058
C91	C	0.178283	-0.667577	0.000045
C92	C	0.678283	-0.167577	0.500045
C93	C	0.241500	-0.668343	0.000036
C94	C	0.741500	-0.168343	0.500036
C95	C	0.069388	-0.776472	0.000069
C96	C	0.569388	-0.276472	0.500069
C97	C	0.070154	-0.839689	0.000071
C98	C	0.570154	-0.339689	0.500071
C99	C	0.125350	-0.105856	0.000061
C100	C	0.625350	0.394144	0.500061
C101	C	0.124638	-0.046456	0.000065
C102	C	0.624638	0.453544	0.500065
O103	O	0.168424	-0.009711	0.000081
O104	O	0.668424	0.490289	0.500081
N105	N	0.072362	-0.023830	0.000071
N106	N	0.572362	0.476170	0.500071
C107	C	0.020794	-0.060607	0.000080
C108	C	0.520794	0.439393	0.500080
O109	O	-0.023737	-0.035908	0.000086
O110	O	0.476263	0.464092	0.500086
C111	C	0.021506	-0.120006	0.000080
C112	C	0.521506	0.379994	0.500080
C113	C	0.073785	-0.142629	0.000068
C114	C	0.573785	0.357371	0.500068
C115	C	0.177625	-0.128479	0.000050
C116	C	0.677625	0.371521	0.500050
C117	C	0.178336	-0.187876	0.000045
C118	C	0.678336	0.312124	0.500045
C119	C	0.126772	-0.224649	0.000052
C120	C	0.626772	0.275351	0.500052
C121	C	0.074497	-0.202025	0.000063
C122	C	0.574497	0.297975	0.500063
C123	C	-0.030062	-0.156783	0.000093
C124	C	0.469938	0.343217	0.500093
C125	C	-0.029345	-0.216185	0.000094
C126	C	0.470655	0.283815	0.500094
C127	C	0.022934	-0.238808	0.000082
C128	C	0.522934	0.261192	0.500082
C129	C	0.023643	-0.298194	0.000065
C130	C	0.523643	0.201806	0.500065
N131	N	0.075920	-0.320820	0.000059
N132	N	0.575920	0.179180	0.500059
C133	C	0.127484	-0.284048	0.000052
C134	C	0.627484	0.215952	0.500052
C135	C	0.019302	0.064135	0.000080
C136	C	0.519302	0.564135	0.500080
C137	C	0.018589	0.123533	0.000075
C138	C	0.518589	0.623533	0.500075
C139	C	0.122434	0.137680	0.000061
C140	C	0.622434	0.637680	0.500061
C141	C	0.123146	0.078281	0.000062
C142	C	0.623146	0.578281	0.500062
C143	C	0.071578	0.041509	0.000074
C144	C	0.571578	0.541509	0.500074
C145	C	0.128974	-0.408784	0.000042
C146	C	0.628974	0.091216	0.500042
C147	C	0.129680	-0.468186	0.000034
C148	C	0.629680	0.031814	0.500034
C149	C	0.025836	-0.482329	0.000051
C150	C	0.525836	0.017671	0.500051
C151	C	0.025129	-0.422932	0.000055
C152	C	0.525129	0.077068	0.500055
C153	C	0.076702	-0.386160	0.000052
C154	C	0.576702	0.113840	0.500052
O155	O	-0.020119	-0.334974	0.000052
O156	O	0.479881	0.165026	0.500052
O157	O	0.172007	-0.308755	0.000054
O158	O	0.672007	0.191245	0.500054
N159	N	0.074115	-0.672363	-0.153196
N160	N	0.574115	-0.172363	0.346804
C161	C	0.039758	-0.637982	0.438156
C162	C	0.539758	-0.137982	0.938156
C163	C	0.039761	-0.637977	0.376236
C164	C	0.539761	-0.137977	0.876236
O165	O	0.010521	-0.608784	0.344213
O166	O	0.510521	-0.108784	0.844213
N167	N	0.074132	-0.672313	0.345266
N168	N	0.574132	-0.172313	0.845266
C169	C	0.108498	-0.706662	0.376219
C170	C	0.608498	-0.206662	0.876219
O171	O	0.137734	-0.735868	0.344191
O172	O	0.637734	-0.235868	0.844191
C173	C	0.108492	-0.706670	0.438138
C174	C	0.608492	-0.206670	0.938138
C175	C	0.074123	-0.672327	0.469105
C176	C	0.574123	-0.172327	0.969105
C177	C	0.005391	-0.603642	0.469123
C178	C	0.505391	-0.103642	0.969123
C179	C	0.005389	-0.603647	0.531039
C180	C	0.505389	-0.103647	1.031039
C181	C	0.039754	-0.637992	0.561988
C182	C	0.539754	-0.137992	1.061988
C183	C	0.074121	-0.672332	0.531021
C184	C	0.574121	-0.172332	1.031021
C185	C	0.142855	-0.741022	0.469090
C186	C	0.642855	-0.241022	0.969090
C187	C	0.142846	-0.741027	0.531013
C188	C	0.642846	-0.241027	1.031013
C189	C	0.108476	-0.706684	0.561980
C190	C	0.608476	-0.206684	1.061980
C191	C	0.108484	-0.706681	0.623885
C192	C	0.608484	-0.206681	1.123885
N193	N	0.074113	-0.672345	0.654855
N194	N	0.574113	-0.172345	1.154855
C195	C	0.039748	-0.638000	0.623906
C196	C	0.539748	-0.138000	1.123906
C197	C	0.108508	-0.706643	0.246186
C198	C	0.608508	-0.206643	0.746186
C199	C	0.108518	-0.706632	0.184268
C200	C	0.608518	-0.206632	0.684268
C201	C	0.039779	-0.637948	0.184289
C202	C	0.539779	-0.137948	0.684289
C203	C	0.039773	-0.637956	0.246208
C204	C	0.539773	-0.137956	0.746208
C205	C	0.074137	-0.672307	0.277156
C206	C	0.574137	-0.172307	0.777156
C207	C	0.039747	-0.638012	0.753934
C208	C	0.539747	-0.138012	1.253934
C209	C	0.039750	-0.638018	0.815855
C210	C	0.539750	-0.138018	1.315855
C211	C	0.108486	-0.706705	0.815828
C212	C	0.608486	-0.206705	1.315828
C213	C	0.108486	-0.706697	0.753912
C214	C	0.608486	-0.206697	1.253912
C215	C	0.074112	-0.672349	0.722967
C216	C	0.574112	-0.172349	1.222967
O217	O	0.137707	-0.735861	0.655948
O218	O	0.637707	-0.235861	1.155948
O219	O	0.010512	-0.608804	0.655942
O220	O	0.510512	-0.108804	1.155942
H221	H	-0.111587	-0.770443	0.000092
H222	H	0.388413	-0.270443	0.500092
H223	H	-0.017441	-0.404512	0.000056
H224	H	0.482559	0.095488	0.500056
Br225	Br	-0.044141	-0.532246	0.000061
Br226	Br	0.455859	-0.032246	0.500061
Br227	Br	-0.332101	-0.498854	0.000005
Br228	Br	0.167899	0.001146	0.500005
Br229	Br	-0.519606	-0.845804	0.000066
Br230	Br	-0.019606	-0.345804	0.500066
H231	H	0.170829	-0.769001	0.556207
H232	H	0.670829	-0.269001	1.056207
Br233	Br	-0.645775	-0.792288	0.000062
Br234	Br	-0.145775	-0.292288	0.500062
Br235	Br	-0.785787	-0.790604	0.000050
Br236	Br	-0.285787	-0.290604	0.500050
Br237	Br	0.155154	-0.753262	0.288180
Br238	Br	0.655154	-0.253262	0.788180
Br239	Br	-0.006894	-0.591403	0.857878
Br240	Br	0.493106	-0.091403	1.357878
H241	H	-0.391900	-0.819097	0.000072
H242	H	0.108100	-0.319097	0.500072
Br243	Br	0.200636	-0.498884	0.000014
Br244	Br	0.700636	0.001116	0.500014
Br245	Br	-0.052364	0.154227	0.000074
Br246	Br	0.447636	0.654227	0.500074
Br247	Br	-0.101018	-0.126097	0.000097
Br248	Br	0.398982	0.373903	0.500097
Br249	Br	-0.239299	-0.797156	0.000074
Br250	Br	0.260701	-0.297156	0.500074
Br251	Br	-0.472092	-0.497171	0.000004
Br252	Br	0.027908	0.002829	0.500004
Br253	Br	0.189518	-0.787618	0.427079
Br254	Br	0.689518	-0.287618	0.927079
Br255	Br	-0.050690	0.014235	0.000090
Br256	Br	0.449310	0.514235	0.500090
Br257	Br	-0.612424	-0.547499	0.000022
Br258	Br	-0.112424	-0.047499	0.500022
H259	H	-0.071339	-0.246123	0.000104
H260	H	0.428661	0.253877	0.500104
H261	H	0.011757	-0.610043	0.728745
H262	H	0.511757	-0.110043	1.228745
H263	H	-0.022600	-0.575683	0.556247
H264	H	0.477400	-0.075683	1.056247
H265	H	0.220908	-0.206289	0.000035
H266	H	0.720908	0.293711	0.500035
Br267	Br	0.198967	-0.358890	0.000039
Br268	Br	0.698967	0.141110	0.500039
Br269	Br	-0.041249	-0.557020	0.427133
Br270	Br	0.458751	-0.057020	0.927133
Br271	Br	0.247615	-0.078583	0.000041
Br272	Br	0.747615	0.421417	0.500041
Br273	Br	-0.752416	-0.545825	0.000033
Br274	Br	-0.252416	-0.045825	0.500033
H275	H	0.165717	0.059867	0.000055
H276	H	0.665717	0.559867	0.500055
Br277	Br	-0.006873	-0.591346	0.288228
Br278	Br	0.493127	-0.091346	0.788228
H279	H	0.164421	0.167632	0.000059
H280	H	0.664421	0.667632	0.500059
H281	H	-0.193677	-0.580748	0.000069
H282	H	0.306323	-0.080748	0.500069
H283	H	0.011797	-0.609982	0.159080
H284	H	0.511797	-0.109982	0.659080
H285	H	-0.085909	-0.582043	0.000065
H286	H	0.414091	-0.082043	0.500065
Br287	Br	0.155178	-0.753229	0.142249
Br288	Br	0.655178	-0.253229	0.642249
H289	H	0.136480	-0.734654	0.728698
H290	H	0.636480	-0.234654	1.228698
H291	H	0.136467	-0.734666	0.841038
H292	H	0.636467	-0.234666	1.341038
