data_functionalizedCrystal
_audit_creation_method	'MofGen! by Chris Wilmer'
_symmetry_space_group_name_H-M	'P1'
_symmetry_Int_Tables_number	1
_symmetry_cell_setting	triclinic
loop_
_symmetry_equiv_pos_as_xyz
  x,y,z
_cell_length_a	14.971486
_cell_length_b	7.681481
_cell_length_c	14.971494
_cell_angle_alpha	95.747531
_cell_angle_beta	83.615843
_cell_angle_gamma	84.264653
loop_
_atom_site_label
_atom_site_type_symbol
_atom_site_fract_x
_atom_site_fract_y
_atom_site_fract_z
O1	O	1.178512	0.146221	0.125009
O2	O	0.918110	0.146268	0.138971
O3	O	1.055287	0.146240	0.001790
O4	O	1.041335	0.146250	0.262190
O5	O	1.072171	-0.146622	-0.015133
O6	O	0.934994	-0.146593	0.122048
O7	O	1.195396	-0.146640	0.108087
Zn8	Zn	1.067876	-0.193115	0.112380
Zn9	Zn	1.045630	0.192743	0.134677
O10	O	1.058219	-0.146611	0.245267
C11	C	0.893227	-0.000156	0.129886
C12	C	0.793929	-0.000138	0.128016
N13	N	1.083065	-0.456452	0.097163
C14	C	0.736706	-0.000137	0.208605
C15	C	0.643408	-0.000164	0.206840
C16	C	0.607334	-0.000178	0.124486
C17	C	0.664564	-0.000184	0.043891
C18	C	0.757861	-0.000170	0.045656
C19	C	0.470103	-0.000209	0.040219
C20	C	0.376800	-0.000219	0.038453
C21	C	0.355650	-0.000202	0.201403
C22	C	0.448947	-0.000188	0.203168
C23	C	0.506171	-0.000191	0.122572
C24	C	1.220279	-0.000212	0.117172
C25	C	1.319577	-0.000218	0.119042
C26	C	1.063104	-0.000188	-0.039996
C27	C	1.061229	-0.000180	-0.139292
N28	N	1.030449	0.456080	0.149887
C29	C	1.051147	0.159461	-0.176712
C30	C	1.049381	0.159464	-0.270011
C31	C	1.057703	-0.000177	-0.325889
C32	C	1.067783	-0.159830	-0.288463
C33	C	1.069543	-0.159830	-0.195165
C34	C	1.064116	-0.159817	-0.482925
C35	C	1.062358	-0.159817	-0.576230
C36	C	1.043954	0.159477	-0.557771
C37	C	1.045714	0.159476	-0.464473
C38	C	1.055796	-0.000178	-0.427054
C39	C	1.050403	-0.000180	0.287053
C40	C	1.052276	-0.000177	0.386350
H41	H	0.766069	-0.000124	0.275667
H42	H	0.635187	-0.000221	-0.023164
H43	H	0.976739	-0.468712	0.203703
Br44	Br	1.172605	-0.581806	0.007472
Br45	Br	1.039862	0.376128	-0.100886
Br46	Br	1.035696	0.376129	-0.320791
Br47	Br	0.835524	-0.000187	-0.063720
H48	H	1.069127	-0.289811	-0.621723
H49	H	0.516693	-0.000213	-0.025411
H50	H	1.072306	-0.289825	-0.452460
Br51	Br	0.327845	-0.000298	-0.073317
H52	H	1.038944	0.289469	-0.418980
H53	H	1.035744	0.289473	-0.588242
Br54	Br	1.079062	-0.376488	-0.364295
H55	H	0.309053	-0.000207	0.267026
H56	H	1.077740	-0.289827	-0.164698
H57	H	0.478314	-0.000160	0.270228
Br58	Br	0.565750	-0.000157	0.316216
