data_functionalizedCrystal
_audit_creation_method	'MofGen! by Chris Wilmer'
_symmetry_space_group_name_H-M	'P1'
_symmetry_Int_Tables_number	1
_symmetry_cell_setting	triclinic
loop_
_symmetry_equiv_pos_as_xyz
  x,y,z
_cell_length_a	8.559649
_cell_length_b	8.597340
_cell_length_c	7.088929
_cell_angle_alpha	103.954719
_cell_angle_beta	84.655815
_cell_angle_gamma	77.625043
loop_
_atom_site_label
_atom_site_type_symbol
_atom_site_fract_x
_atom_site_fract_y
_atom_site_fract_z
O1	O	0.219480	2.074465	0.182749
O2	O	0.245569	1.606585	0.105672
O3	O	-0.000135	1.881746	0.151003
O4	O	0.465184	1.799304	0.137418
O5	O	-0.033046	1.918527	0.475038
O6	O	0.212659	1.643366	0.429707
O7	O	0.186570	2.111247	0.506784
Cu8	Cu	0.196609	1.880665	0.497833
Cu9	Cu	0.235529	1.837167	0.114624
O10	O	0.432274	1.836086	0.461453
C11	C	0.228145	1.565631	0.257914
C12	C	0.225241	1.388806	0.228784
C13	C	-0.076129	1.906384	0.314046
C14	C	-0.253534	1.924980	0.317099
C15	C	0.508268	1.811447	0.298406
C16	C	0.685674	1.792850	0.295340
C17	C	0.203994	2.152200	0.354539
C18	C	0.206900	2.329024	0.383656
N19	N	0.169234	1.911271	0.767363
N20	N	0.262892	1.806574	-0.154904
H21	H	0.238722	1.304701	0.073888
O22	O	-0.203504	1.624148	0.267540
H23	H	-0.076877	1.635519	0.269388
O24	O	-0.364363	2.093691	0.344905
H25	H	-0.490990	2.082322	0.343034
H26	H	0.359948	1.698069	0.745574
H27	H	0.072183	2.019794	0.866897
H28	H	0.193407	1.413123	0.538542
