data_functionalizedCrystal
_audit_creation_method	'MofGen! by Chris Wilmer'
_symmetry_space_group_name_H-M	'P1'
_symmetry_Int_Tables_number	1
_symmetry_cell_setting	triclinic
loop_
_symmetry_equiv_pos_as_xyz
  x,y,z
_cell_length_a	27.731996
_cell_length_b	16.098538
_cell_length_c	17.038272
_cell_angle_alpha	87.069734
_cell_angle_beta	86.866472
_cell_angle_gamma	92.693548
loop_
_atom_site_label
_atom_site_type_symbol
_atom_site_fract_x
_atom_site_fract_y
_atom_site_fract_z
O1	O	0.102901	-0.069170	1.039633
O2	O	0.101234	-0.069195	0.812024
O3	O	0.031994	-0.069164	0.932918
O4	O	0.172141	-0.069201	0.918739
O5	O	0.036021	0.069347	0.925856
O6	O	0.105262	0.069316	0.804962
O7	O	0.106928	0.069341	1.032572
Zn8	Zn	0.106734	0.091320	0.917646
Zn9	Zn	0.101428	-0.091174	0.926950
O10	O	0.176169	0.069310	0.911677
C11	C	0.101733	0.000058	0.779383
C12	C	0.097212	0.000050	0.692645
C13	C	0.015987	0.000095	0.929096
C14	C	-0.037709	0.000103	0.928218
N15	N	0.110356	0.215868	0.911301
C16	C	-0.372875	-0.075441	0.926549
C17	C	-0.574686	-0.075456	0.923218
O18	O	-0.602645	-0.139668	0.926027
N19	N	-0.597726	0.000046	0.918955
C20	C	-0.570311	0.075557	0.915519
O21	O	-0.594539	0.139775	0.911808
C22	C	-0.368500	0.075571	0.918844
C23	C	-0.345463	0.000064	0.923116
C24	C	-0.349837	-0.150941	0.930819
C25	C	-0.299387	-0.150937	0.931656
C26	C	-0.271976	-0.075432	0.928223
C27	C	-0.295013	0.000069	0.923953
C28	C	-0.341086	0.151081	0.915403
C29	C	-0.290630	0.151078	0.916233
C30	C	-0.267592	0.075571	0.920504
C31	C	-0.217152	0.075578	0.921357
N32	N	-0.194111	0.000077	0.925620
C33	C	-0.221523	-0.075428	0.929053
C34	C	-0.676264	0.075544	0.913775
C35	C	-0.726717	0.075541	0.912945
C36	C	-0.731088	-0.075472	0.920642
C37	C	-0.680635	-0.075468	0.921478
C38	C	-0.653224	0.000042	0.918038
C39	C	-0.115575	-0.075413	0.930811
C40	C	-0.065121	-0.075402	0.931651
C41	C	-0.060754	0.075610	0.923949
C42	C	-0.111204	0.075600	0.923113
C43	C	-0.138613	0.000081	0.926542
O44	O	-0.189162	0.139757	0.918541
O45	O	-0.197286	-0.139637	0.932746
C46	C	-0.423324	-0.075445	0.925712
C47	C	-0.446362	0.000055	0.921442
C48	C	-0.418950	0.075560	0.918009
C49	C	-0.496815	0.000052	0.920612
C50	C	-0.524226	-0.075453	0.924045
C51	C	-0.501186	-0.150955	0.928308
C52	C	-0.450736	-0.150950	0.929145
C53	C	-0.441991	0.151062	0.913745
C54	C	-0.492441	0.151051	0.912910
C55	C	-0.519853	0.075546	0.916343
C56	C	0.192175	0.000050	0.915500
C57	C	0.245871	0.000036	0.916378
N58	N	0.097803	-0.215722	0.933300
C59	C	0.080980	0.259466	0.962632
C60	C	0.083518	0.346654	0.958201
C61	C	0.115436	0.390242	0.902443
C62	C	0.144813	0.346638	0.851107
C63	C	0.142272	0.259451	0.855534
C64	C	0.124639	0.653488	0.886392
C65	C	0.127179	0.740680	0.881970
C66	C	0.065883	0.740690	0.989064
C67	C	0.063347	0.653502	0.993490
C68	C	0.092722	0.609906	0.942151
C69	C	0.118032	0.479362	0.897914
C70	C	0.090123	0.520787	0.946676
C71	C	0.138715	0.000039	0.642035
C72	C	0.134465	0.000052	0.560534
C73	C	0.088711	0.000069	0.529646
C74	C	0.047205	0.000082	0.580262
C75	C	0.051456	0.000075	0.661761
C76	C	0.073695	0.000095	0.284066
C77	C	0.069447	0.000099	0.202561
C78	C	0.156707	0.000071	0.182839
C79	C	0.160954	0.000059	0.264340
C80	C	0.119448	0.000077	0.314949
C81	C	0.084366	0.000079	0.446340
C82	C	0.123794	0.000072	0.398253
C83	C	0.106430	0.000086	1.065213
C84	C	0.110950	0.000089	1.151951
H85	H	-0.046367	-0.136891	0.935131
Cl86	Cl	-0.256173	0.246011	0.911909
H87	H	0.064134	0.485295	0.992072
Cl88	Cl	0.208883	0.000052	0.119212
H89	H	-0.661882	-0.136952	0.924955
H90	H	0.032187	0.000113	0.177416
Cl91	Cl	-0.421782	-0.245878	0.934514
H92	H	-0.753416	-0.136951	0.923439
H93	H	0.054991	0.223982	1.008040
Cl94	Cl	-0.370034	0.246010	0.910028
H95	H	-0.038426	0.137084	0.921158
H96	H	0.153172	0.776166	0.836562
Cl97	Cl	-0.641811	0.170481	0.909446
Cl98	Cl	-0.535656	-0.245874	0.932628
Cl99	Cl	0.161570	0.598686	0.821856
H100	H	0.161046	0.000063	0.423406
H101	H	0.198211	0.000036	0.289483
H102	H	0.175972	0.000025	0.667177
Cl103	Cl	-0.384289	-0.245875	0.935137
Cl104	Cl	-0.755673	0.170467	0.907590
Cl105	Cl	0.026849	0.000097	0.407502
Cl106	Cl	0.158158	0.534162	0.827820
Cl107	Cl	0.186643	0.000034	0.496913
Cl108	Cl	-0.000722	0.000092	0.725385
Cl109	Cl	0.021515	0.000116	0.347678
H110	H	-0.137886	-0.136908	0.933599
H111	H	-0.280635	-0.212422	0.935131
Cl112	Cl	-0.010314	0.000109	0.541431
Cl113	Cl	0.179203	0.204643	0.790998
Cl114	Cl	-0.140167	0.170523	0.917759
H115	H	-0.511193	0.212542	0.909437
H116	H	-0.419677	0.212548	0.910951
H117	H	0.059597	0.382151	0.999998
Cl118	Cl	0.028954	0.795501	1.053598
Cl119	Cl	0.023222	0.598706	1.063588
H120	H	0.170799	0.382132	0.805703
