data_functionalizedCrystal
_audit_creation_method	'MofGen! by Chris Wilmer'
_symmetry_space_group_name_H-M	'P1'
_symmetry_Int_Tables_number	1
_symmetry_cell_setting	triclinic
loop_
_symmetry_equiv_pos_as_xyz
  x,y,z
_cell_length_a	14.908783
_cell_length_b	16.959453
_cell_length_c	14.908308
_cell_angle_alpha	86.734947
_cell_angle_beta	90.211273
_cell_angle_gamma	93.315641
loop_
_atom_site_label
_atom_site_type_symbol
_atom_site_fract_x
_atom_site_fract_y
_atom_site_fract_z
Zn1	Zn	1.345291	-0.276463	0.587822
Zn2	Zn	1.845291	0.223537	1.087822
Zn3	Zn	1.353861	-0.400620	0.437459
Zn4	Zn	1.853861	0.099380	0.937459
Zn5	Zn	1.203604	-0.275608	0.428794
Zn6	Zn	1.703604	0.224392	0.928794
Zn7	Zn	1.194885	-0.415756	0.579080
Zn8	Zn	1.694885	0.084244	1.079080
O9	O	1.274410	-0.342112	0.508289
O10	O	1.774410	0.157888	1.008289
O11	O	1.472256	-0.286957	0.575161
O12	O	1.972256	0.213043	1.075161
O13	O	1.341164	-0.377345	0.310486
O14	O	1.841164	0.122655	0.810486
O15	O	1.222462	-0.165109	0.449921
O16	O	1.722462	0.334891	0.949921
O17	O	1.478552	-0.378174	0.464690
O18	O	1.978552	0.121826	0.964690
O19	O	1.326558	-0.165738	0.566759
O20	O	1.826558	0.334262	1.066759
O21	O	1.230772	-0.285499	0.304120
O22	O	1.730772	0.214501	0.804120
O23	O	1.076619	-0.300175	0.441444
O24	O	1.576619	0.199825	0.941444
O25	O	1.207601	-0.403971	0.706063
O26	O	1.707601	0.096029	1.206063
O27	O	1.070213	-0.403141	0.551859
O28	O	1.570213	0.096859	1.051859
O29	O	1.318104	-0.301633	0.712486
O30	O	1.818104	0.198367	1.212486
O31	O	1.332710	-0.513240	0.456213
O32	O	1.832710	-0.013240	0.956213
O33	O	1.215911	-0.524361	0.560262
O34	O	1.715911	-0.024361	1.060262
C35	C	1.040790	-0.353209	0.494763
C36	C	1.540790	0.146791	0.994763
C37	C	0.940846	-0.357976	0.488998
C38	C	1.440846	0.142024	0.988998
C39	C	0.746470	-0.272097	0.593375
C40	C	1.246470	0.227903	1.093375
C41	C	0.652563	-0.276574	0.587962
C42	C	1.152563	0.223426	1.087962
C43	C	0.659122	-0.371402	0.472754
C44	C	1.159122	0.128598	0.972754
C45	C	0.753030	-0.366925	0.478167
C46	C	1.253030	0.133075	0.978167
C47	C	0.796700	-0.317272	0.538481
C48	C	1.296700	0.182728	1.038481
C49	C	0.890609	-0.312800	0.543899
C50	C	1.390609	0.187200	1.043899
C51	C	0.897167	-0.407623	0.428687
C52	C	1.397167	0.092377	0.928687
C53	C	0.803259	-0.412099	0.423273
C54	C	1.303259	0.087901	0.923273
C55	C	1.274317	-0.547481	0.508250
C56	C	1.774317	-0.047481	1.008250
C57	C	1.274358	-0.635336	0.508268
C58	C	1.774358	-0.135336	1.008268
C59	C	1.213520	-0.682428	0.562399
C60	C	1.713520	-0.182428	1.062399
C61	C	1.335239	-0.670797	0.454160
C62	C	1.835239	-0.170797	0.954160
C63	C	1.335283	-0.753342	0.454179
C64	C	1.835283	-0.253342	0.954179
C65	C	1.274445	-0.800433	0.508310
C66	C	1.774445	-0.300433	1.008310
C67	C	1.213564	-0.764981	0.562422
C68	C	1.713564	-0.264981	1.062422
C69	C	1.396169	-0.788801	0.400075
C70	C	1.896169	-0.288801	0.900075
C71	C	1.396216	-0.871350	0.400092
C72	C	1.896216	-0.371350	0.900092
C73	C	1.335374	-0.918443	0.454219
C74	C	1.835374	-0.418443	0.954219
C75	C	1.274489	-0.882986	0.508332
C76	C	1.774489	-0.382986	1.008332
C77	C	1.213651	-0.930078	0.562463
C78	C	1.713651	-0.430078	1.062463
C79	C	1.152762	-0.894622	0.616573
C80	C	1.652762	-0.394622	1.116573
C81	C	1.152721	-0.812074	0.616549
C82	C	1.652721	-0.312074	1.116549
C83	C	1.335414	-1.000991	0.454243
C84	C	1.835414	-0.500991	0.954243
C85	C	1.213695	-1.012630	0.562486
C86	C	1.713695	-0.512630	1.062486
C87	C	1.508942	-0.330972	0.521867
C88	C	2.008942	0.169028	1.021867
C89	C	1.608886	-0.326226	0.527654
C90	C	2.108886	0.173774	1.027654
C91	C	1.260924	-0.354586	0.742811
C92	C	1.760924	0.145414	1.242811
C93	C	1.255177	-0.359901	0.842750
C94	C	1.755177	0.140099	1.342750
C95	C	1.274527	-0.135941	0.508348
C96	C	1.774527	0.364059	1.008348
C97	C	1.274576	-0.048083	0.508374
C98	C	1.774576	0.451917	1.008374
C99	C	1.287896	-0.329627	0.274682
C100	C	1.787896	0.170373	0.774682
C101	C	1.293817	-0.324080	0.174753
C102	C	1.793817	0.175920	0.674753
C103	C	1.359441	-0.263308	1.037237
C104	C	1.859441	0.236692	1.537237
C105	C	1.354044	-0.268299	1.131139
C106	C	1.854044	0.231701	1.631139
C107	C	1.238981	-0.374872	1.124458
C108	C	1.738981	0.125128	1.624458
C109	C	1.244379	-0.369880	1.030556
C110	C	1.744379	0.130120	1.530556
C111	C	1.304611	-0.314097	0.986949
C112	C	1.804611	0.185903	1.486949
C113	C	1.310012	-0.309110	0.893045
C114	C	1.810012	0.190890	1.393045
C115	C	1.194946	-0.415678	0.886366
C116	C	1.694946	0.084322	1.386366
C117	C	1.189549	-0.420670	0.980268
C118	C	1.689549	0.079330	1.480268
H119	H	0.938074	-0.444414	0.383995
H120	H	1.438074	0.055586	0.883995
Cl121	Cl	1.137204	-1.071825	0.630536
Cl122	Cl	1.637204	-0.571825	1.130536
H123	H	1.140507	-0.466086	1.015786
H124	H	1.640507	0.033914	1.515786
Cl125	Cl	1.422975	-0.204446	1.194355
Cl126	Cl	1.922975	0.295554	1.694355
H127	H	1.189943	-0.420288	1.159980
H128	H	1.689943	0.079712	1.659980
H129	H	1.445795	-0.900211	0.356032
H130	H	1.945795	-0.400211	0.856032
H131	H	1.103232	-0.932975	0.660651
H132	H	1.603232	-0.432975	1.160651
H133	H	1.103148	-0.783201	0.660604
H134	H	1.603148	-0.283201	1.160604
Cl135	Cl	1.411959	-1.045561	0.386231
Cl136	Cl	1.911959	-0.545561	0.886231
Cl137	Cl	0.604207	-0.433807	0.396927
Cl138	Cl	1.104207	0.066193	0.896927
H139	H	0.767690	-0.452523	0.374165
H140	H	1.267690	0.047477	0.874165
Cl141	Cl	1.385734	-0.238985	0.838226
Cl142	Cl	1.885734	0.261015	1.338226
H143	H	1.163943	-0.653558	0.606452
H144	H	1.663943	-0.153558	1.106452
H145	H	0.611669	-0.239786	0.632660
H146	H	1.111669	0.260214	1.132660
Cl147	Cl	1.126023	-0.479540	0.823142
Cl148	Cl	1.626023	0.020460	1.323142
Cl149	Cl	1.435169	-0.193191	0.982413
Cl150	Cl	1.935169	0.306809	1.482413
Cl151	Cl	1.411724	-0.611595	0.386121
Cl152	Cl	1.911724	-0.111595	0.886121
Cl153	Cl	0.801373	-0.209687	0.669204
Cl154	Cl	1.301373	0.290313	1.169204
H155	H	0.926164	-0.272371	0.593010
H156	H	1.426164	0.227629	1.093010
H157	H	1.445706	-0.750456	0.356008
H158	H	1.945706	-0.250456	0.856008
