data_functionalizedCrystal
_audit_creation_method	'MofGen! by Chris Wilmer'
_symmetry_space_group_name_H-M	'P1'
_symmetry_Int_Tables_number	1
_symmetry_cell_setting	triclinic
loop_
_symmetry_equiv_pos_as_xyz
  x,y,z
_cell_length_a	13.262430
_cell_length_b	27.732048
_cell_length_c	11.804917
_cell_angle_alpha	78.260199
_cell_angle_beta	93.592914
_cell_angle_gamma	96.428888
loop_
_atom_site_label
_atom_site_type_symbol
_atom_site_fract_x
_atom_site_fract_y
_atom_site_fract_z
O1	O	-1.280795	0.115508	-0.513863
O2	O	-0.995054	0.113510	-0.421320
O3	O	-1.146804	0.044444	-0.470444
O4	O	-1.129045	0.184574	-0.464738
O5	O	-1.186723	0.026284	-0.285329
O6	O	-1.034973	0.095349	-0.236205
O7	O	-1.320715	0.097348	-0.328748
Cu8	Cu	-1.181489	0.094690	-0.265574
Cu9	Cu	-1.134280	0.116167	-0.484494
O10	O	-1.168965	0.166414	-0.279623
C11	C	-0.978468	0.102872	-0.316926
C12	C	-0.869575	0.098224	-0.281658
C13	C	-0.475589	0.124716	-0.585886
C14	C	-0.577900	0.129080	-0.619024
C15	C	-0.650823	0.121367	-0.534685
C16	C	-0.621427	0.109288	-0.417203
C17	C	-0.519107	0.104920	-0.384062
C18	C	-0.694342	0.101570	-0.332862
C19	C	-0.664945	0.089492	-0.215379
C20	C	-0.562635	0.085124	-0.182244
C21	C	-0.489712	0.092838	-0.266583
C22	C	-0.796661	0.105939	-0.366003
C23	C	-0.840179	0.086143	-0.164179
C24	C	-0.737869	0.081778	-0.131041
C25	C	-1.166391	0.017342	-0.377763
C26	C	-1.165272	-0.036356	-0.377391
C27	C	-1.247868	-0.372059	-0.404202
C28	C	-1.243702	-0.573874	-0.402869
O29	O	-1.319231	-0.602284	-0.427383
N30	N	-1.153723	-0.596381	-0.373727
C31	C	-1.064779	-0.568430	-0.344923
O32	O	-0.988148	-0.592203	-0.320117
C33	C	-1.068944	-0.366616	-0.346264
C34	C	-1.158930	-0.344112	-0.375397
C35	C	-1.337847	-0.349555	-0.433334
C36	C	-1.338889	-0.299105	-0.433661
C37	C	-1.249951	-0.271159	-0.404856
C38	C	-1.159972	-0.293662	-0.375724
C39	C	-0.979998	-0.338665	-0.317468
C40	C	-0.981047	-0.288208	-0.317809
C41	C	-1.071034	-0.265705	-0.346942
C42	C	-1.072077	-0.215266	-0.347246
N43	N	-1.162055	-0.192759	-0.376388
C44	C	-1.250993	-0.220705	-0.405193
C45	C	-1.062599	-0.674386	-0.344219
C46	C	-1.061557	-0.724840	-0.343882
C47	C	-1.240481	-0.730279	-0.401830
C48	C	-1.241523	-0.679826	-0.402159
C49	C	-1.152577	-0.651879	-0.373361
C50	C	-1.253174	-0.114756	-0.405876
C51	C	-1.254209	-0.064302	-0.406196
C52	C	-1.075285	-0.058866	-0.348253
C53	C	-1.074251	-0.109317	-0.347928
C54	C	-1.163202	-0.137260	-0.376745
O55	O	-0.996585	-0.186824	-0.322757
O56	O	-1.327606	-0.196920	-0.430020
C57	C	-1.246826	-0.422509	-0.403875
C58	C	-1.156847	-0.445013	-0.374743
C59	C	-1.067909	-0.417066	-0.345938
C60	C	-1.155806	-0.495466	-0.374406
C61	C	-1.244743	-0.523413	-0.403211
C62	C	-1.334722	-0.500906	-0.432354
C63	C	-1.335763	-0.450455	-0.432680
C64	C	-0.977931	-0.439573	-0.316796
C65	C	-0.976897	-0.490024	-0.316470
C66	C	-1.065834	-0.517970	-0.345275
C67	C	-0.337300	0.107986	-0.433141
C68	C	-0.446193	0.112634	-0.468407
C69	C	-1.149376	0.193515	-0.372307
C70	C	-1.150495	0.247214	-0.372687
N71	N	-1.214700	0.079585	-0.111599
N72	N	-1.101076	0.131269	-0.638471
C73	C	-1.021295	0.167555	0.325046
C74	C	-0.996147	0.178987	0.208537
C75	C	-1.050784	0.154138	0.128497
C76	C	-1.130571	0.117854	0.164978
C77	C	-1.155716	0.106417	0.281501
C78	C	-1.185205	0.093000	0.084952
C79	C	-1.264993	0.056716	0.121433
C80	C	-1.290134	0.045282	0.237944
C81	C	-1.235497	0.070131	0.317984
C82	C	-1.160060	0.104437	-0.031571
C83	C	-1.294482	0.043299	-0.075116
C84	C	-1.319629	0.031867	0.041393
H85	H	-0.416209	0.130990	-0.654542
H86	H	-1.095097	0.133979	-0.061263
C87	C	-0.965931	-0.644138	-0.312847
C88	C	-0.886927	-0.674657	-0.287224
C89	C	-0.797868	-0.646815	-0.258298
H90	H	-0.948548	-0.618001	-0.376259
H91	H	-0.976489	-0.630693	-0.247175
H92	H	-0.876369	-0.688095	-0.352890
H93	H	-0.904276	-0.700794	-0.223807
H94	H	-0.808426	-0.633370	-0.192625
H95	H	-0.780495	-0.620680	-0.321714
H96	H	-0.744255	-0.667519	-0.240899
C97	C	-0.882180	-0.362992	-0.285868
C98	C	-0.804521	-0.327706	-0.260754
C99	C	-0.714388	-0.350094	-0.231654
H100	H	-0.891815	-0.388894	-0.219949
H101	H	-0.864074	-0.376207	-0.349098
H102	H	-0.822624	-0.314499	-0.197530
H103	H	-0.794855	-0.301802	-0.326658
H104	H	-0.696282	-0.363309	-0.294885
H105	H	-0.724033	-0.375996	-0.165738
H106	H	-0.661684	-0.326155	-0.214622
C107	C	-0.884455	-0.257820	-0.286777
C108	C	-0.859275	-0.219353	-0.380522
C109	C	-0.770297	-0.191354	-0.351982
H110	H	-0.894946	-0.244314	-0.221191
H111	H	-0.830678	-0.278429	-0.269432
H112	H	-0.913040	-0.198747	-0.397853
H113	H	-0.848764	-0.232845	-0.446119
H114	H	-0.716519	-0.211963	-0.334636
H115	H	-0.780796	-0.177851	-0.286394
H116	H	-0.753195	-0.165254	-0.415586
C117	C	-0.828484	0.119157	-0.493555
C118	C	-0.778811	0.165237	-0.542596
C119	C	-0.808109	0.177435	-0.660097
H120	H	-0.810690	0.094654	-0.532282
H121	H	-0.899853	0.120686	-0.501264
H122	H	-0.707458	0.163705	-0.534894
H123	H	-0.796599	0.189750	-0.503902
H124	H	-0.879478	0.178963	-0.667807
H125	H	-0.790314	0.152929	-0.698814
H126	H	-0.774419	0.208703	-0.693384
H127	H	-1.312897	-0.753042	-0.425284
H128	H	-1.002875	-0.036103	-0.324797
H129	H	-1.314798	-0.661507	-0.425883
C130	C	-0.706111	0.068583	-0.003457
C131	C	-0.755814	0.022514	0.045608
C132	C	-0.726594	0.010345	0.163138
H133	H	-0.634759	0.067046	0.004355
H134	H	-0.723945	0.093114	0.035181
H135	H	-0.737973	-0.002011	0.006982
H136	H	-0.827166	0.024039	0.037828
H137	H	-0.744428	0.034876	0.201775
H138	H	-0.655242	0.008811	0.170938
H139	H	-0.760320	-0.020911	0.196445
H140	H	-0.988285	-0.743159	-0.320140
C141	C	-0.530889	0.071928	-0.054657
C142	C	-0.580602	0.025860	-0.005601
C143	C	-0.551398	0.013690	0.111933
H144	H	-0.459538	0.070388	-0.046832
H145	H	-0.548726	0.096459	-0.016023
H146	H	-0.562758	0.001335	-0.044223
H147	H	-0.651953	0.027387	-0.013394
H148	H	-0.569235	0.038221	0.150567
H149	H	-0.480047	0.012153	0.119746
H150	H	-0.585130	-0.017566	0.145235
C151	C	-0.609606	0.142221	-0.746624
C152	C	-0.523845	0.148054	-0.813391
C153	C	-0.553011	0.160166	-0.930946
H154	H	-0.656491	0.116456	-0.766451
H155	H	-0.640668	0.172254	-0.761253
H156	H	-0.492799	0.118025	-0.798769
H157	H	-0.476950	0.173821	-0.793600
H158	H	-0.584073	0.190199	-0.945575
H159	H	-0.599897	0.134399	-0.950761
H160	H	-0.494827	0.164129	-0.976262
H161	H	-0.734128	0.124921	-0.561674
H162	H	-1.409040	-0.432138	-0.456404
C163	C	-1.406165	-0.007597	0.080890
C164	C	-1.384879	-0.052833	0.057452
C165	C	-1.464575	-0.089197	0.093809
H166	H	-1.413382	-0.010913	0.161739
H167	H	-1.467453	0.001736	0.040581
H168	H	-1.323608	-0.062163	0.097764
H169	H	-1.377672	-0.049533	-0.023390
H170	H	-1.525863	-0.079864	0.053500
H171	H	-1.471786	-0.092509	0.174658
H172	H	-1.450147	-0.119892	0.077903
C173	C	-0.976439	-0.133656	-0.316319
C174	C	-0.898771	-0.098378	-0.291188
C175	C	-0.808646	-0.120774	-0.262096
H176	H	-0.986082	-0.159562	-0.250410
H177	H	-0.958337	-0.146867	-0.379558
H178	H	-0.916870	-0.085175	-0.227956
H179	H	-0.889097	-0.072470	-0.357082
H180	H	-0.790544	-0.133985	-0.325335
H181	H	-0.818299	-0.146680	-0.196189
H182	H	-0.755935	-0.096841	-0.245051
H183	H	-1.030305	0.163448	0.033631
H184	H	-0.406400	0.089287	-0.239607
C185	C	-0.919472	0.077705	-0.072729
C186	C	-0.991168	0.038479	-0.089645
C187	C	-1.064239	0.030695	-0.005442
H188	H	-0.887452	0.069853	0.002038
H189	H	-0.952440	0.106887	-0.078919
H190	H	-0.958203	0.009303	-0.083445
H191	H	-1.023213	0.046321	-0.164395
H192	H	-1.097208	0.059877	-0.011632
H193	H	-1.032210	0.022845	0.069320
H194	H	-1.112899	0.004083	-0.016914
C195	C	-1.431166	-0.531332	-0.463655
C196	C	-1.410973	-0.580328	-0.457156
C197	C	-1.499782	-0.608370	-0.486004
H198	H	-1.482091	-0.530582	-0.411106
H199	H	-1.454173	-0.517870	-0.540198
H200	H	-1.387981	-0.593786	-0.380625
H201	H	-1.360064	-0.581092	-0.509705
H202	H	-1.522789	-0.594909	-0.562547
H203	H	-1.550700	-0.607617	-0.433452
H204	H	-1.486091	-0.641616	-0.481609
H205	H	-1.355094	0.015733	0.267648
C206	C	-1.352002	-0.039955	-0.437922
C207	C	-1.429656	-0.075229	-0.463111
C208	C	-1.519749	-0.052819	-0.492359
H209	H	-1.370190	-0.026726	-0.374766
H210	H	-1.342255	-0.014058	-0.503853
H211	H	-1.439403	-0.101117	-0.397188
H212	H	-1.411502	-0.088460	-0.526273
H213	H	-1.510002	-0.026921	-0.558289
H214	H	-1.537926	-0.039590	-0.429198
H215	H	-1.572445	-0.076747	-0.509463
H216	H	-0.903615	-0.508342	-0.292735
C217	C	-1.349671	-0.145093	-0.437376
C218	C	-1.333788	-0.164856	-0.534139
C219	C	-1.422662	-0.192800	-0.563191
H220	H	-1.366986	-0.171261	-0.374005
H221	H	-1.403418	-0.124469	-0.454838
H222	H	-1.280058	-0.185479	-0.516672
H223	H	-1.316487	-0.138700	-0.597531
H224	H	-1.476409	-0.172176	-0.580653
H225	H	-1.439971	-0.218965	-0.499813
H226	H	-1.411901	-0.206209	-0.628853
H227	H	-1.255974	0.060825	0.412856
C228	C	-1.436678	-0.274761	-0.465392
C229	C	-1.514324	-0.310039	-0.490575
C230	C	-1.604422	-0.287634	-0.519830
H231	H	-1.454870	-0.261530	-0.402240
H232	H	-1.426934	-0.248866	-0.531326
H233	H	-1.524069	-0.335926	-0.424648
H234	H	-1.496165	-0.323273	-0.553732
H235	H	-1.594678	-0.261738	-0.585765
H236	H	-1.622605	-0.274404	-0.456675
H237	H	-1.657114	-0.311565	-0.536931
C238	C	-0.909655	0.218458	0.168958
C239	C	-0.930967	0.263698	0.192351
C240	C	-0.851317	0.300073	0.155896
H241	H	-0.848335	0.209164	0.209213
H242	H	-0.902501	0.221745	0.088092
H243	H	-0.938109	0.260410	0.273202
H244	H	-0.992273	0.273007	0.152098
H245	H	-0.844163	0.303361	0.075030
H246	H	-0.790002	0.290775	0.196154
H247	H	-0.865770	0.330774	0.171753
H248	H	-1.410274	-0.372304	-0.456796
C249	C	-1.353907	0.016338	-0.161982
C250	C	-1.456325	0.024654	-0.164941
C251	C	-1.511052	-0.000176	-0.244972
H252	H	-1.327572	0.028339	-0.236619
H253	H	-1.347905	-0.018153	-0.139609
H254	H	-1.462321	0.059138	-0.187320
H255	H	-1.482690	0.012651	-0.090324
H256	H	-1.505050	-0.034667	-0.222599
H257	H	-1.484708	0.011828	-0.319604
H258	H	-1.580550	0.005460	-0.246983
H259	H	-0.905505	-0.416824	-0.293341
H260	H	-0.976812	0.187781	0.390222
