data_functionalizedCrystal
_audit_creation_method	'MofGen! by Chris Wilmer'
_symmetry_space_group_name_H-M	'P1'
_symmetry_Int_Tables_number	1
_symmetry_cell_setting	triclinic
loop_
_symmetry_equiv_pos_as_xyz
  x,y,z
_cell_length_a	6.817900
_cell_length_b	12.840933
_cell_length_c	10.992421
_cell_angle_alpha	81.913975
_cell_angle_beta	108.764763
_cell_angle_gamma	88.345099
loop_
_atom_site_label
_atom_site_type_symbol
_atom_site_fract_x
_atom_site_fract_y
_atom_site_fract_z
V1	V	-3.925750	0.325199	-0.180787
O2	O	-3.887458	0.319024	0.005573
O3	O	-3.904627	0.322961	-0.355475
O4	O	-3.821128	0.467036	-0.179373
O5	O	-3.971534	0.173951	-0.171748
V6	V	-4.413129	0.307110	-0.158335
O7	O	-4.178551	0.364878	-0.230038
O8	O	-4.610526	0.267431	-0.109084
O9	O	-4.211046	0.309349	0.016353
O10	O	-4.568819	0.313286	-0.344695
O11	O	-4.484742	0.458359	-0.167374
O12	O	-4.294545	0.165273	-0.159749
C13	C	-3.758082	0.317827	-0.398018
C14	C	-3.821723	0.316942	-0.540836
C15	C	-3.651583	0.501608	-0.173375
C16	C	-3.647429	0.619740	-0.173373
C17	C	-4.127432	0.130696	-0.165744
C18	C	-4.110435	0.012563	-0.165743
C19	C	-3.693522	0.309809	-0.736057
C20	C	-3.627146	0.310316	-0.587417
C21	C	-3.948714	0.219672	-0.578566
C22	C	-4.013546	0.218642	-0.727100
C23	C	-4.029473	0.418040	-0.767537
C24	C	-3.959196	0.420150	-0.619043
V25	V	-3.908700	0.811363	-0.180796
O26	O	-3.943865	0.962570	-0.171755
O27	O	-3.814225	0.664180	-0.179382
O28	O	-3.886037	0.852753	-0.355482
O29	O	-3.871556	0.772691	0.005563
V30	V	-4.394134	0.848810	-0.158351
O31	O	-4.163440	0.795833	-0.230051
O32	O	-4.588799	0.887027	-0.109103
O33	O	-4.265795	0.984746	-0.159761
O34	O	-4.476159	0.703519	-0.167394
O35	O	-4.548468	0.893398	-0.344712
O36	O	-4.193983	0.796173	0.016338
C37	C	-4.020935	0.314480	0.058889
C38	C	-3.936530	0.315371	0.201706
C39	C	-3.739042	0.860284	-0.398014
C40	C	-3.801347	0.897264	-0.540831
C41	C	-4.004911	0.771674	0.058883
C42	C	-3.921881	0.733657	0.201702
C43	C	-4.011673	0.920084	-0.614499
C44	C	-4.070242	0.954846	-0.748688
C45	C	-3.918483	0.966780	-0.809208
C46	C	-3.708138	0.943961	-0.735529
C47	C	-3.649572	0.909207	-0.601341
C48	C	-3.709829	0.703380	0.262196
C49	C	-3.631782	0.667671	0.396391
C50	C	-3.765792	0.662233	0.470089
C51	C	-3.977861	0.692517	0.409588
C52	C	-4.055903	0.728232	0.275396
H53	H	-3.627662	0.378881	-0.783120
O54	O	-4.122398	0.686646	0.489080
H55	H	-4.118581	0.603915	0.536139
O56	O	-4.284631	0.760868	0.210149
H57	H	-4.364689	0.751070	0.283948
H58	H	-3.478303	0.890624	-0.541371
O59	O	-3.681614	0.623709	0.614826
H60	H	-3.609824	0.541880	0.632971
H61	H	-3.600679	0.707806	0.202208
O62	O	-3.498098	0.402373	-0.554130
H63	H	-3.357776	0.394701	-0.583538
O64	O	-3.981791	1.004306	-0.953939
H65	H	-3.928117	0.943383	-1.000960
O66	O	-4.263789	0.424793	-0.822038
H67	H	-4.320400	0.498238	-0.893586
H68	H	-4.189847	0.218488	-0.767982
O69	O	-3.487076	0.212166	-0.517027
H70	H	-3.572085	0.141358	-0.541071
H71	H	-3.620646	0.235767	-0.755928
O72	O	-4.175376	0.907219	-0.549238
H73	H	-4.148373	0.959418	-0.474016
O74	O	-4.149280	0.434539	-0.579184
H75	H	-4.147402	0.510027	-0.540646
H76	H	-4.241524	0.973418	-0.808660
O77	O	-3.544463	0.956831	-0.800811
H78	H	-3.620549	0.984820	-0.906497
H79	H	-3.980473	0.491642	-0.817739
H80	H	-3.852414	0.143264	-0.523618
O81	O	-3.926062	0.116352	-0.749366
H82	H	-3.837932	0.068087	-0.654153
O83	O	-4.140751	0.221136	-0.538520
H84	H	-4.147730	0.291374	-0.491183
O85	O	-3.838440	0.515429	-0.589133
H86	H	-3.681249	0.489405	-0.518746
O87	O	-3.403056	0.635000	0.461630
H88	H	-3.323005	0.644765	0.387827
