data_functionalizedCrystal
_audit_creation_method	'MofGen! by Chris Wilmer'
_symmetry_space_group_name_H-M	'P1'
_symmetry_Int_Tables_number	1
_symmetry_cell_setting	triclinic
loop_
_symmetry_equiv_pos_as_xyz
  x,y,z
_cell_length_a	12.827893
_cell_length_b	12.827892
_cell_length_c	21.395356
_cell_angle_alpha	89.977501
_cell_angle_beta	89.978398
_cell_angle_gamma	90.015552
loop_
_atom_site_label
_atom_site_type_symbol
_atom_site_fract_x
_atom_site_fract_y
_atom_site_fract_z
Zn1	Zn	1.597694	-0.416055	-0.354251
Zn2	Zn	1.597581	-0.590810	-0.249483
Zn3	Zn	1.422928	-0.416084	-0.249491
Zn4	Zn	1.422920	-0.590755	-0.354227
O5	O	1.510281	-0.503426	-0.301863
O6	O	1.743915	-0.439247	-0.340360
O7	O	1.574368	-0.567667	-0.161806
O8	O	1.446161	-0.269844	-0.263401
O9	O	1.743832	-0.567639	-0.263387
O10	O	1.574561	-0.269823	-0.340368
O11	O	1.446052	-0.439296	-0.161812
O12	O	1.276691	-0.439243	-0.263378
O13	O	1.446148	-0.567546	-0.441908
O14	O	1.276685	-0.567574	-0.340327
O15	O	1.574554	-0.439195	-0.441925
O16	O	1.574361	-0.737038	-0.263364
O17	O	1.446039	-0.736998	-0.340318
C18	C	1.238771	-0.503407	-0.301851
C19	C	1.122618	-0.503424	-0.301861
C20	C	0.950748	-0.566874	-0.263733
C21	C	1.070798	-0.566858	-0.263722
C22	C	1.510215	-0.774936	-0.301851
C23	C	1.510283	-0.891089	-0.301867
C24	C	1.573791	-0.942780	-0.339987
C25	C	1.573862	-1.062830	-0.340004
C26	C	1.782851	-0.503446	-0.301875
C27	C	1.899004	-0.503455	-0.301880
C28	C	1.510363	-0.503361	-0.465286
C29	C	1.510398	-0.503334	-0.534927
C30	C	1.510375	-0.230856	-0.301888
C31	C	1.510415	-0.114703	-0.301899
C32	C	1.443601	-0.436484	-0.567634
C33	C	1.443598	-0.436464	-0.633069
C34	C	1.510409	-0.503284	-0.665796
C35	C	1.577211	-0.570147	-0.633081
C36	C	1.577205	-0.570172	-0.567647
C37	C	1.604567	-0.511499	-0.769481
C38	C	1.604574	-0.511467	-0.834914
C39	C	1.510427	-0.503213	-0.867617
C40	C	1.416269	-0.494970	-0.834879
C41	C	1.416263	-0.494994	-0.769445
C42	C	1.510423	-0.503265	-0.736748
C43	C	1.443620	-0.436339	-0.971276
C44	C	1.443615	-0.436327	-1.036712
C45	C	1.577237	-0.570004	-1.036723
C46	C	1.577233	-0.570021	-0.971288
C47	C	1.510426	-0.503183	-0.938568
C48	C	1.510259	-0.503415	-0.139075
C49	C	1.510426	-0.503148	-0.069434
H50	H	0.943581	-0.449142	-0.334529
N51	N	0.891702	-0.638812	-0.220482
H52	H	0.910637	-0.713514	-0.230124
H53	H	0.910625	-0.622411	-0.175737
N54	N	1.645878	-1.121690	-0.383249
H55	H	1.720560	-1.102696	-0.373573
H56	H	1.635635	-1.199087	-0.377122
H57	H	1.455959	-0.935711	-0.269247
N58	N	1.371565	-0.364213	-1.071985
H59	H	1.414056	-0.315785	-1.099149
H60	H	1.323128	-0.406734	-1.099082
N61	N	1.314704	-0.486087	-0.870132
H62	H	1.267934	-0.546519	-0.858714
H63	H	1.279247	-0.418426	-0.858730
H64	H	1.631603	-0.624608	-0.541018
H65	H	1.456044	-1.070257	-0.269259
N66	N	1.129729	-0.638788	-0.220459
H67	H	1.207135	-0.628582	-0.226584
H68	H	1.110669	-0.622443	-0.175720
N69	N	1.063702	-0.431491	-0.345129
H70	H	1.018435	-0.474067	-0.374102
H71	H	1.018460	-0.383067	-0.319653
N72	N	1.649280	-0.642215	-0.668371
H73	H	1.633019	-0.716883	-0.656974
H74	H	1.639122	-0.631968	-0.714776
H75	H	1.628106	-0.898160	-0.372613
H76	H	1.631629	-0.624455	-0.944658
H77	H	1.389198	-0.382063	-0.540997
H78	H	1.389221	-0.381916	-0.944634
H79	H	1.339596	-0.488284	-0.742792
H80	H	1.681243	-0.518175	-0.861564
N81	N	1.706116	-0.520421	-0.734211
H82	H	1.765763	-0.525635	-0.764877
H83	H	1.715847	-0.456766	-0.707067
N84	N	1.371549	-0.364361	-0.668356
H85	H	1.329226	-0.322025	-0.637699
H86	H	1.414115	-0.315999	-0.695518
H87	H	1.631639	-0.624408	-1.063368
