data_functionalizedCrystal
_audit_creation_method	'MofGen! by Chris Wilmer'
_symmetry_space_group_name_H-M	'P1'
_symmetry_Int_Tables_number	1
_symmetry_cell_setting	triclinic
loop_
_symmetry_equiv_pos_as_xyz
  x,y,z
_cell_length_a	16.625548
_cell_length_b	18.101395
_cell_length_c	16.625539
_cell_angle_alpha	90.027648
_cell_angle_beta	90.020568
_cell_angle_gamma	90.032172
loop_
_atom_site_label
_atom_site_type_symbol
_atom_site_fract_x
_atom_site_fract_y
_atom_site_fract_z
Zn1	Zn	1.232632	-0.294807	0.455913
Zn2	Zn	1.565965	0.038526	0.789246
Zn3	Zn	1.899299	0.371859	1.122580
Zn4	Zn	1.232515	-0.418656	0.321082
Zn5	Zn	1.565848	-0.085323	0.654415
Zn6	Zn	1.899182	0.248010	0.987748
Zn7	Zn	1.097794	-0.294835	0.321094
Zn8	Zn	1.431127	0.038498	0.654427
Zn9	Zn	1.764461	0.371831	0.987760
Zn10	Zn	1.097744	-0.418614	0.455872
Zn11	Zn	1.431077	-0.085280	0.789205
Zn12	Zn	1.764411	0.248053	1.122538
O13	O	1.165171	-0.356728	0.388490
O14	O	1.498505	-0.023395	0.721823
O15	O	1.831838	0.309939	1.055157
O16	O	1.345449	-0.311242	0.438040
O17	O	1.678782	0.022091	0.771373
O18	O	2.012116	0.355425	1.104706
O19	O	1.214616	-0.402261	0.208251
O20	O	1.547949	-0.068927	0.541584
O21	O	1.881282	0.264406	0.874918
O22	O	1.115750	-0.191199	0.339000
O23	O	1.449084	0.142135	0.672333
O24	O	1.782417	0.475468	1.005667
O25	O	1.345363	-0.402233	0.338980
O26	O	1.678696	-0.068900	0.672313
O27	O	2.012030	0.264433	1.005646
O28	O	1.214815	-0.191178	0.438051
O29	O	1.548149	0.142155	0.771384
O30	O	1.881482	0.475489	1.104718
O31	O	1.115637	-0.311290	0.208260
O32	O	1.448970	0.022043	0.541593
O33	O	1.782303	0.355377	0.874926
O34	O	0.984955	-0.311249	0.338960
O35	O	1.318288	0.022084	0.672293
O36	O	1.651622	0.355418	1.005626
O37	O	1.115665	-0.402161	0.568710
O38	O	1.448999	-0.068828	0.902043
O39	O	1.782332	0.264506	1.235376
O40	O	0.984918	-0.402188	0.437981
O41	O	1.318252	-0.068855	0.771314
O42	O	1.651585	0.264478	1.104647
O43	O	1.214767	-0.311201	0.568740
O44	O	1.548100	0.022133	0.902073
O45	O	1.881434	0.355466	1.235407
O46	O	1.214567	-0.522284	0.338940
O47	O	1.547901	-0.188950	0.672273
O48	O	1.881234	0.144383	1.005606
O49	O	1.115552	-0.522252	0.437969
O50	O	1.448885	-0.188919	0.771303
O51	O	1.782218	0.144414	1.104636
C52	C	0.955680	-0.356718	0.388467
C53	C	1.289014	-0.023384	0.721801
C54	C	1.622347	0.309949	1.055134
C55	C	0.866059	-0.356731	0.388477
C56	C	1.199393	-0.023398	0.721810
C57	C	1.532726	0.309936	1.055144
C58	C	1.165063	-0.549139	0.388466
C59	C	1.498397	-0.215805	0.721800
C60	C	1.831730	0.117528	1.055133
C61	C	1.165091	-0.631453	0.388483
C62	C	1.498424	-0.298119	0.721816
C63	C	1.831758	0.035214	1.055150
C64	C	0.537884	-0.356736	0.388511
C65	C	0.871217	-0.023402	0.721845
C66	C	1.204550	0.309931	1.055178
C67	C	0.629192	-0.356732	0.388499
C68	C	0.962525	-0.023399	0.721833
C69	C	1.295859	0.309934	1.055166
C70	C	0.701969	-0.356734	0.388494
C71	C	1.035302	-0.023400	0.721827
C72	C	1.368635	0.309933	1.055160
C73	C	0.793283	-0.356729	0.388483
C74	C	1.126616	-0.023396	0.721816
C75	C	1.459949	0.309937	1.055149
C76	C	1.165268	-0.930544	0.388527
C77	C	1.498601	-0.597210	0.721860
C78	C	1.831935	-0.263877	1.055193
C79	C	1.103114	-0.899230	0.450988
C80	C	1.436448	-0.565896	0.784321
C81	C	1.769781	-0.232563	1.117655
C82	C	1.102819	-0.813612	0.450793
C83	C	1.436152	-0.480278	0.784126
C84	C	1.769486	-0.146945	1.117459
C85	C	1.165180	-0.782161	0.388506
C86	C	1.498513	-0.448828	0.721839
C87	C	1.831847	-0.115495	1.055172
C88	C	1.142173	-0.813313	0.303528
C89	C	1.475506	-0.479980	0.636861
C90	C	1.808840	-0.146647	0.970194
C91	C	1.141772	-0.898959	0.303901
C92	C	1.475106	-0.565625	0.637235
C93	C	1.808439	-0.232292	0.970568
C94	C	1.250565	-0.898886	0.410295
C95	C	1.583898	-0.565552	0.743628
C96	C	1.917231	-0.232219	1.076962
C97	C	1.250063	-0.813235	0.412159
C98	C	1.583396	-0.479901	0.745492
C99	C	1.916730	-0.146568	1.078825
C100	C	1.165132	-0.698302	0.388489
C101	C	1.498465	-0.364968	0.721822
C102	C	1.831799	-0.031635	1.055155
C103	C	1.165314	-1.014403	0.388538
C104	C	1.498647	-0.681070	0.721871
C105	C	1.831981	-0.347736	1.055205
C106	C	1.375480	-0.356739	0.388513
C107	C	1.708813	-0.023406	0.721846
C108	C	2.042147	0.309927	1.055180
C109	C	1.465101	-0.356744	0.388523
C110	C	1.798435	-0.023411	0.721856
C111	C	2.131768	0.309923	1.055190
C112	C	1.165224	-0.356673	0.598799
C113	C	1.498557	-0.023340	0.932132
C114	C	1.831890	0.309994	1.265466
C115	C	1.165246	-0.356649	0.688420
C116	C	1.498579	-0.023316	1.021753
C117	C	1.831913	0.310017	1.355087
C118	C	1.165302	-0.163566	0.388531
C119	C	1.498635	0.169767	0.721865
C120	C	1.831968	0.503100	1.055198
C121	C	1.165357	-0.081252	0.388549
C122	C	1.498690	0.252081	0.721882
C123	C	1.832024	0.585415	1.055216
C124	C	1.165165	-0.356730	0.178999
C125	C	1.498499	-0.023396	0.512333
C126	C	1.831832	0.309937	0.845666
C127	C	1.165299	-0.356545	0.089378
C128	C	1.498633	-0.023211	0.422712
C129	C	1.831966	0.310122	0.756045
C130	C	1.165283	-0.356567	1.016596
C131	C	1.498617	-0.023233	1.349929
C132	C	1.831950	0.310100	1.683263
C133	C	1.165271	-0.356592	0.925287
C134	C	1.498604	-0.023259	1.258621
C135	C	1.831937	0.310075	1.591954
C136	C	1.165265	-0.356609	0.852511
C137	C	1.498598	-0.023275	1.185844
C138	C	1.831932	0.310058	1.519178
C139	C	1.165252	-0.356633	0.761197
C140	C	1.498585	-0.023300	1.094530
C141	C	1.831918	0.310034	1.427863
H142	H	1.117366	-0.919777	0.514202
H143	H	1.450700	-0.586443	0.847536
H144	H	1.784033	-0.253110	1.180869
N145	N	1.199119	-0.926420	0.240151
N146	N	1.532452	-0.593087	0.573485
N147	N	1.865786	-0.259754	0.906818
H148	H	1.255110	-0.907712	0.252094
H149	H	1.588443	-0.574379	0.585427
H150	H	1.921777	-0.241046	0.918761
H151	H	1.181298	-0.907724	0.185768
H152	H	1.514631	-0.574391	0.519102
H153	H	1.847964	-0.241057	0.852435
N154	N	1.278352	-0.927443	0.490969
N155	N	1.611685	-0.594110	0.824302
N156	N	1.945019	-0.260777	1.157635
H157	H	1.330212	-0.955771	0.484041
H158	H	1.663545	-0.622438	0.817375
H159	H	1.996879	-0.289104	1.150708
H160	H	1.235871	-0.961160	0.514169
H161	H	1.569205	-0.627827	0.847502
H162	H	1.902538	-0.294493	1.180835
N163	N	1.060450	-0.785004	0.278666
N164	N	1.393783	-0.451670	0.611999
N165	N	1.727117	-0.118337	0.945333
H166	H	1.046181	-0.805358	0.223913
H167	H	1.379514	-0.472024	0.557246
H168	H	1.712848	-0.138691	0.890580
H169	H	1.061624	-0.729261	0.276327
H170	H	1.394957	-0.395928	0.609660
H171	H	1.728290	-0.062595	0.942993
N172	N	1.019076	-0.786554	0.431680
N173	N	1.352410	-0.453221	0.765014
N174	N	1.685743	-0.119888	1.098347
H175	H	1.018536	-0.730761	0.431475
H176	H	1.351869	-0.397427	0.764808
H177	H	1.685202	-0.064094	1.098142
H178	H	0.980344	-0.805362	0.473747
H179	H	1.313677	-0.472029	0.807080
H180	H	1.647010	-0.138695	1.140414
N181	N	1.314649	-0.784886	0.356282
N182	N	1.647983	-0.451553	0.689615
N183	N	1.981316	-0.118219	1.022949
H184	H	1.368456	-0.805763	0.372943
H185	H	1.701790	-0.472429	0.706277
H186	H	2.035123	-0.139096	1.039610
H187	H	1.316553	-0.729177	0.359107
H188	H	1.649886	-0.395844	0.692441
H189	H	1.983219	-0.062510	1.025774
N190	N	1.019873	-0.927819	0.432135
N191	N	1.353206	-0.594485	0.765468
N192	N	1.686540	-0.261152	1.098802
H193	H	1.022249	-0.960966	0.383310
H194	H	1.355582	-0.627633	0.716643
H195	H	1.688916	-0.294300	1.049977
H196	H	0.982857	-0.884813	0.420935
H197	H	1.316190	-0.551480	0.754269
H198	H	1.649523	-0.218146	1.087602
N199	N	1.273046	-0.786255	0.494996
N200	N	1.606379	-0.452921	0.828329
N201	N	1.939712	-0.119588	1.161663
H202	H	1.274946	-0.730485	0.495209
H203	H	1.608279	-0.397151	0.828542
H204	H	1.941612	-0.063818	1.161876
H205	H	1.327679	-0.806466	0.509834
H206	H	1.661012	-0.473133	0.843167
H207	H	1.994345	-0.139799	1.176500
N208	N	1.121880	-0.785701	0.534255
N209	N	1.455213	-0.452368	0.867588
N210	N	1.788546	-0.119035	1.200922
H211	H	1.130550	-0.829034	0.571505
H212	H	1.463883	-0.495700	0.904838
H213	H	1.797217	-0.162367	1.238172
H214	H	1.075570	-0.754819	0.554586
H215	H	1.408904	-0.421485	0.887919
H216	H	1.742237	-0.088152	1.221252
N217	N	1.059185	-0.925517	0.279473
N218	N	1.392518	-0.592184	0.612806
N219	N	1.725852	-0.258850	0.946140
H220	H	1.023381	-0.881589	0.268565
H221	H	1.356715	-0.548256	0.601898
H222	H	1.690048	-0.214922	0.935232
H223	H	1.035359	-0.956144	0.324299
H224	H	1.368693	-0.622811	0.657632
H225	H	1.702026	-0.289478	0.990965
N226	N	1.200246	-0.786336	0.240195
N227	N	1.533579	-0.453002	0.573528
N228	N	1.866913	-0.119669	0.906862
H229	H	1.242127	-0.753581	0.266041
H230	H	1.575461	-0.420248	0.599375
H231	H	1.908794	-0.086914	0.932708
H232	H	1.169942	-0.757352	0.198068
H233	H	1.503275	-0.424019	0.531402
H234	H	1.836608	-0.090685	0.864735
N235	N	1.311907	-0.925703	0.350038
N236	N	1.645240	-0.592369	0.683372
N237	N	1.978574	-0.259036	1.016705
H238	H	1.284624	-0.958199	0.308836
H239	H	1.617958	-0.624866	0.642169
H240	H	1.951291	-0.291532	0.975502
H241	H	1.354921	-0.954920	0.378789
H242	H	1.688254	-0.621586	0.712122
H243	H	2.021588	-0.288253	1.045456
