data_functionalizedCrystal
_audit_creation_method	'MofGen! by Chris Wilmer'
_symmetry_space_group_name_H-M	'P1'
_symmetry_Int_Tables_number	1
_symmetry_cell_setting	triclinic
loop_
_symmetry_equiv_pos_as_xyz
  x,y,z
_cell_length_a	13.635800
_cell_length_b	11.102183
_cell_length_c	11.168136
_cell_angle_alpha	88.016551
_cell_angle_beta	108.508683
_cell_angle_gamma	71.396124
loop_
_atom_site_label
_atom_site_type_symbol
_atom_site_fract_x
_atom_site_fract_y
_atom_site_fract_z
V1	V	2.055188	-0.175858	0.393697
O2	O	2.034721	0.008431	0.386205
O3	O	2.043576	-0.348677	0.391002
O4	O	2.043330	-0.173161	0.565403
O5	O	2.034969	-0.168300	0.210597
V6	V	2.293772	-0.153814	0.371797
O7	O	2.192788	-0.224213	0.441736
O8	O	2.381271	-0.105458	0.323758
O9	O	2.193782	0.019006	0.374492
O10	O	2.372938	-0.338102	0.379289
O11	O	2.372691	-0.161371	0.554897
O12	O	2.194028	-0.156510	0.200091
V13	V	2.555188	-0.175858	0.393697
O14	O	2.534721	0.008431	0.386205
O15	O	2.543576	-0.348677	0.391002
O16	O	2.543330	-0.173161	0.565403
O17	O	2.534969	-0.168300	0.210597
V18	V	2.793772	-0.153814	0.371797
O19	O	2.692788	-0.224213	0.441736
O20	O	2.881271	-0.105458	0.323758
O21	O	2.693782	0.019006	0.374492
O22	O	2.872938	-0.338102	0.379289
O23	O	2.872691	-0.161371	0.554897
O24	O	2.694028	-0.156510	0.200091
C25	C	1.968739	-0.390807	0.384791
C26	C	1.999969	-0.532089	0.383732
C27	C	1.940127	-0.495800	0.152456
C28	C	1.924877	-0.544030	0.036324
C29	C	1.954225	-0.676778	0.035336
C30	C	1.998830	-0.761301	0.150492
C31	C	2.014081	-0.713072	0.266623
C32	C	1.984726	-0.580319	0.267599
C33	C	2.073930	-0.749361	0.497898
C34	C	2.044575	-0.616613	0.498888
C35	C	2.118535	-0.833884	0.613054
C36	C	2.133779	-0.785654	0.729187
C37	C	2.104427	-0.652898	0.730170
C38	C	2.059825	-0.568383	0.615019
C39	C	1.968425	-0.166917	0.607255
C40	C	1.999454	-0.165856	0.747625
C41	C	2.100290	0.061129	0.380700
C42	C	2.058679	0.202410	0.381767
C43	C	2.100604	-0.162758	0.158233
C44	C	2.059193	-0.163813	0.017861
C45	C	2.468739	-0.390807	0.384791
C46	C	2.499969	-0.532089	0.383732
C47	C	2.468425	-0.166917	0.607255
C48	C	2.499454	-0.165856	0.747625
C49	C	2.100716	-0.171411	0.816317
C50	C	2.132788	-0.170314	0.961397
C51	C	2.600290	0.061129	0.380700
C52	C	2.558679	0.202410	0.381767
C53	C	2.600604	-0.162758	0.158233
C54	C	2.559193	-0.163813	0.017861
C55	C	2.601321	-0.601228	0.389249
C56	C	2.633602	-0.747250	0.388155
C57	C	2.600716	-0.171411	0.816317
C58	C	2.632788	-0.170314	0.961397
H59	H	1.916197	-0.387706	0.153246
Br60	Br	2.415371	-0.705034	0.373810
Br61	Br	2.205648	-0.180693	0.735332
Br62	Br	2.705648	-0.180693	0.735332
H63	H	1.941809	-0.716045	-0.059228
Br64	Br	2.194324	-0.900367	0.885454
H65	H	2.720423	-0.806682	0.392863
H66	H	2.664196	-0.552316	0.394789
H67	H	1.972446	-0.159066	0.958820
Br68	Br	2.777383	-0.178253	1.059811
Br69	Br	2.038685	-0.941462	0.149151
Br70	Br	2.158378	-1.014045	0.611716
H71	H	2.437099	-0.581003	0.378207
H72	H	2.472446	-0.159066	0.958820
H73	H	1.888559	-0.475197	-0.057433
Br74	Br	2.125142	-0.587457	0.887787
H75	H	1.936502	-0.160280	0.796221
H76	H	2.436502	-0.160280	0.796221
H77	H	2.035907	-0.460289	0.615808
Br78	Br	2.277383	-0.178253	1.059811
