data_functionalizedCrystal
_audit_creation_method	'MofGen! by Chris Wilmer'
_symmetry_space_group_name_H-M	'P1'
_symmetry_Int_Tables_number	1
_symmetry_cell_setting	triclinic
loop_
_symmetry_equiv_pos_as_xyz
  x,y,z
_cell_length_a	27.732048
_cell_length_b	23.532407
_cell_length_c	22.610064
_cell_angle_alpha	90.002839
_cell_angle_beta	89.999096
_cell_angle_gamma	97.254333
loop_
_atom_site_label
_atom_site_type_symbol
_atom_site_fract_x
_atom_site_fract_y
_atom_site_fract_z
O1	O	0.058672	-0.755138	-0.049117
O2	O	0.392005	-0.421805	0.284216
O3	O	0.725339	-0.088472	0.617550
O4	O	0.067162	-0.589257	-0.049135
O5	O	0.400496	-0.255923	0.284198
O6	O	0.733829	0.077410	0.617531
O7	O	-0.007472	-0.677349	-0.049114
O8	O	0.325862	-0.344016	0.284219
O9	O	0.659195	-0.010683	0.617552
O10	O	0.133306	-0.667046	-0.049138
O11	O	0.466639	-0.333712	0.284195
O12	O	0.799973	-0.000379	0.617529
O13	O	-0.007461	-0.677334	0.049255
O14	O	0.325873	-0.344000	0.382588
O15	O	0.659206	-0.010667	0.715921
O16	O	0.067173	-0.589241	0.049234
O17	O	0.400507	-0.255908	0.382567
O18	O	0.733840	0.077426	0.715901
O19	O	0.058683	-0.755123	0.049252
O20	O	0.392016	-0.421789	0.382585
O21	O	0.725350	-0.088456	0.715919
Zn22	Zn	0.062930	-0.672179	0.064861
Zn23	Zn	0.396263	-0.338846	0.398195
Zn24	Zn	0.729596	-0.005513	0.731528
Zn25	Zn	0.062915	-0.672200	-0.064744
Zn26	Zn	0.396249	-0.338867	0.268589
Zn27	Zn	0.729582	-0.005533	0.601922
O28	O	0.133317	-0.667030	0.049231
O29	O	0.466650	-0.333697	0.382564
O30	O	0.799984	-0.000363	0.715898
C31	C	-0.025473	-0.677125	0.000072
C32	C	0.307860	-0.343792	0.333405
C33	C	0.641193	-0.010459	0.666738
C34	C	-0.079129	-0.676474	0.000077
C35	C	0.254204	-0.343141	0.333410
C36	C	0.587537	-0.009807	0.666743
C37	C	0.066952	-0.568033	0.000047
C38	C	0.400285	-0.234700	0.333380
C39	C	0.733618	0.098633	0.666714
C40	C	0.066302	-0.504818	0.000041
C41	C	0.399635	-0.171484	0.333374
C42	C	0.732968	0.161849	0.666707
C43	C	0.058894	-0.776346	0.000068
C44	C	0.392227	-0.443013	0.333402
C45	C	0.725560	-0.109679	0.666735
C46	C	0.059544	-0.839562	0.000071
C47	C	0.392877	-0.506228	0.333404
C48	C	0.726210	-0.172895	0.666738
C49	C	-0.417871	-0.724431	0.000052
C50	C	-0.084537	-0.391097	0.333385
C51	C	0.248796	-0.057764	0.666718
C52	C	-0.619534	-0.722014	0.000043
C53	C	-0.286201	-0.388681	0.333376
C54	C	0.047133	-0.055348	0.666710
O55	O	-0.650722	-0.765867	0.000022
O56	O	-0.317389	-0.432534	0.333355
O57	O	0.015945	-0.099201	0.666689
N58	N	-0.638738	-0.669779	0.000038
N59	N	-0.305405	-0.336446	0.333371
N60	N	0.027929	-0.003112	0.666705
C61	C	-0.607523	-0.618144	0.000031
C62	C	-0.274189	-0.284811	0.333364
C63	C	0.059144	0.048523	0.666698
O64	O	-0.628484	-0.573659	0.000020
O65	O	-0.295151	-0.240326	0.333354
O66	O	0.038182	0.093007	0.666687
C67	C	-0.405860	-0.620561	0.000035
C68	C	-0.072527	-0.287228	0.333368
C69	C	0.260806	0.046105	0.666702
C70	C	-0.386659	-0.672800	0.000046
C71	C	-0.053326	-0.339467	0.333380
C72	C	0.280007	-0.006133	0.666713
C73	C	-0.398669	-0.776665	0.000062
C74	C	-0.065336	-0.443332	0.333395
C75	C	0.267998	-0.109999	0.666729
C76	C	-0.348256	-0.777269	0.000067
C77	C	-0.014923	-0.443935	0.333401
C78	C	0.318411	-0.110602	0.666734
C79	C	-0.317045	-0.725638	0.000062
C80	C	0.016288	-0.392305	0.333396
C81	C	0.349622	-0.058971	0.666729
C82	C	-0.336247	-0.673403	0.000052
C83	C	-0.002913	-0.340070	0.333385
C84	C	0.330420	-0.006737	0.666718
C85	C	-0.374646	-0.568927	0.000024
C86	C	-0.041313	-0.235594	0.333357
C87	C	0.292020	0.097740	0.666691
C88	C	-0.324228	-0.569536	0.000024
C89	C	0.009105	-0.236203	0.333357
C90	C	0.342439	0.097131	0.666690
C91	C	-0.305027	-0.621775	0.000035
C92	C	0.028306	-0.288441	0.333368
C93	C	0.361640	0.044892	0.666701
C94	C	-0.254622	-0.622376	0.000052
C95	C	0.078711	-0.289043	0.333385
C96	C	0.412044	0.044291	0.666719
N97	N	-0.235418	-0.674611	0.000057
N98	N	0.097915	-0.341278	0.333390
N99	N	0.431248	-0.007945	0.666724
C100	C	-0.266630	-0.726242	0.000062
C101	C	0.066704	-0.392909	0.333396
C102	C	0.400037	-0.059576	0.666729
C103	C	-0.713399	-0.616879	0.000030
C104	C	-0.380066	-0.283546	0.333363
C105	C	-0.046732	0.049788	0.666696
C106	C	-0.763814	-0.616274	0.000030
C107	C	-0.430481	-0.282941	0.333363
C108	C	-0.097148	0.050392	0.666696
C109	C	-0.775822	-0.720145	0.000041
C110	C	-0.442489	-0.386812	0.333374
C111	C	-0.109155	-0.053478	0.666707
C112	C	-0.725406	-0.720749	0.000045
C113	C	-0.392072	-0.387415	0.333378
C114	C	-0.058739	-0.054082	0.666712
C115	C	-0.694195	-0.669114	0.000035
C116	C	-0.360861	-0.335781	0.333368
C117	C	-0.027528	-0.002447	0.666702
C118	C	-0.160758	-0.727506	0.000074
C119	C	0.172575	-0.394173	0.333407
C120	C	0.505908	-0.060839	0.666741
C121	C	-0.110341	-0.728105	0.000082
C122	C	0.222993	-0.394772	0.333415
C123	C	0.556326	-0.061438	0.666748
C124	C	-0.098337	-0.624235	0.000068
C125	C	0.234996	-0.290901	0.333401
C126	C	0.568329	0.042432	0.666734
C127	C	-0.148751	-0.623635	0.000063
C128	C	0.184583	-0.290302	0.333396
C129	C	0.517916	0.043031	0.666730
C130	C	-0.179961	-0.675276	0.000064
C131	C	0.153373	-0.341942	0.333397
C132	C	0.486706	-0.008609	0.666731
O133	O	-0.223406	-0.578547	0.000066
O134	O	0.109928	-0.245213	0.333400
O135	O	0.443261	0.088120	0.666733
O136	O	-0.245659	-0.770721	0.000060
O137	O	0.087675	-0.437387	0.333393
O138	O	0.421008	-0.104054	0.666726
C139	C	-0.468283	-0.723827	0.000046
C140	C	-0.134950	-0.390494	0.333380
C141	C	0.198383	-0.057161	0.666713
C142	C	-0.487485	-0.671593	0.000036
C143	C	-0.154152	-0.338259	0.333369
C144	C	0.179182	-0.004926	0.666702
C145	C	-0.456274	-0.619962	0.000030
C146	C	-0.122941	-0.286629	0.333364
C147	C	0.210393	0.046705	0.666697
C148	C	-0.537900	-0.670988	0.000036
C149	C	-0.204567	-0.337655	0.333369
C150	C	0.128766	-0.004322	0.666702
C151	C	-0.569112	-0.722619	0.000041
C152	C	-0.235778	-0.389286	0.333374
C153	C	0.097555	-0.055953	0.666707
C154	C	-0.549908	-0.774855	0.000046
C155	C	-0.216574	-0.441521	0.333379
C156	C	0.116759	-0.108188	0.666713
C157	C	-0.499495	-0.775458	0.000051
C158	C	-0.166161	-0.442125	0.333385
C159	C	0.167172	-0.108791	0.666718
C160	C	-0.475478	-0.567727	0.000025
C161	C	-0.142145	-0.234393	0.333359
C162	C	0.191189	0.098940	0.666692
C163	C	-0.525891	-0.567127	0.000021
C164	C	-0.192558	-0.233794	0.333354
C165	C	0.140775	0.099539	0.666687
C166	C	-0.557103	-0.618758	0.000026
C167	C	-0.223769	-0.285425	0.333359
C168	C	0.109564	0.047908	0.666692
C169	C	0.151319	-0.667254	0.000044
C170	C	0.484652	-0.333921	0.333377
C171	C	0.817985	-0.000587	0.666710
C172	C	0.204975	-0.667905	0.000035
C173	C	0.538308	-0.334572	0.333368
C174	C	0.871641	-0.001239	0.666702
N175	N	0.062939	-0.672170	0.153314
N176	N	0.396273	-0.338836	0.486647
N177	N	0.729606	-0.005503	0.819980
C178	C	0.106391	-0.105629	0.000061
C179	C	0.439725	0.227704	0.333394
C180	C	0.773058	0.561038	0.666727
C181	C	0.105787	-0.046230	0.000064
C182	C	0.439121	0.287103	0.333398
C183	C	0.772454	0.620437	0.666731
O184	O	0.142951	-0.009406	0.000080
O185	O	0.476284	0.323927	0.333413
O186	O	0.809618	0.657261	0.666746
N187	N	0.061418	-0.023699	0.000071
N188	N	0.394751	0.309635	0.333404
N189	N	0.728084	0.642968	0.666738
C190	C	0.017649	-0.060570	0.000080
C191	C	0.350982	0.272764	0.333413
C192	C	0.684315	0.606097	0.666746
O193	O	-0.020147	-0.035951	0.000086
O194	O	0.313187	0.297383	0.333419
O195	O	0.646520	0.630716	0.666753
C196	C	0.018253	-0.119967	0.000080
C197	C	0.351586	0.213366	0.333413
C198	C	0.684920	0.546699	0.666747
C199	C	0.062626	-0.142495	0.000068
C200	C	0.395959	0.190838	0.333401
C201	C	0.729292	0.524171	0.666734
C202	C	0.150760	-0.128158	0.000049
C203	C	0.484094	0.205176	0.333382
C204	C	0.817427	0.538509	0.666716
C205	C	0.151364	-0.187552	0.000044
C206	C	0.484697	0.145781	0.333377
C207	C	0.818031	0.479114	0.666711
C208	C	0.107599	-0.224419	0.000051
C209	C	0.440932	0.108915	0.333384
C210	C	0.774265	0.442248	0.666718
C211	C	0.063229	-0.201890	0.000063
C212	C	0.396563	0.131443	0.333396
C213	C	0.729896	0.464776	0.666730
C214	C	-0.025515	-0.156837	0.000093
C215	C	0.307818	0.176496	0.333426
C216	C	0.641151	0.509829	0.666760
C217	C	-0.024907	-0.216239	0.000094
C218	C	0.308426	0.117095	0.333427
C219	C	0.641760	0.450428	0.666761
C220	C	0.019466	-0.238766	0.000082
C221	C	0.352799	0.094567	0.333415
C222	C	0.686132	0.427900	0.666748
C223	C	0.020068	-0.298151	0.000065
C224	C	0.353401	0.035182	0.333398
C225	C	0.686734	0.368515	0.666732
N226	N	0.064437	-0.320683	0.000059
N227	N	0.397771	0.012650	0.333392
N228	N	0.731104	0.345984	0.666725
C229	C	0.108203	-0.283817	0.000052
C230	C	0.441536	0.049517	0.333385
C231	C	0.774870	0.382850	0.666718
C232	C	0.016383	0.064170	0.000080
C233	C	0.349716	0.397503	0.333413
C234	C	0.683049	0.730837	0.666746
C235	C	0.015778	0.123567	0.000075
C236	C	0.349111	0.456900	0.333408
C237	C	0.682445	0.790233	0.666742
C238	C	0.103917	0.137902	0.000061
C239	C	0.437250	0.471236	0.333394
C240	C	0.770584	0.804569	0.666727
C241	C	0.104521	0.078505	0.000061
C242	C	0.437855	0.411838	0.333395
C243	C	0.771188	0.745171	0.666728
C244	C	0.060753	0.041639	0.000073
C245	C	0.394086	0.374972	0.333406
C246	C	0.727419	0.708305	0.666740
C247	C	0.109467	-0.408551	0.000041
C248	C	0.442801	-0.075217	0.333374
C249	C	0.776134	0.258116	0.666708
C250	C	0.110067	-0.467951	0.000034
C251	C	0.443400	-0.134618	0.333367
C252	C	0.776734	0.198715	0.666700
C253	C	0.021928	-0.482282	0.000051
C254	C	0.355262	-0.148948	0.333384
C255	C	0.688595	0.184385	0.666718
C256	C	0.021328	-0.422886	0.000055
C257	C	0.354662	-0.089553	0.333388
C258	C	0.687995	0.243780	0.666722
C259	C	0.065102	-0.386021	0.000052
C260	C	0.398435	-0.052688	0.333385
C261	C	0.731768	0.280645	0.666719
O262	O	-0.017077	-0.335010	0.000052
O263	O	0.316257	-0.001677	0.333386
O264	O	0.649590	0.331657	0.666719
O265	O	0.145992	-0.308444	0.000053
O266	O	0.479325	0.024890	0.333386
O267	O	0.812659	0.358223	0.666720
N268	N	0.062902	-0.672214	-0.153197
N269	N	0.396235	-0.338881	0.180136
N270	N	0.729569	-0.005548	0.513470
C271	C	0.029873	-0.711209	0.561964
C272	C	0.363206	-0.377876	0.895298
C273	C	0.696539	-0.044542	1.228631
C274	C	0.029869	-0.711212	0.623884
C275	C	0.363202	-0.377879	0.957218
C276	C	0.696536	-0.044545	1.290551
O277	O	0.001762	-0.744380	0.655911
O278	O	0.335095	-0.411047	0.989244
O279	O	0.668428	-0.077714	1.322578
N280	N	0.062905	-0.672200	0.654851
N281	N	0.396239	-0.338866	0.988184
N282	N	0.729572	-0.005533	1.321517
C283	C	0.095944	-0.633178	0.623894
C284	C	0.429278	-0.299844	0.957228
C285	C	0.762611	0.033489	1.290561
O286	O	0.124044	-0.599995	0.655919
O287	O	0.457377	-0.266661	0.989253
O288	O	0.790710	0.066672	1.322586
C289	C	0.095945	-0.633173	0.561975
C290	C	0.429278	-0.299839	0.895309
C291	C	0.762612	0.033494	1.228642
C292	C	0.062910	-0.672191	0.531012
C293	C	0.396243	-0.338858	0.864345
C294	C	0.729576	-0.005525	1.197679
C295	C	-0.003160	-0.750224	0.531001
C296	C	0.330173	-0.416891	0.864334
C297	C	0.663506	-0.083558	1.197668
C298	C	-0.003156	-0.750222	0.469085
C299	C	0.330177	-0.416889	0.802419
C300	C	0.663511	-0.083555	1.135752
C301	C	0.029881	-0.711204	0.438133
C302	C	0.363214	-0.377871	0.771466
C303	C	0.696548	-0.044538	1.104800
C304	C	0.062914	-0.672189	0.469096
C305	C	0.396247	-0.338856	0.802430
C306	C	0.729581	-0.005522	1.135763
C307	C	0.128981	-0.594149	0.531020
C308	C	0.462314	-0.260815	0.864353
C309	C	0.795648	0.072518	1.197687
C310	C	0.128979	-0.594146	0.469097
C311	C	0.462312	-0.260813	0.802430
C312	C	0.795646	0.072520	1.135764
C313	C	0.095944	-0.633165	0.438134
C314	C	0.429277	-0.299832	0.771467
C315	C	0.762610	0.033501	1.104800
C316	C	0.095955	-0.633169	0.376229
C317	C	0.429289	-0.299836	0.709562
C318	C	0.762622	0.033498	1.042895
N319	N	0.062919	-0.672182	0.345262
N320	N	0.396252	-0.338848	0.678595
N321	N	0.729586	-0.005515	1.011929
C322	C	0.029882	-0.711199	0.376214
C323	C	0.363215	-0.377866	0.709548
C324	C	0.696549	-0.044532	1.042881
C325	C	0.095939	-0.633191	0.753928
C326	C	0.429273	-0.299858	1.087261
C327	C	0.762606	0.033476	1.420595
C328	C	0.095941	-0.633198	0.815846
C329	C	0.429275	-0.299865	1.149179
C330	C	0.762608	0.033468	1.482512
C331	C	0.029865	-0.711232	0.815831
C332	C	0.363199	-0.377899	1.149165
C333	C	0.696532	-0.044565	1.482498
C334	C	0.029866	-0.711227	0.753912
C335	C	0.363199	-0.377894	1.087246
C336	C	0.696533	-0.044560	1.420579
C337	C	0.062903	-0.672203	0.722961
C338	C	0.396236	-0.338870	1.056295
C339	C	0.729570	-0.005537	1.389628
C340	C	0.029894	-0.711192	0.246187
C341	C	0.363227	-0.377858	0.579520
C342	C	0.696560	-0.044525	0.912854
C343	C	0.029902	-0.711187	0.184266
C344	C	0.363235	-0.377854	0.517599
C345	C	0.696569	-0.044521	0.850933
C346	C	0.095976	-0.633152	0.184286
C347	C	0.429309	-0.299819	0.517619
C348	C	0.762643	0.033515	0.850952
C349	C	0.095969	-0.633158	0.246201
C350	C	0.429303	-0.299825	0.579535
C351	C	0.762636	0.033509	0.912868
C352	C	0.062924	-0.672180	0.277150
C353	C	0.396258	-0.338847	0.610484
C354	C	0.729591	-0.005513	0.943817
O355	O	0.124047	-0.600016	0.344163
O356	O	0.457380	-0.266683	0.677496
O357	O	0.790714	0.066651	1.010829
O358	O	0.001783	-0.744372	0.344182
O359	O	0.335116	-0.411038	0.677515
O360	O	0.668450	-0.077705	1.010848
H361	H	-0.094710	-0.770646	0.000092
H362	H	0.238623	-0.437312	0.333426
H363	H	0.571956	-0.103979	0.666759
N364	N	-0.441818	-0.512036	0.000019
N365	N	-0.108485	-0.178703	0.333353
N366	N	0.224849	0.154631	0.666686
H367	H	-0.461638	-0.478858	0.000015
H368	H	-0.128305	-0.145525	0.333349
H369	H	0.205028	0.187809	0.666682
H370	H	-0.420642	-0.510017	0.036489
H371	H	-0.087309	-0.176684	0.369822
H372	H	0.246025	0.156650	0.703155
N373	N	-0.290572	-0.513838	0.000023
N374	N	0.042762	-0.180505	0.333357
N375	N	0.376095	0.152829	0.666690
H376	H	-0.269391	-0.511766	0.036492
H377	H	0.063942	-0.178433	0.369826
H378	H	0.397276	0.154900	0.703159
H379	H	-0.269413	-0.511804	-0.036463
H380	H	0.063920	-0.178471	0.296871
H381	H	0.397253	0.154863	0.630204
H382	H	-0.779443	-0.573737	0.000031
H383	H	-0.446110	-0.240403	0.333364
H384	H	-0.112776	0.092930	0.666698
N385	N	-0.005738	-0.753266	0.150872
N386	N	0.327595	-0.419933	0.484205
N387	N	0.660929	-0.086599	0.817539
H388	H	-0.000726	-0.747346	0.106949
H389	H	0.332608	-0.414013	0.440282
H390	H	0.665941	-0.080679	0.773616
H391	H	-0.000333	-0.793619	0.161691
H392	H	0.333001	-0.460285	0.495024
H393	H	0.666334	-0.126952	0.828358
N394	N	-0.025274	-0.522050	0.000059
N395	N	0.308059	-0.188717	0.333392
N396	N	0.641393	0.144617	0.666725
H397	H	-0.018155	-0.563095	0.000058
H398	H	0.315179	-0.229762	0.333391
H399	H	0.648512	0.103571	0.666724
H400	H	-0.044616	-0.514798	0.036532
H401	H	0.288717	-0.181465	0.369865
H402	H	0.622050	0.151869	0.703199
N403	N	-0.327546	-0.833610	0.000065
N404	N	0.005787	-0.500276	0.333398
N405	N	0.339120	-0.166943	0.666731
H406	H	-0.306897	-0.836179	0.036529
H407	H	0.026437	-0.502845	0.369862
H408	H	0.359770	-0.169512	0.703196
H409	H	-0.354998	-0.866191	0.000041
H410	H	-0.021665	-0.532858	0.333374
H411	H	0.311668	-0.199524	0.666708
H412	H	-0.801243	-0.762185	0.000045
H413	H	-0.467910	-0.428851	0.333379
H414	H	-0.134576	-0.095518	0.666712
N415	N	0.131604	-0.591065	0.150897
N416	N	0.464938	-0.257732	0.484230
N417	N	0.798271	0.075602	0.817563
H418	H	0.165887	-0.597314	0.161667
H419	H	0.499220	-0.263980	0.495001
H420	H	0.832553	0.069353	0.828334
H421	H	0.126547	-0.597006	0.106985
H422	H	0.459881	-0.263673	0.440318
H423	H	0.793214	0.069661	0.773651
H424	H	0.146202	-0.486290	0.000023
H425	H	0.479535	-0.152956	0.333356
H426	H	0.812869	0.180377	0.666690
N427	N	0.131580	-0.591108	0.720544
N428	N	0.464913	-0.257775	1.053877
N429	N	0.798247	0.075558	1.387210
H430	H	0.113221	-0.566051	0.694857
H431	H	0.446554	-0.232718	1.028190
H432	H	0.779887	0.100615	1.361524
H433	H	0.152499	-0.566436	0.749596
H434	H	0.485832	-0.233103	1.082929
H435	H	0.819166	0.100230	1.416263
N436	N	-0.194416	-0.783202	0.000075
N437	N	0.138917	-0.449869	0.333409
N438	N	0.472251	-0.116535	0.666742
H439	H	-0.174595	-0.816380	0.000084
H440	H	0.158738	-0.483046	0.333417
H441	H	0.492072	-0.149713	0.666751
H442	H	-0.215596	-0.785210	0.036541
H443	H	0.117737	-0.451876	0.369875
H444	H	0.451070	-0.118543	0.703208
N445	N	-0.064668	-0.568550	0.000054
N446	N	0.268666	-0.235217	0.333387
N447	N	0.601999	0.098116	0.666721
H448	H	-0.084478	-0.535364	0.000046
H449	H	0.248855	-0.202031	0.333379
H450	H	0.582188	0.131303	0.666712
H451	H	-0.043487	-0.566531	0.036520
H452	H	0.289846	-0.233197	0.369853
H453	H	0.623179	0.100136	0.703186
N454	N	0.156684	-0.368804	0.000035
N455	N	0.490017	-0.035471	0.333368
N456	N	0.823350	0.297863	0.666702
H457	H	0.158399	-0.343840	-0.036429
H458	H	0.491733	-0.010506	0.296904
H459	H	0.825066	0.322827	0.630238
H460	H	0.158382	-0.343877	0.036526
H461	H	0.491716	-0.010544	0.369860
H462	H	0.825049	0.322790	0.703193
H463	H	0.187497	-0.205889	0.000034
H464	H	0.520830	0.127445	0.333367
H465	H	0.854163	0.460778	0.666700
N466	N	0.131573	-0.591114	0.849236
N467	N	0.464907	-0.257781	1.182570
N468	N	0.798240	0.075553	1.515903
H469	H	0.126562	-0.597031	0.893160
H470	H	0.459895	-0.263698	1.226493
H471	H	0.793228	0.069636	1.559826
H472	H	0.165837	-0.597388	0.838413
H473	H	0.499171	-0.264055	1.171746
H474	H	0.832504	0.069279	1.505079
N475	N	-0.704697	-0.777091	0.000053
N476	N	-0.371364	-0.443757	0.333386
N477	N	-0.038031	-0.110424	0.666720
H478	H	-0.684048	-0.779652	0.036519
H479	H	-0.350715	-0.446319	0.369853
H480	H	-0.017382	-0.112986	0.703186
H481	H	-0.732151	-0.809670	0.000036
H482	H	-0.398817	-0.476337	0.333369
H483	H	-0.065484	-0.143004	0.666703
H484	H	0.002985	-0.742966	0.271379
H485	H	0.336318	-0.409633	0.604712
H486	H	0.669651	-0.076299	0.938046
N487	N	-0.005766	-0.753321	0.849221
N488	N	0.327567	-0.419987	1.182554
N489	N	0.660900	-0.086654	1.515887
H490	H	-0.040048	-0.747072	0.838448
H491	H	0.293285	-0.413739	1.171781
H492	H	0.626619	-0.080406	1.505115
H493	H	-0.000325	-0.793668	0.838425
H494	H	0.333008	-0.460335	1.171758
H495	H	0.666341	-0.127002	1.505091
N496	N	0.197969	-0.088400	0.000075
N497	N	0.531302	0.244934	0.333408
N498	N	0.864635	0.578267	0.666742
H499	H	0.226163	-0.111694	0.000079
H500	H	0.559497	0.221640	0.333412
H501	H	0.892830	0.554973	0.666745
H502	H	0.199654	-0.063431	-0.036383
H503	H	0.532988	0.269902	0.296950
H504	H	0.866321	0.603235	0.630284
H505	H	-0.687991	-0.574829	0.000022
H506	H	-0.354657	-0.241496	0.333355
H507	H	-0.021324	0.091837	0.666688
N508	N	-0.026529	-0.398584	0.000057
N509	N	0.306804	-0.065250	0.333391
N510	N	0.640138	0.268083	0.666724
H511	H	-0.054162	-0.430954	0.000058
H512	H	0.279171	-0.097621	0.333391
H513	H	0.612504	0.235713	0.666725
H514	H	-0.028697	-0.374254	0.036528
H515	H	0.304637	-0.040921	0.369861
H516	H	0.637970	0.292413	0.703194
H517	H	-0.061648	-0.138506	0.000104
H518	H	0.271685	0.194827	0.333437
H519	H	0.605018	0.528161	0.666770
H520	H	-0.390270	-0.526389	0.000011
H521	H	-0.056937	-0.193055	0.333345
H522	H	0.276396	0.140278	0.666678
N523	N	-0.546593	-0.510777	0.000016
N524	N	-0.213259	-0.177444	0.333349
N525	N	0.120074	0.155890	0.666682
H526	H	-0.535188	-0.488187	-0.036453
H527	H	-0.201854	-0.154853	0.296881
H528	H	0.131479	0.178480	0.630214
H529	H	-0.583264	-0.518267	0.000036
H530	H	-0.249930	-0.184933	0.333369
H531	H	0.083403	0.148400	0.666702
N532	N	-0.038789	-0.792304	0.435693
N533	N	0.294544	-0.458971	0.769027
N534	N	0.627878	-0.125638	1.102360
H535	H	-0.059717	-0.817017	0.464705
H536	H	0.273617	-0.483684	0.798038
H537	H	0.606950	-0.150351	1.131371
H538	H	-0.060066	-0.770690	0.410007
H539	H	0.273267	-0.437357	0.743340
H540	H	0.606600	-0.104023	1.076673
N541	N	-0.038789	-0.792320	0.564379
N542	N	0.294545	-0.458987	0.897713
N543	N	0.627878	-0.125653	1.231046
H544	H	-0.059709	-0.817034	0.535360
H545	H	0.273625	-0.483701	0.868693
H546	H	0.606958	-0.150367	1.202026
H547	H	-0.020383	-0.817333	0.590058
H548	H	0.312951	-0.483999	0.923391
H549	H	0.646284	-0.150666	1.256724
N550	N	-0.169464	-0.567295	0.000059
N551	N	0.163869	-0.233961	0.333392
N552	N	0.497202	0.099372	0.666726
H553	H	-0.142040	-0.534679	0.000059
H554	H	0.191293	-0.201345	0.333392
H555	H	0.524627	0.131988	0.666725
H556	H	-0.190115	-0.564788	-0.036413
H557	H	0.143218	-0.231454	0.296921
H558	H	0.476551	0.101879	0.630254
N559	N	-0.030828	0.024409	0.000089
N560	N	0.302506	0.357742	0.333423
N561	N	0.635839	0.691076	0.666756
H562	H	-0.059024	0.047700	0.000093
H563	H	0.274309	0.381034	0.333427
H564	H	0.607643	0.714367	0.666760
H565	H	-0.032504	-0.000551	-0.036377
H566	H	0.300830	0.332783	0.296957
H567	H	0.634163	0.666116	0.630290
H568	H	0.139553	0.167930	0.000058
H569	H	0.472886	0.501263	0.333391
H570	H	0.806220	0.834597	0.666724
H571	H	0.140653	0.060167	0.000054
H572	H	0.473987	0.393500	0.333388
H573	H	0.807320	0.726834	0.666721
N574	N	-0.072115	-0.256003	0.000102
N575	N	0.261219	0.077331	0.333436
N576	N	0.594552	0.410664	0.666769
H577	H	-0.073824	-0.280966	0.036567
H578	H	0.259509	0.052368	0.369901
H579	H	0.592842	0.385701	0.703234
H580	H	-0.100286	-0.232675	0.000088
H581	H	0.233047	0.100658	0.333421
H582	H	0.566380	0.433991	0.666754
N583	N	-0.005764	-0.753311	0.720518
N584	N	0.327569	-0.419977	1.053852
N585	N	0.660903	-0.086644	1.387185
H586	H	-0.026690	-0.778028	0.749528
H587	H	0.306643	-0.444694	1.082861
H588	H	0.639976	-0.111361	1.416195
H589	H	-0.027043	-0.731698	0.694832
H590	H	0.306290	-0.398365	1.028166
H591	H	0.639624	-0.065031	1.361499
N592	N	-0.032081	0.147862	0.000078
N593	N	0.301253	0.481195	0.333411
N594	N	0.634586	0.814528	0.666744
H595	H	-0.059712	0.115489	0.000081
H596	H	0.273622	0.448822	0.333414
H597	H	0.606955	0.782155	0.666748
H598	H	-0.034250	0.172193	0.036546
H599	H	0.299083	0.505526	0.369880
H600	H	0.632417	0.838860	0.703213
N601	N	0.164605	-0.552054	0.564406
N602	N	0.497938	-0.218721	0.897740
N603	N	0.831271	0.114612	1.231073
H604	H	0.185526	-0.527335	0.535394
H605	H	0.518859	-0.194002	0.868727
H606	H	0.852192	0.139332	1.202060
H607	H	0.146197	-0.527047	0.590092
H608	H	0.479530	-0.193713	0.923425
H609	H	0.812863	0.139620	1.256758
N610	N	0.164610	-0.552053	0.435714
N611	N	0.497943	-0.218720	0.769048
N612	N	0.831277	0.114613	1.102381
H613	H	0.185535	-0.527339	0.464729
H614	H	0.518868	-0.194005	0.798062
H615	H	0.852201	0.139328	1.131396
H616	H	0.185891	-0.573661	0.410022
H617	H	0.519224	-0.240328	0.743356
H618	H	0.852557	0.093006	1.076689
N619	N	-0.432328	-0.832358	0.000068
N620	N	-0.098995	-0.499024	0.333402
N621	N	0.234338	-0.165691	0.666735
H622	H	-0.412506	-0.865534	0.000075
H623	H	-0.079173	-0.532201	0.333409
H624	H	0.254160	-0.198868	0.666742
H625	H	-0.453505	-0.834365	0.036537
H626	H	-0.120172	-0.501031	0.369871
H627	H	0.213162	-0.167698	0.703204
H628	H	0.122874	-0.601391	0.271412
H629	H	0.456208	-0.268057	0.604745
H630	H	0.789541	0.065276	0.938079
H631	H	-0.483866	-0.817996	0.000060
H632	H	-0.150533	-0.484663	0.333394
H633	H	0.182800	-0.151330	0.666727
H634	H	-0.575329	-0.816894	0.000053
H635	H	-0.241996	-0.483561	0.333386
H636	H	0.091338	-0.150228	0.666719
