data_functionalizedCrystal
_audit_creation_method	'MofGen! by Chris Wilmer'
_symmetry_space_group_name_H-M	'P1'
_symmetry_Int_Tables_number	1
_symmetry_cell_setting	triclinic
loop_
_symmetry_equiv_pos_as_xyz
  x,y,z
_cell_length_a	14.628931
_cell_length_b	14.560438
_cell_length_c	14.628931
_cell_angle_alpha	59.996784
_cell_angle_beta	89.999882
_cell_angle_gamma	60.001363
loop_
_atom_site_label
_atom_site_type_symbol
_atom_site_fract_x
_atom_site_fract_y
_atom_site_fract_z
Zr1	Zr	0.880625	1.005313	-0.120027
O2	O	0.734666	1.196921	-0.265999
O3	O	0.925369	0.813705	-0.075270
O4	O	0.925370	1.005313	-0.265987
O5	O	0.734664	1.005314	0.075150
O6	O	1.075802	1.005313	-0.265988
O7	O	0.734664	1.005314	-0.075282
O8	O	1.075799	0.662562	0.075171
O9	O	0.734667	1.348065	-0.266009
O10	O	1.056718	0.892517	-0.056192
O11	O	0.944452	0.892517	0.056074
O12	O	0.944454	1.118110	-0.168472
O13	O	0.832188	1.118111	-0.056206
Zr14	Zr	1.120546	1.005314	0.119894
Zr15	Zr	1.120547	1.005313	-0.120027
Zr16	Zr	0.880625	1.005314	0.119894
Zr17	Zr	0.880627	1.246370	-0.120042
Zr18	Zr	1.120545	0.764257	0.119909
O19	O	1.075803	1.196922	0.075137
O20	O	1.075804	1.196921	-0.266000
O21	O	0.734666	1.196922	0.075138
O22	O	1.266506	0.813706	0.265866
O23	O	1.266506	0.813705	-0.075271
O24	O	0.925368	0.813706	0.265867
O25	O	1.266508	1.005314	-0.075283
O26	O	1.075801	1.005315	0.265855
O27	O	0.925370	1.005315	0.265855
O28	O	1.266507	1.005314	0.075149
O29	O	0.925373	1.348065	-0.266009
O30	O	1.075799	0.662563	0.265877
O31	O	1.266505	0.662563	0.265876
O32	O	1.266505	0.662562	0.075171
O33	O	0.734667	1.348066	-0.075304
O34	O	0.925373	1.348066	-0.075304
O35	O	1.056718	0.892517	0.168339
O36	O	1.168983	0.892517	0.056073
O37	O	1.056720	1.118111	-0.056206
O38	O	0.944454	1.118111	0.056059
C39	C	1.000584	0.703788	-0.000047
C40	C	1.000583	0.601453	-0.000041
C41	C	0.917707	0.636667	-0.082932
C42	C	0.917712	0.540527	-0.082961
C43	C	1.083473	0.373961	0.082804
C44	C	1.083472	0.470100	0.082827
C45	C	0.700481	1.005314	-0.000066
C46	C	0.598628	1.005314	-0.000066
C47	C	0.553219	1.005314	-0.078825
C48	C	0.447948	1.005314	-0.078826
C49	C	1.300691	1.005314	-0.000067
C50	C	1.402544	1.005314	-0.000067
C51	C	1.000586	1.005313	-0.300171
C52	C	1.000586	1.005313	-0.402024
C53	C	1.000588	1.306839	-0.000086
C54	C	1.000589	1.409174	-0.000092
C55	C	0.944896	1.117222	-0.503131
C56	C	0.944895	1.117224	-0.608403
C57	C	1.000585	1.005315	0.300038
C58	C	1.000585	1.005315	0.401891
C59	C	1.300689	0.703788	-0.000048
C60	C	1.402541	0.601453	-0.000041
C61	C	1.000583	0.703789	0.300058
C62	C	1.000582	0.601454	0.401917
C63	C	1.300688	0.703789	0.300057
C64	C	1.402541	0.601454	0.401916
C65	C	0.700483	1.306838	-0.300190
C66	C	0.598631	1.409173	-0.402049
C67	C	0.700483	1.306839	-0.000085
C68	C	0.598631	1.409174	-0.000091
C69	C	1.000589	1.306838	-0.300190
C70	C	1.000589	1.409173	-0.402050
C71	C	1.391793	0.553373	-0.058637
C72	C	1.487498	0.457227	-0.058635
C73	C	1.604696	0.457244	0.058567
C74	C	1.508992	0.553396	0.058558
C75	C	1.059182	0.553376	0.508372
C76	C	1.059169	0.457230	0.604076
C77	C	0.941954	0.457247	0.486856
C78	C	0.941961	0.553397	0.391155
C79	C	1.508992	0.553375	0.391171
C80	C	1.604689	0.457229	0.486883
C81	C	1.487469	0.457247	0.604081
C82	C	1.391774	0.553398	0.508370
H83	H	1.150966	0.441416	0.150329
C84	C	1.721797	0.404362	0.123034
N85	N	1.809998	0.364528	0.171595
H86	H	0.408895	1.005320	-0.146259
H87	H	1.517752	0.592547	0.106274
H88	H	1.106911	0.592505	0.517142
H89	H	0.897210	1.213034	-0.695139
C90	C	1.174639	0.229468	0.173960
N91	N	1.243305	0.120635	0.242624
C92	C	1.475666	0.404338	-0.123090
N93	N	1.466751	0.364501	-0.171639
C94	C	0.605994	1.005286	-0.169906
N95	N	0.645747	1.005257	-0.238508
H96	H	0.441585	1.005321	0.067362
C97	C	1.721787	0.404340	0.475054
N98	N	1.809987	0.364504	0.466141
C99	C	1.064998	0.875875	-0.390363
N100	N	1.113513	0.778379	-0.381577
H101	H	0.559574	1.005307	0.067366
H102	H	1.106885	0.418091	0.690753
H103	H	0.894228	0.418106	0.478107
H104	H	1.478717	0.418105	0.690765
C105	C	1.520840	0.606244	0.274074
N106	N	1.529768	0.646066	0.185876
C107	C	1.274699	0.606244	-0.123109
N108	N	1.186504	0.646067	-0.171675
H109	H	0.894237	0.592547	0.304468
H110	H	0.850207	0.743618	-0.150402
C111	C	0.826532	0.579273	-0.174139
N112	N	0.757849	0.608462	-0.242816
H113	H	1.305090	0.592548	0.517128
H114	H	1.048260	0.909500	-0.511376
H115	H	0.897224	1.213030	-0.511758
