data_functionalizedCrystal
_audit_creation_method	'MofGen! by Chris Wilmer'
_symmetry_space_group_name_H-M	'P1'
_symmetry_Int_Tables_number	1
_symmetry_cell_setting	triclinic
loop_
_symmetry_equiv_pos_as_xyz
  x,y,z
_cell_length_a	16.053833
_cell_length_b	17.699083
_cell_length_c	17.699083
_cell_angle_alpha	83.283015
_cell_angle_beta	92.883190
_cell_angle_gamma	92.895191
loop_
_atom_site_label
_atom_site_type_symbol
_atom_site_fract_x
_atom_site_fract_y
_atom_site_fract_z
O1	O	0.069314	-1.001234	-0.092875
O2	O	0.569314	-0.501234	0.407125
O3	O	0.069341	-0.780854	-0.105326
O4	O	0.569341	-0.280854	0.394674
O5	O	0.069319	-0.897270	0.011088
O6	O	0.569319	-0.397270	0.511088
O7	O	0.069336	-0.884817	-0.209290
O8	O	0.569336	-0.384817	0.290710
O9	O	-0.069539	-0.902954	0.005410
O10	O	0.430461	-0.402954	0.505410
O11	O	-0.069517	-0.786538	-0.111005
O12	O	0.430483	-0.286538	0.388995
O13	O	-0.069545	-1.006917	-0.098553
O14	O	0.430455	-0.506917	0.401447
Zn15	Zn	-0.091578	-0.897630	-0.105680
Zn16	Zn	0.408422	-0.397630	0.394320
Zn17	Zn	0.091374	-0.890142	-0.098199
Zn18	Zn	0.591374	-0.390142	0.401801
O19	O	-0.069523	-0.890501	-0.214968
O20	O	0.430477	-0.390501	0.285032
C21	C	-0.000084	-0.755499	-0.107719
C22	C	0.499916	-0.255499	0.392281
C23	C	-0.000074	-0.671480	-0.106380
C24	C	0.499926	-0.171480	0.393620
C25	C	-0.000110	-0.899666	0.036446
C26	C	0.499890	-0.399666	0.536446
C27	C	-0.000110	-0.898328	0.120464
C28	C	0.499890	-0.398328	0.620464
N29	N	-0.216437	-0.902746	-0.110786
N30	N	0.283563	-0.402746	0.389214
C31	C	-0.740068	-0.929058	-0.137147
C32	C	-0.240068	-0.429058	0.362853
C33	C	-0.652662	-0.925482	-0.133570
C34	C	-0.152662	-0.425482	0.366430
C35	C	-0.608955	-0.877885	-0.085930
C36	C	-0.108955	-0.377885	0.414070
C37	C	-0.652658	-0.833853	-0.041869
C38	C	-0.152658	-0.333853	0.458131
C39	C	-0.740063	-0.837425	-0.045451
C40	C	-0.240063	-0.337425	0.454549
C41	C	-0.347546	-0.862287	-0.070306
C42	C	0.152454	-0.362287	0.429694
C43	C	-0.260135	-0.858720	-0.066727
C44	C	0.239865	-0.358720	0.433273
C45	C	-0.260145	-0.950349	-0.158429
C46	C	0.239855	-0.450349	0.341571
C47	C	-0.347551	-0.953919	-0.162003
C48	C	0.152449	-0.453919	0.337997
C49	C	-0.391247	-0.909885	-0.117945
C50	C	0.108753	-0.409885	0.382055
N51	N	-0.519611	-0.874231	-0.082271
N52	N	-0.019611	-0.374231	0.417729
N53	N	-0.480589	-0.913535	-0.121609
N54	N	0.019411	-0.413535	0.378391
N55	N	0.216234	-0.885031	-0.093088
N56	N	0.716234	-0.385031	0.406912
C57	C	-0.000117	-1.032273	-0.096160
C58	C	0.499883	-0.532273	0.403840
C59	C	-0.000122	-1.116291	-0.097499
C60	C	0.499878	-0.616291	0.402501
C61	C	-0.000069	-0.622859	-0.174713
C62	C	0.499931	-0.122859	0.325287
C63	C	-0.000080	-0.543916	-0.173451
C64	C	0.499920	-0.043916	0.326549
C65	C	-0.000090	-0.513596	-0.103855
C66	C	0.499910	-0.013596	0.396145
C67	C	-0.000097	-0.562223	-0.035517
C68	C	0.499903	-0.062223	0.464483
C69	C	-0.000092	-0.641165	-0.036780
C70	C	0.499908	-0.141165	0.463220
C71	C	-0.000118	-0.243861	-0.030423
C72	C	0.499882	0.256139	0.469577
C73	C	-0.000121	-0.164913	-0.029165
C74	C	0.499879	0.335087	0.470835
C75	C	-0.000106	-0.146613	-0.167094
C76	C	0.499894	0.353387	0.332906
C77	C	-0.000101	-0.225554	-0.168357
C78	C	0.499899	0.274446	0.331643
C79	C	-0.000113	-0.274175	-0.100019
C80	C	0.499887	0.225825	0.399981
C81	C	-0.000103	-0.359774	-0.101388
C82	C	0.499897	0.140226	0.398612
C83	C	-0.000094	-0.427998	-0.102485
C84	C	0.499906	0.072002	0.397515
C85	C	-0.000092	-0.888105	-0.240326
C86	C	0.499908	-0.388105	0.259674
C87	C	-0.000086	-0.889444	-0.324343
C88	C	0.499914	-0.389444	0.175657
C89	C	-0.000120	-0.966661	0.169085
C90	C	0.499880	-0.466661	0.669085
C91	C	-0.000112	-0.965399	0.248028
C92	C	0.499888	-0.465399	0.748028
C93	C	-0.000101	-0.895802	0.278350
C94	C	0.499899	-0.395802	0.778350
C95	C	-0.000089	-0.827463	0.229723
C96	C	0.499911	-0.327463	0.729723
C97	C	-0.000090	-0.828726	0.150781
C98	C	0.499910	-0.328726	0.650781
C99	C	-0.000081	-0.822367	0.548086
C100	C	0.499919	-0.322367	1.048086
C101	C	-0.000082	-0.821109	0.627034
C102	C	0.499918	-0.321109	1.127034
C103	C	-0.000103	-0.959040	0.645333
C104	C	0.499897	-0.459040	1.145333
C105	C	-0.000105	-0.960303	0.566392
C106	C	0.499895	-0.460303	1.066392
C107	C	-0.000088	-0.891964	0.517772
C108	C	0.499912	-0.391964	1.017772
C109	C	-0.000095	-0.893334	0.432173
C110	C	0.499905	-0.393334	0.932173
C111	C	-0.000100	-0.894432	0.363947
C112	C	0.499900	-0.394432	0.863947
H113	H	-0.775648	-0.967820	-0.175938
H114	H	-0.275648	-0.467820	0.324062
H115	H	-0.000101	-0.107016	-0.222738
H116	H	0.499899	0.392984	0.277262
H117	H	-0.000068	-0.766721	0.508509
H118	H	0.499932	-0.266721	1.008509
N119	N	-0.000133	-1.039103	0.300467
N120	N	0.499867	-0.539103	0.800467
H121	H	-0.000126	-1.027745	0.355078
H122	H	0.499874	-0.527745	0.855078
H123	H	0.051336	-1.067338	0.292764
H124	H	0.551336	-0.567338	0.792764
N125	N	-0.212994	-0.807386	-0.015333
N126	N	0.287006	-0.307386	0.484667
H127	H	-0.150993	-0.811814	-0.019744
H128	H	0.349007	-0.311814	0.480256
H129	H	-0.228292	-0.823079	0.039102
H130	H	0.271708	-0.323079	0.539102
H131	H	-0.383113	-0.826433	-0.034429
H132	H	0.116887	-0.326433	0.465571
N133	N	-0.605531	-0.972976	-0.181083
N134	N	-0.105531	-0.472976	0.318917
H135	H	-0.569256	-0.938477	-0.216689
H136	H	-0.069256	-0.438477	0.283311
H137	H	-0.646537	-1.003669	-0.211752
H138	H	-0.146537	-0.503669	0.288248
H139	H	-0.617065	-0.795095	-0.003083
H140	H	-0.117065	-0.295095	0.496917
H141	H	-0.775641	-0.801572	-0.009575
H142	H	-0.275641	-0.301572	0.490425
H143	H	-0.000118	-1.016976	0.541709
H144	H	0.499882	-0.516976	1.041709
H145	H	-0.000061	-0.647539	-0.231386
H146	H	0.499939	-0.147539	0.268614
N147	N	-0.000132	-0.132208	0.045903
N148	N	0.499868	0.367792	0.545903
H149	H	-0.000141	-0.174987	0.089003
H150	H	0.499859	0.325013	0.589003
H151	H	-0.051610	-0.101965	0.047318
H152	H	0.448390	0.398035	0.547318
H153	H	-0.000075	-0.504332	-0.229095
H154	H	0.499925	-0.004332	0.270905
N155	N	-0.000079	-0.258257	-0.243420
N156	N	0.499921	0.241743	0.256580
H157	H	-0.000078	-0.215476	-0.286519
H158	H	0.499922	0.284524	0.213481
H159	H	-0.051552	-0.292728	-0.249056
H160	H	0.448448	0.207272	0.250944
N161	N	-0.000075	-0.746041	0.659740
N162	N	0.499925	-0.246041	1.159740
H163	H	-0.000064	-0.702940	0.616962
H164	H	0.499936	-0.202940	1.116962
H165	H	0.051400	-0.740410	0.694201
H166	H	0.551400	-0.240410	1.194201
H167	H	-0.000128	-0.283439	0.025222
H168	H	0.499872	0.216561	0.525222
H169	H	-0.383131	-0.992680	-0.200795
H170	H	0.116869	-0.492680	0.299205
H171	H	-0.000074	-0.770795	0.254417
H172	H	0.499926	-0.270795	0.754417
N173	N	-0.000121	-0.529526	0.039548
N174	N	0.499879	-0.029526	0.539548
H175	H	-0.000123	-0.472139	0.029981
H176	H	0.499877	0.027861	0.529981
H177	H	0.051350	-0.545207	0.071554
H178	H	0.551350	-0.045207	0.571554
H179	H	-0.000096	-0.680752	0.018864
H180	H	0.499904	-0.180752	0.518864
H181	H	-0.000134	-1.023335	0.144404
H182	H	0.499866	-0.523335	0.644404
N183	N	-0.000121	-1.032752	0.697773
N184	N	0.499879	-0.532752	1.197773
H185	H	-0.000116	-1.021395	0.752384
H186	H	0.499884	-0.521395	1.252384
H187	H	0.051347	-1.060987	0.690071
H188	H	0.551347	-0.560987	1.190071
H189	H	-0.000082	-0.773081	0.111194
H190	H	0.499918	-0.273081	0.611194
H191	H	-0.224558	-0.986198	-0.194299
H192	H	0.275442	-0.486198	0.305701
