data_functionalizedCrystal
_audit_creation_method	'MofGen! by Chris Wilmer'
_symmetry_space_group_name_H-M	'P1'
_symmetry_Int_Tables_number	1
_symmetry_cell_setting	triclinic
loop_
_symmetry_equiv_pos_as_xyz
  x,y,z
_cell_length_a	11.026607
_cell_length_b	23.532407
_cell_length_c	22.610064
_cell_angle_alpha	90.000603
_cell_angle_beta	90.009417
_cell_angle_gamma	95.717347
loop_
_atom_site_label
_atom_site_type_symbol
_atom_site_fract_x
_atom_site_fract_y
_atom_site_fract_z
O1	O	1.607301	0.238178	0.049208
O2	O	1.254321	0.211056	0.049207
O3	O	1.441455	0.142805	0.049197
O4	O	1.420167	0.306429	0.049218
O5	O	1.441422	0.142814	-0.049172
O6	O	1.254288	0.211065	-0.049163
O7	O	1.607268	0.238187	-0.049161
Zn8	Zn	1.430773	0.224628	-0.064780
Zn9	Zn	1.430816	0.224616	0.064826
O10	O	1.420134	0.306439	-0.049151
C11	C	1.209154	0.206057	0.000022
C12	C	1.074620	0.191141	0.000020
C13	C	1.440897	0.121536	0.000011
C14	C	1.439267	0.058148	0.000006
C15	C	1.000318	0.232326	0.000026
C16	C	0.861270	0.216911	0.000025
C17	C	1.539786	-0.330383	0.000039
C18	C	1.538272	-0.389942	0.000043
O19	O	1.631454	-0.416886	0.000066
N20	N	1.427021	-0.424269	0.000042
C21	C	1.317277	-0.399034	0.000043
O22	O	1.222510	-0.433701	0.000043
C23	C	1.318792	-0.339476	0.000043
C24	C	1.430050	-0.305152	0.000038
C25	C	1.651035	-0.296059	0.000035
C26	C	1.652548	-0.236503	0.000029
C27	C	1.542813	-0.211272	0.000028
C28	C	1.431564	-0.245596	0.000032
C29	C	1.209049	-0.314242	0.000047
C30	C	1.210574	-0.254679	0.000048
C31	C	1.321832	-0.220355	0.000043
C32	C	1.323342	-0.160810	0.000025
N33	N	1.434593	-0.126482	0.000026
C34	C	1.544328	-0.151714	0.000028
C35	C	1.314103	-0.524111	0.000044
C36	C	1.312586	-0.583668	0.000041
C37	C	1.533582	-0.574572	0.000042
C38	C	1.535097	-0.515013	0.000042
C39	C	1.425354	-0.489784	0.000046
C40	C	1.547498	-0.026643	0.000015
C41	C	1.549002	0.032917	0.000007
C42	C	1.328007	0.023815	0.000009
C43	C	1.326503	-0.035740	0.000014
C44	C	1.436258	-0.060967	0.000019
O45	O	1.230208	-0.133826	0.000005
O46	O	1.639079	-0.117040	0.000035
C47	C	1.652435	0.243186	0.000026
C48	C	1.786969	0.258102	0.000031
C49	C	1.420693	0.327707	0.000036
C50	C	1.422322	0.391095	0.000045
N51	N	1.430752	0.224637	-0.153232
C52	C	1.513683	0.194400	-0.561878
C53	C	1.513689	0.194397	-0.623798
O54	O	1.584148	0.168692	-0.655820
N55	N	1.430815	0.224604	-0.654770
C56	C	1.347922	0.254811	-0.623818
O57	O	1.277432	0.280504	-0.655847
C58	C	1.347911	0.254811	-0.561899
C59	C	1.430798	0.224607	-0.530931
C60	C	1.596562	0.164198	-0.530910
C61	C	1.596557	0.164203	-0.468994
C62	C	1.513673	0.194409	-0.438047
C63	C	1.430793	0.224611	-0.469015
C64	C	1.265013	0.285015	-0.530949
C65	C	1.265008	0.285012	-0.469026
C66	C	1.347896	0.254808	-0.438057
C67	C	1.347904	0.254823	-0.376152
N68	N	1.430777	0.224616	-0.345181
C69	C	1.513662	0.194409	-0.376128
C70	C	1.347950	0.254809	-0.753852
C71	C	1.347966	0.254812	-0.815769
C72	C	1.513732	0.194397	-0.815745
C73	C	1.513721	0.194397	-0.753826
C74	C	1.430824	0.224602	-0.722880
C75	C	1.513645	0.194421	-0.246101
C76	C	1.513636	0.194430	-0.184180
C77	C	1.347867	0.254843	-0.184209
C78	C	1.347880	0.254837	-0.246125
C79	C	1.430774	0.224621	-0.277069
O80	O	1.277477	0.280513	-0.344091
O81	O	1.584130	0.168715	-0.344091
N82	N	1.430847	0.224603	0.153278
H83	H	1.039647	0.278998	0.000029
F84	F	1.664313	-0.053484	0.000021
H85	H	1.743146	-0.208561	0.000027
H86	H	0.821946	0.170236	0.000034
F87	F	1.650373	-0.601435	0.000047
H88	H	1.197518	0.309610	-0.556154
H89	H	1.224731	-0.503573	0.000042
F90	F	1.023221	0.130136	0.000008
H91	H	1.280397	0.279438	-0.271340
H92	H	1.197500	0.309608	-0.443832
F93	F	1.259762	0.286968	-0.848722
H94	H	1.639606	0.060862	0.000002
F95	F	1.090631	-0.350760	0.000055
H96	H	1.280387	0.279439	-0.159002
F97	F	0.838359	0.319111	0.000032
H98	H	1.581144	0.169816	-0.271289
F99	F	1.601943	0.162247	-0.848693
H100	H	1.740400	-0.316595	0.000038
H101	H	1.625693	-0.487070	0.000038
F102	F	1.259722	0.286963	-0.720921
F103	F	1.093767	-0.227831	0.000053
F104	F	1.194170	-0.620193	0.000035
H105	H	1.235908	-0.063688	0.000001
F106	F	1.601938	0.162249	-0.720873
H107	H	1.238664	0.044369	0.000006
H108	H	1.664047	0.139606	-0.443783
F109	F	1.684785	0.132045	-0.563838
F110	F	1.601862	0.162283	-0.151224
