data_functionalizedCrystal
_audit_creation_method	'MofGen! by Chris Wilmer'
_symmetry_space_group_name_H-M	'P1'
_symmetry_Int_Tables_number	1
_symmetry_cell_setting	triclinic
loop_
_symmetry_equiv_pos_as_xyz
  x,y,z
_cell_length_a	19.288864
_cell_length_b	23.532357
_cell_length_c	17.766277
_cell_angle_alpha	89.988084
_cell_angle_beta	89.976791
_cell_angle_gamma	82.982267
loop_
_atom_site_label
_atom_site_type_symbol
_atom_site_fract_x
_atom_site_fract_y
_atom_site_fract_z
O1	O	0.921118	0.071047	-0.062845
O2	O	1.171118	0.321047	0.187155
O3	O	1.421118	0.571047	0.437155
O4	O	1.671118	0.821047	0.687155
O5	O	0.718826	0.080631	-0.062794
O6	O	0.968826	0.330631	0.187206
O7	O	1.218826	0.580631	0.437206
O8	O	1.468826	0.830631	0.687206
O9	O	0.826091	-0.007082	-0.062805
O10	O	1.076091	0.242918	0.187195
O11	O	1.326091	0.492918	0.437195
O12	O	1.576091	0.742918	0.687195
O13	O	0.813854	0.158760	-0.062833
O14	O	1.063854	0.408760	0.187167
O15	O	1.313854	0.658760	0.437167
O16	O	1.563854	0.908760	0.687167
O17	O	0.826072	-0.007086	0.062383
O18	O	1.076072	0.242914	0.312383
O19	O	1.326072	0.492914	0.562383
O20	O	1.576072	0.742914	0.812383
O21	O	0.718807	0.080627	0.062394
O22	O	0.968807	0.330627	0.312394
O23	O	1.218807	0.580627	0.562394
O24	O	1.468807	0.830627	0.812394
O25	O	0.921100	0.071043	0.062344
O26	O	1.171100	0.321043	0.312344
O27	O	1.421100	0.571043	0.562344
O28	O	1.671100	0.821043	0.812344
Cu29	Cu	0.819952	0.075834	0.073800
Cu30	Cu	1.069952	0.325834	0.323800
Cu31	Cu	1.319952	0.575834	0.573800
Cu32	Cu	1.569952	0.825834	0.823800
Cu33	Cu	0.819974	0.075839	-0.074250
Cu34	Cu	1.069974	0.325839	0.175750
Cu35	Cu	1.319974	0.575839	0.425750
Cu36	Cu	1.569974	0.825839	0.675750
O37	O	0.813835	0.158756	0.062355
O38	O	1.063835	0.408756	0.312355
O39	O	1.313835	0.658756	0.562355
O40	O	1.563835	0.908756	0.812355
C41	C	0.692941	0.080320	-0.000193
C42	C	0.942941	0.330320	0.249807
C43	C	1.192941	0.580320	0.499807
C44	C	1.442941	0.830320	0.749807
C45	C	0.615841	0.079395	-0.000174
C46	C	0.865841	0.329395	0.249826
C47	C	1.115841	0.579395	0.499826
C48	C	1.365841	0.829395	0.749826
C49	C	0.570975	0.130861	-0.000194
C50	C	0.820975	0.380861	0.249806
C51	C	1.070975	0.630861	0.499806
C52	C	1.320975	0.880861	0.749806
C53	C	0.498530	0.129991	-0.000202
C54	C	0.748530	0.379991	0.249798
C55	C	0.998530	0.629991	0.499798
C56	C	1.248530	0.879991	0.749798
C57	C	0.470956	0.077652	-0.000205
C58	C	0.720956	0.327652	0.249795
C59	C	0.970956	0.577652	0.499795
C60	C	1.220956	0.827652	0.749795
C61	C	0.515832	0.026180	-0.000180
C62	C	0.765832	0.276180	0.249820
C63	C	1.015832	0.526180	0.499820
C64	C	1.265832	0.776180	0.749820
C65	C	0.588274	0.027051	-0.000165
C66	C	0.838274	0.277051	0.249835
C67	C	1.088274	0.527051	0.499835
C68	C	1.338274	0.777051	0.749835
C69	C	0.362836	0.036510	-0.044082
C70	C	0.612836	0.286510	0.205918
C71	C	0.862836	0.536510	0.455918
C72	C	1.112836	0.786510	0.705918
C73	C	0.290395	0.035641	-0.044103
C74	C	0.540395	0.285641	0.205897
C75	C	0.790395	0.535641	0.455897
C76	C	1.040395	0.785641	0.705897
C77	C	0.247519	0.074963	-0.000250
C78	C	0.497519	0.324963	0.249750
C79	C	0.747519	0.574963	0.499750
C80	C	0.997519	0.824963	0.749750
C81	C	0.277092	0.115164	0.043613
C82	C	0.527092	0.365164	0.293613
C83	C	0.777092	0.615164	0.543613
C84	C	1.027092	0.865164	0.793613
C85	C	0.349535	0.116036	0.043629
C86	C	0.599535	0.366036	0.293629
C87	C	0.849535	0.616036	0.543629
C88	C	1.099535	0.866036	0.793629
C89	C	0.392405	0.076702	-0.000222
C90	C	0.642405	0.326702	0.249778
C91	C	0.892405	0.576702	0.499778
C92	C	1.142405	0.826702	0.749778
C93	C	0.124100	0.125490	-0.000278
C94	C	0.374100	0.375490	0.249722
C95	C	0.624100	0.625490	0.499722
C96	C	0.874100	0.875490	0.749722
C97	C	0.051655	0.124618	-0.000282
C98	C	0.301655	0.374618	0.249718
C99	C	0.551655	0.624618	0.499718
C100	C	0.801655	0.874618	0.749718
C101	C	0.068958	0.020805	-0.000268
C102	C	0.318958	0.270805	0.249732
C103	C	0.568958	0.520805	0.499732
C104	C	0.818958	0.770805	0.749732
C105	C	0.141401	0.021678	-0.000256
C106	C	0.391401	0.271678	0.249744
C107	C	0.641401	0.521678	0.499744
C108	C	0.891401	0.771678	0.749744
C109	C	0.168968	0.074022	-0.000265
C110	C	0.418968	0.324022	0.249735
C111	C	0.668968	0.574022	0.499735
C112	C	0.918968	0.824022	0.749735
C113	C	0.825775	-0.028301	-0.000209
C114	C	1.075775	0.221699	0.249791
C115	C	1.325775	0.471699	0.499791
C116	C	1.575775	0.721699	0.749791
C117	C	0.824855	-0.091522	-0.000202
C118	C	1.074855	0.158478	0.249798
C119	C	1.324855	0.408478	0.499798
C120	C	1.574855	0.658478	0.749798
C121	C	0.819088	-0.483543	-0.068481
C122	C	1.069088	-0.233543	0.181519
C123	C	1.319088	0.016457	0.431519
C124	C	1.569088	0.266457	0.681519
C125	C	0.818213	-0.542944	-0.068485
C126	C	1.068213	-0.292944	0.181515
C127	C	1.318213	-0.042944	0.431515
C128	C	1.568213	0.207056	0.681515
O129	O	0.817746	-0.573659	-0.126521
O130	O	1.067746	-0.323659	0.123479
O131	O	1.317746	-0.073659	0.373479
O132	O	1.567746	0.176341	0.623479
N133	N	0.817769	-0.572659	-0.000246
N134	N	1.067769	-0.322659	0.249754
N135	N	1.317769	-0.072659	0.499754
N136	N	1.567769	0.177341	0.749754
C137	C	0.818193	-0.542968	0.068002
C138	C	1.068193	-0.292968	0.318002
C139	C	1.318193	-0.042968	0.568002
C140	C	1.568193	0.207032	0.818002
O141	O	0.817734	-0.573697	0.126045
O142	O	1.067734	-0.323697	0.376045
O143	O	1.317734	-0.073697	0.626045
O144	O	1.567734	0.176303	0.876045
C145	C	0.819063	-0.483567	0.068006
C146	C	1.069063	-0.233567	0.318006
C147	C	1.319063	0.016433	0.568006
C148	C	1.569063	0.266433	0.818006
C149	C	0.819514	-0.453857	-0.000238
C150	C	1.069514	-0.203857	0.249762
C151	C	1.319514	0.046143	0.499762
C152	C	1.569514	0.296143	0.749762
C153	C	0.819538	-0.453832	-0.136719
C154	C	1.069538	-0.203832	0.113281
C155	C	1.319538	0.046168	0.363281
C156	C	1.569538	0.296168	0.613281
C157	C	0.820414	-0.394435	-0.136715
C158	C	1.070414	-0.144435	0.113285
C159	C	1.320414	0.105565	0.363285
C160	C	1.570414	0.355565	0.613285
C161	C	0.820840	-0.364749	-0.068472
C162	C	1.070840	-0.114749	0.181528
C163	C	1.320840	0.135251	0.431528
C164	C	1.570840	0.385251	0.681528
C165	C	0.820390	-0.394460	-0.000234
C166	C	1.070390	-0.144460	0.249766
C167	C	1.320390	0.105540	0.499766
C168	C	1.570390	0.355540	0.749766
C169	C	0.819482	-0.453877	0.136253
C170	C	1.069482	-0.203877	0.386253
C171	C	1.319482	0.046123	0.636253
C172	C	1.569482	0.296123	0.886253
C173	C	0.820351	-0.394472	0.136250
C174	C	1.070351	-0.144472	0.386250
C175	C	1.320351	0.105528	0.636250
C176	C	1.570351	0.355528	0.886250
C177	C	0.820802	-0.364762	0.068006
C178	C	1.070802	-0.114762	0.318006
C179	C	1.320802	0.135238	0.568006
C180	C	1.570802	0.385238	0.818006
C181	C	0.821692	-0.305376	0.068013
C182	C	1.071692	-0.055376	0.318013
C183	C	1.321692	0.194624	0.568013
C184	C	1.571692	0.444624	0.818013
N185	N	0.822136	-0.275662	-0.000226
N186	N	1.072136	-0.025662	0.249774
N187	N	1.322136	0.224338	0.499774
N188	N	1.572136	0.474338	0.749774
C189	C	0.821710	-0.305348	-0.068469
C190	C	1.071710	-0.055348	0.181531
C191	C	1.321710	0.194652	0.431531
C192	C	1.571710	0.444652	0.681531
C193	C	0.816365	-0.667713	0.067990
C194	C	1.066365	-0.417713	0.317990
C195	C	1.316365	-0.167713	0.567990
C196	C	1.566365	0.082287	0.817990
C197	C	0.815501	-0.727113	0.067988
C198	C	1.065501	-0.477113	0.317988
C199	C	1.315501	-0.227113	0.567988
C200	C	1.565501	0.022887	0.817988
C201	C	0.815520	-0.727085	-0.068500
C202	C	1.065520	-0.477085	0.181500
C203	C	1.315520	-0.227085	0.431500
C204	C	1.565520	0.022915	0.681500
C205	C	0.816389	-0.667685	-0.068497
C206	C	1.066389	-0.417685	0.181503
C207	C	1.316389	-0.167685	0.431503
C208	C	1.566389	0.082315	0.681503
C209	C	0.816809	-0.637999	-0.000249
C210	C	1.066809	-0.387999	0.249751
C211	C	1.316809	-0.137999	0.499751
C212	C	1.566809	0.112001	0.749751
C213	C	0.823550	-0.180610	-0.068455
C214	C	1.073550	0.069390	0.181545
C215	C	1.323550	0.319390	0.431545
C216	C	1.573550	0.569390	0.681545
C217	C	0.824429	-0.121208	-0.068444
C218	C	1.074429	0.128792	0.181556
C219	C	1.324429	0.378792	0.431556
C220	C	1.574429	0.628792	0.681556
C221	C	0.824406	-0.121241	0.068043
C222	C	1.074406	0.128759	0.318043
C223	C	1.324406	0.378759	0.568043
C224	C	1.574406	0.628759	0.818043
C225	C	0.823531	-0.180638	0.068033
C226	C	1.073531	0.069362	0.318033
C227	C	1.323531	0.319362	0.568033
C228	C	1.573531	0.569362	0.818033
C229	C	0.823101	-0.210321	-0.000222
C230	C	1.073101	0.039679	0.249778
C231	C	1.323101	0.289679	0.499778
C232	C	1.573101	0.539679	0.749778
O233	O	0.822157	-0.274623	0.126019
O234	O	1.072157	-0.024623	0.376019
O235	O	1.322157	0.225377	0.626019
O236	O	1.572157	0.475377	0.876019
O237	O	0.822159	-0.274611	-0.126502
O238	O	1.072159	-0.024611	0.123498
O239	O	1.322159	0.225389	0.373498
O240	O	1.572159	0.475389	0.623498
C241	C	0.946985	0.071353	-0.000259
C242	C	1.196985	0.321353	0.249741
C243	C	1.446985	0.571353	0.499741
C244	C	1.696985	0.821353	0.749741
C245	C	1.024085	0.072279	-0.000283
C246	C	1.274085	0.322279	0.249717
C247	C	1.524085	0.572279	0.499717
C248	C	1.774085	0.822279	0.749717
C249	C	0.814151	0.179975	-0.000243
C250	C	1.064151	0.429975	0.249757
C251	C	1.314151	0.679975	0.499757
C252	C	1.564151	0.929975	0.749757
C253	C	0.815071	0.243196	-0.000255
C254	C	1.065071	0.493196	0.249745
C255	C	1.315071	0.743196	0.499745
C256	C	1.565071	0.993196	0.749745
N257	N	0.819941	0.075830	0.177930
N258	N	1.069941	0.325830	0.427930
N259	N	1.319941	0.575830	0.677930
N260	N	1.569941	0.825830	0.927930
N261	N	0.819990	0.075839	-0.178380
N262	N	1.069990	0.325839	0.071620
N263	N	1.319990	0.575839	0.321620
N264	N	1.569990	0.825839	0.571620
C265	C	0.867453	0.037010	0.217312
C266	C	1.117453	0.287010	0.467312
C267	C	1.367453	0.537010	0.717312
C268	C	1.617453	0.787010	0.967312
C269	C	0.867457	0.037007	0.296114
C270	C	1.117457	0.287007	0.546114
C271	C	1.367457	0.537007	0.796114
C272	C	1.617457	0.787007	1.046114
C273	C	0.819956	0.075835	0.335531
C274	C	1.069956	0.325835	0.585531
C275	C	1.319956	0.575835	0.835531
C276	C	1.569956	0.825835	1.085531
C277	C	0.772435	0.114658	0.296139
C278	C	1.022435	0.364658	0.546139
C279	C	1.272435	0.614658	0.796139
C280	C	1.522435	0.864658	1.046139
C281	C	0.772428	0.114656	0.217339
C282	C	1.022428	0.364656	0.467339
C283	C	1.272428	0.614656	0.717339
C284	C	1.522428	0.864656	0.967339
C285	C	0.810486	0.127727	0.460361
C286	C	1.060486	0.377727	0.710361
C287	C	1.310486	0.627727	0.960361
C288	C	1.560486	0.877727	1.210361
C289	C	0.810498	0.127730	0.539160
C290	C	1.060498	0.377730	0.789160
C291	C	1.310498	0.627730	1.039160
C292	C	1.560498	0.877730	1.289160
C293	C	0.819975	0.075842	0.578577
C294	C	1.069975	0.325842	0.828577
C295	C	1.319975	0.575842	1.078577
C296	C	1.569975	0.825842	1.328577
C297	C	0.829454	0.023948	0.539185
C298	C	1.079454	0.273948	0.789185
C299	C	1.329454	0.523948	1.039185
C300	C	1.579454	0.773948	1.289185
C301	C	0.829446	0.023946	0.460385
C302	C	1.079446	0.273946	0.710385
C303	C	1.329446	0.523946	0.960385
C304	C	1.579446	0.773946	1.210385
C305	C	0.819958	0.075841	0.420976
C306	C	1.069958	0.325841	0.670976
C307	C	1.319958	0.575841	0.920976
C308	C	1.569958	0.825841	1.170976
C309	C	0.867493	0.037015	0.703405
C310	C	1.117493	0.287015	0.953405
C311	C	1.367493	0.537015	1.203405
C312	C	1.617493	0.787015	1.453405
C313	C	0.867493	0.037012	0.782208
C314	C	1.117493	0.287012	1.032208
C315	C	1.367493	0.537012	1.282208
C316	C	1.617493	0.787012	1.532208
C317	C	0.772474	0.114667	0.782232
C318	C	1.022474	0.364667	1.032232
C319	C	1.272474	0.614667	1.282232
C320	C	1.522474	0.864667	1.532232
C321	C	0.772471	0.114666	0.703430
C322	C	1.022471	0.364666	0.953430
C323	C	1.272471	0.614666	1.203430
C324	C	1.522471	0.864666	1.453430
C325	C	0.819985	0.075840	0.664021
C326	C	1.069985	0.325840	0.914021
C327	C	1.319985	0.575840	1.164021
C328	C	1.569985	0.825840	1.414021
H329	H	0.593414	0.173483	-0.000203
H330	H	0.843414	0.423483	0.249797
H331	H	1.093414	0.673483	0.499797
H332	H	1.343414	0.923483	0.749797
Cl333	Cl	-0.004750	0.189325	-0.000304
Cl334	Cl	0.245250	0.439325	0.249696
Cl335	Cl	0.495250	0.689325	0.499696
Cl336	Cl	0.745250	0.939325	0.749696
H337	H	0.816755	-0.643498	-0.124067
H338	H	1.066755	-0.393498	0.125933
H339	H	1.316755	-0.143498	0.375933
H340	H	1.566755	0.106502	0.625933
H341	H	0.493376	-0.016435	-0.000193
H342	H	0.743376	0.233565	0.249807
H343	H	0.993376	0.483565	0.499807
H344	H	1.243376	0.733565	0.749807
H345	H	0.820682	-0.370304	0.191827
H346	H	1.070682	-0.120304	0.441827
H347	H	1.320682	0.129696	0.691827
H348	H	1.570682	0.379696	0.941827
Cl349	Cl	0.386712	0.166569	0.098772
Cl350	Cl	0.636712	0.416569	0.348772
Cl351	Cl	0.886712	0.666569	0.598772
Cl352	Cl	1.136712	0.916569	0.848772
Cl353	Cl	0.712695	0.163463	0.167827
Cl354	Cl	0.962695	0.413463	0.417827
Cl355	Cl	1.212695	0.663463	0.667827
Cl356	Cl	1.462695	0.913463	0.917827
Cl357	Cl	0.841373	-0.041288	0.588729
Cl358	Cl	1.091373	0.208712	0.838729
Cl359	Cl	1.341373	0.458712	1.088729
Cl360	Cl	1.591373	0.708712	1.338729
Cl361	Cl	0.927179	-0.011801	0.167770
Cl362	Cl	1.177179	0.238199	0.417770
Cl363	Cl	1.427179	0.488199	0.667770
Cl364	Cl	1.677179	0.738199	0.917770
H365	H	0.624805	-0.014860	-0.000148
H366	H	0.874805	0.235140	0.249852
H367	H	1.124805	0.485140	0.499852
H368	H	1.374805	0.735140	0.749852
Cl369	Cl	0.034299	-0.044993	-0.000262
Cl370	Cl	0.284299	0.205007	0.249738
Cl371	Cl	0.534299	0.455007	0.499738
Cl372	Cl	0.784299	0.705007	0.749738
H373	H	0.733795	0.146279	0.814325
H374	H	0.983795	0.396279	1.064325
H375	H	1.233795	0.646279	1.314325
H376	H	1.483795	0.896279	1.564325
H377	H	0.815144	-0.751300	0.123559
H378	H	1.065144	-0.501300	0.373559
H379	H	1.315144	-0.251300	0.623559
H380	H	1.565144	-0.001300	0.873559
Cl381	Cl	0.822977	-0.217991	0.153826
Cl382	Cl	1.072977	0.032009	0.403826
Cl383	Cl	1.322977	0.282009	0.653826
Cl384	Cl	1.572977	0.532009	0.903826
Cl385	Cl	0.712716	0.163468	0.345690
Cl386	Cl	0.962716	0.413468	0.595690
Cl387	Cl	1.212716	0.663468	0.845690
Cl388	Cl	1.462716	0.913468	1.095690
H389	H	0.733786	0.146279	0.671363
H390	H	0.983786	0.396279	0.921363
H391	H	1.233786	0.646279	1.171363
H392	H	1.483786	0.896279	1.421363
Cl393	Cl	0.798587	0.192967	0.588673
Cl394	Cl	1.048587	0.442967	0.838673
Cl395	Cl	1.298587	0.692967	1.088673
Cl396	Cl	1.548587	0.942967	1.338673
H397	H	0.461993	0.171902	-0.000217
H398	H	0.711993	0.421902	0.249783
H399	H	0.961993	0.671902	0.499783
H400	H	1.211993	0.921902	0.749783
H401	H	0.816709	-0.643547	0.123569
H402	H	1.066709	-0.393547	0.373569
H403	H	1.316709	-0.143547	0.623569
H404	H	1.566709	0.106453	0.873569
H405	H	0.824756	-0.097060	0.123604
H406	H	1.074756	0.152940	0.373604
H407	H	1.324756	0.402940	0.623604
H408	H	1.574756	0.652940	0.873604
H409	H	0.837163	-0.018308	0.428315
H410	H	1.087163	0.231692	0.678315
H411	H	1.337163	0.481692	0.928315
H412	H	1.587163	0.731692	1.178315
H413	H	0.266321	0.002909	-0.079822
H414	H	0.516321	0.252909	0.170178
H415	H	0.766321	0.502909	0.420178
H416	H	1.016321	0.752909	0.670178
Cl417	Cl	0.223200	0.164602	0.098746
Cl418	Cl	0.473200	0.414602	0.348746
Cl419	Cl	0.723200	0.664602	0.598746
Cl420	Cl	0.973200	0.914602	0.848746
Cl421	Cl	0.824998	-0.083861	-0.154243
Cl422	Cl	1.074998	0.166139	0.095757
Cl423	Cl	1.324998	0.416139	0.345757
Cl424	Cl	1.574998	0.666139	0.595757
Cl425	Cl	0.814978	-0.764416	-0.154292
Cl426	Cl	1.064978	-0.514416	0.095708
Cl427	Cl	1.314978	-0.264416	0.345708
Cl428	Cl	1.564978	-0.014416	0.595708
Cl429	Cl	0.818910	-0.491213	0.222051
Cl430	Cl	1.068910	-0.241213	0.472051
Cl431	Cl	1.318910	0.008787	0.722051
Cl432	Cl	1.568910	0.258787	0.972051
H433	H	0.906148	0.005394	0.328185
H434	H	1.156148	0.255394	0.578185
H435	H	1.406148	0.505394	0.828185
H436	H	1.656148	0.755394	1.078185
H437	H	0.906180	0.005399	0.671317
H438	H	1.156180	0.255399	0.921317
H439	H	1.406180	0.505399	1.171317
H440	H	1.656180	0.755399	1.421317
Cl441	Cl	0.820975	-0.357093	-0.222512
Cl442	Cl	1.070975	-0.107093	0.027488
Cl443	Cl	1.320975	0.142907	0.277488
Cl444	Cl	1.570975	0.392907	0.527488
Cl445	Cl	0.158758	0.191292	-0.000282
Cl446	Cl	0.408758	0.441292	0.249718
Cl447	Cl	0.658758	0.691292	0.499718
Cl448	Cl	0.908758	0.941292	0.749718
H449	H	0.802757	0.169983	0.428275
H450	H	1.052757	0.419983	0.678275
H451	H	1.302757	0.669983	0.928275
H452	H	1.552757	0.919983	1.178275
Cl453	Cl	0.197808	-0.043026	-0.000235
Cl454	Cl	0.447808	0.206974	0.249765
Cl455	Cl	0.697808	0.456974	0.499765
Cl456	Cl	0.947808	0.706974	0.749765
Cl457	Cl	0.823010	-0.217917	-0.154262
Cl458	Cl	1.073010	0.032083	0.095738
Cl459	Cl	1.323010	0.282083	0.345738
Cl460	Cl	1.573010	0.532083	0.595738
Cl461	Cl	0.416730	-0.012929	-0.099217
Cl462	Cl	0.666730	0.237071	0.150783
Cl463	Cl	0.916730	0.487071	0.400783
Cl464	Cl	1.166730	0.737071	0.650783
Cl465	Cl	0.819004	-0.491141	-0.222522
Cl466	Cl	1.069004	-0.241141	0.027478
Cl467	Cl	1.319004	0.008859	0.277478
Cl468	Cl	1.569004	0.258859	0.527478
Cl469	Cl	0.927223	-0.011798	0.831720
Cl470	Cl	1.177223	0.238202	1.081720
Cl471	Cl	1.427223	0.488202	1.331720
Cl472	Cl	1.677223	0.738202	1.581720
