data_functionalizedCrystal
_audit_creation_method	'MofGen! by Chris Wilmer'
_symmetry_space_group_name_H-M	'P1'
_symmetry_Int_Tables_number	1
_symmetry_cell_setting	triclinic
loop_
_symmetry_equiv_pos_as_xyz
  x,y,z
_cell_length_a	13.032831
_cell_length_b	16.625546
_cell_length_c	13.033454
_cell_angle_alpha	82.779398
_cell_angle_beta	89.091650
_cell_angle_gamma	82.826778
loop_
_atom_site_label
_atom_site_type_symbol
_atom_site_fract_x
_atom_site_fract_y
_atom_site_fract_z
Zn1	Zn	1.498515	-0.391470	-0.780836
Zn2	Zn	1.998515	0.108530	-0.280836
Zn3	Zn	1.520227	-0.545315	-0.608830
Zn4	Zn	2.020227	-0.045315	-0.108830
Zn5	Zn	1.348355	-0.395768	-0.587066
Zn6	Zn	1.848355	0.104232	-0.087066
Zn7	Zn	1.326492	-0.511528	-0.758967
Zn8	Zn	1.826492	-0.011528	-0.258967
O9	O	1.423397	-0.461020	-0.683925
O10	O	1.923397	0.038980	-0.183925
O11	O	1.645316	-0.424219	-0.776280
O12	O	2.145316	0.075781	-0.276280
O13	O	1.515664	-0.541417	-0.462016
O14	O	2.015664	-0.041417	0.037984
O15	O	1.368337	-0.282368	-0.612814
O16	O	1.868337	0.217632	-0.112814
O17	O	1.661268	-0.537249	-0.649907
O18	O	2.161268	-0.037249	-0.149907
O19	O	1.478659	-0.279210	-0.755176
O20	O	1.978659	0.220790	-0.255176
O21	O	1.389391	-0.431545	-0.446026
O22	O	1.889391	0.068455	0.053974
O23	O	1.201534	-0.398783	-0.591608
O24	O	1.701534	0.101217	-0.091608
O25	O	1.331075	-0.479663	-0.905794
O26	O	1.831075	0.020337	-0.405794
O27	O	1.185471	-0.483831	-0.717903
O28	O	1.685471	0.016169	-0.217903
O29	O	1.457459	-0.391457	-0.921861
O30	O	1.957459	0.108543	-0.421861
O31	O	1.494465	-0.653664	-0.628702
O32	O	1.994465	-0.153664	-0.128702
O33	O	1.352128	-0.628840	-0.739007
O34	O	1.852128	-0.128840	-0.239007
C35	C	1.156185	-0.438107	-0.650022
C36	C	1.656185	0.061893	-0.150022
C37	C	1.041868	-0.428321	-0.635542
C38	C	1.541868	0.071679	-0.135542
C39	C	0.982993	-0.466128	-0.691482
C40	C	1.482993	0.033872	-0.191482
C41	C	0.864840	-0.456015	-0.676518
C42	C	1.364840	0.043985	-0.176518
C43	C	1.423305	-0.670508	-0.683869
C44	C	1.923305	-0.170508	-0.183869
C45	C	1.423356	-0.760131	-0.683892
C46	C	1.923356	-0.260131	-0.183892
C47	C	1.423522	-1.088311	-0.684022
C48	C	1.923522	-0.588311	-0.184022
C49	C	1.423472	-0.997001	-0.683988
C50	C	1.923472	-0.497001	-0.183988
C51	C	1.423438	-0.924224	-0.683956
C52	C	1.923438	-0.424224	-0.183956
C53	C	1.423390	-0.832908	-0.683924
C54	C	1.923390	-0.332908	-0.183924
C55	C	1.691653	-0.484024	-0.717961
C56	C	2.191653	0.015976	-0.217961
C57	C	1.805967	-0.493826	-0.732465
C58	C	2.305967	0.006174	-0.232465
C59	C	1.389406	-0.431312	-0.952190
C60	C	1.889406	0.068688	-0.452190
C61	C	1.374921	-0.418651	-1.066508
C62	C	1.874921	0.081349	-0.566508
C63	C	1.423515	-0.250715	-0.684006
C64	C	1.923515	0.249285	-0.184006
C65	C	1.423565	-0.161095	-0.684041
C66	C	1.923565	0.338905	-0.184041
C67	C	1.430941	-0.467369	-1.125387
C68	C	1.930941	0.032631	-0.625387
C69	C	1.415972	-0.454286	-1.243541
C70	C	1.915972	0.045714	-0.743541
C71	C	1.457315	-0.490560	-0.416711
C72	C	1.957315	0.009440	0.083289
C73	C	1.471999	-0.503010	-0.302418
C74	C	1.971999	-0.003010	0.197582
H75	H	1.004799	-0.388463	-0.576577
H76	H	1.504799	0.111537	-0.076577
Cl77	Cl	1.522111	-0.546717	-1.068172
Cl78	Cl	2.022111	-0.046717	-0.568172
Cl79	Cl	1.324812	-0.374925	-1.300754
Cl80	Cl	1.824812	0.125075	-0.800754
Cl81	Cl	0.863178	-0.555349	-0.823534
Cl82	Cl	1.363178	-0.055349	-0.323534
Cl83	Cl	1.563168	-0.582367	-1.245209
Cl84	Cl	2.063168	-0.082367	-0.745209
H85	H	0.827776	-0.416154	-0.617548
H86	H	1.327776	0.083846	-0.117548
H87	H	1.315883	-0.367253	-1.103574
H88	H	1.815883	0.132747	-0.603574
H89	H	1.020061	-0.505979	-0.750455
H90	H	1.520061	-0.005979	-0.250455
