data_functionalizedCrystal
_audit_creation_method	'MofGen! by Chris Wilmer'
_symmetry_space_group_name_H-M	'P1'
_symmetry_Int_Tables_number	1
_symmetry_cell_setting	triclinic
loop_
_symmetry_equiv_pos_as_xyz
  x,y,z
_cell_length_a	23.532407
_cell_length_b	15.538191
_cell_length_c	14.185569
_cell_angle_alpha	97.872928
_cell_angle_beta	76.924672
_cell_angle_gamma	65.060386
loop_
_atom_site_label
_atom_site_type_symbol
_atom_site_fract_x
_atom_site_fract_y
_atom_site_fract_z
O1	O	-0.714627	-0.136060	-0.083289
O2	O	-0.545387	-0.152645	-0.083318
O3	O	-0.662950	-0.006914	-0.083302
O4	O	-0.597064	-0.281790	-0.083304
O5	O	-0.697678	0.036131	0.083537
O6	O	-0.580115	-0.109599	0.083521
O7	O	-0.749355	-0.093014	0.083550
Cu8	Cu	-0.667906	-0.097377	0.098769
Cu9	Cu	-0.626836	-0.148283	-0.098537
O10	O	-0.631792	-0.238745	0.083535
C11	C	-0.541620	-0.130701	0.000098
C12	C	-0.478659	-0.129435	0.000087
C13	C	-0.687207	0.049768	0.000115
C14	C	-0.707738	0.154532	0.000108
C15	C	-0.753121	-0.114959	0.000132
C16	C	-0.816081	-0.116227	0.000137
C17	C	-0.063651	-0.207700	0.000132
C18	C	-0.004492	-0.206520	0.000138
O19	O	0.046997	-0.279074	0.000174
N20	N	0.000522	-0.119885	0.000137
C21	C	-0.053631	-0.034424	0.000140
O22	O	-0.043934	0.039374	0.000140
C23	C	-0.112790	-0.035604	0.000141
C24	C	-0.117797	-0.122246	0.000132
C25	C	-0.068660	-0.294335	0.000124
C26	C	-0.127815	-0.295516	0.000116
C27	C	-0.181961	-0.210062	0.000116
C28	C	-0.176952	-0.123427	0.000124
C29	C	-0.166943	0.049859	0.000151
C30	C	-0.226104	0.048672	0.000153
C31	C	-0.231111	-0.037970	0.000144
C32	C	-0.290253	-0.039153	0.000116
N33	N	-0.295266	-0.125787	0.000117
C34	C	-0.241120	-0.211241	0.000117
C35	C	0.070609	-0.031952	0.000139
C36	C	0.129769	-0.030773	0.000131
C37	C	0.178903	-0.202869	0.000131
C38	C	0.119744	-0.204049	0.000132
C39	C	0.065596	-0.118586	0.000141
C40	C	-0.365352	-0.213715	0.000099
C41	C	-0.424513	-0.214889	0.000087
C42	C	-0.473643	-0.042792	0.000092
C43	C	-0.414486	-0.041619	0.000099
C44	C	-0.360340	-0.127087	0.000106
O45	O	-0.341770	0.033364	0.000084
O46	O	-0.250830	-0.285024	0.000130
C47	C	-0.607535	-0.295428	0.000115
C48	C	-0.587002	-0.400193	0.000115
N49	N	-0.696797	-0.061571	0.237544
C50	C	-0.503745	0.440410	0.000095
C51	C	-0.523055	0.538858	0.000101
C52	C	-0.631663	0.562322	0.000119
C53	C	-0.612362	0.463873	0.000108
C54	C	-0.548402	0.402925	0.000098
C55	C	-0.657019	0.426387	0.000111
C56	C	-0.637720	0.327948	0.000106
C57	C	-0.573764	0.266994	0.000098
C58	C	-0.529103	0.304485	0.000093
C59	C	-0.720979	0.487339	0.000129
C60	C	-0.765636	0.449853	0.000131
C61	C	-0.746336	0.351410	0.000119
C62	C	-0.682380	0.290457	0.000111
C63	C	-0.790997	0.313920	0.000124
C64	C	-0.771698	0.215480	0.000119
C65	C	-0.663081	0.192018	0.000106
N66	N	-0.597951	-0.184081	-0.237312
C67	C	-0.513079	-0.289235	0.605170
C68	C	-0.534966	-0.262120	0.710195
C69	C	-0.639073	-0.133123	0.710169
C70	C	-0.617194	-0.160225	0.605143
C71	C	-0.554196	-0.238282	0.552652
C72	C	-0.658311	-0.109272	0.552624
C73	C	-0.636435	-0.136375	0.447607
C74	C	-0.573441	-0.214432	0.395108
C75	C	-0.532320	-0.265386	0.447634
C76	C	-0.721311	-0.031219	0.605117
C77	C	-0.762428	0.019734	0.552598
C78	C	-0.740550	-0.007365	0.447579
C79	C	-0.677556	-0.085421	0.395080
C80	C	-0.781671	0.043590	0.395053
C81	C	-0.759794	0.016486	0.290035
C82	C	-0.655679	-0.112524	0.290063
H83	H	-0.321271	-0.283310	0.000108
H84	H	-0.428583	-0.285447	0.000079
C85	C	-0.458747	0.237434	0.000072
H86	H	-0.434912	0.273856	0.000072
H87	H	-0.436855	0.183537	-0.058111
H88	H	-0.461072	0.213557	0.058257
H89	H	0.223000	-0.272449	0.000136
C90	C	-0.161451	0.145170	0.000175
H91	H	-0.202180	0.195890	0.000190
H92	H	-0.127284	0.134220	-0.057999
H93	H	-0.151515	0.164217	0.058369
C94	C	0.135272	0.064530	0.000131
H95	H	0.094547	0.115251	0.000137
H96	H	0.169443	0.053565	-0.058045
H97	H	0.145208	0.083584	0.058324
H98	H	-0.690368	-0.069570	0.752920
C99	C	-0.133319	-0.390818	0.000126
H100	H	-0.092597	-0.441532	0.000139
H101	H	-0.143260	-0.409882	-0.058051
H102	H	-0.167489	-0.379839	0.058317
H103	H	-0.832966	0.107139	0.437805
C104	C	-0.745379	-0.001403	0.720634
H105	H	-0.788789	0.052373	0.744374
H106	H	-0.716543	0.017347	0.744404
H107	H	-0.745663	-0.055537	0.744390
H108	H	0.115672	-0.274599	0.000131
H109	H	-0.024578	-0.363926	0.000128
C110	C	0.011054	0.062057	0.000127
H111	H	0.022521	0.113813	0.000115
H112	H	-0.025164	0.080197	0.058303
H113	H	-0.000926	0.050159	-0.058065
H114	H	-0.793277	0.057977	0.247274
H115	H	-0.270192	0.118268	0.000160
C116	C	-0.408974	0.053681	0.000098
H117	H	-0.449697	0.104406	0.000100
H118	H	-0.374800	0.042712	-0.058075
H119	H	-0.399040	0.072734	0.058293
C120	C	-0.835986	0.516899	0.000138
H121	H	-0.841084	0.580893	0.000134
H122	H	-0.867251	0.520594	0.058316
H123	H	-0.843019	0.490574	-0.058053
H124	H	-0.558053	0.186841	0.000100
H125	H	-0.481018	-0.328941	0.404894
C126	C	-0.433389	0.373359	0.000074
H127	H	-0.409554	0.409781	0.000075
H128	H	-0.411497	0.319462	-0.058108
H129	H	-0.435714	0.349482	0.058260
H130	H	-0.486688	0.569377	0.000113
H131	H	-0.813722	0.083287	0.595349
H132	H	-0.517738	0.026781	0.000088
H133	H	-0.843075	0.363560	0.000143
H134	H	-0.604377	-0.176080	0.247323
H135	H	-0.610998	0.142387	0.000090
H136	H	-0.808062	0.184960	0.000122
C137	C	-0.702013	0.629367	0.000125
H138	H	-0.707110	0.693362	0.000122
H139	H	-0.733277	0.633062	0.058303
H140	H	-0.709046	0.603043	-0.058065
H141	H	-0.461777	-0.352791	0.562430
C142	C	-0.549372	-0.244252	0.279591
H143	H	-0.505967	-0.298041	0.255853
H144	H	-0.549086	-0.190127	0.255828
H145	H	-0.578211	-0.263004	0.255826
C146	C	-0.489715	-0.318131	0.767963
H147	H	-0.449058	-0.368483	0.721657
H148	H	-0.510623	-0.346685	0.808952
H149	H	-0.481534	-0.273764	0.808908
H150	H	-0.736689	0.567491	0.000124
