data_functionalizedCrystal
_audit_creation_method	'MofGen! by Chris Wilmer'
_symmetry_space_group_name_H-M	'P1'
_symmetry_Int_Tables_number	1
_symmetry_cell_setting	triclinic
loop_
_symmetry_equiv_pos_as_xyz
  x,y,z
_cell_length_a	27.440280
_cell_length_b	12.477989
_cell_length_c	12.477989
_cell_angle_alpha	60.281692
_cell_angle_beta	89.995406
_cell_angle_gamma	64.363127
loop_
_atom_site_label
_atom_site_type_symbol
_atom_site_fract_x
_atom_site_fract_y
_atom_site_fract_z
Zr1	Zr	0.509723	1.151298	-0.203435
O2	O	0.443054	1.353071	-0.377126
O3	O	0.525293	0.934986	-0.140685
O4	O	0.537706	1.130310	-0.363426
O5	O	0.426386	1.179373	0.010505
O6	O	0.617908	1.130292	-0.363431
O7	O	0.430640	1.157748	-0.154385
O8	O	0.595702	0.780893	0.035013
O9	O	0.448592	1.528772	-0.387939
O10	O	0.597668	1.029329	-0.125410
O11	O	0.534640	1.045482	-0.002350
O12	O	0.549256	1.275450	-0.264599
O13	O	0.486227	1.291602	-0.141540
Zr14	Zr	0.630851	1.185760	0.059537
Zr15	Zr	0.637636	1.151269	-0.203443
Zr16	Zr	0.502939	1.185788	0.059545
Zr17	Zr	0.518556	1.431520	-0.220680
Zr18	Zr	0.622018	0.905538	0.076781
O19	O	0.615282	1.402071	-0.003213
O20	O	0.624929	1.353031	-0.377138
O21	O	0.433407	1.402112	-0.003202
O22	O	0.697521	0.983986	0.233228
O23	O	0.707167	0.934945	-0.140696
O24	O	0.515646	0.984027	0.233240
O25	O	0.714188	1.157684	-0.154403
O26	O	0.602868	1.206748	0.219528
O27	O	0.522667	1.206766	0.219533
O28	O	0.709934	1.179310	0.010487
O29	O	0.550265	1.528749	-0.387945
O30	O	0.590309	0.808309	0.244047
O31	O	0.691982	0.808286	0.244041
O32	O	0.697375	0.780871	0.035006
O33	O	0.443199	1.556187	-0.178904
O34	O	0.544873	1.556164	-0.178911
O35	O	0.591319	1.061607	0.120701
O36	O	0.654347	1.045455	-0.002358
O37	O	0.605934	1.291576	-0.141548
O38	O	0.542906	1.307728	-0.018489
C39	C	0.559239	0.818014	-0.050379
C40	C	0.555489	0.699053	-0.043058
C41	C	0.410288	1.168564	-0.071939
C42	C	0.355986	1.168577	-0.071936
C43	C	0.021630	1.156581	-0.162788
C44	C	-0.029388	1.156570	-0.162788
O45	O	-0.053772	1.146385	-0.240014
N46	N	-0.057249	1.168487	-0.071950
C47	C	-0.034087	1.180400	0.018901
O48	O	-0.062470	1.190533	0.096166
C49	C	0.016932	1.180401	0.018906
C50	C	0.044788	1.168498	-0.071946
C51	C	0.049486	1.144678	-0.253631
C52	C	0.100500	1.144691	-0.253633
C53	C	0.123659	1.156608	-0.162790
C54	C	0.095802	1.168511	-0.071947
C55	C	0.040096	1.192304	0.109762
C56	C	0.091119	1.192302	0.109760
C57	C	0.118975	1.180400	0.018908
C58	C	0.169975	1.180442	0.018894
N59	N	0.197836	1.168526	-0.071943
C60	C	0.174678	1.156609	-0.162786
C61	C	-0.141230	1.180396	0.018886
C62	C	-0.192251	1.180405	0.018876
C63	C	-0.187548	1.156573	-0.162812
C64	C	-0.136528	1.156573	-0.162807
C65	C	-0.113369	1.168479	-0.071952
C66	C	0.281811	1.156639	-0.162782
C67	C	0.332828	1.156660	-0.162778
C68	C	0.328122	1.180485	0.018914
C69	C	0.277108	1.180472	0.018906
C70	C	0.253955	1.168543	-0.071947
O71	O	0.194394	1.190616	0.096084
O72	O	0.203070	1.146458	-0.240027
C73	C	0.730286	1.168493	-0.071959
C74	C	0.784588	1.168481	-0.071962
C75	C	0.578774	1.125387	-0.400897
C76	C	0.581654	1.110745	-0.512539
C77	C	0.581336	1.519043	-0.093519
C78	C	0.585085	1.638005	-0.100840
C79	C	0.561801	1.211671	0.256999
C80	C	0.558921	1.226313	0.368641
C81	C	0.719238	0.817978	-0.050389
C82	C	0.769790	0.699005	-0.043072
C83	C	0.550752	0.861156	0.278569
C84	C	0.544122	0.756837	0.397532
C85	C	0.710751	0.861120	0.278559
C86	C	0.758423	0.756789	0.397519
C87	C	0.429823	1.475937	-0.422457
C88	C	0.382151	1.580268	-0.541417
C89	C	0.421337	1.519079	-0.093509
C90	C	0.370785	1.638053	-0.100826
C91	C	0.589822	1.475901	-0.422467
C92	C	0.596452	1.580221	-0.541430
C93	C	0.763944	0.634715	-0.103878
C94	C	0.811440	0.522939	-0.097028
C95	C	0.864780	0.475448	-0.029364
C96	C	0.870625	0.539750	0.031444
C97	C	0.823130	0.651530	0.024586
C98	C	0.813716	0.699362	0.389148
C99	C	0.858515	0.601346	0.500912
C100	C	0.848019	0.560751	0.621046
C101	C	0.792721	0.618188	0.629414
C102	C	0.747924	0.716210	0.517651
C103	C	0.326859	1.637709	-0.533047
C104	C	0.282061	1.735760	-0.644813
C105	C	0.292557	1.776361	-0.764947
C106	C	0.347855	1.718917	-0.773315
C107	C	0.392652	1.620875	-0.661550
C108	C	0.376631	1.702353	-0.040032
C109	C	0.329137	1.814156	-0.046912
C110	C	0.275797	1.861650	-0.114581
C111	C	0.269952	1.797344	-0.175383
C112	C	0.317446	1.685550	-0.168510
H113	H	0.613294	0.676745	-0.155908
O114	O	0.706419	0.685929	-0.176881
H115	H	0.674368	0.774456	-0.171442
H116	H	0.603322	1.000593	-0.496224
O117	O	0.825049	0.743135	0.259586
H118	H	0.784613	0.820938	0.183262
O119	O	0.452289	1.558903	-0.670583
H120	H	0.452055	1.603602	-0.772899
O121	O	-0.106487	1.143726	-0.260795
H122	H	-0.102033	1.239223	-0.319477
O123	O	0.644155	1.528833	-0.595415
H124	H	0.642052	1.621572	-0.683523
O125	O	0.829437	0.720850	0.090196
H126	H	0.874507	0.669026	0.138409
H127	H	0.903537	0.554589	0.494076
O128	O	0.311132	1.616202	-0.234082
H129	H	0.353115	1.530488	-0.217951
O130	O	0.688287	0.778128	0.526698
H131	H	0.658894	0.853117	0.428808
H132	H	0.333907	1.866497	0.002607
O133	O	0.518120	0.647742	0.029896
H134	H	0.520936	0.559228	0.024389
O135	O	0.530217	1.372222	-0.652991
H136	H	0.532379	1.361214	-0.558969
O137	O	0.896339	0.455004	0.741588
H138	H	0.924637	0.497886	0.738866
O139	O	0.362875	1.143816	-0.260768
H140	H	0.338201	1.135512	-0.323925
O141	O	0.222423	1.797673	-0.635760
H142	H	0.217529	1.855238	-0.587920
O143	O	0.212418	1.848585	-0.248366
H144	H	0.203306	1.759636	-0.205476
O145	O	0.315532	1.593936	-0.403480
H146	H	0.269555	1.650376	-0.416459
O147	O	0.256838	1.143793	-0.260781
H148	H	0.284782	1.135536	-0.323951
H149	H	0.123179	1.134993	-0.327608
O150	O	0.805130	0.453586	-0.162605
H151	H	0.760058	0.505378	-0.210784
O152	O	0.244239	1.882123	-0.885492
H153	H	0.204029	1.915234	-0.859476
O154	O	0.024509	1.131842	-0.351629
H155	H	0.052455	1.123579	-0.414794
O156	O	0.781407	0.574369	0.758996
H157	H	0.802528	0.602467	0.808549
O158	O	0.434160	1.651158	0.032935
H159	H	0.430238	1.714684	0.074028
H160	H	0.356395	1.751987	-0.871141
H161	H	-0.206412	1.146867	-0.236779
H162	H	0.903449	0.384427	-0.023788
H163	H	0.914061	0.501066	0.086535
H164	H	0.237129	1.952681	-0.120168
H165	H	-0.214932	1.190120	0.092844
O166	O	-0.116254	1.193249	0.116879
H167	H	-0.146072	1.295030	0.106102
O168	O	0.010067	1.205098	0.207778
H169	H	0.034756	1.213352	0.270954
O170	O	0.512612	1.770113	-0.546154
H171	H	0.514711	1.677370	-0.458059
H172	H	0.254423	1.190184	0.092874
O173	O	0.116100	1.205140	0.207757
H174	H	0.086284	1.306914	0.196992
O175	O	0.353108	1.193319	0.116903
H176	H	0.393267	1.191304	0.101643
