data_functionalizedCrystal
_audit_creation_method	'MofGen! by Chris Wilmer'
_symmetry_space_group_name_H-M	'P1'
_symmetry_Int_Tables_number	1
_symmetry_cell_setting	triclinic
loop_
_symmetry_equiv_pos_as_xyz
  x,y,z
_cell_length_a	14.853566
_cell_length_b	16.109301
_cell_length_c	15.186229
_cell_angle_alpha	90.000894
_cell_angle_beta	89.999490
_cell_angle_gamma	83.547947
loop_
_atom_site_label
_atom_site_type_symbol
_atom_site_fract_x
_atom_site_fract_y
_atom_site_fract_z
O1	O	1.196185	0.108541	-0.073161
O2	O	1.529518	0.441875	0.260172
O3	O	1.862851	0.775208	0.593506
O4	O	0.933704	0.121473	-0.073175
O5	O	1.267037	0.454806	0.260159
O6	O	1.600370	0.788140	0.593492
O7	O	1.072155	-0.006014	-0.073172
O8	O	1.405488	0.327320	0.260161
O9	O	1.738822	0.660653	0.593495
O10	O	1.057734	0.236028	-0.073164
O11	O	1.391067	0.569361	0.260170
O12	O	1.724400	0.902695	0.593503
O13	O	1.072146	-0.006015	0.073285
O14	O	1.405479	0.327318	0.406619
O15	O	1.738812	0.660651	0.739952
O16	O	0.933695	0.121471	0.073283
O17	O	1.267028	0.454805	0.406616
O18	O	1.600361	0.788138	0.739949
O19	O	1.196176	0.108540	0.073296
O20	O	1.529509	0.441873	0.406630
O21	O	1.862842	0.775206	0.739963
Zn22	Zn	1.064934	0.115005	0.096543
Zn23	Zn	1.398267	0.448339	0.429876
Zn24	Zn	1.731600	0.781672	0.763209
Zn25	Zn	1.064946	0.115008	-0.096421
Zn26	Zn	1.398279	0.448341	0.236912
Zn27	Zn	1.731612	0.781674	0.570246
O28	O	1.057724	0.236026	0.073294
O29	O	1.391058	0.569360	0.406627
O30	O	1.724391	0.902693	0.739960
C31	C	0.900111	0.120886	0.000052
C32	C	1.233445	0.454220	0.333386
C33	C	1.566778	0.787553	0.666719
C34	C	0.800031	0.119131	0.000047
C35	C	1.133364	0.452464	0.333380
C36	C	1.466697	0.785798	0.666713
C37	C	0.376863	0.111708	-0.079772
C38	C	0.710196	0.445041	0.253561
C39	C	1.043530	0.778374	0.586895
C40	C	0.376874	0.111706	0.079901
C41	C	0.710208	0.445040	0.413235
C42	C	1.043541	0.778373	0.746568
C43	C	0.470906	0.113355	0.079899
C44	C	0.804239	0.446688	0.413232
C45	C	1.137572	0.780021	0.746565
C46	C	0.517920	0.114181	0.000060
C47	C	0.851253	0.447514	0.333393
C48	C	1.184586	0.780848	0.666726
C49	C	0.470903	0.113359	-0.079777
C50	C	0.804236	0.446692	0.253556
C51	C	1.137569	0.780025	0.586890
C52	C	0.517929	0.114185	0.159734
C53	C	0.851262	0.447519	0.493067
C54	C	1.184595	0.780852	0.826401
C55	C	0.611966	0.115835	0.159734
C56	C	0.945299	0.449168	0.493068
C57	C	1.278632	0.782501	0.826401
C58	C	0.658982	0.116655	0.079894
C59	C	0.992316	0.449988	0.413228
C60	C	1.325649	0.783322	0.746561
C61	C	0.611960	0.115832	0.000054
C62	C	0.945293	0.449165	0.333388
C63	C	1.278626	0.782499	0.666721
C64	C	0.658974	0.116658	-0.079785
C65	C	0.992307	0.449991	0.253549
C66	C	1.325640	0.783325	0.586882
C67	C	0.611953	0.115829	-0.159626
C68	C	0.945287	0.449162	0.173708
C69	C	1.278620	0.782496	0.507041
C70	C	0.517919	0.114179	-0.159617
C71	C	0.851253	0.447512	0.173716
C72	C	1.184586	0.780846	0.507049
C73	C	0.753016	0.118305	0.079886
C74	C	1.086350	0.451638	0.413219
C75	C	1.419683	0.784972	0.746553
C76	C	0.753013	0.118309	-0.079790
C77	C	1.086347	0.451642	0.253543
C78	C	1.419680	0.784976	0.586877
C79	C	1.071566	-0.036990	0.000054
C80	C	1.404899	0.296343	0.333387
C81	C	1.738233	0.629676	0.666720
C82	C	1.069815	-0.129288	0.000044
C83	C	1.403148	0.204045	0.333378
C84	C	1.736481	0.537379	0.666711
C85	C	1.229768	0.109126	0.000067
C86	C	1.563101	0.442460	0.333401
C87	C	1.896435	0.775793	0.666734
C88	C	1.329849	0.110882	0.000067
C89	C	1.663182	0.444215	0.333401
C90	C	1.996515	0.777548	0.666734
C91	C	1.058313	0.267003	0.000066
C92	C	1.391647	0.600336	0.333400
C93	C	1.724980	0.933670	0.666733
C94	C	1.060065	0.359301	0.000070
C95	C	1.393398	0.692634	0.333403
C96	C	1.726731	1.025967	0.666736
N97	N	1.064932	0.115003	0.228235
N98	N	1.398265	0.448336	0.561569
N99	N	1.731599	0.781670	0.894902
C100	C	0.981983	0.581464	0.000053
C101	C	1.315316	0.914797	0.333386
C102	C	1.648649	1.248130	0.666719
C103	C	0.983635	0.668186	0.000046
C104	C	1.316969	1.001520	0.333380
C105	C	1.650302	1.334853	0.666713
C106	C	1.147903	0.648542	0.000059
C107	C	1.481236	0.981875	0.333392
C108	C	1.814570	1.315209	0.666725
C109	C	1.146249	0.561821	0.000059
C110	C	1.479583	0.895154	0.333392
C111	C	1.812916	1.228488	0.666725
C112	C	1.063287	0.528284	0.000060
C113	C	1.396620	0.861618	0.333394
C114	C	1.729953	1.194951	0.666727
C115	C	1.066593	0.701728	0.000054
C116	C	1.399926	1.035062	0.333387
C117	C	1.733259	1.368395	0.666720
C118	C	1.068385	0.795757	0.000046
C119	C	1.401719	1.129090	0.333380
C120	C	1.735052	1.462423	0.666713
C121	C	1.061494	0.434250	0.000066
C122	C	1.394827	0.767583	0.333399
C123	C	1.728160	1.100917	0.666733
N124	N	1.064955	0.115003	-0.228114
N125	N	1.398288	0.448336	0.105220
N126	N	1.731621	0.781670	0.438553
C127	C	1.126259	0.058571	0.453959
C128	C	1.459592	0.391904	0.787293
C129	C	1.792926	0.725238	1.120626
C130	C	1.126262	0.058569	0.546149
C131	C	1.459595	0.391902	0.879482
C132	C	1.792928	0.725236	1.212816
C133	C	1.003621	0.171438	0.546156
C134	C	1.336954	0.504771	0.879489
C135	C	1.670288	0.838105	1.212823
C136	C	1.003615	0.171435	0.453968
C137	C	1.336948	0.504769	0.787301
C138	C	1.670281	0.838102	1.120635
C139	C	1.064939	0.115003	0.407872
C140	C	1.398272	0.448336	0.741205
C141	C	1.731605	0.781669	1.074539
C142	C	1.064948	0.115003	0.592250
C143	C	1.398281	0.448337	0.925583
C144	C	1.731615	0.781670	1.258916
C145	C	1.064951	0.115002	0.692206
C146	C	1.398284	0.448335	1.025539
C147	C	1.731617	0.781668	1.358872
C148	C	1.064935	0.115003	0.307910
C149	C	1.398268	0.448336	0.641243
C150	C	1.731602	0.781670	0.974576
H151	H	0.479627	0.113503	-0.224619
H152	H	0.812961	0.446836	0.108714
H153	H	1.146294	0.780170	0.442047
H154	H	0.791295	0.118988	0.144891
H155	H	1.124628	0.452322	0.478224
H156	H	1.457962	0.785655	0.811558
H157	H	0.479642	0.113518	0.224735
H158	H	0.812975	0.446852	0.558068
H159	H	1.146309	0.780185	0.891401
H160	H	0.650244	0.116507	-0.224631
H161	H	0.983577	0.449841	0.108703
H162	H	1.316911	0.783174	0.442036
F163	F	1.236193	0.684242	0.000060
F164	F	1.569526	1.017575	0.333393
F165	F	1.902859	1.350909	0.666726
F166	F	1.191523	-0.001492	0.404904
F167	F	1.524856	0.331842	0.738238
F168	F	1.858190	0.665175	1.071571
H169	H	0.917429	0.711482	0.000039
H170	H	1.250763	1.044815	0.333372
H171	H	1.584096	1.378149	0.666705
H172	H	0.338575	0.111029	-0.144776
H173	H	0.671909	0.444363	0.188557
H174	H	1.005242	0.777696	0.521890
H175	H	0.338589	0.111039	0.144903
H176	H	0.671922	0.444373	0.478236
H177	H	1.005256	0.777706	0.811570
F178	F	0.662000	0.116716	0.244707
F179	F	0.995333	0.450049	0.578040
F180	F	1.328666	0.783382	0.911373
F181	F	0.938361	0.231497	0.595220
F182	F	1.271694	0.564830	0.928554
F183	F	1.605028	0.898163	1.261887
H184	H	0.953676	0.217389	0.416441
H185	H	1.287009	0.550722	0.749774
H186	H	1.620343	0.884056	1.083108
F187	F	1.232789	0.505220	0.000062
F188	F	1.566122	0.838553	0.333396
F189	F	1.899455	1.171887	0.666729
F190	F	0.893687	0.545775	0.000052
F191	F	1.227020	0.879108	0.333385
F192	F	1.560353	1.212441	0.666718
F193	F	0.803043	0.119182	-0.164768
F194	F	1.136376	0.452516	0.168565
F195	F	1.469710	0.785849	0.501899
F196	F	1.191525	-0.001495	0.595196
F197	F	1.524858	0.331839	0.928529
F198	F	1.858192	0.665172	1.261862
