data_functionalizedCrystal
_audit_creation_method	'MofGen! by Chris Wilmer'
_symmetry_space_group_name_H-M	'P1'
_symmetry_Int_Tables_number	1
_symmetry_cell_setting	triclinic
loop_
_symmetry_equiv_pos_as_xyz
  x,y,z
_cell_length_a	10.489741
_cell_length_b	10.489741
_cell_length_c	9.130313
_cell_angle_alpha	89.999004
_cell_angle_beta	90.002436
_cell_angle_gamma	84.539174
loop_
_atom_site_label
_atom_site_type_symbol
_atom_site_fract_x
_atom_site_fract_y
_atom_site_fract_z
O1	O	1.694046	0.179962	-0.121708
O2	O	1.322851	0.196855	-0.121731
O3	O	1.516895	0.002811	-0.121710
O4	O	1.500002	0.374006	-0.121728
O5	O	1.516893	0.002816	0.121889
O6	O	1.322848	0.196860	0.121868
O7	O	1.694044	0.179967	0.121891
Cu8	Cu	1.508446	0.188414	0.144122
Cu9	Cu	1.508449	0.188408	-0.143962
O10	O	1.500000	0.374012	0.121870
C11	C	1.275318	0.195582	0.000066
C12	C	1.133688	0.191765	0.000057
C13	C	1.515618	-0.044718	0.000088
C14	C	1.511801	-0.186348	0.000086
C15	C	1.065548	0.068300	0.000077
C16	C	0.973423	0.126621	-0.120029
C17	C	0.973454	0.126655	0.120140
C18	C	1.043428	0.250136	-0.120149
C19	C	1.043469	0.250154	0.120129
C20	C	0.951371	0.308564	-0.000007
C21	C	1.388336	-0.254488	0.000067
C22	C	1.446658	-0.346608	0.120178
C23	C	1.446690	-0.346588	-0.119992
C24	C	1.570174	-0.276602	0.120295
C25	C	1.570188	-0.276573	-0.119982
C26	C	1.628600	-0.368665	0.000158
C27	C	1.741577	0.181241	0.000091
C28	C	1.883206	0.185058	0.000090
C29	C	1.501277	0.421541	0.000069
C30	C	1.505094	0.563170	0.000062
N31	N	1.508453	0.188418	0.346745
N32	N	1.508451	0.188395	-0.346584
C33	C	1.594398	0.102525	0.423406
C34	C	1.594395	0.102509	0.576743
C35	C	1.422497	0.274292	0.576744
C36	C	1.422496	0.274300	0.423410
C37	C	1.693646	0.003351	0.423406
C38	C	1.693643	0.003336	0.576743
H39	H	1.115238	-0.033196	-0.000068
H40	H	0.942409	0.074378	-0.221568
Cl41	Cl	1.091017	0.330725	-0.277100
Cl42	Cl	1.836645	0.051401	0.349974
H43	H	1.730204	-0.418089	0.000231
Cl44	Cl	1.659948	-0.148033	0.359141
H45	H	1.791676	0.025238	0.618365
H46	H	1.662607	-0.089331	0.624293
Cl47	Cl	0.875056	0.465428	-0.000111
H48	H	0.942475	0.074395	0.221681
Cl49	Cl	1.091408	0.330747	0.276904
Cl50	Cl	1.314431	0.382265	0.327034
Cl51	Cl	1.231612	-0.177830	0.000235
H52	H	1.394417	-0.377617	0.221716
Cl53	Cl	1.314441	0.382252	0.673132
Cl54	Cl	1.650762	-0.229005	0.277247
Cl55	Cl	1.650778	-0.228639	-0.276759
H56	H	1.394435	-0.377554	-0.221545
