data_functionalizedCrystal
_audit_creation_method	'MofGen! by Chris Wilmer'
_symmetry_space_group_name_H-M	'P1'
_symmetry_Int_Tables_number	1
_symmetry_cell_setting	triclinic
loop_
_symmetry_equiv_pos_as_xyz
  x,y,z
_cell_length_a	16.109317
_cell_length_b	13.596369
_cell_length_c	14.519709
_cell_angle_alpha	90.006934
_cell_angle_beta	96.425820
_cell_angle_gamma	89.999264
loop_
_atom_site_label
_atom_site_type_symbol
_atom_site_fract_x
_atom_site_fract_y
_atom_site_fract_z
O1	O	-1.103329	0.081689	0.118615
O2	O	-0.853329	0.331689	0.368615
O3	O	-0.603329	0.581689	0.618615
O4	O	-0.353329	0.831689	0.868615
O5	O	-0.861295	0.081714	0.133351
O6	O	-0.611295	0.331714	0.383351
O7	O	-0.361295	0.581714	0.633351
O8	O	-0.111295	0.831714	0.883351
O9	O	-0.988729	0.081692	-0.008269
O10	O	-0.738729	0.331692	0.241731
O11	O	-0.488729	0.581692	0.491731
O12	O	-0.238729	0.831692	0.741731
O13	O	-0.975895	0.081711	0.260235
O14	O	-0.725895	0.331711	0.510235
O15	O	-0.475895	0.581711	0.760235
O16	O	-0.225895	0.831711	1.010235
O17	O	-0.988717	-0.081891	-0.008276
O18	O	-0.738717	0.168109	0.241724
O19	O	-0.488717	0.418109	0.491724
O20	O	-0.238717	0.668109	0.741724
O21	O	-0.861282	-0.081869	0.133344
O22	O	-0.611282	0.168131	0.383344
O23	O	-0.361282	0.418131	0.633344
O24	O	-0.111282	0.668131	0.883344
O25	O	-1.103317	-0.081894	0.118607
O26	O	-0.853317	0.168106	0.368607
O27	O	-0.603317	0.418106	0.618607
O28	O	-0.353317	0.668106	0.868607
Zn29	Zn	-0.982297	-0.107854	0.125974
Zn30	Zn	-0.732297	0.142146	0.375974
Zn31	Zn	-0.482297	0.392146	0.625974
Zn32	Zn	-0.232297	0.642146	0.875974
Zn33	Zn	-0.982314	0.107674	0.125984
Zn34	Zn	-0.732314	0.357674	0.375984
Zn35	Zn	-0.482314	0.607674	0.625984
Zn36	Zn	-0.232314	0.857674	0.875984
O37	O	-0.975882	-0.081872	0.260227
O38	O	-0.725882	0.168128	0.510227
O39	O	-0.475882	0.418128	0.760227
O40	O	-0.225882	0.668128	1.010227
C41	C	-0.830313	-0.000074	0.132748
C42	C	-0.580313	0.249926	0.382748
C43	C	-0.330313	0.499926	0.632748
C44	C	-0.080313	0.749926	0.882748
C45	C	-0.738015	-0.000065	0.130950
C46	C	-0.488015	0.249935	0.380950
C47	C	-0.238015	0.499935	0.630950
C48	C	0.011985	0.749935	0.880950
N49	N	-0.982292	-0.254946	0.125967
N50	N	-0.732292	-0.004946	0.375967
N51	N	-0.482292	0.245054	0.625967
N52	N	-0.232292	0.495054	0.875967
C53	C	-0.438938	0.089092	0.125149
C54	C	-0.188938	0.339092	0.375149
C55	C	0.061062	0.589092	0.625149
C56	C	0.311062	0.839092	0.875149
C57	C	-0.525662	0.089097	0.126831
C58	C	-0.275662	0.339097	0.376831
C59	C	-0.025662	0.589097	0.626831
C60	C	0.224338	0.839097	0.876831
C61	C	-0.525667	-0.089250	0.126811
C62	C	-0.275667	0.160750	0.376811
C63	C	-0.025667	0.410750	0.626811
C64	C	0.224333	0.660750	0.876811
C65	C	-0.438945	-0.089254	0.125121
C66	C	-0.188945	0.160746	0.375121
C67	C	0.061055	0.410746	0.625121
C68	C	0.311055	0.660746	0.875121
C69	C	-0.395583	-0.000079	0.124295
C70	C	-0.145583	0.249921	0.374295
C71	C	0.104417	0.499921	0.624295
C72	C	0.354417	0.749921	0.874295
C73	C	-0.569029	-0.000072	0.127667
C74	C	-0.319029	0.249928	0.377667
C75	C	-0.069029	0.499928	0.627667
C76	C	0.180971	0.749928	0.877667
C77	C	-0.663059	-0.000068	0.129492
C78	C	-0.413059	0.249932	0.379492
C79	C	-0.163059	0.499932	0.629492
C80	C	0.086941	0.749932	0.879492
C81	C	-0.301547	-0.000083	0.122468
C82	C	-0.051547	0.249917	0.372468
C83	C	0.198453	0.499917	0.622468
C84	C	0.448453	0.749917	0.872468
C85	C	-0.982313	-0.656237	0.125985
C86	C	-0.732313	-0.406237	0.375985
C87	C	-0.482313	-0.156237	0.625985
C88	C	-0.232313	0.093763	0.875985
C89	C	-0.982305	-0.544585	0.125983
C90	C	-0.732305	-0.294585	0.375983
C91	C	-0.482305	-0.044585	0.625983
C92	C	-0.232305	0.205415	0.875983
C93	C	-0.982303	-0.455595	0.125977
C94	C	-0.732303	-0.205595	0.375977
C95	C	-0.482303	0.044405	0.625977
C96	C	-0.232303	0.294405	0.875977
C97	C	-0.982294	-0.343936	0.125974
C98	C	-0.732294	-0.093936	0.375974
C99	C	-0.482294	0.156064	0.625974
C100	C	-0.232294	0.406064	0.875974
C101	C	-0.134299	-0.000099	0.119212
C102	C	0.115701	0.249901	0.369212
C103	C	0.365701	0.499901	0.619212
C104	C	0.615701	0.749901	0.869212
C105	C	-0.226596	-0.000086	0.121012
C106	C	0.023404	0.249914	0.371012
C107	C	0.273404	0.499914	0.621012
C108	C	0.523404	0.749914	0.871012
C109	C	-0.988125	-0.000100	-0.042631
C110	C	-0.738125	0.249900	0.207369
C111	C	-0.488125	0.499900	0.457369
C112	C	-0.238125	0.749900	0.707369
C113	C	-0.986333	-0.000100	-0.145008
C114	C	-0.736333	0.249900	0.104992
C115	C	-0.486333	0.499900	0.354992
C116	C	-0.236333	0.749900	0.604992
N117	N	-0.982326	0.254765	0.125984
N118	N	-0.732326	0.504765	0.375984
N119	N	-0.482326	0.754765	0.625984
N120	N	-0.232326	1.004765	0.875984
C121	C	-0.979734	-0.000074	-0.519891
C122	C	-0.729734	0.249926	-0.269891
C123	C	-0.479734	0.499926	-0.019891
C124	C	-0.229734	0.749926	0.230109
C125	C	-0.981566	-0.000082	-0.415586
C126	C	-0.731566	0.249918	-0.165586
C127	C	-0.481566	0.499918	0.084414
C128	C	-0.231566	0.749918	0.334414
C129	C	-0.983033	-0.000088	-0.332453
C130	C	-0.733033	0.249912	-0.082453
C131	C	-0.483033	0.499912	0.167547
C132	C	-0.233033	0.749912	0.417547
C133	C	-0.984866	-0.000094	-0.228142
C134	C	-0.734866	0.249906	0.021858
C135	C	-0.484866	0.499906	0.271858
C136	C	-0.234866	0.749906	0.521858
C137	C	-0.976487	-0.000078	0.294590
C138	C	-0.726487	0.249922	0.544590
C139	C	-0.476487	0.499922	0.794590
C140	C	-0.226487	0.749922	1.044590
C141	C	-0.978279	-0.000072	0.396967
C142	C	-0.728279	0.249928	0.646967
C143	C	-0.478279	0.499928	0.896967
C144	C	-0.228279	0.749928	1.146967
H145	H	-0.403635	0.161704	0.124475
H146	H	-0.153635	0.411704	0.374475
H147	H	0.096365	0.661704	0.624475
H148	H	0.346365	0.911704	0.874475
H149	H	-0.560959	0.161709	0.127525
H150	H	-0.310959	0.411709	0.377525
H151	H	-0.060959	0.661709	0.627525
H152	H	0.189041	0.911709	0.877525
H153	H	-0.560984	-0.161853	0.127485
H154	H	-0.310984	0.088147	0.377485
H155	H	-0.060984	0.338147	0.627485
H156	H	0.189016	0.588147	0.877485
H157	H	-0.403644	-0.161872	0.124425
H158	H	-0.153644	0.088128	0.374425
H159	H	0.096356	0.338128	0.624425
H160	H	0.346356	0.588128	0.874425
