data_functionalizedCrystal
_audit_creation_method	'MofGen! by Chris Wilmer'
_symmetry_space_group_name_H-M	'P1'
_symmetry_Int_Tables_number	1
_symmetry_cell_setting	triclinic
loop_
_symmetry_equiv_pos_as_xyz
  x,y,z
_cell_length_a	27.731994
_cell_length_b	10.723023
_cell_length_c	9.798715
_cell_angle_alpha	89.996770
_cell_angle_beta	89.994641
_cell_angle_gamma	96.455819
loop_
_atom_site_label
_atom_site_type_symbol
_atom_site_fract_x
_atom_site_fract_y
_atom_site_fract_z
O1	O	-0.067789	1.654349	-0.113449
O2	O	-0.074278	1.290925	-0.113452
O3	O	-0.000705	1.483959	-0.113471
O4	O	-0.141362	1.461315	-0.113430
O5	O	-0.000705	1.483945	0.113512
O6	O	-0.074278	1.290910	0.113531
O7	O	-0.067789	1.654335	0.113534
Zn8	Zn	-0.071033	1.472620	0.149570
Zn9	Zn	-0.071034	1.472639	-0.149488
O10	O	-0.141362	1.461301	0.113553
C11	C	-0.073806	1.244438	0.000039
C12	C	-0.072393	1.105943	0.000036
C13	C	-0.071763	1.044190	0.117618
C14	C	-0.070303	0.901048	0.117618
C15	C	-0.159372	1.461773	0.000067
C16	C	-0.213037	1.463173	0.000082
C17	C	-0.545810	1.471997	-0.123706
C18	C	-0.747502	1.477318	-0.123726
O19	O	-0.773579	1.478066	-0.228952
N20	N	-0.772720	1.477971	0.000001
C21	C	-0.747513	1.477302	0.123742
O22	O	-0.773590	1.477992	0.228979
C23	C	-0.545822	1.471990	0.123761
C24	C	-0.520607	1.471324	0.000026
C25	C	-0.520595	1.471332	-0.247431
C26	C	-0.470175	1.469995	-0.247425
C27	C	-0.444971	1.469323	-0.123694
C28	C	-0.470187	1.469987	0.000032
C29	C	-0.520615	1.471330	0.247501
C30	C	-0.470189	1.470005	0.247494
C31	C	-0.444974	1.469339	0.123759
C32	C	-0.394564	1.467977	0.123770
N33	N	-0.369345	1.467324	0.000042
C34	C	-0.394549	1.467997	-0.123689
C35	C	-0.853404	1.480088	0.123724
C36	C	-0.903826	1.481414	0.123719
C37	C	-0.903811	1.481432	-0.123750
C38	C	-0.853388	1.480097	-0.123744
C39	C	-0.828185	1.479435	-0.000004
C40	C	-0.288664	1.465188	-0.123667
C41	C	-0.238241	1.463846	-0.123649
C42	C	-0.238260	1.463834	0.123819
C43	C	-0.288679	1.465170	0.123802
C44	C	-0.313880	1.465851	0.000048
O45	O	-0.368455	1.467242	0.228941
O46	O	-0.368461	1.467334	-0.228911
C47	C	-0.596230	1.473334	-0.123712
C48	C	-0.621446	1.473998	0.000013
C49	C	-0.596242	1.473325	0.123745
C50	C	-0.671868	1.475324	0.000009
C51	C	-0.697072	1.475996	-0.123723
C52	C	-0.671853	1.475343	-0.247450
C53	C	-0.621433	1.474006	-0.247444
C54	C	-0.621461	1.473978	0.247472
C55	C	-0.671880	1.475314	0.247455
C56	C	-0.697084	1.475987	0.123724
C57	C	0.017305	1.483487	0.000012
C58	C	0.070970	1.482087	-0.000012
C59	C	-0.068261	1.700822	0.000040
C60	C	-0.069674	1.839317	0.000034
N61	N	-0.071033	1.472617	0.353670
N62	N	-0.071030	1.472653	-0.353588
C63	C	-0.040005	1.553672	0.421439
C64	C	-0.040004	1.553692	0.578602
H65	H	-0.071850	1.052840	-0.100630
C66	C	-0.004116	1.647444	0.657331
N67	N	0.022917	1.718060	0.716633
C68	C	-0.106919	1.378896	0.567692
N69	N	-0.133950	1.308277	0.508389
H70	H	-0.069764	0.847940	0.218285
C71	C	-0.072516	1.115916	0.253620
N72	N	-0.073091	1.169936	0.356060
H73	H	-0.070218	0.892414	-0.100638
H74	H	-0.217713	1.463299	-0.224414
C75	C	-0.593744	1.473226	0.383594
N76	N	-0.572871	1.472649	0.486131
C77	C	-0.316378	1.465927	-0.259802
N78	N	-0.337253	1.466475	-0.362340
C79	C	-0.316418	1.465895	0.259916
N80	N	-0.337306	1.466456	0.362441
C81	C	-0.442440	1.469363	-0.383545
N82	N	-0.421551	1.468923	-0.486078
C83	C	-0.825654	1.479393	-0.259861
N84	N	-0.804767	1.478874	-0.362390
C85	C	-0.699612	1.476043	0.383584
N86	N	-0.720497	1.476604	0.486114
H87	H	-0.097594	1.403232	0.412001
H88	H	-0.541110	1.471884	-0.348194
H89	H	-0.924341	1.481971	-0.224497
H90	H	-0.924354	1.481932	0.224477
C91	C	-0.825687	1.479343	0.259857
N92	N	-0.804814	1.478773	0.362394
C93	C	-0.004111	1.647384	0.342641
N94	N	0.022928	1.717964	0.283292
C95	C	-0.210526	1.463089	0.259917
N96	N	-0.189636	1.462535	0.362427
H97	H	-0.541137	1.471885	0.348259
H98	H	-0.600907	1.473464	-0.348202
H99	H	-0.449671	1.469466	0.348261
H100	H	-0.692383	1.475882	-0.348197
