data_functionalizedCrystal
_audit_creation_method	'MofGen! by Chris Wilmer'
_symmetry_space_group_name_H-M	'P1'
_symmetry_Int_Tables_number	1
_symmetry_cell_setting	triclinic
loop_
_symmetry_equiv_pos_as_xyz
  x,y,z
_cell_length_a	12.759401
_cell_length_b	12.594516
_cell_length_c	12.759393
_cell_angle_alpha	89.970876
_cell_angle_beta	89.981504
_cell_angle_gamma	90.016214
loop_
_atom_site_label
_atom_site_type_symbol
_atom_site_fract_x
_atom_site_fract_y
_atom_site_fract_z
Zn1	Zn	1.606246	-0.423675	-0.593999
Zn2	Zn	1.606136	-0.601694	-0.418327
Zn3	Zn	1.430547	-0.423730	-0.418339
Zn4	Zn	1.430532	-0.601612	-0.593968
O5	O	1.518365	-0.512678	-0.506158
O6	O	1.753252	-0.447300	-0.570704
O7	O	1.582804	-0.578144	-0.271307
O8	O	1.453907	-0.274777	-0.441658
O9	O	1.753171	-0.578090	-0.441638
O10	O	1.582991	-0.274736	-0.570715
O11	O	1.453800	-0.447395	-0.271316
O12	O	1.283524	-0.447316	-0.441628
O13	O	1.453880	-0.577951	-0.740993
O14	O	1.283513	-0.578005	-0.570663
O15	O	1.582976	-0.447221	-0.741016
O16	O	1.582789	-0.750629	-0.441608
O17	O	1.453774	-0.750569	-0.570651
C18	C	1.245398	-0.512658	-0.506144
C19	C	1.128621	-0.512676	-0.506163
C20	C	1.073781	-0.580834	-0.573240
C21	C	0.964057	-0.580848	-0.573251
C22	C	0.964023	-0.444541	-0.439099
C23	C	1.073745	-0.444523	-0.439094
C24	C	1.073799	-0.659533	-0.650688
C25	C	0.964075	-0.659547	-0.650700
C26	C	1.518296	-0.789219	-0.506148
C27	C	1.518363	-0.907524	-0.506179
C28	C	1.448185	-0.976783	-0.576316
C29	C	1.422585	-1.047654	-0.480449
C30	C	1.544058	-1.047453	-0.602062
C31	C	1.492713	-0.976836	-0.410261
C32	C	1.614230	-0.976629	-0.531938
C33	C	1.588667	-1.047468	-0.436006
C34	C	1.792398	-0.512698	-0.506173
C35	C	1.909175	-0.512707	-0.506179
C36	C	1.518439	-0.512570	-0.780192
C37	C	1.518470	-0.512525	-0.896968
C38	C	1.518463	-0.235057	-0.506192
C39	C	1.518505	-0.116752	-0.506206
C40	C	1.585700	-0.444447	-0.951844
C41	C	1.585725	-0.444409	-1.061568
C42	C	1.451288	-0.580534	-1.061531
C43	C	1.451258	-0.580567	-0.951809
C44	C	1.663319	-0.365859	-0.951866
C45	C	1.663344	-0.365821	-1.061590
C46	C	1.518352	-0.512708	-0.233191
C47	C	1.518525	-0.512454	-0.116415
H48	H	1.118392	-0.389014	-0.384480
C49	C	0.918669	-0.620123	-0.753734
C50	C	0.856992	-0.530136	-0.735201
C51	C	0.815155	-0.493780	-0.830087
H52	H	0.876696	-0.674260	-0.784128
H53	H	0.974107	-0.602346	-0.800274
H54	H	0.801562	-0.547916	-0.688678
H55	H	0.898941	-0.475977	-0.704822
H56	H	0.870593	-0.476003	-0.876627
H57	H	0.773188	-0.547923	-0.860475
H58	H	0.773311	-0.432714	-0.817527
C59	C	1.668032	-1.088459	-0.356928
C60	C	1.767913	-1.050865	-0.383251
C61	C	1.841041	-1.088598	-0.310419
H62	H	1.668194	-1.163875	-0.357714
H63	H	1.649731	-1.064120	-0.288877
H64	H	1.786210	-1.075210	-0.451284
H65	H	1.767785	-0.975453	-0.382457
H66	H	1.822740	-1.064259	-0.242368
H67	H	1.841193	-1.164013	-0.311211
H68	H	1.908817	-1.063088	-0.328263
C69	C	0.924538	-0.769487	-0.621386
C70	C	1.010048	-0.836723	-0.603443
C71	C	0.973667	-0.937999	-0.576425
H72	H	0.883223	-0.797088	-0.676979
H73	H	0.883182	-0.764979	-0.559617
H74	H	1.051387	-0.841235	-0.665204
H75	H	1.051372	-0.809156	-0.547845
H76	H	0.932311	-0.933490	-0.514657
H77	H	0.932352	-0.965589	-0.632023
H78	H	1.031679	-0.983627	-0.564239
C79	C	0.904578	-0.370616	-0.366107
C80	C	0.931247	-0.393647	-0.262119
C81	C	0.876522	-0.325560	-0.194847
H82	H	0.831360	-0.380315	-0.375572
H83	H	0.922602	-0.299099	-0.381539
H84	H	0.913216	-0.465146	-0.246693
H85	H	1.004455	-0.383942	-0.252621
H86	H	0.894545	-0.254043	-0.210279
H87	H	0.803307	-0.335264	-0.204321
H88	H	0.894616	-0.341171	-0.124285
H89	H	1.565734	-1.078472	-0.683138
H90	H	1.341578	-1.078874	-0.458684
C91	C	1.634073	-0.255992	-0.912234
C92	C	1.534132	-0.229110	-0.948922
C93	C	1.507150	-0.127919	-0.912423
H94	H	1.683628	-0.205594	-0.937038
H95	H	1.633991	-0.255991	-0.837774
H96	H	1.534222	-0.229103	-1.023366
H97	H	1.484555	-0.279481	-0.924121
H98	H	1.507067	-0.127917	-0.837964
H99	H	1.556711	-0.077529	-0.937230
H100	H	1.439334	-0.109670	-0.937302
C101	C	1.113407	-0.630364	-0.759321
C102	C	1.076685	-0.704706	-0.832138
C103	C	1.113137	-0.677863	-0.932220
H104	H	1.187853	-0.630370	-0.759473
H105	H	1.088579	-0.561720	-0.777671
H106	H	1.101519	-0.773332	-0.813793
H107	H	1.002243	-0.704711	-0.832019
H108	H	1.088309	-0.609218	-0.950570
H109	H	1.187583	-0.677868	-0.932361
H110	H	1.088219	-0.728293	-0.981639
C111	C	1.378499	-0.654544	-1.121130
C112	C	1.437977	-0.722769	-1.184093
C113	C	1.370961	-0.790974	-1.238995
H114	H	1.332725	-0.613936	-1.164023
H115	H	1.338475	-0.695157	-1.072763
H116	H	1.477983	-0.682161	-1.232454
H117	H	1.483748	-0.763401	-1.141226
H118	H	1.330937	-0.831587	-1.190628
H119	H	1.325191	-0.750357	-1.281882
H120	H	1.411307	-0.837279	-1.281714
C121	C	1.624336	-0.261490	-1.107048
C122	C	1.535529	-0.280401	-1.168711
C123	C	1.499550	-0.184321	-1.210590
H124	H	1.677743	-0.230586	-1.149037
H125	H	1.606745	-0.214393	-1.051630
H126	H	1.553124	-0.327481	-1.224121
H127	H	1.482101	-0.311289	-1.126745
H128	H	1.481959	-0.137224	-1.155172
H129	H	1.552964	-0.153425	-1.252574
H130	H	1.439286	-0.197138	-1.252425
H131	H	1.107811	-0.737797	-0.621407
H132	H	1.388731	-0.945746	-0.635542
C133	C	1.378207	-0.654578	-0.892418
C134	C	1.319370	-0.714171	-0.963933
C135	C	1.252066	-0.782367	-0.909261
H136	H	1.332348	-0.613973	-0.849624
H137	H	1.418328	-0.701036	-0.849624
H138	H	1.279252	-0.667718	-1.006709
H139	H	1.365201	-0.754797	-1.006730
H140	H	1.292188	-0.828826	-0.866467
H141	H	1.206215	-0.741754	-0.866469
H142	H	1.212145	-0.822816	-0.957776
H143	H	1.744714	-0.387898	-1.091369
H144	H	1.470943	-0.945945	-0.329163
H145	H	1.695219	-0.945412	-0.553750
H146	H	1.740590	-0.395410	-0.917831
