data_functionalizedCrystal
_audit_creation_method	'MofGen! by Chris Wilmer'
_symmetry_space_group_name_H-M	'P1'
_symmetry_Int_Tables_number	1
_symmetry_cell_setting	triclinic
loop_
_symmetry_equiv_pos_as_xyz
  x,y,z
_cell_length_a	23.532361
_cell_length_b	14.519709
_cell_length_c	22.610064
_cell_angle_alpha	90.003132
_cell_angle_beta	90.003897
_cell_angle_gamma	96.745093
loop_
_atom_site_label
_atom_site_type_symbol
_atom_site_fract_x
_atom_site_fract_y
_atom_site_fract_z
O1	O	0.755785	-0.111732	0.049127
O2	O	1.255785	0.388268	0.549127
O3	O	0.589991	-0.127975	0.049141
O4	O	1.089991	0.372025	0.549141
O5	O	0.677284	0.014438	0.049128
O6	O	1.177284	0.514438	0.549128
O7	O	0.668492	-0.254145	0.049139
O8	O	1.168492	0.245855	0.549139
O9	O	0.677268	0.014417	-0.049241
O10	O	1.177268	0.514417	0.450759
O11	O	0.589976	-0.127996	-0.049228
O12	O	1.089976	0.372004	0.450772
O13	O	0.755769	-0.111753	-0.049243
O14	O	1.255769	0.388247	0.450757
Zn15	Zn	0.672870	-0.119878	-0.064854
Zn16	Zn	1.172870	0.380122	0.435146
Zn17	Zn	0.672890	-0.119850	0.064752
Zn18	Zn	1.172890	0.380150	0.564752
O19	O	0.668477	-0.254166	-0.049230
O20	O	1.168477	0.245834	0.450770
C21	C	0.568765	-0.127579	-0.000042
C22	C	1.068765	0.372421	0.499958
C23	C	0.505541	-0.126356	-0.000037
C24	C	1.005541	0.373644	0.499963
C25	C	0.232281	-0.120995	0.053581
C26	C	0.732281	0.379005	0.553581
C27	C	0.291686	-0.122153	0.053582
C28	C	0.791686	0.377847	0.553582
O29	O	0.322422	-0.122710	0.099184
O30	O	0.822422	0.377290	0.599184
N31	N	0.321386	-0.122749	-0.000039
N32	N	0.821386	0.377251	0.499961
C33	C	0.291679	-0.122178	-0.053665
C34	C	0.791679	0.377822	0.446335
O35	O	0.322396	-0.122791	-0.099274
O36	O	0.822396	0.377209	0.400726
C37	C	0.232276	-0.121014	-0.053666
C38	C	0.732276	0.378986	0.446334
C39	C	0.202578	-0.120427	-0.000041
C40	C	0.702578	0.379573	0.499959
C41	C	0.202584	-0.120407	0.107201
C42	C	0.702584	0.379593	0.607201
C43	C	0.143183	-0.119252	0.107199
C44	C	0.643183	0.380748	0.607199
C45	C	0.113479	-0.118683	0.053577
C46	C	0.613479	0.381317	0.553577
C47	C	0.143177	-0.119271	-0.000043
C48	C	0.643177	0.380729	0.499957
C49	C	0.202570	-0.120436	-0.107292
C50	C	0.702570	0.379564	0.392708
C51	C	0.143162	-0.119271	-0.107288
C52	C	0.643162	0.380729	0.392712
C53	C	0.113465	-0.118684	-0.053663
C54	C	0.613465	0.381316	0.446337
C55	C	0.054072	-0.117547	-0.053667
C56	C	0.554072	0.382453	0.446333
N57	N	0.024373	-0.116951	-0.000046
N58	N	0.524373	0.383049	0.499954
C59	C	0.054076	-0.117519	0.053576
C60	C	0.554076	0.382481	0.553576
C61	C	0.416430	-0.124621	-0.053659
C62	C	0.916430	0.375379	0.446341
C63	C	0.475832	-0.125792	-0.053659
C64	C	0.975832	0.374208	0.446341
C65	C	0.475835	-0.125765	0.053589
C66	C	0.975835	0.374235	0.553589
C67	C	0.416432	-0.124601	0.053588
C68	C	0.916432	0.375399	0.553588
C69	C	0.386730	-0.124025	-0.000038
C70	C	0.886730	0.375975	0.499962
C71	C	-0.070670	-0.115093	0.053569
C72	C	0.429330	0.384907	0.553569
C73	C	-0.130077	-0.113940	0.053562
C74	C	0.369923	0.386060	0.553562
C75	C	-0.130075	-0.113963	-0.053685
C76	C	0.369925	0.386037	0.446315
C77	C	-0.070674	-0.115120	-0.053679
C78	C	0.429326	0.384880	0.446321
C79	C	-0.040973	-0.115681	-0.000047
C80	C	0.459027	0.384319	0.499953
O81	O	0.023299	-0.116985	-0.099245
O82	O	0.523299	0.383015	0.400755
O83	O	0.023353	-0.116894	0.099178
O84	O	0.523353	0.383106	0.599178
C85	C	0.676866	0.048782	-0.000057
C86	C	1.176866	0.548782	0.499943
C87	C	0.675638	0.151149	-0.000057
C88	C	1.175638	0.651149	0.499943
C89	C	0.776996	-0.112149	-0.000059
C90	C	1.276996	0.387851	0.499941
C91	C	0.840220	-0.113372	-0.000060
C92	C	1.340220	0.386628	0.499940
C93	C	0.668894	-0.288510	-0.000044
C94	C	1.168894	0.211490	0.499956
C95	C	0.670122	-0.390877	-0.000040
C96	C	1.170122	0.109123	0.499960
N97	N	0.672860	-0.119896	-0.153306
N98	N	1.172860	0.380104	0.346694
C99	C	0.671118	0.525990	-0.000041
C100	C	1.171118	1.025990	0.499959
C101	C	0.672374	0.421697	-0.000046
C102	C	1.172374	0.921697	0.499954
C103	C	0.673378	0.338573	-0.000050
C104	C	1.173378	0.838573	0.499950
C105	C	0.674634	0.234273	-0.000053
C106	C	1.174634	0.734273	0.499947
C107	C	0.711545	-0.056799	-0.561953
C108	C	1.211545	0.443201	-0.061953
C109	C	0.711548	-0.056793	-0.623873
C110	C	1.211548	0.443207	-0.123873
O111	O	0.744415	-0.003160	-0.655897
O112	O	1.244415	0.496840	-0.155897
N113	N	0.672890	-0.119831	-0.654843
N114	N	1.172890	0.380169	-0.154843
C115	C	0.634222	-0.182874	-0.623890
C116	C	1.134222	0.317126	-0.123890
O117	O	0.601340	-0.236492	-0.655919
O118	O	1.101340	0.263508	-0.155919
C119	C	0.634217	-0.182876	-0.561972
C120	C	1.134217	0.317124	-0.061972
C121	C	0.672882	-0.119839	-0.531005
C122	C	1.172882	0.380161	-0.031005
C123	C	0.750207	0.006233	-0.530986
C124	C	1.250207	0.506233	-0.030986
C125	C	0.750204	0.006225	-0.469071
C126	C	1.250204	0.506225	0.030929
C127	C	0.711541	-0.056816	-0.438122
C128	C	1.211541	0.443184	0.061878
C129	C	0.672880	-0.119848	-0.469089
C130	C	1.172880	0.380152	0.030911
C131	C	0.595547	-0.245914	-0.531020
C132	C	1.095547	0.254086	-0.031020
C133	C	0.595545	-0.245910	-0.469097
C134	C	1.095545	0.254090	0.030903
C135	C	0.634210	-0.182873	-0.438130
C136	C	1.134210	0.317127	0.061870
C137	C	0.634214	-0.182896	-0.376225
C138	C	1.134214	0.317104	0.123775
N139	N	0.672872	-0.119857	-0.345255
N140	N	1.172872	0.380143	0.154745
C141	C	0.711536	-0.056817	-0.376203
C142	C	1.211536	0.443183	0.123797
C143	C	0.634235	-0.182865	-0.753924
C144	C	1.134235	0.317135	-0.253924
C145	C	0.634243	-0.182869	-0.815842
C146	C	1.134243	0.317131	-0.315842
C147	C	0.711568	-0.056786	-0.815820
C148	C	1.211568	0.443214	-0.315820
C149	C	0.711563	-0.056787	-0.753901
C150	C	1.211563	0.443213	-0.253901
C151	C	0.672894	-0.119827	-0.722954
C152	C	1.172894	0.380173	-0.222954
C153	C	0.711528	-0.056839	-0.246176
C154	C	1.211528	0.443161	0.253824
C155	C	0.711524	-0.056856	-0.184255
C156	C	1.211524	0.443144	0.315745
C157	C	0.634197	-0.182935	-0.184282
C158	C	1.134197	0.317065	0.315718
C159	C	0.634203	-0.182923	-0.246197
C160	C	1.134203	0.317077	0.253803
C161	C	0.672870	-0.119867	-0.277143
C162	C	1.172870	0.380133	0.222857
O163	O	0.601362	-0.236499	-0.344162
O164	O	1.101362	0.263501	0.155838
O165	O	0.744407	-0.003200	-0.344167
O166	O	1.244407	0.496800	0.155833
N167	N	0.672905	-0.119825	0.153204
N168	N	1.172905	0.380175	0.653204
H169	H	0.118982	-0.118810	-0.150958
H170	H	0.618982	0.381190	0.349042
H171	H	0.500005	-0.126285	-0.097326
H172	H	1.000005	0.373715	0.402674
C173	C	0.384147	-0.124147	0.111791
C174	C	0.884147	0.375853	0.611791
C175	C	0.343719	-0.202840	0.114937
C176	C	0.843719	0.297160	0.614937
C177	C	0.313975	-0.202458	0.168551
C178	C	0.813975	0.297542	0.668551
H179	H	0.365216	-0.069968	0.114077
H180	H	0.865216	0.430032	0.614077
H181	H	0.410327	-0.124705	0.143741
H182	H	0.910327	0.375295	0.643741
H183	H	0.317542	-0.202274	0.082996
H184	H	0.817542	0.297726	0.582996
H185	H	0.362634	-0.257032	0.112661
H186	H	0.862634	0.242968	0.612661
H187	H	0.340156	-0.203015	0.200501
H188	H	0.840156	0.296985	0.700501
H189	H	0.295049	-0.148275	0.170832
H190	H	0.795049	0.351725	0.670832
H191	H	0.286545	-0.255853	0.170695
H192	H	0.786545	0.244147	0.670695
C193	C	0.753494	0.011505	-0.150559
C194	C	1.253494	0.511505	0.349441
C195	C	0.788421	-0.037231	-0.114970
C196	C	1.288421	0.462769	0.385030
C197	C	0.827059	0.025738	-0.083910
C198	C	1.327059	0.525738	0.416090
H199	H	0.732958	0.049673	-0.126386
H200	H	1.232958	0.549673	0.373614
H201	H	0.776556	0.049102	-0.177808
H202	H	1.276556	0.549102	0.322192
H203	H	0.765362	-0.074813	-0.087725
H204	H	1.265362	0.425187	0.412275
H205	H	0.808969	-0.075395	-0.139129
H206	H	1.308969	0.424605	0.360871
H207	H	0.850121	0.063336	-0.111159
H208	H	1.350121	0.563336	0.388841
H209	H	0.806518	0.063903	-0.059741
H210	H	1.306518	0.563903	0.440259
H211	H	0.850765	-0.007320	-0.059764
H212	H	1.350765	0.492680	0.440236
H213	H	0.226762	-0.120867	0.150869
H214	H	0.726762	0.379133	0.650869
H215	H	0.743050	-0.005454	-0.841030
H216	H	1.243050	0.494546	-0.341030
C217	C	0.753430	0.011759	-0.720228
C218	C	1.253430	0.511759	-0.220228
C219	C	0.723010	0.067941	-0.684699
C220	C	1.223010	0.567941	-0.184699
C221	C	0.761551	0.131118	-0.653678
C222	C	1.261551	0.631118	-0.153678
H223	H	0.776453	0.049386	-0.747482
H224	H	1.276453	0.549386	-0.247482
H225	H	0.777180	-0.021127	-0.696021
H226	H	1.277180	0.478873	-0.196021
H227	H	0.699270	0.100825	-0.708904
H228	H	1.199270	0.600825	-0.208904
H229	H	0.699989	0.030341	-0.657434
H230	H	1.199989	0.530341	-0.157434
H231	H	0.785301	0.098232	-0.629471
H232	H	1.285301	0.598232	-0.129471
H233	H	0.784573	0.168738	-0.680936
H234	H	1.284573	0.668738	-0.180936
H235	H	0.740917	0.169239	-0.629564
H236	H	1.240917	0.669239	-0.129564
C237	C	-0.038526	-0.115710	-0.111961
C238	C	0.461474	0.384290	0.388039
C239	C	-0.077256	-0.114945	-0.158921
C240	C	0.422744	0.385055	0.341079
C241	C	-0.047665	-0.115464	-0.212619
C242	C	0.452335	0.384536	0.287381
H243	H	-0.019635	-0.169928	-0.114275
H244	H	0.480365	0.330072	0.385725
H245	H	-0.011077	-0.062349	-0.114222
H246	H	0.488923	0.437651	0.385778
H247	H	-0.104695	-0.168301	-0.156660
H248	H	0.395305	0.331699	0.343340
H249	H	-0.096148	-0.060731	-0.156626
H250	H	0.403852	0.439269	0.343374
H251	H	-0.020216	-0.062103	-0.214880
H252	H	0.479784	0.437897	0.285120
H253	H	-0.028775	-0.169683	-0.214927
H254	H	0.471225	0.330317	0.285073
H255	H	-0.073938	-0.114937	-0.244487
H256	H	0.426062	0.385063	0.255513
C257	C	-0.038537	-0.115758	0.111859
C258	C	0.461463	0.384242	0.611859
C259	C	-0.077271	-0.115024	0.158810
C260	C	0.422729	0.384976	0.658810
C261	C	-0.047692	-0.115658	0.212515
C262	C	0.452308	0.384342	0.712515
H263	H	-0.011070	-0.062441	0.114179
H264	H	0.488930	0.437559	0.614179
H265	H	-0.019670	-0.170020	0.114123
H266	H	0.480330	0.329980	0.614123
H267	H	-0.096128	-0.060768	0.156548
H268	H	0.403872	0.439232	0.656548
H269	H	-0.104739	-0.168337	0.156510
H270	H	0.395261	0.331663	0.656510
H271	H	-0.028826	-0.169919	0.214779
H272	H	0.471174	0.330081	0.714779
H273	H	-0.020226	-0.062340	0.214829
H274	H	0.479774	0.437660	0.714829
H275	H	-0.073969	-0.115168	0.244378
H276	H	0.426031	0.384832	0.744378
H277	H	-0.154254	-0.113465	0.097232
H278	H	0.345746	0.386535	0.597232
C279	C	0.592359	-0.251421	-0.849490
C280	C	1.092359	0.248579	-0.349490
C281	C	0.622747	-0.307636	-0.885028
C282	C	1.122747	0.192364	-0.385028
C283	C	0.584179	-0.370802	-0.916024
C284	C	1.084179	0.129198	-0.416024
H285	H	0.568604	-0.218555	-0.873692
H286	H	1.068604	0.281445	-0.373692
H287	H	0.569342	-0.289016	-0.822203
H288	H	1.069342	0.210984	-0.322203
H289	H	0.645754	-0.270045	-0.912311
H290	H	1.145754	0.229955	-0.412311
H291	H	0.646500	-0.340521	-0.860840
H292	H	1.146500	0.159479	-0.360840
H293	H	0.561163	-0.408398	-0.888738
H294	H	1.061163	0.091602	-0.388738
H295	H	0.560426	-0.337929	-0.940223
H296	H	1.060426	0.162071	-0.440223
H297	H	0.604792	-0.408957	-0.940136
H298	H	1.104792	0.091043	-0.440136
C299	C	0.508047	-0.126564	0.111828
C300	C	1.008047	0.373436	0.611828
C301	C	0.487284	-0.205635	0.144182
C302	C	0.987284	0.294365	0.644182
C303	C	0.516950	-0.206408	0.197827
C304	C	1.016950	0.293592	0.697827
H305	H	0.502626	-0.072644	0.133927
H306	H	1.002626	0.427356	0.633927
H307	H	0.547680	-0.127388	0.104169
H308	H	1.047680	0.372612	0.604169
H309	H	0.447660	-0.204803	0.151842
H310	H	0.947660	0.295197	0.651842
H311	H	0.492705	-0.259567	0.122100
H312	H	0.992705	0.240433	0.622100
H313	H	0.556582	-0.207232	0.190168
H314	H	1.056582	0.292768	0.690168
H315	H	0.511527	-0.152486	0.219921
H316	H	1.011527	0.347514	0.719921
H317	H	0.502870	-0.260061	0.219783
H318	H	1.002870	0.239939	0.719783
C319	C	0.592285	-0.251521	-0.150703
C320	C	1.092285	0.248479	0.349297
C321	C	0.601612	-0.342073	-0.165751
C322	C	1.101612	0.157927	0.334249
C323	C	0.563017	-0.405273	-0.134822
C324	C	1.063017	0.094727	0.365178
H325	H	0.554244	-0.241947	-0.160826
H326	H	1.054244	0.258053	0.339174
H327	H	0.597827	-0.242550	-0.109387
H328	H	1.097827	0.257450	0.390613
H329	H	0.596066	-0.351040	-0.207058
H330	H	1.096066	0.148960	0.292942
H331	H	0.639646	-0.351676	-0.155625
H332	H	1.139646	0.148324	0.344375
H333	H	0.568558	-0.396302	-0.093506
H334	H	1.068558	0.103698	0.406494
H335	H	0.524978	-0.395691	-0.144948
H336	H	1.024978	0.104309	0.355052
H337	H	0.569343	-0.466719	-0.145023
H338	H	1.069343	0.033281	0.354977
H339	H	-0.154271	-0.113504	-0.097343
H340	H	0.345729	0.386496	0.402657
C341	C	0.234902	-0.121107	-0.165453
C342	C	0.734902	0.378893	0.334547
C343	C	0.293284	-0.122264	-0.153990
C344	C	0.793284	0.377736	0.346010
C345	C	0.323085	-0.122890	-0.207557
C346	C	0.823085	0.377110	0.292443
H347	H	0.229518	-0.067146	-0.187523
H348	H	0.729518	0.432854	0.312477
H349	H	0.220904	-0.174724	-0.187494
H350	H	0.720904	0.325276	0.312506
H351	H	0.307278	-0.068653	-0.131958
H352	H	0.807278	0.431347	0.368042
H353	H	0.298686	-0.176222	-0.131929
H354	H	0.798686	0.323778	0.368071
H355	H	0.309087	-0.176506	-0.229598
H356	H	0.809087	0.323494	0.270402
H357	H	0.317696	-0.068927	-0.229623
H358	H	0.817696	0.431073	0.270377
H359	H	0.362699	-0.123683	-0.199786
H360	H	0.862699	0.376317	0.300214
H361	H	0.602748	-0.234207	-0.728729
H362	H	1.102748	0.265793	-0.228729
C363	C	0.753573	0.011662	-0.279661
C364	C	1.253573	0.511662	0.220339
C365	C	0.787435	0.066839	-0.239278
C366	C	1.287435	0.566839	0.260722
C367	C	0.826179	0.129941	-0.270103
C368	C	1.326179	0.629941	0.229897
H369	H	0.733120	0.049975	-0.303816
H370	H	1.233120	0.549975	0.196184
H371	H	0.777347	-0.021281	-0.303803
H372	H	1.277347	0.478719	0.196197
H373	H	0.763664	0.099780	-0.215147
H374	H	1.263664	0.599780	0.284853
H375	H	0.807901	0.028552	-0.215122
H376	H	1.307901	0.528552	0.284878
H377	H	0.849953	0.096999	-0.294245
H378	H	1.349953	0.596999	0.205755
H379	H	0.805722	0.168248	-0.294257
H380	H	1.305722	0.668248	0.205743
H381	H	0.849163	0.167381	-0.242708
H382	H	1.349163	0.667381	0.257292
H383	H	0.781687	0.057557	-0.443861
H384	H	1.281687	0.557557	0.056139
C385	C	0.792254	0.074722	-0.564474
C386	C	1.292254	0.574722	-0.064474
C387	C	0.826115	0.129897	-0.524089
C388	C	1.326115	0.629897	-0.024089
C389	C	0.864867	0.192990	-0.554912
C390	C	1.364867	0.692990	-0.054912
H391	H	0.771807	0.113036	-0.588634
H392	H	1.271807	0.613036	-0.088634
H393	H	0.816029	0.041771	-0.588611
H394	H	1.316029	0.541771	-0.088611
H395	H	0.802343	0.162845	-0.499963
H396	H	1.302343	0.662845	0.000037
H397	H	0.846574	0.091608	-0.499928
H398	H	1.346574	0.591608	0.000072
H399	H	0.888641	0.160040	-0.579048
H400	H	1.388641	0.660040	-0.079048
H401	H	0.844415	0.231298	-0.579071
H402	H	1.344415	0.731298	-0.079071
H403	H	0.887849	0.230429	-0.527516
H404	H	1.387849	0.730429	-0.027516
C405	C	0.553502	-0.314395	-0.564523
C406	C	1.053502	0.185605	-0.064523
C407	C	0.519634	-0.369574	-0.524155
C408	C	1.019634	0.130426	-0.024155
C409	C	0.480888	-0.432664	-0.554995
C410	C	0.980888	0.067336	-0.054995
H411	H	0.573953	-0.352708	-0.588680
H412	H	1.073953	0.147292	-0.088680
H413	H	0.529731	-0.281443	-0.588665
H414	H	1.029731	0.218557	-0.088665
H415	H	0.543401	-0.402524	-0.500023
H416	H	1.043401	0.097476	-0.000023
H417	H	0.499170	-0.331287	-0.499997
H418	H	0.999170	0.168713	0.000003
H419	H	0.457117	-0.399712	-0.579137
H420	H	0.957117	0.100288	-0.079137
H421	H	0.501344	-0.470971	-0.579151
H422	H	1.001344	0.029029	-0.079151
H423	H	0.457901	-0.470105	-0.527610
H424	H	0.957901	0.029895	-0.027610
C425	C	0.553652	-0.314403	-0.435422
C426	C	1.053652	0.185597	0.064578
C427	C	0.584038	-0.370594	-0.399864
C428	C	1.084038	0.129406	0.100136
C429	C	0.545468	-0.433693	-0.368830
C430	C	1.045468	0.066307	0.131170
H431	H	0.530612	-0.352030	-0.462668
H432	H	1.030612	0.147970	0.037332
H433	H	0.529921	-0.281456	-0.411233
H434	H	1.029921	0.218544	0.088767
H435	H	0.607760	-0.403538	-0.424051
H436	H	1.107760	0.096462	0.075949
H437	H	0.607076	-0.332992	-0.372607
H438	H	1.107076	0.167008	0.127393
H439	H	0.521736	-0.400746	-0.344641
H440	H	1.021736	0.099254	0.155359
H441	H	0.522430	-0.471313	-0.396081
H442	H	1.022430	0.028687	0.103919
H443	H	0.566079	-0.471820	-0.344697
H444	H	1.066079	0.028180	0.155303
H445	H	0.392250	-0.124165	-0.097331
H446	H	0.892250	0.375835	0.402669
C447	C	0.111052	-0.118553	0.165484
C448	C	0.611052	0.381447	0.665484
C449	C	0.149793	-0.119269	0.212437
C450	C	0.649793	0.380731	0.712437
C451	C	0.120221	-0.118606	0.266140
C452	C	0.620221	0.381394	0.766140
H453	H	0.083584	-0.171867	0.167809
H454	H	0.583584	0.328133	0.667809
H455	H	0.092189	-0.064288	0.167741
H456	H	0.592189	0.435712	0.667741
H457	H	0.168647	-0.173527	0.210181
H458	H	0.668647	0.326473	0.710181
H459	H	0.177262	-0.065959	0.210132
H460	H	0.677262	0.434041	0.710132
H461	H	0.101357	-0.064342	0.268397
H462	H	0.601357	0.435658	0.768397
H463	H	0.092754	-0.171921	0.268459
H464	H	0.592754	0.328079	0.768459
H465	H	0.146502	-0.119083	0.298005
H466	H	0.646502	0.380917	0.798005
H467	H	0.602724	-0.234261	-0.271411
H468	H	1.102724	0.265739	0.228589
