data_functionalizedCrystal
_audit_creation_method	'MofGen! by Chris Wilmer'
_symmetry_space_group_name_H-M	'P1'
_symmetry_Int_Tables_number	1
_symmetry_cell_setting	triclinic
loop_
_symmetry_equiv_pos_as_xyz
  x,y,z
_cell_length_a	8.559649
_cell_length_b	8.559649
_cell_length_c	15.455313
_cell_angle_alpha	92.289439
_cell_angle_beta	87.695567
_cell_angle_gamma	69.778664
loop_
_atom_site_label
_atom_site_type_symbol
_atom_site_fract_x
_atom_site_fract_y
_atom_site_fract_z
O1	O	2.134861	-0.063002	-0.072117
O2	O	1.659377	0.020779	-0.072121
O3	O	1.939010	-0.258854	-0.072118
O4	O	1.855229	0.216631	-0.072120
O5	O	1.923026	-0.242922	0.072144
O6	O	1.643393	0.036711	0.072141
O7	O	2.118878	-0.047070	0.072145
Cu8	Cu	1.879676	-0.003725	0.085315
Cu9	Cu	1.898579	-0.022566	-0.085291
O10	O	1.839245	0.232563	0.072142
C11	C	1.591076	0.035094	0.000010
C12	C	1.411377	0.053993	0.000008
C13	C	1.937367	-0.311197	0.000012
C14	C	1.956267	-0.490897	0.000007
C15	C	2.187179	-0.061385	0.000012
C16	C	2.366879	-0.080285	0.000008
C17	C	1.840888	0.284906	0.000010
C18	C	1.821989	0.464605	0.000009
N19	N	1.866393	0.009525	0.205311
N20	N	1.911876	-0.035830	-0.205287
C21	C	1.985223	-0.109239	0.250706
C22	C	1.975191	-0.099206	0.341514
C23	C	1.846335	0.029599	0.386925
C24	C	1.727493	0.148369	0.341523
C25	C	1.737520	0.138327	0.250717
C26	C	1.803061	0.072898	0.658506
C27	C	1.793046	0.082933	0.749318
C28	C	2.040744	-0.164644	0.749303
C29	C	2.050765	-0.174668	0.658495
C30	C	1.931918	-0.055904	0.613101
N31	N	1.836080	0.039861	0.479745
N32	N	1.942167	-0.066174	0.520283
H33	H	1.466257	-0.209705	0.000004
H34	H	2.090158	-0.214119	0.213738
H35	H	2.071951	-0.195913	0.378474
H36	H	1.622568	0.253240	0.378502
C37	C	2.192500	-0.316358	0.608540
C38	C	2.323220	-0.447011	0.658465
C39	C	2.464958	-0.588695	0.608507
C40	C	2.475976	-0.599726	0.508624
C41	C	2.345251	-0.469069	0.458693
C42	C	2.203513	-0.327384	0.508651
H43	H	2.315068	-0.438849	0.732410
H44	H	2.561729	-0.685416	0.645470
H45	H	2.580899	-0.704610	0.471642
H46	H	2.353403	-0.477230	0.384749
H47	H	2.106742	-0.230663	0.471688
H48	H	1.311989	0.183420	0.000003
H49	H	2.137501	-0.261338	0.786271
C50	C	1.651287	0.224626	0.799268
C51	C	1.468286	0.243070	0.786811
C52	C	1.326537	0.384759	0.836760
C53	C	1.367788	0.508002	0.899165
C54	C	1.550797	0.489561	0.911625
C55	C	1.692547	0.347873	0.861677
H56	H	1.437742	0.151835	0.740612
H57	H	1.191061	0.398409	0.827536
H58	H	1.262857	0.612888	0.936140
H59	H	1.581342	0.580797	0.957824
H60	H	1.828022	0.334223	0.870900
C61	C	1.606807	0.268973	0.200779
C62	C	1.465116	0.410706	0.250726
C63	C	1.334393	0.541350	0.200790
C64	C	1.345361	0.530262	0.100907
C65	C	1.487058	0.388523	0.050954
C66	C	1.617780	0.257878	0.100890
H67	H	1.456992	0.418919	0.324671
H68	H	1.229500	0.646275	0.237769
H69	H	1.248593	0.626973	0.063941
H70	H	1.495182	0.380309	-0.022990
H71	H	1.722674	0.152954	0.063911
H72	H	2.085694	-0.590284	0.000015
H73	H	1.692569	-0.436017	0.000011
H74	H	1.706294	0.169603	0.621553
