data_functionalizedCrystal
_audit_creation_method	'MofGen! by Chris Wilmer'
_symmetry_space_group_name_H-M	'P1'
_symmetry_Int_Tables_number	1
_symmetry_cell_setting	triclinic
loop_
_symmetry_equiv_pos_as_xyz
  x,y,z
_cell_length_a	27.731993
_cell_length_b	27.732048
_cell_length_c	14.185569
_cell_angle_alpha	76.951782
_cell_angle_beta	103.051260
_cell_angle_gamma	82.631525
loop_
_atom_site_label
_atom_site_type_symbol
_atom_site_fract_x
_atom_site_fract_y
_atom_site_fract_z
O1	O	0.629931	0.068402	-0.083166
O2	O	0.489125	0.077183	-0.083229
O3	O	0.563903	0.002392	-0.083176
O4	O	0.555152	0.143193	-0.083218
O5	O	0.585994	-0.019699	0.083674
O6	O	0.511215	0.055092	0.083622
O7	O	0.652021	0.046310	0.083684
Cu8	Cu	0.583635	0.048684	0.098888
Cu9	Cu	0.557511	0.074810	-0.098432
O10	O	0.577242	0.121101	0.083632
C11	C	0.482162	0.065958	0.000189
C12	C	0.428502	0.065419	0.000166
C13	C	0.574765	-0.026661	0.000252
C14	C	0.574214	-0.080317	0.000260
C15	C	0.033307	0.073524	-0.090734
C16	C	0.234961	0.075595	-0.090762
O17	O	0.250793	0.086084	-0.168114
N18	N	0.272222	0.063811	0.000186
C19	C	0.259069	0.051507	0.091147
O20	O	0.295389	0.041527	0.168503
C21	C	0.057416	0.049432	0.091174
C22	C	0.020156	0.061221	0.000220
C23	C	-0.003952	0.085311	-0.181681
C24	C	-0.054363	0.084796	-0.181673
C25	C	-0.067514	0.072494	-0.090719
C26	C	-0.030255	0.060706	0.000228
C27	C	0.044263	0.037124	0.182134
C28	C	-0.006154	0.036605	0.182132
C29	C	-0.043414	0.048394	0.091179
C30	C	-0.093817	0.047889	0.091190
N31	N	-0.131078	0.059672	0.000242
C32	C	-0.117927	0.071974	-0.090712
C33	C	0.364938	0.052597	0.091126
C34	C	0.415351	0.053117	0.091120
C35	C	0.391240	0.077204	-0.090790
C36	C	0.340826	0.076688	-0.090782
C37	C	0.327677	0.064380	0.000179
C38	C	-0.223792	0.070892	-0.090689
C39	C	-0.274206	0.070378	-0.090673
C40	C	-0.250091	0.046288	0.091236
C41	C	-0.199681	0.046805	0.091221
C42	C	-0.186534	0.059106	0.000250
O43	O	-0.109685	0.037399	0.168501
O44	O	-0.154253	0.081942	-0.168057
C45	C	0.083718	0.074039	-0.090742
C46	C	0.120977	0.062252	0.000204
C47	C	0.107826	0.049949	0.091158
C48	C	0.171390	0.062771	0.000198
C49	C	0.184541	0.075074	-0.090757
C50	C	0.147280	0.086857	-0.181704
C51	C	0.096869	0.086342	-0.181697
C52	C	0.145087	0.038166	0.182106
C53	C	0.195497	0.038683	0.182091
C54	C	0.208648	0.050985	0.091137
C55	C	0.614914	-0.419135	0.000226
C56	C	0.612861	-0.620793	0.000211
O57	O	0.650079	-0.652052	0.000184
N58	N	0.568522	-0.639905	0.000193
C59	C	0.524692	-0.608599	0.000171
O60	O	0.486931	-0.629481	0.000144
C61	C	0.526745	-0.406942	0.000179
C62	C	0.571088	-0.387834	0.000208
C63	C	0.659253	-0.400027	0.000254
C64	C	0.659767	-0.349616	0.000263
C65	C	0.615941	-0.318314	0.000245
C66	C	0.571602	-0.337423	0.000217
C67	C	0.482915	-0.375636	0.000150
C68	C	0.483432	-0.325219	0.000149
C69	C	0.527775	-0.306110	0.000178
C70	C	0.528289	-0.255711	0.000207
N71	N	0.572628	-0.236598	0.000226
C72	C	0.616454	-0.267900	0.000245
C73	C	0.523618	-0.714473	0.000169
C74	C	0.523105	-0.764887	0.000169
C75	C	0.611274	-0.777077	0.000207
C76	C	0.611787	-0.726663	0.000215
C77	C	0.567957	-0.695360	0.000188
C78	C	0.617529	-0.162034	0.000265
C79	C	0.618039	-0.111619	0.000278
C80	C	0.529870	-0.099432	0.000234
C81	C	0.529361	-0.149844	0.000226
C82	C	0.573194	-0.181143	0.000238
O83	O	0.491090	-0.224422	0.000223
O84	O	0.654207	-0.247005	0.000249
C85	C	0.614400	-0.469546	0.000217
C86	C	0.570061	-0.488655	0.000189
C87	C	0.526235	-0.457353	0.000171
C88	C	0.569548	-0.539069	0.000189
C89	C	0.613374	-0.570371	0.000208
C90	C	0.657713	-0.551258	0.000227
C91	C	0.658226	-0.500848	0.000236
C92	C	0.481896	-0.476466	0.000152
C93	C	0.481387	-0.526877	0.000144
C94	C	0.525212	-0.558179	0.000162
C95	C	0.658984	0.057535	0.000265
C96	C	0.712642	0.058075	0.000281
C97	C	0.566380	0.150155	0.000202
C98	C	0.566931	0.203811	0.000187
N99	N	0.602013	0.030308	0.237672
N100	N	0.539137	0.093182	-0.237216
C101	C	0.485143	0.147149	0.605240
C102	C	0.499067	0.133233	0.710271
C103	C	0.565296	0.067029	0.710278
C104	C	0.551376	0.080938	0.605245
C105	C	0.511299	0.120999	0.552734
C106	C	0.577533	0.054789	0.552739
C107	C	0.563615	0.068698	0.447715
C108	C	0.523541	0.108758	0.395196
C109	C	0.497381	0.134909	0.447709
C110	C	0.617612	0.014731	0.605252
C111	C	0.643768	-0.011419	0.552746
C112	C	0.629848	0.002488	0.447720
C113	C	0.589774	0.042548	0.395202
C114	C	0.656007	-0.023662	0.395207
C115	C	0.642090	-0.009752	0.290183
C116	C	0.575856	0.056458	0.290177
H117	H	-0.304543	0.079980	-0.164742
F118	F	0.436780	-0.291906	0.000118
F119	F	0.705422	-0.480517	0.000261
H120	H	0.006749	0.095329	-0.255751
H121	H	0.464743	0.167526	0.404953
F122	F	0.482169	-0.170183	0.000214
F123	F	0.483230	-0.066110	0.000215
F124	F	0.705903	-0.433334	0.000273
H125	H	0.512211	0.120085	0.309679
F126	F	0.083909	0.024577	0.278941
H127	H	0.693398	-0.576754	0.000246
F128	F	0.665237	-0.091286	0.000309
H129	H	0.445276	-0.542431	0.000129
H130	H	0.445684	0.043525	0.165184
H131	H	0.597929	0.034413	0.753045
H132	H	0.676400	-0.044036	0.595513
F133	F	0.533197	0.099091	0.234289
F134	F	0.706960	-0.329283	0.000273
H135	H	0.134386	0.028145	0.256174
F136	F	0.442483	0.189782	0.549351
F137	F	0.435248	-0.443158	0.000129
H138	H	0.446805	-0.391184	0.000120
H139	H	0.477764	0.154531	0.753016
H140	H	0.647895	-0.711108	0.000237
F141	F	0.632424	-0.000069	0.717030
F142	F	0.698663	-0.066292	0.451104
H143	H	0.646958	-0.802572	0.000223
F144	F	0.669930	-0.037584	0.234302
F145	F	0.161285	0.099952	-0.278505
F146	F	-0.209807	0.083985	-0.187510
H147	H	0.310491	0.086287	-0.164845
F148	F	-0.094012	0.097340	-0.278479
H149	H	0.401956	0.087223	-0.164848
H150	H	0.354239	0.042573	0.165202
F151	F	0.475912	-0.785220	0.000156
F152	F	0.476965	-0.681164	0.000140
F153	F	-0.020144	0.023503	0.278948
F154	F	0.664181	-0.195338	0.000277
H155	H	-0.169343	0.037215	0.165283
F156	F	0.235147	0.026138	0.278904
H157	H	0.066535	0.095941	-0.255761
F158	F	-0.264097	0.033197	0.188031
