data_functionalizedCrystal
_audit_creation_method	'MofGen! by Chris Wilmer'
_symmetry_space_group_name_H-M	'P1'
_symmetry_Int_Tables_number	1
_symmetry_cell_setting	triclinic
loop_
_symmetry_equiv_pos_as_xyz
  x,y,z
_cell_length_a	19.805407
_cell_length_b	12.759394
_cell_length_c	19.805399
_cell_angle_alpha	89.976033
_cell_angle_beta	89.980427
_cell_angle_gamma	90.014837
loop_
_atom_site_label
_atom_site_type_symbol
_atom_site_fract_x
_atom_site_fract_y
_atom_site_fract_z
Zn1	Zn	1.034790	-0.418291	-0.382737
Zn2	Zn	1.034728	-0.593984	-0.269556
Zn3	Zn	0.921605	-0.418320	-0.269561
Zn4	Zn	0.921591	-0.593928	-0.382702
O5	O	0.978178	-0.506131	-0.326139
O6	O	1.129498	-0.441608	-0.367735
O7	O	1.019701	-0.570717	-0.174840
O8	O	0.936651	-0.271295	-0.284591
O9	O	1.129453	-0.570689	-0.284581
O10	O	1.019808	-0.271274	-0.367740
O11	O	0.936590	-0.441658	-0.174844
O12	O	0.826886	-0.441603	-0.284558
O13	O	0.936628	-0.570594	-0.477423
O14	O	0.826876	-0.570622	-0.367682
O15	O	1.019794	-0.441554	-0.477449
O16	O	1.019688	-0.740998	-0.284548
O17	O	0.936567	-0.740957	-0.367676
C18	C	0.802322	-0.506111	-0.326117
C19	C	0.727090	-0.506127	-0.326124
C20	C	0.691759	-0.573409	-0.369336
C21	C	0.621070	-0.573411	-0.369346
C22	C	0.585715	-0.506136	-0.326139
C23	C	0.621051	-0.438847	-0.282924
C24	C	0.691739	-0.438841	-0.282919
C25	C	0.335978	-0.438870	-0.282947
C26	C	0.265286	-0.438884	-0.282954
C27	C	0.265310	-0.573440	-0.369374
C28	C	0.335997	-0.573434	-0.369368
C29	C	0.371327	-0.506142	-0.326157
C30	C	0.447976	-0.506139	-0.326148
C31	C	0.509068	-0.506143	-0.326144
C32	C	0.978138	-0.779098	-0.326123
C33	C	0.978182	-0.895875	-0.326138
C34	C	1.064801	-0.895864	-0.239641
C35	C	1.108128	-0.950720	-0.196401
C36	C	1.108168	-1.060441	-0.196419
C37	C	1.064877	-1.115310	-0.239684
C38	C	1.021550	-1.060455	-0.282925
C39	C	1.021514	-0.950730	-0.282900
C40	C	0.934936	-1.060465	-0.369424
C41	C	0.934892	-0.950744	-0.369403
C42	C	0.891645	-1.115334	-0.412689
C43	C	0.848314	-1.060478	-0.455927
C44	C	0.848275	-0.950750	-0.455906
C45	C	0.891565	-0.895888	-0.412644
C46	C	1.154721	-0.506152	-0.326161
C47	C	1.229953	-0.506161	-0.326171
C48	C	0.978216	-0.506065	-0.502682
C49	C	0.978233	-0.506036	-0.577914
C50	C	0.978238	-0.232097	-0.326170
C51	C	0.978263	-0.115321	-0.326183
C52	C	1.021539	-0.438842	-0.613272
C53	C	1.021545	-0.438811	-0.683961
C54	C	0.978249	-0.505982	-0.719289
C55	C	0.934939	-0.573179	-0.683926
C56	C	0.934929	-0.573203	-0.613239
C57	C	0.934977	-0.573081	-0.969000
C58	C	0.934992	-0.573054	-1.039692
C59	C	1.021594	-0.438689	-1.039721
C60	C	1.021584	-0.438713	-0.969034
C61	C	0.978271	-0.505907	-0.933677
C62	C	0.978263	-0.505937	-0.857028
C63	C	0.978260	-0.505957	-0.795937
C64	C	0.978180	-0.506121	-0.150283
C65	C	0.978295	-0.505853	-0.075051
H66	H	0.720505	-0.384048	-0.247734
O67	O	0.892960	-0.638531	-0.578811
C68	C	0.883823	-0.780437	-0.499007
C69	C	0.931430	-0.706506	-0.537944
H70	H	0.914907	-0.835428	-0.465967
H71	H	0.848450	-0.732264	-0.465866
H72	H	0.852863	-0.828400	-0.536406
H73	H	0.962434	-0.658527	-0.500593
H74	H	0.966758	-0.754740	-0.571095
H75	H	0.899719	-0.627809	-0.940220
O76	O	0.586782	-0.373546	-0.240860
C77	C	0.565077	-0.322354	-0.125784
C78	C	0.603940	-0.396354	-0.173348
H79	H	0.578924	-0.340783	-0.071190
H80	H	0.579002	-0.237643	-0.137709
H81	H	0.508490	-0.333902	-0.133246
H82	H	0.660536	-0.384900	-0.165913
H83	H	0.589959	-0.481038	-0.161412
H84	H	0.720540	-0.628195	-0.404519
H85	H	0.592306	-0.628199	-0.404534
H86	H	0.891683	-1.204675	-0.412704
O87	O	1.063663	-0.373365	-0.934821
C88	C	1.149589	-0.240123	-0.942313
C89	C	1.101960	-0.314064	-0.981141
H90	H	1.180575	-0.192176	-0.979746
H91	H	1.118551	-0.185127	-0.909239
H92	H	1.184936	-0.288390	-0.909201
H93	H	1.066603	-0.265882	-1.014290
H94	H	1.133039	-0.369064	-1.014173
O95	O	1.063667	-0.373740	-0.578925
C96	C	1.155011	-0.359628	-0.499104
C97	C	1.107357	-0.433482	-0.537970
H98	H	1.190337	-0.407899	-0.465972
H99	H	1.186012	-0.311611	-0.536490
H100	H	1.123925	-0.304682	-0.466043
H101	H	1.138390	-0.488491	-0.571033
H102	H	1.076353	-0.481425	-0.500548
H103	H	0.813073	-1.105161	-0.491153
O104	O	0.231019	-0.373575	-0.240886
C105	C	0.209325	-0.322376	-0.125810
C106	C	0.248183	-0.396380	-0.173375
H107	H	0.223176	-0.340801	-0.071217
H108	H	0.223250	-0.237666	-0.137737
H109	H	0.152737	-0.333922	-0.133266
H110	H	0.304780	-0.384927	-0.165945
H111	H	0.234201	-0.481062	-0.161436
H112	H	0.236535	-0.628229	-0.404562
O113	O	0.370236	-0.638818	-0.411404
C114	C	0.362797	-0.772323	-0.497100
C115	C	0.323939	-0.698315	-0.449538
H116	H	0.325384	-0.820461	-0.527933
H117	H	0.395893	-0.724204	-0.532587
H118	H	0.395890	-0.827146	-0.465951
H119	H	0.290810	-0.643476	-0.480632
H120	H	0.290886	-0.746499	-0.414049
O121	O	0.370363	-0.373656	-0.240933
C122	C	0.450093	-0.359319	-0.149524
C123	C	0.411204	-0.433295	-0.197076
H124	H	0.483111	-0.407509	-0.114045
H125	H	0.483251	-0.304452	-0.180616
H126	H	0.412662	-0.311224	-0.118677
H127	H	0.448586	-0.481459	-0.227934
H128	H	0.378036	-0.488093	-0.165946
H129	H	1.064765	-0.806523	-0.239613
H130	H	1.143377	-0.906036	-0.161176
H131	H	1.064919	-1.204651	-0.239701
O132	O	0.806125	-0.897629	-0.497935
C133	C	0.720255	-0.909234	-0.583773
C134	C	0.767943	-0.969517	-0.536197
H135	H	0.689382	-0.967329	-0.614730
H136	H	0.684811	-0.857971	-0.552697
H137	H	0.751308	-0.857759	-0.619150
H138	H	0.736944	-1.021049	-0.500810
H139	H	0.803389	-1.020713	-0.567315
H140	H	1.056859	-0.383973	-1.068518
O141	O	1.063679	-0.373509	-0.718203
C142	C	1.149557	-0.240201	-0.710773
C143	C	1.101884	-0.314123	-0.671910
H144	H	1.180447	-0.192152	-0.673362
H145	H	1.184985	-0.288382	-0.743850
H146	H	1.118490	-0.185289	-0.743884
H147	H	1.132896	-0.369050	-0.638762
H148	H	1.066454	-0.265877	-0.638875
O149	O	1.150277	-1.113571	-0.154353
C150	C	1.236216	-1.101994	-0.068583
C151	C	1.188552	-1.041695	-0.116176
H152	H	1.267184	-1.043909	-0.037714
H153	H	1.205207	-1.153411	-0.033131
H154	H	1.271578	-1.153316	-0.099710
H155	H	1.153181	-0.990316	-0.085103
H156	H	1.219603	-0.990344	-0.151630
H157	H	0.891533	-0.806547	-0.412618
O158	O	0.892961	-0.638449	-1.073935
C159	C	0.860087	-0.817148	-1.095568
C160	C	0.907713	-0.743210	-1.056734
H161	H	0.872007	-0.901864	-1.081686
H162	H	0.805501	-0.798775	-1.081651
H163	H	0.867525	-0.805537	-1.152160
H164	H	0.900335	-0.754780	-1.000133
H165	H	0.962282	-0.761601	-1.070707
O166	O	0.892943	-0.638393	-0.718347
C167	C	0.854546	-0.697863	-0.827229
C168	C	0.902152	-0.623970	-0.788334
H169	H	0.861965	-0.686212	-0.883820
H170	H	0.866410	-0.782609	-0.813372
H171	H	0.799978	-0.679420	-0.813281
H172	H	0.956735	-0.642319	-0.802260
H173	H	0.890229	-0.539246	-0.802194
