data_functionalizedCrystal
_audit_creation_method	'MofGen! by Chris Wilmer'
_symmetry_space_group_name_H-M	'P1'
_symmetry_Int_Tables_number	1
_symmetry_cell_setting	triclinic
loop_
_symmetry_equiv_pos_as_xyz
  x,y,z
_cell_length_a	10.686220
_cell_length_b	29.839131
_cell_length_c	10.686551
_cell_angle_alpha	85.589901
_cell_angle_beta	90.308082
_cell_angle_gamma	94.423467
loop_
_atom_site_label
_atom_site_type_symbol
_atom_site_fract_x
_atom_site_fract_y
_atom_site_fract_z
Zn1	Zn	1.972144	-0.109531	-0.562362
Zn2	Zn	1.955808	-0.190848	-0.352586
Zn3	Zn	1.746247	-0.121024	-0.368677
Zn4	Zn	1.762239	-0.189937	-0.578364
O5	O	1.859109	-0.152835	-0.465497
O6	O	2.145524	-0.115889	-0.521104
O7	O	1.914480	-0.186776	-0.179174
O8	O	1.776357	-0.056627	-0.394408
O9	O	2.133522	-0.175632	-0.366982
O10	O	1.942322	-0.048183	-0.536707
O11	O	1.760516	-0.135477	-0.190996
O12	O	1.572821	-0.134594	-0.409924
O13	O	1.803613	-0.174081	-0.751788
O14	O	1.584570	-0.185225	-0.563980
O15	O	1.957829	-0.115006	-0.740032
O16	O	1.929986	-0.253599	-0.382499
O17	O	1.787772	-0.252930	-0.548377
C18	C	1.533178	-0.161058	-0.490435
C19	C	1.393745	-0.164586	-0.501133
C20	C	1.858878	-0.269565	-0.465453
C21	C	1.858897	-0.319499	-0.465467
C22	C	1.933315	-0.629464	-0.379231
C23	C	1.933474	-0.817132	-0.379268
O24	O	1.996563	-0.841676	-0.305913
N25	N	1.859377	-0.840268	-0.465572
C26	C	1.785241	-0.816484	-0.551879
O27	O	1.722231	-0.840468	-0.625295
C28	C	1.785090	-0.628816	-0.551847
C29	C	1.859182	-0.605683	-0.465528
C30	C	2.007402	-0.606331	-0.292920
C31	C	2.007357	-0.559417	-0.292908
C32	C	1.933224	-0.535636	-0.379205
C33	C	1.859137	-0.558769	-0.465516
C34	C	1.710962	-0.605033	-0.638159
C35	C	1.710934	-0.558113	-0.638145
C36	C	1.785026	-0.534980	-0.551827
C37	C	1.784958	-0.488075	-0.551801
N38	N	1.859055	-0.464939	-0.465496
C39	C	1.933188	-0.488720	-0.379198
C40	C	1.785324	-0.915012	-0.551888
C41	C	1.785360	-0.961928	-0.551895
C42	C	1.933594	-0.962573	-0.379285
C43	C	1.933551	-0.915656	-0.379273
C44	C	1.859421	-0.891876	-0.465583
C45	C	1.933086	-0.390197	-0.379177
C46	C	1.933030	-0.343279	-0.379169
C47	C	1.784801	-0.342638	-0.551783
C48	C	1.784851	-0.389552	-0.551787
C49	C	1.859004	-0.413330	-0.465480
O50	O	1.721913	-0.463501	-0.625126
O51	O	1.996210	-0.464726	-0.305811
C52	C	1.933361	-0.676378	-0.379244
C53	C	1.859273	-0.699511	-0.465554
C54	C	1.785141	-0.675730	-0.551852
C55	C	1.859309	-0.746428	-0.465561
C56	C	1.933442	-0.770208	-0.379263
C57	C	2.007539	-0.747072	-0.292959
C58	C	2.007493	-0.700158	-0.292946
C59	C	1.711044	-0.698867	-0.638156
C60	C	1.711094	-0.745781	-0.638161
C61	C	1.785227	-0.769561	-0.551863
C62	C	2.186314	-0.144580	-0.440463
C63	C	2.325749	-0.141063	-0.429795
C64	C	1.884327	-0.143160	-0.792700
C65	C	1.895073	-0.139037	-0.932134
C66	C	1.859378	-0.035647	-0.465567
C67	C	1.859492	0.014291	-0.465597
C68	C	1.834062	-0.162438	-0.139563
C69	C	1.823559	-0.166429	-0.000111
H70	H	1.993471	-0.409551	-0.308900
C71	C	1.739912	-0.323449	-0.768837
C72	C	1.703330	-0.316491	-0.646649
H73	H	1.689617	-0.307306	-0.827407
H74	H	1.825593	-0.313057	-0.780786
H75	H	1.729313	-0.354701	-0.781189
H76	H	1.713938	-0.285238	-0.634293
H77	H	1.617629	-0.326880	-0.634695
C78	C	1.666210	-0.755477	-0.855233
C79	C	1.629648	-0.771206	-0.733054
H80	H	1.615940	-0.771174	-0.913817
H81	H	1.655572	-0.724135	-0.867555
H82	H	1.751913	-0.760461	-0.867191
H83	H	1.543947	-0.766218	-0.721093
H84	H	1.640275	-0.802554	-0.720727
C85	C	2.154022	-0.705522	-0.122341
C86	C	2.088949	-0.674734	-0.198070
H87	H	2.204319	-0.689827	-0.063772
H88	H	2.095714	-0.726645	-0.078500
H89	H	2.206183	-0.720969	-0.173395
H90	H	2.036781	-0.659289	-0.147017
H91	H	2.147264	-0.653603	-0.241914
H92	H	2.067897	-0.766443	-0.222689
C93	C	1.617848	-0.866063	-0.582093
C94	C	1.703825	-0.888875	-0.646759
H95	H	1.567538	-0.849926	-0.640662
H96	H	1.565719	-0.887218	-0.531072
H97	H	1.661984	-0.845568	-0.530704
H98	H	1.659689	-0.909372	-0.698141
H99	H	1.755961	-0.867717	-0.697801
C100	C	1.706404	-0.641550	-0.808237
C101	C	1.629544	-0.672733	-0.733020
H102	H	1.656079	-0.625421	-0.866807
H103	H	1.750505	-0.621055	-0.756844
H104	H	1.764740	-0.657029	-0.852087
H105	H	1.571213	-0.657253	-0.689163
H106	H	1.585422	-0.693231	-0.784420
C107	C	1.361742	-0.065734	-0.365980
C108	C	1.391147	-0.110229	-0.336292
H109	H	1.402116	-0.046701	-0.308246
H110	H	1.389690	-0.056179	-0.448661
H111	H	1.273476	-0.064147	-0.361144
H112	H	1.479413	-0.111818	-0.341137
H113	H	1.363206	-0.119787	-0.253590
C114	C	2.080131	-0.958509	-0.208666
C115	C	2.015088	-0.988718	-0.284427
H116	H	2.130437	-0.974652	-0.150109
H117	H	2.132267	-0.937358	-0.259691
H118	H	2.021794	-0.943035	-0.164801
H119	H	2.073426	-1.004190	-0.328299
H120	H	1.962948	-1.009877	-0.233395
H121	H	1.993364	-0.324446	-0.308874
C122	C	2.052833	-0.078608	-0.907146
C123	C	1.988838	-0.103118	-0.997565
H124	H	2.110723	-0.056435	-0.947543
H125	H	1.994321	-0.064295	-0.860237
H126	H	2.096875	-0.098471	-0.852350
H127	H	1.944788	-0.083255	-1.052357
H128	H	2.047358	-0.117431	-1.044496
H129	H	1.754116	-0.193035	-0.951637
H130	H	1.345283	-0.187428	-0.570390
H131	H	2.067777	-0.625688	-0.222645
C132	C	2.153900	-0.564780	-0.122315
C133	C	2.088822	-0.533992	-0.198040
H134	H	2.204205	-0.549084	-0.063754
H135	H	2.095594	-0.585901	-0.078465
H136	H	2.206052	-0.580229	-0.173372
H137	H	2.036663	-0.518545	-0.146983
H138	H	2.147135	-0.512862	-0.241893
H139	H	1.725014	-0.980760	-0.622173
C140	C	1.938081	-0.867458	-0.209180
C141	C	2.015000	-0.890230	-0.284395
H142	H	1.988370	-0.851766	-0.150601
H143	H	1.893946	-0.846579	-0.260572
H144	H	1.879775	-0.888590	-0.165341
H145	H	2.073300	-0.869098	-0.328242
H146	H	2.059156	-0.911112	-0.232996
C147	C	1.564429	-0.562191	-0.808781
C148	C	1.629446	-0.531975	-0.733024
H149	H	1.514119	-0.546054	-0.867348
H150	H	1.622771	-0.577663	-0.852623
H151	H	1.512288	-0.583344	-0.757745
H152	H	1.681595	-0.510823	-0.784058
H153	H	1.571097	-0.516495	-0.689178
H154	H	1.724524	-0.408388	-0.622078
H155	H	1.650622	-0.623860	-0.708443
