data_functionalizedCrystal
_audit_creation_method	'MofGen! by Chris Wilmer'
_symmetry_space_group_name_H-M	'P1'
_symmetry_Int_Tables_number	1
_symmetry_cell_setting	triclinic
loop_
_symmetry_equiv_pos_as_xyz
  x,y,z
_cell_length_a	16.992701
_cell_length_b	10.967829
_cell_length_c	16.053802
_cell_angle_alpha	80.477515
_cell_angle_beta	87.243340
_cell_angle_gamma	87.621741
loop_
_atom_site_label
_atom_site_type_symbol
_atom_site_fract_x
_atom_site_fract_y
_atom_site_fract_z
O1	O	1.046848	0.257169	-0.106432
O2	O	0.818527	0.254297	-0.106020
O3	O	0.936733	0.076438	-0.080427
O4	O	0.928643	0.435028	-0.132025
O5	O	0.930226	0.086185	0.057030
O6	O	0.812021	0.264044	0.031437
O7	O	1.040341	0.266915	0.031024
Zn8	Zn	0.925148	0.267027	0.053055
Zn9	Zn	0.933721	0.254185	-0.128050
O10	O	0.922136	0.444774	0.005431
C11	C	0.786016	0.255472	-0.036759
C12	C	0.698837	0.244438	-0.035172
C13	C	0.208970	0.170300	-0.024507
C14	C	0.290883	0.180677	-0.025995
C15	C	0.323857	0.297529	-0.042813
C16	C	0.274913	0.404011	-0.058136
C17	C	0.193001	0.393633	-0.056641
C18	C	0.567981	0.340542	-0.049000
C19	C	0.649899	0.350912	-0.050496
C20	C	0.665864	0.127577	-0.018354
C21	C	0.583950	0.117208	-0.016866
C22	C	0.535012	0.223691	-0.032184
N23	N	0.407586	0.308139	-0.044337
N24	N	0.451285	0.213080	-0.030654
C25	C	0.932399	0.035215	-0.005067
C26	C	0.929171	-0.102136	0.014691
C27	C	0.931102	-0.168415	-0.047707
C28	C	0.927766	-0.310376	-0.027287
C29	C	1.072852	0.265740	-0.038238
C30	C	1.160032	0.276774	-0.039831
C31	C	0.926470	0.485997	-0.069930
C32	C	0.929698	0.623348	-0.089694
N33	N	0.919303	0.275791	0.176654
N34	N	0.939572	0.245412	-0.251648
C35	C	0.969618	0.200142	0.231233
C36	C	0.965537	0.206285	0.317756
C37	C	0.911143	0.288084	0.349697
C38	C	0.860822	0.363736	0.295111
C39	C	0.864900	0.357586	0.208591
C40	C	0.893329	0.314914	0.607246
C41	C	0.889256	0.321061	0.693773
C42	C	0.993971	0.163608	0.716412
C43	C	0.998047	0.157470	0.629888
C44	C	0.947723	0.233117	0.575311
N45	N	0.906972	0.294368	0.438136
N46	N	0.951891	0.226826	0.486874
H47	H	0.153156	0.480336	-0.069117
H48	H	1.006507	0.144685	0.362195
C49	C	1.057875	0.067484	0.594760
H50	H	1.087253	0.023300	0.639660
H51	H	1.092687	0.112793	0.554130
H52	H	1.030591	0.010823	0.568830
H53	H	0.182129	0.075146	-0.010817
C54	C	1.049316	0.080389	0.776446
H55	H	1.082296	0.030797	0.745030
H56	H	1.018856	0.028531	0.818015
H57	H	1.080952	0.130502	0.803320
H58	H	0.923637	-0.358724	0.041257
C59	C	0.547680	-0.011326	0.001626
H60	H	0.491888	-0.002258	0.000310
H61	H	0.562112	-0.052119	0.055916
H62	H	0.566657	-0.058896	-0.039961
H63	H	0.816530	0.430334	0.321123
H64	H	0.933813	-0.328304	-0.158238
C65	C	0.837997	0.398153	0.547213
H66	H	0.848211	0.382780	0.491109
H67	H	0.846877	0.482485	0.549404
H68	H	0.784766	0.380539	0.564081
C69	C	0.923599	-0.167446	0.107283
H70	H	0.922092	-0.254292	0.108861
H71	H	0.877002	-0.139260	0.134349
H72	H	0.968279	-0.149088	0.135761
C73	C	0.936675	-0.103106	-0.140299
H74	H	0.938192	-0.016261	-0.141876
H75	H	0.892004	-0.121468	-0.168780
H76	H	0.983280	-0.131290	-0.167361
C77	C	1.029451	0.110161	0.196106
H78	H	1.058826	0.065979	0.241008
H79	H	1.064264	0.155468	0.155477
H80	H	1.002167	0.053499	0.170176
C81	C	0.829378	0.410973	0.728916
H82	H	0.799974	0.455118	0.684024
H83	H	0.856614	0.467656	0.754867
H84	H	0.794586	0.365584	0.769534
C85	C	0.809557	0.440799	0.148549
H86	H	0.819770	0.425414	0.092448
H87	H	0.818418	0.525141	0.150727
H88	H	0.756330	0.423159	0.165427
H89	H	0.330725	0.093974	-0.013514
H90	H	0.676743	0.446073	-0.064180
C91	C	0.719692	0.010454	-0.001502
H92	H	0.688321	-0.060624	0.008722
H93	H	0.749711	0.013258	0.046516
H94	H	0.754243	0.006458	-0.049358
C95	C	0.514161	0.457668	-0.065857
H96	H	0.545533	0.528743	-0.076096
H97	H	0.479606	0.461671	-0.018009
H98	H	0.484144	0.454860	-0.113881
H99	H	0.301767	0.499155	-0.071824
