data_functionalizedCrystal
_audit_creation_method	'MofGen! by Chris Wilmer'
_symmetry_space_group_name_H-M	'P1'
_symmetry_Int_Tables_number	1
_symmetry_cell_setting	triclinic
loop_
_symmetry_equiv_pos_as_xyz
  x,y,z
_cell_length_a	14.044220
_cell_length_b	16.098538
_cell_length_c	17.000383
_cell_angle_alpha	92.506243
_cell_angle_beta	95.605410
_cell_angle_gamma	92.982557
loop_
_atom_site_label
_atom_site_type_symbol
_atom_site_fract_x
_atom_site_fract_y
_atom_site_fract_z
O1	O	1.246317	0.069165	-0.187530
O2	O	0.970923	0.069186	-0.180645
O3	O	1.125718	0.069171	-0.069435
O4	O	1.091522	0.069180	-0.298739
O5	O	1.116678	-0.069341	-0.075904
O6	O	0.961883	-0.069326	-0.187113
O7	O	1.237277	-0.069347	-0.193998
Zn8	Zn	1.098145	-0.091328	-0.191583
Zn9	Zn	1.110055	0.091167	-0.183060
O10	O	1.082482	-0.069332	-0.305208
C11	C	0.931340	-0.000067	-0.180866
C12	C	0.826864	-0.000059	-0.171877
N13	N	1.090023	-0.215877	-0.197399
C14	C	0.635571	-0.000076	-0.155446
C15	C	0.572625	-0.000077	-0.219193
C16	C	0.466183	-0.000087	-0.210050
C17	C	0.742023	-0.000067	-0.164588
C18	C	1.155745	-0.259468	-0.150217
C19	C	1.150072	-0.346656	-0.154294
C20	C	1.078679	-0.390252	-0.205558
C21	C	1.012951	-0.346654	-0.252741
C22	C	1.018620	-0.259467	-0.248660
C23	C	1.058126	-0.653500	-0.220340
C24	C	1.052463	-0.740693	-0.224420
C25	C	1.189584	-0.740689	-0.125971
C26	C	1.195251	-0.653500	-0.121898
C27	C	1.129519	-0.609910	-0.169078
C28	C	1.072880	-0.479372	-0.209728
C29	C	1.135314	-0.520791	-0.164903
C30	C	1.276860	-0.000092	-0.193777
C31	C	1.381337	-0.000094	-0.202765
C32	C	1.123035	-0.000084	-0.043146
C33	C	1.128496	-0.000082	0.044824
N34	N	1.118185	0.215716	-0.177238
C35	C	1.085165	-0.000075	-0.331497
C36	C	1.079704	-0.000072	-0.419467
C37	C	1.163761	-0.000081	0.542538
C38	C	1.158622	-0.000086	0.459879
C39	C	1.069425	-0.000075	0.415218
C40	C	0.985362	-0.000068	0.453219
C41	C	0.990502	-0.000069	0.535875
C42	C	1.049573	-0.000076	0.165482
C43	C	1.044440	-0.000072	0.082820
C44	C	1.217700	-0.000092	0.089486
C45	C	1.222832	-0.000088	0.172144
C46	C	1.138769	-0.000085	0.210137
C47	C	1.064170	-0.000077	0.330728
C48	C	1.144024	-0.000089	0.294626
H49	H	0.598676	-0.000071	-0.280634
H50	H	0.981123	-0.000064	0.196406
F51	F	1.248088	-0.000080	0.419447
F52	F	1.258698	-0.000086	0.590063
H53	H	0.991547	-0.000065	0.294356
F54	F	1.238950	-0.000106	0.342159
H55	H	0.994324	-0.776184	-0.266168
H56	H	1.193439	-0.485294	-0.123161
F57	F	0.601522	-0.000082	-0.075143
F58	F	1.220020	-0.393050	-0.104077
F59	F	1.317767	-0.000102	0.219670
H60	H	1.213884	-0.223978	-0.108477
H61	H	1.004606	-0.618016	-0.258758
H62	H	0.912736	-0.000064	0.416849
F63	F	0.948667	-0.213075	-0.298875
F64	F	1.271235	-0.607104	-0.067338
F65	F	0.936964	-0.393052	-0.307297
H66	H	1.243099	-0.776188	-0.087558
H67	H	1.014753	-0.514875	-0.251469
H68	H	0.922053	-0.000069	0.566809
H69	H	1.286140	-0.000087	0.058543
H70	H	0.971801	-0.000066	0.046458
