data_functionalizedCrystal
_audit_creation_method	'MofGen! by Chris Wilmer'
_symmetry_space_group_name_H-M	'P1'
_symmetry_Int_Tables_number	1
_symmetry_cell_setting	triclinic
loop_
_symmetry_equiv_pos_as_xyz
  x,y,z
_cell_length_a	19.288864
_cell_length_b	19.288857
_cell_length_c	17.766277
_cell_angle_alpha	89.991474
_cell_angle_beta	89.976791
_cell_angle_gamma	83.134677
loop_
_atom_site_label
_atom_site_type_symbol
_atom_site_fract_x
_atom_site_fract_y
_atom_site_fract_z
O1	O	0.921351	0.086649	-0.062839
O2	O	0.719090	0.098338	-0.062788
O3	O	0.826067	-0.008637	-0.062806
O4	O	0.814373	0.193624	-0.062821
O5	O	0.826049	-0.008643	0.062382
O6	O	0.719071	0.098332	0.062400
O7	O	0.921332	0.086644	0.062349
Cu8	Cu	0.820200	0.092488	0.073806
Cu9	Cu	0.820222	0.092494	-0.074244
O10	O	0.814354	0.193619	0.062367
C11	C	0.693204	0.097959	-0.000187
C12	C	0.616100	0.096830	-0.000167
C13	C	0.571402	0.159598	-0.000184
C14	C	0.498955	0.158537	-0.000192
C15	C	0.471210	0.094705	-0.000199
C16	C	0.515917	0.031929	-0.000178
C17	C	0.588363	0.032991	-0.000162
C18	C	0.362955	0.044528	-0.044080
C19	C	0.290511	0.043468	-0.044100
C20	C	0.247764	0.091425	-0.000244
C21	C	0.277469	0.140455	0.043622
C22	C	0.349914	0.141517	0.043638
C23	C	0.392656	0.093546	-0.000216
C24	C	0.124510	0.153048	-0.000269
C25	C	0.052062	0.151984	-0.000272
C26	C	0.069026	0.025374	-0.000266
C27	C	0.141472	0.026439	-0.000255
C28	C	0.169210	0.090278	-0.000260
C29	C	0.825683	-0.034516	-0.000211
C30	C	0.824556	-0.111620	-0.000209
C31	C	0.824040	-0.147828	-0.068449
C32	C	0.822971	-0.220274	-0.068454
C33	C	0.822432	-0.256511	-0.000215
C34	C	0.822944	-0.220295	0.068034
C35	C	0.824006	-0.147849	0.068037
C36	C	0.861426	-0.376745	0.052050
C37	C	0.860369	-0.449190	0.052044
C38	C	0.819155	-0.479957	-0.000223
C39	C	0.779007	-0.438272	-0.052496
C40	C	0.780069	-0.365827	-0.052493
C41	C	0.821281	-0.335066	-0.000211
C42	C	0.817479	-0.594719	-0.068474
C43	C	0.816406	-0.667166	-0.068476
C44	C	0.816386	-0.667186	0.068014
C45	C	0.817452	-0.594740	0.068014
C46	C	0.818002	-0.558511	-0.000232
C47	C	0.947218	0.087022	-0.000253
C48	C	1.024321	0.088151	-0.000278
C49	C	0.814739	0.219498	-0.000229
C50	C	0.815866	0.296602	-0.000237
N51	N	0.820189	0.092483	0.177936
N52	N	0.820238	0.092493	-0.178375
C53	C	0.867574	0.045137	0.217315
C54	C	0.867578	0.045134	0.296117
C55	C	0.820204	0.092488	0.335537
C56	C	0.772810	0.139837	0.296148
C57	C	0.772803	0.139834	0.217348
C58	C	0.810903	0.155776	0.460371
C59	C	0.810915	0.155780	0.539170
C60	C	0.820222	0.092496	0.578583
C61	C	0.829532	0.029207	0.539187
C62	C	0.829525	0.029204	0.460387
C63	C	0.820206	0.092496	0.420982
C64	C	0.867614	0.045144	0.703408
C65	C	0.867614	0.045139	0.782211
C66	C	0.772849	0.139849	0.782241
C67	C	0.772846	0.139847	0.703439
C68	C	0.820233	0.092495	0.664027
H69	H	0.046436	-0.026600	-0.000318
H70	H	0.824486	-0.118335	-0.124020
H71	H	0.906157	0.006579	0.185228
Cl72	Cl	0.927154	-0.014391	0.345630
Cl73	Cl	0.387256	0.203148	0.098785
Cl74	Cl	0.910842	-0.501587	0.117755
H75	H	0.824423	-0.118369	0.123608
Cl76	Cl	0.841219	-0.050356	0.410863
H77	H	0.177867	-0.024674	-0.000245
Cl78	Cl	0.818100	-0.549219	0.153807
H79	H	0.734273	0.178403	0.814336
H80	H	0.147095	0.205029	-0.000262
H81	H	0.906198	0.006581	0.814274
Cl82	Cl	0.841238	-0.050355	0.588725
H83	H	0.734264	0.178403	0.671375
Cl84	Cl	0.822261	-0.265848	0.153820
Cl85	Cl	0.799267	0.235342	0.410832
H86	H	0.397755	0.005473	-0.079797
Cl87	Cl	0.799217	0.235343	0.588688
Cl88	Cl	0.913262	-0.338077	0.117746
Cl89	Cl	0.822323	-0.265802	-0.154248
H90	H	0.734236	0.178393	0.328248
H91	H	0.906197	0.006585	0.671317
Cl92	Cl	-0.004132	0.230901	-0.000289
H93	H	0.242665	0.179506	0.079334
Cl94	Cl	0.818165	-0.549170	-0.154266
H95	H	0.734215	0.178389	0.185285
H96	H	0.593981	0.211581	-0.000189
Cl97	Cl	0.815753	-0.712684	-0.154272
H98	H	0.266331	0.003548	-0.079822
Cl99	Cl	0.442753	0.237452	-0.000211
H100	H	0.624757	-0.018124	-0.000149
H101	H	0.493322	-0.020044	-0.000194
H102	H	0.747378	-0.331889	-0.095054
H103	H	0.815942	-0.696689	0.123575
Cl104	Cl	0.727188	-0.476942	-0.118204
