data_functionalizedCrystal
_audit_creation_method	'MofGen! by Chris Wilmer'
_symmetry_space_group_name_H-M	'P1'
_symmetry_Int_Tables_number	1
_symmetry_cell_setting	triclinic
loop_
_symmetry_equiv_pos_as_xyz
  x,y,z
_cell_length_a	6.817900
_cell_length_b	12.200875
_cell_length_c	12.200863
_cell_angle_alpha	93.006308
_cell_angle_beta	107.143441
_cell_angle_gamma	107.143593
loop_
_atom_site_label
_atom_site_type_symbol
_atom_site_fract_x
_atom_site_fract_y
_atom_site_fract_z
V1	V	-4.086881	-0.357778	-0.158973
V2	V	-3.753548	-0.024444	0.174360
V3	V	-3.420215	0.308889	0.507694
O4	O	-4.054179	-0.350847	0.007371
O5	O	-3.720845	-0.017514	0.340705
O6	O	-3.387512	0.315820	0.674038
O7	O	-4.056329	-0.355446	-0.314959
O8	O	-3.722996	-0.022113	0.018374
O9	O	-3.389663	0.311220	0.351708
O10	O	-4.056333	-0.513764	-0.156645
O11	O	-3.722999	-0.180431	0.176688
O12	O	-3.389666	0.152902	0.510021
O13	O	-4.054175	-0.191433	-0.152038
O14	O	-3.720842	0.141900	0.181295
O15	O	-3.387509	0.475234	0.514628
V16	V	-4.565883	-0.337868	-0.139062
V17	V	-4.232550	-0.004534	0.194271
V18	V	-3.899217	0.328799	0.527604
O19	O	-4.358057	-0.401452	-0.202649
O20	O	-4.024723	-0.068119	0.130685
O21	O	-3.691390	0.265214	0.464018
O22	O	-4.744905	-0.294193	-0.095387
O23	O	-4.411572	0.039140	0.237946
O24	O	-4.078239	0.372474	0.571280
O25	O	-4.373229	-0.340199	0.016923
O26	O	-4.039895	-0.006866	0.350257
O27	O	-3.706562	0.326468	0.683590
O28	O	-4.715983	-0.344798	-0.305407
O29	O	-4.382650	-0.011465	0.027927
O30	O	-4.049316	0.321869	0.361260
O31	O	-4.715986	-0.504212	-0.145997
O32	O	-4.382653	-0.170879	0.187336
O33	O	-4.049319	0.162454	0.520669
O34	O	-4.373226	-0.181881	-0.141390
O35	O	-4.039892	0.151452	0.191943
O36	O	-3.706559	0.484786	0.525276
C37	C	-3.905095	-0.349832	-0.352981
C38	C	-3.571761	-0.016499	-0.019648
C39	C	-3.238428	0.316835	0.313685
C40	C	-3.961521	-0.348965	-0.480503
C41	C	-3.628187	-0.015632	-0.147169
C42	C	-3.294854	0.317701	0.186164
C43	C	-4.064793	-0.347388	-0.713978
C44	C	-3.731459	-0.014055	-0.380645
C45	C	-3.398126	0.319279	-0.047312
C46	C	-4.007317	-0.348266	-0.584056
C47	C	-3.673983	-0.014932	-0.250722
C48	C	-3.340650	0.318401	0.082611
C49	C	-3.905097	-0.551781	-0.151035
C50	C	-3.571764	-0.218448	0.182298
C51	C	-3.238431	0.114886	0.515632
C52	C	-3.961522	-0.679301	-0.150164
C53	C	-3.628189	-0.345968	0.183169
C54	C	-3.294855	-0.012635	0.516503
C55	C	-4.064787	-0.912775	-0.148571
C56	C	-3.731454	-0.579441	0.184762
C57	C	-3.398121	-0.246108	0.518096
C58	C	-4.007315	-0.782853	-0.149457
C59	C	-3.673981	-0.449520	0.183876
C60	C	-3.340648	-0.116187	0.517210
C61	C	-4.187806	-0.345810	0.054940
C62	C	-3.854473	-0.012477	0.388273
C63	C	-3.521139	0.320856	0.721606
C64	C	-4.110619	-0.346684	0.182460
C65	C	-3.777286	-0.013351	0.515793
C66	C	-3.443952	0.319982	0.849127
C67	C	-4.187803	-0.143858	-0.147004
C68	C	-3.854469	0.189475	0.186329
C69	C	-3.521136	0.522808	0.519662
C70	C	-4.110616	-0.016337	-0.147869
C71	C	-3.777282	0.316997	0.185464
C72	C	-3.443949	0.650330	0.518797
