data_functionalizedCrystal
_audit_creation_method	'MofGen! by Chris Wilmer'
_symmetry_space_group_name_H-M	'P1'
_symmetry_Int_Tables_number	1
_symmetry_cell_setting	triclinic
loop_
_symmetry_equiv_pos_as_xyz
  x,y,z
_cell_length_a	8.559649
_cell_length_b	12.837942
_cell_length_c	7.681481
_cell_angle_alpha	83.650030
_cell_angle_beta	94.913240
_cell_angle_gamma	82.303802
loop_
_atom_site_label
_atom_site_type_symbol
_atom_site_fract_x
_atom_site_fract_y
_atom_site_fract_z
O1	O	2.101390	-0.023863	-0.146400
O2	O	1.644239	0.029032	-0.146410
O3	O	1.862678	-0.147512	-0.146394
O4	O	1.882950	0.152681	-0.146416
O5	O	1.889558	-0.169285	0.146465
O6	O	1.671118	0.007259	0.146450
O7	O	2.128269	-0.045636	0.146459
Zn8	Zn	1.903962	-0.022646	0.192952
Zn9	Zn	1.868546	0.006042	-0.192903
O10	O	1.909830	0.130908	0.146444
C11	C	1.598759	0.022154	0.000019
C12	C	1.423195	0.034086	0.000015
C13	C	1.869269	-0.196474	0.000034
C14	C	1.848843	-0.309925	0.000031
C15	C	2.094400	-0.570430	-0.000001
C16	C	2.075215	-0.677028	-0.000004
C17	C	1.791288	-0.629721	0.000008
C18	C	1.810473	-0.523122	0.000012
C19	C	1.962034	-0.493482	0.000010
C20	C	1.981219	-0.386882	0.000026
C21	C	1.697292	-0.339576	0.000025
C22	C	1.678107	-0.446174	0.000022
C23	C	2.173749	-0.038758	0.000027
C24	C	2.349311	-0.050689	0.000019
C25	C	1.903238	0.179870	0.000011
C26	C	1.923664	0.293322	0.000003
N27	N	1.928143	-0.042226	0.456288
N28	N	1.844376	0.025613	-0.456239
H29	H	1.352129	0.115800	0.000000
H30	H	1.554709	-0.470323	0.000017
H31	H	1.420367	-0.132396	0.000016
H32	H	2.013670	-0.111467	0.531500
H33	H	2.104628	-0.362752	0.000031
H34	H	1.667891	-0.653873	-0.000009
H35	H	2.217808	-0.546298	0.000015
C36	C	2.220818	-0.761668	-0.000006
H37	H	2.313825	-0.728745	0.000006
H38	H	2.209861	-0.796642	-0.102131
H39	H	2.228613	-0.811830	0.102135
C40	C	1.551682	-0.254929	0.000022
H41	H	1.584809	-0.187196	0.000012
H42	H	1.499579	-0.270277	0.102145
H43	H	1.480838	-0.255083	-0.102121
C44	C	1.728852	0.119154	0.442185
H45	H	1.678727	0.159762	0.523367
H46	H	1.650893	0.092895	0.370275
H47	H	1.785679	0.162531	0.370258
