data_functionalizedCrystal
_audit_creation_method	'MofGen! by Chris Wilmer'
_symmetry_space_group_name_H-M	'P1'
_symmetry_Int_Tables_number	1
_symmetry_cell_setting	triclinic
loop_
_symmetry_equiv_pos_as_xyz
  x,y,z
_cell_length_a	10.654549
_cell_length_b	16.109304
_cell_length_c	9.130313
_cell_angle_alpha	89.998292
_cell_angle_beta	89.997498
_cell_angle_gamma	83.973708
loop_
_atom_site_label
_atom_site_type_symbol
_atom_site_fract_x
_atom_site_fract_y
_atom_site_fract_z
O1	O	1.666257	0.116772	-0.121756
O2	O	1.300628	0.127898	-0.121765
O3	O	1.493485	0.001364	-0.121761
O4	O	1.473400	0.243306	-0.121760
O5	O	1.493472	0.001360	0.121838
O6	O	1.300615	0.127894	0.121834
O7	O	1.666244	0.116769	0.121843
Cu8	Cu	1.483428	0.122331	0.144081
Cu9	Cu	1.483444	0.122336	-0.144003
O10	O	1.473387	0.243303	0.121839
C11	C	1.253835	0.127079	0.000033
C12	C	1.114424	0.124635	0.000029
C13	C	0.902931	0.196834	0.000035
C14	C	1.033921	0.199137	0.000027
C15	C	1.063933	0.047827	0.000026
C16	C	0.932946	0.045525	0.000024
C17	C	1.492664	-0.029617	0.000035
C18	C	1.490223	-0.121927	0.000025
C19	C	1.484591	-0.334296	-0.132755
C20	C	1.482286	-0.421030	-0.132754
C21	C	1.482278	-0.421031	0.132831
C22	C	1.484574	-0.334298	0.132828
C23	C	1.485737	-0.290933	0.000031
C24	C	1.481135	-0.464400	0.000035
C25	C	1.478636	-0.558441	0.000037
C26	C	1.488234	-0.196886	0.000028
C27	C	1.713038	0.117587	0.000042
C28	C	1.852448	0.120031	0.000036
C29	C	1.474208	0.274284	0.000040
C30	C	1.476649	0.366594	0.000040
N31	N	1.483427	0.122328	0.346704
N32	N	1.483456	0.122333	-0.346625
C33	C	1.568852	0.066322	0.423357
C34	C	1.568864	0.066322	0.576694
C35	C	1.398021	0.178341	0.576710
C36	C	1.398004	0.178336	0.423376
H37	H	1.075017	0.261677	0.000025
O38	O	1.651971	0.011890	0.650928
C39	C	1.821374	-0.099249	0.634720
C40	C	1.727342	-0.037632	0.550470
H41	H	1.882319	-0.139315	0.553537
H42	H	1.884181	-0.063007	0.706453
H43	H	1.767165	-0.141082	0.706561
H44	H	1.781449	0.004216	0.478550
H45	H	1.664537	-0.073926	0.478830
H46	H	1.485500	-0.298990	0.240965
H47	H	1.638407	0.020716	0.360934
H48	H	1.481350	-0.456332	-0.240881
H49	H	1.481333	-0.456349	0.240950
O50	O	0.884107	-0.029158	0.000091
C51	C	0.927687	-0.178994	-0.000002
C52	C	0.983165	-0.094480	-0.000035
H53	H	1.007748	-0.231830	-0.000135
H54	H	0.867151	-0.183912	0.101964
H55	H	0.867075	-0.183804	-0.101927
H56	H	1.043834	-0.089613	0.101821
H57	H	1.043630	-0.089599	-0.102069
H58	H	1.328473	0.223943	0.639152
O59	O	1.315142	0.232861	0.348973
C60	C	1.241427	0.376971	0.302106
C61	C	1.335356	0.315321	0.386430
H62	H	1.257719	0.443653	0.332382
H63	H	1.256083	0.367417	0.179326
H64	H	1.140868	0.365474	0.332260
H65	H	1.435951	0.326781	0.356399
H66	H	1.320589	0.324889	0.509189
O67	O	0.824787	0.269229	-0.000228
C68	C	0.759122	0.397869	-0.126400
C69	C	0.847667	0.315903	-0.126295
H70	H	0.777607	0.435636	-0.228299
H71	H	0.656803	0.383083	-0.126494
H72	H	0.777464	0.435596	-0.024412
H73	H	0.829437	0.278137	-0.228265
H74	H	0.949955	0.330747	-0.126125
O75	O	1.142260	-0.024488	-0.000168
C76	C	1.307525	-0.109724	-0.126403
C77	C	1.218915	-0.027787	-0.126354
H78	H	1.369505	-0.112426	-0.228429
H79	H	1.369679	-0.112439	-0.024524
H80	H	1.248915	-0.165001	-0.126335
H81	H	1.277425	0.027536	-0.126475
H82	H	1.156756	-0.025145	-0.228225
H83	H	1.485534	-0.298991	-0.240887
