data_functionalizedCrystal
_audit_creation_method	'MofGen! by Chris Wilmer'
_symmetry_space_group_name_H-M	'P1'
_symmetry_Int_Tables_number	1
_symmetry_cell_setting	triclinic
loop_
_symmetry_equiv_pos_as_xyz
  x,y,z
_cell_length_a	10.723024
_cell_length_b	19.188930
_cell_length_c	9.198806
_cell_angle_alpha	89.991701
_cell_angle_beta	89.996352
_cell_angle_gamma	83.806325
loop_
_atom_site_label
_atom_site_type_symbol
_atom_site_fract_x
_atom_site_fract_y
_atom_site_fract_z
O1	O	1.655155	0.097922	-0.120901
O2	O	1.291808	0.107295	-0.120908
O3	O	1.483967	0.001021	-0.120876
O4	O	1.462996	0.204196	-0.120933
O5	O	1.483952	0.001021	0.120909
O6	O	1.291793	0.107295	0.120877
O7	O	1.655140	0.097922	0.120884
Cu8	Cu	1.473465	0.102608	0.142957
Cu9	Cu	1.473483	0.102609	-0.142982
O10	O	1.462981	0.204196	0.120852
C11	C	1.245315	0.106613	-0.000016
C12	C	1.106803	0.104572	-0.000017
C13	C	1.030586	0.164037	-0.000035
C14	C	0.887427	0.161930	-0.000036
C15	C	1.483280	-0.024995	0.000021
C16	C	1.481242	-0.102512	0.000033
C17	C	1.593994	-0.146704	0.000042
C18	C	1.592079	-0.219540	0.000019
C19	C	1.477405	-0.248182	0.000016
C20	C	1.364638	-0.203981	-0.000002
C21	C	1.366556	-0.131146	0.000007
N22	N	1.389745	-0.356756	0.082298
N23	N	1.387930	-0.425947	0.082293
C24	C	1.471618	-0.467628	-0.000014
N25	N	1.557208	-0.437506	-0.082297
N26	N	1.559026	-0.368310	-0.082285
C27	C	1.475312	-0.327158	0.000005
C28	C	1.582302	-0.590797	-0.000032
C29	C	1.580382	-0.663634	-0.000065
C30	C	1.352937	-0.648073	-0.000070
C31	C	1.354860	-0.575238	-0.000053
C32	C	1.469546	-0.546604	-0.000027
C33	C	1.701633	0.098604	-0.000012
C34	C	1.840145	0.100645	-0.000020
C35	C	1.463668	0.230211	-0.000048
C36	C	1.465706	0.307729	-0.000070
N37	N	1.473462	0.102608	0.344071
N38	N	1.473496	0.102604	-0.344096
C39	C	1.554148	0.057789	0.416282
C40	C	1.554167	0.057787	0.583694
H41	H	1.066070	0.052101	-0.000040
H42	H	1.274736	-0.095165	0.000000
H43	H	1.263044	-0.539256	-0.000052
O44	O	1.693810	-0.563092	-0.000097
C45	C	1.919198	-0.586212	-0.000036
C46	C	1.793004	-0.617677	0.000011
H47	H	1.999428	-0.630328	0.000083
H48	H	1.925863	-0.552516	-0.101242
H49	H	1.925717	-0.552488	0.101131
H50	H	1.786399	-0.651433	-0.101087
H51	H	1.786392	-0.651332	0.101285
O52	O	1.636422	0.011930	0.342223
C53	C	1.709666	-0.109140	0.295350
C54	C	1.616398	-0.057289	0.379301
H55	H	1.693527	-0.165114	0.325320
H56	H	1.694946	-0.101023	0.173525
H57	H	1.809646	-0.099660	0.325133
H58	H	1.516381	-0.066737	0.349641
H59	H	1.631228	-0.065418	0.501106
H60	H	1.404419	0.140979	0.593816
H61	H	1.687380	-0.123395	0.000058
H62	H	1.071319	0.216508	-0.000041
O63	O	0.918382	0.039953	-0.000197
C64	C	1.083078	-0.031538	-0.125486
C65	C	0.994555	0.037227	-0.125448
H66	H	1.144668	-0.033771	-0.226756
H67	H	1.144848	-0.033783	-0.024369
H68	H	1.025179	-0.077997	-0.125402
H69	H	1.052355	0.083724	-0.125583
H70	H	0.932781	0.039411	-0.226557
O71	O	1.391012	0.148287	0.418325
C72	C	1.220657	0.162456	0.590316
C73	C	1.313982	0.110646	0.506346
H74	H	1.158336	0.132044	0.661479
H75	H	1.274524	0.197472	0.661657
H76	H	1.159959	0.196216	0.509884
H77	H	1.374703	0.076840	0.586673
H78	H	1.260038	0.075679	0.434984
H79	H	1.623250	0.019419	0.645792
H80	H	1.271269	-0.227305	-0.000007
O81	O	1.701727	-0.262377	0.000097
C82	C	1.927520	-0.270130	0.000043
C83	C	1.803439	-0.221540	-0.000012
H84	H	2.009786	-0.237133	-0.000075
H85	H	1.932375	-0.304613	0.101252
H86	H	1.932249	-0.304625	-0.101121
H87	H	1.798627	-0.187001	0.101084
H88	H	1.798636	-0.187105	-0.101288
H89	H	0.821937	0.212836	-0.000057
H90	H	1.672202	-0.699615	-0.000065
H91	H	1.259567	-0.671393	-0.000080
