data_functionalizedCrystal
_audit_creation_method	'MofGen! by Chris Wilmer'
_symmetry_space_group_name_H-M	'P1'
_symmetry_Int_Tables_number	1
_symmetry_cell_setting	triclinic
loop_
_symmetry_equiv_pos_as_xyz
  x,y,z
_cell_length_a	11.169416
_cell_length_b	18.101398
_cell_length_c	11.169409
_cell_angle_alpha	90.031820
_cell_angle_beta	89.968693
_cell_angle_gamma	89.997879
loop_
_atom_site_label
_atom_site_type_symbol
_atom_site_fract_x
_atom_site_fract_y
_atom_site_fract_z
Zn1	Zn	-0.477968	-1.132265	-0.678911
Zn2	Zn	0.022032	-0.632265	-0.178911
Zn3	Zn	-0.678708	-1.132195	-0.478231
Zn4	Zn	-0.178708	-0.632195	0.021769
Zn5	Zn	-0.478009	-1.008413	-0.478206
Zn6	Zn	0.021991	-0.508413	0.021794
Zn7	Zn	-0.678579	-1.008420	-0.678837
Zn8	Zn	-0.178579	-0.508420	-0.178837
O9	O	-0.578316	-1.070323	-0.578546
O10	O	-0.078316	-0.570323	-0.078546
O11	O	-0.504633	-1.235889	-0.652332
O12	O	-0.004633	-0.735889	-0.152332
O13	O	-0.652156	-1.115744	-0.310278
O14	O	-0.152156	-0.615744	0.189722
O15	O	-0.310054	-1.024869	-0.504851
O16	O	0.189946	-0.524869	-0.004851
O17	O	-0.652116	-1.235837	-0.504894
O18	O	-0.152116	-0.735837	-0.004894
O19	O	-0.310023	-1.115862	-0.652308
O20	O	0.189977	-0.615862	-0.152308
O21	O	-0.504704	-1.024801	-0.310260
O22	O	-0.004704	-0.524801	0.189740
O23	O	-0.504579	-0.904781	-0.504779
O24	O	-0.004579	-0.404781	-0.004779
O25	O	-0.651896	-1.024880	-0.846797
O26	O	-0.151896	-0.524880	-0.346797
O27	O	-0.651937	-0.904786	-0.652181
O28	O	-0.151937	-0.404786	-0.152181
O29	O	-0.504508	-1.115868	-0.846851
O30	O	-0.004508	-0.615868	-0.346851
O31	O	-0.846640	-1.115750	-0.504822
O32	O	-0.346640	-0.615750	-0.004822
O33	O	-0.846546	-1.024813	-0.652206
O34	O	-0.346546	-0.524813	-0.152206
C35	C	-0.578249	-0.877913	-0.578470
C36	C	-0.078249	-0.377913	-0.078470
C37	C	-0.578250	-0.795599	-0.578465
C38	C	-0.078250	-0.295599	-0.078465
C39	C	-0.890141	-1.070295	-0.578535
C40	C	-0.390141	-0.570295	-0.078535
C41	C	-1.023541	-1.070350	-0.578570
C42	C	-0.523541	-0.570350	-0.078570
C43	C	-0.578297	-0.496508	-0.578544
C44	C	-0.078297	0.003492	-0.078544
C45	C	-0.485123	-0.527805	-0.486257
C46	C	0.014877	-0.027805	0.013743
C47	C	-0.485381	-0.613423	-0.485870
C48	C	0.014619	-0.113423	0.014130
C49	C	-0.578272	-0.644890	-0.578505
C50	C	-0.078272	-0.144890	-0.078505
C51	C	-0.704702	-0.613799	-0.543957
C52	C	-0.204702	-0.113799	-0.043957
C53	C	-0.704176	-0.528154	-0.543309
C54	C	-0.204176	-0.028154	-0.043309
C55	C	-0.546143	-0.528122	-0.705599
C56	C	-0.046143	-0.028122	-0.205599
C57	C	-0.543336	-0.613772	-0.704912
C58	C	-0.043336	-0.113772	-0.204912
C59	C	-0.578266	-0.728750	-0.578485
C60	C	-0.078266	-0.228750	-0.078485
C61	C	-0.578311	-0.412648	-0.578562
C62	C	-0.078311	0.087352	-0.078562
C63	C	-0.265274	-1.070372	-0.578585
C64	C	0.234726	-0.570372	-0.078585
C65	C	-0.131874	-1.070393	-0.578601
C66	C	0.368126	-0.570393	-0.078601
C67	C	-0.578183	-1.070383	-0.891589
C68	C	-0.078183	-0.570383	-0.391589
C69	C	-0.578126	-1.070408	-1.024989
C70	C	-0.078126	-0.570408	-0.524989
C71	C	-0.578360	-0.263485	-0.578606
C72	C	-0.078360	0.236515	-0.078606
C73	C	-0.578319	-0.345799	-0.578584
C74	C	-0.078319	0.154201	-0.078584
C75	C	-0.578362	-1.070307	-0.266722
C76	C	-0.078362	-0.570307	0.233278
C77	C	-0.578080	-1.070425	-0.133322
C78	C	-0.078080	-0.570425	0.366678
H79	H	-0.391628	-0.634444	-0.507524
H80	H	0.108372	-0.134444	-0.007524
H81	H	-0.506642	-0.633877	-0.391726
H82	H	-0.006642	-0.133877	0.108274
O83	O	-0.789615	-0.638210	-0.621709
O84	O	-0.289615	-0.138210	-0.121709
C85	C	-0.735808	-0.683852	-0.708776
C86	C	-0.235808	-0.183852	-0.208776
H87	H	-0.648516	-0.707249	-0.671976
H88	H	-0.148516	-0.207249	-0.171976
H89	H	-0.799038	-0.731151	-0.732085
H90	H	-0.299038	-0.231151	-0.232085
H91	H	-0.716364	-0.650064	-0.792669
H92	H	-0.216364	-0.150064	-0.292669
H93	H	-0.391080	-0.507215	-0.507670
H94	H	0.108920	-0.007215	-0.007670
H95	H	-0.731443	-0.508143	-0.450426
H96	H	-0.231443	-0.008143	0.049574
H97	H	-0.614008	-0.507884	-0.774362
H98	H	-0.114008	-0.007884	-0.274362
O99	O	-0.510452	-0.502114	-0.374643
O100	O	-0.010452	-0.002114	0.125357
C101	C	-0.611972	-0.455925	-0.379602
C102	C	-0.111972	0.044075	0.120398
H103	H	-0.667246	-0.470228	-0.462194
H104	H	-0.167246	0.029772	0.037806
H105	H	-0.668605	-0.464420	-0.295791
H106	H	-0.168605	0.035580	0.204209
H107	H	-0.582159	-0.395779	-0.384829
H108	H	-0.082159	0.104221	0.115171
H109	H	-0.775950	-0.507451	-0.607596
H110	H	-0.275950	-0.007451	-0.107596
H111	H	-0.732445	-0.635215	-0.452081
H112	H	-0.232445	-0.135215	0.047919
H113	H	-0.455550	-0.506531	-0.737009
H114	H	0.044450	-0.006531	-0.237009
H115	H	-0.450297	-0.634096	-0.730962
H116	H	0.049703	-0.134096	-0.230962
H117	H	-0.606256	-0.635195	-0.777360
H118	H	-0.106256	-0.135195	-0.277360
