data_functionalizedCrystal
_audit_creation_method	'MofGen! by Chris Wilmer'
_symmetry_space_group_name_H-M	'P1'
_symmetry_Int_Tables_number	1
_symmetry_cell_setting	triclinic
loop_
_symmetry_equiv_pos_as_xyz
  x,y,z
_cell_length_a	16.109302
_cell_length_b	14.044190
_cell_length_c	15.186229
_cell_angle_alpha	89.991383
_cell_angle_beta	89.994701
_cell_angle_gamma	88.326779
loop_
_atom_site_label
_atom_site_type_symbol
_atom_site_fract_x
_atom_site_fract_y
_atom_site_fract_z
O1	O	1.112198	0.121838	-0.073279
O2	O	1.612198	0.621838	0.426721
O3	O	0.871264	0.136999	-0.073273
O4	O	1.371264	0.636999	0.426727
O5	O	0.988112	-0.008565	-0.073258
O6	O	1.488112	0.491435	0.426742
O7	O	0.995350	0.267402	-0.073293
O8	O	1.495350	0.767402	0.426707
O9	O	0.988103	-0.008567	0.073199
O10	O	1.488103	0.491433	0.573199
O11	O	0.871256	0.136997	0.073184
O12	O	1.371256	0.636997	0.573184
O13	O	1.112189	0.121836	0.073179
O14	O	1.612189	0.621836	0.573179
Zn15	Zn	0.991721	0.129416	0.096435
Zn16	Zn	1.491721	0.629416	0.596435
Zn17	Zn	0.991732	0.129419	-0.096529
Zn18	Zn	1.491732	0.629419	0.403471
O19	O	0.995342	0.267400	0.073164
O20	O	1.495342	0.767400	0.573164
C21	C	0.840239	0.136384	-0.000043
C22	C	1.340239	0.636384	0.499957
C23	C	0.747807	0.134543	-0.000040
C24	C	1.247807	0.634543	0.499960
C25	C	0.535144	0.130283	0.079785
C26	C	1.035144	0.630283	0.579785
C27	C	0.448295	0.128542	0.079782
C28	C	0.948295	0.628542	0.579782
C29	C	0.448315	0.128550	-0.079893
C30	C	0.948315	0.628550	0.420107
C31	C	0.535163	0.130283	-0.079890
C32	C	1.035163	0.630283	0.420110
C33	C	0.578576	0.131155	-0.000048
C34	C	1.078576	0.631155	0.499952
C35	C	0.404878	0.127681	-0.000054
C36	C	0.904878	0.627681	0.499946
C37	C	0.310712	0.125793	-0.000058
C38	C	0.810712	0.625793	0.499942
C39	C	0.672748	0.133040	-0.000044
C40	C	1.172748	0.633040	0.499956
C41	C	0.984940	-0.043879	-0.000027
C42	C	1.484940	0.456121	0.499973
C43	C	0.975494	-0.149103	-0.000019
C44	C	1.475494	0.350897	0.499981
C45	C	1.025219	-0.399404	-0.000055
C46	C	1.525219	0.100596	0.499945
C47	C	0.958238	-0.341755	-0.000047
C48	C	1.458238	0.158245	0.499953
C49	C	0.967842	-0.234553	-0.000032
C50	C	1.467842	0.265447	0.499968
C51	C	1.015617	-0.506616	-0.000070
C52	C	1.515617	-0.006616	0.499930
C53	C	1.143214	0.122451	-0.000053
C54	C	1.643214	0.622451	0.499947
C55	C	1.235646	0.124293	-0.000062
C56	C	1.735646	0.624293	0.499938
C57	C	0.998513	0.302715	-0.000069
C58	C	1.498513	0.802715	0.499931
C59	C	1.007959	0.407938	-0.000083
C60	C	1.507959	0.907938	0.499917
N61	N	0.991719	0.129414	0.228127
N62	N	1.491719	0.629414	0.728127
N63	N	0.991740	0.129414	-0.228222
N64	N	1.491740	0.629414	0.271778
C65	C	1.043480	0.064980	0.453857
C66	C	1.543480	0.564980	0.953857
C67	C	1.043482	0.064977	0.546046
C68	C	1.543482	0.564977	1.046046
C69	C	0.939974	0.193851	0.546043
C70	C	1.439974	0.693851	1.046043
C71	C	0.939967	0.193848	0.453855
C72	C	1.439967	0.693848	0.953855
C73	C	0.991725	0.129414	0.407764
C74	C	1.491725	0.629414	0.907764
C75	C	0.991734	0.129414	0.592142
C76	C	1.491734	0.629414	1.092142
C77	C	0.991736	0.129412	0.692098
C78	C	1.491736	0.629412	1.192098
C79	C	0.991722	0.129414	0.307802
C80	C	1.491722	0.629414	0.807802
H81	H	0.570488	0.130993	0.144798
H82	H	1.070488	0.630993	0.644798
O83	O	0.577228	0.131171	-0.157523
O84	O	1.077228	0.631171	0.342477
C85	C	0.520290	0.130015	-0.227994
C86	C	1.020290	0.630015	0.272006
H87	H	0.457160	0.158770	-0.204599
H88	H	0.957160	0.658770	0.295401
H89	H	0.543527	0.176508	-0.283834
H90	H	1.043527	0.676508	0.216166
H91	H	0.514143	0.053834	-0.252535
H92	H	1.014143	0.553834	0.247465
H93	H	1.089770	-0.368250	-0.000047
H94	H	1.589770	0.131750	0.499953
O95	O	0.406233	0.127744	0.157411
O96	O	0.906233	0.627744	0.657411
C97	C	0.463178	0.128859	0.227877
C98	C	0.963178	0.628859	0.727877
H99	H	0.523870	0.160089	0.204469
H100	H	1.023870	0.660089	0.704469
H101	H	0.436209	0.174346	0.283708
H102	H	0.936209	0.674346	0.783708
H103	H	0.475501	0.053046	0.252434
H104	H	0.975501	0.553046	0.752434
H105	H	0.893681	-0.372910	-0.000051
H106	H	1.393681	0.127090	0.499949
H107	H	0.897835	0.246314	0.583579
H108	H	1.397835	0.746314	1.083579
H109	H	1.085623	0.012512	0.416332
H110	H	1.585623	0.512512	0.916332
H111	H	0.897819	0.246318	0.416323
H112	H	1.397819	0.746318	0.916323
O113	O	1.093682	0.002424	0.590957
O114	O	1.593682	0.502424	1.090957
C115	C	1.082605	0.016253	0.682209
C116	C	1.582605	0.516253	1.182209
H117	H	1.019134	0.051655	0.694805
H118	H	1.519134	0.551655	1.194805
H119	H	1.086535	-0.055527	0.717253
H120	H	1.586535	0.444473	1.217253
H121	H	1.133188	0.063811	0.708356
H122	H	1.633188	0.563811	1.208356
H123	H	0.412958	0.127841	-0.144898
H124	H	0.912958	0.627841	0.355102
