data_functionalizedCrystal
_audit_creation_method	'MofGen! by Chris Wilmer'
_symmetry_space_group_name_H-M	'P1'
_symmetry_Int_Tables_number	1
_symmetry_cell_setting	triclinic
loop_
_symmetry_equiv_pos_as_xyz
  x,y,z
_cell_length_a	17.000371
_cell_length_b	16.956995
_cell_length_c	16.053802
_cell_angle_alpha	92.373609
_cell_angle_beta	87.622785
_cell_angle_gamma	75.826860
loop_
_atom_site_label
_atom_site_type_symbol
_atom_site_fract_x
_atom_site_fract_y
_atom_site_fract_z
O1	O	1.057799	0.025257	-0.069432
O2	O	1.391132	0.358590	0.263901
O3	O	1.724466	0.691923	0.597234
O4	O	0.824153	0.054331	-0.069433
O5	O	1.157487	0.387665	0.263901
O6	O	1.490820	0.720998	0.597234
O7	O	0.955012	-0.077268	-0.069429
O8	O	1.288345	0.256065	0.263904
O9	O	1.621679	0.589398	0.597237
O10	O	0.926940	0.156857	-0.069436
O11	O	1.260274	0.490190	0.263898
O12	O	1.593607	0.823523	0.597231
O13	O	0.947811	-0.070053	0.069430
O14	O	1.281144	0.263281	0.402763
O15	O	1.614478	0.596614	0.736096
O16	O	0.816953	0.061547	0.069426
O17	O	1.150286	0.394880	0.402759
O18	O	1.483619	0.728214	0.736093
O19	O	1.050598	0.032473	0.069426
O20	O	1.383931	0.365806	0.402760
O21	O	1.717265	0.699139	0.736093
Zn22	Zn	0.932632	0.048155	0.091473
Zn23	Zn	1.265965	0.381489	0.424806
Zn24	Zn	1.599299	0.714822	0.758140
Zn25	Zn	0.942120	0.038648	-0.091479
Zn26	Zn	1.275453	0.371982	0.241854
Zn27	Zn	1.608786	0.705315	0.575187
O28	O	0.919739	0.164072	0.069423
O29	O	1.253073	0.497406	0.402756
O30	O	1.586406	0.830739	0.736090
C31	C	0.790797	0.059501	-0.000003
C32	C	1.124130	0.392834	0.333330
C33	C	1.457463	0.726168	0.666663
C34	C	0.702132	0.064145	-0.000003
C35	C	1.035466	0.397478	0.333330
C36	C	1.368799	0.730811	0.666663
C37	C	0.674808	-0.007316	0.000000
C38	C	1.008141	0.326017	0.333333
C39	C	1.341475	0.659350	0.666667
C40	C	0.591498	-0.002949	-0.000006
C41	C	0.924831	0.330385	0.333327
C42	C	1.258165	0.663718	0.666661
C43	C	0.535513	0.072881	-0.000010
C44	C	0.868847	0.406215	0.333324
C45	C	1.202180	0.739548	0.666657
C46	C	0.562843	0.144347	-0.000016
C47	C	0.896176	0.477681	0.333318
C48	C	1.229509	0.811014	0.666651
C49	C	0.646152	0.139979	-0.000016
C50	C	0.979485	0.473312	0.333318
C51	C	1.312818	0.806645	0.666651
C52	C	0.283258	0.089756	-0.000016
C53	C	0.616591	0.423090	0.333318
C54	C	0.949924	0.756423	0.666651
C55	C	0.199944	0.094120	-0.000013
C56	C	0.533277	0.427453	0.333320
C57	C	0.866610	0.760787	0.666653
C58	C	0.228605	-0.053177	-0.000005
C59	C	0.561938	0.280156	0.333328
C60	C	0.895272	0.613490	0.666661
C61	C	0.311914	-0.057539	-0.000000
C62	C	0.645247	0.275795	0.333333
C63	C	0.978581	0.609128	0.666666
C64	C	0.339236	0.013927	-0.000011
C65	C	0.672570	0.347261	0.333323
C66	C	1.005903	0.680594	0.666656
C67	C	0.450357	0.077348	-0.000013
C68	C	0.783690	0.410681	0.333320
C69	C	1.117023	0.744014	0.666653
C70	C	0.424392	0.009460	-0.000013
C71	C	0.757725	0.342793	0.333320
C72	C	1.091059	0.676126	0.666654
C73	C	0.952849	-0.103469	-0.000001
C74	C	1.286182	0.229864	0.333333
C75	C	1.619516	0.563197	0.666666
C76	C	0.957122	-0.192290	-0.000004
C77	C	1.290456	0.141044	0.333330
C78	C	1.623789	0.474377	0.666663
C79	C	1.083955	0.027303	-0.000005
C80	C	1.417288	0.360636	0.333329
C81	C	1.750622	0.693970	0.666662
C82	C	1.172619	0.022659	-0.000010
C83	C	1.505953	0.355992	0.333323
C84	C	1.839286	0.689326	0.666657
C85	C	0.989090	-0.693832	-0.000007
C86	C	1.322424	-0.360498	0.333327
C87	C	1.655757	-0.027165	0.666660
C88	C	0.985069	-0.610374	-0.000002
C89	C	1.318402	-0.277041	0.333332
C90	C	1.651735	0.056292	0.666665
C91	C	0.909586	-0.553994	-0.000006
C92	C	1.242919	-0.220660	0.333328
C93	C	1.576253	0.112673	0.666661
C94	C	0.838120	-0.581073	-0.000006
C95	C	1.171453	-0.247740	0.333327
C96	C	1.504786	0.085593	0.666660
C97	C	0.842142	-0.664529	-0.000005
C98	C	1.175475	-0.331196	0.333328
C99	C	1.508808	0.002138	0.666661
C100	C	0.889678	-0.302825	-0.000003
C101	C	1.223011	0.030508	0.333330
C102	C	1.556345	0.363842	0.666663
C103	C	0.885661	-0.219365	-0.000007
C104	C	1.218995	0.113969	0.333327
C105	C	1.552328	0.447302	0.666660
C106	C	1.032611	-0.248671	-0.000001
C107	C	1.365945	0.084662	0.333333
C108	C	1.699278	0.417995	0.666666
C109	C	1.036627	-0.332128	-0.000005
C110	C	1.369960	0.001206	0.333329
C111	C	1.703293	0.334539	0.666662
C112	C	0.965160	-0.359200	-0.000001
C113	C	1.298494	-0.025867	0.333332
C114	C	1.631827	0.307467	0.666666
N115	N	0.905473	-0.468686	-0.000003
N116	N	1.238807	-0.135353	0.333330
N117	N	1.572140	0.197980	0.666664
N118	N	0.969273	-0.444505	0.000003
N119	N	1.302607	-0.111172	0.333336
N120	N	1.635940	0.222161	0.666669
C121	C	0.921903	0.190273	-0.000007
C122	C	1.255236	0.523607	0.333326
C123	C	1.588569	0.856940	0.666659
C124	C	0.917630	0.279093	-0.000010
C125	C	1.250963	0.612427	0.333323
C126	C	1.584296	0.945760	0.666657
N127	N	0.926163	0.054643	0.216333
N128	N	1.259496	0.387976	0.549667
N129	N	1.592829	0.721310	0.883000
N130	N	0.948595	0.032154	-0.216339
N131	N	1.281929	0.365488	0.116994
N132	N	1.615262	0.698821	0.450327
C133	C	0.981861	-0.001336	0.260029
C134	C	1.315194	0.331998	0.593362
C135	C	1.648528	0.665331	0.926695
C136	C	0.977343	0.003209	0.347435
C137	C	1.310676	0.336543	0.680769
C138	C	1.644009	0.669876	1.014102
C139	C	0.917129	0.063737	0.391145
C140	C	1.250462	0.397071	0.724478
C141	C	1.583796	0.730404	1.057812
C142	C	0.861425	0.119719	0.347443
C143	C	1.194758	0.453052	0.680777
C144	C	1.528092	0.786385	1.014110
C145	C	0.865940	0.115169	0.260038
C146	C	1.199274	0.448503	0.593372
C147	C	1.532607	0.781836	0.926705
C148	C	0.897407	0.083586	0.652554
C149	C	1.230740	0.416920	0.985887
C150	C	1.564073	0.750253	1.319221
C151	C	0.892897	0.088133	0.739965
C152	C	1.226230	0.421466	1.073299
C153	C	1.559564	0.754800	1.406632
C154	C	1.008814	-0.028378	0.739951
C155	C	1.342148	0.304955	1.073284
C156	C	1.675481	0.638289	1.406618
C157	C	1.013328	-0.032919	0.652544
C158	C	1.346661	0.300415	0.985878
C159	C	1.679994	0.633748	1.319211
C160	C	0.957621	0.023060	0.608850
C161	C	1.290954	0.356393	0.942184
C162	C	1.624288	0.689727	1.275517
N163	N	0.912511	0.068386	0.480489
N164	N	1.245844	0.401719	0.813822
N165	N	1.579177	0.735053	1.147155
N166	N	0.962236	0.018407	0.519508
N167	N	1.295570	0.351740	0.852842
N168	N	1.628903	0.685074	1.186175
H169	H	0.154361	0.155873	-0.000012
H170	H	0.487694	0.489207	0.333321
H171	H	0.821028	0.822540	0.666654
H172	H	0.668396	0.198170	-0.000015
H173	H	1.001730	0.531503	0.333319
H174	H	1.335063	0.864837	0.666652
Br175	Br	0.500372	-0.093449	-0.000014
Br176	Br	0.833705	0.239884	0.333320
Br177	Br	1.167038	0.573217	0.666653
Br178	Br	1.082057	-0.573634	-0.000018
Br179	Br	1.415390	-0.240301	0.333315
Br180	Br	1.748724	0.093033	0.666648
H181	H	0.852049	0.129168	0.616985
H182	H	1.185383	0.462501	0.950319
H183	H	1.518716	0.795835	1.283652
H184	H	0.305493	0.147949	-0.000030
H185	H	0.638826	0.481282	0.333304
H186	H	0.972159	0.814615	0.666637
Br187	Br	0.790341	0.191139	0.200737
Br188	Br	1.123675	0.524472	0.534071
Br189	Br	1.457008	0.857806	0.867404
Br190	Br	0.783213	-0.142847	-0.000011
Br191	Br	1.116547	0.190487	0.333322
Br192	Br	1.449880	0.523820	0.666656
Br193	Br	1.139072	-0.408640	0.000001
Br194	Br	1.472405	-0.075306	0.333335
Br195	Br	1.805739	0.258027	0.666668
H196	H	0.569256	-0.061140	-0.000004
H197	H	0.902589	0.272193	0.333329
H198	H	1.235922	0.605527	0.666663
Br199	Br	0.374372	0.180257	-0.000022
Br200	Br	0.707705	0.513590	0.333311
Br201	Br	1.041039	0.846924	0.666644
Br202	Br	1.063590	-0.083480	0.200718
Br203	Br	1.396923	0.249853	0.534051
Br204	Br	1.730256	0.583187	0.867384
H205	H	1.022696	-0.042373	0.383012
H206	H	1.356030	0.290960	0.716345
H207	H	1.689363	0.624293	1.049678
Br208	Br	0.486865	0.247260	-0.000032
Br209	Br	0.820198	0.580594	0.333301
Br210	Br	1.153532	0.913927	0.666634
H211	H	1.050557	-0.739733	-0.000010
H212	H	1.383891	-0.406400	0.333323
H213	H	1.717224	-0.073066	0.666656
H214	H	0.720386	-0.069065	0.000006
H215	H	1.053720	0.264268	0.333340
H216	H	1.387053	0.597601	0.666673
H217	H	0.831486	-0.324857	-0.000010
H218	H	1.164819	0.008476	0.333323
H219	H	1.498152	0.341810	0.666656
Br220	Br	0.387888	-0.160454	0.000015
Br221	Br	0.721221	0.172879	0.333348
Br222	Br	1.054555	0.506213	0.666681
H223	H	1.062358	-0.082205	0.616958
H224	H	1.395692	0.251128	0.950291
H225	H	1.729025	0.584461	1.283624
Br226	Br	0.191520	-0.150161	0.000006
Br227	Br	0.524853	0.183172	0.333339
Br228	Br	0.858187	0.516506	0.666673
H229	H	1.090796	-0.226620	-0.000010
H230	H	1.424129	0.106713	0.333323
H231	H	1.757462	0.440047	0.666656
H232	H	0.776659	-0.535161	-0.000005
H233	H	1.109993	-0.201828	0.333329
H234	H	1.443326	0.131506	0.666662
H235	H	0.783950	-0.686571	-0.000001
H236	H	1.117284	-0.353237	0.333332
H237	H	1.450617	-0.019904	0.666666
Br238	Br	0.779699	0.201860	0.406760
Br239	Br	1.113032	0.535194	0.740094
Br240	Br	1.446366	0.868527	1.073427
H241	H	1.054167	-0.073954	0.775535
H242	H	1.387501	0.259379	1.108868
H243	H	1.720834	0.592713	1.442201
Br244	Br	0.811174	0.170289	0.799280
Br245	Br	1.144508	0.503622	1.132614
Br246	Br	1.477841	0.836955	1.465947
