data_functionalizedCrystal
_audit_creation_method	'MofGen! by Chris Wilmer'
_symmetry_space_group_name_H-M	'P1'
_symmetry_Int_Tables_number	1
_symmetry_cell_setting	triclinic
loop_
_symmetry_equiv_pos_as_xyz
  x,y,z
_cell_length_a	17.699083
_cell_length_b	10.489741
_cell_length_c	16.776229
_cell_angle_alpha	90.006341
_cell_angle_beta	89.993572
_cell_angle_gamma	96.089072
loop_
_atom_site_label
_atom_site_type_symbol
_atom_site_fract_x
_atom_site_fract_y
_atom_site_fract_z
O1	O	-1.005134	0.161291	0.066274
O2	O	-0.505134	0.661291	0.566274
O3	O	-0.784893	0.182277	0.066279
O4	O	-0.284893	0.682277	0.566279
O5	O	-0.900025	-0.013907	0.066272
O6	O	-0.400025	0.486093	0.566272
O7	O	-0.890002	0.357475	0.066281
O8	O	-0.390002	0.857475	0.566281
O9	O	-0.900009	-0.013919	-0.066305
O10	O	-0.400009	0.486081	0.433695
O11	O	-0.784877	0.182265	-0.066298
O12	O	-0.284877	0.682265	0.433702
O13	O	-1.005119	0.161279	-0.066302
O14	O	-0.505119	0.661279	0.433698
Zn15	Zn	-0.894995	0.171770	-0.087349
Zn16	Zn	-0.394995	0.671770	0.412651
Zn17	Zn	-0.895016	0.171786	0.087326
Zn18	Zn	-0.395016	0.671786	0.587326
O19	O	-0.889986	0.357463	-0.066295
O20	O	-0.389986	0.857463	0.433705
C21	C	-0.756683	0.181519	-0.000009
C22	C	-0.256683	0.681519	0.499991
C23	C	-0.672650	0.179263	-0.000007
C24	C	-0.172650	0.679263	0.499993
C25	C	-0.633168	0.178194	-0.072276
C26	C	-0.133168	0.678194	0.427724
C27	C	-0.554211	0.176055	-0.072276
C28	C	-0.054211	0.676055	0.427724
C29	C	-0.514738	0.174994	-0.000008
C30	C	-0.014738	0.674994	0.499992
C31	C	-0.554227	0.176059	0.072266
C32	C	-0.054227	0.676059	0.572266
C33	C	-0.633182	0.178189	0.072266
C34	C	-0.133182	0.678189	0.572266
C35	C	-0.235808	0.167466	0.072268
C36	C	0.264192	0.667466	0.572268
C37	C	-0.156847	0.165339	0.072263
C38	C	0.343153	0.665339	0.572263
C39	C	-0.156837	0.165331	-0.072274
C40	C	0.343163	0.665331	0.427726
C41	C	-0.235793	0.167461	-0.072274
C42	C	0.264207	0.667461	0.427726
C43	C	-0.275275	0.168520	-0.000001
C44	C	0.224725	0.668520	0.499999
C45	C	-0.360888	0.170838	-0.000001
C46	C	0.139112	0.670838	0.499999
C47	C	-0.429126	0.172685	-0.000007
C48	C	0.070874	0.672685	0.499993
C49	C	-0.899260	-0.061431	-0.000016
C50	C	-0.399260	0.438569	0.499984
C51	C	-0.896995	-0.203018	-0.000015
C52	C	-0.396995	0.296982	0.499985
C53	C	-0.823740	-0.269797	-0.000007
C54	C	-0.323740	0.230203	0.499993
C55	C	-0.858338	-0.362568	-0.065375
C56	C	-0.358338	0.137432	0.434625
C57	C	-0.858370	-0.362532	0.065335
C58	C	-0.358370	0.137468	0.565335
C59	C	-0.931623	-0.293925	-0.065436
C60	C	-0.431623	0.206075	0.434564
C61	C	-0.931645	-0.293878	0.065332
C62	C	-0.431645	0.206122	0.565332
C63	C	-0.966296	-0.386623	-0.000051
C64	C	-0.466296	0.113377	0.499949
C65	C	-0.033329	0.162029	-0.000012
C66	C	0.466671	0.662029	0.499988
C67	C	-0.117363	0.164261	-0.000006
C68	C	0.382637	0.664261	0.499994
C69	C	-0.890751	0.404986	-0.000006
C70	C	-0.390751	0.904986	0.499994
C71	C	-0.893016	0.546574	-0.000002
C72	C	-0.393016	1.046574	0.499998
N73	N	-0.894987	0.171758	-0.206561
N74	N	-0.394987	0.671758	0.293439
C75	C	-0.945983	0.084923	-0.248281
C76	C	-0.445983	0.584923	0.251719
C77	C	-0.945988	0.084922	-0.331733
C78	C	-0.445988	0.584922	0.168267
C79	C	-0.894999	0.171763	-0.373463
C80	C	-0.394999	0.671763	0.126537
C81	C	-0.843997	0.258602	-0.331737
C82	C	-0.343997	0.758602	0.168263
C83	C	-0.843989	0.258596	-0.248287
C84	C	-0.343989	0.758596	0.251713
C85	C	-0.844024	0.258627	-0.668285
C86	C	-0.344024	0.758627	-0.168285
C87	C	-0.844037	0.258629	-0.751741
C88	C	-0.344037	0.758629	-0.251741
C89	C	-0.946022	0.084953	-0.751731
C90	C	-0.446022	0.584953	-0.251731
C91	C	-0.946015	0.084947	-0.668280
C92	C	-0.446015	0.584947	-0.168280
C93	C	-0.895011	0.171781	-0.626561
C94	C	-0.395011	0.671781	-0.126561
C95	C	-0.895006	0.171780	-0.536073
C96	C	-0.395006	0.671780	-0.036073
C97	C	-0.895006	0.171772	-0.463950
C98	C	-0.395006	0.671772	0.036050
N99	N	-0.895030	0.171787	0.206537
N100	N	-0.395030	0.671787	0.706537
H101	H	-0.665300	0.179069	-0.131125
H102	H	-0.165300	0.679069	0.368875
H103	H	-0.267927	0.168332	-0.131122
H104	H	0.232073	0.668332	0.368878
Br105	Br	-0.806698	-0.413211	0.157438
Br106	Br	-0.306698	0.086789	0.657438
Br107	Br	-0.289381	0.168901	0.170353
Br108	Br	0.210619	0.668901	0.670353
Br109	Br	-0.103276	0.163901	0.170348
Br110	Br	0.396724	0.663901	0.670348
H111	H	-1.026580	-0.437168	-0.000089
H112	H	-0.526580	0.062832	0.499911
Br113	Br	-1.015220	-0.032904	-0.611648
Br114	Br	-0.515220	0.467096	-0.111648
Br115	Br	-0.806669	-0.413304	-0.157485
Br116	Br	-0.306669	0.086696	0.342515
Br117	Br	-0.774772	0.376440	-0.191666
Br118	Br	-0.274772	0.876440	0.308334
Br119	Br	-1.015243	-0.032897	-0.808353
Br120	Br	-0.515243	0.467103	-0.308353
Br121	Br	-0.983277	-0.243083	0.157446
Br122	Br	-0.483277	0.256917	0.657446
Br123	Br	-1.015193	-0.032930	-0.191655
Br124	Br	-0.515193	0.467070	0.308345
H125	H	-0.987512	0.014214	-0.365701
H126	H	-0.487512	0.514214	0.134299
H127	H	-0.962585	-0.263673	-0.120762
H128	H	-0.462585	0.236327	0.379238
Br129	Br	-0.500629	0.174625	-0.170359
Br130	Br	-0.000629	0.674625	0.329641
H131	H	-0.802513	0.329348	-0.785717
H132	H	-0.302513	0.829348	-0.285717
Br133	Br	-0.774790	0.376451	-0.388368
Br134	Br	-0.274790	0.876451	0.111632
Br135	Br	-0.103250	0.163892	-0.170361
Br136	Br	0.396750	0.663892	0.329639
Br137	Br	-0.500662	0.174563	0.170346
Br138	Br	-0.000662	0.674563	0.670346
H139	H	-0.665328	0.179063	0.131114
H140	H	-0.165328	0.679063	0.631114
Br141	Br	-0.774808	0.376471	-0.611671
Br142	Br	-0.274808	0.876471	-0.111671
H143	H	-0.763510	-0.219026	-0.000072
H144	H	-0.263510	0.280974	0.499928
