data_functionalizedCrystal
_audit_creation_method	'MofGen! by Chris Wilmer'
_symmetry_space_group_name_H-M	'P1'
_symmetry_Int_Tables_number	1
_symmetry_cell_setting	triclinic
loop_
_symmetry_equiv_pos_as_xyz
  x,y,z
_cell_length_a	10.685980
_cell_length_b	12.827892
_cell_length_c	10.686551
_cell_angle_alpha	94.405282
_cell_angle_beta	98.408259
_cell_angle_gamma	94.382001
loop_
_atom_site_label
_atom_site_type_symbol
_atom_site_fract_x
_atom_site_fract_y
_atom_site_fract_z
Zn1	Zn	1.995787	-0.234228	0.866707
Zn2	Zn	1.979364	-0.423541	0.654445
Zn3	Zn	1.767214	-0.263313	0.638171
Zn4	Zn	1.783487	-0.423440	0.850356
O5	O	1.881463	-0.336130	0.752420
O6	O	2.171242	-0.247211	0.852203
O7	O	1.937538	-0.414501	0.474655
O8	O	1.797597	-0.113213	0.668519
O9	O	2.159176	-0.386299	0.696256
O10	O	1.965529	-0.091844	0.836423
O11	O	1.781672	-0.296782	0.462698
O12	O	1.591739	-0.296684	0.652664
O13	O	1.825333	-0.386126	1.030157
O14	O	1.603695	-0.414328	0.808555
O15	O	1.981309	-0.247112	1.042170
O16	O	1.953317	-0.569770	0.680401
O17	O	1.809408	-0.569695	0.824336
C18	C	1.551659	-0.358652	0.727070
C19	C	1.410569	-0.368310	0.716256
C20	C	1.881383	-0.607647	0.752390
C21	C	1.881468	-0.723793	0.752429
C22	C	1.810235	-0.775580	0.823594
C23	C	1.810321	-0.895622	0.823636
C24	C	2.212555	-0.313522	0.777869
C25	C	2.353647	-0.303887	0.788714
C26	C	1.906968	-0.313363	1.083509
C27	C	1.917837	-0.303661	1.224599
C28	C	1.881580	-0.063549	0.752480
C29	C	1.881630	0.052609	0.752505
C30	C	1.856130	-0.358729	0.422624
C31	C	1.845507	-0.368119	0.281554
H32	H	1.749179	-0.731050	0.884487
O33	O	1.761876	-0.442861	1.210835
C34	C	1.828287	-0.510649	1.139716
H35	H	1.923000	-0.468561	1.127393
H36	H	1.846084	-0.583676	1.191784
C37	C	1.632524	-0.594595	1.023475
C38	C	1.748846	-0.542899	1.008331
H39	H	1.583520	-0.614494	0.942433
H40	H	1.587780	-0.548929	1.071392
H41	H	1.647371	-0.655445	1.066870
H42	H	1.733998	-0.482044	0.964951
H43	H	1.793586	-0.588557	0.960403
O44	O	2.001746	-0.228935	1.295007
C45	C	2.066785	-0.170936	1.213725
H46	H	2.063961	-0.219866	1.119519
H47	H	2.019262	-0.095696	1.196118
C48	C	2.209311	-0.083022	1.391685
C49	C	2.205852	-0.143123	1.275983
H50	H	2.295093	-0.065861	1.430089
H51	H	2.165490	-0.122094	1.446447
H52	H	2.169702	-0.020329	1.376996
H53	H	2.245447	-0.205819	1.290674
H54	H	2.249683	-0.104061	1.221224
O55	O	1.424460	-0.229356	0.872572
C56	C	1.554290	-0.235966	0.865054
H57	H	1.569037	-0.318214	0.824674
H58	H	1.586710	-0.175987	0.800437
C59	C	1.614281	-0.112088	1.048274
C60	C	1.632395	-0.213109	0.998688
H61	H	1.662462	-0.097984	1.130703
H62	H	1.526812	-0.107631	1.053337
H63	H	1.641297	-0.062117	0.994414
H64	H	1.605364	-0.263078	1.052538
H65	H	1.719861	-0.217573	0.993637
H66	H	1.942624	-0.902862	0.691580
H67	H	1.351358	-0.430857	0.645938
O68	O	1.954336	-0.776755	0.679660
C69	C	2.020578	-0.705292	0.613508
H70	H	1.968272	-0.631361	0.604969
H71	H	2.120537	-0.683855	0.667465
C72	C	2.092812	-0.846862	0.490386
C73	C	2.028562	-0.756062	0.479888
H74	H	2.097742	-0.878179	0.407965
H75	H	2.048187	-0.895008	0.534956
H76	H	2.176105	-0.828984	0.535355
H77	H	1.945266	-0.773942	0.434934
H78	H	2.073173	-0.707920	0.435307
H79	H	1.749341	-0.940157	0.884569
