data_functionalizedCrystal
_audit_creation_method	'MofGen! by Chris Wilmer'
_symmetry_space_group_name_H-M	'P1'
_symmetry_Int_Tables_number	1
_symmetry_cell_setting	triclinic
loop_
_symmetry_equiv_pos_as_xyz
  x,y,z
_cell_length_a	19.077212
_cell_length_b	18.050590
_cell_length_c	19.076919
_cell_angle_alpha	87.733396
_cell_angle_beta	89.885058
_cell_angle_gamma	87.685598
loop_
_atom_site_label
_atom_site_type_symbol
_atom_site_fract_x
_atom_site_fract_y
_atom_site_fract_z
Zn1	Zn	1.058302	0.269597	-0.440562
Zn2	Zn	1.558302	0.769597	0.059438
Zn3	Zn	1.062946	0.388612	-0.323046
Zn4	Zn	1.562946	0.888612	0.176954
Zn5	Zn	0.945517	0.269207	-0.318338
Zn6	Zn	1.445517	0.769207	0.181662
Zn7	Zn	0.940766	0.398518	-0.435778
Zn8	Zn	1.440766	0.898518	0.064222
O9	O	1.001883	0.331483	-0.379431
O10	O	1.501883	0.831483	0.120569
O11	O	1.157252	0.281403	-0.428946
O12	O	1.657252	0.781403	0.071054
O13	O	1.051301	0.368463	-0.224091
O14	O	1.551301	0.868463	0.275909
O15	O	0.960523	0.165333	-0.334583
O16	O	1.460523	0.665333	0.165417
O17	O	1.160664	0.368842	-0.342607
O18	O	1.660664	0.868842	0.157393
O19	O	1.043386	0.165620	-0.424380
O20	O	1.543386	0.665620	0.075620
O21	O	0.965027	0.280737	-0.220632
O22	O	1.465027	0.780737	0.279368
O23	O	0.846553	0.290342	-0.329944
O24	O	1.346553	0.790342	0.170056
O25	O	0.952425	0.385726	-0.534743
O26	O	1.452425	0.885726	-0.034743
O27	O	0.843062	0.385346	-0.416227
O28	O	1.343062	0.885346	0.083773
O29	O	1.038778	0.291008	-0.538258
O30	O	1.538778	0.791008	-0.038258
O31	O	1.046694	0.493851	-0.337968
O32	O	1.546694	0.993851	0.162032
O33	O	0.956928	0.501129	-0.420792
O34	O	1.456928	1.001129	0.079208
C35	C	0.819311	0.338877	-0.372056
C36	C	1.319311	0.838877	0.127944
C37	C	0.741205	0.342059	-0.368917
C38	C	1.241205	0.842059	0.131083
C39	C	1.001818	0.524437	-0.379388
C40	C	1.501818	1.024437	0.120612
C41	C	1.001853	0.606981	-0.379396
C42	C	1.501853	1.106981	0.120604
C43	C	0.301743	0.364849	-0.346441
C44	C	0.801743	0.864849	0.153559
C45	C	0.375131	0.361855	-0.349384
C46	C	0.875131	0.861855	0.150616
C47	C	0.410048	0.314914	-0.395881
C48	C	0.910048	0.814914	0.104119
C49	C	0.371573	0.270959	-0.439433
C50	C	0.871573	0.770959	0.060567
C51	C	0.298186	0.273949	-0.436485
C52	C	0.798186	0.773949	0.063515
C53	C	0.629343	0.301094	-0.409521
C54	C	1.129343	0.801094	0.090479
C55	C	0.702735	0.298108	-0.412467
C56	C	1.202735	0.798108	0.087533
C57	C	0.706289	0.389004	-0.322417
C58	C	1.206289	0.889004	0.177583
C59	C	0.632900	0.391994	-0.319477
C60	C	1.132900	0.891994	0.180523
C61	C	0.594431	0.348035	-0.363026
C62	C	1.094431	0.848035	0.136974
N63	N	0.485063	0.311855	-0.398893
N64	N	0.985063	0.811855	0.101107
N65	N	0.519417	0.351092	-0.360010
N66	N	1.019417	0.851092	0.139990
C67	C	1.050750	0.802446	-0.334413
C68	C	1.550750	1.302446	0.165587
C69	C	1.065333	0.853911	-0.399232
C70	C	1.565333	1.353911	0.100768
C71	C	1.001883	0.758111	-0.379416
C72	C	1.501883	1.258111	0.120584
C73	C	0.987361	0.853726	-0.314619
C74	C	1.487361	1.353726	0.185381
C75	C	1.001912	0.904095	-0.379430
C76	C	1.501912	1.404095	0.120570
C77	C	1.016497	0.808489	-0.444270
C78	C	1.516497	1.308489	0.055730
C79	C	0.938497	0.808299	-0.359613
C80	C	1.438497	1.308299	0.140387
C81	C	0.953054	0.859745	-0.424475
C82	C	1.453054	1.359745	0.075525
C83	C	1.001867	0.674013	-0.379407
C84	C	1.501867	1.174013	0.120593
C85	C	1.001927	0.988192	-0.379445
C86	C	1.501927	1.488192	0.120555
C87	C	1.185167	0.324061	-0.386835
C88	C	1.685167	0.824061	0.113165
C89	C	1.263272	0.320898	-0.389990
C90	C	1.763272	0.820898	0.110010
C91	C	0.994553	0.339516	-0.562709
C92	C	1.494553	0.839516	-0.062709
C93	C	0.991430	0.342938	-0.640812
C94	C	1.491430	0.842938	-0.140812
C95	C	1.001951	1.137777	-0.379474
C96	C	1.501951	1.637777	0.120526
C97	C	1.001940	1.055230	-0.379450
C98	C	1.501940	1.555230	0.120550
C99	C	1.034920	0.295235	-0.679335
C100	C	1.534920	0.795235	-0.179335
C101	C	1.031977	0.298448	-0.752720
C102	C	1.531977	0.798448	-0.252720
C103	C	0.985547	0.349370	-0.787580
C104	C	1.485547	0.849370	-0.287580
C105	C	0.942052	0.397076	-0.749052
C106	C	1.442052	0.897076	-0.249052
C107	C	0.944992	0.393858	-0.675668
C108	C	1.444992	0.893858	-0.175668
C109	C	0.971929	0.364278	-1.006858
C110	C	1.471929	0.864278	-0.506858
C111	C	0.968994	0.367494	-1.080247
C112	C	1.468994	0.867494	-0.580247
C113	C	1.058918	0.268865	-1.083911
C114	C	1.558918	0.768865	-0.583911
C115	C	1.061857	0.265654	-1.010525
C116	C	1.561857	0.765654	-0.510525
C117	C	1.018360	0.313358	-0.972003
C118	C	1.518360	0.813358	-0.472003
N119	N	0.982539	0.352657	-0.862592
N120	N	1.482539	0.852657	-0.362592
N121	N	1.021365	0.310066	-0.896993
N122	N	1.521365	0.810066	-0.396993
C123	C	1.009224	0.323427	-0.196867
C124	C	1.509224	0.823427	0.303133
C125	C	1.012483	0.319790	-0.118771
C126	C	1.512483	0.819790	0.381229
H127	H	0.273319	0.403077	-0.308581
H128	H	0.773319	0.903077	0.191419
C129	C	1.106755	0.216391	-1.126286
C130	C	1.606755	0.716391	-0.626286
H131	H	1.098352	0.225594	-1.174984
H132	H	1.598352	0.725594	-0.674984
H133	H	1.154446	0.224818	-1.116167
H134	H	1.654446	0.724818	-0.616167
H135	H	1.096967	0.166380	-1.113858
H136	H	1.596967	0.666380	-0.613858
C137	C	0.748606	0.437347	-0.274512
C138	C	1.248606	0.937347	0.225488
H139	H	0.797314	0.428840	-0.282921
H140	H	1.297314	0.928840	0.217079
H141	H	0.736162	0.488200	-0.284218
H142	H	1.236162	0.988200	0.215782
H143	H	0.738455	0.424811	-0.226835
H144	H	1.238455	0.924811	0.273165
C145	C	1.079819	0.245977	-0.795093
C146	C	1.579819	0.745977	-0.295093
H147	H	1.107899	0.215197	-0.763822
H148	H	1.607899	0.715197	-0.263822
H149	H	1.051810	0.215959	-0.822643
H150	H	1.551810	0.715959	-0.322643
H151	H	1.109278	0.274409	-0.824950
H152	H	1.609278	0.774409	-0.324950
H153	H	0.406451	0.397643	-0.313921
H154	H	0.906451	0.897643	0.186079
H155	H	0.400008	0.232735	-0.477288
H156	H	0.900008	0.732735	0.022712
H157	H	0.884897	0.788183	-0.342834
H158	H	1.384897	1.288183	0.157166
C159	C	1.137758	0.881070	-0.421876
C160	C	1.637758	1.381070	0.078124
H161	H	1.132883	0.911952	-0.463212
H162	H	1.632883	1.411952	0.036788
H163	H	1.156888	0.908429	-0.385462
H164	H	1.656888	1.408429	0.114538
H165	H	1.168185	0.839575	-0.430935
H166	H	1.668185	1.339575	0.069065
H167	H	1.028736	0.788645	-0.499118
H168	H	1.528736	1.288645	0.000882
H169	H	0.731162	0.259878	-0.450329
H170	H	1.231162	0.759878	0.049671
C171	C	0.897243	0.893383	-0.475953
C172	C	1.397243	1.393383	0.024047
H173	H	0.907687	0.877848	-0.521951
H174	H	1.407687	1.377848	-0.021951
H175	H	0.852327	0.877077	-0.462275
H176	H	1.352327	1.377077	0.037725
H177	H	0.897299	0.945984	-0.475402
H178	H	1.397299	1.445984	0.024598
C179	C	0.970746	0.880659	-0.240586
C180	C	1.470746	1.380659	0.259414
H181	H	1.005500	0.860929	-0.208668
H182	H	1.505500	1.360929	0.291332
H183	H	0.970451	0.933319	-0.241205
H184	H	1.470451	1.433319	0.258795
H185	H	0.926040	0.864328	-0.226205
H186	H	1.426040	1.364328	0.273795
C187	C	1.085990	0.239217	-0.640995
C188	C	1.585990	0.739217	-0.140995
H189	H	1.111464	0.211261	-0.674451
H190	H	1.611464	0.711261	-0.174451
H191	H	1.117744	0.265125	-0.613596
H192	H	1.617744	0.765125	-0.113596
H193	H	1.060263	0.206690	-0.611293
H194	H	1.560263	0.706690	-0.111293
C195	C	0.917914	0.423503	-1.118596
C196	C	1.417914	0.923503	-0.618596
H197	H	0.922400	0.418590	-1.167818
H198	H	1.422400	0.918590	-0.667818
H199	H	0.871187	0.414014	-1.104665
H200	H	1.371187	0.914014	-0.604665
H201	H	0.928656	0.472463	-1.106970
H202	H	1.428656	0.972463	-0.606970
C203	C	0.897155	0.446331	-0.633289
C204	C	1.397155	0.946331	-0.133289
H205	H	0.905550	0.437117	-0.584591
H206	H	1.405550	0.937117	-0.084591
H207	H	0.906932	0.496341	-0.645713
H208	H	1.406932	0.996341	-0.145713
H209	H	0.849463	0.437894	-0.643409
H210	H	1.349463	0.937894	-0.143409
H211	H	0.266864	0.238157	-0.471945
H212	H	0.766864	0.738157	0.028055
C213	C	0.924070	0.416735	-0.964492
C214	C	1.424070	0.916735	-0.464492
H215	H	0.895998	0.447521	-0.995766
H216	H	1.395998	0.947521	-0.495766
H217	H	0.894615	0.388294	-0.934646
H218	H	1.394615	0.888294	-0.434646
H219	H	0.952068	0.446760	-0.936932
H220	H	1.452068	0.946760	-0.436932
C221	C	0.594496	0.443623	-0.268325
C222	C	1.094496	0.943623	0.231675
H223	H	0.627919	0.469364	-0.242804
H224	H	1.127919	0.969364	0.257196
H225	H	0.564792	0.478368	-0.293992
H226	H	1.064792	0.978368	0.206008
H227	H	0.567092	0.414980	-0.236609
H228	H	1.067092	0.914980	0.263391
H229	H	0.904245	0.438535	-0.777441
H230	H	1.404245	0.938535	-0.277441
H231	H	0.598030	0.265304	-0.444985
H232	H	1.098030	0.765304	0.055015
H233	H	1.092092	0.777417	-0.296401
H234	H	1.592092	1.277417	0.203599
C235	C	1.112930	0.209641	-0.972184
C236	C	1.612930	0.709641	-0.472184
H237	H	1.138407	0.181687	-1.005638
H238	H	1.638407	0.681687	-0.505638
H239	H	1.144680	0.235558	-0.944788
H240	H	1.644680	0.735558	-0.444788
H241	H	1.087209	0.177112	-0.942479
H242	H	1.587209	0.677112	-0.442479
