data_functionalizedCrystal
_audit_creation_method	'MofGen! by Chris Wilmer'
_symmetry_space_group_name_H-M	'P1'
_symmetry_Int_Tables_number	1
_symmetry_cell_setting	triclinic
loop_
_symmetry_equiv_pos_as_xyz
  x,y,z
_cell_length_a	15.944551
_cell_length_b	15.944551
_cell_length_c	8.140239
_cell_angle_alpha	89.995530
_cell_angle_beta	90.001769
_cell_angle_gamma	83.498738
loop_
_atom_site_label
_atom_site_type_symbol
_atom_site_fract_x
_atom_site_fract_y
_atom_site_fract_z
O1	O	1.114522	0.108331	-0.136446
O2	O	0.869972	0.121687	-0.136487
O3	O	0.998925	-0.007266	-0.136450
O4	O	0.985569	0.237284	-0.136482
O5	O	0.998918	-0.007267	0.136777
O6	O	0.869965	0.121686	0.136740
O7	O	1.114515	0.108329	0.136781
Zn8	Zn	0.992239	0.115007	0.180141
Zn9	Zn	0.992248	0.115009	-0.179847
O10	O	0.985562	0.237282	0.136745
C11	C	0.838675	0.121132	0.000121
C12	C	0.745429	0.119470	0.000106
C13	C	0.998367	-0.038561	0.000163
C14	C	0.996705	-0.131807	0.000164
C15	C	0.530572	0.035565	0.000149
C16	C	0.469556	0.074528	-0.134572
C17	C	0.574703	0.116462	0.000126
C18	C	0.469571	0.074546	0.134809
C19	C	0.409790	0.113551	0.000152
C20	C	0.514915	0.155448	-0.134706
C21	C	0.514936	0.155454	0.134796
C22	C	0.453937	0.194476	0.000042
C23	C	0.669705	0.118137	0.000109
C24	C	0.314789	0.111883	0.000157
C25	C	0.912801	-0.346663	0.000127
C26	C	0.951760	-0.407681	0.134851
C27	C	0.993698	-0.302533	0.000151
C28	C	0.951786	-0.407663	-0.134529
C29	C	0.990787	-0.467445	0.000131
C30	C	1.032679	-0.362322	0.134986
C31	C	1.032694	-0.362298	-0.134515
C32	C	1.071711	-0.423298	0.000242
C33	C	0.995372	-0.207530	0.000164
C34	C	0.989119	-0.562446	0.000130
C35	C	1.145813	0.108885	0.000169
C36	C	1.239059	0.110547	0.000174
C37	C	0.986120	0.268577	0.000127
C38	C	0.987782	0.361823	0.000116
N39	N	0.992239	0.115005	0.425824
N40	N	0.992255	0.115004	-0.425530
H41	H	0.563905	-0.031573	-0.000009
H42	H	1.066884	-0.342167	-0.248408
H43	H	0.449482	0.040314	0.248701
H44	H	1.066863	-0.342332	0.249010
H45	H	0.845652	-0.313356	0.000250
H46	H	1.138919	-0.456457	0.000329
H47	H	0.534905	0.189639	-0.248726
H48	H	0.449448	0.040313	-0.248460
H49	H	0.420779	0.261683	-0.000042
H50	H	0.917540	-0.427790	0.248738
H51	H	0.535065	0.189641	0.248689
H52	H	0.917562	-0.427740	-0.248436
