data_functionalizedCrystal
_audit_creation_method	'MofGen! by Chris Wilmer'
_symmetry_space_group_name_H-M	'P1'
_symmetry_Int_Tables_number	1
_symmetry_cell_setting	triclinic
loop_
_symmetry_equiv_pos_as_xyz
  x,y,z
_cell_length_a	12.811438
_cell_length_b	11.792241
_cell_length_c	11.295483
_cell_angle_alpha	94.123059
_cell_angle_beta	80.460799
_cell_angle_gamma	84.117944
loop_
_atom_site_label
_atom_site_type_symbol
_atom_site_fract_x
_atom_site_fract_y
_atom_site_fract_z
O1	O	1.411389	0.133557	-0.251431
O2	O	1.103540	0.152734	-0.218191
O3	O	1.264935	-0.022101	-0.235610
O4	O	1.249995	0.308391	-0.234013
O5	O	1.250759	-0.006768	-0.036029
O6	O	1.089364	0.168066	-0.018611
O7	O	1.397214	0.148889	-0.051851
Cu8	Cu	1.241995	0.159878	-0.017008
Cu9	Cu	1.258759	0.141745	-0.253035
O10	O	1.235819	0.323724	-0.034433
C11	C	1.057041	0.159795	-0.114146
C12	C	0.939607	0.157980	-0.101465
C13	C	0.766363	0.163779	0.025191
C14	C	0.876702	0.165486	0.013282
C15	C	0.892166	0.148770	-0.204312
C16	C	0.781827	0.147064	-0.192404
C17	C	0.718929	0.154567	-0.077648
C18	C	0.608589	0.152852	-0.065741
C19	C	0.624053	0.136144	-0.283334
C20	C	0.734393	0.137851	-0.295243
C21	C	1.256908	-0.056716	-0.135718
C22	C	1.254099	-0.182701	-0.135416
C23	C	1.248935	-0.413362	-0.134879
C24	C	1.251805	-0.285006	-0.135178
C25	C	1.443713	0.141827	-0.155899
C26	C	1.561147	0.143642	-0.168587
C27	C	1.243845	0.358339	-0.134327
C28	C	1.246655	0.484323	-0.134637
N29	N	1.230211	0.172630	0.149001
N30	N	1.270551	0.128983	-0.419044
C31	C	1.355375	0.037119	0.384782
C32	C	1.346478	0.046764	0.510406
C33	C	1.203515	0.201560	0.525875
C34	C	1.212412	0.191915	0.400251
C35	C	1.288346	0.109693	0.329709
C36	C	1.297247	0.100054	0.204082
C37	C	1.154280	0.254843	0.219554
C38	C	1.145383	0.264489	0.345178
H39	H	0.557378	0.158969	0.027699
Cl40	Cl	0.564412	0.124600	-0.412625
H41	H	1.359079	0.033107	0.146647
H42	H	1.083556	0.331430	0.402628
Cl43	Cl	1.070018	0.346089	0.150307
Cl44	Cl	1.450843	-0.066232	0.296097
H45	H	0.715150	0.169895	0.118630
H46	H	0.915317	0.172991	0.097025
H47	H	0.785618	0.131747	-0.388673
H48	H	0.943394	0.142672	-0.297741
Cl49	Cl	1.108050	0.304907	0.614570
Cl50	Cl	1.430745	-0.044478	0.579637
