data_functionalizedCrystal
_audit_creation_method	'MofGen! by Chris Wilmer'
_symmetry_space_group_name_H-M	'P1'
_symmetry_Int_Tables_number	1
_symmetry_cell_setting	triclinic
loop_
_symmetry_equiv_pos_as_xyz
  x,y,z
_cell_length_a	10.685904
_cell_length_b	12.759400
_cell_length_c	12.759393
_cell_angle_alpha	90.031564
_cell_angle_beta	85.604324
_cell_angle_gamma	85.618346
loop_
_atom_site_label
_atom_site_type_symbol
_atom_site_fract_x
_atom_site_fract_y
_atom_site_fract_z
Zn1	Zn	1.929270	0.295105	-0.717368
Zn2	Zn	1.929143	0.470832	-0.541680
Zn3	Zn	1.718240	0.308625	-0.528211
Zn4	Zn	1.718226	0.484209	-0.703832
O5	O	1.823720	0.389693	-0.622773
O6	O	2.105840	0.307160	-0.705364
O7	O	1.901119	0.449375	-0.392869
O8	O	1.746292	0.159806	-0.553331
O9	O	2.105747	0.436265	-0.576287
O10	O	1.901335	0.149874	-0.692304
O11	O	1.746169	0.330202	-0.382973
O12	O	1.541651	0.343172	-0.540206
O13	O	1.746269	0.459064	-0.852652
O14	O	1.541641	0.472173	-0.669234
O15	O	1.901322	0.320130	-0.862596
O16	O	1.901106	0.619631	-0.563162
O17	O	1.746146	0.629459	-0.682294
C18	C	1.495859	0.410592	-0.601790
C19	C	1.355599	0.419558	-0.592839
C20	C	1.823645	0.662665	-0.622746
C21	C	1.823728	0.779436	-0.622777
C22	C	1.823808	0.389581	-0.896812
C23	C	1.823846	0.389533	-1.013591
C24	C	2.152861	0.368712	-0.643838
C25	C	2.293121	0.359772	-0.652814
C26	C	1.823829	0.115652	-0.622825
C27	C	1.823876	-0.001127	-0.622847
C28	C	1.904506	0.829140	-0.560825
C29	C	1.904583	0.938859	-0.560862
C30	C	1.743095	0.949161	-0.684806
C31	C	1.743025	0.839443	-0.684774
C32	C	1.997736	0.823194	-0.489263
C33	C	1.997813	0.932913	-0.489300
C34	C	1.904593	0.317184	-1.073634
C35	C	1.904623	0.317144	-1.183360
C36	C	1.743155	0.461813	-1.172991
C37	C	1.743120	0.461847	-1.063266
C38	C	1.997820	0.233663	-1.079621
C39	C	1.997850	0.233623	-1.189347
C40	C	1.823704	0.389723	-0.349804
C41	C	1.823911	0.389459	-0.233041
H42	H	1.677391	0.998032	-0.735283
H43	H	1.971704	0.964441	-0.406250
H44	H	1.677262	0.798975	-0.735231
H45	H	2.090631	0.256910	-1.051521
O46	O	2.127304	0.254231	-1.237078
H47	H	2.127249	0.254172	-1.324065
O48	O	2.127142	0.775371	-0.526487
H49	H	2.190551	0.838971	-0.544748
H50	H	1.962881	0.158545	-1.221159
O51	O	1.656085	0.539803	-1.226569
H52	H	1.712548	0.589650	-1.280158
H53	H	1.346940	0.301721	-0.711008
O54	O	1.284333	0.496446	-0.515747
H55	H	1.181656	0.491662	-0.520583
H56	H	2.090663	0.960933	-0.524450
H57	H	1.971673	0.153967	-1.048193
H58	H	1.962753	0.791478	-0.409700
H59	H	1.677363	0.520757	-1.014383
