data_functionalizedCrystal
_audit_creation_method	'MofGen! by Chris Wilmer'
_symmetry_space_group_name_H-M	'P1'
_symmetry_Int_Tables_number	1
_symmetry_cell_setting	triclinic
loop_
_symmetry_equiv_pos_as_xyz
  x,y,z
_cell_length_a	14.971482
_cell_length_b	26.210047
_cell_length_c	14.971486
_cell_angle_alpha	90.004299
_cell_angle_beta	96.386632
_cell_angle_gamma	90.008491
loop_
_atom_site_label
_atom_site_type_symbol
_atom_site_fract_x
_atom_site_fract_y
_atom_site_fract_z
O1	O	1.186954	0.042423	-0.116534
O2	O	0.926553	0.042425	-0.130496
O3	O	1.063733	0.042420	0.006685
O4	O	1.049774	0.042428	-0.253715
O5	O	1.063707	-0.042438	0.006664
O6	O	0.926527	-0.042433	-0.130518
O7	O	1.186928	-0.042435	-0.116555
Cu8	Cu	1.056725	-0.050182	-0.123538
Cu9	Cu	1.056756	0.050172	-0.123513
O10	O	1.049748	-0.042430	-0.253737
C11	C	0.893215	-0.000004	-0.129883
C12	C	0.793918	-0.000003	-0.128014
N13	N	1.056709	-0.120766	-0.123556
C14	C	0.747259	-0.046259	-0.127145
C15	C	0.653961	-0.046260	-0.125374
C16	C	0.607322	-0.000003	-0.124479
C17	C	0.653988	0.046257	-0.125345
C18	C	0.747286	0.046257	-0.127109
C19	C	0.459526	0.046254	-0.121670
C20	C	0.366222	0.046254	-0.119907
C21	C	0.366201	-0.046263	-0.119934
C22	C	0.459499	-0.046263	-0.121699
C23	C	0.506158	-0.000003	-0.122567
C24	C	1.117493	-0.473283	-0.062783
C25	C	1.117513	-0.686941	-0.062771
O26	O	1.169159	-0.714565	-0.011103
N27	N	1.056761	-0.713660	-0.123494
C28	C	0.995996	-0.686961	-0.184220
O29	O	0.944317	-0.714590	-0.235862
C30	C	0.995973	-0.473304	-0.184227
C31	C	1.056735	-0.446587	-0.123507
C32	C	1.178250	-0.446566	-0.002067
C33	C	1.178247	-0.393155	-0.002074
C34	C	1.117489	-0.366460	-0.062797
C35	C	1.056732	-0.393176	-0.123514
C36	C	0.935204	-0.446606	-0.244949
C37	C	0.935202	-0.393188	-0.244944
C38	C	0.995964	-0.366472	-0.184223
C39	C	0.995971	-0.313069	-0.184244
N40	N	1.056723	-0.286350	-0.123521
C41	C	1.117482	-0.313045	-0.062798
C42	C	0.996013	-0.799135	-0.184213
C43	C	0.996020	-0.852549	-0.184212
C44	C	1.117536	-0.852525	-0.062762
C45	C	1.117533	-0.799110	-0.062767
C46	C	1.056765	-0.772416	-0.123490
C47	C	1.117473	-0.200878	-0.062817
C48	C	1.117468	-0.147461	-0.062832
C49	C	0.995949	-0.147490	-0.184279
C50	C	0.995957	-0.200901	-0.184268
C51	C	1.056722	-0.227594	-0.123530
O52	O	0.944346	-0.285413	-0.235877
O53	O	1.169140	-0.285408	-0.011150
C54	C	1.117495	-0.526694	-0.062776
C55	C	1.056739	-0.553410	-0.123493
C56	C	0.995980	-0.526715	-0.184216
C57	C	1.056746	-0.606825	-0.123492
C58	C	1.117504	-0.633520	-0.062769
C59	C	1.178256	-0.606801	-0.002046
C60	C	1.178254	-0.553389	-0.002053
C61	C	0.935229	-0.553434	-0.244939
C62	C	0.935236	-0.606846	-0.244928
C63	C	0.995995	-0.633541	-0.184204
C64	C	1.220266	-0.000006	-0.117168
C65	C	1.319563	-0.000003	-0.119038
C66	C	1.063096	-0.000009	0.039999
C67	C	1.061225	-0.000008	0.139296
N68	N	1.056779	0.120756	-0.123489
C69	C	1.050385	-0.000000	-0.287051
C70	C	1.052256	0.000002	-0.386348
C71	C	1.141814	-0.000009	0.196522
C72	C	1.140051	-0.000004	0.289822
C73	C	1.057698	-0.000002	0.325893
C74	C	0.977102	0.000001	0.268659
C75	C	0.978866	-0.000000	0.175362
C76	C	0.973431	0.000003	0.463122
C77	C	0.971667	0.000004	0.556426
C78	C	1.134616	-0.000001	0.577582
C79	C	1.136380	-0.000002	0.484284
C80	C	1.055784	-0.000001	0.427057
H81	H	0.785225	-0.083927	-0.127882
H82	H	0.907801	0.000006	0.416529
H83	H	0.497513	0.083924	-0.122376
H84	H	0.946488	-0.222654	-0.233721
C85	C	0.602637	-0.097146	-0.124439
N86	N	0.563980	-0.135476	-0.123742
C87	C	0.314922	0.097138	-0.118918
N88	N	0.276283	0.135465	-0.118172
C89	C	0.886512	-0.000000	0.308341
N90	N	0.818278	-0.000005	0.338228
H91	H	0.328207	-0.083930	-0.119228
H92	H	0.616008	0.083920	-0.124609
H93	H	0.913242	0.000001	0.128768
C94	C	0.868388	-0.636228	-0.311729
N95	N	0.818032	-0.658356	-0.362037
H96	H	0.904607	-0.000002	0.585792
C97	C	1.223273	0.000001	0.640534
N98	N	1.290046	0.000002	0.687953
H99	H	1.227732	-0.531640	0.047392
H100	H	1.203439	-0.000008	0.454919
C101	C	0.798610	0.097143	-0.128067
N102	N	0.837266	0.135472	-0.128786
H103	H	0.497469	-0.083930	-0.122434
H104	H	1.166951	-0.125711	-0.013386
H105	H	0.885726	-0.468351	-0.294392
H106	H	1.166953	-0.222605	-0.013358
H107	H	1.227722	-0.371405	0.047373
C108	C	1.245088	-0.475922	0.064747
N109	N	1.295437	-0.498030	0.115074
C110	C	1.184369	-0.769727	0.004035
N111	N	1.234711	-0.747598	0.054357
H112	H	1.167010	-0.874269	-0.013319
C113	C	0.929115	-0.118115	-0.251069
N114	N	0.878770	-0.095988	-0.301370
H115	H	0.946552	-0.874298	-0.233666
C116	C	0.929227	-0.769778	-0.251085
N117	N	0.878949	-0.747669	-0.301480
C118	C	0.868360	-0.363828	-0.311755
N119	N	0.818019	-0.341715	-0.362082
C120	C	1.245089	-0.636175	0.064753
N121	N	1.295420	-0.658303	0.115066
H122	H	0.885750	-0.531703	-0.294386
H123	H	1.208876	-0.000015	0.167161
H124	H	1.205675	-0.000006	0.336413
