data_functionalizedCrystal
_audit_creation_method	'MofGen! by Chris Wilmer'
_symmetry_space_group_name_H-M	'P1'
_symmetry_Int_Tables_number	1
_symmetry_cell_setting	triclinic
loop_
_symmetry_equiv_pos_as_xyz
  x,y,z
_cell_length_a	14.519709
_cell_length_b	26.210047
_cell_length_c	27.731996
_cell_angle_alpha	90.010646
_cell_angle_beta	83.150767
_cell_angle_gamma	90.010823
loop_
_atom_site_label
_atom_site_type_symbol
_atom_site_fract_x
_atom_site_fract_y
_atom_site_fract_z
O1	O	1.222759	0.042370	0.063362
O2	O	1.472759	0.292370	0.313362
O3	O	1.722759	0.542370	0.563362
O4	O	1.972759	0.792370	0.813362
O5	O	0.954149	0.042386	0.070824
O6	O	1.204149	0.292386	0.320824
O7	O	1.454149	0.542386	0.570824
O8	O	1.704149	0.792386	0.820824
O9	O	1.096821	0.042366	-0.003266
O10	O	1.346821	0.292366	0.246734
O11	O	1.596821	0.542366	0.496734
O12	O	1.846821	0.792366	0.746734
O13	O	1.080087	0.042389	0.137451
O14	O	1.330087	0.292389	0.387451
O15	O	1.580087	0.542389	0.637451
O16	O	1.830087	0.792389	0.887451
O17	O	1.096777	-0.042492	-0.003266
O18	O	1.346777	0.207508	0.246734
O19	O	1.596777	0.457508	0.496734
O20	O	1.846777	0.707508	0.746734
O21	O	0.954105	-0.042472	0.070823
O22	O	1.204105	0.207528	0.320823
O23	O	1.454105	0.457528	0.570823
O24	O	1.704105	0.707528	0.820823
O25	O	1.222714	-0.042489	0.063362
O26	O	1.472714	0.207511	0.313362
O27	O	1.722714	0.457511	0.563362
O28	O	1.972714	0.707511	0.813362
Cu29	Cu	1.088405	-0.050229	0.067092
Cu30	Cu	1.338405	0.199771	0.317092
Cu31	Cu	1.588405	0.449771	0.567092
Cu32	Cu	1.838405	0.699771	0.817092
Cu33	Cu	1.088458	0.050126	0.067093
Cu34	Cu	1.338458	0.300126	0.317093
Cu35	Cu	1.588458	0.550126	0.567093
Cu36	Cu	1.838458	0.800126	0.817093
O37	O	1.080042	-0.042469	0.137451
O38	O	1.330042	0.207531	0.387451
O39	O	1.580042	0.457531	0.637451
O40	O	1.830042	0.707531	0.887451
C41	C	0.919773	-0.000041	0.070476
C42	C	1.169773	0.249959	0.320476
C43	C	1.419773	0.499959	0.570476
C44	C	1.669773	0.749959	0.820476
C45	C	0.817411	-0.000035	0.069434
C46	C	1.067411	0.249965	0.319434
C47	C	1.317411	0.499965	0.569434
C48	C	1.567411	0.749965	0.819434
C49	C	0.442583	-0.000059	0.065597
C50	C	0.692583	0.249941	0.315597
C51	C	0.942583	0.499941	0.565597
C52	C	1.192583	0.749941	0.815597
C53	C	0.546872	-0.000052	0.066663
C54	C	0.796872	0.249948	0.316663
C55	C	1.046872	0.499948	0.566663
C56	C	1.296872	0.749948	0.816663
C57	C	0.629994	-0.000047	0.067515
C58	C	0.879994	0.249953	0.317515
C59	C	1.129994	0.499953	0.567515
C60	C	1.379994	0.749953	0.817515
C61	C	0.734289	-0.000041	0.068581
C62	C	0.984289	0.249959	0.318581
C63	C	1.234289	0.499959	0.568581
C64	C	1.484289	0.749959	0.818581
N65	N	1.088375	-0.120812	0.067092
N66	N	1.338375	0.129188	0.317092
N67	N	1.588375	0.379188	0.567092
N68	N	1.838375	0.629188	0.817092
C69	C	1.143949	-0.473325	0.096469
C70	C	1.393949	-0.223325	0.346469
C71	C	1.643949	0.026675	0.596469
C72	C	1.893949	0.276675	0.846469
C73	C	1.143977	-0.686984	0.096469
C74	C	1.393977	-0.436984	0.346469
C75	C	1.643977	-0.186984	0.596469
C76	C	1.893977	0.063016	0.846469
O77	O	1.191207	-0.714604	0.121441
O78	O	1.441207	-0.464604	0.371441
O79	O	1.691207	-0.214604	0.621441
O80	O	1.941207	0.035396	0.871441
N81	N	1.088480	-0.713706	0.067088
N82	N	1.338480	-0.463706	0.317088
N83	N	1.588480	-0.213706	0.567088
N84	N	1.838480	0.036294	0.817088
C85	C	1.032977	-0.687011	0.037702
C86	C	1.282977	-0.437011	0.287702
C87	C	1.532977	-0.187011	0.537702
C88	C	1.782977	0.062989	0.787702
O89	O	0.985782	-0.714643	0.012708
O90	O	1.235782	-0.464643	0.262708
O91	O	1.485782	-0.214643	0.512708
O92	O	1.735782	0.035357	0.762708
C93	C	1.032955	-0.473353	0.037700
C94	C	1.282955	-0.223353	0.287700
C95	C	1.532955	0.026647	0.537700
C96	C	1.782955	0.276647	0.787700
C97	C	1.088449	-0.446634	0.067087
C98	C	1.338449	-0.196634	0.317087
C99	C	1.588449	0.053366	0.567087
C100	C	1.838449	0.303366	0.817087
C101	C	1.199439	-0.446605	0.125854
C102	C	1.449439	-0.196605	0.375854
C103	C	1.699439	0.053395	0.625854
C104	C	1.949439	0.303395	0.875854
C105	C	1.199428	-0.393194	0.125855
C106	C	1.449428	-0.143194	0.375855
C107	C	1.699428	0.106806	0.625855
C108	C	1.949428	0.356806	0.875855
C109	C	1.143927	-0.366502	0.096473
C110	C	1.393927	-0.116502	0.346473
C111	C	1.643927	0.133498	0.596473
C112	C	1.893927	0.383498	0.846473
C113	C	1.088438	-0.393222	0.067089
C114	C	1.338438	-0.143222	0.317089
C115	C	1.588438	0.106778	0.567089
C116	C	1.838438	0.356778	0.817089
C117	C	0.977458	-0.446659	0.008312
C118	C	1.227458	-0.196659	0.258312
C119	C	1.477458	0.053341	0.508312
C120	C	1.727458	0.303341	0.758312
C121	C	0.977459	-0.393241	0.008314
C122	C	1.227459	-0.143241	0.258314
C123	C	1.477459	0.106759	0.508314
C124	C	1.727459	0.356759	0.758314
C125	C	1.032953	-0.366522	0.037700
C126	C	1.282953	-0.116522	0.287700
C127	C	1.532953	0.133478	0.537700
C128	C	1.782953	0.383478	0.787700
C129	C	1.032926	-0.313119	0.037708
C130	C	1.282926	-0.063119	0.287708
C131	C	1.532926	0.186881	0.537708
C132	C	1.782926	0.436881	0.787708
N133	N	1.088422	-0.286397	0.067090
N134	N	1.338422	-0.036397	0.317090
N135	N	1.588422	0.213603	0.567090
N136	N	1.838422	0.463603	0.817090
C137	C	1.143923	-0.313088	0.096472
C138	C	1.393923	-0.063088	0.346472
C139	C	1.643923	0.186912	0.596472
C140	C	1.893923	0.436912	0.846472
C141	C	1.032991	-0.799184	0.037706
C142	C	1.282991	-0.549184	0.287706
C143	C	1.532991	-0.299184	0.537706
C144	C	1.782991	-0.049184	0.787706
C145	C	1.032995	-0.852599	0.037707
C146	C	1.282995	-0.602599	0.287707
C147	C	1.532995	-0.352599	0.537707
C148	C	1.782995	-0.102599	0.787707
C149	C	1.143996	-0.852567	0.096473
C150	C	1.393996	-0.602567	0.346473
C151	C	1.643996	-0.352567	0.596473
C152	C	1.893996	-0.102567	0.846473
C153	C	1.143987	-0.799152	0.096475
C154	C	1.393987	-0.549152	0.346475
C155	C	1.643987	-0.299152	0.596475
C156	C	1.893987	-0.049152	0.846475
C157	C	1.088488	-0.772462	0.067087
C158	C	1.338488	-0.522462	0.317087
C159	C	1.588488	-0.272462	0.567087
C160	C	1.838488	-0.022462	0.817087
C161	C	1.143895	-0.200920	0.096474
C162	C	1.393895	0.049080	0.346474
C163	C	1.643895	0.299080	0.596474
C164	C	1.893895	0.549080	0.846474
C165	C	1.143876	-0.147504	0.096474
C166	C	1.393876	0.102496	0.346474
C167	C	1.643876	0.352496	0.596474
C168	C	1.893876	0.602496	0.846474
C169	C	1.032879	-0.147540	0.037706
C170	C	1.282879	0.102460	0.287706
C171	C	1.532879	0.352460	0.537706
C172	C	1.782879	0.602460	0.787706
C173	C	1.032894	-0.200951	0.037707
C174	C	1.282894	0.049049	0.287707
C175	C	1.532894	0.299049	0.537707
C176	C	1.782894	0.549049	0.787707
C177	C	1.088409	-0.227640	0.067092
C178	C	1.338409	0.022360	0.317092
C179	C	1.588409	0.272360	0.567092
C180	C	1.838409	0.522360	0.817092
O181	O	0.985728	-0.285466	0.012745
O182	O	1.235728	-0.035466	0.262745
O183	O	1.485728	0.214534	0.512745
O184	O	1.735728	0.464534	0.762745
O185	O	1.191127	-0.285447	0.121455
O186	O	1.441127	-0.035447	0.371455
O187	O	1.691127	0.214553	0.621455
O188	O	1.941127	0.464553	0.871455
C189	C	1.143961	-0.526737	0.096468
C190	C	1.393961	-0.276737	0.346468
C191	C	1.643961	-0.026737	0.596468
C192	C	1.893961	0.223263	0.846468
C193	C	1.088471	-0.553456	0.067084
C194	C	1.338471	-0.303456	0.317084
C195	C	1.588471	-0.053456	0.567084
C196	C	1.838471	0.196544	0.817084
C197	C	1.032970	-0.526765	0.037701
C198	C	1.282970	-0.276765	0.287701
C199	C	1.532970	-0.026765	0.537701
C200	C	1.782970	0.223235	0.787701
C201	C	1.088475	-0.606871	0.067085
C202	C	1.338475	-0.356871	0.317085
C203	C	1.588475	-0.106871	0.567085
C204	C	1.838475	0.143129	0.817085
C205	C	1.143976	-0.633562	0.096467
C206	C	1.393976	-0.383562	0.346467
C207	C	1.643976	-0.133562	0.596467
C208	C	1.893976	0.116438	0.846467
C209	C	1.199473	-0.606839	0.125848
C210	C	1.449473	-0.356839	0.375848
C211	C	1.699473	-0.106839	0.625848
C212	C	1.949473	0.143161	0.875848
C213	C	1.199461	-0.553428	0.125850
C214	C	1.449461	-0.303428	0.375850
C215	C	1.699461	-0.053428	0.625850
C216	C	1.949461	0.196572	0.875850
C217	C	0.977474	-0.553488	0.008320
C218	C	1.227474	-0.303488	0.258320
C219	C	1.477474	-0.053488	0.508320
C220	C	1.727474	0.196512	0.758320
C221	C	0.977489	-0.606899	0.008321
C222	C	1.227489	-0.356899	0.258321
C223	C	1.477489	-0.106899	0.508321
C224	C	1.727489	0.143101	0.758321
C225	C	1.032989	-0.633591	0.037703
C226	C	1.282989	-0.383591	0.287703
C227	C	1.532989	-0.133591	0.537703
C228	C	1.782989	0.116409	0.787703
C229	C	1.257090	-0.000060	0.063709
C230	C	1.507090	0.249940	0.313709
C231	C	1.757090	0.499940	0.563709
C232	C	2.007090	0.749940	0.813709
C233	C	1.359453	-0.000063	0.064752
C234	C	1.609453	0.249937	0.314752
C235	C	1.859453	0.499937	0.564752
C236	C	2.109453	0.749937	0.814752
C237	C	1.096455	-0.000065	-0.021275
C238	C	1.346455	0.249935	0.228725
C239	C	1.596455	0.499935	0.478725
C240	C	1.846455	0.749935	0.728725
C241	C	1.095420	-0.000070	-0.074936
C242	C	1.345420	0.249930	0.175064
C243	C	1.595420	0.499930	0.425064
C244	C	1.845420	0.749930	0.675064
N245	N	1.088496	0.120710	0.067089
N246	N	1.338496	0.370710	0.317089
N247	N	1.588496	0.620710	0.567089
N248	N	1.838496	0.870710	0.817089
C249	C	1.088930	0.046212	-0.407683
C250	C	1.338930	0.296212	-0.157683
C251	C	1.588930	0.546212	0.092317
C252	C	1.838930	0.796212	0.342317
C253	C	1.084998	0.046221	-0.609361
C254	C	1.334998	0.296221	-0.359361
C255	C	1.584998	0.546221	-0.109361
C256	C	1.834998	0.796221	0.140639
O257	O	1.084470	0.085560	-0.635434
O258	O	1.334470	0.335560	-0.385434
O259	O	1.584470	0.585560	-0.135434
O260	O	1.834470	0.835560	0.114566
N261	N	1.084485	-0.000035	-0.634580
N262	N	1.334485	0.249965	-0.384580
N263	N	1.584485	0.499965	-0.134580
N264	N	1.834485	0.749965	0.115420
C265	C	1.084949	-0.046296	-0.609377
C266	C	1.334949	0.203704	-0.359377
C267	C	1.584949	0.453704	-0.109377
C268	C	1.834949	0.703704	0.140623
O269	O	1.084413	-0.085639	-0.635455
O270	O	1.334413	0.164361	-0.385455
O271	O	1.584413	0.414361	-0.135455
O272	O	1.834413	0.664361	0.114545
C273	C	1.088875	-0.046305	-0.407700
C274	C	1.338875	0.203695	-0.157700
C275	C	1.588875	0.453695	0.092300
C276	C	1.838875	0.703695	0.342300
C277	C	1.089397	-0.000046	-0.382484
C278	C	1.339397	0.249954	-0.132484
C279	C	1.589397	0.499954	0.117516
C280	C	1.839397	0.749954	0.367516
C281	C	1.089451	0.092467	-0.382467
C282	C	1.339451	0.342467	-0.132467
C283	C	1.589451	0.592467	0.117533
C284	C	1.839451	0.842467	0.367533
C285	C	1.090439	0.092464	-0.332051
C286	C	1.340439	0.342464	-0.082051
C287	C	1.590439	0.592464	0.167949
C288	C	1.840439	0.842464	0.417949
C289	C	1.090906	0.046206	-0.306852
C290	C	1.340906	0.296206	-0.056852
C291	C	1.590906	0.546206	0.193148
C292	C	1.840906	0.796206	0.443148
C293	C	1.090385	-0.000049	-0.332068
C294	C	1.340385	0.249951	-0.082068
C295	C	1.590385	0.499951	0.167932
C296	C	1.840385	0.749951	0.417932
C297	C	1.089332	-0.092565	-0.382498
C298	C	1.339332	0.157435	-0.132498
C299	C	1.589332	0.407435	0.117502
C300	C	1.839332	0.657435	0.367502
C301	C	1.090311	-0.092563	-0.332075
C302	C	1.340311	0.157437	-0.082075
C303	C	1.590311	0.407437	0.167925
C304	C	1.840311	0.657437	0.417925
C305	C	1.090833	-0.046305	-0.306859
C306	C	1.340833	0.203695	-0.056859
C307	C	1.590833	0.453695	0.193141
C308	C	1.840833	0.703695	0.443141
C309	C	1.091840	-0.046309	-0.256453
C310	C	1.341840	0.203691	-0.006453
C311	C	1.591840	0.453691	0.243547
C312	C	1.841840	0.703691	0.493547
N313	N	1.092352	-0.000053	-0.231233
N314	N	1.342352	0.249947	0.018767
N315	N	1.592352	0.499947	0.268767
N316	N	1.842352	0.749947	0.518767
C317	C	1.091885	0.046204	-0.256433
C318	C	1.341885	0.296204	-0.006433
C319	C	1.591885	0.546204	0.243567
C320	C	1.841885	0.796204	0.493567
C321	C	1.082890	-0.046288	-0.715260
C322	C	1.332890	0.203712	-0.465260
C323	C	1.582890	0.453712	-0.215260
C324	C	1.832890	0.703712	0.034740
C325	C	1.081911	-0.046286	-0.765679
C326	C	1.331911	0.203714	-0.515679
C327	C	1.581911	0.453714	-0.265679
C328	C	1.831911	0.703714	-0.015679
C329	C	1.081957	0.046231	-0.765659
C330	C	1.331957	0.296231	-0.515659
C331	C	1.581957	0.546231	-0.265659
C332	C	1.831957	0.796231	-0.015659
C333	C	1.082944	0.046228	-0.715240
C334	C	1.332944	0.296228	-0.465240
C335	C	1.582944	0.546228	-0.215240
C336	C	1.832944	0.796228	0.034760
C337	C	1.083403	-0.000032	-0.690041
C338	C	1.333403	0.249968	-0.440041
C339	C	1.583403	0.499968	-0.190041
C340	C	1.833403	0.749968	0.059959
C341	C	1.093961	0.046195	-0.150556
C342	C	1.343961	0.296195	0.099444
C343	C	1.593961	0.546195	0.349444
C344	C	1.843961	0.796195	0.599444
C345	C	1.094953	0.046188	-0.100136
C346	C	1.344953	0.296188	0.149864
C347	C	1.594953	0.546188	0.399864
C348	C	1.844953	0.796188	0.649864
C349	C	1.094901	-0.046329	-0.100160
C350	C	1.344901	0.203671	0.149840
C351	C	1.594901	0.453671	0.399840
C352	C	1.844901	0.703671	0.649840
C353	C	1.093914	-0.046322	-0.150576
C354	C	1.343914	0.203678	0.099424
C355	C	1.593914	0.453678	0.349424
C356	C	1.843914	0.703678	0.599424
C357	C	1.093441	-0.000056	-0.175772
C358	C	1.343441	0.249944	0.074228
C359	C	1.593441	0.499944	0.324228
C360	C	1.843441	0.749944	0.574228
O361	O	1.092357	-0.085628	-0.230348
O362	O	1.342357	0.164372	0.019652
O363	O	1.592357	0.414372	0.269652
O364	O	1.842357	0.664372	0.519652
O365	O	1.092401	0.085541	-0.230345
O366	O	1.342401	0.335541	0.019655
O367	O	1.592401	0.585541	0.269655
O368	O	1.842401	0.835541	0.519655
C369	C	1.087942	0.046215	-0.458099
C370	C	1.337942	0.296215	-0.208099
C371	C	1.587942	0.546215	0.041901
C372	C	1.837942	0.796215	0.291901
C373	C	1.087421	-0.000040	-0.483316
C374	C	1.337421	0.249960	-0.233316
C375	C	1.587421	0.499960	0.016684
C376	C	1.837421	0.749960	0.266684
C377	C	1.087888	-0.046298	-0.458116
C378	C	1.337888	0.203702	-0.208116
C379	C	1.587888	0.453702	0.041884
C380	C	1.837888	0.703702	0.291884
C381	C	1.086441	-0.000038	-0.533735
C382	C	1.336441	0.249962	-0.283735
C383	C	1.586441	0.499962	-0.033735
C384	C	1.836441	0.749962	0.216265
C385	C	1.085974	0.046219	-0.558934
C386	C	1.335974	0.296219	-0.308934
C387	C	1.585974	0.546219	-0.058934
C388	C	1.835974	0.796219	0.191066
C389	C	1.086487	0.092475	-0.533715
C390	C	1.336487	0.342475	-0.283715
C391	C	1.586487	0.592475	-0.033715
C392	C	1.836487	0.842475	0.216285
C393	C	1.087475	0.092472	-0.483299
C394	C	1.337475	0.342472	-0.233299
C395	C	1.587475	0.592472	0.016701
C396	C	1.837475	0.842472	0.266701
C397	C	1.087375	-0.092554	-0.483336
C398	C	1.337375	0.157446	-0.233336
C399	C	1.587375	0.407446	0.016664
C400	C	1.837375	0.657446	0.266664
C401	C	1.086388	-0.092547	-0.533752
C402	C	1.336388	0.157453	-0.283752
C403	C	1.586388	0.407453	-0.033752
C404	C	1.836388	0.657453	0.216248
C405	C	1.085921	-0.046289	-0.558951
C406	C	1.335921	0.203711	-0.308951
C407	C	1.585921	0.453711	-0.058951
C408	C	1.835921	0.703711	0.191049
C409	C	1.080408	-0.000037	0.155460
C410	C	1.330408	0.249963	0.405460
C411	C	1.580408	0.499963	0.655460
C412	C	1.830408	0.749963	0.905460
C413	C	1.081443	-0.000028	0.209121
C414	C	1.331443	0.249972	0.459121
C415	C	1.581443	0.499972	0.709121
C416	C	1.831443	0.749972	0.959121
H417	H	1.189065	-0.125751	0.120407
H418	H	1.439065	0.124249	0.370407
H419	H	1.689065	0.374249	0.620407
H420	H	1.939065	0.624249	0.870407
H421	H	1.090672	-0.130236	-0.311560
H422	H	1.340672	0.119764	-0.061560
H423	H	1.590672	0.369764	0.188440
H424	H	1.840672	0.619764	0.438440
H425	H	0.987695	-0.222708	0.013784
H426	H	1.237695	0.027292	0.263784
H427	H	1.487695	0.277292	0.513784
H428	H	1.737695	0.527292	0.763784
H429	H	1.093498	-0.083990	-0.171108
H430	H	1.343498	0.166010	0.078892
H431	H	1.593498	0.416010	0.328892
H432	H	1.843498	0.666010	0.578892
H433	H	1.095286	-0.083991	-0.079633
H434	H	1.345286	0.166009	0.170367
H435	H	1.595286	0.416009	0.420367
H436	H	1.845286	0.666009	0.670367
H437	H	1.189183	-0.874309	0.120400
H438	H	1.439183	-0.624309	0.370400
H439	H	1.689183	-0.374309	0.620400
H440	H	1.939183	-0.124309	0.870400
H441	H	1.189101	-0.222644	0.120402
H442	H	1.439101	0.027356	0.370402
H443	H	1.689101	0.277356	0.620402
H444	H	1.939101	0.527356	0.870402
H445	H	1.088909	-0.130234	-0.403020
H446	H	1.338909	0.119766	-0.153020
H447	H	1.588909	0.369766	0.096980
H448	H	1.838909	0.619766	0.346980
H449	H	1.244650	-0.531677	0.149780
H450	H	1.494650	-0.281677	0.399780
H451	H	1.744650	-0.031677	0.649780
H452	H	1.994650	0.218323	0.899780
H453	H	1.087899	0.130141	-0.462772
H454	H	1.337899	0.380141	-0.212772
H455	H	1.587899	0.630141	0.037228
H456	H	1.837899	0.880141	0.287228
H457	H	1.087757	-0.130223	-0.462824
H458	H	1.337757	0.119777	-0.212824
H459	H	1.587757	0.369777	0.037176
H460	H	1.837757	0.619777	0.287176
H461	H	1.244620	-0.371443	0.149783
H462	H	1.494620	-0.121443	0.399783
H463	H	1.744620	0.128557	0.649783
H464	H	1.994620	0.378557	0.899783
H465	H	0.987796	-0.874349	0.013783
H466	H	1.237796	-0.624349	0.263783
H467	H	1.487796	-0.374349	0.513783
H468	H	1.737796	-0.124349	0.763783
H469	H	1.244639	-0.468332	0.149780
H470	H	1.494639	-0.218332	0.399780
H471	H	1.744639	0.031668	0.649780
H472	H	1.994639	0.281668	0.899780
H473	H	1.244659	-0.628581	0.149775
H474	H	1.494659	-0.378581	0.399775
H475	H	1.744659	-0.128581	0.649775
H476	H	1.994659	0.121419	0.899775
H477	H	1.189174	-0.777400	0.120404
H478	H	1.439174	-0.527400	0.370404
H479	H	1.689174	-0.277400	0.620404
H480	H	1.939174	-0.027400	0.870404
H481	H	1.089067	0.130137	-0.402979
H482	H	1.339067	0.380137	-0.152979
H483	H	1.589067	0.630137	0.097021
H484	H	1.839067	0.880137	0.347021
H485	H	0.987795	-0.777458	0.013774
H486	H	1.237795	-0.527458	0.263774
H487	H	1.487795	-0.277458	0.513774
H488	H	1.737795	-0.027458	0.763774
H489	H	0.932290	-0.628650	-0.015608
H490	H	1.182290	-0.378650	0.234392
H491	H	1.432290	-0.128650	0.484392
H492	H	1.682290	0.121350	0.734392
H493	H	1.093571	0.083869	-0.171064
H494	H	1.343571	0.333869	0.078936
H495	H	1.593571	0.583869	0.328936
H496	H	1.843571	0.833869	0.578936
H497	H	0.932265	-0.371513	-0.015618
H498	H	1.182265	-0.121513	0.234382
H499	H	1.432265	0.128487	0.484382
H500	H	1.682265	0.378487	0.734382
H501	H	0.932271	-0.468405	-0.015618
H502	H	1.182271	-0.218405	0.234382
H503	H	1.432271	0.031595	0.484382
H504	H	1.682271	0.281595	0.734382
H505	H	0.987689	-0.125798	0.013785
H506	H	1.237689	0.124202	0.263785
H507	H	1.487689	0.374202	0.513785
H508	H	1.737689	0.624202	0.763785
H509	H	1.081499	-0.083955	-0.786207
H510	H	1.331499	0.166045	-0.536207
H511	H	1.581499	0.416045	-0.286207
H512	H	1.831499	0.666045	-0.036207
H513	H	0.932279	-0.531761	-0.015608
H514	H	1.182279	-0.281761	0.234392
H515	H	1.432279	-0.031761	0.484392
H516	H	1.682279	0.218239	0.734392
H517	H	1.095380	0.083859	-0.079607
H518	H	1.345380	0.333859	0.170393
H519	H	1.595380	0.583859	0.420393
H520	H	1.845380	0.833859	0.670393
H521	H	1.090860	0.130133	-0.311524
H522	H	1.340860	0.380133	-0.061524
H523	H	1.590860	0.630133	0.188476
H524	H	1.840860	0.880133	0.438476
H525	H	1.083367	0.083896	-0.694712
H526	H	1.333367	0.333896	-0.444712
H527	H	1.583367	0.583896	-0.194712
H528	H	1.833367	0.833896	0.055288
H529	H	1.081578	0.083896	-0.786185
H530	H	1.331578	0.333896	-0.536185
H531	H	1.581578	0.583896	-0.286185
H532	H	1.831578	0.833896	-0.036185
H533	H	1.086110	0.130140	-0.554241
H534	H	1.336110	0.380140	-0.304241
H535	H	1.586110	0.630140	-0.054241
H536	H	1.836110	0.880140	0.195759
H537	H	1.083269	-0.083961	-0.694748
H538	H	1.333269	0.166039	-0.444748
H539	H	1.583269	0.416039	-0.194748
H540	H	1.833269	0.666039	0.055252
H541	H	1.085970	-0.130219	-0.554279
H542	H	1.335970	0.119781	-0.304279
H543	H	1.585970	0.369781	-0.054279
H544	H	1.835970	0.619781	0.195721
