data_functionalizedCrystal
_audit_creation_method	'MofGen! by Chris Wilmer'
_symmetry_space_group_name_H-M	'P1'
_symmetry_Int_Tables_number	1
_symmetry_cell_setting	triclinic
loop_
_symmetry_equiv_pos_as_xyz
  x,y,z
_cell_length_a	13.032831
_cell_length_b	17.077402
_cell_length_c	17.077396
_cell_angle_alpha	90.029784
_cell_angle_beta	82.809156
_cell_angle_gamma	97.172756
loop_
_atom_site_label
_atom_site_type_symbol
_atom_site_fract_x
_atom_site_fract_y
_atom_site_fract_z
Zn1	Zn	1.597631	0.465146	-0.595967
Zn2	Zn	1.597508	0.596409	-0.464687
Zn3	Zn	1.422874	0.448477	-0.448074
Zn4	Zn	1.422832	0.579673	-0.579277
O5	O	1.510211	0.522426	-0.522001
O6	O	1.743854	0.496538	-0.592490
O7	O	1.574308	0.576813	-0.352633
O8	O	1.446126	0.340848	-0.467725
O9	O	1.743763	0.592977	-0.496039
O10	O	1.574519	0.353094	-0.576382
O11	O	1.446006	0.468128	-0.340428
O12	O	1.276629	0.451900	-0.451541
O13	O	1.446053	0.564453	-0.691341
O14	O	1.276598	0.548290	-0.547935
O15	O	1.574478	0.480310	-0.703604
O16	O	1.574267	0.704029	-0.479855
O17	O	1.445933	0.691734	-0.564044
C18	C	1.510110	0.726365	-0.521960
C19	C	1.510163	0.813619	-0.521978
C20	C	1.238696	0.496471	-0.496125
C21	C	1.122540	0.485386	-0.485074
C22	C	1.510274	0.522374	-0.726752
C23	C	1.510301	0.522352	-0.814004
C24	C	1.070766	0.528212	-0.527769
C25	C	0.950714	0.516756	-0.516348
C26	C	1.782787	0.548484	-0.547979
C27	C	1.898943	0.559588	-0.559049
C28	C	1.510341	0.317694	-0.522062
C29	C	1.510396	0.230450	-0.522088
C30	C	1.577054	0.860992	-0.478201
C31	C	1.577106	0.942978	-0.478226
C32	C	1.510259	0.977588	-0.522024
C33	C	1.443364	0.930209	-0.565806
C34	C	1.443319	0.848226	-0.565785
C35	C	1.443461	1.101088	-0.565845
C36	C	1.443505	1.183077	-0.565865
C37	C	1.577247	1.195840	-0.478286
C38	C	1.577202	1.113857	-0.478265
C39	C	1.510306	1.066483	-0.522046
C40	C	1.577175	0.478535	-0.861381
C41	C	1.577187	0.478510	-0.943363
C42	C	1.510331	0.522307	-0.977966
C43	C	1.443451	0.566126	-0.930583
C44	C	1.443433	0.566146	-0.848603
C45	C	1.443493	0.566083	-1.101457
C46	C	1.443511	0.566064	-1.183444
C47	C	1.577246	0.478447	-1.196217
C48	C	1.577229	0.478467	-1.114237
C49	C	1.510350	0.522287	-1.066859
C50	C	1.510208	0.522427	-0.318053
C51	C	1.510384	0.522247	-0.230821
H52	H	1.115320	0.573355	-0.572780
F53	F	1.064311	0.426371	-0.426247
F54	F	1.372127	0.797808	-0.612381
F55	F	1.648197	0.824164	-0.431580
F56	F	1.648426	0.431811	-1.246641
F57	F	0.892489	0.457738	-0.457518
H58	H	1.631675	0.442809	-1.086065
H59	H	1.631720	1.234416	-0.442641
F60	F	1.648304	0.993392	-0.431635
F61	F	1.372347	0.612671	-1.220269
H62	H	1.631628	1.085677	-0.442598
H63	H	1.631620	0.442873	-0.833213
F64	F	1.372309	0.612719	-1.051036
H65	H	1.388991	1.062519	-0.601500
H66	H	1.631644	0.442832	-0.981934
F67	F	1.372293	0.612735	-0.967413
F68	F	0.957165	0.618592	-0.617894
H69	H	1.388968	0.601818	-0.810028
H70	H	1.389092	1.211256	-0.601546
F71	F	1.372227	0.967046	-0.612424
