data_functionalizedCrystal
_audit_creation_method	'MofGen! by Chris Wilmer'
_symmetry_space_group_name_H-M	'P1'
_symmetry_Int_Tables_number	1
_symmetry_cell_setting	triclinic
loop_
_symmetry_equiv_pos_as_xyz
  x,y,z
_cell_length_a	13.897448
_cell_length_b	11.169417
_cell_length_c	11.169409
_cell_angle_alpha	90.021649
_cell_angle_beta	89.964424
_cell_angle_gamma	89.984086
loop_
_atom_site_label
_atom_site_type_symbol
_atom_site_fract_x
_atom_site_fract_y
_atom_site_fract_z
Zn1	Zn	-0.383983	-1.834901	-0.678574
Zn2	Zn	-0.050649	-1.501568	-0.345241
Zn3	Zn	0.282684	-1.168234	-0.011907
Zn4	Zn	-0.545318	-1.834765	-0.477880
Zn5	Zn	-0.211985	-1.501431	-0.144546
Zn6	Zn	0.121348	-1.168098	0.188787
Zn7	Zn	-0.384034	-1.634187	-0.477902
Zn8	Zn	-0.050701	-1.300854	-0.144569
Zn9	Zn	0.282633	-0.967520	0.188765
Zn10	Zn	-0.545232	-1.634169	-0.678518
Zn11	Zn	-0.211899	-1.300835	-0.345185
Zn12	Zn	0.121434	-0.967502	-0.011851
O13	O	-0.464642	-1.734505	-0.578218
O14	O	-0.131308	-1.401172	-0.244885
O15	O	0.202025	-1.067839	0.088448
O16	O	-0.405399	-2.002833	-0.651966
O17	O	-0.072065	-1.669499	-0.318632
O18	O	0.261268	-1.336166	0.014701
O19	O	-0.523981	-1.808108	-0.309933
O20	O	-0.190648	-1.474775	0.023401
O21	O	0.142686	-1.141441	0.356734
O22	O	-0.249045	-1.660877	-0.504554
O23	O	0.084288	-1.327543	-0.171221
O24	O	0.417621	-0.994210	0.162112
O25	O	-0.523931	-2.002732	-0.504516
O26	O	-0.190598	-1.669399	-0.171183
O27	O	0.142735	-1.336066	0.162150
O28	O	-0.249008	-1.808341	-0.651987
O29	O	0.084326	-1.475007	-0.318654
O30	O	0.417659	-1.141674	0.014679
O31	O	-0.405486	-1.660745	-0.309949
O32	O	-0.072153	-1.327411	0.023384
O33	O	0.261181	-0.994078	0.356717
O34	O	-0.405403	-1.466235	-0.504500
O35	O	-0.072069	-1.132901	-0.171167
O36	O	0.261264	-0.799568	0.162166
O37	O	-0.523785	-1.660846	-0.846475
O38	O	-0.190451	-1.327512	-0.513142
O39	O	0.142882	-0.994179	-0.179809
O40	O	-0.523834	-1.466221	-0.651892
O41	O	-0.190501	-1.132888	-0.318559
O42	O	0.142832	-0.799555	0.014775
O43	O	-0.405315	-1.808323	-0.846517
O44	O	-0.071982	-1.474990	-0.513183
O45	O	0.261351	-1.141656	-0.179850
O46	O	-0.680288	-1.808090	-0.504462
O47	O	-0.346955	-1.474757	-0.171129
O48	O	-0.013622	-1.141424	0.162205
O49	O	-0.680225	-1.660713	-0.651870
O50	O	-0.346892	-1.327380	-0.318537
O51	O	-0.013559	-0.994047	0.014796
C52	C	-0.464615	-1.422681	-0.578193
C53	C	-0.131282	-1.089347	-0.244860
C54	C	0.202051	-0.756014	0.088474
C55	C	-0.464627	-1.289281	-0.578211
C56	C	-0.131294	-0.955947	-0.244877
C57	C	0.202039	-0.622614	0.088456
C58	C	-0.715256	-1.734418	-0.578184
C59	C	-0.381923	-1.401084	-0.244850
C60	C	-0.048589	-1.067751	0.088483
C61	C	-0.822470	-1.734490	-0.578209
C62	C	-0.489137	-1.401157	-0.244876
C63	C	-0.155803	-1.067823	0.088458
C64	C	-1.018765	-1.734616	-0.578284
C65	C	-0.685432	-1.401283	-0.244951
C66	C	-0.352098	-1.067949	0.088382
C67	C	-0.909533	-1.734543	-0.578246
C68	C	-0.576199	-1.401209	-0.244913
C69	C	-0.242866	-1.067876	0.088421
C70	C	-0.213049	-1.734626	-0.578280
C71	C	0.120285	-1.401293	-0.244946
C72	C	0.453618	-1.067959	0.088387
C73	C	-0.105835	-1.734677	-0.578306
C74	C	0.227499	-1.401344	-0.244972
C75	C	0.560832	-1.068011	0.088361
C76	C	-0.464535	-1.734597	-0.891261
C77	C	-0.131201	-1.401264	-0.557928
C78	C	0.202132	-1.067931	-0.224594
C79	C	-0.464489	-1.734637	-1.024661
C80	C	-0.131156	-1.401303	-0.691328
C81	C	0.202178	-1.067970	-0.357995
C82	C	-0.464659	-1.047548	-0.578237
C83	C	-0.131326	-0.714214	-0.244903
C84	C	0.202007	-0.380881	0.088430
C85	C	-0.464643	-1.180948	-0.578224
C86	C	-0.131310	-0.847614	-0.244891
C87	C	0.202024	-0.514281	0.088443
C88	C	-0.464679	-1.734483	-0.266394
C89	C	-0.131345	-1.401149	0.066940
C90	C	0.201988	-1.067816	0.400273
C91	C	-0.464453	-1.734676	-0.132994
C92	C	-0.131119	-1.401342	0.200339
C93	C	0.202214	-1.068009	0.533672
