data_functionalizedCrystal
_audit_creation_method	'MofGen! by Chris Wilmer'
_symmetry_space_group_name_H-M	'P1'
_symmetry_Int_Tables_number	1
_symmetry_cell_setting	triclinic
loop_
_symmetry_equiv_pos_as_xyz
  x,y,z
_cell_length_a	27.731994
_cell_length_b	19.288865
_cell_length_c	18.366186
_cell_angle_alpha	90.011479
_cell_angle_beta	89.997037
_cell_angle_gamma	97.121609
loop_
_atom_site_label
_atom_site_type_symbol
_atom_site_fract_x
_atom_site_fract_y
_atom_site_fract_z
O1	O	0.641197	-0.082470	-0.060454
O2	O	0.500437	-0.095076	-0.060479
O3	O	0.574884	0.012384	-0.060452
O4	O	0.566750	-0.189930	-0.060482
O5	O	0.574872	0.012389	0.060648
O6	O	0.500425	-0.095071	0.060620
O7	O	0.641184	-0.082465	0.060645
Zn8	Zn	0.570802	-0.088767	0.079860
Zn9	Zn	0.570819	-0.088774	-0.079694
O10	O	0.566737	-0.189925	0.060618
C11	C	0.482423	-0.094815	0.000067
C12	C	0.428764	-0.094035	0.000058
C13	C	0.096024	-0.089124	0.066098
C14	C	-0.105643	-0.086162	0.066107
O15	O	-0.131723	-0.085747	0.122247
N16	N	-0.130852	-0.085797	0.000096
C17	C	-0.105641	-0.086168	-0.065922
O18	O	-0.131709	-0.085782	-0.122068
C19	C	0.096026	-0.089125	-0.065930
C20	C	0.121232	-0.089497	0.000085
C21	C	0.121230	-0.089496	0.132108
C22	C	0.171643	-0.090240	0.132106
C23	C	0.196851	-0.090613	0.066093
C24	C	0.171645	-0.090242	0.000083
C25	C	0.121237	-0.089491	-0.131947
C26	C	0.171657	-0.090229	-0.131943
C27	C	0.196862	-0.090601	-0.065928
C28	C	0.247266	-0.091359	-0.065933
N29	N	0.272475	-0.091724	0.000078
C30	C	0.247267	-0.091351	0.066091
C31	C	-0.211519	-0.084616	-0.065913
C32	C	-0.261935	-0.083878	-0.065912
C33	C	-0.261934	-0.083871	0.066118
C34	C	-0.211517	-0.084614	0.066115
C35	C	-0.186310	-0.084982	0.000098
C36	C	0.353139	-0.092915	0.066080
C37	C	0.403557	-0.093662	0.066071
C38	C	0.403551	-0.093666	-0.065958
C39	C	0.353138	-0.092922	-0.065950
C40	C	0.327933	-0.092544	0.000075
O41	O	0.273377	-0.091767	-0.122044
O42	O	0.273346	-0.091722	0.122229
C43	C	0.045611	-0.088380	0.066101
C44	C	0.020405	-0.088009	0.000091
C45	C	0.045612	-0.088382	-0.065922
C46	C	-0.030012	-0.087271	0.000093
C47	C	-0.055219	-0.086898	0.066106
C48	C	-0.030010	-0.087263	0.132117
C49	C	0.020403	-0.088007	0.132114
C50	C	0.020403	-0.088017	-0.131933
C51	C	-0.030010	-0.087273	-0.131925
C52	C	-0.055218	-0.086900	-0.065912
C53	C	0.574616	0.038261	0.000100
C54	C	0.573831	0.115360	0.000107
C55	C	0.659198	-0.082726	0.000097
C56	C	0.712857	-0.083505	0.000101
C57	C	0.567005	-0.215802	0.000064
C58	C	0.567791	-0.292900	0.000053
N59	N	0.570795	-0.088762	0.188751
C60	C	0.617513	0.160341	0.000118
C61	C	0.616774	0.232783	0.000106
C62	C	0.572352	0.260241	0.000098
C63	C	0.528664	0.215250	0.000082
C64	C	0.529403	0.142809	0.000087
C65	C	0.537426	0.368303	0.042510
C66	C	0.536688	0.440742	0.042510
C67	C	0.570069	0.483672	0.000081
C68	C	0.604196	0.454154	-0.042339
C69	C	0.604936	0.381713	-0.042334
C70	C	0.571545	0.338790	0.000093
C71	C	0.612954	0.607203	0.000079
C72	C	0.612214	0.679647	0.000063
C73	C	0.524102	0.662112	0.000046
C74	C	0.524844	0.589671	0.000055
C75	C	0.569271	0.562221	0.000075
N76	N	0.570831	-0.088773	-0.188585
C77	C	0.603770	-0.041202	0.226864
C78	C	0.603773	-0.041199	0.303092
C79	C	0.570805	-0.088768	0.341204
C80	C	0.537823	-0.136331	0.303082
C81	C	0.537818	-0.136328	0.226855
C82	C	0.564334	-0.152098	0.461954
C83	C	0.564343	-0.152101	0.538179
C84	C	0.570819	-0.088776	0.576311
C85	C	0.577296	-0.025444	0.538209
C86	C	0.577291	-0.025442	0.461983
C87	C	0.570807	-0.088776	0.423858
C88	C	0.603800	-0.041209	0.697079
C89	C	0.603800	-0.041205	0.773308
C90	C	0.537852	-0.136343	0.773297
C91	C	0.537850	-0.136341	0.697069
C92	C	0.570826	-0.088775	0.658965
H93	H	0.040921	-0.088310	0.185871
O94	O	-0.057230	-0.087160	0.203319
H95	H	-0.096531	-0.086685	0.192221
O96	O	-0.289119	-0.083465	-0.137113
H97	H	-0.263114	-0.083834	-0.183012
O98	O	-0.184333	-0.085016	-0.137121
H99	H	-0.198423	-0.132240	-0.168776
H100	H	0.192162	-0.090539	0.185862
O101	O	0.557360	-0.220405	0.579273
H102	H	0.589641	-0.224536	0.613984
O103	O	0.665430	0.130738	0.000134
H104	H	0.658608	0.072808	0.000141
H105	H	0.487932	0.684468	0.000036
O106	O	0.501422	0.322005	0.088283
H107	H	0.478971	0.284460	0.052505
H108	H	0.582570	0.026121	0.569255
O109	O	0.557353	-0.220402	0.420826
H110	H	0.552859	-0.264439	0.460125
H111	H	0.630650	-0.002475	0.666053
H112	H	0.100712	-0.089190	0.185867
O113	O	0.430743	-0.094075	0.137276
H114	H	0.404742	-0.093688	0.183177
H115	H	0.192178	-0.090528	-0.185704
O116	O	-0.184331	-0.085019	0.137316
H117	H	-0.210335	-0.084636	0.183215
H118	H	0.511000	-0.175072	0.666036
H119	H	0.493831	0.106185	0.000078
O120	O	0.502247	-0.187631	0.185751
H121	H	0.478816	-0.158625	0.151041
H122	H	-0.282467	-0.083569	0.119868
O123	O	0.477729	0.541148	0.000061
H124	H	0.446714	0.572409	0.000062
O125	O	0.480749	0.244859	0.000081
H126	H	0.487573	0.302789	0.000090
O127	O	0.094060	-0.089054	-0.203150
H128	H	0.120069	-0.089416	-0.249046
H129	H	0.508898	0.464769	0.077047
O130	O	0.639330	0.010108	0.185763
H131	H	0.662257	0.043186	0.225077
O132	O	0.639346	0.010093	0.344214
H133	H	0.662278	0.043164	0.304911
O134	O	0.325949	-0.092522	-0.137151
H135	H	0.331210	-0.140023	-0.168818
O136	O	0.325956	-0.092516	0.137290
H137	H	0.351960	-0.092908	0.183184
O138	O	0.430745	-0.094052	-0.137157
H139	H	0.470037	-0.094619	-0.126061
O140	O	-0.057193	-0.086850	-0.203132
H141	H	-0.031188	-0.087220	-0.249031
O142	O	0.047588	-0.088425	-0.203136
H143	H	0.021584	-0.088051	-0.249031
H144	H	0.652347	0.269413	0.000113
O145	O	0.641733	0.349871	-0.088094
H146	H	0.664819	0.391887	-0.117607
H147	H	0.511007	-0.175072	0.804327
H148	H	0.582564	0.026125	0.430963
H149	H	0.630651	-0.002472	0.804340
H150	H	0.510979	-0.175062	0.334117
H151	H	0.631378	0.489106	-0.076889
H152	H	0.649129	0.584853	0.000092
H153	H	0.647787	0.716270	0.000068
