data_functionalizedCrystal
_audit_creation_method	'MofGen! by Chris Wilmer'
_symmetry_space_group_name_H-M	'P1'
_symmetry_Int_Tables_number	1
_symmetry_cell_setting	triclinic
loop_
_symmetry_equiv_pos_as_xyz
  x,y,z
_cell_length_a	17.077404
_cell_length_b	12.827892
_cell_length_c	17.077396
_cell_angle_alpha	89.975123
_cell_angle_beta	89.980499
_cell_angle_gamma	90.015617
loop_
_atom_site_label
_atom_site_type_symbol
_atom_site_fract_x
_atom_site_fract_y
_atom_site_fract_z
Zn1	Zn	1.200096	-0.416027	-0.443862
Zn2	Zn	1.200020	-0.590789	-0.312605
Zn3	Zn	1.068827	-0.416063	-0.312610
Zn4	Zn	1.068812	-0.590727	-0.443828
O5	O	1.134439	-0.503402	-0.378226
O6	O	1.309932	-0.439220	-0.426463
O7	O	1.182591	-0.567653	-0.202758
O8	O	1.086278	-0.269823	-0.330038
O9	O	1.309877	-0.567617	-0.330028
O10	O	1.182720	-0.269796	-0.426468
O11	O	1.086205	-0.439282	-0.202763
O12	O	0.958978	-0.439222	-0.330005
O13	O	1.086253	-0.567511	-0.553680
O14	O	0.958968	-0.567547	-0.426410
O15	O	1.182706	-0.439160	-0.553705
O16	O	1.182577	-0.737017	-0.329995
O17	O	1.086179	-0.736971	-0.426404
C18	C	0.930491	-0.503383	-0.378205
C19	C	0.843241	-0.503400	-0.378214
C20	C	1.134390	-0.774912	-0.378213
C21	C	1.134440	-0.891065	-0.378233
C22	C	0.802266	-0.570319	-0.428332
C23	C	0.720285	-0.570321	-0.428344
C24	C	0.679282	-0.503409	-0.378235
C25	C	0.720263	-0.436482	-0.328115
C26	C	0.802242	-0.436475	-0.328107
C27	C	0.549393	-0.436502	-0.328134
C28	C	0.467408	-0.436510	-0.328140
C29	C	0.467436	-0.570349	-0.428371
C30	C	0.549415	-0.570342	-0.428363
C31	C	0.590391	-0.503416	-0.378242
C32	C	1.182198	-0.942837	-0.330579
C33	C	1.182251	-1.062888	-0.330599
C34	C	1.339183	-0.503421	-0.378249
C35	C	1.426433	-0.503430	-0.378258
C36	C	1.134486	-0.503325	-0.582971
C37	C	1.134506	-0.503292	-0.670221
C38	C	1.134509	-0.230831	-0.378257
C39	C	1.134540	-0.114678	-0.378271
C40	C	1.184731	-0.436454	-0.711225
C41	C	1.184741	-0.436419	-0.793206
C42	C	1.134529	-0.503228	-0.834180
C43	C	1.084298	-0.570069	-0.793170
C44	C	1.084285	-0.570098	-0.711191
C45	C	1.084330	-0.570007	-0.964040
C46	C	1.084344	-0.569980	-1.046025
C47	C	1.184785	-0.436327	-1.046055
C48	C	1.184772	-0.436356	-0.964076
C49	C	1.134543	-0.503199	-0.923071
C50	C	1.134437	-0.503403	-0.174279
C51	C	1.134568	-0.503141	-0.087029
H52	H	0.686927	-0.624815	-0.469154
O53	O	1.238896	-0.364401	-0.667034
H54	H	1.203774	-0.311248	-0.629678
O55	O	1.238915	-0.364330	-0.837431
H56	H	1.278838	-0.411096	-0.874787
O57	O	0.593646	-0.642506	-0.482411
H58	H	0.551382	-0.689036	-0.517271
O59	O	0.593584	-0.364321	-0.274068
H60	H	0.630953	-0.311200	-0.309261
O61	O	1.236423	-1.121863	-0.276569
H62	H	1.201309	-1.171681	-0.236645
H63	H	1.093597	-0.935617	-0.419049
H64	H	0.686871	-0.381996	-0.287318
H65	H	1.043455	-0.624379	-1.079384
O66	O	1.030113	-0.642185	-0.666958
H67	H	0.990183	-0.595408	-0.629617
H68	H	1.043415	-0.624421	-0.930657
O69	O	0.846433	-0.364299	-0.274043
H70	H	0.883800	-0.311179	-0.309240
H71	H	1.225664	-0.381960	-0.930716
O72	O	1.030138	-0.642124	-0.837364
H73	H	0.995205	-0.688598	-0.795076
H74	H	1.223048	-0.898288	-0.289769
H75	H	0.434025	-0.382012	-0.287346
O76	O	1.080364	-1.055724	-0.432311
H77	H	1.093777	-1.076548	-0.493950
O78	O	0.846491	-0.642486	-0.482382
H79	H	0.804222	-0.689010	-0.517240
O80	O	1.238957	-0.364219	-1.090274
H81	H	1.230524	-0.375409	-1.154162
H82	H	0.434070	-0.624839	-0.469184
