data_functionalizedCrystal
_audit_creation_method	'MofGen! by Chris Wilmer'
_symmetry_space_group_name_H-M	'P1'
_symmetry_Int_Tables_number	1
_symmetry_cell_setting	triclinic
loop_
_symmetry_equiv_pos_as_xyz
  x,y,z
_cell_length_a	10.686220
_cell_length_b	12.645330
_cell_length_c	10.685884
_cell_angle_alpha	94.383277
_cell_angle_beta	80.951928
_cell_angle_gamma	94.394340
loop_
_atom_site_label
_atom_site_type_symbol
_atom_site_fract_x
_atom_site_fract_y
_atom_site_fract_z
Zn1	Zn	1.885349	-0.263844	0.569037
Zn2	Zn	1.901560	-0.453706	0.356792
Zn3	Zn	1.689414	-0.289104	0.373061
Zn4	Zn	1.673082	-0.453724	0.585242
O5	O	1.787351	-0.365094	0.471033
O6	O	2.065117	-0.278450	0.527291
O7	O	1.887038	-0.442435	0.181327
O8	O	1.715456	-0.137401	0.399085
O9	O	2.077028	-0.417942	0.371356
O10	O	1.859408	-0.118842	0.543067
O11	O	1.731175	-0.321503	0.193280
O12	O	1.509630	-0.321520	0.414798
O13	O	1.687620	-0.417972	0.760715
O14	O	1.497631	-0.442466	0.570686
O15	O	1.843572	-0.278468	0.748810
O16	O	1.871202	-0.602061	0.387069
O17	O	1.703340	-0.602074	0.554910
C18	C	1.457576	-0.384737	0.496267
C19	C	1.316494	-0.393163	0.507092
C20	C	1.787290	-0.640530	0.471008
C21	C	1.787377	-0.758353	0.471030
C22	C	1.892837	-0.925886	0.365255
C23	C	1.893137	-0.803292	0.365471
C24	C	1.813359	-0.792650	0.602051
C25	C	1.814176	-0.915233	0.601470
C26	C	1.655795	-0.935707	0.447108
C27	C	1.656669	-0.813242	0.444058
C28	C	2.118415	-0.345376	0.445701
C29	C	2.259494	-0.336974	0.434906
C30	C	1.761966	-0.345404	0.802106
C31	C	1.751148	-0.337013	0.943189
C32	C	1.787445	-0.088580	0.471083
C33	C	1.787485	0.029254	0.471105
C34	C	1.812629	-0.384730	1.141248
C35	C	1.823446	-0.393113	1.000165
H36	H	1.878073	-0.780516	0.268000
F37	F	1.915181	-0.464274	0.922842
H38	H	1.257356	-0.447726	0.577173
F39	F	1.336781	-0.265669	0.343298
F40	F	2.020898	-0.755340	0.385157
F41	F	1.873556	-0.973964	0.237441
F42	F	1.659432	-0.265845	1.020505
F43	F	2.019930	-0.956600	0.384655
H44	H	1.910129	-0.936172	0.622992
F45	F	1.715528	-0.754124	0.707322
F46	F	1.717497	-0.953459	0.707336
H47	H	1.908166	-0.754326	0.624142
F48	F	1.630811	-0.785089	0.318099
F49	F	1.622315	-0.986228	0.325107
H50	H	1.577426	-0.964817	0.524328
F51	F	1.549624	-0.774074	0.538518
