data_functionalizedCrystal
_audit_creation_method	'MofGen! by Chris Wilmer'
_symmetry_space_group_name_H-M	'P1'
_symmetry_Int_Tables_number	1
_symmetry_cell_setting	triclinic
loop_
_symmetry_equiv_pos_as_xyz
  x,y,z
_cell_length_a	16.625547
_cell_length_b	16.625545
_cell_length_c	12.759393
_cell_angle_alpha	89.966096
_cell_angle_beta	89.974078
_cell_angle_gamma	90.025495
loop_
_atom_site_label
_atom_site_type_symbol
_atom_site_fract_x
_atom_site_fract_y
_atom_site_fract_z
Zn1	Zn	1.232672	-0.320955	-0.594172
Zn2	Zn	1.232565	-0.455812	-0.418485
Zn3	Zn	1.097831	-0.320997	-0.418489
Zn4	Zn	1.097797	-0.455750	-0.594104
O5	O	1.165216	-0.388379	-0.506313
O6	O	1.345490	-0.338853	-0.570894
O7	O	1.214662	-0.437972	-0.271465
O8	O	1.115777	-0.208159	-0.441824
O9	O	1.345412	-0.437932	-0.441818
O10	O	1.214844	-0.208128	-0.570898
O11	O	1.115674	-0.338924	-0.271467
O12	O	0.984994	-0.338864	-0.441758
O13	O	1.115719	-0.437825	-0.741134
O14	O	0.984969	-0.437866	-0.570781
O15	O	1.214811	-0.338792	-0.741184
O16	O	1.214629	-0.568636	-0.441751
O17	O	1.115615	-0.568590	-0.570778
C18	C	0.955725	-0.388363	-0.506263
C19	C	0.866104	-0.388376	-0.506267
C20	C	0.793322	-0.388377	-0.506280
C21	C	0.702013	-0.388381	-0.506306
C22	C	0.629237	-0.388389	-0.506333
C23	C	0.537923	-0.388394	-0.506358
C24	C	1.165129	-0.597869	-0.506280
C25	C	1.165165	-0.687490	-0.506301
C26	C	1.165196	-0.760273	-0.506321
C27	C	1.165243	-0.851581	-0.506345
C28	C	1.165285	-0.924358	-0.506358
C29	C	1.165331	-1.015672	-0.506380
C30	C	1.375525	-0.388395	-0.506363
C31	C	1.465146	-0.388402	-0.506385
C32	C	1.165273	-0.388297	-0.780346
C33	C	1.165297	-0.388262	-0.897123
C34	C	1.165326	-0.178070	-0.506369
C35	C	1.165373	-0.088448	-0.506393
C36	C	1.216901	-0.336691	-0.952013
C37	C	1.216920	-0.336662	-1.061737
C38	C	1.113729	-0.439782	-1.061672
C39	C	1.113706	-0.439807	-0.951949
C40	C	1.268492	-0.285147	-0.897186
C41	C	1.320101	-0.233572	-0.952076
C42	C	1.320121	-0.233543	-1.061800
C43	C	1.268530	-0.285089	-1.116635
C44	C	1.165206	-0.388401	-0.233345
C45	C	1.165339	-0.388209	-0.116569
H46	H	1.268484	-0.285167	-0.807843
C47	C	1.376236	-0.177517	-1.121208
C48	C	1.421423	-0.132400	-1.049704
C49	C	1.473136	-0.080789	-1.104389
H50	H	1.345512	-0.142298	-1.164018
H51	H	1.411401	-0.208338	-1.163986
H52	H	1.386262	-0.101581	-1.006943
H53	H	1.452163	-0.167597	-1.006891
H54	H	1.508302	-0.111610	-1.147167
H55	H	1.442406	-0.045576	-1.147197
H56	H	1.503807	-0.050176	-1.055882
C57	C	1.268700	-0.284970	-1.235765
C58	C	1.324948	-0.228785	-1.272104
C59	C	1.325138	-0.228665	-1.381837
H60	H	1.216728	-0.270988	-1.260713
H61	H	1.282661	-0.336985	-1.260605
H62	H	1.310982	-0.176781	-1.247274
H63	H	1.376927	-0.242754	-1.247184
H64	H	1.339100	-0.280680	-1.406678
H65	H	1.273164	-0.214685	-1.406775
H66	H	1.363307	-0.190550	-1.406507
C67	C	1.057815	-0.495720	-1.121392
C68	C	1.068898	-0.484677	-1.229231
C69	C	1.017414	-0.536203	-1.284276
H70	H	1.003608	-0.483973	-1.103533
H71	H	1.069594	-0.549917	-1.103451
H72	H	1.057113	-0.430492	-1.247165
H73	H	1.123094	-0.496429	-1.247121
H74	H	1.029193	-0.590400	-1.266334
H75	H	0.963210	-0.524452	-1.266408
H76	H	1.024932	-0.528723	-1.357450
C77	C	1.057798	-0.495944	-0.892389
C78	C	1.075346	-0.575715	-0.919030
C79	C	1.023871	-0.627454	-0.864167
H80	H	1.003597	-0.484256	-0.910299
H81	H	1.065191	-0.488625	-0.819183
H82	H	1.067946	-0.583031	-0.992219
H83	H	1.129537	-0.587428	-0.901117
H84	H	1.031264	-0.620134	-0.790961
H85	H	0.969674	-0.615758	-0.882081
H86	H	1.035775	-0.681584	-0.882227
C87	C	1.376074	-0.177693	-0.892358
C88	C	1.365029	-0.188768	-0.784519
C89	C	1.416584	-0.137311	-0.729477
H90	H	1.364356	-0.123480	-0.910230
H91	H	1.430265	-0.189500	-0.910290
H92	H	1.310850	-0.176956	-0.766594
H93	H	1.376753	-0.242971	-0.766616
H94	H	1.470774	-0.149118	-0.747409
H95	H	1.404860	-0.083101	-0.747357
H96	H	1.409101	-0.144824	-0.656303
