data_functionalizedCrystal
_audit_creation_method	'MofGen! by Chris Wilmer'
_symmetry_space_group_name_H-M	'P1'
_symmetry_Int_Tables_number	1
_symmetry_cell_setting	triclinic
loop_
_symmetry_equiv_pos_as_xyz
  x,y,z
_cell_length_a	27.732048
_cell_length_b	14.971486
_cell_length_c	14.048226
_cell_angle_alpha	90.006640
_cell_angle_beta	90.000972
_cell_angle_gamma	83.128392
loop_
_atom_site_label
_atom_site_type_symbol
_atom_site_fract_x
_atom_site_fract_y
_atom_site_fract_z
O1	O	-0.641420	-0.106429	-0.079039
O2	O	-0.500701	-0.122612	-0.079068
O3	O	-0.574832	0.015739	-0.079046
O4	O	-0.567289	-0.244780	-0.079061
O5	O	-0.574823	0.015747	0.079276
O6	O	-0.500692	-0.122604	0.079254
O7	O	-0.641411	-0.106421	0.079283
Zn8	Zn	-0.571050	-0.114511	0.104405
Zn9	Zn	-0.571062	-0.114522	-0.104190
O10	O	-0.567280	-0.244772	0.079261
C11	C	-0.482688	-0.122268	0.000090
C12	C	-0.429028	-0.121245	0.000079
C13	C	-0.659424	-0.106765	0.000124
C14	C	-0.713083	-0.107788	0.000128
C15	C	-0.574490	0.049063	0.000115
C16	C	-0.573479	0.148344	0.000114
C17	C	-0.090561	-0.196562	0.000116
C18	C	0.111116	-0.192767	0.000124
O19	O	0.142054	-0.261639	0.000162
N20	N	0.130619	-0.110731	0.000127
C21	C	0.099698	-0.029637	0.000134
O22	O	0.120914	0.040227	0.000147
C23	C	-0.101978	-0.033433	0.000133
C24	C	-0.121477	-0.115475	0.000120
C25	C	-0.110061	-0.278597	0.000104
C26	C	-0.160477	-0.279545	0.000097
C27	C	-0.191393	-0.198458	0.000101
C28	C	-0.171893	-0.116423	0.000112
C29	C	-0.132897	0.047659	0.000147
C30	C	-0.183319	0.046703	0.000148
C31	C	-0.202818	-0.035339	0.000136
C32	C	-0.253226	-0.036284	0.000109
N33	N	-0.272729	-0.118320	0.000106
C34	C	-0.241812	-0.199407	0.000102
C35	C	0.205582	-0.027650	0.000134
C36	C	0.256000	-0.026701	0.000132
C37	C	0.267415	-0.189831	0.000124
C38	C	0.216995	-0.190779	0.000118
C39	C	0.186079	-0.109686	0.000131
C40	C	-0.347690	-0.201392	0.000086
C41	C	-0.398112	-0.202332	0.000074
C42	C	-0.409522	-0.039203	0.000088
C43	C	-0.359105	-0.038261	0.000094
C44	C	-0.328190	-0.119363	0.000096
O45	O	-0.284193	0.032551	0.000083
O46	O	-0.263037	-0.269261	0.000111
C47	C	-0.040144	-0.195614	0.000123
C48	C	-0.020645	-0.113579	0.000135
C49	C	-0.051561	-0.032492	0.000139
C50	C	0.029774	-0.112630	0.000133
C51	C	0.060691	-0.193717	0.000129
C52	C	0.041188	-0.275753	0.000126
C53	C	-0.009228	-0.276701	0.000119
C54	C	-0.032059	0.049544	0.000142
C55	C	0.018358	0.050486	0.000148
C56	C	0.049275	-0.030602	0.000144
C57	C	-0.567621	-0.278096	0.000098
C58	C	-0.568632	-0.377377	0.000093
N59	N	-0.571045	-0.114504	0.246766
C60	C	-0.617029	0.206257	0.000123
C61	C	-0.616076	0.299542	0.000114
C62	C	-0.571573	0.334911	0.000101
C63	C	-0.528020	0.276990	0.000089
C64	C	-0.528973	0.183707	0.000091
C65	C	-0.526036	0.471421	0.000085
C66	C	-0.525082	0.564710	0.000083
C67	C	-0.613139	0.587255	0.000107
C68	C	-0.614092	0.493973	0.000110
C69	C	-0.570539	0.436058	0.000099
N70	N	-0.571070	-0.114522	-0.246551
C71	C	-0.603881	-0.053267	0.296594
C72	C	-0.603884	-0.053266	0.396251
C73	C	-0.571054	-0.114507	0.446079
C74	C	-0.538215	-0.175747	0.396245
C75	C	-0.538210	-0.175743	0.296589
C76	C	-0.538229	-0.175753	0.603959
C77	C	-0.538234	-0.175759	0.703622
C78	C	-0.603903	-0.053277	0.703621
C79	C	-0.603898	-0.053272	0.603966
C80	C	-0.571059	-0.114514	0.554138
H81	H	-0.413985	-0.269143	0.000064
N82	N	-0.504677	-0.238310	0.245688
N83	N	-0.520040	-0.293634	0.190066
H84	H	-0.496356	-0.337824	0.154117
H85	H	-0.651539	0.346692	0.000123
H86	H	-0.084893	-0.344632	0.000104
H87	H	-0.322525	-0.267432	0.000091
N88	N	0.275906	0.057112	0.000145
N89	N	0.266447	0.111617	0.066888
H90	H	0.280503	0.170814	0.066902
N91	N	-0.504690	-0.238292	0.754528
N92	N	-0.474683	-0.210274	0.810150
H93	H	-0.450991	-0.254435	0.846107
H94	H	-0.511486	-0.225620	0.563392
N95	N	-0.504672	-0.238289	0.447142
N96	N	-0.474659	-0.210289	0.502763
H97	H	-0.450968	-0.254460	0.538709
H98	H	-0.434703	0.026816	0.000088
H99	H	-0.490570	0.424269	0.000073
H100	H	-0.630621	-0.003402	0.436821
H101	H	-0.176348	-0.346352	0.000086
N102	N	-0.637394	0.009344	0.245715
N103	N	-0.666689	0.064052	0.290221
H104	H	-0.690348	0.108295	0.254291
H105	H	-0.653269	0.177468	0.000139
H106	H	-0.650331	0.465179	0.000127
H107	H	0.201123	-0.257585	0.000113
N108	N	-0.637461	0.009242	0.553080
N109	N	-0.666793	0.063889	0.597577
H110	H	-0.690506	0.108028	0.561640
N111	N	-0.637429	0.009302	0.754528
N112	N	-0.637419	0.009314	0.843506
H113	H	-0.661091	0.053518	0.879464
H114	H	0.292596	-0.255855	0.000121
H115	H	0.180413	0.038389	0.000144
N116	N	-0.482565	0.313134	0.000086
N117	N	-0.472209	0.362678	0.066822
H118	H	-0.440107	0.388206	0.066825
N119	N	-0.657633	0.646396	0.000099
N120	N	-0.697365	0.614805	0.000112
H121	H	-0.728788	0.656575	0.000109
N122	N	-0.112998	0.131474	0.000177
N123	N	-0.122463	0.185970	0.066927
H124	H	-0.108411	0.245171	0.066952
N125	N	-0.214899	0.129539	0.000180
N126	N	-0.213090	0.184253	0.066928
H127	H	-0.235393	0.242756	0.066950
N128	N	-0.339192	0.045548	0.000091
N129	N	-0.366804	0.117940	0.000090
H130	H	-0.352744	0.177133	0.000096
H131	H	-0.025099	-0.343508	0.000110
N132	N	0.072781	-0.358575	0.000117
N133	N	0.117796	-0.357703	0.000123
H134	H	0.140111	-0.416192	0.000121
H135	H	0.034229	0.117299	0.000151
N136	N	-0.063635	0.132377	0.000122
N137	N	-0.093037	0.150046	-0.066624
H138	H	-0.115338	0.208552	-0.066644
N139	N	-0.479620	0.600826	0.000087
N140	N	-0.440737	0.549110	0.000080
H141	H	-0.408628	0.574616	0.000088
N142	N	-0.484483	0.124560	0.000069
N143	N	-0.444751	0.156148	0.000053
H144	H	-0.413328	0.114376	0.000031
