data_functionalizedCrystal
_audit_creation_method	'MofGen! by Chris Wilmer'
_symmetry_space_group_name_H-M	'P1'
_symmetry_Int_Tables_number	1
_symmetry_cell_setting	triclinic
loop_
_symmetry_equiv_pos_as_xyz
  x,y,z
_cell_length_a	25.639242
_cell_length_b	25.639240
_cell_length_c	25.639234
_cell_angle_alpha	89.968234
_cell_angle_beta	89.980822
_cell_angle_gamma	90.025061
loop_
_atom_site_label
_atom_site_type_symbol
_atom_site_fract_x
_atom_site_fract_y
_atom_site_fract_z
Zn1	Zn	0.799271	-0.208292	-0.295607
Zn2	Zn	1.132605	0.125042	0.037726
Zn3	Zn	1.465938	0.458375	0.371060
Zn4	Zn	0.799197	-0.295719	-0.208160
Zn5	Zn	1.132530	0.037614	0.125173
Zn6	Zn	1.465863	0.370947	0.458506
Zn7	Zn	0.711840	-0.208288	-0.208183
Zn8	Zn	1.045174	0.125045	0.125150
Zn9	Zn	1.378507	0.458379	0.458484
Zn10	Zn	0.711802	-0.295686	-0.295562
Zn11	Zn	1.045135	0.037647	0.037771
Zn12	Zn	1.378469	0.370981	0.371104
O13	O	0.755528	-0.251996	-0.251878
O14	O	1.088861	0.081337	0.081455
O15	O	1.422194	0.414670	0.414788
O16	O	0.872427	-0.219905	-0.284016
O17	O	1.205760	0.113429	0.049317
O18	O	1.539093	0.446762	0.382650
O19	O	0.787593	-0.284134	-0.134998
O20	O	1.120927	0.049200	0.198335
O21	O	1.454260	0.382533	0.531668
O22	O	0.723486	-0.135123	-0.219808
O23	O	1.056819	0.198210	0.113525
O24	O	1.390152	0.531543	0.446858
O25	O	0.872372	-0.284137	-0.219770
O26	O	1.205705	0.049196	0.113564
O27	O	1.539038	0.382529	0.446897
O28	O	0.787721	-0.135126	-0.284038
O29	O	1.121054	0.198207	0.049295
O30	O	1.454388	0.531541	0.382628
O31	O	0.723413	-0.219898	-0.135015
O32	O	1.056747	0.113435	0.198318
O33	O	1.390080	0.446768	0.531652
O34	O	0.638670	-0.219866	-0.219765
O35	O	0.972003	0.113467	0.113568
O36	O	1.305337	0.446801	0.446902
O37	O	0.723420	-0.284081	-0.368733
O38	O	1.056754	0.049253	-0.035400
O39	O	1.390087	0.382586	0.297933
O40	O	0.638642	-0.284077	-0.283962
O41	O	0.971975	0.049256	0.049371
O42	O	1.305309	0.382590	0.382705
O43	O	0.787684	-0.219872	-0.368766
O44	O	1.121017	0.113461	-0.035433
O45	O	1.454350	0.446794	0.297900
O46	O	0.787556	-0.368880	-0.219726
O47	O	1.120889	-0.035547	0.113607
O48	O	1.454223	0.297787	0.446940
O49	O	0.723348	-0.368856	-0.283940
O50	O	1.056681	-0.035522	0.049393
O51	O	1.390014	0.297811	0.382727
C52	C	0.619685	-0.251968	-0.251861
C53	C	0.953018	0.081365	0.081472
C54	C	1.286352	0.414699	0.414805
C55	C	0.561571	-0.251969	-0.251867
C56	C	0.894904	0.081365	0.081467
C57	C	1.228238	0.414698	0.414800
C58	C	0.310414	-0.218610	-0.285392
C59	C	0.643748	0.114724	0.047941
C60	C	0.977081	0.448057	0.381274
C61	C	0.365019	-0.218605	-0.285390
C62	C	0.698352	0.114729	0.047944
C63	C	1.031685	0.448062	0.381277
O64	O	0.393286	-0.190219	-0.313891
O65	O	0.726620	0.143114	0.019443
O66	O	1.059953	0.476448	0.352776
N67	N	0.392297	-0.251990	-0.251884
N68	N	0.725630	0.081343	0.081449
N69	N	1.058964	0.414676	0.414782
C70	C	0.364969	-0.285387	-0.218383
C71	C	0.698302	0.047946	0.114950
C72	C	1.031635	0.381280	0.448283
O73	O	0.393185	-0.313784	-0.189885
O74	O	0.726518	0.019549	0.143449
O75	O	1.059852	0.352883	0.476782
C76	C	0.310365	-0.285394	-0.218389
C77	C	0.643699	0.047939	0.114944
C78	C	0.977032	0.381272	0.448277
C79	C	0.283089	-0.252003	-0.251893
C80	C	0.616423	0.081331	0.081440
C81	C	0.949756	0.414664	0.414773
C82	C	0.283138	-0.185221	-0.318894
C83	C	0.616472	0.148112	0.014439
C84	C	0.949805	0.481445	0.347773
C85	C	0.228538	-0.185226	-0.318896
C86	C	0.561871	0.148108	0.014437
C87	C	0.895205	0.481441	0.347771
C88	C	0.201213	-0.218619	-0.285397
C89	C	0.534546	0.114714	0.047937
C90	C	0.867880	0.448048	0.381270
C91	C	0.228489	-0.252007	-0.251895
C92	C	0.561822	0.081326	0.081438
C93	C	0.895156	0.414659	0.414771
C94	C	0.283038	-0.318793	-0.184892
C95	C	0.616371	0.014540	0.148442
C96	C	0.949704	0.347873	0.481775
C97	C	0.228431	-0.318798	-0.184901
C98	C	0.561764	0.014535	0.148432
C99	C	0.895097	0.347868	0.481766
C100	C	0.201155	-0.285407	-0.218405
C101	C	0.534488	0.047927	0.114929
C102	C	0.867822	0.381260	0.448262
C103	C	0.146564	-0.285405	-0.218398
C104	C	0.479897	0.047928	0.114935
C105	C	0.813230	0.381262	0.448268
N106	N	0.119285	-0.252019	-0.251904
N107	N	0.452618	0.081314	0.081430
N108	N	0.785952	0.414647	0.414763
C109	C	0.146610	-0.218626	-0.285403
C110	C	0.479943	0.114707	0.047931
C111	C	0.813277	0.448040	0.381264
C112	C	0.479639	-0.285370	-0.218374
C113	C	0.812973	0.047964	0.114959
C114	C	1.146306	0.381297	0.448293
C115	C	0.534241	-0.285360	-0.218365
C116	C	0.867575	0.047973	0.114968
C117	C	1.200908	0.381307	0.448302
C118	C	0.534288	-0.218578	-0.285372
C119	C	0.867621	0.114755	0.047961
C120	C	1.200954	0.448089	0.381295
C121	C	0.479684	-0.218585	-0.285378
C122	C	0.813018	0.114748	0.047955
C123	C	1.146351	0.448081	0.381289
C124	C	0.452361	-0.251984	-0.251879
C125	C	0.785694	0.081349	0.081454
C126	C	1.119027	0.414683	0.414787
C127	C	0.031945	-0.218638	-0.285404
C128	C	0.365278	0.114695	0.047929
C129	C	0.698611	0.448029	0.381262
C130	C	-0.022661	-0.218644	-0.285402
C131	C	0.310673	0.114689	0.047931
C132	C	0.644006	0.448022	0.381265
C133	C	-0.022702	-0.285428	-0.218397
C134	C	0.310631	0.047906	0.114936
C135	C	0.643965	0.381239	0.448269
C136	C	0.031898	-0.285420	-0.218398
C137	C	0.365232	0.047913	0.114936
C138	C	0.698565	0.381247	0.448269
C139	C	0.059221	-0.252023	-0.251905
C140	C	0.392554	0.081310	0.081428
C141	C	0.725887	0.414643	0.414761
O142	O	0.118261	-0.313778	-0.189913
O143	O	0.451594	0.019556	0.143420
O144	O	0.784928	0.352889	0.476754
O145	O	0.118387	-0.190239	-0.313902
O146	O	0.451720	0.143094	0.019432
O147	O	0.785053	0.476428	0.352765
C148	C	0.755454	-0.387839	-0.251837
C149	C	1.088787	-0.054506	0.081496
C150	C	1.422120	0.278828	0.414829
C151	C	0.755470	-0.445953	-0.251837
C152	C	1.088803	-0.112620	0.081496
C153	C	1.422137	0.220714	0.414829
C154	C	0.788991	-0.806279	-0.285383
C155	C	1.122325	-0.472946	0.047950
C156	C	1.455658	-0.139612	0.381284
C157	C	0.789007	-0.860883	-0.285394
C158	C	1.122340	-0.527550	0.047940
C159	C	1.455674	-0.194216	0.381273
O160	O	0.817420	-0.889088	-0.313874
O161	O	1.150754	-0.555755	0.019460
O162	O	1.484087	-0.222422	0.352793
N163	N	0.755600	-0.888235	-0.251929
N164	N	1.088933	-0.554902	0.081405
N165	N	1.422267	-0.221569	0.414738
C166	C	0.722172	-0.860980	-0.218455
C167	C	1.055505	-0.527647	0.114879
C168	C	1.388839	-0.194314	0.448212
O169	O	0.693758	-0.889259	-0.189991
O170	O	1.027091	-0.555926	0.143342
O171	O	1.360425	-0.222593	0.476675
C172	C	0.722154	-0.806377	-0.218447
C173	C	1.055488	-0.473044	0.114886
C174	C	1.388821	-0.139710	0.448220
C175	C	0.755567	-0.779028	-0.251911
C176	C	1.088900	-0.445694	0.081423
C177	C	1.422234	-0.112361	0.414756
C178	C	0.822401	-0.778929	-0.318844
C179	C	1.155734	-0.445596	0.014489
C180	C	1.489068	-0.112263	0.347822
C181	C	0.822386	-0.724329	-0.318833
C182	C	1.155720	-0.390996	0.014501
C183	C	1.489053	-0.057662	0.347834
C184	C	0.788962	-0.697078	-0.285360
C185	C	1.122295	-0.363744	0.047973
C186	C	1.455628	-0.030411	0.381306
C187	C	0.755552	-0.724427	-0.251899
C188	C	1.088886	-0.391094	0.081434
C189	C	1.422219	-0.057760	0.414768
C190	C	0.688724	-0.779123	-0.184976
C191	C	1.022057	-0.445790	0.148357
C192	C	1.355391	-0.112456	0.481691
C193	C	0.688709	-0.724516	-0.184972
C194	C	1.022042	-0.391183	0.148362
C195	C	1.355376	-0.057849	0.481695
C196	C	0.722122	-0.697167	-0.218435
C197	C	1.055455	-0.363833	0.114898
C198	C	1.388788	-0.030500	0.448232
C199	C	0.722113	-0.642575	-0.218415
C200	C	1.055446	-0.309242	0.114918
C201	C	1.388780	0.024091	0.448252
N202	N	0.755520	-0.615223	-0.251880
N203	N	1.088853	-0.281890	0.081453
N204	N	1.422186	0.051443	0.414787
C205	C	0.788944	-0.642474	-0.285353
C206	C	1.122277	-0.309141	0.047981
C207	C	1.455611	0.024192	0.381314
C208	C	0.722211	-0.975651	-0.218474
C209	C	1.055544	-0.642318	0.114859
C210	C	1.388878	-0.308984	0.448193
C211	C	0.722231	-1.030253	-0.218478
C212	C	1.055564	-0.696920	0.114855
C213	C	1.388898	-0.363587	0.448188
C214	C	0.789065	-1.030152	-0.285418
C215	C	1.122399	-0.696819	0.047915
C216	C	1.455732	-0.363486	0.381248
C217	C	0.789048	-0.975549	-0.285411
C218	C	1.122381	-0.642216	0.047923
C219	C	1.455714	-0.308882	0.381256
C220	C	0.755618	-0.948299	-0.251939
C221	C	1.088951	-0.614965	0.081394
C222	C	1.422284	-0.281632	0.414728
C223	C	0.788911	-0.527809	-0.285326
C224	C	1.122244	-0.194476	0.048008
C225	C	1.455577	0.138857	0.381341
C226	C	0.788894	-0.473204	-0.285310
C227	C	1.122228	-0.139871	0.048024
C228	C	1.455561	0.193463	0.381357
C229	C	0.722058	-0.473310	-0.218372
C230	C	1.055392	-0.139976	0.114961
C231	C	1.388725	0.193357	0.448295
C232	C	0.722076	-0.527910	-0.218386
C233	C	1.055410	-0.194577	0.114947
C234	C	1.388743	0.138756	0.448281
C235	C	0.755504	-0.555159	-0.251867
C236	C	1.088838	-0.221826	0.081466
C237	C	1.422171	0.111508	0.414800
O238	O	0.693713	-0.614336	-0.189951
O239	O	1.027046	-0.281002	0.143382
O240	O	1.360379	0.052331	0.476715
O241	O	0.817348	-0.614189	-0.313816
O242	O	1.150682	-0.280855	0.019517
O243	O	1.484015	0.052478	0.352851
C244	C	0.891901	-0.252025	-0.251896
C245	C	1.225234	0.081308	0.081438
C246	C	1.558567	0.414642	0.414771
C247	C	0.950015	-0.252037	-0.251903
C248	C	1.283348	0.081296	0.081430
C249	C	1.616681	0.414629	0.414764
C250	C	0.755556	-0.251973	-0.388251
C251	C	1.088889	0.081360	-0.054918
C252	C	1.422223	0.414693	0.278415
C253	C	0.755568	-0.251963	-0.446365
C254	C	1.088901	0.081370	-0.113032
C255	C	1.422235	0.414703	0.220301
C256	C	0.755616	-0.115623	-0.251931
C257	C	1.088949	0.217710	0.081403
C258	C	1.422283	0.551043	0.414736
C259	C	0.755654	-0.057509	-0.251953
C260	C	1.088987	0.275824	0.081380
C261	C	1.422320	0.609157	0.414713
C262	C	0.789000	-0.285368	-0.697543
C263	C	1.122334	0.047966	-0.364209
C264	C	1.455667	0.381299	-0.030876
C265	C	0.788995	-0.285379	-0.642938
C266	C	1.122328	0.047955	-0.309605
C267	C	1.455662	0.381288	0.023728
O268	O	0.817396	-0.313838	-0.614688
O269	O	1.150729	0.019495	-0.281355
O270	O	1.484063	0.352828	0.051979
N271	N	0.755579	-0.251938	-0.615639
N272	N	1.088913	0.081395	-0.282306
N273	N	1.422246	0.414729	0.051027
C274	C	0.722163	-0.218488	-0.642947
C275	C	1.055497	0.114845	-0.309614
C276	C	1.388830	0.448179	0.023719
O277	O	0.693740	-0.190045	-0.614714
O278	O	1.027073	0.143288	-0.281380
O279	O	1.360407	0.476621	0.051953
C280	C	0.722167	-0.218480	-0.697551
C281	C	1.055500	0.114853	-0.364217
C282	C	1.388833	0.448187	-0.030884
C283	C	0.755588	-0.251919	-0.724847
C284	C	1.088921	0.081414	-0.391514
C285	C	1.422255	0.414747	-0.058180
C286	C	0.822419	-0.318805	-0.724839
C287	C	1.155752	0.014529	-0.391506
C288	C	1.489085	0.347862	-0.058172
C289	C	0.822425	-0.318793	-0.779440
C290	C	1.155758	0.014540	-0.446106
C291	C	1.489091	0.347874	-0.112773
C292	C	0.789013	-0.285344	-0.806744
C293	C	1.122346	0.047989	-0.473410
C294	C	1.455679	0.381322	-0.140077
C295	C	0.755594	-0.251907	-0.779448
C296	C	1.088928	0.081426	-0.446114
C297	C	1.422261	0.414759	-0.112781
C298	C	0.688748	-0.185033	-0.724858
C299	C	1.022082	0.148300	-0.391525
C300	C	1.355415	0.481634	-0.058191
C301	C	0.688754	-0.185028	-0.779465
C302	C	1.022088	0.148305	-0.446132
C303	C	1.355421	0.481638	-0.112798
C304	C	0.722176	-0.218467	-0.806761
C305	C	1.055509	0.114866	-0.473428
C306	C	1.388842	0.448199	-0.140095
C307	C	0.722188	-0.218447	-0.861352
C308	C	1.055521	0.114886	-0.528019
C309	C	1.388855	0.448220	-0.194686
N310	N	0.755604	-0.251888	-0.888651
N311	N	1.088937	0.081445	-0.555318
N312	N	1.422270	0.414779	-0.221985
C313	C	0.789016	-0.285336	-0.861347
C314	C	1.122349	0.047997	-0.528014
C315	C	1.455682	0.381330	-0.194681
C316	C	0.722158	-0.218508	-0.528277
C317	C	1.055492	0.114826	-0.194943
C318	C	1.388825	0.448159	0.138390
C319	C	0.722157	-0.218513	-0.473674
C320	C	1.055491	0.114821	-0.140341
C321	C	1.388824	0.448154	0.192992
C322	C	0.788988	-0.285404	-0.473669
C323	C	1.122322	0.047929	-0.140336
C324	C	1.455655	0.381262	0.192998
C325	C	0.788992	-0.285396	-0.528272
C326	C	1.122325	0.047937	-0.194939
C327	C	1.455658	0.381270	0.138394
C328	C	0.755574	-0.251948	-0.555576
C329	C	1.088907	0.081385	-0.222242
C330	C	1.422241	0.414718	0.111091
C331	C	0.789026	-0.285309	-0.976012
C332	C	1.122360	0.048024	-0.642679
C333	C	1.455693	0.381358	-0.309346
C334	C	0.789031	-0.285293	-1.030618
C335	C	1.122364	0.048041	-0.697284
C336	C	1.455698	0.381374	-0.363951
C337	C	0.722198	-0.218403	-1.030618
C338	C	1.055532	0.114930	-0.697285
C339	C	1.388865	0.448263	-0.363952
C340	C	0.722195	-0.218417	-0.976018
C341	C	1.055529	0.114916	-0.642684
C342	C	1.388862	0.448249	-0.309351
C343	C	0.755611	-0.251874	-0.948716
C344	C	1.088944	0.081459	-0.615383
C345	C	1.422278	0.414792	-0.282049
O346	O	0.693800	-0.190004	-0.889638
O347	O	1.027133	0.143330	-0.556304
O348	O	1.360467	0.476663	-0.222971
O349	O	0.817430	-0.313779	-0.889588
O350	O	1.150763	0.019554	-0.556254
O351	O	1.484096	0.352888	-0.222921
C352	C	0.755529	-0.251982	-0.116036
C353	C	1.088863	0.081352	0.217298
C354	C	1.422196	0.414685	0.550631
C355	C	0.755619	-0.251844	-0.057922
C356	C	1.088952	0.081489	0.275411
C357	C	1.422285	0.414823	0.608745
H358	H	0.206335	-0.158037	-0.346181
H359	H	0.539668	0.175296	-0.012847
H360	H	0.873001	0.508630	0.320486
H361	H	0.695029	-1.052517	-0.191223
H362	H	1.028362	-0.719183	0.142110
H363	H	1.361695	-0.385850	0.475443
O364	O	0.686172	-0.182316	-1.060072
O365	O	1.019505	0.151017	-0.726739
O366	O	1.352839	0.484351	-0.393405
H367	H	0.691794	-0.187929	-1.102626
H368	H	1.025128	0.145404	-0.769293
H369	H	1.358461	0.478737	-0.435960
H370	H	0.661541	-0.157790	-0.801693
H371	H	0.994874	0.175543	-0.468359
H372	H	1.328208	0.508876	-0.135026
O373	O	-0.052081	-0.182629	-0.321541
O374	O	0.281252	0.150704	0.011793
O375	O	0.614586	0.484038	0.345126
H376	H	-0.023903	-0.159413	-0.344837
H377	H	0.309430	0.173920	-0.011504
H378	H	0.642764	0.507254	0.321829
O379	O	0.061317	-0.321432	-0.182257
O380	O	0.394650	0.011901	0.151076
O381	O	0.727983	0.345234	0.484410
H382	H	0.086191	-0.297994	-0.155697
H383	H	0.419524	0.035339	0.177636
H384	H	0.752857	0.368673	0.510969
H385	H	0.816127	-0.549989	-0.312593
H386	H	1.149461	-0.216655	0.020741
H387	H	1.482794	0.116678	0.354074
H388	H	0.457480	-0.191394	-0.312659
H389	H	0.790813	0.141939	0.020674
H390	H	1.124147	0.475272	0.354008
O391	O	0.686151	-0.182351	-0.946571
O392	O	1.019484	0.150982	-0.613238
O393	O	1.352817	0.484315	-0.279905
H394	H	0.662917	-0.159092	-0.974734
H395	H	0.996250	0.174241	-0.641400
H396	H	1.329583	0.507574	-0.308067
O397	O	0.198959	-0.354817	-0.148765
O398	O	0.532292	-0.021484	0.184568
O399	O	0.865625	0.311849	0.517901
H400	H	0.227102	-0.378029	-0.125467
H401	H	0.560436	-0.044696	0.207867
H402	H	0.893769	0.288638	0.541200
O403	O	0.652657	-0.695124	-0.148864
O404	O	0.985990	-0.361790	0.184469
O405	O	1.319323	-0.028457	0.517802
H406	H	0.629432	-0.723319	-0.125596
H407	H	0.962766	-0.389985	0.207738
H408	H	1.296099	-0.056652	0.541071
H409	H	0.054184	-0.191443	-0.312689
H410	H	0.387517	0.141890	0.020644
H411	H	0.720851	0.475223	0.353977
H412	H	0.849628	-0.346045	-0.702614
H413	H	1.182961	-0.012712	-0.369280
H414	H	1.516294	0.320622	-0.035947
O415	O	0.686011	-0.443909	-0.182271
O416	O	1.019344	-0.110576	0.151062
O417	O	1.352677	0.222758	0.484396
H418	H	0.662781	-0.472097	-0.158999
H419	H	0.996115	-0.138763	0.174335
H420	H	1.329448	0.194570	0.507668
O421	O	0.312606	-0.149195	-0.355022
O422	O	0.645940	0.184138	-0.021689
O423	O	0.979273	0.517471	0.311645
H424	H	0.284458	-0.125980	-0.378311
H425	H	0.617791	0.207354	-0.044977
H426	H	0.951125	0.540687	0.288356
O427	O	0.563764	-0.182563	-0.321510
O428	O	0.897097	0.150770	0.011823
O429	O	1.230430	0.484103	0.345157
H430	H	0.606314	-0.188176	-0.315879
H431	H	0.939648	0.145158	0.017455
H432	H	1.272981	0.478491	0.350788
O433	O	0.825024	-0.321481	-0.444208
O434	O	1.158358	0.011852	-0.110875
O435	O	1.491691	0.345185	0.222459
H436	H	0.866067	-0.312518	-0.454694
H437	H	1.199401	0.020815	-0.121361
H438	H	1.532734	0.354148	0.211973
H439	H	0.305236	-0.345985	-0.157609
H440	H	0.638570	-0.012651	0.175724
H441	H	0.971903	0.320682	0.509057
O442	O	0.563658	-0.321367	-0.182221
O443	O	0.896991	0.011966	0.151112
O444	O	1.230325	0.345300	0.484446
H445	H	0.553169	-0.362416	-0.191110
H446	H	0.886502	-0.029082	0.142224
H447	H	1.219836	0.304251	0.475557
O448	O	0.450169	-0.321385	-0.182232
O449	O	0.783502	0.011949	0.151101
O450	O	1.116835	0.345282	0.484435
H451	H	0.478315	-0.344591	-0.158931
H452	H	0.811648	-0.011258	0.174402
H453	H	1.144981	0.322075	0.507736
H454	H	0.816105	-0.450938	-0.312560
H455	H	1.149438	-0.117605	0.020774
H456	H	1.482771	0.215729	0.354107
O457	O	-0.052178	-0.321444	-0.182266
O458	O	0.281155	0.011889	0.151067
O459	O	0.614489	0.345223	0.484400
H460	H	-0.094729	-0.315838	-0.187904
H461	H	0.238605	0.017495	0.145430
H462	H	0.571938	0.350829	0.478763
H463	H	0.694948	-0.191265	-0.550504
H464	H	1.028281	0.142068	-0.217170
H465	H	1.361614	0.475401	0.116163
O466	O	0.858432	-0.694833	-0.354918
O467	O	1.191765	-0.361500	-0.021584
O468	O	1.525099	-0.028166	0.311749
H469	H	0.881674	-0.722963	-0.378191
H470	H	1.215007	-0.389630	-0.044858
H471	H	1.548341	-0.056297	0.288476
H472	H	0.694873	-0.550179	-0.191133
H473	H	1.028207	-0.216846	0.142200
H474	H	1.361540	0.116487	0.475534
H475	H	0.849619	-0.801112	-0.346105
H476	H	1.182952	-0.467778	-0.012771
H477	H	1.516286	-0.134445	0.320562
H478	H	0.816249	-0.312523	-1.052840
H479	H	1.149582	0.020810	-0.719507
H480	H	1.482916	0.354144	-0.386173
H481	H	0.694990	-0.953466	-0.191213
H482	H	1.028323	-0.620133	0.142121
H483	H	1.361657	-0.286800	0.475454
O484	O	0.825087	-0.946051	-0.321501
O485	O	1.158420	-0.612718	0.011833
O486	O	1.491753	-0.279385	0.345166
H487	H	0.848330	-0.974180	-0.344775
H488	H	1.181663	-0.640846	-0.011442
H489	H	1.514996	-0.307513	0.321891
O490	O	0.825112	-1.059549	-0.321530
O491	O	1.158445	-0.726216	0.011804
O492	O	1.491778	-0.392882	0.345137
H493	H	0.819502	-1.102112	-0.315915
H494	H	1.152836	-0.768779	0.017418
H495	H	1.486169	-0.435445	0.350751
H496	H	0.849638	-0.346024	-0.801659
H497	H	1.182972	-0.012691	-0.468326
H498	H	1.516305	0.320642	-0.134993
O499	O	0.652682	-0.808614	-0.148887
O500	O	0.986015	-0.475281	0.184447
O501	O	1.319349	-0.141947	0.517780
H502	H	0.629435	-0.780483	-0.125619
H503	H	0.962769	-0.447149	0.207714
H504	H	1.296102	-0.113816	0.541047
H505	H	0.816206	-0.312626	-0.550493
H506	H	1.149540	0.020708	-0.217160
H507	H	1.482873	0.354041	0.116173
H508	H	0.816240	-0.312550	-0.953790
H509	H	1.149573	0.020784	-0.620456
H510	H	1.482907	0.354117	-0.287123
H511	H	0.694948	-0.191277	-0.451454
H512	H	1.028282	0.142056	-0.118121
H513	H	1.361615	0.475390	0.215212
O514	O	0.652706	-0.148961	-0.695424
O515	O	0.986039	0.184372	-0.362091
O516	O	1.319372	0.517705	-0.028758
H517	H	0.629474	-0.125707	-0.723593
H518	H	0.962807	0.207626	-0.390259
H519	H	1.296141	0.540959	-0.056926
