data_functionalizedCrystal
_audit_creation_method	'MofGen! by Chris Wilmer'
_symmetry_space_group_name_H-M	'P1'
_symmetry_Int_Tables_number	1
_symmetry_cell_setting	triclinic
loop_
_symmetry_equiv_pos_as_xyz
  x,y,z
_cell_length_a	8.559649
_cell_length_b	8.597258
_cell_length_c	7.088929
_cell_angle_alpha	91.318774
_cell_angle_beta	95.325015
_cell_angle_gamma	77.626258
loop_
_atom_site_label
_atom_site_type_symbol
_atom_site_fract_x
_atom_site_fract_y
_atom_site_fract_z
O1	O	-2.102605	0.034424	0.164628
O2	O	-1.639992	-0.044989	0.151554
O3	O	-1.876662	0.220063	0.195209
O4	O	-1.865935	-0.230628	0.120974
O5	O	-1.908288	0.255556	-0.116921
O6	O	-1.671618	-0.009496	-0.160575
O7	O	-2.134231	0.069917	-0.147501
Cu8	Cu	-1.905812	0.033452	-0.182538
Cu9	Cu	-1.868411	-0.008523	0.186591
O10	O	-1.897561	-0.195135	-0.191155
C11	C	-1.596471	-0.033260	-0.005501
C12	C	-1.419675	-0.051174	-0.008448
C13	C	-2.177751	0.058189	0.009558
C14	C	-2.354546	0.076101	0.012518
C15	C	-1.889558	0.294974	0.048564
C16	C	-1.880847	0.465301	0.076631
N17	N	-1.932130	0.062976	-0.442163
C18	C	-1.884659	0.729953	-0.044506
C19	C	-1.893352	0.559620	-0.072559
N20	N	-1.842105	-0.038034	0.446219
H21	H	-1.340172	-0.173855	-0.028645
C22	C	-1.857741	0.531089	0.275733
C23	C	-1.847973	0.409950	0.407740
C24	C	-1.826697	0.470496	0.591165
H25	H	-1.761460	0.569993	0.289499
H26	H	-1.946242	0.615420	0.296857
H27	H	-1.759479	0.325647	0.386623
H28	H	-1.944241	0.371034	0.394035
H29	H	-1.915198	0.554827	0.612290
H30	H	-1.730416	0.509399	0.604911
H31	H	-1.820081	0.388317	0.680754
H32	H	-1.748804	-0.142711	-0.489375
H33	H	-1.434039	0.198771	0.032733
C34	C	-2.056692	0.202615	-0.527682
C35	C	-2.135512	0.291012	-0.382812
C36	C	-2.250276	0.419645	-0.461520
H37	H	-2.005150	0.268590	-0.594922
H38	H	-2.132642	0.163925	-0.612088
H39	H	-2.059573	0.329702	-0.298438
H40	H	-2.187087	0.225084	-0.315560
H41	H	-2.326226	0.380955	-0.545926
H42	H	-2.198721	0.485606	-0.528759
H43	H	-2.303779	0.479629	-0.363241
H44	H	-1.910722	0.510064	-0.221749
