data_functionalizedCrystal
_audit_creation_method	'MofGen! by Chris Wilmer'
_symmetry_space_group_name_H-M	'P1'
_symmetry_Int_Tables_number	1
_symmetry_cell_setting	triclinic
loop_
_symmetry_equiv_pos_as_xyz
  x,y,z
_cell_length_a	24.447405
_cell_length_b	24.446649
_cell_length_c	24.443239
_cell_angle_alpha	60.006064
_cell_angle_beta	60.011844
_cell_angle_gamma	59.992812
loop_
_atom_site_label
_atom_site_type_symbol
_atom_site_fract_x
_atom_site_fract_y
_atom_site_fract_z
O1	O	0.075907	-0.799232	0.668277
O2	O	0.028634	-0.622262	0.538455
O3	O	0.140702	-0.734230	0.538349
O4	O	-0.036160	-0.687265	0.668384
O5	O	0.177886	-0.697056	0.575424
O6	O	0.065818	-0.585088	0.575530
O7	O	0.113091	-0.762059	0.705353
Cu8	Cu	0.092850	-0.670179	0.643827
Cu9	Cu	0.048876	-0.714142	0.599981
O10	O	0.001024	-0.650091	0.705459
N11	N	0.123780	-0.639263	0.674669
N12	N	0.017951	-0.745064	0.569139
C13	C	0.170236	-0.489965	0.721065
C14	C	0.170249	-0.592837	0.721058
C15	C	0.195989	-0.567121	0.746758
C16	C	0.308182	-0.547773	0.687664
C17	C	0.378316	-0.571143	0.664253
C18	C	0.378353	-0.684626	0.707525
C19	C	0.308220	-0.661254	0.730938
C20	C	0.187125	-0.454882	0.652117
C21	C	0.163710	-0.384741	0.628763
C22	C	0.106523	-0.384772	0.743308
C23	C	0.129938	-0.454913	0.766662
C24	C	0.101291	-0.575906	0.738041
C25	C	0.077897	-0.599283	0.714670
C26	C	0.192412	-0.656523	0.657348
C27	C	0.215809	-0.633146	0.680711
C28	C	0.101393	-0.575928	0.859014
C29	C	0.078071	-0.599328	0.929152
C30	C	0.192636	-0.656582	0.929078
C31	C	0.215955	-0.633184	0.858938
C32	C	0.170332	-0.592855	0.823908
C33	C	0.273137	-0.592827	0.721004
C34	C	-0.131205	-0.791294	0.522327
C35	C	-0.028388	-0.791420	0.522551
C36	C	-0.054056	-0.817099	0.496741
C37	C	-0.073479	-0.929255	0.555734
C38	C	-0.050156	-0.999396	0.579142
C39	C	0.063326	-0.999525	0.536064
C40	C	0.040001	-0.929386	0.512654
C41	C	-0.166365	-0.808188	0.591256
C42	C	-0.236499	-0.784726	0.614512
C43	C	-0.236309	-0.727482	0.499907
C44	C	-0.166175	-0.750944	0.476651
C45	C	-0.045285	-0.722468	0.505590
C46	C	-0.021951	-0.699130	0.529061
C47	C	0.035176	-0.813691	0.586439
C48	C	0.011842	-0.837031	0.562976
C49	C	-0.045097	-0.722476	0.384488
C50	C	-0.021613	-0.699140	0.314350
C51	C	0.035607	-0.813706	0.314419
C52	C	0.012124	-0.837041	0.384558
C53	C	-0.028229	-0.791425	0.419591
C54	C	-0.028402	-0.894253	0.522492
N55	N	0.412405	-0.639229	0.674505
O56	O	0.626552	-0.645384	0.514503
O57	O	0.626802	-0.775625	0.691288
O58	O	0.626698	-0.775326	0.579168
O59	O	0.626656	-0.645683	0.626623
O60	O	0.515277	-0.738265	0.616407
O61	O	0.515382	-0.738564	0.728527
O62	O	0.515131	-0.608323	0.551742
Cu63	Cu	0.505083	-0.670059	0.643535
Cu64	Cu	0.636850	-0.713889	0.599495
O65	O	0.515236	-0.608622	0.663862
N66	N	0.729529	-0.744719	0.568518
N67	N	0.123755	-0.350686	0.674680
O68	O	-0.036153	-0.136410	0.668391
O69	O	0.140633	-0.136380	0.538141
O70	O	0.028472	-0.136412	0.538488
O71	O	0.076007	-0.136377	0.668044
O72	O	0.065663	-0.247842	0.575621
O73	O	0.177823	-0.247810	0.575274
O74	O	0.001037	-0.247840	0.705524
Cu75	Cu	0.092826	-0.258000	0.643789
Cu76	Cu	0.048844	-0.126220	0.599875
O77	O	0.113198	-0.247808	0.705177
N78	N	0.017907	-0.033534	0.568986
N79	N	0.124013	-0.639306	0.963182
O80	O	0.117754	-0.799195	1.177439
O81	O	-0.012458	-0.622342	1.177485
O82	O	-0.012155	-0.734480	1.177444
O83	O	0.117450	-0.687057	1.177480
O84	O	0.024954	-0.697317	1.066020
O85	O	0.024650	-0.585179	1.066061
O86	O	0.154862	-0.762032	1.066014
Cu87	Cu	0.093145	-0.670212	1.055863
Cu88	Cu	0.049259	-0.714162	1.187636
O89	O	0.154559	-0.649894	1.066055
N90	N	0.018389	-0.745075	1.280318
C91	C	0.042795	-0.581375	0.539107
C92	C	0.181576	-0.720034	0.538975
C93	C	0.098930	-0.802946	0.704700
C94	C	-0.039851	-0.664287	0.704832
C95	C	0.571122	-0.775030	0.732180
C96	C	0.570995	-0.774660	0.593332
C97	C	0.570808	-0.608917	0.510851
C98	C	0.570939	-0.609288	0.649698
C99	C	0.181453	-0.191954	0.538725
C100	C	0.042602	-0.192131	0.539201
C101	C	-0.039829	-0.192128	0.704893
C102	C	0.099069	-0.192090	0.704464
C103	C	-0.011836	-0.581480	1.121779
C104	C	-0.011453	-0.720342	1.121706
C105	C	0.154240	-0.802894	1.121720
C106	C	0.153865	-0.664024	1.121769
H107	H	0.064236	-0.543084	0.830495
O108	O	0.570893	-0.560764	0.661928
C109	C	0.570995	-0.530132	0.741498
C110	C	0.571031	-0.585139	0.727742
H111	H	0.571121	-0.549823	0.794703
H112	H	0.524315	-0.484422	0.735599
H113	H	0.617574	-0.515438	0.704349
H114	H	0.524484	-0.599889	0.764878
H115	H	0.617742	-0.630812	0.733618
O116	O	0.571043	-0.823333	0.581324
C117	C	0.571111	-0.936234	0.625144
C118	C	0.571073	-0.881177	0.638827
H119	H	0.571122	-0.983009	0.671630
H120	H	0.617723	-0.948768	0.581286
H121	H	0.524464	-0.917660	0.612395
H122	H	0.617689	-0.899705	0.651605
H123	H	0.524431	-0.868651	0.682666
H124	H	0.109248	-0.192079	0.745165
O125	O	0.110864	-0.863596	0.753369
C126	C	0.078558	-0.962111	0.826523
C127	C	0.064961	-0.893432	0.771420
H128	H	0.041464	-0.986261	0.841124
H129	H	0.072525	-0.955179	0.872257
H130	H	0.131793	-0.995761	0.806947
H131	H	0.011729	-0.859747	0.790933
H132	H	0.071039	-0.900415	0.725697
H133	H	0.229790	-0.689406	0.957592
O134	O	0.202931	-0.863533	1.121731
C135	C	0.234099	-0.973886	1.121644
C136	C	0.178892	-0.905250	1.121650
H137	H	0.214689	-1.007628	1.121564
H138	H	0.248720	-0.998003	1.168286
H139	H	0.279782	-0.966819	1.075024
H140	H	0.133174	-0.912258	1.168238
H141	H	0.164328	-0.881156	1.074977
H142	H	0.194582	-0.653876	1.121771
H143	H	0.025866	-0.893188	0.413136
H144	H	0.021932	-0.585534	0.957726
H145	H	0.232119	-0.191636	0.497733
O146	O	-0.100349	-0.192165	0.753761
C147	C	-0.168947	-0.192121	0.866700
C148	C	-0.100374	-0.192095	0.811423
H149	H	-0.168995	-0.192051	0.913328
H150	H	-0.178766	-0.238774	0.879420
H151	H	-0.209868	-0.145507	0.848253
H152	H	-0.059411	-0.238678	0.829824
H153	H	-0.090614	-0.145412	0.798712
H154	H	0.570727	-0.568026	0.460082
H155	H	0.272095	-0.646975	0.830359
H156	H	0.571186	-0.815915	0.782955
H157	H	0.032420	-0.192135	0.498498
H158	H	-0.052716	-0.530687	1.121793
O159	O	-0.059986	-0.732529	1.121726
C160	C	-0.130445	-0.800467	1.179362
C161	C	-0.075469	-0.786747	1.179415
H162	H	-0.142990	-0.844293	1.226006
H163	H	-0.111865	-0.813258	1.132737
H164	H	-0.177218	-0.753967	1.179323
H165	H	-0.028677	-0.833224	1.179477
H166	H	-0.094104	-0.773927	1.226036
O167	O	0.056943	-0.536731	0.777198
C168	C	-0.059112	-0.482453	0.831620
C169	C	-0.008961	-0.526810	0.787253
H170	H	-0.112407	-0.474430	0.839774
H171	H	-0.051104	-0.431971	0.805936
H172	H	-0.050947	-0.508164	0.882038
H173	H	-0.017096	-0.501158	0.736827
H174	H	-0.016981	-0.577290	0.812989
H175	H	0.271959	-0.646925	0.666876
H176	H	0.076712	-0.900889	0.485585
O177	O	0.010918	-0.582760	0.731050
C178	C	-0.082000	-0.528826	0.690819
C179	C	-0.006141	-0.547483	0.672175
H180	H	-0.095813	-0.500313	0.643229
H181	H	-0.110577	-0.495965	0.723639
H182	H	-0.095761	-0.576436	0.719399
H183	H	0.007682	-0.499910	0.643572
H184	H	0.022394	-0.580369	0.639387
H185	H	0.229515	-0.689349	0.624505
H186	H	0.279688	-0.697946	0.758086
O187	O	-0.038440	-0.632155	0.512695
C188	C	-0.092396	-0.539246	0.552940
C189	C	-0.073780	-0.615101	0.571572
H190	H	-0.120960	-0.525437	0.600531
H191	H	-0.125191	-0.510628	0.520046
H192	H	-0.044771	-0.525525	0.524443
H193	H	-0.121368	-0.628884	0.600092
H194	H	-0.040959	-0.643677	0.604434
H195	H	0.406920	-0.740344	0.715602
H196	H	0.406848	-0.534453	0.637104
H197	H	0.219934	-0.483420	0.614988
O198	O	0.274178	-0.481276	0.677898
C199	C	0.252618	-0.369746	0.597692
C200	C	0.291183	-0.445033	0.608658
H201	H	0.266342	-0.340422	0.541714
H202	H	0.266444	-0.352287	0.623067
H203	H	0.196474	-0.360799	0.620184
H204	H	0.347335	-0.454037	0.586164
H205	H	0.277301	-0.462454	0.583298
O206	O	0.180198	-0.350761	0.561761
C207	C	0.239352	-0.358128	0.450609
C208	C	0.220742	-0.396693	0.526468
H209	H	0.272123	-0.395248	0.422052
H210	H	0.267938	-0.325302	0.436752
H211	H	0.191723	-0.325277	0.436862
H212	H	0.268336	-0.429581	0.540269
H213	H	0.192130	-0.429477	0.540284
O214	O	0.067368	-0.350821	0.787690
C215	C	0.013170	-0.358251	0.903769
C216	C	0.057506	-0.396781	0.853581
H217	H	0.005195	-0.395393	0.957053
H218	H	-0.037330	-0.325442	0.895778
H219	H	0.038864	-0.325386	0.895626
H220	H	0.031871	-0.429683	0.861695
H221	H	0.108005	-0.429548	0.861585
H222	H	0.032695	-0.530537	0.498334
H223	H	0.116177	-0.483478	0.822809
H224	H	-0.035357	-0.642993	0.285778
H225	H	-0.077958	-0.685325	0.413008
H226	H	0.068452	-0.850855	0.285902
H227	H	-0.078038	-0.685325	0.472673
O228	O	0.242221	-0.732072	0.490340
C229	C	0.352533	-0.811466	0.459335
C230	C	0.283889	-0.797917	0.514477
H231	H	0.386236	-0.864705	0.478824
H232	H	0.376681	-0.774349	0.444684
H233	H	0.345480	-0.805383	0.413649
H234	H	0.290883	-0.804009	0.560198
H235	H	0.259764	-0.835032	0.529071
H236	H	0.067938	-0.850836	0.619346
H237	H	0.025599	-0.893178	0.576787
H238	H	0.119026	-1.028132	0.528057
H239	H	-0.129177	-0.900656	0.563750
O240	O	-0.094048	-1.033295	0.611525
C241	C	-0.209090	-1.025767	0.651933
C242	C	-0.159448	-0.987291	0.615211
H243	H	-0.261974	-0.988590	0.654913
H244	H	-0.207020	-1.058529	0.704705
H245	H	-0.195012	-1.058674	0.623323
H246	H	-0.173492	-0.954348	0.643766
H247	H	-0.161526	-0.954572	0.562437
H248	H	-0.137894	-0.841050	0.628449
H249	H	-0.137547	-0.737181	0.420520
H250	H	-0.265127	-0.798479	0.670643
H251	H	-0.090650	-0.654278	0.745664
O252	O	-0.270179	-0.688277	0.455450
C253	C	-0.262593	-0.634028	0.339322
C254	C	-0.224153	-0.678421	0.389596
H255	H	-0.225398	-0.626058	0.286068
H256	H	-0.295394	-0.583525	0.347307
H257	H	-0.295452	-0.659680	0.347377
H258	H	-0.191258	-0.652829	0.381571
H259	H	-0.191395	-0.728923	0.381598
