data_functionalizedCrystal
_audit_creation_method	'MofGen! by Chris Wilmer'
_symmetry_space_group_name_H-M	'P1'
_symmetry_Int_Tables_number	1
_symmetry_cell_setting	triclinic
loop_
_symmetry_equiv_pos_as_xyz
  x,y,z
_cell_length_a	19.288856
_cell_length_b	18.366186
_cell_length_c	19.288857
_cell_angle_alpha	90.003709
_cell_angle_beta	96.867065
_cell_angle_gamma	89.991641
loop_
_atom_site_label
_atom_site_type_symbol
_atom_site_fract_x
_atom_site_fract_y
_atom_site_fract_z
O1	O	-0.921352	0.060586	0.086616
O2	O	-0.421352	0.560586	0.586616
O3	O	-0.719090	0.060581	0.098311
O4	O	-0.219090	0.560581	0.598311
O5	O	-0.826068	0.060575	-0.008667
O6	O	-0.326068	0.560575	0.491333
O7	O	-0.814374	0.060592	0.193595
O8	O	-0.314374	0.560592	0.693595
O9	O	-0.826054	-0.060524	-0.008663
O10	O	-0.326054	0.439476	0.491337
O11	O	-0.719076	-0.060518	0.098315
O12	O	-0.219076	0.439482	0.598315
O13	O	-0.921338	-0.060513	0.086620
O14	O	-0.421338	0.439487	0.586620
Zn15	Zn	-0.820205	-0.079743	0.092468
Zn16	Zn	-0.320205	0.420257	0.592468
Zn17	Zn	-0.820223	0.079811	0.092463
Zn18	Zn	-0.320223	0.579811	0.592463
O19	O	-0.814360	-0.060507	0.193598
O20	O	-0.314360	0.439493	0.693598
C21	C	-0.693207	0.000030	0.097938
C22	C	-0.193207	0.500030	0.597938
C23	C	-0.616103	0.000028	0.096811
C24	C	-0.116103	0.500028	0.596811
C25	C	-0.052060	0.000022	0.151959
C26	C	0.447940	0.500022	0.651959
C27	C	-0.124507	0.000028	0.153024
C28	C	0.375493	0.500028	0.653024
C29	C	-0.169215	0.000022	0.090254
C30	C	0.330785	0.500022	0.590254
C31	C	-0.141472	0.000029	0.026415
C32	C	0.358528	0.500029	0.526415
C33	C	-0.069026	0.000031	0.025352
C34	C	0.430974	0.500031	0.525352
C35	C	-0.290482	-0.042409	0.043441
C36	C	0.209518	0.457591	0.543441
C37	C	-0.362926	-0.042415	0.044507
C38	C	0.137074	0.457585	0.544507
C39	C	-0.392661	0.000019	0.093530
C40	C	0.107339	0.500019	0.593530
C41	C	-0.349942	0.042451	0.141499
C42	C	0.150058	0.542451	0.641499
C43	C	-0.277497	0.042453	0.140436
C44	C	0.222503	0.542453	0.640436
C45	C	-0.247771	0.000020	0.091400
C46	C	0.252229	0.500020	0.591400
C47	C	-0.498951	0.000023	0.158520
C48	C	0.001049	0.500023	0.658520
C49	C	-0.571399	0.000033	0.159582
C50	C	-0.071399	0.500033	0.659582
C51	C	-0.588363	0.000027	0.032971
C52	C	-0.088363	0.500027	0.532971
C53	C	-0.515916	0.000024	0.031910
C54	C	-0.015916	0.500024	0.531910
C55	C	-0.471214	0.000019	0.094687
C56	C	0.028786	0.500019	0.594687
N57	N	-0.820198	-0.188634	0.092471
N58	N	-0.320198	0.311366	0.592471
C59	C	-0.862228	-0.773179	0.134468
C60	C	-0.362228	-0.273179	0.634468
C61	C	-0.862221	-0.696951	0.134474
C62	C	-0.362221	-0.196951	0.634474
C63	C	-0.820230	-0.658845	0.092455
C64	C	-0.320230	-0.158845	0.592455
C65	C	-0.778230	-0.696974	0.050440
C66	C	-0.278230	-0.196974	0.550440
C67	C	-0.778233	-0.773200	0.050440
C68	C	-0.278233	-0.273200	0.550440
C69	C	-0.818505	-0.538085	0.029831
C70	C	-0.318505	-0.038085	0.529831
C71	C	-0.818506	-0.461860	0.029830
C72	C	-0.318506	0.038140	0.529830
C73	C	-0.820216	-0.423738	0.092457
C74	C	-0.320216	0.076262	0.592457
C75	C	-0.821938	-0.461850	0.155087
C76	C	-0.321938	0.038150	0.655087
C77	C	-0.821941	-0.538077	0.155087
C78	C	-0.321941	-0.038077	0.655087
C79	C	-0.820221	-0.576191	0.092452
C80	C	-0.320221	-0.076191	0.592452
C81	C	-0.862202	-0.302963	0.134481
C82	C	-0.362202	0.197037	0.634481
C83	C	-0.862190	-0.226734	0.134489
C84	C	-0.362190	0.273266	0.634489
C85	C	-0.778203	-0.226759	0.050449
C86	C	-0.278203	0.273241	0.550449
C87	C	-0.778211	-0.302987	0.050447
C88	C	-0.278211	0.197013	0.550447
C89	C	-0.820214	-0.341084	0.092462
C90	C	-0.320214	0.158916	0.592462
C91	C	0.052779	0.000034	0.086996
C92	C	0.552779	0.500034	0.586996
C93	C	-0.024324	0.000026	0.088129
C94	C	0.475676	0.500026	0.588129
C95	C	-0.825686	0.000025	-0.034542
C96	C	-0.325686	0.500025	0.465458
C97	C	-0.824559	0.000023	-0.111646
C98	C	-0.324559	0.500023	0.388354
N99	N	-0.820236	0.188702	0.092455
N100	N	-0.320236	0.688702	0.592455
C101	C	-0.824041	0.066034	-0.147858
C102	C	-0.324041	0.566034	0.352142
C103	C	-0.822972	0.066039	-0.220304
C104	C	-0.322972	0.566039	0.279696
C105	C	-0.822436	0.000030	-0.256537
C106	C	-0.322436	0.500030	0.243463
C107	C	-0.822950	-0.065991	-0.220315
C108	C	-0.322950	0.434009	0.279685
C109	C	-0.824012	-0.065994	-0.147869
C110	C	-0.324012	0.434006	0.352131
C111	C	-0.861432	-0.050537	-0.376768
C112	C	-0.361432	0.449463	0.123232
C113	C	-0.860374	-0.050531	-0.449213
C114	C	-0.360374	0.449469	0.050787
C115	C	-0.819158	0.000038	-0.479982
C116	C	-0.319158	0.500038	0.020018
C117	C	-0.779008	0.050612	-0.438300
C118	C	-0.279008	0.550612	0.061700
C119	C	-0.780070	0.050608	-0.365854
C120	C	-0.280070	0.550608	0.134146
C121	C	-0.821284	0.000026	-0.335092
C122	C	-0.321284	0.500026	0.164908
C123	C	-0.817480	0.066059	-0.594749
C124	C	-0.317480	0.566059	-0.094749
C125	C	-0.816407	0.066062	-0.667196
C126	C	-0.316407	0.566062	-0.167196
C127	C	-0.816392	-0.065970	-0.667206
C128	C	-0.316392	0.434030	-0.167206
C129	C	-0.817458	-0.065970	-0.594760
C130	C	-0.317458	0.434030	-0.094760
C131	C	-0.818005	0.000046	-0.558536
C132	C	-0.318005	0.500046	-0.058536
C133	C	-0.814742	0.000045	0.219473
C134	C	-0.314742	0.500045	0.719473
C135	C	-0.815869	0.000052	0.296577
C136	C	-0.315869	0.500052	0.796577
H137	H	-0.624764	0.000028	-0.018138
H138	H	-0.124764	0.500028	0.481862
H139	H	-0.374151	0.077003	0.181420
H140	H	0.125849	0.577003	0.681420
H141	H	-0.896414	-0.665908	0.168689
H142	H	-0.396414	-0.165908	0.668689
H143	H	-0.817921	0.119814	-0.565254
H144	H	-0.317921	0.619814	-0.065254
H145	H	-0.397702	-0.076969	0.005451
H146	H	0.102298	0.423031	0.505451
Cl147	Cl	-0.915002	-0.350861	0.187302
Cl148	Cl	-0.415002	0.149139	0.687302
Cl149	Cl	-0.253113	-0.095718	-0.018228
Cl150	Cl	0.246887	0.404282	0.481772
H151	H	-0.823330	-0.430813	0.206084
H152	H	-0.323330	0.069187	0.706084
H153	H	-0.745446	0.091790	-0.463350
H154	H	-0.245446	0.591790	0.036650
H155	H	-0.817886	-0.119724	-0.565276
H156	H	-0.317886	0.380276	-0.065276
H157	H	-0.822512	-0.119736	-0.249820
H158	H	-0.322512	0.380264	0.250180
Cl159	Cl	-0.729595	0.114181	-0.313455
Cl160	Cl	-0.229595	0.614181	0.186545
H161	H	-0.896383	-0.195699	0.168706
H162	H	-0.396383	0.304301	0.668706
Cl163	Cl	-0.197676	0.000025	-0.052496
Cl164	Cl	0.302324	0.500025	0.447504
H165	H	-0.822546	0.119795	-0.249794
H166	H	-0.322546	0.619795	0.250206
Cl167	Cl	-0.159383	0.000021	0.233275
Cl168	Cl	0.340617	0.500021	0.733275
H169	H	-0.824484	0.119790	-0.118369
H170	H	-0.324484	0.619790	0.381631
Cl171	Cl	-0.725421	-0.350911	-0.002376
Cl172	Cl	-0.225421	0.149089	0.497624
H173	H	-0.823342	-0.569105	0.206082
H174	H	-0.323342	-0.069105	0.706082
Cl175	Cl	-0.913270	-0.114099	-0.338097
Cl176	Cl	-0.413270	0.385901	0.161903
H177	H	-0.815950	-0.119716	-0.696705
H178	H	-0.315950	0.380284	-0.196705
H179	H	-0.046446	0.000034	-0.026628
H180	H	0.453554	0.500034	0.473372
Cl181	Cl	-0.824663	-0.148987	-0.102342
Cl182	Cl	-0.324663	0.351013	0.397658
Cl183	Cl	-0.725408	-0.178862	-0.002370
Cl184	Cl	-0.225408	0.321138	0.497630
H185	H	-0.815981	0.119819	-0.696678
H186	H	-0.315981	0.619819	-0.196678
H187	H	-0.817109	-0.430834	-0.021167
H188	H	-0.317109	0.069166	0.478833
H189	H	-0.893069	-0.091709	-0.483146
H190	H	-0.393069	0.408291	0.016854
H191	H	-0.817106	-0.569117	-0.021171
H192	H	-0.317106	-0.069117	0.478829
Cl193	Cl	0.004133	0.000025	0.230878
Cl194	Cl	0.504133	0.500025	0.730878
H195	H	-0.744039	-0.665944	0.016230
H196	H	-0.244039	-0.165944	0.516230
H197	H	-0.744037	-0.804237	0.016227
H198	H	-0.244037	-0.304237	0.516227
H199	H	-0.493334	0.000023	-0.020068
H200	H	0.006666	0.500023	0.479932
H201	H	-0.242718	0.077003	0.179493
H202	H	0.257282	0.577003	0.679493
H203	H	-0.896429	-0.804193	0.168681
H204	H	-0.396429	-0.304193	0.668681
H205	H	-0.593979	0.000036	0.211563
H206	H	-0.093979	0.500036	0.711563
Cl207	Cl	-0.442751	0.000019	0.237437
Cl208	Cl	0.057249	0.500019	0.737437
