data_functionalizedCrystal
_audit_creation_method	'MofGen! by Chris Wilmer'
_symmetry_space_group_name_H-M	'P1'
_symmetry_Int_Tables_number	1
_symmetry_cell_setting	triclinic
loop_
_symmetry_equiv_pos_as_xyz
  x,y,z
_cell_length_a	13.897449
_cell_length_b	21.295417
_cell_length_c	13.897449
_cell_angle_alpha	90.015093
_cell_angle_beta	90.003875
_cell_angle_gamma	90.031786
loop_
_atom_site_label
_atom_site_type_symbol
_atom_site_fract_x
_atom_site_fract_y
_atom_site_fract_z
Zn1	Zn	1.474456	-0.250700	0.545342
Zn2	Zn	1.974456	0.249300	1.045342
Zn3	Zn	1.474362	-0.355940	0.384027
Zn4	Zn	1.974362	0.144060	0.884027
Zn5	Zn	1.313193	-0.250691	0.384060
Zn6	Zn	1.813193	0.249309	0.884060
Zn7	Zn	1.313091	-0.355938	0.545279
Zn8	Zn	1.813091	0.144062	1.045279
O9	O	1.393775	-0.303317	0.464677
O10	O	1.893775	0.196683	0.964677
O11	O	1.609425	-0.264665	0.523955
O12	O	2.109425	0.235335	1.023955
O13	O	1.452985	-0.341976	0.249050
O14	O	1.952985	0.158024	0.749050
O15	O	1.334667	-0.162603	0.405495
O16	O	1.834667	0.337397	0.905495
O17	O	1.609356	-0.341984	0.405438
O18	O	2.109356	0.158016	0.905438
O19	O	1.453146	-0.162610	0.523987
O20	O	1.953146	0.337390	1.023987
O21	O	1.334575	-0.264650	0.249074
O22	O	1.834575	0.235350	0.749074
O23	O	1.178198	-0.264647	0.405434
O24	O	1.678198	0.235353	0.905434
O25	O	1.334493	-0.341981	0.680269
O26	O	1.834493	0.158019	1.180269
O27	O	1.178123	-0.341972	0.523881
O28	O	1.678123	0.158028	1.023881
O29	O	1.453048	-0.264663	0.680315
O30	O	1.953048	0.235337	1.180315
O31	O	1.452886	-0.444029	0.405377
O32	O	1.952886	0.055971	0.905377
O33	O	1.334402	-0.444027	0.523849
O34	O	1.834402	0.055973	1.023849
C35	C	1.143161	-0.303309	0.464655
C36	C	1.643161	0.196691	0.964655
C37	C	1.035947	-0.303320	0.464668
C38	C	1.535947	0.196680	0.964668
C39	C	0.839652	-0.303323	0.464694
C40	C	1.339652	0.196677	0.964694
C41	C	0.948884	-0.303319	0.464677
C42	C	1.448884	0.196681	0.964677
C43	C	1.393649	-0.466869	0.464624
C44	C	1.893649	0.033131	0.964624
C45	C	1.393683	-0.536837	0.464633
C46	C	1.893683	-0.036837	0.964633
C47	C	1.455433	-0.569684	0.403008
C48	C	1.955433	-0.069684	0.903008
C49	C	1.455478	-0.635426	0.403030
C50	C	1.955478	-0.135426	0.903030
C51	C	1.393756	-0.668319	0.464666
C52	C	1.893756	-0.168319	0.964666
C53	C	1.332002	-0.635465	0.526303
C54	C	1.832002	-0.135465	1.026303
C55	C	1.331965	-0.569724	0.526287
C56	C	1.831965	-0.069724	1.026287
N57	N	1.309373	-0.771588	0.472012
N58	N	1.809373	-0.271588	0.972012
N59	N	1.309411	-0.834039	0.472022
N60	N	1.809411	-0.334039	0.972022
C61	C	1.393864	-0.866394	0.464722
C62	C	1.893864	-0.366394	0.964722
N63	N	1.478281	-0.833938	0.457391
N64	N	1.978281	-0.333938	0.957391
N65	N	1.478242	-0.771481	0.457376
N66	N	1.978242	-0.271481	0.957376
C67	C	1.393790	-0.739605	0.464692
C68	C	1.893790	-0.239605	0.964692
C69	C	1.455668	-0.970526	0.403117
C70	C	1.955668	-0.470526	0.903117
C71	C	1.455715	-1.036270	0.403145
C72	C	1.955715	-0.536270	0.903145
C73	C	1.332231	-1.036308	0.526414
C74	C	1.832231	-0.536308	1.026414
C75	C	1.332192	-0.970565	0.526390
C76	C	1.832192	-0.470565	1.026390
C77	C	1.393910	-0.937678	0.464737
C78	C	1.893910	-0.437678	0.964737
C79	C	1.645368	-0.303326	0.464700
C80	C	2.145368	0.196674	0.964700
C81	C	1.752582	-0.303330	0.464709
C82	C	2.252582	0.196670	0.964709
C83	C	1.393770	-0.303323	0.716270
C84	C	1.893770	0.196677	1.216270
C85	C	1.393767	-0.303325	0.823484
C86	C	1.893767	0.196675	1.323484
C87	C	1.393929	-0.139127	0.464752
C88	C	1.893929	0.360873	0.964752
C89	C	1.393994	-0.069159	0.464784
C90	C	1.893994	0.430841	0.964784
C91	C	1.393765	-0.303327	0.910554
C92	C	1.893765	0.196673	1.410554
C93	C	1.393764	-0.303324	1.019786
C94	C	1.893764	0.196676	1.519786
C95	C	1.393772	-0.303325	1.214063
C96	C	1.893772	0.196675	1.714063
C97	C	1.393769	-0.303319	1.106849
C98	C	1.893769	0.196681	1.606849
H99	H	1.505689	-0.542909	0.352809
H100	H	2.005689	-0.042909	0.852809
H101	H	1.506005	-1.063013	0.352965
H102	H	2.006005	-0.563013	0.852965
H103	H	1.505766	-0.662175	0.352848
H104	H	2.005766	-0.162175	0.852848
H105	H	1.281980	-1.063089	0.576604
H106	H	1.781980	-0.563089	1.076604
O107	O	1.272107	-0.938752	0.586274
O108	O	1.772107	-0.438752	1.086274
C109	C	1.149670	-0.945729	0.708576
C110	C	1.649670	-0.445729	1.208576
C111	C	1.217653	-0.981835	0.640785
C112	C	1.717653	-0.481835	1.140785
H113	H	1.105640	-0.980546	0.752680
H114	H	1.605640	-0.480546	1.252680
H115	H	1.099189	-0.915012	0.664280
H116	H	1.599189	-0.415012	1.164280
H117	H	1.193909	-0.914891	0.759004
H118	H	1.693909	-0.414891	1.259004
H119	H	1.173491	-1.012707	0.590344
H120	H	1.673491	-0.512707	1.090344
H121	H	1.268136	-1.012513	0.685141
H122	H	1.768136	-0.512513	1.185141
H123	H	1.281749	-0.662251	0.576490
H124	H	1.781749	-0.162251	1.076490
O125	O	1.515486	-0.938546	0.343136
O126	O	2.015486	-0.438546	0.843136
C127	C	1.528529	-0.864322	0.212936
C128	C	2.028529	-0.364322	0.712936
C129	C	1.460676	-0.900510	0.280788
C130	C	1.960676	-0.400510	0.780788
H131	H	1.484243	-0.833552	0.162524
H132	H	1.984243	-0.333552	0.662524
H133	H	1.572664	-0.899065	0.168827
H134	H	2.072664	-0.399065	0.668827
H135	H	1.578925	-0.833526	0.257281
H136	H	2.078925	-0.333526	0.757281
H137	H	1.410221	-0.931307	0.236517
H138	H	1.910221	-0.431307	0.736517
H139	H	1.416608	-0.865734	0.324900
H140	H	1.916608	-0.365734	0.824900
O141	O	1.271885	-0.537911	0.586180
O142	O	1.771885	-0.037911	1.086180
C143	C	1.149457	-0.544886	0.708491
C144	C	1.649457	-0.044886	1.208491
C145	C	1.217435	-0.580993	0.640697
C146	C	1.717435	-0.080993	1.140697
H147	H	1.105431	-0.579702	0.752600
H148	H	1.605431	-0.079702	1.252600
H149	H	1.098973	-0.514169	0.664198
H150	H	1.598973	-0.014169	1.164198
H151	H	1.193700	-0.514047	0.758914
H152	H	1.693700	-0.014047	1.258914
H153	H	1.173269	-0.611866	0.590260
H154	H	1.673269	-0.111866	1.090260
H155	H	1.267921	-0.611670	0.685050
H156	H	1.767921	-0.111670	1.185050
