data_functionalizedCrystal
_audit_creation_method	'MofGen! by Chris Wilmer'
_symmetry_space_group_name_H-M	'P1'
_symmetry_Int_Tables_number	1
_symmetry_cell_setting	triclinic
loop_
_symmetry_equiv_pos_as_xyz
  x,y,z
_cell_length_a	19.288864
_cell_length_b	15.944551
_cell_length_c	17.766277
_cell_angle_alpha	89.992686
_cell_angle_beta	89.976791
_cell_angle_gamma	83.317492
loop_
_atom_site_label
_atom_site_type_symbol
_atom_site_fract_x
_atom_site_fract_y
_atom_site_fract_z
O1	O	0.921629	0.104784	-0.062837
O2	O	0.719406	0.118919	-0.062786
O3	O	0.826040	-0.010445	-0.062806
O4	O	0.814995	0.234147	-0.062817
O5	O	0.826021	-0.010451	0.062382
O6	O	0.719387	0.118912	0.062403
O7	O	0.921610	0.104777	0.062351
Cu8	Cu	0.820497	0.111844	0.073808
Cu9	Cu	0.820519	0.111852	-0.074242
O10	O	0.814976	0.234141	0.062372
C11	C	0.693519	0.118461	-0.000185
C12	C	0.616411	0.117095	-0.000165
C13	C	0.825572	-0.041740	-0.000212
C14	C	0.824197	-0.134981	-0.000211
C15	C	0.571915	0.193000	-0.000181
C16	C	0.499465	0.191717	-0.000189
C17	C	0.471514	0.114526	-0.000197
C18	C	0.516020	0.038611	-0.000178
C19	C	0.588469	0.039896	-0.000162
C20	C	0.363099	0.053847	-0.044079
C21	C	0.290651	0.052565	-0.044099
C22	C	0.248058	0.110560	-0.000242
C23	C	0.277920	0.169850	0.043625
C24	C	0.350369	0.171135	0.043641
C25	C	0.392956	0.113124	-0.000214
C26	C	0.125002	0.185079	-0.000265
C27	C	0.052550	0.183793	-0.000269
C28	C	0.069107	0.030684	-0.000265
C29	C	0.141557	0.031972	-0.000254
C30	C	0.169500	0.109172	-0.000258
C31	C	0.754815	-0.349571	-0.000204
C32	C	0.787024	-0.410715	0.061514
C33	C	0.821710	-0.305697	-0.000216
C34	C	0.787059	-0.410692	-0.061912
C35	C	0.819303	-0.470601	-0.000224
C36	C	0.853938	-0.365614	0.061552
C37	C	0.853963	-0.365585	-0.061929
C38	C	0.886222	-0.426712	-0.000197
C39	C	0.823095	-0.210700	-0.000211
C40	C	0.817924	-0.565597	-0.000224
C41	C	0.947497	0.105235	-0.000251
C42	C	1.024605	0.106600	-0.000276
C43	C	0.815444	0.265436	-0.000225
C44	C	0.816819	0.358677	-0.000230
N45	N	0.820486	0.111838	0.177938
N46	N	0.820535	0.111851	-0.178373
C47	C	0.867719	0.054584	0.217316
C48	C	0.867723	0.054580	0.296118
C49	C	0.820501	0.111845	0.335539
C50	C	0.773259	0.169103	0.296151
C51	C	0.773252	0.169100	0.217351
C52	C	0.811404	0.188378	0.460375
C53	C	0.811416	0.188382	0.539173
C54	C	0.820520	0.111855	0.578585
C55	C	0.829626	0.035319	0.539188
C56	C	0.829618	0.035316	0.460387
C57	C	0.820503	0.111854	0.420984
C58	C	0.867759	0.054592	0.703409
C59	C	0.867759	0.054587	0.782212
C60	C	0.773298	0.169117	0.782244
C61	C	0.773295	0.169115	0.703442
C62	C	0.820530	0.111853	0.664029
H63	H	0.594661	0.255862	-0.000185
C64	C	0.721346	0.232105	0.660124
H65	H	0.693226	0.266215	0.694886
H66	H	0.692431	0.201979	0.629403
H67	H	0.746335	0.266995	0.629368
H68	H	0.758722	-0.430717	0.113705
C69	C	0.450507	0.275213	-0.000209
H70	H	0.403357	0.263389	-0.000214
H71	H	0.459003	0.306877	-0.043865
H72	H	0.458952	0.306879	0.043452
C73	C	0.919719	-0.008395	0.825528
H74	H	0.947851	-0.042490	0.790766
H75	H	0.894742	-0.043288	0.856287
H76	H	0.948631	0.021744	0.856247
H77	H	0.734846	0.215740	0.814340
H78	H	0.882201	-0.345735	0.113786
C79	C	0.485280	-0.046300	-0.000188
H80	H	0.522161	-0.091324	-0.000171
H81	H	0.457387	-0.049983	-0.043850
H82	H	0.457338	-0.049984	0.043467
H83	H	0.758764	-0.430657	-0.114093
C84	C	0.801401	0.272564	0.582507
H85	H	0.802717	0.261607	0.635081
H86	H	0.757593	0.302647	0.569613
H87	H	0.837725	0.305369	0.569565
H88	H	0.374680	0.219409	0.079362
C89	C	0.801394	0.272564	0.417029
H90	H	0.795984	0.318144	0.451777
H91	H	0.760951	0.274393	0.386309
H92	H	0.841085	0.277095	0.386270
C93	C	0.961294	-0.471805	-0.000170
H94	H	0.984935	-0.456386	0.043710
H95	H	0.985239	-0.455671	-0.043607
H96	H	0.960018	-0.531185	-0.000579
H97	H	0.734809	0.215728	0.328251
H98	H	0.147754	0.247939	-0.000257
H99	H	0.882241	-0.345560	-0.114123
C100	C	0.721299	0.232088	0.174033
H101	H	0.693176	0.266197	0.208794
H102	H	0.692386	0.201962	0.143309
H103	H	0.746288	0.266980	0.143279
C104	C	0.919667	-0.008410	0.173966
H105	H	0.947794	-0.042515	0.208709
H106	H	0.948577	0.021711	0.143202
H107	H	0.894674	-0.043306	0.143250
C108	C	0.257809	-0.012653	-0.092347
H109	H	0.293551	-0.047020	-0.118453
H110	H	0.226426	0.015878	-0.127626
H111	H	0.233197	-0.047069	-0.060722
C112	C	0.231077	0.233652	0.091866
H113	H	0.183653	0.224393	0.085580
H114	H	0.236951	0.289435	0.076441
H115	H	0.243721	0.226479	0.143339
C116	C	0.637420	-0.043601	-0.000151
H117	H	0.684570	-0.031779	-0.000138
H118	H	0.628970	-0.075265	-0.043807
H119	H	0.628926	-0.075265	0.043511
C120	C	0.919682	-0.008400	0.339443
H121	H	0.947814	-0.042501	0.304684
H122	H	0.894703	-0.043289	0.370204
H123	H	0.948596	0.021740	0.370160
H124	H	0.837031	-0.027001	0.428314
C125	C	0.003604	0.267293	-0.000286
H126	H	0.030625	0.313450	-0.000293
H127	H	-0.025027	0.269978	0.043364
H128	H	-0.024979	0.269970	-0.043953
H129	H	0.906219	0.007963	0.671318
C130	C	0.038370	-0.054225	-0.000279
H131	H	-0.011151	-0.044121	-0.000296
H132	H	0.053620	-0.085476	0.043378
H133	H	0.053669	-0.085460	-0.043940
C134	C	0.409947	-0.009951	-0.092321
H135	H	0.457372	-0.000701	-0.086024
H136	H	0.397306	-0.002778	-0.143791
H137	H	0.404074	-0.065738	-0.076896
C138	C	0.190508	-0.051521	-0.000249
H139	H	0.237659	-0.039701	-0.000233
H140	H	0.182059	-0.083183	-0.043906
H141	H	0.182013	-0.083188	0.043411
C142	C	0.679808	-0.304279	-0.000104
H143	H	0.656145	-0.319613	0.043815
H144	H	0.655811	-0.320356	-0.043501
H145	H	0.681197	-0.244918	-0.000547
H146	H	0.837039	-0.026997	0.571275
