data_functionalizedCrystal
_audit_creation_method	'MofGen! by Chris Wilmer'
_symmetry_space_group_name_H-M	'P1'
_symmetry_Int_Tables_number	1
_symmetry_cell_setting	triclinic
loop_
_symmetry_equiv_pos_as_xyz
  x,y,z
_cell_length_a	19.805407
_cell_length_b	15.297327
_cell_length_c	19.805399
_cell_angle_alpha	80.350583
_cell_angle_beta	90.019573
_cell_angle_gamma	99.707092
loop_
_atom_site_label
_atom_site_type_symbol
_atom_site_fract_x
_atom_site_fract_y
_atom_site_fract_z
Zn1	Zn	0.988098	-0.359189	0.429336
Zn2	Zn	0.968423	-0.510058	0.335728
Zn3	Zn	0.874909	-0.359214	0.316164
Zn4	Zn	0.855293	-0.510010	0.448869
O5	O	0.921681	-0.434618	0.382524
O6	O	1.080203	-0.379212	0.416932
O7	O	0.955994	-0.490079	0.238420
O8	O	0.906367	-0.232963	0.314814
O9	O	1.065749	-0.490055	0.348159
O10	O	0.989526	-0.232945	0.397962
O11	O	0.887290	-0.379254	0.224047
O12	O	0.777592	-0.379208	0.333754
O13	O	0.872934	-0.489973	0.540990
O14	O	0.763180	-0.489997	0.431252
O15	O	0.970505	-0.379166	0.526640
O16	O	0.936973	-0.636300	0.367099
O17	O	0.853857	-0.636265	0.450222
C18	C	0.745827	-0.434601	0.382500
C19	C	0.670593	-0.434615	0.382509
C20	C	0.627751	-0.492390	0.433217
C21	C	0.557063	-0.492392	0.433227
C22	C	0.529217	-0.434622	0.382525
C23	C	0.572065	-0.376841	0.331814
C24	C	0.642752	-0.376835	0.331808
C25	C	0.286989	-0.376861	0.331839
C26	C	0.216295	-0.376873	0.331848
C27	C	0.201299	-0.492417	0.433258
C28	C	0.271987	-0.492412	0.433252
C29	C	0.314829	-0.434627	0.382543
C30	C	0.391477	-0.434625	0.382534
C31	C	0.452569	-0.434628	0.382531
C32	C	0.891170	-0.669017	0.412918
C33	C	0.878179	-0.769294	0.425943
C34	C	1.014807	-1.051906	0.289663
C35	C	1.027012	-0.957691	0.277422
C36	C	0.989805	-0.910587	0.314551
C37	C	0.940391	-0.957708	0.363923
C38	C	0.928180	-1.051932	0.376162
C39	C	0.903178	-0.910613	0.401050
C40	C	0.853764	-0.957734	0.450423
C41	C	0.841556	-1.051949	0.462659
C42	C	0.878763	-1.099053	0.425530
C43	C	0.915389	-0.816389	0.388812
C44	C	0.828762	-0.816415	0.475311
C45	C	0.816557	-0.910630	0.487552
C46	C	1.098221	-0.434636	0.382549
C47	C	1.173452	-0.434644	0.382559
C48	C	0.921726	-0.434561	0.559060
C49	C	0.921746	-0.434537	0.634289
C50	C	0.952329	-0.199304	0.352027
C51	C	0.965390	-0.099027	0.339031
C52	C	0.921683	-0.434610	0.206667
C53	C	0.921828	-0.434380	0.131406
C54	C	0.972552	-0.376837	0.662161
C55	C	0.972562	-0.376810	0.732846
C56	C	0.921768	-0.434490	0.775658
C57	C	0.870957	-0.492193	0.747781
C58	C	0.870944	-0.492214	0.677096
C59	C	0.871006	-0.492109	1.032843
C60	C	0.871024	-0.492085	1.103533
C61	C	0.972624	-0.376705	1.088593
C62	C	0.972612	-0.376726	1.017909
C63	C	0.921798	-0.434426	0.990037
C64	C	0.921787	-0.434452	0.913392
C65	C	0.921782	-0.434469	0.852303
H66	H	0.650417	-0.539436	0.474502
C67	C	1.003279	-0.806950	0.301168
C68	C	0.945001	-0.755100	0.277008
C69	C	0.958501	-0.651458	0.263663
C70	C	1.030279	-0.599666	0.274477
C71	C	1.088562	-0.651515	0.298639
C72	C	1.075062	-0.755157	0.311984
H73	H	0.891862	-0.793440	0.269001
H74	H	0.915356	-0.613076	0.245777
H75	H	1.040273	-0.522944	0.264598
H76	H	1.141701	-0.613175	0.306645
H77	H	1.118207	-0.793539	0.329870
H78	H	1.013975	-0.329761	0.983054
H79	H	0.829566	-0.539190	0.654403
C80	C	0.815107	-0.555548	1.002172
C81	C	0.835178	-0.626387	0.962740
C82	C	0.779272	-0.689814	0.932056
C83	C	0.703296	-0.682403	0.940805
C84	C	0.683222	-0.611562	0.980240
C85	C	0.739128	-0.548134	1.010923
H86	H	0.891423	-0.631876	0.956262
H87	H	0.794133	-0.742256	0.902865
H88	H	0.661912	-0.729356	0.918092
H89	H	0.626977	-0.606073	0.986718
H90	H	0.724267	-0.495693	1.040115
C91	C	0.787832	-0.764610	0.516159
C92	C	0.791641	-0.777495	0.594783
C93	C	0.750713	-0.725683	0.635626
C94	C	0.705978	-0.660986	0.597845
C95	C	0.702167	-0.648098	0.519217
C96	C	0.743095	-0.699910	0.478374
H97	H	0.824758	-0.825390	0.622755
H98	H	0.753534	-0.735224	0.693832
H99	H	0.675681	-0.622632	0.628080
H100	H	0.669050	-0.600203	0.491245
H101	H	0.740274	-0.690369	0.420168
C102	C	1.028427	-0.313387	0.615071
C103	C	1.036261	-0.210823	0.611497
C104	C	1.092136	-0.147369	0.564408
C105	C	1.140178	-0.186479	0.520893
C106	C	1.132345	-0.289049	0.524465
C107	C	1.076470	-0.352502	0.571554
H108	H	1.000697	-0.181867	0.643711
H109	H	1.097934	-0.071441	0.561764
H110	H	1.181540	-0.139507	0.486035
H111	H	1.167910	-0.318005	0.492251
H112	H	1.070672	-0.428431	0.574198
H113	H	0.955622	-0.778031	0.348612
C114	C	1.055727	-1.103723	0.248824
C115	C	1.018016	-1.168572	0.204086
C116	C	1.058938	-1.220391	0.163243
C117	C	1.137570	-1.207361	0.167138
C118	C	1.175285	-1.142509	0.211878
C119	C	1.134363	-1.090690	0.252721
H120	H	0.959804	-1.178220	0.201201
H121	H	1.031018	-1.268399	0.130124
H122	H	1.167862	-1.245720	0.136904
H123	H	1.233497	-1.132860	0.214764
H124	H	1.162283	-1.042682	0.285841
C125	C	0.302616	-0.555957	0.489026
C126	C	0.279548	-0.658510	0.496680
C127	C	0.310176	-0.722054	0.552457
C128	C	0.363871	-0.683046	0.600581
C129	C	0.386941	-0.580488	0.592929
C130	C	0.356313	-0.516944	0.537151
H131	H	0.239798	-0.687391	0.461054
H132	H	0.293098	-0.797974	0.558122
H133	H	0.386543	-0.730085	0.641871
H134	H	0.426692	-0.551607	0.628554
H135	H	0.373392	-0.441024	0.531487
H136	H	0.776322	-0.949009	0.527751
C137	C	1.081368	-0.905866	0.223117
C138	C	1.074200	-0.918898	0.147860
C139	C	1.128560	-0.867074	0.093553
C140	C	1.190088	-0.802217	0.114502
C141	C	1.197259	-0.789182	0.189762
C142	C	1.142899	-0.841006	0.244070
H143	H	1.028651	-0.966912	0.132349
H144	H	1.123251	-0.876724	0.037840
H145	H	1.230329	-0.763854	0.074300
H146	H	1.242808	-0.741168	0.205273
H147	H	1.148207	-0.831356	0.299782
H148	H	0.166408	-0.539464	0.474549
C149	C	0.815142	-0.555530	1.150627
C150	C	0.759246	-0.618993	1.119971
C151	C	0.703368	-0.682433	1.167065
C152	C	0.703386	-0.682410	1.244816
C153	C	0.759284	-0.618944	1.275475
C154	C	0.815162	-0.555504	1.228381
H155	H	0.759230	-0.619012	1.062412
H156	H	0.661988	-0.729415	1.144368
H157	H	0.662022	-0.729372	1.279678
H158	H	0.759300	-0.618925	1.333034
H159	H	0.856542	-0.508522	1.251078
C160	C	0.334105	-0.313326	0.276045
C161	C	0.303471	-0.249803	0.220263
C162	C	0.350590	-0.186275	0.164459
C163	C	0.428344	-0.186271	0.164437
C164	C	0.458982	-0.249797	0.220221
C165	C	0.411863	-0.313324	0.276025
H166	H	0.245909	-0.249804	0.220278
H167	H	0.327909	-0.139249	0.123165
H168	H	0.463224	-0.139244	0.123128
H169	H	0.516544	-0.249796	0.220206
H170	H	0.434544	-0.360350	0.317319
H171	H	0.522183	-0.539439	0.474518
C172	C	0.787195	-1.103780	0.516965
C173	C	0.711922	-1.090908	0.509700
C174	C	0.657560	-1.142735	0.564006
C175	C	0.678473	-1.207435	0.625576
C176	C	0.753750	-1.220310	0.632843
C177	C	0.808112	-1.168482	0.578537
H178	H	0.696438	-1.043011	0.464120
H179	H	0.601835	-1.133204	0.558626
H180	H	0.638232	-1.245801	0.665776
H181	H	0.769234	-1.268207	0.678423
H182	H	0.863837	-1.178013	0.583917
H183	H	1.013936	-0.329827	0.755537
H184	H	0.193626	-0.329824	0.290560
C185	C	0.689883	-0.313282	0.276029
C186	C	0.693510	-0.210733	0.268385
C187	C	0.740642	-0.147173	0.212608
C188	C	0.784146	-0.186163	0.164475
C189	C	0.780520	-0.288717	0.172116
C190	C	0.733389	-0.352277	0.227894
H191	H	0.661305	-0.181865	0.304018
H192	H	0.743326	-0.071255	0.206952
H193	H	0.819035	-0.139112	0.123185
H194	H	0.812725	-0.317585	0.136484
H195	H	0.730705	-0.428195	0.233550
H196	H	0.549387	-0.329800	0.290534
H197	H	0.868830	-1.175770	0.435496
H198	H	1.013997	-0.329721	1.111294
H199	H	0.829597	-0.539153	0.782644
