data_functionalizedCrystal
_audit_creation_method	'MofGen! by Chris Wilmer'
_symmetry_space_group_name_H-M	'P1'
_symmetry_Int_Tables_number	1
_symmetry_cell_setting	triclinic
loop_
_symmetry_equiv_pos_as_xyz
  x,y,z
_cell_length_a	27.731993
_cell_length_b	27.731996
_cell_length_c	14.586319
_cell_angle_alpha	90.010304
_cell_angle_beta	89.992595
_cell_angle_gamma	82.620891
loop_
_atom_site_label
_atom_site_type_symbol
_atom_site_fract_x
_atom_site_fract_y
_atom_site_fract_z
O1	O	0.640934	0.057393	0.076005
O2	O	0.500135	0.066166	0.076063
O3	O	0.574920	-0.008620	0.076013
O4	O	0.566148	0.132179	0.076056
O5	O	0.574914	-0.008622	-0.076468
O6	O	0.500129	0.066164	-0.076418
O7	O	0.640928	0.057391	-0.076475
Cu8	Cu	0.570528	0.061777	-0.090369
Cu9	Cu	0.570535	0.061779	0.089957
O10	O	0.566142	0.132177	-0.076425
C11	C	0.482124	0.065985	-0.000170
C12	C	0.428468	0.065443	-0.000149
C13	C	0.045312	0.061513	0.082922
C14	C	0.246969	0.063580	0.082948
O15	O	0.273045	0.063829	0.153638
N16	N	0.272186	0.063838	-0.000167
C17	C	0.246986	0.063575	-0.083295
O18	O	0.273062	0.063837	-0.153989
C19	C	0.045330	0.061505	-0.083320
C20	C	0.020115	0.061252	-0.000199
C21	C	0.020097	0.061260	0.166036
C22	C	-0.030315	0.060746	0.166029
C23	C	-0.055511	0.060485	0.082908
C24	C	-0.030296	0.060738	-0.000206
C25	C	0.020132	0.061239	-0.166446
C26	C	-0.030285	0.060720	-0.166445
C27	C	-0.055500	0.060467	-0.083324
C28	C	-0.105904	0.059963	-0.083334
N29	N	-0.131121	0.059705	-0.000219
C30	C	-0.105925	0.059966	0.082902
C31	C	0.352858	0.064663	-0.083276
C32	C	0.403271	0.065182	-0.083270
C33	C	0.403251	0.065186	0.082973
C34	C	0.352836	0.064671	0.082966
C35	C	0.327641	0.064406	-0.000161
C36	C	-0.211793	0.058887	0.082881
C37	C	-0.262209	0.058375	0.082866
C38	C	-0.262184	0.058369	-0.083377
C39	C	-0.211773	0.058883	-0.083363
C40	C	-0.186578	0.059141	-0.000227
O41	O	-0.132011	0.059709	-0.153987
O42	O	-0.132009	0.059694	0.153586
C43	C	0.095723	0.062027	0.082930
C44	C	0.120938	0.062280	-0.000184
C45	C	0.095742	0.062019	-0.083306
C46	C	0.171352	0.062799	-0.000178
C47	C	0.196549	0.063060	0.082943
C48	C	0.171332	0.062802	0.166058
C49	C	0.120920	0.062288	0.166051
C50	C	0.120959	0.062277	-0.166421
C51	C	0.171370	0.062792	-0.166407
C52	C	0.196567	0.063053	-0.083286
C53	C	0.574737	-0.026628	-0.000231
C54	C	0.574194	-0.080284	-0.000240
C55	C	0.570783	-0.412999	0.082923
C56	C	0.568721	-0.614657	0.082940
O57	O	0.568437	-0.640727	0.153629
N58	N	0.568462	-0.639875	-0.000176
C59	C	0.568715	-0.614675	-0.083302
O60	O	0.568442	-0.640751	-0.153998
C61	C	0.570773	-0.413018	-0.083318
C62	C	0.571037	-0.387803	-0.000197
C63	C	0.571046	-0.387784	0.166039
C64	C	0.571564	-0.337373	0.166033
C65	C	0.571818	-0.312177	0.082913
C66	C	0.571555	-0.337392	-0.000202
C67	C	0.571022	-0.387818	-0.166444
C68	C	0.571535	-0.337400	-0.166441
C69	C	0.571799	-0.312186	-0.083319
C70	C	0.572327	-0.261785	-0.083327
N71	N	0.572586	-0.236567	-0.000211
C72	C	0.572332	-0.261763	0.082910
C73	C	0.567636	-0.720548	-0.083288
C74	C	0.567122	-0.770962	-0.083284
C75	C	0.567128	-0.770941	0.082959
C76	C	0.567645	-0.720526	0.082954
C77	C	0.567895	-0.695330	-0.000172
C78	C	0.573420	-0.155896	0.082893
C79	C	0.573940	-0.105481	0.082880
C80	C	0.573932	-0.105506	-0.083363
C81	C	0.573414	-0.155918	-0.083351
C82	C	0.573157	-0.181111	-0.000216
O83	O	0.572606	-0.235683	-0.153979
O84	O	0.572594	-0.235677	0.153594
C85	C	0.570265	-0.463410	0.082929
C86	C	0.570001	-0.488625	-0.000186
C87	C	0.570255	-0.463429	-0.083307
C88	C	0.569488	-0.539039	-0.000183
C89	C	0.569233	-0.564236	0.082937
C90	C	0.569492	-0.539017	0.166054
C91	C	0.570010	-0.488606	0.166049
C92	C	0.569996	-0.488647	-0.166423
C93	C	0.569479	-0.539058	-0.166411
C94	C	0.569225	-0.564254	-0.083291
C95	C	0.658938	0.057572	-0.000240
C96	C	0.712594	0.058114	-0.000255
C97	C	0.566325	0.150185	-0.000179
C98	C	0.566868	0.203841	-0.000164
N99	N	0.570526	0.061776	-0.217201
C100	C	0.603654	0.028671	-0.548217
C101	C	0.603653	0.028671	-0.452236
C102	C	0.537411	0.094885	-0.452202
C103	C	0.537414	0.094887	-0.548181
C104	C	0.570536	0.061777	-0.596187
C105	C	0.570531	0.061776	-0.404226
C106	C	0.570529	0.061776	-0.300159
C107	C	0.570538	0.061777	-0.700260
N108	N	0.570540	0.061777	0.216789
H109	H	0.100394	0.062082	0.233736
C110	C	0.047805	0.061546	0.257485
N111	N	0.068671	0.061764	0.326369
H112	H	0.510445	0.121848	-0.587241
C113	C	-0.058043	0.060457	0.257470
N114	N	-0.078925	0.060236	0.326347
H115	H	0.630621	0.001714	-0.413182
C116	C	0.570298	-0.460876	0.257490
N117	N	0.570512	-0.439993	0.326369
C118	C	0.640090	-0.007748	-0.601019
N119	N	0.667536	-0.035180	-0.640788
C120	C	0.573145	-0.183602	0.174345
N121	N	0.572943	-0.204471	0.243228
H122	H	-0.282737	0.058171	0.150556
H123	H	0.423796	0.065396	-0.150956
C124	C	-0.184087	0.059173	0.174335
N125	N	-0.163219	0.059392	0.243218
C126	C	0.325105	0.064387	0.174404
N127	N	0.304221	0.064172	0.243280
H128	H	0.510443	0.121842	-0.413106
C129	C	0.430977	0.065469	0.174407
N130	N	0.451863	0.065678	0.243271
H131	H	0.191855	0.063017	0.233738
H132	H	-0.282709	0.058158	-0.151052
C133	C	0.567931	-0.692794	0.174394
N134	N	0.568145	-0.671908	0.243270
H135	H	0.570837	-0.408293	0.233729
C136	C	0.325148	0.064382	-0.174729
N137	N	0.304279	0.064176	-0.243612
C138	C	0.574207	-0.077780	-0.174790
N139	N	0.574409	-0.056895	-0.243654
C140	C	0.574229	-0.077747	0.174324
N141	N	0.574445	-0.056860	0.243199
C142	C	0.566844	-0.798665	0.174392
N143	N	0.566626	-0.819549	0.243255
C144	C	0.570278	-0.460938	-0.257867
N145	N	0.570493	-0.440071	-0.326749
C146	C	-0.057997	0.060432	-0.257894
N147	N	-0.078869	0.060217	-0.326773
C148	C	0.047858	0.061512	-0.257887
N149	N	0.068740	0.061716	-0.326767
H150	H	-0.191243	0.059099	-0.151046
H151	H	0.566915	-0.791489	-0.150971
C152	C	0.571813	-0.309688	-0.257888
N153	N	0.572023	-0.288817	-0.326767
C154	C	0.571849	-0.309643	0.257475
N155	N	0.572062	-0.288759	0.326354
H156	H	0.567842	-0.700039	-0.150983
H157	H	0.100449	0.062062	-0.234110
C158	C	0.199101	0.063070	-0.257853
N159	N	0.219987	0.063274	-0.326729
C160	C	0.569211	-0.566743	0.257486
N161	N	0.568996	-0.587628	0.326349
H162	H	0.570808	-0.408339	-0.234131
C163	C	0.573129	-0.183655	-0.174788
N164	N	0.572909	-0.204543	-0.243661
H165	H	0.569268	-0.559584	-0.234104
