data_functionalizedCrystal
_audit_creation_method	'MofGen! by Chris Wilmer'
_symmetry_space_group_name_H-M	'P1'
_symmetry_Int_Tables_number	1
_symmetry_cell_setting	triclinic
loop_
_symmetry_equiv_pos_as_xyz
  x,y,z
_cell_length_a	19.288835
_cell_length_b	15.186229
_cell_length_c	19.288865
_cell_angle_alpha	89.994486
_cell_angle_beta	83.130103
_cell_angle_gamma	89.985929
loop_
_atom_site_label
_atom_site_type_symbol
_atom_site_fract_x
_atom_site_fract_y
_atom_site_fract_z
O1	O	-0.921363	0.073411	-0.086543
O2	O	-0.719100	0.073377	-0.098254
O3	O	-0.826076	0.073377	0.008732
O4	O	-0.814387	0.073410	-0.193530
O5	O	-0.826063	-0.073080	0.008726
O6	O	-0.719087	-0.073081	-0.098260
O7	O	-0.921351	-0.073046	-0.086550
Zn8	Zn	-0.820217	-0.096317	-0.092406
Zn9	Zn	-0.820233	0.096647	-0.092398
O10	O	-0.814374	-0.073047	-0.193536
C11	C	-0.693217	0.000143	-0.097884
C12	C	-0.616112	0.000129	-0.096763
N13	N	-0.820211	-0.228009	-0.092411
C14	C	-0.579915	0.079964	-0.096221
C15	C	-0.507468	0.079973	-0.095161
C16	C	-0.471222	0.000142	-0.094628
C17	C	-0.507427	-0.079704	-0.095173
C18	C	-0.579872	-0.079710	-0.096241
C19	C	-0.361889	-0.061017	-0.052254
C20	C	-0.289446	-0.061007	-0.051182
C21	C	-0.247778	0.000158	-0.091338
C22	C	-0.278563	0.061328	-0.132556
C23	C	-0.351008	0.061322	-0.133624
C24	C	-0.392668	0.000140	-0.093470
C25	C	-0.133026	0.080008	-0.089647
C26	C	-0.060577	0.080013	-0.088590
C27	C	-0.060539	-0.079666	-0.088596
C28	C	-0.132985	-0.079669	-0.089660
C29	C	-0.169225	0.000171	-0.090181
C30	C	-0.862217	-0.453717	-0.134416
C31	C	-0.862225	-0.545907	-0.134411
C32	C	-0.778237	-0.545946	-0.050378
C33	C	-0.778234	-0.453758	-0.050379
C34	C	-0.820222	-0.407646	-0.092402
C35	C	-0.820233	-0.592024	-0.092396
C36	C	-0.820241	-0.691980	-0.092390
C37	C	-0.820216	-0.307683	-0.092407
C38	C	0.052767	0.000182	-0.086924
C39	C	-0.024336	0.000181	-0.088059
C40	C	-0.825694	0.000146	0.034606
C41	C	-0.824565	0.000138	0.111709
N42	N	-0.820245	0.228340	-0.092387
C43	C	-0.814757	0.000186	-0.219409
C44	C	-0.815886	0.000200	-0.296513
C45	C	-0.887333	0.000145	0.156412
C46	C	-0.886273	0.000158	0.228859
C47	C	-0.822440	0.000148	0.256600
C48	C	-0.759663	0.000146	0.211887
C49	C	-0.760725	0.000142	0.139441
C50	C	-0.772255	-0.051161	0.364880
C51	C	-0.771195	-0.051162	0.437324
C52	C	-0.819160	0.000167	0.480045
C53	C	-0.868196	0.051485	0.450314
C54	C	-0.869259	0.051480	0.377869
C55	C	-0.821280	0.000154	0.335154
C56	C	-0.880783	0.000190	0.603304
C57	C	-0.879720	0.000209	0.675752
C58	C	-0.753108	0.000188	0.658778
C59	C	-0.754173	0.000178	0.586332
C60	C	-0.818012	0.000174	0.558599
H61	H	-0.609417	0.144976	-0.096647
F62	F	-0.171511	-0.164641	-0.090232
H63	H	-0.477991	0.144986	-0.094721
F64	F	-0.906909	-0.404644	-0.179136
H65	H	-0.031106	0.145027	-0.088154
F66	F	-0.406229	-0.126123	-0.009514
H67	H	-0.939316	0.000145	0.133837
H68	H	-0.477911	-0.144703	-0.094741
H69	H	-0.744051	-0.583501	-0.016165
H70	H	-0.896422	-0.583414	-0.168621
H71	H	-0.744036	-0.416246	-0.016163
F72	F	-0.719009	-0.105782	0.468959
F73	F	-0.953082	0.000167	0.276444
H74	H	-0.031028	-0.144666	-0.088166
F75	F	-0.948725	0.000182	0.573786
F76	F	-0.921442	0.106099	0.346229
F77	F	-0.383768	0.126419	-0.177492
H78	H	-0.264388	-0.110812	-0.017617
F79	F	-0.618397	-0.164685	-0.096818
F80	F	-0.919248	0.106119	0.495775
F81	F	-0.946531	0.000222	0.723329
H82	H	-0.701133	0.000184	0.681363
F83	F	-0.687365	0.000167	0.538753
H84	H	-0.733194	-0.092965	0.330101
F85	F	-0.691727	0.000141	0.241411
H86	H	-0.709609	0.000136	0.103043
H87	H	-0.162533	0.145018	-0.090079
F88	F	-0.234222	0.126428	-0.175298
