data_functionalizedCrystal
_audit_creation_method	'MofGen! by Chris Wilmer'
_symmetry_space_group_name_H-M	'P1'
_symmetry_Int_Tables_number	1
_symmetry_cell_setting	triclinic
loop_
_symmetry_equiv_pos_as_xyz
  x,y,z
_cell_length_a	19.188930
_cell_length_b	17.666332
_cell_length_c	19.188930
_cell_angle_alpha	89.988397
_cell_angle_beta	96.855221
_cell_angle_gamma	90.023234
loop_
_atom_site_label
_atom_site_type_symbol
_atom_site_fract_x
_atom_site_fract_y
_atom_site_fract_z
O1	O	0.926150	0.063200	-0.087169
O2	O	0.722838	0.063149	-0.098903
O3	O	0.830361	0.063161	0.008620
O4	O	0.818627	0.063188	-0.194692
O5	O	0.830342	-0.062735	0.008625
O6	O	0.722820	-0.062747	-0.098897
O7	O	0.926131	-0.062697	-0.087163
Cu8	Cu	0.824473	-0.074217	-0.093030
Cu9	Cu	0.824496	0.074670	-0.093036
O10	O	0.818608	-0.062709	-0.194686
C11	C	0.696818	0.000194	-0.098520
C12	C	0.619313	0.000174	-0.097380
N13	N	0.824463	-0.178937	-0.093025
C14	C	0.574389	0.000194	-0.160470
C15	C	0.501566	0.000203	-0.159399
C16	C	0.473669	0.000206	-0.095233
C17	C	0.518603	0.000181	-0.032133
C18	C	0.591425	0.000166	-0.033207
N19	N	0.365695	0.043078	-0.046188
N20	N	0.296517	0.043095	-0.045172
C21	C	0.254260	0.000252	-0.091994
N22	N	0.283795	-0.042599	-0.139881
N23	N	0.352979	-0.042612	-0.140899
C24	C	0.394707	0.000222	-0.094062
C25	C	0.130372	0.000280	-0.153928
C26	C	0.057547	0.000283	-0.152853
C27	C	0.074586	0.000270	-0.025586
C28	C	0.147409	0.000258	-0.026662
C29	C	0.175298	0.000267	-0.090835
C30	C	0.872089	-0.218541	-0.045437
C31	C	0.872093	-0.297789	-0.045433
C32	C	0.824478	-0.337429	-0.093030
C33	C	0.776842	-0.297815	-0.140621
C34	C	0.776835	-0.218569	-0.140619
N35	N	0.815401	-0.461841	-0.154837
N36	N	0.815413	-0.537121	-0.154837
C37	C	0.824496	-0.576193	-0.093040
N38	N	0.833582	-0.537140	-0.031239
N39	N	0.833574	-0.461853	-0.031240
C40	C	0.824480	-0.423358	-0.093038
C41	C	0.872130	-0.701727	-0.045444
C42	C	0.872129	-0.780976	-0.045440
C43	C	0.776881	-0.781000	-0.140634
C44	C	0.776878	-0.701753	-0.140632
C45	C	0.824506	-0.662121	-0.093038
C46	C	0.952151	0.000260	-0.087546
C47	C	1.029656	0.000285	-0.088687
C48	C	0.829972	0.000211	0.034634
C49	C	0.828831	0.000204	0.112138
N50	N	0.824512	0.179390	-0.093036
C51	C	0.818997	0.000244	-0.220700
C52	C	0.820138	0.000255	-0.298204
C53	C	0.891922	0.000216	0.157062
C54	C	0.890850	0.000228	0.229886
C55	C	0.826684	0.000212	0.257782
C56	C	0.763585	0.000205	0.212849
C57	C	0.764658	0.000200	0.140026
N58	N	0.777630	-0.042645	0.365789
N59	N	0.776615	-0.042642	0.434968
C60	C	0.823446	0.000227	0.477191
N61	N	0.871341	0.043084	0.447624
N62	N	0.872359	0.043079	0.378439
C63	C	0.825513	0.000218	0.336745
C64	C	0.885379	0.000253	0.601079
C65	C	0.884305	0.000270	0.673904
C66	C	0.757038	0.000239	0.656865
C67	C	0.758114	0.000230	0.584042
C68	C	0.822287	0.000233	0.556154
H69	H	0.597091	0.000203	-0.212725
F70	F	0.922818	-0.823127	0.005216
F71	F	0.697505	0.000188	0.092213
F72	F	0.695295	0.000193	0.242539
F73	F	0.922787	-0.339946	0.005219
H74	H	0.738072	-0.330094	-0.179374
H75	H	0.738109	-0.813275	-0.179385
H76	H	0.910869	-0.186275	-0.006681
F77	F	0.726143	-0.176417	-0.191271
H78	H	0.937632	0.000259	0.578372
H79	H	0.020970	0.000295	-0.204232
F80	F	0.922816	-0.659546	0.005212
F81	F	0.726191	-0.659600	-0.191285
F82	F	0.639238	0.000144	0.033946
F83	F	0.951459	0.000287	0.721716
F84	F	0.960220	0.000236	0.127385
F85	F	0.688747	0.000226	0.686550
F86	F	0.488912	0.000181	0.036157
F87	F	0.958003	0.000242	0.277706
H88	H	0.464982	0.000217	-0.210776
F89	F	0.160055	0.000283	-0.222225
H90	H	0.706738	0.000216	0.547464
H91	H	0.183988	0.000246	0.024713
F92	F	0.044901	0.000266	0.042705
