data_functionalizedCrystal
_audit_creation_method	'MofGen! by Chris Wilmer'
_symmetry_space_group_name_H-M	'P1'
_symmetry_Int_Tables_number	1
_symmetry_cell_setting	triclinic
loop_
_symmetry_equiv_pos_as_xyz
  x,y,z
_cell_length_a	10.654550
_cell_length_b	9.016244
_cell_length_c	10.540514
_cell_angle_alpha	89.996373
_cell_angle_beta	95.499968
_cell_angle_gamma	90.005884
loop_
_atom_site_label
_atom_site_type_symbol
_atom_site_fract_x
_atom_site_fract_y
_atom_site_fract_z
O1	O	1.667884	0.123451	-0.178307
O2	O	1.302410	0.123426	-0.195294
O3	O	1.493501	0.123441	-0.002089
O4	O	1.476792	0.123436	-0.371512
O5	O	1.493493	-0.123240	-0.002074
O6	O	1.302402	-0.123255	-0.195280
O7	O	1.667876	-0.123230	-0.178292
Cu8	Cu	1.485138	-0.145766	-0.186785
Cu9	Cu	1.485147	0.145963	-0.186802
O10	O	1.476784	-0.123245	-0.371498
C11	C	1.255607	0.000083	-0.194040
C12	C	1.116163	0.000074	-0.190308
C13	C	1.036707	0.000094	-0.304064
C14	C	0.905685	0.000119	-0.300550
C15	C	0.933588	0.000111	-0.069514
C16	C	1.064607	0.000075	-0.073029
C17	C	1.088263	0.000093	-0.421343
C18	C	1.008806	0.000114	-0.535109
C19	C	0.877784	0.000140	-0.531595
C20	C	0.826219	0.000144	-0.414315
N21	N	1.485140	-0.350952	-0.186772
C22	C	1.587743	-0.585931	-0.083776
C23	C	1.587467	-0.414040	-0.083383
C24	C	1.353854	-0.413386	-0.156688
C25	C	1.354463	-0.585330	-0.155965
C26	C	1.512674	-0.585456	-0.320211
C27	C	1.515637	-0.413500	-0.319339
C28	C	1.714678	0.000117	-0.179547
C29	C	1.854122	0.000136	-0.183278
C30	C	1.492251	0.000104	0.045221
C31	C	1.488522	0.000115	0.186170
N32	N	1.485155	0.351149	-0.186805
C33	C	1.478034	0.000095	-0.418808
C34	C	1.481763	0.000094	-0.559756
C35	C	1.625188	0.000121	0.256924
C36	C	1.621355	-0.000450	0.403536
C37	C	1.414192	-0.140495	0.378487
C38	C	1.418994	-0.140602	0.231949
C39	C	1.416980	0.139930	0.231533
C40	C	1.415662	0.141767	0.378512
H41	H	1.129303	0.000062	0.019601
H42	H	1.311665	-0.145332	0.400764
H43	H	1.445847	-0.370552	-0.399684
H44	H	1.685020	-0.371826	-0.101468
F45	F	1.635222	-0.642100	-0.357631
H46	H	0.891593	0.000139	0.025970
F47	F	0.686772	0.000151	-0.410581
H48	H	1.685623	-0.627264	-0.101589
F49	F	1.696593	-0.131451	0.217449
H50	H	1.570290	-0.629158	0.014640
H51	H	1.050799	0.000098	-0.630593
F52	F	1.564310	-0.360288	0.045990
H53	H	1.330388	-0.625451	-0.058637
F54	F	1.414910	-0.638648	-0.420445
F55	F	1.690515	-0.132946	0.458119
F56	F	0.793223	0.000148	-0.652671
F57	F	1.282707	0.153487	0.410183
H58	H	1.612222	-0.372693	-0.342140
H59	H	1.275770	-0.626956	-0.228093
H60	H	1.674504	0.100307	0.446215
H61	H	1.275624	-0.372524	-0.229679
H62	H	1.680625	0.100939	0.228418
F63	F	1.483487	-0.278484	0.195083
F64	F	1.287778	-0.148454	0.169151
F65	F	1.474770	-0.277767	0.434147
H66	H	1.329216	-0.370338	-0.060457
H67	H	1.465043	0.245777	0.419520
F68	F	1.227706	0.000072	-0.425093
F69	F	1.476441	0.279259	0.190376
F70	F	1.285220	0.141697	0.169720
