data_functionalizedCrystal
_audit_creation_method	'MofGen! by Chris Wilmer'
_symmetry_space_group_name_H-M	'P1'
_symmetry_Int_Tables_number	1
_symmetry_cell_setting	triclinic
loop_
_symmetry_equiv_pos_as_xyz
  x,y,z
_cell_length_a	13.897449
_cell_length_b	21.295417
_cell_length_c	21.295396
_cell_angle_alpha	89.894924
_cell_angle_beta	89.928445
_cell_angle_gamma	90.030528
loop_
_atom_site_label
_atom_site_type_symbol
_atom_site_fract_x
_atom_site_fract_y
_atom_site_fract_z
Zn1	Zn	1.475081	-0.250142	-0.355942
Zn2	Zn	1.975081	0.249858	0.144058
Zn3	Zn	1.474805	-0.355549	-0.250669
Zn4	Zn	1.974805	0.144451	0.249331
Zn5	Zn	1.313634	-0.250299	-0.250684
Zn6	Zn	1.813634	0.249701	0.249316
Zn7	Zn	1.313718	-0.355379	-0.355898
Zn8	Zn	1.813718	0.144621	0.144102
O9	O	1.394310	-0.302842	-0.303298
O10	O	1.894310	0.197158	0.196702
O11	O	1.610026	-0.264130	-0.341989
O12	O	2.110026	0.235870	0.158011
O13	O	1.453275	-0.341725	-0.162581
O14	O	1.953275	0.158275	0.337419
O15	O	1.335131	-0.162189	-0.264671
O16	O	1.835131	0.337811	0.235329
O17	O	1.609824	-0.341572	-0.264646
O18	O	2.109824	0.158428	0.235354
O19	O	1.453745	-0.162073	-0.342004
O20	O	1.953745	0.337927	0.157996
O21	O	1.334864	-0.264398	-0.162592
O22	O	1.834864	0.235602	0.337408
O23	O	1.178664	-0.264233	-0.264629
O24	O	1.678664	0.235767	0.235371
O25	O	1.335273	-0.341282	-0.443994
O26	O	1.835273	0.158718	0.056006
O27	O	1.178725	-0.341434	-0.341929
O28	O	1.678725	0.158566	0.158071
O29	O	1.453826	-0.263965	-0.444026
O30	O	1.953826	0.236035	0.055974
O31	O	1.453356	-0.443616	-0.264603
O32	O	1.953356	0.056384	0.235397
O33	O	1.335006	-0.443491	-0.341915
O34	O	1.835006	0.056509	0.158085
C35	C	1.143695	-0.302833	-0.303276
C36	C	1.643695	0.197167	0.196724
C37	C	1.036481	-0.302844	-0.303282
C38	C	1.536481	0.197156	0.196718
C39	C	0.949412	-0.302846	-0.303292
C40	C	1.449412	0.197154	0.196708
C41	C	0.840179	-0.302850	-0.303312
C42	C	1.340179	0.197150	0.196688
C43	C	1.394187	-0.466394	-0.303266
C44	C	1.894187	0.033606	0.196734
C45	C	1.394222	-0.536362	-0.303274
C46	C	1.894222	-0.036362	0.196726
C47	C	1.455949	-0.569111	-0.343570
C48	C	1.955949	-0.069111	0.156430
C49	C	1.455984	-0.634854	-0.343585
C50	C	1.955984	-0.134854	0.156415
C51	C	1.394301	-0.667845	-0.303294
C52	C	1.894301	-0.167845	0.196706
C53	C	1.332562	-0.635087	-0.262995
C54	C	1.832562	-0.135087	0.237005
C55	C	1.332522	-0.569346	-0.262985
C56	C	1.832522	-0.069346	0.237015
N57	N	1.386940	-0.771178	-0.248202
N58	N	1.886940	-0.271178	0.251798
N59	N	1.386983	-0.833630	-0.248214
N60	N	1.886983	-0.333630	0.251786
C61	C	1.394413	-0.865919	-0.303322
C62	C	1.894413	-0.365919	0.196678
N63	N	1.401818	-0.833398	-0.358420
N64	N	1.901818	-0.333398	0.141580
N65	N	1.401780	-0.770941	-0.358408
N66	N	1.901780	-0.270941	0.141592
C67	C	1.394336	-0.739130	-0.303300
C68	C	1.894336	-0.239130	0.196700
C69	C	1.456181	-0.969954	-0.343638
C70	C	1.956181	-0.469954	0.156362
C71	C	1.456208	-1.035698	-0.343655
C72	C	1.956208	-0.535698	0.156345
C73	C	1.332791	-1.035930	-0.263059
C74	C	1.832791	-0.535930	0.236941
C75	C	1.332759	-0.970187	-0.263048
C76	C	1.832759	-0.470187	0.236952
C77	C	1.394459	-0.937203	-0.303337
C78	C	1.894459	-0.437203	0.196663
C79	C	1.645903	-0.302853	-0.303321
C80	C	2.145903	0.197147	0.196679
C81	C	1.753117	-0.302857	-0.303330
C82	C	2.253117	0.197143	0.196670
C83	C	1.394590	-0.302587	-0.467489
C84	C	1.894590	0.197413	0.032511
C85	C	1.394709	-0.302478	-0.537458
C86	C	1.894709	0.197522	-0.037458
C87	C	1.394459	-0.138652	-0.303344
C88	C	1.894459	0.361348	0.196656
C89	C	1.394523	-0.068684	-0.303364
C90	C	1.894523	0.431316	0.196636
C91	C	1.394086	-0.303051	-0.139746
C92	C	1.894086	0.196949	0.360254
C93	C	1.394154	-0.302983	-0.069778
C94	C	1.894154	0.197017	0.430222
C95	C	1.332589	-0.262539	0.429643
C96	C	1.832589	0.237461	0.929643
C97	C	1.332513	-0.262604	0.363901
C98	C	1.832513	0.237396	0.863901
C99	C	1.394576	-0.302600	0.331060
C100	C	1.894576	0.197400	0.831060
C101	C	1.456701	-0.342547	0.363967
C102	C	1.956701	0.157453	0.863967
C103	C	1.456767	-0.342486	0.429709
C104	C	1.956767	0.157514	0.929709
N105	N	1.478952	-0.307128	0.227747
N106	N	1.978952	0.192872	0.727747
N107	N	1.478886	-0.307183	0.165296
N108	N	1.978886	0.192817	0.665296
C109	C	1.394376	-0.302788	0.132986
C110	C	1.894376	0.197212	0.632986
N111	N	1.309934	-0.298324	0.165486
N112	N	1.809934	0.201676	0.665486
N113	N	1.310001	-0.298266	0.227943
N114	N	1.810001	0.201734	0.727943
C115	C	1.394510	-0.302671	0.259775
C116	C	1.894510	0.197329	0.759775
C117	C	1.332169	-0.262916	0.028801
C118	C	1.832169	0.237084	0.528801
C119	C	1.332092	-0.262985	-0.036942
C120	C	1.832092	0.237015	0.463058
C121	C	1.456288	-0.342925	-0.036874
C122	C	1.956288	0.157075	0.463126
C123	C	1.456356	-0.342860	0.028868
C124	C	1.956356	0.157140	0.528868
C125	C	1.394298	-0.302852	0.061702
C126	C	1.894298	0.197148	0.561702
H127	H	1.506187	-0.542258	-0.376377
H128	H	2.006187	-0.042258	0.123623
H129	H	1.506473	-1.062361	-0.376471
H130	H	2.006473	-0.562361	0.123529
H131	H	1.507232	-0.375112	0.337224
H132	H	2.007232	0.124888	0.837224
H133	H	1.506241	-0.661524	-0.376406
H134	H	2.006241	-0.161524	0.123594
H135	H	1.282052	-0.229964	0.456373
H136	H	1.782052	0.270036	0.956373
H137	H	1.282561	-1.062790	-0.230257
H138	H	1.782561	-0.562790	0.269743
H139	H	1.282256	-0.542681	-0.230171
H140	H	1.782256	-0.042681	0.269829
H141	H	1.506822	-0.375490	-0.063613
H142	H	2.006822	0.124510	0.436387
H143	H	1.282499	-0.943521	-0.230233
H144	H	1.782499	-0.443521	0.269767
H145	H	1.507358	-0.375008	0.456495
H146	H	2.007358	0.124992	0.956495
H147	H	1.506944	-0.375381	0.055655
H148	H	2.006944	0.124619	0.555655
H149	H	1.281499	-0.230464	-0.063728
H150	H	1.781499	0.269536	0.436272
H151	H	1.282337	-0.661953	-0.230191
H152	H	1.782337	-0.161953	0.269809
H153	H	1.281929	-0.230078	0.337109
H154	H	1.781929	0.269922	0.837109
H155	H	1.506418	-0.943097	-0.376446
H156	H	2.006418	-0.443097	0.123554
H157	H	1.281637	-0.230340	0.055536
H158	H	1.781637	0.269660	0.555536
