data_functionalizedCrystal
_audit_creation_method	'MofGen! by Chris Wilmer'
_symmetry_space_group_name_H-M	'P1'
_symmetry_Int_Tables_number	1
_symmetry_cell_setting	triclinic
loop_
_symmetry_equiv_pos_as_xyz
  x,y,z
_cell_length_a	9.730223
_cell_length_b	19.288864
_cell_length_c	19.288865
_cell_angle_alpha	83.136245
_cell_angle_beta	89.993453
_cell_angle_gamma	89.985960
loop_
_atom_site_label
_atom_site_type_symbol
_atom_site_fract_x
_atom_site_fract_y
_atom_site_fract_z
O1	O	0.114746	-0.921344	-0.086645
O2	O	0.114654	-0.719084	-0.098333
O3	O	0.114676	-0.826058	0.008641
O4	O	0.114725	-0.814370	-0.193619
O5	O	-0.113904	-0.826057	0.008639
O6	O	-0.113926	-0.719082	-0.098336
O7	O	-0.113834	-0.921343	-0.086647
Zn8	Zn	-0.150172	-0.820213	-0.092492
Zn9	Zn	0.150992	-0.820214	-0.092489
O10	O	-0.113855	-0.814368	-0.193622
C11	C	0.000352	-0.693207	-0.097959
C12	C	0.000316	-0.616103	-0.096830
N13	N	-0.355708	-0.820216	-0.092494
C14	C	0.000382	-0.825682	0.034516
C15	C	0.000369	-0.824553	0.111620
C16	C	-0.427625	-0.867597	-0.045142
C17	C	-0.571508	-0.867595	-0.045133
C18	C	-0.571545	-0.772830	-0.139836
C19	C	-0.427664	-0.772829	-0.139841
C20	C	-0.427604	-0.922311	0.009532
C21	C	-0.571487	-0.922309	0.009541
N22	N	0.356529	-0.820216	-0.092481
C23	C	0.000471	-0.947220	-0.087022
C24	C	0.000517	-1.024324	-0.088151
C25	C	0.000353	-0.571407	-0.159598
C26	C	0.000368	-0.498960	-0.158537
C27	C	0.000373	-0.471212	-0.094705
C28	C	0.000329	-0.515918	-0.031929
C29	C	0.000300	-0.588364	-0.032991
C30	C	0.080489	-0.362951	-0.044525
C31	C	0.080526	-0.290506	-0.043465
C32	C	0.000456	-0.247767	-0.091425
C33	C	-0.079634	-0.277479	-0.140457
C34	C	-0.079663	-0.349924	-0.141520
C35	C	0.000404	-0.392658	-0.093546
C36	C	0.000507	-0.124514	-0.153047
C37	C	0.000513	-0.052066	-0.151984
C38	C	0.000488	-0.069026	-0.025374
C39	C	0.000468	-0.141473	-0.026439
C40	C	0.000484	-0.169212	-0.090278
C41	C	0.000442	-0.814745	-0.219497
C42	C	0.000464	-0.815874	-0.296601
C43	C	0.000391	-0.887321	0.156316
C44	C	0.000412	-0.886260	0.228763
C45	C	0.000384	-0.822428	0.256511
C46	C	0.000370	-0.759652	0.211805
C47	C	0.000362	-0.760714	0.139359
C48	C	-0.079706	-0.772248	0.364797
C49	C	-0.079707	-0.771188	0.437242
C50	C	0.000413	-0.819148	0.479956
C51	C	0.080516	-0.868180	0.450219
C52	C	0.080509	-0.869242	0.377774
C53	C	0.000393	-0.821269	0.335065
C54	C	0.000460	-0.880770	0.603209
C55	C	0.000490	-0.879707	0.675657
C56	C	0.000434	-0.753097	0.658697
C57	C	0.000418	-0.754162	0.586250
C58	C	0.000424	-0.818000	0.558511
H59	H	-0.369111	-0.734243	-0.178393
Cl60	Cl	-0.631746	-1.004507	-0.007853
H61	H	0.000472	-0.932751	0.580622
H62	H	-0.382950	-0.972545	-0.006789
Cl63	Cl	0.000366	-0.606275	-0.239852
Cl64	Cl	0.000384	-0.675249	0.530057
H65	H	-0.616124	-0.906029	0.059797
Cl66	Cl	-0.180411	-0.709551	0.474619
Cl67	Cl	0.000553	0.004125	-0.230900
H68	H	-0.388570	-0.911082	0.062785
H69	H	0.000394	-0.462561	-0.209652
Cl70	Cl	0.000406	-0.672850	0.693572
H71	H	-0.630147	-0.734249	-0.178384
H72	H	0.000401	-0.939303	0.133736
H73	H	-0.144879	-0.374113	-0.181441
H74	H	0.000515	-0.930822	0.712049
Cl75	Cl	-0.180442	-0.711950	0.311106
H76	H	-0.144836	-0.242681	-0.179511
H77	H	0.000350	-0.707679	0.234401
H78	H	0.000445	-0.177866	0.024674
H79	H	0.000435	-0.937375	0.265162
H80	H	0.000344	-0.709599	0.102967
Cl81	Cl	0.000513	-0.159390	-0.233300
H82	H	0.000271	-0.624756	0.018124
Cl83	Cl	0.181248	-0.928476	0.503910
Cl84	Cl	0.000479	-0.034151	0.054873
H85	H	0.145746	-0.266320	-0.003543
H86	H	0.145700	-0.397744	-0.005468
H87	H	0.000352	-0.493322	0.020044
Cl88	Cl	0.181214	-0.930875	0.340391
