data_functionalizedCrystal
_audit_creation_method	'MofGen! by Chris Wilmer'
_symmetry_space_group_name_H-M	'P1'
_symmetry_Int_Tables_number	1
_symmetry_cell_setting	triclinic
loop_
_symmetry_equiv_pos_as_xyz
  x,y,z
_cell_length_a	13.897449
_cell_length_b	16.625545
_cell_length_c	13.897441
_cell_angle_alpha	89.968843
_cell_angle_beta	89.976606
_cell_angle_gamma	90.026384
loop_
_atom_site_label
_atom_site_type_symbol
_atom_site_fract_x
_atom_site_fract_y
_atom_site_fract_z
Zn1	Zn	1.474650	-0.320958	-0.545446
Zn2	Zn	1.474522	-0.455808	-0.384146
Zn3	Zn	1.313339	-0.320995	-0.384157
Zn4	Zn	1.313299	-0.455754	-0.545391
O5	O	1.393952	-0.388379	-0.464785
O6	O	1.609615	-0.338853	-0.524068
O7	O	1.453104	-0.437963	-0.249165
O8	O	1.334808	-0.208158	-0.405580
O9	O	1.609520	-0.437927	-0.405561
O10	O	1.453322	-0.208131	-0.524078
O11	O	1.334684	-0.338917	-0.249174
O12	O	1.178352	-0.338865	-0.405526
O13	O	1.334739	-0.437835	-0.680380
O14	O	1.178322	-0.437871	-0.523984
O15	O	1.453283	-0.338801	-0.680420
O16	O	1.453065	-0.568634	-0.405508
O17	O	1.334615	-0.568594	-0.523974
C18	C	1.143338	-0.388367	-0.464751
C19	C	1.036124	-0.388381	-0.464760
C20	C	0.949054	-0.388383	-0.464776
C21	C	0.839822	-0.388389	-0.464805
C22	C	1.393848	-0.597870	-0.464754
C23	C	1.393891	-0.687491	-0.464774
C24	C	1.393928	-0.760273	-0.464793
C25	C	1.393985	-0.851582	-0.464814
C26	C	1.394035	-0.924358	-0.464826
C27	C	1.394090	-1.015673	-0.464846
C28	C	1.645545	-0.388392	-0.464819
C29	C	1.752759	-0.388398	-0.464834
C30	C	1.394021	-0.388308	-0.716378
C31	C	1.394050	-0.388277	-0.823592
C32	C	1.394084	-0.178070	-0.464836
C33	C	1.394140	-0.088449	-0.464858
C34	C	1.394076	-0.388223	-1.019887
C35	C	1.394059	-0.388255	-0.910655
C36	C	1.393940	-0.388392	-0.214170
C37	C	1.394097	-0.388195	-0.106957
