data_functionalizedCrystal
_audit_creation_method	'MofGen! by Chris Wilmer'
_symmetry_space_group_name_H-M	'P1'
_symmetry_Int_Tables_number	1
_symmetry_cell_setting	triclinic
loop_
_symmetry_equiv_pos_as_xyz
  x,y,z
_cell_length_a	19.188905
_cell_length_b	19.188930
_cell_length_c	14.586319
_cell_angle_alpha	89.991095
_cell_angle_beta	89.989373
_cell_angle_gamma	83.139668
loop_
_atom_site_label
_atom_site_type_symbol
_atom_site_fract_x
_atom_site_fract_y
_atom_site_fract_z
O1	O	0.926155	0.087084	-0.076402
O2	O	1.259488	0.420417	0.256932
O3	O	1.592822	0.753750	0.590265
O4	O	0.722841	0.098836	-0.076372
O5	O	1.056175	0.432169	0.256962
O6	O	1.389508	0.765503	0.590295
O7	O	0.830365	-0.008696	-0.076370
O8	O	1.163699	0.324637	0.256964
O9	O	1.497032	0.657970	0.590297
O10	O	0.818631	0.194616	-0.076404
O11	O	1.151964	0.527949	0.256930
O12	O	1.485298	0.861283	0.590263
O13	O	0.830358	-0.008698	0.076111
O14	O	1.163691	0.324635	0.409445
O15	O	1.497025	0.657969	0.742778
O16	O	0.722834	0.098834	0.076109
O17	O	1.056167	0.432168	0.409442
O18	O	1.389501	0.765501	0.742776
O19	O	0.926148	0.087082	0.076079
O20	O	1.259481	0.420415	0.409413
O21	O	1.592814	0.753749	0.742746
Cu22	Cu	0.824490	0.092958	0.090017
Cu23	Cu	1.157823	0.426291	0.423350
Cu24	Cu	1.491157	0.759625	0.756684
Cu25	Cu	0.824499	0.092960	-0.090309
Cu26	Cu	1.157832	0.426293	0.243024
Cu27	Cu	1.491166	0.759627	0.576357
O28	O	0.818624	0.194614	0.076077
O29	O	1.151957	0.527948	0.409410
O30	O	1.485290	0.861281	0.742744
C31	C	0.696826	0.098458	-0.000127
C32	C	1.030160	0.431791	0.333206
C33	C	1.363493	0.765124	0.666539
C34	C	0.619321	0.097324	-0.000115
C35	C	0.952654	0.430657	0.333218
C36	C	1.285987	0.763991	0.666552
C37	C	0.582933	0.096780	-0.083235
C38	C	0.916266	0.430113	0.250099
C39	C	1.249600	0.763447	0.583432
C40	C	0.510109	0.095707	-0.083246
C41	C	0.843443	0.429040	0.250088
C42	C	1.176776	0.762374	0.583421
C43	C	0.473678	0.095164	-0.000133
C44	C	0.807012	0.428497	0.333201
C45	C	1.140345	0.761830	0.666534
C46	C	0.510074	0.095712	0.082998
C47	C	0.843408	0.429045	0.416331
C48	C	1.176741	0.762378	0.749665
C49	C	0.582895	0.096792	0.083007
C50	C	0.916229	0.430125	0.416340
C51	C	1.249562	0.763458	0.749673
N52	N	0.364655	0.053735	0.061727
N53	N	0.697988	0.387068	0.395061
N54	N	1.031322	0.720401	0.728394
N55	N	0.295478	0.052707	0.061713
N56	N	0.628811	0.386040	0.395047
N57	N	0.962145	0.719374	0.728380
C58	C	0.254272	0.091911	-0.000154
C59	C	0.587605	0.425244	0.333179
C60	C	0.920938	0.758578	0.666512
N61	N	0.284857	0.132173	-0.062021
N62	N	0.618190	0.465506	0.271312
N63	N	0.951523	0.798839	0.604645
N64	N	0.354040	0.133197	-0.062010
N65	N	0.687374	0.466531	0.271324
N66	N	1.020707	0.799864	0.604657
C67	C	0.394716	0.093993	-0.000133
C68	C	0.728049	0.427326	0.333200
C69	C	1.061382	0.760660	0.666534
C70	C	0.138920	0.090205	-0.083292
C71	C	0.472253	0.423538	0.250042
C72	C	0.805587	0.756872	0.583375
C73	C	0.066094	0.089136	-0.083300
C74	C	0.399428	0.422470	0.250034
C75	C	0.732761	0.755803	0.583367
C76	C	0.066062	0.089134	0.082947
C77	C	0.399395	0.422467	0.416280
C78	C	0.732728	0.755800	0.749613
C79	C	0.138885	0.090209	0.082952
C80	C	0.472218	0.423543	0.416285
C81	C	0.805551	0.756876	0.749619
C82	C	0.175310	0.090742	-0.000170
C83	C	0.508643	0.424075	0.333164
C84	C	0.841977	0.757408	0.666497
C85	C	0.829982	-0.034708	-0.000127
C86	C	1.163315	0.298625	0.333207
C87	C	1.496648	0.631959	0.666540
C88	C	0.828841	-0.112213	-0.000118
C89	C	1.162174	0.221121	0.333215
C90	C	1.495508	0.554454	0.666548
C91	C	0.891933	-0.157142	-0.000123
C92	C	1.225266	0.176191	0.333210
C93	C	1.558599	0.509525	0.666543
C94	C	0.890861	-0.229966	-0.000138
C95	C	1.224194	0.103367	0.333195
C96	C	1.557528	0.436701	0.666529
C97	C	0.826694	-0.257857	-0.000129
C98	C	1.160027	0.075477	0.333204
C99	C	1.493361	0.408810	0.666538
C100	C	0.763594	-0.212917	-0.000129
C101	C	1.096927	0.120416	0.333204
C102	C	1.430261	0.453749	0.666537
C103	C	0.764668	-0.140095	-0.000124
C104	C	1.098001	0.193238	0.333209
C105	C	1.431334	0.526572	0.666543
N106	N	0.777644	-0.365858	0.051770
N107	N	1.110977	-0.032524	0.385104
N108	N	1.444310	0.300809	0.718437
N109	N	0.776628	-0.435036	0.051767
N110	N	1.109961	-0.101703	0.385100
N111	N	1.443295	0.231630	0.718434
C112	C	0.823456	-0.477265	-0.000147
C113	C	1.156789	-0.143932	0.333186
C114	C	1.490122	0.189402	0.666519
N115	N	0.871348	-0.447703	-0.052047
N116	N	1.204681	-0.114370	0.281287
N117	N	1.538015	0.218963	0.614620
N118	N	0.872366	-0.378519	-0.052040
N119	N	1.205699	-0.045185	0.281294
N120	N	1.539032	0.288148	0.614627
C121	C	0.825523	-0.336819	-0.000135
C122	C	1.158856	-0.003486	0.333198
C123	C	1.492190	0.329848	0.666531
C124	C	0.885390	-0.601159	-0.000169
C125	C	1.218723	-0.267826	0.333164
C126	C	1.552056	0.065508	0.666498
C127	C	0.884315	-0.673984	-0.000189
C128	C	1.217649	-0.340650	0.333144
C129	C	1.550982	-0.007317	0.666477
C130	C	0.757047	-0.656933	-0.000172
C131	C	1.090380	-0.323600	0.333162
C132	C	1.423713	0.009733	0.666495
C133	C	0.758123	-0.584110	-0.000161
C134	C	1.091456	-0.250777	0.333173
C135	C	1.424790	0.082556	0.666506
C136	C	0.822296	-0.556228	-0.000155
C137	C	1.155630	-0.222894	0.333178
C138	C	1.488963	0.110439	0.666512
C139	C	0.952163	0.087460	-0.000167
C140	C	1.285496	0.420794	0.333166
C141	C	1.618829	0.754127	0.666499
C142	C	1.029668	0.088594	-0.000186
C143	C	1.363001	0.421927	0.333148
C144	C	1.696335	0.755261	0.666481
C145	C	0.819007	0.220626	-0.000168
C146	C	1.152341	0.553959	0.333165
C147	C	1.485674	0.887293	0.666499
C148	C	0.820148	0.298131	-0.000182
C149	C	1.153481	0.631464	0.333151
C150	C	1.486815	0.964797	0.666485
N151	N	0.824489	0.092956	0.216849
N152	N	1.157822	0.426290	0.550182
N153	N	1.491156	0.759623	0.883515
N154	N	0.824505	0.092956	-0.217141
N155	N	1.157839	0.426289	0.116192
N156	N	1.491172	0.759623	0.449526
C157	C	0.872116	0.045357	0.451856
C158	C	1.205450	0.378690	0.785189
C159	C	1.538783	0.712023	1.118523
C160	C	0.872118	0.045355	0.547837
C161	C	1.205452	0.378688	0.881171
C162	C	1.538785	0.712022	1.214504
C163	C	0.776873	0.140558	0.547845
C164	C	1.110206	0.473891	0.881178
C165	C	1.443540	0.807225	1.214511
C166	C	0.776868	0.140556	0.451865
C167	C	1.110202	0.473889	0.785199
C168	C	1.443535	0.807222	1.118532
C169	C	0.824494	0.092956	0.403873
C170	C	1.157827	0.426289	0.737207
C171	C	1.491160	0.759623	1.070540
C172	C	0.824501	0.092956	0.595834
C173	C	1.157834	0.426290	0.929167
C174	C	1.491167	0.759623	1.262501
C175	C	0.824502	0.092955	0.699901
C176	C	1.157836	0.426288	1.033235
C177	C	1.491169	0.759622	1.366568
C178	C	0.824491	0.092956	0.299800
C179	C	1.157825	0.426290	0.633133
C180	C	1.491158	0.759623	0.966466
H181	H	0.036399	0.088696	0.150619
H182	H	0.369733	0.422029	0.483952
H183	H	0.703066	0.755362	0.817286
Cl184	Cl	0.685346	-0.083609	-0.000117
Cl185	Cl	1.018679	0.249724	0.333216
Cl186	Cl	1.352012	0.583058	0.666549
H187	H	0.612586	0.097214	-0.150919
H188	H	0.945919	0.430547	0.182414
H189	H	1.279253	0.763880	0.515748
Cl190	Cl	0.717006	0.200398	0.608182
Cl191	Cl	1.050340	0.533731	0.941515
Cl192	Cl	1.383673	0.867064	1.274848
Cl193	Cl	0.464355	0.095023	-0.187747
Cl194	Cl	0.797689	0.428356	0.145586
Cl195	Cl	1.131022	0.761689	0.478920
H196	H	0.935694	-0.710565	-0.000198
H197	H	1.269028	-0.377232	0.333135
H198	H	1.602361	-0.043899	0.666468
Cl199	Cl	0.020348	0.088459	-0.187803
Cl200	Cl	0.353682	0.421792	0.145530
Cl201	Cl	0.687015	0.755125	0.478864
Cl202	Cl	0.970182	-0.286459	-0.000145
Cl203	Cl	1.303515	0.046874	0.333188
Cl204	Cl	1.636849	0.380207	0.666522
H205	H	0.910895	0.006597	0.412783
H206	H	1.244228	0.339931	0.746116
H207	H	1.577562	0.673264	1.079450
Cl208	Cl	0.676379	-0.691989	-0.000166
Cl209	Cl	1.009712	-0.358656	0.333167
Cl210	Cl	1.343046	-0.025323	0.666501
Cl211	Cl	0.682927	-0.247979	-0.000126
Cl212	Cl	1.016260	0.085354	0.333208
Cl213	Cl	1.349594	0.418688	0.666541
H214	H	0.937644	-0.578456	-0.000169
H215	H	1.270977	-0.245123	0.333165
H216	H	1.604310	0.088211	0.666498
Cl217	Cl	0.464275	0.095033	0.187483
Cl218	Cl	0.797609	0.428366	0.520816
Cl219	Cl	1.130942	0.761700	0.854150
H220	H	0.168513	0.090648	0.150637
H221	H	0.501846	0.423981	0.483970
H222	H	0.835179	0.757314	0.817304
Cl223	Cl	0.184714	0.090881	-0.187785
Cl224	Cl	0.518048	0.424214	0.145548
Cl225	Cl	0.851381	0.757548	0.478881
Cl226	Cl	0.716992	0.200396	0.391538
Cl227	Cl	1.050325	0.533729	0.724872
Cl228	Cl	1.383659	0.867063	1.058205
H229	H	0.612522	0.097235	0.150695
H230	H	0.945855	0.430568	0.484028
H231	H	1.279189	0.763902	0.817362
Cl232	Cl	0.931987	-0.014488	0.608156
Cl233	Cl	1.265321	0.318846	0.941489
Cl234	Cl	1.598654	0.652179	1.274822
H235	H	0.944187	-0.134445	-0.000122
H236	H	1.277521	0.198888	0.333211
H237	H	1.610854	0.532221	0.666545
Cl238	Cl	0.678803	-0.527624	-0.000150
Cl239	Cl	1.012136	-0.194291	0.333183
Cl240	Cl	1.345470	0.139042	0.666516
