data_functionalizedCrystal
_audit_creation_method	'MofGen! by Chris Wilmer'
_symmetry_space_group_name_H-M	'P1'
_symmetry_Int_Tables_number	1
_symmetry_cell_setting	triclinic
loop_
_symmetry_equiv_pos_as_xyz
  x,y,z
_cell_length_a	10.685980
_cell_length_b	16.120531
_cell_length_c	10.686551
_cell_angle_alpha	91.295135
_cell_angle_beta	81.591741
_cell_angle_gamma	82.492862
loop_
_atom_site_label
_atom_site_type_symbol
_atom_site_fract_x
_atom_site_fract_y
_atom_site_fract_z
Zn1	Zn	1.982379	0.186870	-0.879971
Zn2	Zn	2.482379	0.686870	-0.379971
Zn3	Zn	1.955119	0.337907	-0.678431
Zn4	Zn	2.455119	0.837907	-0.178431
Zn5	Zn	1.752141	0.210075	-0.653083
Zn6	Zn	2.252141	0.710075	-0.153083
Zn7	Zn	1.759249	0.337826	-0.874335
Zn8	Zn	2.259249	0.837826	-0.374335
O9	O	1.862222	0.268169	-0.771455
O10	O	2.362222	0.768169	-0.271455
O11	O	2.157091	0.197228	-0.866203
O12	O	2.657091	0.697228	-0.366203
O13	O	1.913811	0.330695	-0.498128
O14	O	2.413811	0.830695	0.001872
O15	O	1.791117	0.090323	-0.674931
O16	O	2.291117	0.590323	-0.174931
O17	O	2.137063	0.308194	-0.718132
O18	O	2.637063	0.808194	-0.218132
O19	O	1.960272	0.073274	-0.841624
O20	O	2.460272	0.573274	-0.341624
O21	O	1.764684	0.236777	-0.479505
O22	O	2.264684	0.736777	0.020495
O23	O	1.574756	0.236698	-0.669466
O24	O	2.074756	0.736698	-0.169466
O25	O	1.803230	0.308056	-1.052023
O26	O	2.303230	0.808056	-0.552023
O27	O	1.579978	0.330557	-0.832019
O28	O	2.079978	0.830557	-0.332019
O29	O	1.967163	0.197150	-1.056164
O30	O	2.467163	0.697150	-0.556164
O31	O	1.920702	0.454570	-0.712667
O32	O	2.420702	0.954570	-0.212667
O33	O	1.776797	0.454511	-0.856598
O34	O	2.276797	0.954511	-0.356598
C35	C	1.531129	0.286137	-0.747381
C36	C	2.031129	0.786137	-0.247381
C37	C	1.389486	0.293843	-0.737113
C38	C	1.889486	0.793843	-0.237113
C39	C	1.846600	0.484789	-0.786802
C40	C	2.346600	0.984789	-0.286802
C41	C	1.840036	0.577452	-0.793418
C42	C	2.340036	1.077452	-0.293418
C43	C	1.828063	0.747105	-0.805523
C44	C	2.328063	1.247105	-0.305523
C45	C	1.896423	0.788395	-0.737318
C46	C	2.396423	1.288395	-0.237318
C47	C	1.889761	0.882796	-0.744054
C48	C	2.389761	1.382796	-0.244054
C49	C	1.834723	0.652695	-0.798789
C50	C	2.334723	1.152695	-0.298789
C51	C	2.194608	0.250132	-0.795624
C52	C	2.694608	0.750132	-0.295624
C53	C	2.336252	0.242445	-0.805923
C54	C	2.836252	0.742445	-0.305923
C55	C	1.889030	0.250006	-1.101255
C56	C	2.389030	0.750006	-0.601255
C57	C	1.900455	0.242265	-1.241796
C58	C	2.400455	0.742265	-0.741796
C59	C	1.877895	1.050704	-0.756052
C60	C	2.377895	1.550704	-0.256052
C61	C	1.884453	0.958043	-0.749421
C62	C	2.384453	1.458043	-0.249421
C63	C	1.835596	0.286199	-0.442939
C64	C	2.335596	0.786199	0.057061
C65	C	1.824435	0.293691	-0.302400
C66	C	2.324435	0.793691	0.197600
H67	H	1.399036	0.192543	-0.872686
H68	H	1.899036	0.692543	-0.372686
H69	H	1.974288	0.192316	-1.297435
H70	H	2.474288	0.692316	-0.797435
H71	H	1.959951	0.752847	-0.673867
H72	H	2.459951	1.252847	-0.173867
H73	H	1.326695	0.343744	-0.670337
H74	H	1.826695	0.843744	-0.170337
Br75	Br	1.722182	0.806350	-0.911273
Br76	Br	2.222182	1.306350	-0.411273
Br77	Br	1.701394	0.376952	-1.209682
Br78	Br	2.201394	0.876952	-0.709682
