data_functionalizedCrystal
_audit_creation_method	'MofGen! by Chris Wilmer'
_symmetry_space_group_name_H-M	'P1'
_symmetry_Int_Tables_number	1
_symmetry_cell_setting	triclinic
loop_
_symmetry_equiv_pos_as_xyz
  x,y,z
_cell_length_a	19.121102
_cell_length_b	17.640280
_cell_length_c	17.639306
_cell_angle_alpha	92.178650
_cell_angle_beta	76.884014
_cell_angle_gamma	104.073365
loop_
_atom_site_label
_atom_site_type_symbol
_atom_site_fract_x
_atom_site_fract_y
_atom_site_fract_z
Zn1	Zn	1.230224	0.457420	-0.413535
Zn2	Zn	1.730224	0.957420	0.086465
Zn3	Zn	1.220803	0.558221	-0.260560
Zn4	Zn	1.720803	1.058221	0.239440
Zn5	Zn	1.082925	0.423600	-0.281144
Zn6	Zn	1.582925	0.923600	0.218856
Zn7	Zn	1.129288	0.578759	-0.384153
Zn8	Zn	1.629288	1.078759	0.115847
O9	O	1.165810	0.504500	-0.334848
O10	O	1.665810	1.004500	0.165152
O11	O	1.328920	0.476350	-0.396925
O12	O	1.828920	0.976350	0.103075
O13	O	1.179168	0.517614	-0.156160
O14	O	1.679168	1.017614	0.343840
O15	O	1.087004	0.320965	-0.319617
O16	O	1.587004	0.820965	0.180383
O17	O	1.321998	0.550408	-0.284534
O18	O	1.821998	1.050408	0.215466
O19	O	1.195225	0.345813	-0.416884
O20	O	1.695225	0.845813	0.083116
O21	O	1.077869	0.418708	-0.171283
O22	O	1.577869	0.918708	0.328717
O23	O	0.989130	0.438623	-0.291126
O24	O	1.489130	0.938623	0.208874
O25	O	1.166023	0.585412	-0.495181
O26	O	1.666023	1.085412	0.004819
O27	O	1.023192	0.552618	-0.366807
O28	O	1.523192	1.052618	0.133193
O29	O	1.240181	0.496265	-0.516768
O30	O	1.740181	0.996265	-0.016768
O31	O	1.224124	0.668066	-0.256044
O32	O	1.724124	1.168066	0.243956
O33	O	1.156888	0.683155	-0.346847
O34	O	1.656888	1.183155	0.153153
C35	C	1.194537	0.703391	-0.296041
C36	C	1.694537	1.203391	0.203959
C37	C	1.206898	0.788486	-0.279467
C38	C	1.706898	1.288486	0.220533
C39	C	0.980247	0.494180	-0.328012
C40	C	1.480247	0.994180	0.171988
C41	C	0.900869	0.489788	-0.325102
C42	C	1.400869	0.989788	0.174898
C43	C	1.209324	0.546902	-0.534529
C44	C	1.709324	1.046902	-0.034529
C45	C	1.227867	0.564972	-0.619621
C46	C	1.727867	1.064972	-0.119621
C47	C	0.881323	0.547133	-0.363046
C48	C	1.381323	1.047133	0.136954
C49	C	0.806738	0.542996	-0.360318
C50	C	1.306738	1.042996	0.139682
C51	C	0.751700	0.481517	-0.319640
C52	C	1.251700	0.981517	0.180360
C53	C	0.771249	0.424166	-0.281695
C54	C	1.271249	0.924166	0.218305
C55	C	0.845833	0.428300	-0.284428
C56	C	1.345833	0.928300	0.215572
C57	C	0.525616	0.466059	-0.309424
C58	C	1.025616	0.966059	0.190576
C59	C	0.451028	0.461931	-0.306691
C60	C	0.951028	0.961931	0.193309
C61	C	0.486523	0.580760	-0.385316
C62	C	0.986523	1.080760	0.114684
C63	C	0.561107	0.584892	-0.388042
C64	C	1.061107	1.084892	0.111958
C65	C	0.580650	0.527539	-0.350100
C66	C	1.080650	1.027539	0.149900
C67	C	0.675461	0.477289	-0.316848
C68	C	1.175461	0.977289	0.183152
C69	C	0.656887	0.531765	-0.352897
C70	C	1.156887	1.031765	0.147103
C71	C	1.352098	0.514861	-0.341711
C72	C	1.852098	1.014861	0.158289
C73	C	1.431483	0.519276	-0.344636
C74	C	1.931483	1.019276	0.155364
C75	C	1.136994	0.304837	-0.373824
C76	C	1.636994	0.804837	0.126176
C77	C	1.124714	0.219753	-0.390434
C78	C	1.624714	0.719753	0.109566
C79	C	1.072262	1.107701	-0.461048
C80	C	1.572262	1.607701	0.038952
C81	C	1.083873	1.187656	-0.445450
C82	C	1.583873	1.687656	0.054550
C83	C	1.153964	1.171902	-0.350997
C84	C	1.653964	1.671902	0.149003
C85	C	1.142362	1.091945	-0.366590
C86	C	1.642362	1.591945	0.133410
C87	C	1.101510	1.059851	-0.421615
C88	C	1.601510	1.559851	0.078385
C89	C	1.171610	1.044095	-0.327158
C90	C	1.671610	1.544095	0.172842
C91	C	1.160006	0.964144	-0.342747
C92	C	1.660006	1.464144	0.157253
C93	C	1.119154	0.932043	-0.397768
C94	C	1.619154	1.432043	0.102232
C95	C	1.089906	0.979900	-0.437204
C96	C	1.589906	1.479900	0.062796
C97	C	1.212458	1.076189	-0.272128
C98	C	1.712458	1.576189	0.227872
C99	C	1.241706	1.028339	-0.232696
C100	C	1.741706	1.528339	0.267304
C101	C	1.230107	0.948388	-0.248289
C102	C	1.730107	1.448388	0.251711
C103	C	1.189254	0.916287	-0.303310
C104	C	1.689254	1.416287	0.196690
C105	C	1.259355	0.900531	-0.208852
C106	C	1.759355	1.400531	0.291148
C107	C	1.247750	0.820580	-0.224441
C108	C	1.747750	1.320580	0.275559
C109	C	1.177650	0.836336	-0.318899
C110	C	1.677650	1.336336	0.181101
C111	C	1.025177	0.366959	-0.938866
C112	C	1.525177	0.866959	-0.438866
C113	C	1.042619	0.383955	-1.018820
C114	C	1.542619	0.883955	-0.518820
C115	C	1.148091	0.486935	-1.003054
C116	C	1.648091	0.986935	-0.503054
C117	C	1.130659	0.469945	-0.923097
C118	C	1.630659	0.969945	-0.423097
C119	C	1.069201	0.409957	-0.891010
C120	C	1.569201	0.909957	-0.391010
C121	C	1.174683	0.512943	-0.875241
C122	C	1.674683	1.012943	-0.375241
C123	C	1.157250	0.495957	-0.795291
C124	C	1.657250	0.995957	-0.295291
C125	C	1.095794	0.435973	-0.763196
C126	C	1.595794	0.935973	-0.263196
C127	C	1.051768	0.392971	-0.811059
C128	C	1.551768	0.892971	-0.311059
C129	C	1.236138	0.572935	-0.907330
C130	C	1.736138	1.072935	-0.407330
C131	C	1.280162	0.615933	-0.859474
C132	C	1.780162	1.115933	-0.359474
C133	C	1.262733	0.598943	-0.779522
C134	C	1.762733	1.098943	-0.279522
C135	C	1.201276	0.538960	-0.747428
C136	C	1.701276	1.038960	-0.247428
C137	C	1.306758	0.641946	-0.731660
C138	C	1.806758	1.141946	-0.231660
C139	C	1.289326	0.624960	-0.651709
C140	C	1.789326	1.124960	-0.151709
C141	C	1.183843	0.521974	-0.667478
C142	C	1.683843	1.021974	-0.167478
C143	C	1.122499	0.462210	-0.135956
C144	C	1.622499	0.962210	0.364044
C145	C	1.104063	0.443932	-0.050911
C146	C	1.604063	0.943932	0.449089
H147	H	0.926132	0.597198	-0.396168
H148	H	1.426132	1.097198	0.103832
F149	F	0.785941	0.604031	-0.400704
F150	F	1.285941	1.104031	0.099296
F151	F	0.619679	0.650328	-0.431335
F152	F	1.119679	1.150328	0.068665
H153	H	1.056646	0.953769	-0.482018
H154	H	1.556646	1.453769	0.017982
H155	H	1.039002	1.081571	-0.505861
H156	H	1.539002	1.581571	-0.005861
F157	F	1.197442	1.206068	-0.292438
F158	F	1.697442	1.706068	0.207562
F159	F	0.712671	0.358731	-0.238408
F160	F	1.212671	0.858731	0.261592
H161	H	0.406215	0.411859	-0.273573
H162	H	0.906215	0.911859	0.226427
F163	F	1.372158	0.705795	-0.765819
F164	F	1.872158	1.205795	-0.265819
H165	H	1.330199	0.664778	-0.885610
H166	H	1.830199	1.164778	-0.385610
H167	H	1.060063	1.226616	-0.477574
H168	H	1.560063	1.726616	0.022426
H169	H	1.221907	1.141292	-0.259440
H170	H	1.721907	1.641292	0.240560
H171	H	1.274966	1.054481	-0.187892
H172	H	1.774966	1.554481	0.312108
F173	F	1.134177	0.802177	-0.377470
F174	F	1.634177	1.302177	0.122530
F175	F	0.715464	0.597193	-0.396189
F176	F	1.215464	1.097193	0.103811
F177	F	0.616879	0.411859	-0.273557
F178	F	1.116879	0.911859	0.226443
F179	F	0.959771	0.303106	-0.904713
F180	F	1.459771	0.803106	-0.404713
H181	H	1.325182	0.659963	-0.612746
H182	H	1.825182	1.159963	-0.112746
H183	H	1.292610	0.926673	-0.164045
H184	H	1.792610	1.426673	0.335955
F185	F	1.278873	0.769650	-0.182467
F186	F	1.778873	1.269650	0.317533
F187	F	0.866633	0.367265	-0.244045
F188	F	1.366633	0.867265	0.255955
H189	H	1.133804	0.473118	-0.641352
H190	H	1.633804	0.973118	-0.141352
F191	F	1.106962	0.846988	-0.414502
F192	F	1.606962	1.346988	0.085498
H193	H	1.081597	0.422150	-0.698094
H194	H	1.581597	0.922150	-0.198094
H195	H	1.006767	0.348934	-1.057784
H196	H	1.506767	0.848934	-0.557784
F197	F	0.986362	0.329118	-0.776906
F198	F	1.486362	0.829118	-0.276906
H199	H	1.198128	0.535780	-1.029191
H200	H	1.698128	1.035780	-0.529191
F201	F	0.465718	0.641796	-0.425692
F202	F	0.965718	1.141796	0.074308
F203	F	1.254691	0.591010	-0.992422
F204	F	1.754691	1.091010	-0.492422
H205	H	0.541518	0.419363	-0.278522
H206	H	1.041518	0.919363	0.221478
