data_functionalizedCrystal
_audit_creation_method	'MofGen! by Chris Wilmer'
_symmetry_space_group_name_H-M	'P1'
_symmetry_Int_Tables_number	1
_symmetry_cell_setting	triclinic
loop_
_symmetry_equiv_pos_as_xyz
  x,y,z
_cell_length_a	15.995350
_cell_length_b	15.995292
_cell_length_c	15.455313
_cell_angle_alpha	92.667666
_cell_angle_beta	87.322339
_cell_angle_gamma	83.480495
loop_
_atom_site_label
_atom_site_type_symbol
_atom_site_fract_x
_atom_site_fract_y
_atom_site_fract_z
O1	O	1.114630	0.104271	-0.072051
O2	O	0.870853	0.117598	-0.072068
O3	O	0.999430	-0.010956	-0.072060
O4	O	0.986052	0.232826	-0.072059
O5	O	0.992078	-0.003635	0.072201
O6	O	0.863500	0.124919	0.072194
O7	O	1.107277	0.111592	0.072211
Cu8	Cu	0.984717	0.118924	0.085374
Cu9	Cu	0.993413	0.110266	-0.085232
O10	O	0.978699	0.240147	0.072203
C11	C	0.835982	0.120707	0.000060
C12	C	0.743032	0.119055	0.000054
C13	C	0.405285	0.113124	0.000072
C14	C	0.452722	0.021586	0.000393
C15	C	0.549428	0.023221	0.000062
C16	C	0.572845	0.116066	0.000063
C17	C	0.535947	0.157043	-0.082314
C18	C	0.439315	0.154740	-0.082376
C19	C	0.430614	0.164957	0.081676
C20	C	0.527505	0.164990	0.082759
C21	C	0.667543	0.117733	0.000056
C22	C	0.310587	0.111459	0.000073
C23	C	0.995210	-0.038492	0.000068
C24	C	0.993578	-0.131445	0.000062
C25	C	0.987576	-0.469183	0.000069
C26	C	1.080364	-0.445854	0.000398
C27	C	1.082144	-0.349195	0.000070
C28	C	0.990554	-0.301627	0.000066
C29	C	0.948355	-0.334909	-0.082315
C30	C	0.947241	-0.431703	-0.082381
C31	C	0.936985	-0.423235	0.081671
C32	C	0.940368	-0.326687	0.082757
C33	C	0.992232	-0.206931	0.000061
C34	C	0.985895	-0.563879	0.000068
C35	C	1.142148	0.108483	0.000080
C36	C	1.235098	0.110135	0.000081
C37	C	0.982920	0.267682	0.000072
C38	C	0.984552	0.360635	0.000073
N39	N	0.978607	0.125013	0.205369
N40	N	0.999529	0.104170	-0.205227
C41	C	1.033251	0.070419	0.250767
C42	C	1.028638	0.075031	0.341574
C43	C	0.969385	0.134243	0.386983
C44	C	0.914736	0.188840	0.341579
C45	C	0.919345	0.184223	0.250773
C46	C	0.949489	0.154150	0.658563
C47	C	0.944886	0.158765	0.749376
C48	C	1.058787	0.044955	0.749365
C49	C	1.063395	0.040346	0.658557
C50	C	1.008742	0.094940	0.613161
N51	N	0.964670	0.138961	0.479803
N52	N	1.013454	0.090217	0.520343
H53	H	0.431196	-0.012013	0.059468
Cl54	Cl	0.550805	0.269917	0.090442
Cl55	Cl	0.394012	0.123634	0.178079
Cl56	Cl	0.880789	0.222784	0.601500
Cl57	Cl	0.976898	-0.462032	0.178075
Cl58	Cl	0.381513	0.269219	0.082539
H59	H	1.081504	0.022206	0.213801
Cl60	Cl	0.870390	0.233211	0.806455
Cl61	Cl	0.597087	-0.036354	-0.091425
Cl62	Cl	0.564790	0.118786	0.176849
H63	H	1.118930	-0.477853	-0.058345
H64	H	0.982513	-0.461644	-0.143960
H65	H	1.115472	-0.327173	0.059123
Cl66	Cl	0.831476	-0.444793	0.082526
H67	H	0.567453	0.122567	-0.143621
Cl68	Cl	1.097333	0.006396	0.398647
Cl69	Cl	1.130948	-0.484450	0.091612
Cl70	Cl	0.427102	-0.039266	-0.090307
H71	H	1.121711	-0.333792	-0.059083
H72	H	0.879387	-0.446443	-0.086117
H73	H	0.881113	-0.303197	-0.085381
Cl74	Cl	0.840241	0.263275	0.398662
H75	H	0.874848	0.228678	0.213812
H76	H	1.111643	-0.007869	0.621587
Cl77	Cl	0.415901	0.099071	-0.177449
Cl78	Cl	0.588689	-0.026959	0.091230
H79	H	0.873263	-0.293465	0.087729
Cl80	Cl	1.127485	-0.023676	0.806437
H81	H	0.983699	-0.317960	-0.143620
H82	H	0.971047	-0.305029	0.143702
H83	H	0.550214	0.225099	-0.085376
Cl84	Cl	0.389795	0.258223	-0.088149
