data_functionalizedCrystal
_audit_creation_method	'MofGen! by Chris Wilmer'
_symmetry_space_group_name_H-M	'P1'
_symmetry_Int_Tables_number	1
_symmetry_cell_setting	triclinic
loop_
_symmetry_equiv_pos_as_xyz
  x,y,z
_cell_length_a	16.109302
_cell_length_b	12.837942
_cell_length_c	14.586319
_cell_angle_alpha	89.996741
_cell_angle_beta	89.994552
_cell_angle_gamma	89.145360
loop_
_atom_site_label
_atom_site_type_symbol
_atom_site_fract_x
_atom_site_fract_y
_atom_site_fract_z
O1	O	1.113716	0.133244	-0.076281
O2	O	0.872971	0.149825	-0.076274
O3	O	0.988005	-0.009367	-0.076272
O4	O	0.998681	0.292435	-0.076284
O5	O	0.987996	-0.009369	0.076209
O6	O	0.872962	0.149822	0.076207
O7	O	1.113707	0.133242	0.076199
Cu8	Cu	0.993333	0.141532	0.090126
Cu9	Cu	0.993344	0.141535	-0.090201
O10	O	0.998672	0.292433	0.076197
C11	C	0.841938	0.149152	-0.000033
C12	C	0.749483	0.147138	-0.000030
C13	C	0.984394	-0.047987	-0.000032
C14	C	0.973637	-0.163061	-0.000033
C15	C	0.536767	0.142479	0.083078
C16	C	0.449896	0.140576	0.083075
C17	C	0.449917	0.140584	-0.083168
C18	C	0.536786	0.142480	-0.083164
C19	C	0.580209	0.143433	-0.000038
C20	C	0.406468	0.139633	-0.000045
C21	C	0.312278	0.137569	-0.000049
C22	C	0.674405	0.145495	-0.000034
C23	C	1.102954	-0.404062	-0.000056
C24	C	1.092851	-0.512185	-0.000057
C25	C	0.943328	-0.487430	-0.000044
C26	C	0.953431	-0.379308	-0.000042
C27	C	1.033247	-0.337628	-0.000047
C28	C	1.043349	-0.229504	-0.000039
C29	C	0.893827	-0.204751	-0.000032
C30	C	0.883724	-0.312873	-0.000033
C31	C	1.144739	0.133914	-0.000044
C32	C	1.237195	0.135929	-0.000053
C33	C	1.002284	0.331054	-0.000045
C34	C	1.013040	0.446127	-0.000050
N35	N	0.993332	0.141529	0.216957
N36	N	0.993352	0.141529	-0.217032
C37	C	1.044290	0.071063	0.451965
C38	C	1.044292	0.071060	0.547946
C39	C	0.942388	0.211999	0.547954
C40	C	0.942382	0.211995	0.451974
C41	C	0.993338	0.141529	0.403982
C42	C	0.993346	0.141529	0.595943
C43	C	0.993348	0.141527	0.700010
C44	C	0.993335	0.141529	0.299908
H45	H	0.572119	0.143255	0.150765
H46	H	1.149614	-0.566273	-0.000068
Cl47	Cl	1.108344	-0.017528	0.391636
Cl48	Cl	1.108346	-0.017531	0.608265
Cl49	Cl	0.842997	-0.539847	-0.000064
H50	H	0.818741	-0.346824	-0.000033
Cl51	Cl	0.878319	0.300583	0.391647
Cl52	Cl	0.395323	0.139361	-0.187663
H53	H	1.167943	-0.370127	-0.000051
Cl54	Cl	0.806190	-0.121227	-0.000009
Cl55	Cl	0.878336	0.300585	0.608290
H56	H	0.572158	0.143253	-0.150851
Cl57	Cl	0.395286	0.139379	0.187569
H58	H	1.108339	-0.195570	-0.000040
