data_functionalizedCrystal
_audit_creation_method	'MofGen! by Chris Wilmer'
_symmetry_space_group_name_H-M	'P1'
_symmetry_Int_Tables_number	1
_symmetry_cell_setting	triclinic
loop_
_symmetry_equiv_pos_as_xyz
  x,y,z
_cell_length_a	23.204082
_cell_length_b	23.204045
_cell_length_c	23.204116
_cell_angle_alpha	89.996985
_cell_angle_beta	59.999561
_cell_angle_gamma	60.000252
loop_
_atom_site_label
_atom_site_type_symbol
_atom_site_fract_x
_atom_site_fract_y
_atom_site_fract_z
O1	O	-0.412476	-0.491205	0.017138
O2	O	-0.294468	-0.407398	-0.017066
O3	O	-0.412474	-0.407398	0.100940
O4	O	-0.294470	-0.491205	-0.100867
O5	O	-0.508320	-0.311550	0.100932
O6	O	-0.390313	-0.311550	-0.017074
O7	O	-0.508322	-0.395358	0.017130
Zn8	Zn	-0.464535	-0.338236	0.000027
Zn9	Zn	-0.338255	-0.464519	0.000038
O10	O	-0.390316	-0.395358	-0.100875
C11	C	-0.285811	-0.206298	-0.024833
C12	C	-0.326271	-0.130278	-0.019933
C13	C	-0.320163	-0.241302	-0.025326
C14	C	-0.181447	-0.310660	-0.024841
C15	C	-0.110321	-0.346223	-0.019949
C16	C	-0.215958	-0.345505	-0.025334
C17	C	-0.285804	-0.310661	-0.024845
C18	C	-0.326257	-0.346226	-0.019957
C19	C	-0.215965	-0.241300	-0.025322
C20	C	-0.694387	-0.554195	0.035854
C21	C	-0.765510	-0.518634	0.030956
C22	C	-0.659872	-0.519352	0.036338
C23	C	-0.590034	-0.658550	0.035863
C24	C	-0.549582	-0.734567	0.030975
C25	C	-0.555677	-0.623549	0.036347
C26	C	-0.590029	-0.554194	0.035854
C27	C	-0.549571	-0.518632	0.030957
C28	C	-0.659877	-0.623550	0.036347
C29	C	-0.516884	-0.489902	0.026999
C30	C	-0.822969	-0.489905	0.026998
C31	C	-0.516900	-0.795981	0.027025
C32	C	-0.475877	-0.453859	0.022035
C33	C	-0.895054	-0.453863	0.022034
C34	C	-0.475899	-0.873028	0.022070
C35	C	-0.212776	-0.554190	-0.445761
C36	C	-0.253231	-0.518628	-0.481325
C37	C	-0.142934	-0.623545	-0.480599
C38	C	-0.212775	-0.554191	-0.341402
C39	C	-0.253229	-0.518630	-0.265386
C40	C	-0.142933	-0.623546	-0.376399
C41	C	-0.108421	-0.658546	-0.445754
C42	C	-0.037300	-0.734563	-0.481312
C43	C	-0.247130	-0.519348	-0.376406
C44	C	0.020158	-0.795977	-0.510038
C45	C	-0.285916	-0.489898	-0.510057
C46	C	-0.285913	-0.489901	-0.203972
C47	C	0.092243	-0.873024	-0.546077
C48	C	-0.326920	-0.453855	-0.546102
C49	C	-0.326916	-0.453858	-0.126925
O50	O	0.083789	-0.395359	0.017138
O51	O	-0.083830	-0.311544	-0.017055
O52	O	-0.083823	-0.311563	0.100946
O53	O	0.083781	-0.395339	-0.100863
O54	O	-0.083817	-0.407417	0.100936
O55	O	-0.083824	-0.407398	-0.017066
O56	O	0.083795	-0.491213	0.017127
Zn57	Zn	-0.000014	-0.464524	0.000029
Zn58	Zn	-0.000022	-0.338232	0.000043
O59	O	0.083787	-0.491194	-0.100874
O60	O	-0.508347	0.100917	0.017171
O61	O	-0.390332	-0.100896	-0.017043
O62	O	-0.508335	0.017093	0.100967
O63	O	-0.390344	-0.017072	-0.100839
O64	O	-0.412487	0.017095	0.100970
O65	O	-0.294484	-0.100894	-0.017040
O66	O	-0.412499	0.100919	0.017174
Zn67	Zn	-0.338273	0.000013	0.000068
Zn68	Zn	-0.464558	0.000010	0.000063
O69	O	-0.294496	-0.017070	-0.100835
O70	O	0.281004	-1.100886	-0.592525
O71	O	0.113397	-0.899079	-0.508728
O72	O	0.113392	-1.017082	-0.508721
O73	O	0.281009	-0.982884	-0.592533
O74	O	0.113390	-1.017079	-0.604571
O75	O	0.113395	-0.899077	-0.604578
O76	O	0.281002	-1.100884	-0.688375
Zn77	Zn	0.197198	-0.999980	-0.661695
Zn78	Zn	0.197201	-0.999983	-0.535408
O79	O	0.281007	-0.982881	-0.688382
O80	O	-0.412474	-0.407398	-0.688417
O81	O	-0.294473	-0.491202	-0.604602
O82	O	-0.412478	-0.491203	-0.604602
O83	O	-0.294469	-0.407396	-0.688417
O84	O	-0.508325	-0.395355	-0.508758
O85	O	-0.390321	-0.395353	-0.508758
O86	O	-0.508321	-0.311549	-0.592573
Zn87	Zn	-0.464538	-0.338233	-0.535448
Zn88	Zn	-0.338256	-0.464518	-0.661727
O89	O	-0.390316	-0.311548	-0.592573
C90	C	-0.621341	-0.206310	0.310685
C91	C	-0.692463	-0.130293	0.346242
C92	C	-0.586829	-0.241311	0.345531
C93	C	-0.516987	-0.310666	0.206334
C94	C	-0.476532	-0.346228	0.130317
C95	C	-0.482633	-0.345508	0.241338
C96	C	-0.516987	-0.310666	0.310693
C97	C	-0.476532	-0.346227	0.346258
C98	C	-0.586829	-0.241311	0.241331
C99	C	-0.285798	-0.310707	0.310685
C100	C	-0.326251	-0.346276	0.346239
C101	C	-0.320158	-0.241352	0.345532
C102	C	-0.181441	-0.310693	0.206337
C103	C	-0.110314	-0.346247	0.130322
C104	C	-0.215959	-0.241338	0.241343
C105	C	-0.285805	-0.206344	0.310696
C106	C	-0.326266	-0.130328	0.346262
C107	C	-0.215952	-0.345542	0.241331
C108	C	-0.516986	0.024843	0.310719
C109	C	-0.476527	0.019943	0.346281
C110	C	-0.586827	0.025323	0.345560
C111	C	-0.516994	0.024859	0.206365
C112	C	-0.476544	0.019978	0.130349
C113	C	-0.586835	0.025340	0.241364
C114	C	-0.621343	0.024841	0.310717
C115	C	-0.692463	0.019940	0.346276
C116	C	-0.482636	0.025342	0.241366
C117	C	0.409983	-0.658501	-0.445755
C118	C	0.450443	-0.734518	-0.481321
C119	C	0.444336	-0.623494	-0.480590
C120	C	0.305618	-0.554153	-0.341396
C121	C	0.234492	-0.518599	-0.265380
C122	C	0.340130	-0.519304	-0.376390
C123	C	0.409976	-0.554139	-0.445743
C124	C	0.450430	-0.518571	-0.481297
C125	C	0.340136	-0.623508	-0.376401
C126	C	0.483113	-0.489835	-0.510020
C127	C	0.483132	-0.795932	-0.510054
C128	C	0.177030	-0.489876	-0.203967
C129	C	0.524115	-0.453785	-0.546056
C130	C	0.524140	-0.872978	-0.546102
C131	C	0.104940	-0.453841	-0.126922
O132	O	-0.412518	0.100875	0.395394
O133	O	-0.294488	-0.100936	0.311584
O134	O	-0.412513	0.017058	0.311595
O135	O	-0.294493	-0.017120	0.395384
O136	O	-0.508343	0.017038	0.407447
O137	O	-0.390318	-0.100957	0.407437
O138	O	-0.508348	0.100854	0.491247
Zn139	Zn	-0.464548	-0.000055	0.464560
Zn140	Zn	-0.338288	-0.000028	0.338271
O141	O	-0.390323	-0.017140	0.491237
C142	C	-0.108470	-0.035723	-0.445718
C143	C	-0.037349	-0.030822	-0.481277
C144	C	-0.142987	-0.036206	-0.480560
C145	C	-0.212818	-0.035742	-0.341365
C146	C	-0.253267	-0.030860	-0.265349
C147	C	-0.247176	-0.036224	-0.376365
C148	C	-0.212828	-0.035725	-0.445719
C149	C	-0.253287	-0.030826	-0.481280
C150	C	-0.142977	-0.036223	-0.376364
C151	C	-0.285975	-0.026866	-0.510008
C152	C	0.020107	-0.026861	-0.510005
C153	C	-0.285947	-0.026915	-0.203936
C154	C	-0.326983	-0.021900	-0.546051
C155	C	0.092191	-0.021893	-0.546046
C156	C	-0.326945	-0.021967	-0.126891
H157	H	-0.499473	-0.651653	0.037130
H158	H	-0.187068	-0.402527	0.213229
H159	H	-0.688763	-0.651650	0.037128
H160	H	-0.187077	-0.213233	0.213243
H161	H	-0.688748	-0.462371	0.037104
H162	H	-0.114103	-0.036982	-0.537544
C163	C	-0.176945	-0.203337	-0.026379
C164	C	-0.088444	-0.233773	-0.087866
C165	C	-0.049425	-0.195812	-0.088923
C166	C	-0.098906	-0.127414	-0.028492
C167	C	-0.187412	-0.096975	0.032999
C168	C	-0.226431	-0.134936	0.034056
H169	H	-0.051811	-0.284408	-0.132604
H170	H	0.016093	-0.218346	-0.134443
H171	H	-0.070021	-0.099313	-0.029275
H172	H	-0.224045	-0.046339	0.077737
H173	H	-0.291949	-0.112402	0.079577
C174	C	0.301103	-0.442320	-0.338429
C175	C	0.224121	-0.403834	-0.261979
C176	C	0.185096	-0.326852	-0.224022
C177	C	0.223052	-0.288356	-0.262515
C178	C	0.300039	-0.326842	-0.338970
C179	C	0.339064	-0.403824	-0.376926
H180	H	0.196019	-0.432331	-0.233480
H181	H	0.128105	-0.298363	-0.167425
H182	H	0.194163	-0.231370	-0.234417
H183	H	0.328140	-0.298345	-0.367469
H184	H	0.396054	-0.432314	-0.433523
H185	H	-0.615717	-0.213208	0.402517
H186	H	-0.376357	-0.213263	0.402519
H187	H	-0.114052	-0.651644	-0.348293
H188	H	-0.615727	0.026139	0.213264
H189	H	-0.426426	-0.402490	0.213234
C190	C	-0.625850	0.026370	0.422540
C191	C	-0.656884	0.087842	0.480608
C192	C	-0.695909	0.088887	0.557585
C193	C	-0.703899	0.028462	0.576495
C194	C	-0.672864	-0.033015	0.518426
C195	C	-0.633839	-0.034061	0.441448
H196	H	-0.650970	0.132576	0.466612
H197	H	-0.718884	0.134396	0.600572
H198	H	-0.732788	0.029236	0.633478
H199	H	-0.678777	-0.077750	0.532422
H200	H	-0.610864	-0.079570	0.398462
H201	H	-0.615702	-0.213200	0.213223
H202	H	-0.114044	-0.651638	-0.537589
C203	C	-0.406695	0.026378	0.203377
C204	C	-0.327347	-0.034073	0.192417
C205	C	-0.251398	-0.033052	0.154416
C206	C	-0.254798	0.028419	0.127375
C207	C	-0.334149	0.088874	0.138335
C208	C	-0.410097	0.087854	0.176336
H209	H	-0.324828	-0.079582	0.212435
H210	H	-0.192658	-0.077806	0.146303
H211	H	-0.198576	0.029175	0.099244
H212	H	-0.336668	0.134383	0.118317
H213	H	-0.468838	0.132607	0.184449
C214	C	-0.323093	-0.037296	-0.338407
C215	C	-0.319657	-0.098785	-0.368860
C216	C	-0.395569	-0.099859	-0.330905
C217	C	-0.474918	-0.039445	-0.262497
C218	C	-0.478357	0.022048	-0.232040
C219	C	-0.402445	0.023123	-0.269996
H220	H	-0.260916	-0.143512	-0.419503
H221	H	-0.393022	-0.145381	-0.353451
H222	H	-0.531112	-0.040240	-0.234400
H223	H	-0.537098	0.066775	-0.181397
H224	H	-0.404991	0.068644	-0.247450
C225	C	-0.323021	-0.442351	-0.338459
C226	C	-0.360970	-0.403848	-0.376956
C227	C	-0.436845	-0.326849	-0.339017
C228	C	-0.474771	-0.288352	-0.262580
C229	C	-0.436822	-0.326855	-0.224079
C230	C	-0.360948	-0.403855	-0.262018
H231	H	-0.332895	-0.432346	-0.433543
H232	H	-0.464937	-0.298346	-0.367518
H233	H	-0.530938	-0.231352	-0.234495
H234	H	-0.464897	-0.298357	-0.167492
H235	H	-0.332856	-0.432357	-0.233516
H236	H	0.500536	-0.651590	-0.537576
H237	H	-0.187064	-0.402494	-0.026127
H238	H	0.311267	-0.651623	-0.348303
H239	H	-0.114123	-0.036955	-0.348248
H240	H	-0.376360	-0.213201	-0.026120
