data_functionalizedCrystal
_audit_creation_method	'MofGen! by Chris Wilmer'
_symmetry_space_group_name_H-M	'P1'
_symmetry_Int_Tables_number	1
_symmetry_cell_setting	triclinic
loop_
_symmetry_equiv_pos_as_xyz
  x,y,z
_cell_length_a	14.853566
_cell_length_b	14.853559
_cell_length_c	14.048226
_cell_angle_alpha	89.995761
_cell_angle_beta	89.996390
_cell_angle_gamma	83.632934
loop_
_atom_site_label
_atom_site_type_symbol
_atom_site_fract_x
_atom_site_fract_y
_atom_site_fract_z
O1	O	1.196364	0.117701	-0.079093
O2	O	0.933904	0.131724	-0.079108
O3	O	1.072149	-0.006518	-0.079099
O4	O	1.058119	0.255943	-0.079102
O5	O	1.072132	-0.006526	0.079222
O6	O	0.933887	0.131716	0.079213
O7	O	1.196348	0.117693	0.079228
Zn8	Zn	1.065115	0.124703	0.104358
Zn9	Zn	1.065137	0.124714	-0.104237
O10	O	1.058103	0.255935	0.079219
C11	C	0.900307	0.131085	0.000051
C12	C	0.800223	0.129181	0.000045
C13	C	0.377048	0.121135	-0.086240
C14	C	0.377051	0.121127	0.086368
C15	C	0.471085	0.122914	0.086366
C16	C	0.518105	0.123813	0.000059
C17	C	0.471090	0.122925	-0.086245
C18	C	0.518105	0.123811	0.172668
C19	C	0.612145	0.125600	0.172668
C20	C	0.659167	0.126493	0.086360
C21	C	0.612147	0.125604	0.000053
C22	C	0.659167	0.126503	-0.086254
C23	C	0.612149	0.125607	-0.172562
C24	C	0.518112	0.123818	-0.172553
C25	C	0.753204	0.128282	0.086351
C26	C	0.753209	0.128293	-0.086259
C27	C	1.071506	-0.040111	0.000060
C28	C	1.069605	-0.140195	0.000054
C29	C	1.061551	-0.563365	-0.086247
C30	C	1.061533	-0.563369	0.086361
C31	C	1.063326	-0.469336	0.086362
C32	C	1.064230	-0.422313	0.000057
C33	C	1.063342	-0.469323	-0.086249
C34	C	1.064206	-0.422317	0.172666
C35	C	1.065998	-0.328278	0.172670
C36	C	1.066909	-0.281254	0.086364
C37	C	1.066021	-0.328270	0.000055
C38	C	1.066926	-0.281247	-0.086250
C39	C	1.066044	-0.328263	-0.172560
C40	C	1.064253	-0.422299	-0.172555
C41	C	1.068701	-0.187218	0.086359
C42	C	1.068717	-0.187205	-0.086252
C43	C	1.229945	0.118332	0.000068
C44	C	1.330028	0.120236	0.000067
C45	C	1.058745	0.289528	0.000058
C46	C	1.060646	0.389612	0.000058
N47	N	1.065106	0.124695	0.246718
N48	N	1.065152	0.124715	-0.246598
C49	C	1.126341	0.063507	0.296540
C50	C	1.126347	0.063507	0.396198
C51	C	1.065122	0.124699	0.446032
C52	C	1.003882	0.185890	0.396203
C53	C	1.003872	0.185886	0.296547
C54	C	1.003908	0.185897	0.603917
C55	C	1.003918	0.185903	0.703580
C56	C	1.126382	0.063518	0.703568
C57	C	1.126373	0.063513	0.603912
C58	C	1.065133	0.124705	0.554090
H59	H	0.338762	0.120402	-0.156510
Cl60	Cl	0.926916	0.262824	0.541287
Cl61	Cl	0.671270	0.126744	-0.281057
H62	H	0.650419	0.126327	0.242946
H63	H	1.063464	-0.460610	0.242931
Cl64	Cl	1.060452	-0.622468	-0.194746
Cl65	Cl	1.067103	-0.269181	0.281172
H66	H	1.176245	0.013693	0.744139
H67	H	0.954062	0.235731	0.744150
Cl68	Cl	0.458990	0.122692	0.281160
Cl69	Cl	1.203327	-0.013418	0.458833
Cl70	Cl	0.317939	0.120006	0.194862
Cl71	Cl	1.069807	-0.128117	0.194854
Cl72	Cl	0.459004	0.122658	-0.281044
Cl73	Cl	1.203318	-0.013422	0.233903
H74	H	0.954027	0.235711	0.436783
H75	H	0.791486	0.129022	-0.156542
H76	H	0.791480	0.129020	0.156622
Cl77	Cl	0.926885	0.262808	0.233914
H78	H	1.066774	-0.289964	-0.242829
H79	H	1.069457	-0.148926	-0.156532
Cl80	Cl	1.063148	-0.481410	-0.281049
Cl81	Cl	1.060380	-0.622482	0.194852
H82	H	1.176230	0.013690	0.563338
