data_functionalizedCrystal
_audit_creation_method	'MofGen! by Chris Wilmer'
_symmetry_space_group_name_H-M	'P1'
_symmetry_Int_Tables_number	1
_symmetry_cell_setting	triclinic
loop_
_symmetry_equiv_pos_as_xyz
  x,y,z
_cell_length_a	19.805407
_cell_length_b	16.959454
_cell_length_c	19.805399
_cell_angle_alpha	89.976206
_cell_angle_beta	89.983114
_cell_angle_gamma	90.020075
loop_
_atom_site_label
_atom_site_type_symbol
_atom_site_fract_x
_atom_site_fract_y
_atom_site_fract_z
Zn1	Zn	1.034748	-0.314689	-0.382744
Zn2	Zn	1.534748	0.185311	0.117256
Zn3	Zn	1.034680	-0.446875	-0.269566
Zn4	Zn	1.534680	0.053125	0.230434
Zn5	Zn	0.921567	-0.314714	-0.269569
Zn6	Zn	1.421567	0.185286	0.230431
Zn7	Zn	0.921538	-0.446829	-0.382713
Zn8	Zn	1.421538	0.053171	0.117287
O9	O	0.978133	-0.380777	-0.326148
O10	O	1.478133	0.119223	0.173852
O11	O	1.129455	-0.332232	-0.367743
O12	O	1.629455	0.167768	0.132257
O13	O	1.019660	-0.429373	-0.174850
O14	O	1.519660	0.070627	0.325150
O15	O	0.936621	-0.204100	-0.284596
O16	O	1.436621	0.295900	0.215404
O17	O	1.129406	-0.429348	-0.284591
O18	O	1.629406	0.070652	0.215409
O19	O	1.019774	-0.204081	-0.367745
O20	O	1.519774	0.295919	0.132255
O21	O	0.936556	-0.332275	-0.174852
O22	O	1.436556	0.167725	0.325148
O23	O	0.826847	-0.332231	-0.284565
O24	O	1.326847	0.167769	0.215435
O25	O	0.936572	-0.429271	-0.477434
O26	O	1.436572	0.070729	0.022566
O27	O	0.826826	-0.429295	-0.367692
O28	O	1.326826	0.070705	0.132308
O29	O	1.019746	-0.332188	-0.477457
O30	O	1.519746	0.167812	0.022543
O31	O	1.019631	-0.557479	-0.284561
O32	O	1.519631	-0.057479	0.215439
O33	O	0.936506	-0.557446	-0.367690
O34	O	1.436506	-0.057446	0.132310
C35	C	0.802277	-0.380762	-0.326126
C36	C	1.302277	0.119238	0.173874
C37	C	0.727045	-0.380774	-0.326133
C38	C	1.227045	0.119226	0.173867
C39	C	0.691708	-0.431392	-0.369347
C40	C	1.191708	0.068608	0.130653
C41	C	0.621019	-0.431393	-0.369356
C42	C	1.121019	0.068607	0.130644
C43	C	0.585670	-0.380780	-0.326148
C44	C	1.085670	0.119220	0.173852
C45	C	0.621012	-0.330157	-0.282932
C46	C	1.121012	0.169843	0.217068
C47	C	0.691700	-0.330152	-0.282926
C48	C	1.191700	0.169848	0.217074
C49	C	0.335939	-0.330175	-0.282954
C50	C	0.835939	0.169825	0.217046
C51	C	0.265247	-0.330185	-0.282962
C52	C	0.765247	0.169815	0.217038
C53	C	0.265259	-0.431415	-0.369384
C54	C	0.765259	0.068585	0.130616
C55	C	0.335946	-0.431411	-0.369379
C56	C	0.835946	0.068589	0.130621
C57	C	0.371282	-0.380785	-0.326166
C58	C	0.871282	0.119215	0.173834
C59	C	0.447931	-0.380783	-0.326157
C60	C	0.947931	0.119217	0.173843
C61	C	0.509023	-0.380786	-0.326153
C62	C	1.009023	0.119214	0.173847
C63	C	0.978077	-0.586143	-0.326136
C64	C	1.478077	-0.086143	0.173864
C65	C	0.978114	-0.674000	-0.326154
C66	C	1.478114	-0.174000	0.173846
C67	C	0.934913	-1.045488	-0.369428
C68	C	1.434913	-0.545488	0.130572
C69	C	1.021542	-1.045462	-0.282937
C70	C	1.521542	-0.545462	0.217063
C71	C	1.021519	-0.962917	-0.282930
C72	C	1.521519	-0.462917	0.217070
C73	C	0.978191	-0.921652	-0.326173
C74	C	1.478191	-0.421652	0.173827
C75	C	0.934887	-0.962934	-0.369422
C76	C	1.434887	-0.462934	0.130578
C77	C	1.064817	-0.921629	-0.239677
C78	C	1.564817	-0.421629	0.260323
C79	C	1.064795	-0.839078	-0.239669
C80	C	1.564795	-0.339078	0.260331
C81	C	1.021470	-0.797812	-0.282915
C82	C	1.521470	-0.297812	0.217085
C83	C	0.978164	-0.839099	-0.326167
C84	C	1.478164	-0.339099	0.173833
C85	C	0.934837	-0.797835	-0.369409
C86	C	1.434837	-0.297835	0.130591
C87	C	0.891534	-0.839120	-0.412665
C88	C	1.391534	-0.339120	0.087335
C89	C	0.891562	-0.921669	-0.412669
C90	C	1.391562	-0.421669	0.087331
C91	C	1.021442	-0.715264	-0.282911
C92	C	1.521442	-0.215264	0.217089
C93	C	0.934810	-0.715281	-0.369403
C94	C	1.434810	-0.215281	0.130597
C95	C	1.154676	-0.380792	-0.326170
C96	C	1.654676	0.119208	0.173830
C97	C	1.229908	-0.380799	-0.326180
C98	C	1.729908	0.119201	0.173820
C99	C	0.978163	-0.380722	-0.502691
C100	C	1.478163	0.119278	-0.002691
C101	C	0.978176	-0.380698	-0.577923
C102	C	1.478176	0.119302	-0.077923
C103	C	0.978209	-0.174608	-0.326174
C104	C	1.478209	0.325392	0.173826
C105	C	0.978241	-0.086752	-0.326186
C106	C	1.478241	0.413248	0.173814
C107	C	0.934916	-0.330135	-0.613267
C108	C	1.434916	0.169865	-0.113267
C109	C	0.934925	-0.330119	-0.683956
C110	C	1.434925	0.169881	-0.183956
C111	C	0.978198	-0.380664	-0.719298
C112	C	1.478198	0.119336	-0.219298
C113	C	1.021460	-0.431233	-0.683949
C114	C	1.521460	0.068767	-0.183949
C115	C	1.021447	-0.431252	-0.613262
C116	C	1.521447	0.068748	-0.113262
C117	C	1.021513	-0.431160	-0.969022
C118	C	1.521513	0.068840	-0.469022
C119	C	1.021525	-0.431135	-1.039714
C120	C	1.521525	0.068865	-0.539714
C121	C	0.934992	-0.330027	-1.039716
C122	C	1.434992	0.169973	-0.539716
C123	C	0.934979	-0.330046	-0.969029
C124	C	1.434979	0.169954	-0.469029
C125	C	0.978238	-0.380617	-0.933686
C126	C	1.478238	0.119383	-0.433686
C127	C	0.978226	-0.380634	-0.857037
C128	C	1.478226	0.119366	-0.357037
C129	C	0.978214	-0.380644	-0.795946
C130	C	1.478214	0.119356	-0.295946
C131	C	0.978143	-0.380774	-0.150292
C132	C	1.478143	0.119226	0.349708
C133	C	0.978261	-0.380575	-0.075060
C134	C	1.478261	0.119425	0.424940
H135	H	0.236467	-0.288965	-0.247776
H136	H	0.736467	0.211035	0.252224
C137	C	1.068521	-0.670582	-0.235925
C138	C	1.568521	-0.170582	0.264075
C139	C	1.106478	-0.724388	-0.198064
C140	C	1.606478	-0.224388	0.301936
C141	C	1.149862	-0.683257	-0.154777
C142	C	1.649862	-0.183257	0.345223
H143	H	1.042710	-0.638416	-0.206351
H144	H	1.542710	-0.138416	0.293649
H145	H	1.098026	-0.638357	-0.261824
H146	H	1.598026	-0.138357	0.238176
H147	H	1.076977	-0.756599	-0.172168
H148	H	1.576977	-0.256599	0.327832
H149	H	1.132303	-0.756556	-0.227620
H150	H	1.632303	-0.256556	0.272380
H151	H	1.179367	-0.651032	-0.180675
H152	H	1.679367	-0.151032	0.319325
H153	H	1.124046	-0.651092	-0.125207
H154	H	1.624046	-0.151092	0.374793
H155	H	1.175626	-0.719758	-0.129087
H156	H	1.675626	-0.219758	0.370913
C157	C	0.226930	-0.486505	-0.416229
C158	C	0.726930	0.013495	0.083771
C159	C	0.244085	-0.564689	-0.401363
C160	C	0.744085	-0.064689	0.098637
C161	C	0.208786	-0.615459	-0.444495
C162	C	0.708786	-0.115459	0.055505
H163	H	0.238511	-0.475108	-0.461744
H164	H	0.738511	0.024892	0.038256
H165	H	0.179761	-0.479314	-0.410045
H166	H	0.679761	0.020686	0.089955
H167	H	0.291243	-0.571877	-0.407553
H168	H	0.791243	-0.071877	0.092447
H169	H	0.232502	-0.576111	-0.355855
H170	H	0.732502	-0.076111	0.144145
H171	H	0.161618	-0.608268	-0.438311
H172	H	0.661618	-0.108268	0.061689
H173	H	0.220370	-0.604055	-0.490008
H174	H	0.720370	-0.104055	0.009992
H175	H	0.220416	-0.668513	-0.434410
H176	H	0.720416	-0.168513	0.065590
H177	H	0.592250	-0.472612	-0.404545
H178	H	1.092250	0.027388	0.095455
C179	C	0.887857	-0.275228	-0.575021
C180	C	1.387857	0.224772	-0.075021
C181	C	0.849960	-0.230960	-0.621108
C182	C	1.349960	0.269040	-0.121108
C183	C	0.806593	-0.180381	-0.585902
C184	C	1.306593	0.319619	-0.085902
H185	H	0.913678	-0.240725	-0.547450
H186	H	1.413678	0.259275	-0.047450
H187	H	0.858314	-0.305454	-0.547453
H188	H	1.358314	0.194546	-0.047453
H189	H	0.879500	-0.200736	-0.648663
H190	H	1.379500	0.299264	-0.148663
H191	H	0.824126	-0.265442	-0.648679
H192	H	1.324126	0.234558	-0.148679
H193	H	0.777049	-0.210607	-0.558334
H194	H	1.277049	0.289393	-0.058334
H195	H	0.832419	-0.145884	-0.558333
H196	H	1.332419	0.354116	-0.058333
H197	H	0.780870	-0.150344	-0.617166
H198	H	1.280870	0.349656	-0.117166
H199	H	0.899530	-0.681689	-0.404619
H200	H	1.399530	-0.181689	0.095381
C201	C	1.111769	-0.966344	-0.192585
C202	C	1.611769	-0.466344	0.307415
C203	C	1.097019	-0.946287	-0.125618
C204	C	1.597019	-0.446287	0.374382
C205	C	1.140253	-0.987455	-0.082202
C206	C	1.640253	-0.487455	0.417798
H207	H	1.157260	-0.952791	-0.202430
H208	H	1.657260	-0.452791	0.297570
H209	H	1.105601	-1.021435	-0.198708
H210	H	1.605601	-0.521435	0.301292
H211	H	1.103193	-0.891208	-0.119498
H212	H	1.603193	-0.391208	0.380502
H213	H	1.051537	-0.959842	-0.115752
H214	H	1.551537	-0.459842	0.384248
H215	H	1.134085	-1.042547	-0.088325
H216	H	1.634085	-0.542547	0.411675
H217	H	1.185741	-0.973899	-0.092053
H218	H	1.685741	-0.473899	0.407947
H219	H	1.130248	-0.973858	-0.036760
H220	H	1.630248	-0.473858	0.463240
H221	H	0.364701	-0.288958	-0.247763
H222	H	0.864701	0.211042	0.252237
H223	H	1.100054	-0.805468	-0.204449
H224	H	1.600054	-0.305468	0.295551
C225	C	0.582757	-0.275119	-0.235993
C226	C	1.082757	0.224881	0.264007
C227	C	0.628837	-0.230773	-0.198160
C228	C	1.128837	0.269227	0.301840
C229	C	0.593623	-0.180058	-0.154916
C230	C	1.093623	0.319942	0.345084
H231	H	0.555162	-0.305225	-0.206400
H232	H	1.055162	0.194775	0.293600
H233	H	0.555214	-0.240677	-0.261922
H234	H	1.055214	0.259323	0.238078
H235	H	0.656369	-0.265211	-0.172233
H236	H	1.156369	0.234789	0.327767
H237	H	0.656433	-0.200651	-0.227735
H238	H	1.156433	0.299349	0.272265
H239	H	0.566079	-0.145616	-0.180845
H240	H	1.066079	0.354384	0.319155
H241	H	0.566029	-0.210171	-0.125327
H242	H	1.066029	0.289829	0.374673
H243	H	0.624882	-0.149958	-0.129246
H244	H	1.124882	0.350042	0.370754
H245	H	0.856253	-0.805513	-0.447870
H246	H	1.356253	-0.305513	0.052130
C247	C	1.068525	-0.485981	-0.722355
C248	C	1.568525	0.014019	-0.222355
C249	C	1.111945	-0.441218	-0.762934
C250	C	1.611945	0.058782	-0.262934
C251	C	1.155318	-0.491623	-0.798315
C252	C	1.655318	0.008377	-0.298315
H253	H	1.042704	-0.520425	-0.749978
H254	H	1.542704	-0.020425	-0.249978
H255	H	1.094327	-0.516086	-0.691201
H256	H	1.594327	-0.016086	-0.191201
H257	H	1.086146	-0.411127	-0.794084
H258	H	1.586146	0.088873	-0.294084
H259	H	1.137781	-0.406776	-0.735328
H260	H	1.637781	0.093224	-0.235328
H261	H	1.181120	-0.521728	-0.767161
H262	H	1.681120	-0.021728	-0.267161
H263	H	1.129492	-0.526065	-0.825935
H264	H	1.629492	-0.026065	-0.325935
H265	H	1.184788	-0.461259	-0.825847
H266	H	1.684788	0.038741	-0.325847
C267	C	1.068617	-0.485975	-1.078000
C268	C	1.568617	0.014025	-0.578000
C269	C	1.135589	-0.468796	-1.060801
C270	C	1.635589	0.031204	-0.560801
C271	C	1.178987	-0.519301	-1.096048
C272	C	1.678987	-0.019301	-0.596048
H273	H	1.062523	-0.478769	-1.125171
H274	H	1.562523	0.021231	-0.625171
H275	H	1.058726	-0.539099	-1.066394
H276	H	1.558726	-0.039099	-0.566394
H277	H	1.145477	-0.415685	-1.072411
H278	H	1.645477	0.084315	-0.572411
H279	H	1.141704	-0.476007	-1.013636
H280	H	1.641704	0.023993	-0.513636
H281	H	1.169095	-0.572425	-1.084442
H282	H	1.669095	-0.072425	-0.584442
H283	H	1.172887	-0.512091	-1.143217
H284	H	1.672887	-0.012091	-0.643217
H285	H	1.224431	-0.507657	-1.084379
H286	H	1.724431	-0.007657	-0.584379
C287	C	0.730157	-0.275327	-0.235967
C288	C	1.230157	0.224673	0.264033
C289	C	0.770725	-0.320013	-0.192529
C290	C	1.270725	0.179987	0.307471
C291	C	0.806169	-0.269531	-0.149268
C292	C	1.306169	0.230469	0.350732
H293	H	0.699061	-0.245165	-0.210168
H294	H	1.199061	0.254835	0.289832
H295	H	0.757789	-0.240937	-0.261890
H296	H	1.257789	0.259063	0.238110
H297	H	0.743096	-0.354389	-0.166608
H298	H	1.243096	0.145611	0.333392
H299	H	0.801834	-0.350173	-0.218310
H300	H	1.301834	0.149827	0.281690
H301	H	0.833801	-0.235142	-0.175191
H302	H	1.333801	0.264858	0.324809
H303	H	0.775067	-0.239373	-0.123473
H304	H	1.275067	0.260627	0.376527
H305	H	0.833703	-0.299843	-0.119795
H306	H	1.333703	0.200157	0.380205
H307	H	0.856306	-0.955290	-0.447884
H308	H	1.356306	-0.455290	0.052116
H309	H	1.056678	-0.472420	-0.584485
H310	H	1.556678	0.027580	-0.084485
H311	H	0.899659	-1.079106	-0.404647
H312	H	1.399659	-0.579106	0.095353
C313	C	0.374288	-0.486263	-0.416406
C314	C	0.874288	0.013737	0.083594
C315	C	0.357135	-0.469137	-0.483401
C316	C	0.857135	0.030863	0.016599
C317	C	0.392448	-0.519642	-0.526744
C318	C	0.892448	-0.019642	-0.026744
H319	H	0.362717	-0.539387	-0.406516
H320	H	0.862717	-0.039387	0.093484
H321	H	0.421455	-0.479005	-0.410260
H322	H	0.921455	0.020995	0.089740
H323	H	0.309979	-0.476402	-0.489544
H324	H	0.809979	0.023598	0.010456
H325	H	0.368708	-0.416022	-0.493312
H326	H	0.868708	0.083978	0.006688
H327	H	0.439614	-0.512383	-0.520598
H328	H	0.939614	-0.012383	-0.020598
H329	H	0.380874	-0.572763	-0.516848
H330	H	0.880874	-0.072763	-0.016848
H331	H	0.380819	-0.508024	-0.572205
H332	H	0.880819	-0.008024	-0.072205
H333	H	1.056814	-1.079065	-0.247726
H334	H	1.556814	-0.579065	0.252274
H335	H	0.899767	-0.288851	-1.068502
H336	H	1.399767	0.211149	-0.568502
H337	H	0.720484	-0.472609	-0.404530
H338	H	1.220484	0.027391	0.095470
H339	H	1.056730	-0.472347	-0.940254
H340	H	1.556730	0.027653	-0.440254
H341	H	0.899744	-0.288884	-0.940257
H342	H	1.399744	0.211116	-0.440257
C343	C	0.887863	-0.275357	-0.722358
C344	C	1.387863	0.224643	-0.222358
C345	C	0.844455	-0.320105	-0.762905
C346	C	1.344455	0.179895	-0.262905
C347	C	0.801079	-0.269688	-0.798280
C348	C	1.301079	0.230312	-0.298280
H349	H	0.913683	-0.240892	-0.750003
H350	H	1.413683	0.259108	-0.250003
H351	H	0.862054	-0.245276	-0.691201
H352	H	1.362054	0.254724	-0.191201
H353	H	0.870262	-0.350173	-0.794058
H354	H	1.370262	0.149827	-0.294058
H355	H	0.818621	-0.354569	-0.735277
H356	H	1.318621	0.145431	-0.235277
H357	H	0.775269	-0.239606	-0.767123
H358	H	1.275269	0.260394	-0.267123
H359	H	0.826904	-0.235225	-0.825921
H360	H	1.326904	0.264775	-0.325921
H361	H	0.771618	-0.300042	-0.825790
H362	H	1.271618	0.199958	-0.325790
