data_functionalizedCrystal
_audit_creation_method	'MofGen! by Chris Wilmer'
_symmetry_space_group_name_H-M	'P1'
_symmetry_Int_Tables_number	1
_symmetry_cell_setting	triclinic
loop_
_symmetry_equiv_pos_as_xyz
  x,y,z
_cell_length_a	12.759395
_cell_length_b	12.759394
_cell_length_c	10.686551
_cell_angle_alpha	94.404940
_cell_angle_beta	94.394579
_cell_angle_gamma	90.015393
loop_
_atom_site_label
_atom_site_type_symbol
_atom_site_fract_x
_atom_site_fract_y
_atom_site_fract_z
Zn1	Zn	1.651861	-0.372572	0.713442
Zn2	Zn	1.638272	-0.561774	0.502444
Zn3	Zn	1.462678	-0.386113	0.502460
Zn4	Zn	1.476151	-0.548218	0.713396
O5	O	1.557240	-0.467169	0.607935
O6	O	1.797080	-0.397677	0.685464
O7	O	1.603654	-0.549813	0.325865
O8	O	1.487822	-0.237294	0.530473
O9	O	1.787096	-0.536683	0.530445
O10	O	1.626814	-0.227346	0.685481
O11	O	1.474646	-0.420756	0.325877
O12	O	1.317443	-0.407610	0.530429
O13	O	1.510785	-0.513578	0.889983
O14	O	1.327342	-0.526708	0.685403
O15	O	1.639878	-0.384532	0.890017
O16	O	1.616718	-0.706999	0.530401
O17	O	1.497608	-0.697039	0.685387
C18	C	1.284272	-0.467158	0.607914
C19	C	1.167496	-0.467177	0.607934
C20	C	1.177825	-0.591427	0.769048
C21	C	1.128129	-0.653560	0.849608
C22	C	1.018409	-0.653571	0.849623
C23	C	0.958381	-0.591441	0.769072
C24	C	1.008077	-0.529308	0.688512
C25	C	1.117801	-0.529305	0.688503
C26	C	0.997749	-0.405054	0.527407
C27	C	1.107469	-0.405046	0.527384
C28	C	0.937721	-0.342923	0.446857
C29	C	0.987416	-0.280795	0.366288
C30	C	1.097144	-0.280786	0.366275
C31	C	1.157165	-0.342913	0.446823
C32	C	1.557181	-0.740138	0.607915
C33	C	1.557254	-0.856913	0.607948
C34	C	1.701893	-0.846388	0.769478
C35	C	1.774246	-0.895985	0.850253
C36	C	1.774311	-1.005705	0.850280
C37	C	1.702012	-1.065830	0.769526
C38	C	1.629658	-1.016233	0.688752
C39	C	1.629604	-0.906510	0.688731
C40	C	1.485016	-1.026757	0.527230
C41	C	1.484955	-0.917038	0.527195
C42	C	1.412717	-1.086883	0.446477
C43	C	1.340367	-1.037286	0.365694
C44	C	1.340307	-0.927559	0.365669
C45	C	1.412602	-0.867440	0.446420
C46	C	1.831275	-0.467182	0.607958
C47	C	1.948053	-0.467187	0.607968
C48	C	1.578350	-0.446032	0.937066
C49	C	1.587345	-0.437024	1.077321
C50	C	1.557331	-0.193133	0.607984
C51	C	1.557369	-0.076355	0.608005
C52	C	1.536274	-0.488149	0.280086
C53	C	1.527482	-0.496860	0.139831
H54	H	1.137600	-0.230182	0.300682
C55	C	1.448941	-0.575377	1.067174
N56	N	1.389782	-0.634515	1.012441
H57	H	1.833110	-0.847021	0.916004
C58	C	1.260891	-1.103433	0.276819
N59	N	1.201046	-1.153261	0.209853
C60	C	1.412801	-1.207578	0.446494
N61	N	1.412870	-1.298488	0.446496
H62	H	1.645487	-0.378906	1.131110
C63	C	1.701836	-0.725693	0.769447
N64	N	1.701794	-0.634784	0.769427
C65	C	0.817026	-0.342927	0.446888
N66	N	0.726117	-0.342928	0.446911
C67	C	1.853903	-1.060264	0.939134
N68	N	1.913853	-1.101357	1.006058
H69	H	1.246505	-0.342916	0.446817
H70	H	1.702062	-1.155169	0.769566
H71	H	1.267166	-0.591432	0.769034
H72	H	0.869042	-0.591446	0.769103
H73	H	0.938534	-0.230208	0.300716
H74	H	1.412564	-0.778101	0.446402
C75	C	1.194167	-0.721905	0.938204
N76	N	1.243904	-0.773383	1.004934
H77	H	1.281384	-0.887183	0.299898
H78	H	0.977947	-0.704160	0.915229
