data_functionalizedCrystal
_audit_creation_method	'MofGen! by Chris Wilmer'
_symmetry_space_group_name_H-M	'P1'
_symmetry_Int_Tables_number	1
_symmetry_cell_setting	triclinic
loop_
_symmetry_equiv_pos_as_xyz
  x,y,z
_cell_length_a	19.120904
_cell_length_b	19.121102
_cell_length_c	19.121063
_cell_angle_alpha	90.126902
_cell_angle_beta	85.258387
_cell_angle_gamma	89.911827
loop_
_atom_site_label
_atom_site_type_symbol
_atom_site_fract_x
_atom_site_fract_y
_atom_site_fract_z
Zn1	Zn	-0.456040	-1.039579	0.343506
Zn2	Zn	-0.343386	-1.039493	0.456149
Zn3	Zn	-0.333417	-0.927792	0.333518
Zn4	Zn	-0.455570	-0.917325	0.455677
O5	O	-0.397103	-0.981047	0.397212
O6	O	-0.445465	-1.137479	0.362826
O7	O	-0.243797	-1.029020	0.435899
O8	O	-0.345708	-0.947038	0.236577
O9	O	-0.362699	-1.137415	0.445584
O10	O	-0.435798	-1.029167	0.243915
O11	O	-0.236473	-0.946954	0.345802
O12	O	-0.345252	-0.828493	0.345345
O13	O	-0.553899	-0.929198	0.444780
O14	O	-0.434997	-0.820803	0.435094
O15	O	-0.554244	-1.019018	0.362368
O16	O	-0.362243	-1.018870	0.554352
O17	O	-0.444664	-0.929114	0.554005
C18	C	-0.388992	-0.799261	0.389085
C19	C	-0.385539	-0.721490	0.385626
C20	C	-0.404501	-0.972865	0.579659
C21	C	-0.407691	-0.969428	0.657714
C22	C	-0.580263	-0.972950	0.404635
C23	C	-0.658315	-0.969500	0.407799
C24	C	-0.695165	-1.014640	0.366379
C25	C	-0.768503	-1.011390	0.369348
C26	C	-0.804990	-0.963001	0.413741
C27	C	-0.768135	-0.917856	0.455162
C28	C	-0.694798	-0.921103	0.452188
C29	C	-1.026410	-0.950853	0.424862
C30	C	-1.099752	-0.947610	0.427833
C31	C	-1.100115	-1.041143	0.342019
C32	C	-1.026777	-1.044390	0.339052
C33	C	-0.989928	-0.999242	0.380470
C34	C	-0.879953	-0.959679	0.416779
C35	C	-0.914966	-1.002561	0.377429
C36	C	-0.214655	-0.989156	0.389769
C37	C	-0.136602	-0.992751	0.386414
C38	C	-0.405246	-1.163544	0.405372
C39	C	-0.408717	-1.241313	0.408849
C40	C	-0.430575	-0.680968	0.430793
C41	C	-0.427334	-0.607894	0.427534
C42	C	-0.379053	-0.575344	0.379110
C43	C	-0.334016	-0.615872	0.333937
C44	C	-0.337261	-0.688944	0.337194
C45	C	-0.366924	-0.354913	0.366933
C46	C	-0.363681	-0.281835	0.363681
C47	C	-0.457000	-0.273863	0.457277
C48	C	-0.460238	-0.346937	0.460532
C49	C	-0.415203	-0.387458	0.415357
C50	C	-0.375738	-0.500651	0.375778
C51	C	-0.418523	-0.462149	0.418686
C52	C	-0.389693	-0.989280	0.214054
C53	C	-0.386535	-0.992788	0.136003
C54	C	-0.366317	-1.014577	0.694545
C55	C	-0.369323	-1.011348	0.767887
C56	C	-0.413699	-0.962966	0.804396
C57	C	-0.455078	-0.917815	0.767560
C58	C	-0.452076	-0.921048	0.694220
C59	C	-0.424912	-0.950869	1.025828
C60	C	-0.427909	-0.947638	1.099173
C61	C	-0.342155	-1.041173	1.099494
C62	C	-0.339154	-1.044399	1.026153
C63	C	-0.380535	-0.999250	0.989323
C64	C	-0.416770	-0.959663	0.879363
C65	C	-0.377467	-1.002557	0.914358
H66	H	-0.665463	-1.054046	0.330232
H67	H	-1.130125	-1.077899	0.308298
F68	F	-1.138582	-0.896103	0.475081
F69	F	-0.319081	-1.066069	0.655696
F70	F	-0.298121	-1.089223	1.138696
H71	H	-0.664795	-0.884338	0.485909
H72	H	-0.499552	-0.373433	0.499966
F73	F	-0.876132	-1.054052	0.330178
F74	F	-0.289329	-0.732070	0.289119
H75	H	-0.464059	-0.908248	1.128897
H76	H	-0.909669	-0.920284	0.452927
H77	H	-0.457836	-0.488655	0.458110
H78	H	-0.458605	-0.914106	0.995847
F79	F	-0.312288	-0.247195	0.312143
F80	F	-0.481959	-0.715603	0.482337
F81	F	-0.475267	-0.564770	0.475608
H82	H	-0.335631	-1.048113	0.797871
H83	H	-0.997075	-1.083794	0.302905
F84	F	-0.291931	-1.095901	0.987303
H85	H	-0.452900	-0.920269	0.909097
F86	F	-0.502311	-0.866327	0.806418
F87	F	-0.807720	-1.059458	0.325289
F88	F	-0.504925	-0.230732	0.505353
H89	H	-0.996417	-0.914100	0.458598
H90	H	-0.797848	-0.878454	0.491305
H91	H	-0.330248	-0.387897	0.330153
H92	H	-0.336426	-0.474141	0.336353
F93	F	-0.282636	-0.581228	0.282396
F94	F	-0.496114	-0.872995	0.655022
F95	F	-0.330243	-1.054050	0.875502
