data_functionalizedCrystal
_audit_creation_method	'MofGen! by Chris Wilmer'
_symmetry_space_group_name_H-M	'P1'
_symmetry_Int_Tables_number	1
_symmetry_cell_setting	triclinic
loop_
_symmetry_equiv_pos_as_xyz
  x,y,z
_cell_length_a	17.699083
_cell_length_b	17.699104
_cell_length_c	9.730223
_cell_angle_alpha	89.994021
_cell_angle_beta	90.005576
_cell_angle_gamma	83.287266
loop_
_atom_site_label
_atom_site_type_symbol
_atom_site_fract_x
_atom_site_fract_y
_atom_site_fract_z
O1	O	-1.004078	-0.095711	0.114100
O2	O	-0.504078	0.404289	0.614100
O3	O	-0.783701	-0.108163	0.114145
O4	O	-0.283701	0.391837	0.614145
O5	O	-0.900108	0.008251	0.114109
O6	O	-0.400108	0.508251	0.614109
O7	O	-0.887672	-0.212125	0.114136
O8	O	-0.387672	0.287875	0.614136
O9	O	-0.900107	0.008256	-0.114471
O10	O	-0.400107	0.508256	0.385529
O11	O	-0.783700	-0.108158	-0.114434
O12	O	-0.283700	0.391842	0.385566
O13	O	-1.004077	-0.095706	-0.114480
O14	O	-0.504077	0.404294	0.385520
Zn15	Zn	-0.893889	-0.101931	-0.150749
Zn16	Zn	-0.393889	0.398069	0.349251
Zn17	Zn	-0.893890	-0.101938	0.150415
Zn18	Zn	-0.393890	0.398062	0.650415
O19	O	-0.887671	-0.212120	-0.114444
O20	O	-0.387671	0.287880	0.385556
C21	C	-0.755503	-0.107715	-0.000139
C22	C	-0.255503	0.392285	0.499861
C23	C	-0.671485	-0.106376	-0.000122
C24	C	-0.171485	0.393624	0.499878
C25	C	-0.899659	0.036450	-0.000181
C26	C	-0.399659	0.536450	0.499819
C27	C	-0.898314	0.120467	-0.000181
C28	C	-0.398314	0.620467	0.499819
C29	C	-1.032275	-0.096155	-0.000193
C30	C	-0.532275	0.403845	0.499807
C31	C	-1.116293	-0.097493	-0.000200
C32	C	-0.616293	0.402507	0.499800
C33	C	-0.622869	-0.174709	-0.000114
C34	C	-0.122869	0.325291	0.499886
C35	C	-0.543926	-0.173446	-0.000132
C36	C	-0.043926	0.326554	0.499868
C37	C	-0.513600	-0.103851	-0.000148
C38	C	-0.013600	0.396149	0.499852
C39	C	-0.562222	-0.035513	-0.000160
C40	C	-0.062222	0.464487	0.499840
C41	C	-0.641164	-0.036776	-0.000152
C42	C	-0.141164	0.463224	0.499848
C43	C	-0.243859	-0.030418	-0.000195
C44	C	0.256141	0.469582	0.499805
C45	C	-0.164911	-0.029160	-0.000199
C46	C	0.335089	0.470840	0.499801
C47	C	-0.146621	-0.167088	-0.000175
C48	C	0.353379	0.332912	0.499825
C49	C	-0.225563	-0.168351	-0.000166
C50	C	0.274437	0.331649	0.499834
C51	C	-0.274178	-0.100014	-0.000186
C52	C	0.225822	0.399986	0.499814
C53	C	-0.359777	-0.101383	-0.000169
C54	C	0.140223	0.398617	0.499831
C55	C	-0.428002	-0.102480	-0.000155
C56	C	0.071998	0.397520	0.499845
C57	C	-0.888120	-0.240319	-0.000150
C58	C	-0.388120	0.259681	0.499850
C59	C	-0.889464	-0.324337	-0.000141
C60	C	-0.389464	0.175663	0.499859
C61	C	-0.959058	0.645338	-0.000155
C62	C	-0.459058	1.145338	0.499845
C63	C	-0.960317	0.566395	-0.000167
C64	C	-0.460317	1.066395	0.499833
C65	C	-0.891982	0.517777	-0.000156
C66	C	-0.391982	1.017777	0.499844
C67	C	-0.822383	0.548107	-0.000147
C68	C	-0.322383	1.048107	0.499853
C69	C	-0.821125	0.627049	-0.000144
C70	C	-0.321125	1.127049	0.499856
C71	C	-0.827456	0.229741	-0.000159
C72	C	-0.327456	0.729741	0.499841
C73	C	-0.828720	0.150794	-0.000158
C74	C	-0.328720	0.650794	0.499842
C75	C	-0.966648	0.169086	-0.000182
C76	C	-0.466648	0.669086	0.499818
C77	C	-0.965390	0.248029	-0.000180
C78	C	-0.465390	0.748029	0.499820
C79	C	-0.895792	0.278352	-0.000177
C80	C	-0.395792	0.778352	0.499823
C81	C	-0.894427	0.363951	-0.000167
C82	C	-0.394427	0.863951	0.499833
C83	C	-0.893345	0.432179	-0.000157
C84	C	-0.393345	0.932179	0.499843
N85	N	-0.893891	-0.101937	0.355951
N86	N	-0.393891	0.398063	0.855951
N87	N	-0.893893	-0.101926	-0.356286
N88	N	-0.393893	0.398074	0.143714
C89	C	-0.945532	-0.050489	0.427861
C90	C	-0.445532	0.449511	0.927861
C91	C	-0.945535	-0.050485	0.571744
C92	C	-0.445535	0.449515	1.071744
C93	C	-0.842250	-0.153380	0.571794
C94	C	-0.342250	0.346620	1.071794
C95	C	-0.842251	-0.153387	0.427914
C96	C	-0.342251	0.346613	0.927914
H97	H	-0.647554	-0.231382	-0.000100
H98	H	-0.147554	0.268618	0.499900
H99	H	-0.800199	-0.195286	0.369361
H100	H	-0.300199	0.304714	0.869361
H101	H	-0.504346	-0.229090	-0.000124
H102	H	-0.004346	0.270910	0.499876
H103	H	-0.800205	-0.195268	0.630401
H104	H	-0.300205	0.304732	1.130401
H105	H	-0.250249	-0.225023	-0.000147
H106	H	0.249751	0.274977	0.499853
H107	H	-0.987586	-0.008592	0.630289
H108	H	-0.487586	0.491408	1.130289
F109	F	-0.094875	-0.239820	-0.000159
F110	F	0.405125	0.260180	0.499841
H111	H	-0.140223	0.027517	-0.000214
H112	H	0.359777	0.527517	0.499786
H113	H	-1.016987	0.541708	-0.000180
H114	H	-0.516987	1.041708	0.499820
F115	F	-0.749655	0.496362	-0.000142
F116	F	-0.249655	0.996362	0.499858
H117	H	-0.987581	-0.008597	0.369272
H118	H	-0.487581	0.491403	0.869272
H119	H	-0.773070	0.111210	-0.000152
H120	H	-0.273070	0.611210	0.499848
F121	F	-0.295589	0.042314	-0.000215
F122	F	0.204411	0.542314	0.499785
F123	F	-0.753383	0.262003	-0.000147
F124	F	-0.253383	0.762003	0.499853
F125	F	-0.529945	0.038557	-0.000186
F126	F	-0.029945	0.538557	0.499814
H127	H	-0.764455	0.651738	-0.000144
H128	H	-0.264455	1.151738	0.499856
H129	H	-0.680747	0.018868	-0.000158
H130	H	-0.180747	0.518868	0.499842
H131	H	-1.021036	0.287610	-0.000182
H132	H	-0.521036	0.787610	0.499818
F133	F	-1.040722	0.136808	-0.000191
F134	F	-0.540722	0.636808	0.499809
F135	F	-1.031791	0.697074	-0.000156
F136	F	-0.531791	1.197074	0.499844
