data_functionalizedCrystal
_audit_creation_method	'MofGen! by Chris Wilmer'
_symmetry_space_group_name_H-M	'P1'
_symmetry_Int_Tables_number	1
_symmetry_cell_setting	triclinic
loop_
_symmetry_equiv_pos_as_xyz
  x,y,z
_cell_length_a	29.839133
_cell_length_b	29.839134
_cell_length_c	16.120297
_cell_angle_alpha	87.135127
_cell_angle_beta	92.878609
_cell_angle_gamma	89.978030
loop_
_atom_site_label
_atom_site_type_symbol
_atom_site_fract_x
_atom_site_fract_y
_atom_site_fract_z
Zn1	Zn	-0.191844	-0.673899	-0.471728
Zn2	Zn	0.058156	-0.423899	-0.221728
Zn3	Zn	0.308156	-0.173899	0.028272
Zn4	Zn	0.558156	0.076101	0.278272
Zn5	Zn	-0.263163	-0.677646	-0.332335
Zn6	Zn	-0.013163	-0.427646	-0.082335
Zn7	Zn	0.236837	-0.177646	0.167665
Zn8	Zn	0.486837	0.072354	0.417665
Zn9	Zn	-0.188037	-0.602582	-0.332299
Zn10	Zn	0.061963	-0.352582	-0.082299
Zn11	Zn	0.311963	-0.102582	0.167701
Zn12	Zn	0.561963	0.147418	0.417701
Zn13	Zn	-0.266936	-0.598746	-0.471666
Zn14	Zn	-0.016936	-0.348746	-0.221666
Zn15	Zn	0.233064	-0.098746	0.028334
Zn16	Zn	0.483064	0.151254	0.278334
O17	O	-0.227495	-0.638218	-0.402007
O18	O	0.022505	-0.388218	-0.152007
O19	O	0.272505	-0.138218	0.097993
O20	O	0.522505	0.111782	0.347993
O21	O	-0.201319	-0.737262	-0.453278
O22	O	0.048681	-0.487262	-0.203278
O23	O	0.298681	-0.237262	0.046722
O24	O	0.548681	0.012738	0.296722
O25	O	-0.250025	-0.670862	-0.215668
O26	O	-0.000025	-0.420862	0.034332
O27	O	0.249975	-0.170862	0.284332
O28	O	0.499975	0.079138	0.534332
O29	O	-0.125675	-0.612079	-0.350806
O30	O	0.124325	-0.362079	-0.100806
O31	O	0.374325	-0.112079	0.149194
O32	O	0.624325	0.137921	0.399194
O33	O	-0.253717	-0.740015	-0.350867
O34	O	-0.003717	-0.490015	-0.100867
O35	O	0.246283	-0.240015	0.149133
O36	O	0.496283	0.009985	0.399133
O37	O	-0.128472	-0.664475	-0.453244
O38	O	0.121528	-0.414475	-0.203244
O39	O	0.371528	-0.164475	0.046756
O40	O	0.621528	0.085525	0.296756
O41	O	-0.194830	-0.615713	-0.215642
O42	O	0.055170	-0.365713	0.034358
O43	O	0.305170	-0.115713	0.284358
O44	O	0.555170	0.134287	0.534358
O45	O	-0.198489	-0.539207	-0.350746
O46	O	0.051511	-0.289207	-0.100746
O47	O	0.301511	-0.039207	0.149254
O48	O	0.551511	0.210793	0.399254
O49	O	-0.260147	-0.605542	-0.588337
O50	O	-0.010147	-0.355542	-0.338337
O51	O	0.239853	-0.105542	-0.088337
O52	O	0.489853	0.144458	0.161663
O53	O	-0.256456	-0.536389	-0.453138
O54	O	-0.006456	-0.286389	-0.203138
O55	O	0.243544	-0.036389	0.046862
O56	O	0.493544	0.213611	0.296862
O57	O	-0.204977	-0.660756	-0.588382
O58	O	0.045023	-0.410756	-0.338382
O59	O	0.295023	-0.160756	-0.088382
O60	O	0.545023	0.089244	0.161618
O61	O	-0.326530	-0.667143	-0.350806
O62	O	-0.076530	-0.417143	-0.100806
O63	O	0.173470	-0.167143	0.149194
O64	O	0.423470	0.082857	0.399194
O65	O	-0.329302	-0.609176	-0.453172
O66	O	-0.079302	-0.359176	-0.203172
O67	O	0.170698	-0.109176	0.046828
O68	O	0.420698	0.140824	0.296828
C69	C	-0.227469	-0.521498	-0.401932
C70	C	0.022531	-0.271498	-0.151932
C71	C	0.272531	-0.021498	0.098068
C72	C	0.522531	0.228502	0.348068
C73	C	-0.227469	-0.471564	-0.401919
C74	C	0.022531	-0.221564	-0.151919
C75	C	0.272531	0.028436	0.098081
C76	C	0.522531	0.278436	0.348081
C77	C	-0.197268	-0.116427	-0.348771
C78	C	0.052732	0.133573	-0.098771
C79	C	0.302732	0.383573	0.151229
C80	C	0.552732	0.633573	0.401229
C81	C	-0.197255	-0.304101	-0.348731
C82	C	0.052745	-0.054101	-0.098731
C83	C	0.302745	0.195899	0.151269
C84	C	0.552745	0.445899	0.401269
O85	O	-0.171540	-0.329600	-0.303483
O86	O	0.078460	-0.079600	-0.053483
O87	O	0.328460	0.170400	0.196517
O88	O	0.578460	0.420400	0.446517
N89	N	-0.227476	-0.326117	-0.401953
N90	N	0.022524	-0.076117	-0.151953
N91	N	0.272524	0.173883	0.098047
N92	N	0.522524	0.423883	0.348047
C93	C	-0.257700	-0.301213	-0.455193
C94	C	-0.007700	-0.051213	-0.205193
C95	C	0.242300	0.198787	0.044807
C96	C	0.492300	0.448787	0.294807
O97	O	-0.283402	-0.324245	-0.500466
O98	O	-0.033402	-0.074245	-0.250466
O99	O	0.216598	0.175755	-0.000466
O100	O	0.466598	0.425755	0.249534
C101	C	-0.257710	-0.113539	-0.455236
C102	C	-0.007710	0.136461	-0.205236
C103	C	0.242290	0.386461	0.044764
C104	C	0.492290	0.636461	0.294764
C105	C	-0.227491	-0.091525	-0.402005
C106	C	0.022509	0.158475	-0.152005
C107	C	0.272509	0.408475	0.097995
C108	C	0.522509	0.658475	0.347995
C109	C	-0.167050	-0.094412	-0.295545
C110	C	0.082950	0.155588	-0.045545
C111	C	0.332950	0.405588	0.204455
C112	C	0.582950	0.655588	0.454455
C113	C	-0.167055	-0.047497	-0.295552
C114	C	0.082945	0.202503	-0.045552
C115	C	0.332945	0.452503	0.204448
C116	C	0.582945	0.702503	0.454448
C117	C	-0.197278	-0.022595	-0.348786
C118	C	0.052722	0.227405	-0.098786
C119	C	0.302722	0.477405	0.151214
C120	C	0.552722	0.727405	0.401214
C121	C	-0.227496	-0.044610	-0.402012
C122	C	0.022504	0.205390	-0.152012
C123	C	0.272504	0.455390	0.097988
C124	C	0.522504	0.705390	0.347988
C125	C	-0.287932	-0.088635	-0.508480
C126	C	-0.037932	0.161365	-0.258480
C127	C	0.212068	0.411365	-0.008480
C128	C	0.462068	0.661365	0.241520
C129	C	-0.287931	-0.041714	-0.508487
C130	C	-0.037931	0.208286	-0.258487
C131	C	0.212069	0.458286	-0.008487
C132	C	0.462069	0.708286	0.241513
C133	C	-0.257711	-0.019700	-0.455256
C134	C	-0.007711	0.230300	-0.205256
C135	C	0.242289	0.480300	0.044744
C136	C	0.492289	0.730300	0.294744
C137	C	-0.257723	0.027208	-0.455253
C138	C	-0.007723	0.277208	-0.205253
C139	C	0.242277	0.527208	0.044747
C140	C	0.492277	0.777208	0.294747
N141	N	-0.227503	0.049224	-0.402031
N142	N	0.022497	0.299224	-0.152031
N143	N	0.272497	0.549224	0.097969
N144	N	0.522497	0.799224	0.347969
C145	C	-0.197280	0.024323	-0.348798
C146	C	0.052720	0.274323	-0.098798
C147	C	0.302720	0.524323	0.151202
C148	C	0.552720	0.774323	0.401202
C149	C	-0.257693	-0.399744	-0.455165
C150	C	-0.007693	-0.149744	-0.205165
C151	C	0.242307	0.100256	0.044835
C152	C	0.492307	0.350256	0.294835
C153	C	-0.257692	-0.446662	-0.455153
C154	C	-0.007692	-0.196662	-0.205153
C155	C	0.242308	0.053338	0.044847
C156	C	0.492308	0.303338	0.294847
C157	C	-0.197246	-0.449547	-0.348692
C158	C	0.052754	-0.199547	-0.098692
C159	C	0.302754	0.050453	0.151308
C160	C	0.552754	0.300453	0.401308
C161	C	-0.197250	-0.402628	-0.348700
C162	C	0.052750	-0.152628	-0.098700
C163	C	0.302750	0.097372	0.151300
C164	C	0.552750	0.347372	0.401300
C165	C	-0.227473	-0.377727	-0.401943
C166	C	0.022527	-0.127727	-0.151943
C167	C	0.272527	0.122273	0.098057
C168	C	0.522527	0.372273	0.348057
C169	C	-0.197293	0.122849	-0.348817
C170	C	0.052707	0.372849	-0.098817
C171	C	0.302707	0.622849	0.151183
C172	C	0.552707	0.872849	0.401183
C173	C	-0.197302	0.169769	-0.348826
C174	C	0.052698	0.419769	-0.098826
C175	C	0.302698	0.669769	0.151174
C176	C	0.552698	0.919769	0.401174
C177	C	-0.257746	0.172650	-0.455290
C178	C	-0.007746	0.422650	-0.205290
C179	C	0.242254	0.672650	0.044710
C180	C	0.492254	0.922650	0.294710
C181	C	-0.257739	0.125734	-0.455277
C182	C	-0.007739	0.375734	-0.205277
C183	C	0.242261	0.625734	0.044723
C184	C	0.492261	0.875734	0.294723
C185	C	-0.227509	0.100835	-0.402038
C186	C	0.022491	0.350835	-0.152038
C187	C	0.272491	0.600835	0.097962
C188	C	0.522491	0.850835	0.347962
O189	O	-0.283422	0.052735	-0.500484
O190	O	-0.033422	0.302735	-0.250484
O191	O	0.216578	0.552735	-0.000484
O192	O	0.466578	0.802735	0.249516
O193	O	-0.171576	0.047364	-0.303544
O194	O	0.078424	0.297364	-0.053544
O195	O	0.328424	0.547364	0.196456
O196	O	0.578424	0.797364	0.446456
C197	C	-0.197263	-0.163342	-0.348764
C198	C	0.052737	0.086658	-0.098764
C199	C	0.302737	0.336658	0.151236
C200	C	0.552737	0.586658	0.401236
C201	C	-0.227480	-0.185356	-0.401990
C202	C	0.022520	0.064644	-0.151990
C203	C	0.272520	0.314644	0.098010
C204	C	0.522520	0.564644	0.348010
C205	C	-0.257703	-0.160455	-0.455224
C206	C	-0.007703	0.089545	-0.205224
C207	C	0.242297	0.339545	0.044776
C208	C	0.492297	0.589545	0.294776
C209	C	-0.227479	-0.232275	-0.401978
C210	C	0.022521	0.017725	-0.151978
C211	C	0.272521	0.267725	0.098022
C212	C	0.522521	0.517725	0.348022
C213	C	-0.197256	-0.257176	-0.348745
C214	C	0.052744	-0.007176	-0.098745
C215	C	0.302744	0.242824	0.151255
C216	C	0.552744	0.492824	0.401255
C217	C	-0.167035	-0.235159	-0.295523
C218	C	0.082965	0.014841	-0.045523
C219	C	0.332965	0.264841	0.204477
C220	C	0.582965	0.514841	0.454477
C221	C	-0.167040	-0.188244	-0.295530
C222	C	0.082960	0.061756	-0.045530
C223	C	0.332960	0.311756	0.204470
C224	C	0.582960	0.561756	0.454470
C225	C	-0.287924	-0.182472	-0.508446
C226	C	-0.037924	0.067528	-0.258446
C227	C	0.212076	0.317528	-0.008446
C228	C	0.462076	0.567528	0.241554
C229	C	-0.287917	-0.229388	-0.508434
C230	C	-0.037917	0.020612	-0.258434
C231	C	0.212083	0.270612	-0.008434
C232	C	0.462083	0.520612	0.241566
C233	C	-0.257694	-0.254289	-0.455200
C234	C	-0.007694	-0.004289	-0.205200
C235	C	0.242306	0.245711	0.044800
C236	C	0.492306	0.495711	0.294800
C237	C	-0.344217	-0.638161	-0.402005
C238	C	-0.094217	-0.388161	-0.152005
C239	C	0.155783	-0.138161	0.097995
C240	C	0.405783	0.111839	0.347995
C241	C	-0.394153	-0.638177	-0.402032
C242	C	-0.144153	-0.388177	-0.152032
C243	C	0.105847	-0.138177	0.097968
C244	C	0.355847	0.111823	0.347968
C245	C	-0.752162	-0.665516	-0.455408
C246	C	-0.502162	-0.415516	-0.205408
C247	C	-0.252162	-0.165516	0.044592
C248	C	-0.002162	0.084484	0.294592
C249	C	-0.564489	-0.665473	-0.455407
C250	C	-0.314489	-0.415473	-0.205407
C251	C	-0.064489	-0.165473	0.044593
C252	C	0.185511	0.084527	0.294593
O253	O	-0.541434	-0.688660	-0.500777
O254	O	-0.291434	-0.438660	-0.250777
O255	O	-0.041434	-0.188660	-0.000777
O256	O	0.208566	0.061340	0.249223
N257	N	-0.539598	-0.638213	-0.402030
N258	N	-0.289598	-0.388213	-0.152030
N259	N	-0.039598	-0.138213	0.097970
N260	N	0.210402	0.111787	0.347970
C261	C	-0.561627	-0.610963	-0.348645
C262	C	-0.311627	-0.360963	-0.098645
C263	C	-0.061627	-0.110963	0.151355
C264	C	0.188373	0.139037	0.401355
O265	O	-0.536149	-0.587779	-0.303239
O266	O	-0.286149	-0.337779	-0.053239
O267	O	-0.036149	-0.087779	0.196761
O268	O	0.213851	0.162221	0.446761
C269	C	-0.749299	-0.611008	-0.348643
C270	C	-0.499299	-0.361008	-0.098643
C271	C	-0.249299	-0.111008	0.151357
C272	C	0.000701	0.138992	0.401357
C273	C	-0.774189	-0.638267	-0.402029
C274	C	-0.524189	-0.388267	-0.152029
C275	C	-0.274189	-0.138267	0.097971
C276	C	-0.024189	0.111733	0.347971
C277	C	-0.777051	-0.692773	-0.508789
C278	C	-0.527051	-0.442773	-0.258789
C279	C	-0.277051	-0.192773	-0.008789
C280	C	-0.027051	0.057227	0.241211
C281	C	-0.823967	-0.692781	-0.508792
C282	C	-0.573967	-0.442781	-0.258792
C283	C	-0.323967	-0.192781	-0.008792
C284	C	-0.073967	0.057219	0.241208
C285	C	-0.845993	-0.665533	-0.455414
C286	C	-0.595993	-0.415533	-0.205414
C287	C	-0.345993	-0.165533	0.044586
C288	C	-0.095993	0.084467	0.294586
C289	C	-0.821104	-0.638276	-0.402032
C290	C	-0.571104	-0.388276	-0.152032
C291	C	-0.321104	-0.138276	0.097968
C292	C	-0.071104	0.111724	0.347968
C293	C	-0.771328	-0.583761	-0.295255
C294	C	-0.521328	-0.333761	-0.045255
C295	C	-0.271328	-0.083761	0.204745
C296	C	-0.021328	0.166239	0.454745
C297	C	-0.818249	-0.583776	-0.295257
C298	C	-0.568249	-0.333776	-0.045257
C299	C	-0.318249	-0.083776	0.204743
C300	C	-0.068249	0.166224	0.454743
C301	C	-0.843138	-0.611035	-0.348644
C302	C	-0.593138	-0.361035	-0.098644
C303	C	-0.343138	-0.111035	0.151356
C304	C	-0.093138	0.138965	0.401356
C305	C	-0.890046	-0.611036	-0.348656
C306	C	-0.640046	-0.361036	-0.098656
C307	C	-0.390046	-0.111036	0.151344
C308	C	-0.140046	0.138964	0.401344
N309	N	-0.914937	-0.638296	-0.402033
N310	N	-0.664937	-0.388296	-0.152033
N311	N	-0.414937	-0.138296	0.097967
N312	N	-0.164937	0.111704	0.347967
C313	C	-0.892911	-0.665545	-0.455412
C314	C	-0.642911	-0.415545	-0.205412
C315	C	-0.392911	-0.165545	0.044588
C316	C	-0.142911	0.084455	0.294588
C317	C	-0.463097	-0.610941	-0.348652
C318	C	-0.213097	-0.360941	-0.098652
C319	C	0.036903	-0.110941	0.151348
C320	C	0.286903	0.139059	0.401348
C321	C	-0.416179	-0.610929	-0.348653
C322	C	-0.166179	-0.360929	-0.098653
C323	C	0.083821	-0.110929	0.151347
C324	C	0.333821	0.139071	0.401347
C325	C	-0.419044	-0.665439	-0.455414
C326	C	-0.169044	-0.415439	-0.205414
C327	C	0.080956	-0.165439	0.044586
C328	C	0.330956	0.084561	0.294586
C329	C	-0.465963	-0.665449	-0.455416
C330	C	-0.215963	-0.415449	-0.205416
C331	C	0.034037	-0.165449	0.044584
C332	C	0.284037	0.084551	0.294584
C333	C	-0.487988	-0.638201	-0.402029
C334	C	-0.237988	-0.388201	-0.152029
C335	C	0.012012	-0.138201	0.097971
C336	C	0.262012	0.111799	0.347971
C337	C	-0.991437	-0.665560	-0.455415
C338	C	-0.741437	-0.415560	-0.205415
C339	C	-0.491437	-0.165560	0.044585
C340	C	-0.241437	0.084440	0.294585
C341	C	-1.038357	-0.665565	-0.455415
C342	C	-0.788357	-0.415565	-0.205415
C343	C	-0.538357	-0.165565	0.044585
C344	C	-0.288357	0.084435	0.294585
C345	C	-1.035487	-0.611056	-0.348652
C346	C	-0.785487	-0.361056	-0.098652
C347	C	-0.535487	-0.111056	0.151348
C348	C	-0.285487	0.138944	0.401348
C349	C	-0.988572	-0.611049	-0.348654
C350	C	-0.738572	-0.361049	-0.098654
C351	C	-0.488572	-0.111049	0.151346
C352	C	-0.238572	0.138951	0.401346
C353	C	-0.966548	-0.638305	-0.402038
C354	C	-0.716548	-0.388305	-0.152038
C355	C	-0.466548	-0.138305	0.097962
C356	C	-0.216548	0.111695	0.347962
O357	O	-0.913131	-0.587865	-0.303304
O358	O	-0.663131	-0.337865	-0.053304
O359	O	-0.413131	-0.087865	0.196696
O360	O	-0.163131	0.162135	0.446696
O361	O	-0.918397	-0.688733	-0.500799
O362	O	-0.668397	-0.438733	-0.250799
O363	O	-0.418397	-0.188733	-0.000799
O364	O	-0.168397	0.061267	0.249201
C365	C	-0.705247	-0.665507	-0.455405
C366	C	-0.455247	-0.415507	-0.205405
C367	C	-0.205247	-0.165507	0.044595
C368	C	0.044753	0.084493	0.294595
C369	C	-0.680357	-0.638250	-0.402023
C370	C	-0.430357	-0.388250	-0.152023
C371	C	-0.180357	-0.138250	0.097977
C372	C	0.069643	0.111750	0.347977
C373	C	-0.702384	-0.611002	-0.348645
C374	C	-0.452384	-0.361002	-0.098645
C375	C	-0.202384	-0.111002	0.151355
C376	C	0.047616	0.138998	0.401355
C377	C	-0.633440	-0.638238	-0.402025
C378	C	-0.383440	-0.388238	-0.152025
C379	C	-0.133440	-0.138238	0.097975
C380	C	0.116560	0.111762	0.347975
C381	C	-0.611413	-0.665487	-0.455403
C382	C	-0.361413	-0.415487	-0.205403
C383	C	-0.111413	-0.165487	0.044597
C384	C	0.138587	0.084513	0.294597
C385	C	-0.636305	-0.692747	-0.508781
C386	C	-0.386305	-0.442747	-0.258781
C387	C	-0.136305	-0.192747	-0.008781
C388	C	0.113695	0.057253	0.241219
C389	C	-0.683220	-0.692756	-0.508783
C390	C	-0.433220	-0.442756	-0.258783
C391	C	-0.183220	-0.192756	-0.008783
C392	C	0.066780	0.057244	0.241217
C393	C	-0.677492	-0.583741	-0.295268
C394	C	-0.427492	-0.333741	-0.045268
C395	C	-0.177492	-0.083741	0.204732
C396	C	0.072508	0.166259	0.454732
C397	C	-0.630577	-0.583734	-0.295270
C398	C	-0.380577	-0.333734	-0.045270
C399	C	-0.130577	-0.083734	0.204730
C400	C	0.119423	0.166266	0.454730
C401	C	-0.608551	-0.610983	-0.348648
C402	C	-0.358551	-0.360983	-0.098648
C403	C	-0.108551	-0.110983	0.151352
C404	C	0.141449	0.139017	0.401352
C405	C	-0.110317	-0.638287	-0.402028
C406	C	0.139683	-0.388287	-0.152028
C407	C	0.389683	-0.138287	0.097972
C408	C	0.639683	0.111713	0.347972
C409	C	-0.060383	-0.638316	-0.402037
C410	C	0.189617	-0.388316	-0.152037
C411	C	0.439617	-0.138316	0.097963
C412	C	0.689617	0.111684	0.347963
C413	C	-0.233408	-0.632303	-0.619454
C414	C	0.016592	-0.382303	-0.369454
C415	C	0.266592	-0.132303	-0.119454
C416	C	0.516592	0.117697	0.130546
C417	C	-0.235928	-0.629783	-0.712117
C418	C	0.014072	-0.379783	-0.462117
C419	C	0.264072	-0.129783	-0.212117
C420	C	0.514072	0.120217	0.037883
C421	C	-0.227520	0.244605	-0.402069
C422	C	0.022480	0.494605	-0.152069
C423	C	0.272480	0.744605	0.097931
C424	C	0.522480	0.994605	0.347931
C425	C	-0.227525	0.194671	-0.402060
C426	C	0.022475	0.444671	-0.152060
C427	C	0.272475	0.694671	0.097940
C428	C	0.522475	0.944671	0.347940
C429	C	-0.240518	-0.625164	-0.881774
C430	C	0.009482	-0.375164	-0.631774
C431	C	0.259482	-0.125164	-0.381774
C432	C	0.509482	0.124836	-0.131774
C433	C	-0.214337	-0.651360	-0.923092
C434	C	0.035663	-0.401360	-0.673092
C435	C	0.285663	-0.151360	-0.423092
C436	C	0.535663	0.098640	-0.173092
C437	C	-0.216891	-0.648791	-1.017495
C438	C	0.033109	-0.398791	-0.767495
C439	C	0.283109	-0.148791	-0.517495
C440	C	0.533109	0.101209	-0.267495
C441	C	-0.237964	-0.627734	-0.787363
C442	C	0.012036	-0.377734	-0.537363
C443	C	0.262036	-0.127734	-0.287363
C444	C	0.512036	0.122266	-0.037363
C445	C	-0.221573	-0.644136	-0.185406
C446	C	0.028427	-0.394136	0.064594
C447	C	0.278427	-0.144136	0.314594
C448	C	0.528427	0.105864	0.564594
C449	C	-0.218926	-0.646743	-0.092743
C450	C	0.031074	-0.396743	0.157257
C451	C	0.281074	-0.146743	0.407257
C452	C	0.531074	0.103257	0.657257
H453	H	-0.172693	0.187691	-0.305476
H454	H	0.077307	0.437691	-0.055476
H455	H	0.327307	0.687691	0.194524
H456	H	0.577307	0.937691	0.444524
Br457	Br	-0.606403	-0.729724	-0.581227
Br458	Br	-0.356403	-0.479724	-0.331227
Br459	Br	-0.106403	-0.229724	-0.081227
Br460	Br	0.143597	0.020276	0.168773
Br461	Br	-0.156266	0.089065	-0.276562
Br462	Br	0.093734	0.339065	-0.026562
Br463	Br	0.343734	0.589065	0.223438
Br464	Br	0.593734	0.839065	0.473438
Br465	Br	-0.126036	-0.017628	-0.223314
Br466	Br	0.123964	0.232372	0.026686
Br467	Br	0.373964	0.482372	0.276686
Br468	Br	0.623964	0.732372	0.526686
Br469	Br	-0.848137	-0.546797	-0.222795
Br470	Br	-0.598137	-0.296797	0.027205
Br471	Br	-0.348137	-0.046797	0.277205
Br472	Br	-0.098137	0.203203	0.527205
Br473	Br	-0.126026	-0.128199	-0.223292
Br474	Br	0.123974	0.121801	0.026708
Br475	Br	0.373974	0.371801	0.276708
Br476	Br	0.623974	0.621801	0.526708
Br477	Br	-0.328947	-0.118499	-0.580727
Br478	Br	-0.078947	0.131501	-0.330727
Br479	Br	0.171053	0.381501	-0.080727
Br480	Br	0.421053	0.631501	0.169273
H481	H	-0.968307	-0.588848	-0.305190
H482	H	-0.718307	-0.338848	-0.055190
H483	H	-0.468307	-0.088848	0.194810
H484	H	-0.218307	0.161152	0.444810
H485	H	-0.481025	-0.588751	-0.305175
H486	H	-0.231025	-0.338751	-0.055175
H487	H	0.018975	-0.088751	0.194825
H488	H	0.268975	0.161249	0.444825
Br489	Br	-0.328948	-0.007922	-0.580753
Br490	Br	-0.078948	0.242078	-0.330753
Br491	Br	0.171052	0.492078	-0.080753
Br492	Br	0.421052	0.742078	0.169247
H493	H	-0.264849	-0.600810	-0.917296
H494	H	-0.014849	-0.350810	-0.667296
H495	H	0.235151	-0.100810	-0.417296
H496	H	0.485151	0.149190	-0.167296
Br497	Br	-0.173792	-0.691968	-0.863887
Br498	Br	0.076208	-0.441968	-0.613887
Br499	Br	0.326208	-0.191968	-0.363887
Br500	Br	0.576208	0.058032	-0.113887
Br501	Br	-0.156237	-0.372757	-0.276455
Br502	Br	0.093763	-0.122757	-0.026455
Br503	Br	0.343763	0.127243	0.223545
Br504	Br	0.593763	0.377243	0.473545
Br505	Br	-0.857738	-0.729776	-0.581253
Br506	Br	-0.607738	-0.479776	-0.331253
Br507	Br	-0.357738	-0.229776	-0.081253
Br508	Br	-0.107738	0.020224	0.168747
Br509	Br	-0.156230	-0.483351	-0.276445
Br510	Br	0.093770	-0.233351	-0.026445
Br511	Br	0.343770	0.016649	0.223555
Br512	Br	0.593770	0.266649	0.473555
H513	H	-0.282304	-0.464582	-0.498490
H514	H	-0.032304	-0.214582	-0.248490
H515	H	0.217696	0.035418	0.001510
H516	H	0.467696	0.285418	0.251510
H517	H	-0.282306	-0.379474	-0.498523
H518	H	-0.032306	-0.129474	-0.248523
H519	H	0.217694	0.120526	0.001477
H520	H	0.467694	0.370526	0.251477
H521	H	-0.759122	-0.714964	-0.552256
H522	H	-0.509122	-0.464964	-0.302256
H523	H	-0.259122	-0.214964	-0.052256
H524	H	-0.009122	0.035036	0.197744
H525	H	-0.282349	0.107809	-0.498616
H526	H	-0.032349	0.357809	-0.248616
H527	H	0.217651	0.607809	0.001384
H528	H	0.467651	0.857809	0.251384
H529	H	-1.058620	-0.687762	-0.498894
H530	H	-0.808620	-0.437762	-0.248894
H531	H	-0.558620	-0.187762	0.001106
H532	H	-0.308620	0.062238	0.251106
H533	H	-0.486225	-0.687643	-0.498891
H534	H	-0.236225	-0.437643	-0.248891
H535	H	0.013775	-0.187643	0.001109
H536	H	0.263775	0.062357	0.251109
H537	H	-0.401103	-0.687626	-0.498878
H538	H	-0.151103	-0.437626	-0.248878
H539	H	0.098897	-0.187626	0.001122
H540	H	0.348897	0.062374	0.251122
Br541	Br	-0.737561	-0.546760	-0.222805
Br542	Br	-0.487561	-0.296760	0.027195
Br543	Br	-0.237561	-0.046760	0.277195
Br544	Br	0.012439	0.203240	0.527195
H545	H	-0.395917	-0.588727	-0.305190
H546	H	-0.145917	-0.338727	-0.055190
H547	H	0.104083	-0.088727	0.194810
H548	H	0.354083	0.161273	0.444810
Br549	Br	-0.596804	-0.546732	-0.222818
Br550	Br	-0.346804	-0.296732	0.027182
Br551	Br	-0.096804	-0.046732	0.277182
Br552	Br	0.153196	0.203268	0.527182
H553	H	-0.282354	0.192933	-0.498628
H554	H	-0.032354	0.442933	-0.248628
H555	H	0.217646	0.692933	0.001372
H556	H	0.467646	0.942933	0.251372
H557	H	-1.053430	-0.588870	-0.305194
H558	H	-0.803430	-0.338870	-0.055194
H559	H	-0.553430	-0.088870	0.194806
H560	H	-0.303430	0.161130	0.444806
H561	H	-0.703481	-0.714952	-0.552257
H562	H	-0.453481	-0.464952	-0.302257
H563	H	-0.203481	-0.214952	-0.052257
H564	H	0.046519	0.035048	0.197743
H565	H	-0.142432	-0.170324	-0.252184
H566	H	0.107568	0.079676	-0.002184
H567	H	0.357568	0.329676	0.247816
H568	H	0.607568	0.579676	0.497816
H569	H	-0.142428	-0.255442	-0.252175
H570	H	0.107572	-0.005442	-0.002175
H571	H	0.357572	0.244558	0.247825
H572	H	0.607572	0.494558	0.497825
H573	H	-0.312529	-0.247307	-0.551780
H574	H	-0.062529	0.002693	-0.301780
H575	H	0.187471	0.252693	-0.051780
H576	H	0.437471	0.502693	0.198220
H577	H	-0.312535	-0.162202	-0.551797
H578	H	-0.062535	0.087798	-0.301797
H579	H	0.187465	0.337798	-0.051797
H580	H	0.437465	0.587798	0.198203
H581	H	-0.973511	-0.687755	-0.498884
H582	H	-0.723511	-0.437755	-0.248884
H583	H	-0.473511	-0.187755	0.001116
H584	H	-0.223511	0.062245	0.251116
H585	H	-0.695421	-0.561552	-0.251798
H586	H	-0.445421	-0.311552	-0.001798
H587	H	-0.195421	-0.061552	0.248202
H588	H	0.054579	0.188448	0.498202
