data_functionalizedCrystal
_audit_creation_method	'MofGen! by Chris Wilmer'
_symmetry_space_group_name_H-M	'P1'
_symmetry_Int_Tables_number	1
_symmetry_cell_setting	triclinic
loop_
_symmetry_equiv_pos_as_xyz
  x,y,z
_cell_length_a	16.625547
_cell_length_b	12.645330
_cell_length_c	16.625539
_cell_angle_alpha	89.975749
_cell_angle_beta	89.975178
_cell_angle_gamma	90.017629
loop_
_atom_site_label
_atom_site_type_symbol
_atom_site_fract_x
_atom_site_fract_y
_atom_site_fract_z
Zn1	Zn	1.232707	-0.422039	-0.456024
Zn2	Zn	1.566041	-0.088706	-0.122690
Zn3	Zn	1.899374	0.244627	0.210643
Zn4	Zn	1.232622	-0.599325	-0.321200
Zn5	Zn	1.565955	-0.265992	0.012133
Zn6	Zn	1.899288	0.067341	0.345466
Zn7	Zn	1.097869	-0.422076	-0.321194
Zn8	Zn	1.431202	-0.088743	0.012139
Zn9	Zn	1.764536	0.244591	0.345473
Zn10	Zn	1.097851	-0.599261	-0.455980
Zn11	Zn	1.431184	-0.265928	-0.122647
Zn12	Zn	1.764517	0.067406	0.210686
O13	O	1.165262	-0.510675	-0.388600
O14	O	1.498596	-0.177342	-0.055266
O15	O	1.831929	0.155991	0.278067
O16	O	1.345528	-0.445568	-0.438160
O17	O	1.678862	-0.112235	-0.104826
O18	O	2.012195	0.221099	0.228507
O19	O	1.214718	-0.575855	-0.208367
O20	O	1.548052	-0.242522	0.124966
O21	O	1.881385	0.090812	0.458300
O22	O	1.115799	-0.273724	-0.339095
O23	O	1.449132	0.059609	-0.005762
O24	O	1.782466	0.392943	0.327572
O25	O	1.345465	-0.575819	-0.339106
O26	O	1.678799	-0.242486	-0.005772
O27	O	2.012132	0.090847	0.327561
O28	O	1.214864	-0.273697	-0.438154
O29	O	1.548198	0.059637	-0.104820
O30	O	1.881531	0.392970	0.228513
O31	O	1.115716	-0.445631	-0.208362
O32	O	1.449050	-0.112298	0.124971
O33	O	1.782383	0.221036	0.458304
O34	O	0.985034	-0.445569	-0.339053
O35	O	1.318368	-0.112235	-0.005720
O36	O	1.651701	0.221098	0.327614
O37	O	1.115768	-0.575710	-0.568818
O38	O	1.449101	-0.242376	-0.235485
O39	O	1.782435	0.090957	0.097848
O40	O	0.985021	-0.575745	-0.438080
O41	O	1.318354	-0.242412	-0.104746
O42	O	1.651687	0.090921	0.228587
O43	O	1.214846	-0.445506	-0.568850
O44	O	1.548180	-0.112172	-0.235517
O45	O	1.881513	0.221161	0.097816
O46	O	1.214701	-0.747664	-0.339064
O47	O	1.548034	-0.414331	-0.005730
O48	O	1.881367	-0.080997	0.327603
O49	O	1.115685	-0.747617	-0.438086
O50	O	1.449018	-0.414283	-0.104752
O51	O	1.782352	-0.080950	0.228581
C52	C	0.955771	-0.510655	-0.388561
C53	C	1.289105	-0.177321	-0.055228
C54	C	1.622438	0.156012	0.278105
C55	C	0.866150	-0.510671	-0.388564
C56	C	1.199484	-0.177338	-0.055231
C57	C	1.532817	0.155995	0.278102
C58	C	0.793368	-0.510674	-0.388574
C59	C	1.126701	-0.177340	-0.055241
C60	C	1.460034	0.155993	0.278092
C61	C	0.702059	-0.510679	-0.388594
C62	C	1.035393	-0.177346	-0.055261
C63	C	1.368726	0.155988	0.278072
C64	C	0.629283	-0.510689	-0.388615
C65	C	0.962616	-0.177356	-0.055282
C66	C	1.295950	0.155978	0.278052
C67	C	0.537969	-0.510696	-0.388634
C68	C	0.871302	-0.177363	-0.055301
C69	C	1.204635	0.155971	0.278032
C70	C	1.165203	-0.786105	-0.388588
C71	C	1.498537	-0.452772	-0.055255
C72	C	1.831870	-0.119438	0.278078
C73	C	1.165252	-0.903935	-0.388610
C74	C	1.498585	-0.570602	-0.055277
C75	C	1.831919	-0.237268	0.278056
C76	C	1.103218	-1.071513	-0.451097
C77	C	1.436551	-0.738180	-0.117764
C78	C	1.769885	-0.404847	0.215569
C79	C	1.102901	-0.948954	-0.450896
C80	C	1.436234	-0.615621	-0.117563
C81	C	1.769567	-0.282287	0.215770
C82	C	1.142250	-0.948528	-0.303633
C83	C	1.475584	-0.615195	0.029700
C84	C	1.808917	-0.281861	0.363033
C85	C	1.141872	-1.071126	-0.304013
C86	C	1.475205	-0.737793	0.029321
C87	C	1.808538	-0.404460	0.362654
C88	C	1.250667	-1.071025	-0.410411
C89	C	1.584000	-0.737691	-0.077078
C90	C	1.917334	-0.404358	0.256255
C91	C	1.250144	-0.948418	-0.412269
C92	C	1.583477	-0.615085	-0.078936
C93	C	1.916810	-0.281751	0.254397
C94	C	1.375571	-0.510697	-0.388638
C95	C	1.708904	-0.177363	-0.055305
C96	C	2.042238	0.155970	0.278028
C97	C	1.465192	-0.510706	-0.388655
C98	C	1.798526	-0.177373	-0.055321
C99	C	2.131859	0.155961	0.278012
C100	C	1.165343	-0.234170	-0.388629
C101	C	1.498677	0.099163	-0.055295
C102	C	1.832010	0.432497	0.278038
C103	C	1.165378	-0.116340	-0.388641
C104	C	1.498711	0.216993	-0.055308
C105	C	1.832044	0.550327	0.278026
C106	C	1.165315	-0.510596	-0.598909
C107	C	1.498648	-0.177263	-0.265575
C108	C	1.831981	0.156070	0.067758
C109	C	1.165337	-0.510563	-0.688530
C110	C	1.498670	-0.177229	-0.355196
C111	C	1.832004	0.156104	-0.021863
C112	C	1.165374	-0.510444	-1.016706
C113	C	1.498707	-0.177111	-0.683372
C114	C	1.832041	0.156223	-0.350039
C115	C	1.165362	-0.510480	-0.925397
C116	C	1.498695	-0.177147	-0.592064
C117	C	1.832028	0.156186	-0.258730
C118	C	1.165356	-0.510504	-0.852621
C119	C	1.498689	-0.177171	-0.519287
C120	C	1.832023	0.156162	-0.185954
C121	C	1.165343	-0.510539	-0.761306
C122	C	1.498676	-0.177206	-0.427973
C123	C	1.832009	0.156128	-0.094640
C124	C	1.165256	-0.510677	-0.179109
C125	C	1.498590	-0.177344	0.154225
C126	C	1.831923	0.155989	0.487558
C127	C	1.165390	-0.510413	-0.089488
C128	C	1.498724	-0.177079	0.243845
C129	C	1.832057	0.156254	0.577179
H130	H	1.117292	-0.918801	-0.513906
H131	H	1.450625	-0.585468	-0.180573
H132	H	1.783958	-0.252134	0.152761
H133	H	1.039671	-0.919719	-0.436473
H134	H	1.373005	-0.586386	-0.103140
H135	H	1.706338	-0.253052	0.230194
H136	H	1.117477	-1.100926	-0.514314
H137	H	1.450810	-0.767593	-0.180980
H138	H	1.784144	-0.434260	0.152353
O139	O	1.019980	-1.112421	-0.432237
O140	O	1.353313	-0.779088	-0.098903
O141	O	1.686647	-0.445755	0.234430
H142	H	1.022688	-1.164540	-0.378571
H143	H	1.356022	-0.831206	-0.045238
H144	H	1.689355	-0.497873	0.288095
H145	H	1.271650	-1.101870	-0.471323
H146	H	1.604983	-0.768536	-0.137990
H147	H	1.938316	-0.435203	0.195343
H148	H	1.186089	-0.919369	-0.255827
H149	H	1.519422	-0.586036	0.077507
H150	H	1.852756	-0.252702	0.410840
O151	O	1.060524	-0.907987	-0.278762
O152	O	1.393857	-0.574653	0.054571
O153	O	1.727191	-0.241320	0.387904
H154	H	1.044931	-0.940057	-0.218586
H155	H	1.378264	-0.606723	0.114748
H156	H	1.711597	-0.273390	0.448081
O157	O	1.059288	-1.109135	-0.279582
O158	O	1.392621	-0.775802	0.053752
O159	O	1.725955	-0.442469	0.387085
H160	H	1.058200	-1.196899	-0.279604
H161	H	1.391533	-0.863566	0.053730
H162	H	1.724866	-0.530233	0.387063
H163	H	1.267490	-0.919268	-0.474808
H164	H	1.600823	-0.585935	-0.141475
H165	H	1.934157	-0.252602	0.191859
O166	O	1.311976	-1.109667	-0.350212
O167	O	1.645309	-0.776334	-0.016879
O168	O	1.978643	-0.443001	0.316454
H169	H	1.294764	-1.082583	-0.289089
H170	H	1.628097	-0.749250	0.044244
H171	H	1.961430	-0.415916	0.377578
O172	O	1.199224	-1.110424	-0.240262
O173	O	1.532558	-0.777091	0.093072
O174	O	1.865891	-0.443758	0.426405
H175	H	1.227102	-1.041859	-0.209293
H176	H	1.560436	-0.708526	0.124040
H177	H	1.893769	-0.375193	0.457373
O178	O	1.314722	-0.907867	-0.356382
O179	O	1.648055	-0.574534	-0.023048
O180	O	1.981389	-0.241201	0.310285
H181	H	1.287197	-0.855141	-0.310665
H182	H	1.620531	-0.521807	0.022668
H183	H	1.953864	-0.188474	0.356002
