data_functionalizedCrystal
_audit_creation_method	'MofGen! by Chris Wilmer'
_symmetry_space_group_name_H-M	'P1'
_symmetry_Int_Tables_number	1
_symmetry_cell_setting	triclinic
loop_
_symmetry_equiv_pos_as_xyz
  x,y,z
_cell_length_a	10.654546
_cell_length_b	11.804365
_cell_length_c	10.654551
_cell_angle_alpha	78.050178
_cell_angle_beta	95.515557
_cell_angle_gamma	78.028723
loop_
_atom_site_label
_atom_site_type_symbol
_atom_site_fract_x
_atom_site_fract_y
_atom_site_fract_z
O1	O	-1.693046	0.099223	0.151191
O2	O	-1.327556	0.099181	0.168012
O3	O	-1.518704	0.099203	-0.023138
O4	O	-1.501898	0.099200	0.342341
O5	O	-1.468382	-0.098859	0.027133
O6	O	-1.277234	-0.098881	0.218284
O7	O	-1.642724	-0.098839	0.201462
Cu8	Cu	-1.455384	-0.116945	0.214463
Cu9	Cu	-1.514896	0.117286	0.155011
O10	O	-1.451576	-0.098862	0.392613
C11	C	-1.255596	0.000144	0.191916
C12	C	-1.116148	0.000129	0.188230
N13	N	-1.413536	-0.281690	0.256278
C14	C	-1.036666	0.000140	0.300769
C15	C	-0.905648	0.000153	0.297291
C16	C	-0.933609	0.000147	0.068723
C17	C	-1.064622	0.000126	0.072204
C18	C	-1.088192	0.000143	0.416794
C19	C	-1.008709	0.000156	0.529343
C20	C	-0.877691	0.000169	0.525865
C21	C	-0.826156	0.000168	0.409838
C22	C	-1.657247	-0.655610	0.012751
C23	C	-1.688904	-0.530945	-0.018887
C24	C	-1.620064	-0.468625	0.049901
C25	C	-1.519563	-0.530983	0.150333
C26	C	-1.487910	-0.655661	0.181981
C27	C	-1.450727	-0.468675	0.219131
C28	C	-1.350226	-0.531033	0.319563
C29	C	-1.318577	-0.655699	0.351205
C30	C	-1.387417	-0.718019	0.282417
C31	C	-1.482380	-0.343998	0.187484
C32	C	-1.313043	-0.344048	0.356714
C33	C	-1.281386	-0.468714	0.388352
C34	C	-0.714681	0.000184	0.177565
C35	C	-0.854117	0.000162	0.181270
C36	C	-1.492309	0.000175	-0.044801
C37	C	-1.488619	0.000183	-0.184246
N38	N	-1.556754	0.282032	0.113187
C39	C	-1.514317	0.108144	-0.277160
C40	C	-1.510835	0.108138	-0.408179
C41	C	-1.455960	-0.107800	-0.353356
C42	C	-1.459433	-0.107793	-0.222339
C43	C	-1.543502	0.216119	-0.239068
C44	C	-1.569203	0.324089	-0.331984
C45	C	-1.565722	0.324083	-0.463003
C46	C	-1.536538	0.216108	-0.501105
C47	C	-1.477971	0.000169	0.414275
C48	C	-1.481664	0.000170	0.553718
H49	H	-1.194873	0.000138	0.419638
H50	H	-0.812975	0.000168	0.617510
C51	C	-1.170834	-0.537324	0.498824
N52	N	-1.087564	-0.589002	0.582029
H53	H	-1.129340	0.000119	-0.019436
H54	H	-1.770732	-0.480177	-0.100656
H55	H	-0.719467	0.000160	0.407020
C56	C	-1.594032	0.442851	-0.565213
N57	N	-1.615380	0.532311	-0.642199
C58	C	-1.237311	-0.275502	0.432384
N59	N	-1.180276	-0.223865	0.489375
H60	H	-1.546343	0.216136	-0.132389
C61	C	-1.065398	0.000150	0.656967
N62	N	-1.108095	0.000145	0.753096
H63	H	-1.533687	0.216111	-0.607790
C64	C	-1.423869	-0.226565	-0.395277
N65	N	-1.399701	-0.316021	-0.426851
C66	C	-0.876918	0.000158	-0.058900
N67	N	-0.834219	0.000171	-0.155030
H68	H	-1.645844	-0.367117	0.024137
H69	H	-1.564208	-0.293237	0.105712
C70	C	-1.732961	-0.724170	-0.062902
N71	N	-1.789993	-0.775810	-0.119889
H72	H	-1.361639	-0.819532	0.308173
H73	H	-1.592951	0.411999	-0.300951
C74	C	-1.431171	-0.226556	-0.120128
N75	N	-1.409882	-0.316011	-0.043142
H76	H	-1.236753	-0.706471	0.432992
