data_functionalizedCrystal
_audit_creation_method	'MofGen! by Chris Wilmer'
_symmetry_space_group_name_H-M	'P1'
_symmetry_Int_Tables_number	1
_symmetry_cell_setting	triclinic
loop_
_symmetry_equiv_pos_as_xyz
  x,y,z
_cell_length_a	6.817900
_cell_length_b	9.582889
_cell_length_c	10.992410
_cell_angle_alpha	90.912548
_cell_angle_beta	108.764651
_cell_angle_gamma	111.207298
loop_
_atom_site_label
_atom_site_type_symbol
_atom_site_fract_x
_atom_site_fract_y
_atom_site_fract_z
V1	V	-4.127217	-0.207056	-0.400358
O2	O	-4.071753	0.009950	-0.392979
O3	O	-4.117543	-0.410557	-0.397387
O4	O	-4.104610	-0.203871	-0.575074
O5	O	-4.084775	-0.198167	-0.214062
V6	V	-4.602485	-0.181099	-0.378104
O7	O	-4.406584	-0.263993	-0.449174
O8	O	-4.773316	-0.124162	-0.329287
O9	O	-4.388953	0.022402	-0.381075
O10	O	-4.775347	-0.398105	-0.385483
O11	O	-4.762325	-0.189988	-0.564400
O12	O	-4.401886	-0.184284	-0.203387
C13	C	-3.971130	-0.460166	-0.391011
C14	C	-4.044679	-0.626531	-0.389746
C15	C	-3.954631	-0.196516	-0.617667
C16	C	-4.017687	-0.195258	-0.760497
C17	C	-3.884092	-0.183800	-0.955633
C18	C	-3.818663	-0.185728	-0.807148
C19	C	-4.224945	-0.342815	-0.837433
C20	C	-4.289177	-0.341510	-0.986001
C21	C	-4.149046	-0.055786	-0.948294
C22	C	-4.078293	-0.055087	-0.799282
C23	C	-4.198709	0.072003	-0.387447
C24	C	-4.104400	0.238366	-0.388720
C25	C	-4.215207	-0.191644	-0.160788
C26	C	-4.131388	-0.192894	-0.017957
H27	H	-3.760197	-0.076971	-0.974584
H28	H	-4.471983	-0.354341	-1.028618
C29	C	-4.276948	-0.481756	-1.048361
C30	C	-4.332746	-0.509604	-1.196185
C31	C	-4.320516	-0.649855	-1.258538
C32	C	-4.252487	-0.762257	-1.173068
C33	C	-4.196683	-0.734412	-1.025235
C34	C	-4.208914	-0.594162	-0.962882
H35	H	-4.383110	-0.426395	-1.259463
H36	H	-4.361825	-0.670467	-1.367974
H37	H	-4.243433	-0.866079	-1.219225
H38	H	-4.146320	-0.817622	-0.961957
H39	H	-4.167604	-0.573550	-0.853447
H40	H	-3.865325	-0.282314	-1.003513
H41	H	-3.928203	0.054070	-0.747048
C42	C	-3.749864	-0.320660	-0.773457
C43	C	-3.754371	-0.426998	-0.881742
C44	C	-3.685573	-0.561937	-0.848054
C45	C	-3.612266	-0.590537	-0.706080
C46	C	-3.607755	-0.484196	-0.597786
C47	C	-3.676554	-0.349257	-0.631474
H48	H	-3.808640	-0.405829	-0.986848
H49	H	-3.688912	-0.640658	-0.928221
H50	H	-3.561337	-0.690427	-0.681142
H51	H	-3.553487	-0.505364	-0.492680
H52	H	-3.673215	-0.270536	-0.551307
H53	H	-4.039114	0.056265	-0.968780
H54	H	-4.376092	-0.355117	-0.808616
H55	H	-3.663562	-0.079628	-0.753927
C56	C	-4.391282	-0.063009	-1.003465
C57	C	-4.572232	-0.192615	-1.111183
C58	C	-4.814466	-0.199851	-1.166365
C59	C	-4.875750	-0.077480	-1.113829
C60	C	-4.694796	0.052136	-1.006105
C61	C	-4.452561	0.059371	-0.950923
H62	H	-4.526869	-0.283210	-1.150079
H63	H	-4.948420	-0.295802	-1.246109
H64	H	-5.055067	-0.082836	-1.154678
H65	H	-4.740158	0.142730	-0.967210
H66	H	-4.318607	0.155322	-0.871179
H67	H	-4.185702	-0.446886	-0.811709
H68	H	-4.220298	-0.053354	-0.766772
