data_functionalizedCrystal
_audit_creation_method	'MofGen! by Chris Wilmer'
_symmetry_space_group_name_H-M	'P1'
_symmetry_Int_Tables_number	1
_symmetry_cell_setting	triclinic
loop_
_symmetry_equiv_pos_as_xyz
  x,y,z
_cell_length_a	10.654550
_cell_length_b	11.295483
_cell_length_c	12.837942
_cell_angle_alpha	94.530417
_cell_angle_beta	89.656921
_cell_angle_gamma	85.851403
loop_
_atom_site_label
_atom_site_type_symbol
_atom_site_fract_x
_atom_site_fract_y
_atom_site_fract_z
O1	O	1.691381	-0.099124	0.138790
O2	O	1.327416	-0.099105	0.152675
O3	O	1.501327	-0.099106	-0.005228
O4	O	1.517470	-0.099122	0.296692
O5	O	1.486050	0.098944	0.008619
O6	O	1.312138	0.098946	0.166522
O7	O	1.676103	0.098927	0.152637
Cu8	Cu	1.492726	0.117020	0.160844
Cu9	Cu	1.510793	-0.117198	0.144468
O10	O	1.502192	0.098929	0.310540
C11	C	1.272868	-0.000077	0.158579
C12	C	1.133091	-0.000069	0.155530
C13	C	1.488236	-0.000081	-0.036964
C14	C	1.471974	-0.000082	-0.152158
N15	N	1.480027	0.281757	0.172361
C16	C	1.063753	-0.000091	0.248499
C17	C	0.932420	-0.000112	0.245625
C18	C	0.939777	-0.000093	0.056806
C19	C	1.071106	-0.000064	0.059681
C20	C	1.125737	-0.000097	0.344348
C21	C	1.056398	-0.000120	0.437324
C22	C	0.925066	-0.000141	0.434451
C23	C	0.863072	-0.000138	0.338601
C24	C	1.730652	-0.000103	0.146732
C25	C	1.870429	-0.000119	0.149781
N26	N	1.523501	-0.281934	0.132942
C27	C	1.614906	0.531045	0.049975
C28	C	1.605319	0.655709	0.058686
C29	C	1.451261	0.655750	0.198490
C30	C	1.460848	0.531087	0.189778
C31	C	1.542674	0.468738	0.115520
C32	C	1.552267	0.344072	0.106814
C33	C	1.398203	0.344116	0.246612
C34	C	1.388616	0.468780	0.255323
C35	C	1.667481	-0.000118	-0.391714
C36	C	1.652207	-0.000119	-0.499949
C37	C	1.426153	-0.000095	-0.476868
C38	C	1.441427	-0.000093	-0.368632
C39	C	1.562095	-0.000103	-0.326059
C40	C	1.577367	-0.000093	-0.217821
C41	C	1.351315	-0.000078	-0.194742
C42	C	1.336041	-0.000079	-0.302978
C43	C	1.515284	-0.000099	0.342276
C44	C	1.531547	-0.000106	0.457469
H45	H	1.232675	-0.000085	0.346698
H46	H	1.106882	-0.000113	0.515363
F47	F	1.207626	-0.000078	-0.348300
F48	F	1.239148	-0.000050	-0.124859
H49	H	0.868612	-0.000148	0.510158
F50	F	0.723293	-0.000143	0.335549
F51	F	0.873795	-0.000094	-0.045198
F52	F	1.144906	-0.000039	-0.039267
F53	F	1.639356	0.277719	0.027785
H54	H	1.384631	0.706531	0.258943
F55	F	1.702003	0.464689	-0.029047
H56	H	1.321991	0.519558	0.315781
F57	F	1.682195	0.722016	-0.011078
F58	F	1.705789	-0.000096	-0.172512
F59	F	1.321332	0.277793	0.316378
F60	F	1.795900	-0.000103	-0.346400
H61	H	1.738024	-0.000134	-0.553402
H62	H	1.327912	-0.000099	-0.511552
