data_functionalizedCrystal
_audit_creation_method	'MofGen! by Chris Wilmer'
_symmetry_space_group_name_H-M	'P1'
_symmetry_Int_Tables_number	1
_symmetry_cell_setting	triclinic
loop_
_symmetry_equiv_pos_as_xyz
  x,y,z
_cell_length_a	13.033293
_cell_length_b	16.120444
_cell_length_c	16.120297
_cell_angle_alpha	95.615117
_cell_angle_beta	85.311971
_cell_angle_gamma	100.431871
loop_
_atom_site_label
_atom_site_type_symbol
_atom_site_fract_x
_atom_site_fract_y
_atom_site_fract_z
Zn1	Zn	1.543903	-0.208052	-0.638618
Zn2	Zn	1.543768	-0.340755	-0.505917
Zn3	Zn	1.378469	-0.216921	-0.482881
Zn4	Zn	1.359753	-0.365519	-0.627862
O5	O	1.456473	-0.282812	-0.563819
O6	O	1.690131	-0.211580	-0.635157
O7	O	1.529617	-0.317676	-0.386650
O8	O	1.408303	-0.098019	-0.498400
O9	O	1.690031	-0.309076	-0.537662
O10	O	1.529847	-0.091503	-0.612820
O11	O	1.408172	-0.226696	-0.369726
O12	O	1.229740	-0.250709	-0.487971
O13	O	1.376405	-0.351283	-0.745499
O14	O	1.215990	-0.359883	-0.594487
O15	O	1.511699	-0.235592	-0.753402
O16	O	1.511469	-0.461766	-0.527232
O17	O	1.376275	-0.479960	-0.616825
C18	C	1.184946	-0.308947	-0.537563
C19	C	1.068782	-0.320148	-0.526350
C20	C	1.017031	-0.276987	-0.569672
C21	C	0.896970	-0.288563	-0.558085
C22	C	1.441854	-0.501386	-0.573382
C23	C	1.435693	-0.594886	-0.577510
C24	C	1.488676	-0.798693	-0.542609
C25	C	1.424464	-0.766062	-0.585057
C26	C	1.430714	-0.670810	-0.580856
C27	C	1.482427	-0.893953	-0.546808
C28	C	1.729061	-0.256576	-0.590179
C29	C	1.845222	-0.245396	-0.601412
C30	C	1.441980	-0.295211	-0.780425
C31	C	1.435803	-0.300494	-0.872729
C32	C	1.471177	-0.063383	-0.554240
C33	C	1.477443	0.030125	-0.550158
C34	C	1.424490	-0.310126	-1.041727
C35	C	1.488679	-0.255226	-1.086772
C36	C	1.482385	-0.260585	-1.180808
C37	C	1.430783	-0.304768	-0.947682
C38	C	1.470975	-0.270395	-0.348059
C39	C	1.477369	-0.264855	-0.255765
H40	H	0.889796	-0.199866	-0.647078
H41	H	1.364796	-0.809663	-0.624552
O42	O	1.009749	-0.380447	-0.465851
H43	H	0.954687	-0.430195	-0.500059
H44	H	1.364813	-0.361148	-1.073783
O45	O	1.567704	-0.740943	-0.490293
H46	H	1.613787	-0.779537	-0.459845
H47	H	1.548361	-0.204200	-1.054714
H48	H	1.061610	-0.231461	-0.615336
H49	H	0.852396	-0.334087	-0.512412
