data_functionalizedCrystal
_audit_creation_method	'MofGen! by Chris Wilmer'
_symmetry_space_group_name_H-M	'P1'
_symmetry_Int_Tables_number	1
_symmetry_cell_setting	triclinic
loop_
_symmetry_equiv_pos_as_xyz
  x,y,z
_cell_length_a	17.077404
_cell_length_b	16.625545
_cell_length_c	17.077396
_cell_angle_alpha	89.972074
_cell_angle_beta	89.981638
_cell_angle_gamma	90.023528
loop_
_atom_site_label
_atom_site_type_symbol
_atom_site_fract_x
_atom_site_fract_y
_atom_site_fract_z
Zn1	Zn	1.200040	-0.321045	-0.443822
Zn2	Zn	1.700040	0.178955	0.056178
Zn3	Zn	1.199941	-0.455888	-0.312557
Zn4	Zn	1.699941	0.044112	0.187443
Zn5	Zn	1.068772	-0.321068	-0.312572
Zn6	Zn	1.568772	0.178932	0.187428
Zn7	Zn	1.068734	-0.455835	-0.443783
Zn8	Zn	1.568734	0.044165	0.056217
O9	O	1.134372	-0.388459	-0.378184
O10	O	1.634372	0.111541	0.121816
O11	O	1.309874	-0.338945	-0.426419
O12	O	1.809874	0.161055	0.073581
O13	O	1.182516	-0.438036	-0.202712
O14	O	1.682516	0.061964	0.297288
O15	O	1.086242	-0.208233	-0.330005
O16	O	1.586242	0.291767	0.169995
O17	O	1.309801	-0.438013	-0.329979
O18	O	1.809801	0.061987	0.170021
O19	O	1.182684	-0.208216	-0.426434
O20	O	1.682684	0.291784	0.073566
O21	O	1.086146	-0.338984	-0.202723
O22	O	1.586146	0.161016	0.297277
O23	O	0.958920	-0.338933	-0.329968
O24	O	1.458920	0.161067	0.170032
O25	O	1.086177	-0.437923	-0.553635
O26	O	1.586177	0.062077	-0.053635
O27	O	0.958892	-0.437945	-0.426368
O28	O	1.458892	0.062055	0.073632
O29	O	1.182647	-0.338894	-0.553664
O30	O	1.682647	0.161106	-0.053664
O31	O	1.182479	-0.568713	-0.329942
O32	O	1.682479	-0.068713	0.170058
O33	O	1.086081	-0.568674	-0.426353
O34	O	1.586081	-0.068674	0.073647
C35	C	0.930424	-0.388436	-0.378166
C36	C	1.430424	0.111564	0.121834
C37	C	0.843174	-0.388446	-0.378177
C38	C	1.343174	0.111554	0.121823
C39	C	0.802222	-0.336953	-0.428470
C40	C	1.302222	0.163047	0.071530
C41	C	0.720242	-0.336958	-0.428474
C42	C	1.220242	0.163042	0.071526
C43	C	0.679215	-0.388461	-0.378188
C44	C	1.179215	0.111539	0.121812
C45	C	0.720172	-0.439956	-0.327889
C46	C	1.220172	0.060044	0.172111
C47	C	0.802151	-0.439947	-0.327882
C48	C	1.302151	0.060053	0.172118
C49	C	0.549302	-0.439975	-0.327909
C50	C	1.049302	0.060025	0.172091
C51	C	0.467317	-0.439986	-0.327917
C52	C	0.967317	0.060014	0.172083
C53	C	0.467393	-0.336986	-0.428500
C54	C	0.967393	0.163014	0.071500
C55	C	0.549372	-0.336976	-0.428493
C56	C	1.049372	0.163024	0.071507
C57	C	0.590324	-0.388473	-0.378196
C58	C	1.090324	0.111527	0.121804
C59	C	1.134286	-0.597950	-0.378159
C60	C	1.634286	-0.097950	0.121841
C61	C	1.134322	-0.687571	-0.378175
C62	C	1.634322	-0.187571	0.121825
C63	C	1.134352	-0.760354	-0.378190
C64	C	1.634352	-0.260354	0.121810
C65	C	1.134398	-0.851662	-0.378208
C66	C	1.634398	-0.351662	0.121792
C67	C	1.134439	-0.924438	-0.378218
C68	C	1.634439	-0.424438	0.121782
C69	C	1.134483	-1.015753	-0.378234
C70	C	1.634483	-0.515753	0.121766
C71	C	1.339116	-0.388483	-0.378202
C72	C	1.839116	0.111517	0.121798
C73	C	1.426366	-0.388493	-0.378210
C74	C	1.926366	0.111507	0.121790
C75	C	1.134419	-0.388400	-0.582928
C76	C	1.634419	0.111600	-0.082928
C77	C	1.134439	-0.388374	-0.670178
C78	C	1.634439	0.111626	-0.170178
C79	C	1.134479	-0.178150	-0.378226
C80	C	1.634479	0.321850	0.121774
C81	C	1.134524	-0.088529	-0.378244
C82	C	1.634524	0.411471	0.121756
C83	C	1.184673	-0.336806	-0.711184
C84	C	1.684673	0.163194	-0.211184
C85	C	1.184683	-0.336779	-0.793165
C86	C	1.684683	0.163221	-0.293165
C87	C	1.134462	-0.388325	-0.834137
C88	C	1.634462	0.111675	-0.334137
C89	C	1.084222	-0.439897	-0.793125
C90	C	1.584222	0.060103	-0.293125
C91	C	1.084209	-0.439919	-0.711146
C92	C	1.584209	0.060081	-0.211146
C93	C	1.084254	-0.439848	-0.963996
C94	C	1.584254	0.060152	-0.463996
C95	C	1.084268	-0.439827	-1.045980
C96	C	1.584268	0.060173	-0.545980
C97	C	1.184727	-0.336708	-1.046014
C98	C	1.684727	0.163292	-0.546014
C99	C	1.184714	-0.336730	-0.964035
C100	C	1.684714	0.163270	-0.464035
C101	C	1.134476	-0.388303	-0.923028
C102	C	1.634476	0.111697	-0.423028
C103	C	1.134370	-0.388460	-0.174236
C104	C	1.634370	0.111540	0.325764
C105	C	1.134501	-0.388258	-0.086986
C106	C	1.634501	0.111742	0.413014
H107	H	0.686903	-0.295029	-0.469429
H108	H	1.186903	0.204971	0.030571
H109	H	0.434046	-0.295054	-0.469453
H110	H	0.934046	0.204946	0.030547
C111	C	0.847345	-0.280294	-0.483789
C112	C	1.347345	0.219706	0.016211
N113	N	0.881329	-0.237613	-0.525454
N114	N	1.381329	0.262387	-0.025454
C115	C	1.028991	-0.496584	-0.918891
C116	C	1.528991	0.003416	-0.418891
N117	N	0.987372	-0.539320	-0.884918
N118	N	1.487372	-0.039320	-0.384918
H119	H	0.582642	-0.481907	-0.286949
H120	H	1.082642	0.018093	0.213051
C121	C	1.029017	-0.496526	-1.091049
C122	C	1.529017	0.003474	-0.591049
N123	N	0.987400	-0.539231	-1.124994
N124	N	1.487400	-0.039231	-0.624994
C125	C	0.675039	-0.496609	-0.272573
C126	C	1.175039	0.003391	0.227427
N127	N	0.641045	-0.539284	-0.230910
N128	N	1.141045	-0.039284	0.269090
H129	H	0.582774	-0.295043	-0.469445
H130	H	1.082774	0.204957	0.030555
C131	C	0.847197	-0.496595	-0.272558
C132	C	1.347197	0.003405	0.227442
N133	N	0.881125	-0.539263	-0.230885
N134	N	1.381125	-0.039263	0.269115
H135	H	1.225572	-0.294833	-0.677830
H136	H	1.725572	0.205167	-0.177830
H137	H	1.225613	-0.294761	-0.930677
H138	H	1.725613	0.205239	-0.430677
C139	C	1.028950	-0.496650	-0.666040
C140	C	1.528950	0.003350	-0.166040
N141	N	0.987325	-0.539380	-0.632067
N142	N	1.487325	-0.039380	-0.132067
H143	H	1.225590	-0.294788	-0.826548
H144	H	1.725590	0.205212	-0.326548
C145	C	0.422189	-0.496640	-0.272598
C146	C	0.922189	0.003360	0.227402
N147	N	0.388198	-0.539313	-0.230932
N148	N	0.888198	-0.039313	0.269068
H149	H	1.225632	-0.294715	-1.079405
H150	H	1.725632	0.205285	-0.579405
H151	H	1.043329	-0.481864	-0.826492
H152	H	1.543329	0.018136	-0.326492
