data_functionalizedCrystal
_audit_creation_method	'MofGen! by Chris Wilmer'
_symmetry_space_group_name_H-M	'P1'
_symmetry_Int_Tables_number	1
_symmetry_cell_setting	triclinic
loop_
_symmetry_equiv_pos_as_xyz
  x,y,z
_cell_length_a	13.032891
_cell_length_b	13.032721
_cell_length_c	13.034296
_cell_angle_alpha	89.133654
_cell_angle_beta	105.185423
_cell_angle_gamma	90.903621
loop_
_atom_site_label
_atom_site_type_symbol
_atom_site_fract_x
_atom_site_fract_y
_atom_site_fract_z
Zn1	Zn	-1.642125	0.515003	-0.864476
Zn2	Zn	-1.142125	1.015003	-0.364476
Zn3	Zn	-1.598124	0.704044	-0.708145
Zn4	Zn	-1.098124	1.204044	-0.208145
Zn5	Zn	-1.441927	0.515015	-0.664358
Zn6	Zn	-0.941927	1.015015	-0.164358
Zn7	Zn	-1.447484	0.665664	-0.858874
Zn8	Zn	-0.947484	1.165664	-0.358874
O9	O	-1.532415	0.599932	-0.773963
O10	O	-1.032415	1.099932	-0.273963
O11	O	-1.783115	0.556137	-0.864407
O12	O	-1.283115	1.056137	-0.364407
O13	O	-1.556665	0.695037	-0.555506
O14	O	-1.056665	1.195037	-0.055506
O15	O	-1.484573	0.372852	-0.674924
O16	O	-0.984573	0.872852	-0.174924
O17	O	-1.750788	0.695025	-0.749551
O18	O	-1.250788	1.195025	-0.249551
O19	O	-1.631657	0.372843	-0.821950
O20	O	-1.131657	0.872843	-0.321950
O21	O	-1.441908	0.556158	-0.523336
O22	O	-0.941908	1.056158	-0.023336
O23	O	-1.295838	0.518942	-0.669492
O24	O	-0.795838	1.018942	-0.169492
O25	O	-1.494043	0.629611	-1.006448
O26	O	-0.994043	1.129611	-0.506448
O27	O	-1.299920	0.629623	-0.812402
O28	O	-0.799920	1.129623	-0.312402
O29	O	-1.637045	0.518921	-1.010564
O30	O	-1.137045	1.018921	-0.510564
O31	O	-1.562053	0.841115	-0.744120
O32	O	-1.062053	1.341115	-0.244120
O33	O	-1.451378	0.812917	-0.854860
O34	O	-0.951378	1.312917	-0.354860
C35	C	-1.259808	0.570119	-0.735589
C36	C	-0.759808	1.070119	-0.235589
C37	C	-1.143186	0.557387	-0.719199
C38	C	-0.643186	1.057387	-0.219199
C39	C	-1.571072	0.569984	-1.047642
C40	C	-1.071072	1.069984	-0.547642
C41	C	-1.587545	0.557222	-1.164267
C42	C	-1.087545	1.057222	-0.664267
C43	C	-1.502575	0.863877	-0.803660
C44	C	-1.002575	1.363877	-0.303660
C45	C	-1.489911	0.976801	-0.816413
C46	C	-0.989911	1.476801	-0.316413
C47	C	-1.806086	0.629861	-0.812489
C48	C	-1.306086	1.129861	-0.312489
C49	C	-1.922709	0.642615	-0.828906
C50	C	-1.422709	1.142615	-0.328906
C51	C	-0.972682	0.593422	-0.765588
C52	C	-0.472682	1.093422	-0.265588
C53	C	-1.093216	0.606587	-0.782526
C54	C	-0.593216	1.106587	-0.282526
C55	C	-1.562403	0.334956	-0.744177
C56	C	-1.062403	0.834956	-0.244177
C57	C	-1.575182	0.222039	-0.731484
C58	C	-1.075182	0.722039	-0.231484
C59	C	-1.539087	1.041064	-0.767362
C60	C	-1.039087	1.541064	-0.267362
C61	C	-1.525999	1.157777	-0.780542
C62	C	-1.025999	1.657777	-0.280542
C63	C	-1.524135	0.606299	-1.214226
C64	C	-1.024135	1.106299	-0.714226
C65	C	-1.541159	0.593110	-1.334765
C66	C	-1.041159	1.093110	-0.834765
C67	C	-1.493977	0.629696	-0.501350
C68	C	-0.993977	1.129696	-0.001350
C69	C	-1.477740	0.642194	-0.384721
C70	C	-0.977740	1.142194	0.115279
H71	H	-0.926233	0.541556	-0.698844
H72	H	-0.426233	1.041556	-0.198844
C73	C	-1.387365	0.712155	-1.321958
C74	C	-0.887365	1.212155	-0.821958
N75	N	-1.319294	0.764847	-1.274684
N76	N	-0.819294	1.264847	-0.774684
C77	C	-1.631531	0.523148	-1.397530
C78	C	-1.131531	1.023148	-0.897530
N79	N	-1.699596	0.470450	-1.444805
N80	N	-1.199596	0.970450	-0.944805
H81	H	-0.969160	0.694472	-0.895658
H82	H	-0.469160	1.194472	-0.395658
H83	H	-1.139664	0.658447	-0.849282
H84	H	-0.639664	1.158447	-0.349282
C85	C	-1.609056	0.998666	-0.697445
C86	C	-1.109056	1.498666	-0.197445
N87	N	-1.661757	0.966733	-0.644780
N88	N	-1.161757	1.466733	-0.144780
H89	H	-1.654439	0.505444	-1.210735
H90	H	-1.154439	1.005444	-0.710735
C91	C	-1.080445	0.487319	-0.629017
C92	C	-0.580445	0.987319	-0.129017
N93	N	-1.033187	0.434546	-0.561092
N94	N	-0.533187	0.934546	-0.061092
C95	C	-1.456023	1.200170	-0.850460
C96	C	-0.956023	1.700170	-0.350460
N97	N	-1.403317	1.232103	-0.903119
N98	N	-0.903317	1.732103	-0.403119
C99	C	-1.645156	1.179648	-0.661564
C100	C	-1.145156	1.679648	-0.161564
N101	N	-1.697859	1.147719	-0.608900
N102	N	-1.197859	1.647719	-0.108900
C103	C	-1.419939	1.019199	-0.886327
C104	C	-0.919939	1.519199	-0.386327
N105	N	-1.367232	1.051132	-0.938986
N106	N	-0.867232	1.551132	-0.438986
C107	C	-1.433763	0.676253	-1.151457
C108	C	-0.933763	1.176253	-0.651457
N109	N	-1.365692	0.728942	-1.104180
N110	N	-0.865692	1.228942	-0.604180
