data_functionalizedCrystal
_audit_creation_method	'MofGen! by Chris Wilmer'
_symmetry_space_group_name_H-M	'P1'
_symmetry_Int_Tables_number	1
_symmetry_cell_setting	triclinic
loop_
_symmetry_equiv_pos_as_xyz
  x,y,z
_cell_length_a	11.026607
_cell_length_b	12.837942
_cell_length_c	10.065875
_cell_angle_alpha	99.723749
_cell_angle_beta	79.302338
_cell_angle_gamma	101.707478
loop_
_atom_site_label
_atom_site_type_symbol
_atom_site_fract_x
_atom_site_fract_y
_atom_site_fract_z
O1	O	1.677813	0.431471	-0.113501
O2	O	1.318665	0.380952	-0.113502
O3	O	1.490274	0.253824	-0.113493
O4	O	1.506204	0.558600	-0.113509
O5	O	1.457565	0.278190	0.113494
O6	O	1.285956	0.405318	0.113485
O7	O	1.645104	0.455838	0.113486
Zn8	Zn	1.460337	0.434446	0.149525
Zn9	Zn	1.503433	0.402343	-0.149540
O10	O	1.473495	0.582966	0.113478
C11	C	1.256022	0.383815	-0.000008
C12	C	1.118096	0.356032	-0.000008
C13	C	1.053161	0.432745	-0.000013
C14	C	0.910607	0.404032	-0.000014
C15	C	1.468539	0.226382	0.000000
C16	C	1.452492	0.108310	-0.000002
C17	C	1.645414	-0.096651	-0.000030
C18	C	1.630342	-0.207590	-0.000032
C19	C	1.407280	-0.224509	-0.000019
C20	C	1.422351	-0.113570	-0.000017
C21	C	1.541422	-0.049645	-0.000020
C22	C	1.556491	0.061297	-0.000008
C23	C	1.333431	0.044375	-0.000004
C24	C	1.318359	-0.066563	-0.000007
C25	C	1.707748	0.452974	-0.000010
C26	C	1.845676	0.480756	-0.000019
C27	C	1.495231	0.610407	-0.000018
C28	C	1.511279	0.728478	-0.000025
N29	N	1.430934	0.456357	0.353629
N30	N	1.532844	0.380426	-0.353644
C31	C	1.493194	0.409958	0.421411
C32	C	1.470575	0.426831	0.578577
H33	H	1.653444	0.113344	-0.000006
H34	H	1.563237	0.357738	0.363091
C35	C	1.627479	0.309879	0.567593
H36	H	1.663599	0.282952	0.630502
H37	H	1.691619	0.351584	0.511832
H38	H	1.585587	0.251562	0.511868
C39	C	1.744730	-0.259300	-0.000046
H40	H	1.718705	-0.334528	-0.000058
H41	H	1.781629	-0.229150	0.079104
H42	H	1.804422	-0.246136	-0.079217
C43	C	1.187391	-0.136882	-0.000009
H44	H	1.127617	-0.092995	-0.000012
H45	H	1.165469	-0.172023	0.079141
H46	H	1.188283	-0.188999	-0.079180
H47	H	1.400518	0.479046	0.636895
H48	H	1.360881	0.508568	0.411952
C49	C	1.050638	0.238589	-0.000009
H50	H	0.963676	0.234696	-0.000021
H51	H	1.061899	0.212799	0.079144
H52	H	1.084715	0.195817	-0.079177
H53	H	1.248752	0.082660	0.000015
C54	C	0.913120	0.598207	-0.000020
H55	H	0.853892	0.642612	-0.000013
H56	H	0.974943	0.603742	-0.079172
H57	H	0.952119	0.620731	0.079148
H58	H	1.742364	-0.044601	-0.000020
C59	C	0.843154	0.286583	-0.000015
H60	H	0.756192	0.282691	-0.000027
H61	H	0.854415	0.260793	0.079138
H62	H	0.877231	0.243811	-0.079182
C63	C	1.120621	0.550187	-0.000021
H64	H	1.207585	0.554078	-0.000030
H65	H	1.086546	0.592968	0.079129
H66	H	1.109362	0.575965	-0.079192
C67	C	1.276318	-0.294835	-0.000042
H68	H	1.216539	-0.250955	-0.000051
H69	H	1.254389	-0.329985	0.079101
H70	H	1.277229	-0.346946	-0.079220
