data_functionalizedCrystal
_audit_creation_method	'MofGen! by Chris Wilmer'
_symmetry_space_group_name_H-M	'P1'
_symmetry_Int_Tables_number	1
_symmetry_cell_setting	triclinic
loop_
_symmetry_equiv_pos_as_xyz
  x,y,z
_cell_length_a	16.992695
_cell_length_b	9.065218
_cell_length_c	8.140239
_cell_angle_alpha	90.001686
_cell_angle_beta	89.999195
_cell_angle_gamma	92.157946
loop_
_atom_site_label
_atom_site_type_symbol
_atom_site_fract_x
_atom_site_fract_y
_atom_site_fract_z
O1	O	1.042613	-0.313082	-0.136537
O2	O	0.814303	-0.309648	-0.136555
O3	O	0.933177	-0.097160	-0.136542
O4	O	0.923739	-0.525570	-0.136550
O5	O	0.933170	-0.097157	0.136685
O6	O	0.814297	-0.309644	0.136672
O7	O	1.042606	-0.313079	0.136690
Zn8	Zn	0.928450	-0.311361	0.180062
Zn9	Zn	0.928459	-0.311366	-0.179927
O10	O	0.923732	-0.525566	0.136677
C11	C	0.785056	-0.305227	0.000056
C12	C	0.697918	-0.292043	0.000049
C13	C	0.932267	-0.042088	0.000068
C14	C	0.929555	0.122007	0.000060
C15	C	1.071853	-0.317499	0.000075
C16	C	1.158991	-0.330683	0.000071
C17	C	1.208328	-0.203477	0.000068
C18	C	1.290203	-0.215874	0.000073
C19	C	1.322739	-0.355477	0.000071
C20	C	1.273396	-0.482693	0.000079
C21	C	1.191522	-0.470295	0.000085
C22	C	1.566702	-0.406861	0.000064
C23	C	1.648581	-0.419249	0.000053
C24	C	1.665383	-0.152429	0.000050
C25	C	1.583507	-0.140043	0.000046
C26	C	1.534171	-0.267259	0.000063
N27	N	1.406428	-0.368152	0.000071
N28	N	1.450484	-0.254583	0.000074
C29	C	0.924643	-0.580639	0.000063
C30	C	0.927355	-0.744733	0.000060
N31	N	0.928450	-0.311358	0.425744
N32	N	0.928465	-0.311358	-0.425609
H33	H	1.181844	-0.089797	0.000060
C34	C	1.623753	-0.681759	0.000084
C35	C	1.684346	-0.572713	0.000060
H36	H	1.645835	-0.776493	0.000096
H37	H	1.592167	-0.671387	-0.095185
H38	H	1.592172	-0.671360	0.095377
H39	H	1.715924	-0.583105	-0.095239
H40	H	1.715945	-0.583090	0.095339
C41	C	1.089706	-0.611144	0.140550
C42	C	1.137289	-0.610125	0.000086
H43	H	1.056229	-0.697478	0.140557
H44	H	1.058615	-0.526239	0.140541
H45	H	1.122006	-0.610431	0.235814
H46	H	1.104989	-0.610827	-0.095179
H47	H	1.168383	-0.695053	0.000080
H48	H	1.526541	-0.510450	0.000069
C49	C	1.284284	-0.713927	0.140540
C50	C	1.309156	-0.636150	0.000080
H51	H	1.306364	-0.808663	0.140538
H52	H	1.228469	-0.724745	0.140535
H53	H	1.301163	-0.661128	0.235807
H54	H	1.292272	-0.688944	-0.095188
H55	H	1.364983	-0.625338	0.000070
C56	C	1.298587	0.049107	0.000054
C57	C	1.344434	-0.076044	0.000065
H58	H	1.332069	0.135434	0.000042
H59	H	1.266304	0.048397	0.095327
H60	H	1.266303	0.048376	-0.095234
H61	H	1.376714	-0.075319	0.095361
H62	H	1.376731	-0.075333	-0.095217
H63	H	1.557023	-0.026364	0.000049
C64	C	1.798349	-0.052954	0.000055
C65	C	1.719615	-0.012600	0.000054
H66	H	1.831828	0.033378	0.000072
H67	H	1.808311	-0.109784	-0.095224
H68	H	1.808306	-0.109803	0.095337
H69	H	1.709656	0.044241	-0.095235
H70	H	1.709648	0.044254	0.095343
