data_functionalizedCrystal
_audit_creation_method	'MofGen! by Chris Wilmer'
_symmetry_space_group_name_H-M	'P1'
_symmetry_Int_Tables_number	1
_symmetry_cell_setting	triclinic
loop_
_symmetry_equiv_pos_as_xyz
  x,y,z
_cell_length_a	16.959454
_cell_length_b	19.805407
_cell_length_c	19.805399
_cell_angle_alpha	90.019197
_cell_angle_beta	89.977613
_cell_angle_gamma	89.983775
loop_
_atom_site_label
_atom_site_type_symbol
_atom_site_fract_x
_atom_site_fract_y
_atom_site_fract_z
Zn1	Zn	-0.314781	-1.034765	-0.382737
Zn2	Zn	-0.446963	-1.034693	-0.269559
Zn3	Zn	-0.314794	-0.921580	-0.269563
Zn4	Zn	-0.446913	-0.921556	-0.382707
O5	O	-0.380863	-0.978149	-0.326141
O6	O	-0.332331	-1.129472	-0.367735
O7	O	-0.429458	-1.019668	-0.174843
O8	O	-0.204181	-0.936635	-0.284590
O9	O	-0.429445	-1.129419	-0.284584
O10	O	-0.204172	-1.019792	-0.367739
O11	O	-0.332353	-0.936564	-0.174846
O12	O	-0.332304	-0.826860	-0.284560
O13	O	-0.429358	-0.936594	-0.477427
O14	O	-0.429371	-0.826843	-0.367687
O15	O	-0.332282	-1.019768	-0.477450
O16	O	-0.557568	-1.019645	-0.284554
O17	O	-0.557530	-0.936524	-0.367683
C18	C	-0.380834	-0.802293	-0.326121
C19	C	-0.380840	-0.727061	-0.326128
C20	C	-0.330362	-0.691745	-0.369490
C21	C	-0.330364	-0.621056	-0.369491
C22	C	-0.380850	-0.585685	-0.326133
C23	C	-0.431331	-0.621006	-0.282766
C24	C	-0.431324	-0.691693	-0.282762
C25	C	-0.431360	-0.335932	-0.282780
C26	C	-0.431364	-0.265240	-0.282788
C27	C	-0.330400	-0.265296	-0.369508
C28	C	-0.330393	-0.335983	-0.369505
C29	C	-0.380871	-0.371298	-0.326136
C30	C	-0.380866	-0.447946	-0.326134
C31	C	-0.380859	-0.509038	-0.326137
C32	C	-0.586229	-0.978092	-0.326130
C33	C	-0.674086	-0.978130	-0.326148
C34	C	-1.045572	-0.934930	-0.369422
C35	C	-1.045551	-1.021555	-0.282930
C36	C	-0.963005	-1.021532	-0.282924
C37	C	-0.921739	-0.978206	-0.326167
C38	C	-0.963018	-0.934904	-0.369416
C39	C	-0.921719	-1.064828	-0.239670
C40	C	-0.839168	-1.064806	-0.239662
C41	C	-0.797900	-1.021483	-0.282909
C42	C	-0.839185	-0.978180	-0.326160
C43	C	-0.797919	-0.934854	-0.369403
C44	C	-0.839202	-0.891553	-0.412659
C45	C	-0.921750	-0.891581	-0.412663
C46	C	-0.715352	-1.021455	-0.282905
C47	C	-0.715365	-0.934827	-0.369397
C48	C	-0.174695	-0.978224	-0.326168
C49	C	-0.086838	-0.978256	-0.326179
C50	C	-0.380813	-0.978187	-0.502684
C51	C	-0.380792	-0.978203	-0.577916
C52	C	-0.380886	-0.154691	-0.326157
C53	C	-0.380881	-0.229923	-0.326147
C54	C	-0.330242	-1.021513	-0.613273
C55	C	-0.330219	-1.021520	-0.683962
C56	C	-0.380750	-0.978220	-0.719292
C57	C	-0.431303	-0.934905	-0.683930
C58	C	-0.431321	-0.934895	-0.613243
C59	C	-0.431229	-0.934943	-0.969004
C60	C	-0.431209	-0.934958	-1.039696
C61	C	-0.330127	-1.021568	-1.039722
C62	C	-0.330145	-1.021558	-0.969035
C63	C	-0.380694	-0.978241	-0.933679
C64	C	-0.380717	-0.978233	-0.857031
C65	C	-0.380732	-0.978230	-0.795939
C66	C	-0.380855	-0.978150	-0.150285
C67	C	-0.380654	-0.978265	-0.075054
H68	H	-0.472433	-0.592201	-0.247460
H69	H	-0.472478	-0.236443	-0.247478
H70	H	-0.472477	-0.899621	-0.584456
O71	O	-0.280905	-1.063608	-1.073993
C72	C	-0.146448	-1.096494	-1.095669
C73	C	-0.202098	-1.048852	-1.056807
H74	H	-0.082721	-1.084571	-1.081799
H75	H	-0.160280	-1.151075	-1.081766
H76	H	-0.155149	-1.089076	-1.152257
H77	H	-0.193428	-1.056210	-1.000210
H78	H	-0.188253	-0.994288	-1.070766
O79	O	-0.961732	-1.106837	-0.197542
C80	C	-0.986888	-1.139756	-0.082415
C81	C	-0.941558	-1.092127	-0.130066
H82	H	-0.970581	-1.127889	-0.027851
H83	H	-1.052998	-1.132363	-0.089755
H84	H	-0.970600	-1.194316	-0.094371
H85	H	-0.957779	-1.037548	-0.118139
H86	H	-0.875459	-1.099578	-0.122717
O87	O	-0.480400	-0.726076	-0.240737
C88	C	-0.587124	-0.805834	-0.231472
C89	C	-0.531585	-0.766950	-0.279145
H90	H	-0.628533	-0.838879	-0.262506
H91	H	-0.550818	-0.838965	-0.196143
H92	H	-0.623175	-0.768400	-0.200468
H93	H	-0.495523	-0.804335	-0.310192
H94	H	-0.567936	-0.733809	-0.314429
H95	H	-0.289057	-1.056788	-0.712746
O96	O	-0.675404	-0.892678	-0.411428
C97	C	-0.684137	-0.806796	-0.497255
C98	C	-0.729490	-0.854482	-0.449678
H99	H	-0.727846	-0.775913	-0.528203
H100	H	-0.645558	-0.771361	-0.466179
H101	H	-0.645423	-0.837851	-0.532640
H102	H	-0.768247	-0.823482	-0.414283
H103	H	-0.768020	-0.889919	-0.480795
O104	O	-0.281426	-0.370447	-0.411601
C105	C	-0.236633	-0.479368	-0.449996
C106	C	-0.292144	-0.440424	-0.402301
H107	H	-0.245267	-0.535951	-0.442484
H108	H	-0.250597	-0.465541	-0.504570
H109	H	-0.172889	-0.465436	-0.438211
H110	H	-0.355907	-0.454335	-0.414026
H111	H	-0.278111	-0.454255	-0.347742
O112	O	-0.281008	-1.063520	-0.934647
C113	C	-0.174263	-1.072628	-0.854902
C114	C	-0.229883	-1.025036	-0.893788
H115	H	-0.132903	-1.041533	-0.821870
H116	H	-0.210508	-1.107998	-0.821759
H117	H	-0.138164	-1.103593	-0.892335
H118	H	-0.265994	-0.994028	-0.856405
H119	H	-0.193593	-0.989711	-0.926942
H120	H	-0.955370	-0.856327	-0.447878
O121	O	-0.480320	-0.892826	-1.073912
C122	C	-0.580610	-0.806938	-1.066430
C123	C	-0.525023	-0.854601	-1.027596
H124	H	-0.616780	-0.776030	-1.029001
H125	H	-0.544339	-0.771525	-1.099506
H126	H	-0.621906	-0.838013	-1.099541
H127	H	-0.483717	-0.823580	-0.994449
H128	H	-0.561344	-0.890016	-0.994563
H129	H	-0.472444	-0.899647	-0.712702
H130	H	-0.805593	-0.856274	-0.447864
O131	O	-0.281384	-0.230886	-0.411570
C132	C	-0.236675	-0.122014	-0.450044
C133	C	-0.292207	-0.160896	-0.402364
H134	H	-0.245417	-0.065421	-0.442627
H135	H	-0.172902	-0.135871	-0.438252
H136	H	-0.250634	-0.135972	-0.504592
H137	H	-0.278319	-0.146959	-0.347800
H138	H	-0.355963	-0.147036	-0.414214
O139	O	-1.085684	-1.063687	-0.241009
C140	C	-1.178911	-1.155031	-0.231950
C141	C	-1.133482	-1.107383	-0.279512
H142	H	-1.217580	-1.190362	-0.263060
H143	H	-1.135280	-1.186027	-0.201033
H144	H	-1.217549	-1.123940	-0.196535
H145	H	-1.094843	-1.138422	-0.314968
H146	H	-1.177156	-1.076385	-0.310382
O147	O	-1.085791	-0.892891	-0.411374
C148	C	-1.212966	-0.854569	-0.449755
C149	C	-1.167517	-0.902201	-0.402199
H150	H	-1.279049	-0.862089	-0.442364
H151	H	-1.196844	-0.799978	-0.437815
H152	H	-1.196643	-0.866410	-0.504334
H153	H	-1.183815	-0.890421	-0.347605
H154	H	-1.183642	-0.956777	-0.414197
H155	H	-0.472401	-0.899682	-0.940225
O156	O	-0.799035	-1.106773	-0.197577
C157	C	-0.705842	-1.115915	-0.106225
C158	C	-0.751257	-1.068308	-0.153830
H159	H	-0.667190	-1.084836	-0.070853
H160	H	-0.749482	-1.146871	-0.075270
H161	H	-0.667189	-1.151290	-0.137346
H162	H	-0.789911	-1.032892	-0.122761
H163	H	-0.707574	-1.037399	-0.184787
O164	O	-0.480468	-0.370126	-0.240633
C165	C	-0.580579	-0.362605	-0.154586
C166	C	-0.525015	-0.323793	-0.202296
H167	H	-0.616598	-0.325161	-0.123568
H168	H	-0.622009	-0.395688	-0.185561
H169	H	-0.544217	-0.395706	-0.119273
H170	H	-0.561313	-0.290655	-0.237619
H171	H	-0.483583	-0.290752	-0.171279
O172	O	-0.281247	-0.725997	-0.411632
C173	C	-0.181136	-0.718583	-0.497680
C174	C	-0.236707	-0.679712	-0.449977
H175	H	-0.145123	-0.681178	-0.528704
H176	H	-0.139701	-0.751655	-0.466698
H177	H	-0.217491	-0.751702	-0.532988
H178	H	-0.200416	-0.646556	-0.414659
H179	H	-0.278145	-0.646683	-0.481000
H180	H	-0.289261	-0.592306	-0.404802
H181	H	-0.681743	-1.056707	-0.247684
H182	H	-0.289095	-1.056775	-0.584512
