data_functionalizedCrystal
_audit_creation_method	'MofGen! by Chris Wilmer'
_symmetry_space_group_name_H-M	'P1'
_symmetry_Int_Tables_number	1
_symmetry_cell_setting	triclinic
loop_
_symmetry_equiv_pos_as_xyz
  x,y,z
_cell_length_a	13.032891
_cell_length_b	13.032721
_cell_length_c	11.169409
_cell_angle_alpha	82.853997
_cell_angle_beta	97.195481
_cell_angle_gamma	90.903621
loop_
_atom_site_label
_atom_site_type_symbol
_atom_site_fract_x
_atom_site_fract_y
_atom_site_fract_z
Zn1	Zn	1.520314	-0.609272	0.988811
Zn2	Zn	2.020314	-0.109272	1.488811
Zn3	Zn	1.498342	-0.781265	0.809995
Zn4	Zn	1.998342	-0.281265	1.309995
Zn5	Zn	1.348315	-0.587461	0.759911
Zn6	Zn	1.848315	-0.087461	1.259911
Zn7	Zn	1.326463	-0.759322	0.982403
Zn8	Zn	1.826463	-0.259322	1.482403
O9	O	1.423358	-0.684330	0.885280
O10	O	1.923358	-0.184330	1.385280
O11	O	1.661314	-0.650398	0.988733
O12	O	2.161314	-0.150398	1.488733
O13	O	1.478390	-0.755613	0.635402
O14	O	1.978390	-0.255613	1.135402
O15	O	1.389471	-0.446450	0.771996
O16	O	1.889471	0.053550	1.271996
O17	O	1.645171	-0.776761	0.857357
O18	O	2.145171	-0.276761	1.357357
O19	O	1.515839	-0.462474	0.940168
O20	O	2.015839	0.037526	1.440168
O21	O	1.368166	-0.613226	0.598606
O22	O	1.868166	-0.113226	1.098606
O23	O	1.201502	-0.591948	0.765783
O24	O	1.701502	-0.091948	1.265783
O25	O	1.352228	-0.739361	1.151202
O26	O	1.852228	-0.239361	1.651202
O27	O	1.185447	-0.718213	0.929247
O28	O	1.685447	-0.218213	1.429247
O29	O	1.494649	-0.629120	1.155910
O30	O	1.994649	-0.129120	1.655910
O31	O	1.457201	-0.922259	0.851144
O32	O	1.957201	-0.422259	1.351144
O33	O	1.330922	-0.906137	0.977812
O34	O	1.830922	-0.406137	1.477812
C35	C	1.156159	-0.650333	0.841386
C36	C	1.656159	-0.150333	1.341386
C37	C	1.041846	-0.635814	0.822640
C38	C	1.541846	-0.135814	1.322640
C39	C	0.864806	-0.676907	0.875700
C40	C	1.364806	-0.176907	1.375700
C41	C	0.982953	-0.691919	0.895074
C42	C	1.482953	-0.191919	1.395074
C43	C	1.389334	-0.951514	0.919248
C44	C	1.889334	-0.451514	1.419248
C45	C	1.374872	-1.065828	0.933835
C46	C	1.874872	-0.565828	1.433835
C47	C	1.430961	-1.124743	0.877730
C48	C	1.930961	-0.624743	1.377730
C49	C	1.416015	-1.242893	0.892805
C50	C	1.916015	-0.742893	1.392805
C51	C	1.691601	-0.718460	0.929346
C52	C	2.191601	-0.218460	1.429346
C53	C	1.805910	-0.733005	0.948125
C54	C	2.305910	-0.233005	1.448125
C55	C	1.423452	-0.684226	1.198321
C56	C	1.923452	-0.184226	1.698321
C57	C	1.423492	-0.684181	1.331721
C58	C	1.923492	-0.184181	1.831721
C59	C	1.457544	-0.416106	0.851210
C60	C	1.957544	0.083894	1.351210
C61	C	1.472111	-0.301805	0.836692
C62	C	1.972111	0.198195	1.336692
C63	C	1.423334	-0.684367	0.573457
C64	C	1.923334	-0.184367	1.073457
C65	C	1.423530	-0.684147	0.440054
C66	C	1.923530	-0.184147	0.940054
H67	H	1.004808	-0.576664	0.746291
H68	H	1.504808	-0.076664	1.246291
Cl69	Cl	0.807621	-0.585588	0.757829
Cl70	Cl	1.307621	-0.085588	1.257829
H71	H	1.356931	-1.279920	0.952009
H72	H	1.856931	-0.779920	1.452009
Cl73	Cl	1.040135	-0.783229	1.012965
Cl74	Cl	1.540135	-0.283229	1.512965
H75	H	0.842956	-0.792140	1.024477
H76	H	1.342956	-0.292140	1.524477
Cl77	Cl	1.522191	-1.067579	0.786343
Cl78	Cl	2.022191	-0.567579	1.286343
H79	H	1.531203	-1.264780	0.777498
H80	H	2.031203	-0.764780	1.277498
H81	H	1.315793	-1.102860	0.993036
H82	H	1.815793	-0.602860	1.493036
