data_functionalizedCrystal
_audit_creation_method	'MofGen! by Chris Wilmer'
_symmetry_space_group_name_H-M	'P1'
_symmetry_Int_Tables_number	1
_symmetry_cell_setting	triclinic
loop_
_symmetry_equiv_pos_as_xyz
  x,y,z
_cell_length_a	18.050589
_cell_length_b	18.050591
_cell_length_c	17.077396
_cell_angle_alpha	89.971318
_cell_angle_beta	90.024642
_cell_angle_gamma	89.978696
loop_
_atom_site_label
_atom_site_type_symbol
_atom_site_fract_x
_atom_site_fract_y
_atom_site_fract_z
Zn1	Zn	-0.295796	-1.135327	0.444056
Zn2	Zn	0.037537	-0.801994	0.777389
Zn3	Zn	0.370870	-0.468660	1.110723
Zn4	Zn	-0.419994	-1.135227	0.312799
Zn5	Zn	-0.086660	-0.801894	0.646132
Zn6	Zn	0.246673	-0.468561	0.979465
Zn7	Zn	-0.295807	-1.011136	0.312783
Zn8	Zn	0.037526	-0.677803	0.646116
Zn9	Zn	0.370860	-0.344469	0.979449
Zn10	Zn	-0.419934	-1.011094	0.444001
Zn11	Zn	-0.086601	-0.677761	0.777335
Zn12	Zn	0.246733	-0.344427	1.110668
O13	O	-0.357883	-1.073196	0.378410
O14	O	-0.024549	-0.739863	0.711743
O15	O	0.308784	-0.406529	1.045076
O16	O	-0.312292	-1.239238	0.426674
O17	O	0.021041	-0.905905	0.760007
O18	O	0.354375	-0.572572	1.093340
O19	O	-0.403549	-1.118742	0.202950
O20	O	-0.070216	-0.785409	0.536283
O21	O	0.263117	-0.452076	0.869616
O22	O	-0.191881	-1.027669	0.330213
O23	O	0.141452	-0.694336	0.663546
O24	O	0.474786	-0.361003	0.996879
O25	O	-0.403539	-1.239165	0.330240
O26	O	-0.070206	-0.905832	0.663573
O27	O	0.263128	-0.572499	0.996906
O28	O	-0.191873	-1.118912	0.426658
O29	O	0.141460	-0.785579	0.759992
O30	O	0.474793	-0.452245	1.093325
O31	O	-0.312310	-1.027573	0.202938
O32	O	0.021023	-0.694240	0.536271
O33	O	0.354357	-0.360906	0.869605
O34	O	-0.312252	-0.907206	0.330160
O35	O	0.021081	-0.573872	0.663493
O36	O	0.354414	-0.240539	0.996826
O37	O	-0.403438	-1.027598	0.553855
O38	O	-0.070104	-0.694265	0.887189
O39	O	0.263229	-0.360931	1.220522
O40	O	-0.403448	-0.907175	0.426565
O41	O	-0.070115	-0.573842	0.759899
O42	O	0.263219	-0.240508	1.093232
O43	O	-0.312234	-1.118871	0.553896
O44	O	0.021099	-0.785538	0.887229
O45	O	0.354432	-0.452205	1.220562
O46	O	-0.523910	-1.118702	0.330187
O47	O	-0.190577	-0.785368	0.663520
O48	O	0.142756	-0.452035	0.996853
O49	O	-0.523867	-1.027502	0.426581
O50	O	-0.190533	-0.694168	0.759914
O51	O	0.142800	-0.360835	1.093247
C52	C	-0.357845	-0.880244	0.378355
C53	C	-0.024512	-0.546911	0.711689
C54	C	0.308821	-0.213577	1.045022
C55	C	-0.357847	-0.797698	0.378351
C56	C	-0.024514	-0.464365	0.711684
C57	C	0.308820	-0.131032	1.045017
C58	C	-0.308187	-0.598243	0.326035
C59	C	0.025146	-0.264909	0.659368
C60	C	0.358479	0.068424	0.992701
C61	C	-0.375923	-0.548822	0.306720
C62	C	-0.042589	-0.215488	0.640053
C63	C	0.290744	0.117845	0.973386
C64	C	-0.357862	-0.646568	0.378378
C65	C	-0.024529	-0.313234	0.711711
C66	C	0.308805	0.020099	1.045044
C67	C	-0.290143	-0.548907	0.397682
C68	C	0.043191	-0.215574	0.731015
C69	C	0.376524	0.117759	1.064349
C70	C	-0.357870	-0.500583	0.378402
C71	C	-0.024537	-0.167249	0.711735
C72	C	0.308796	0.166084	1.045069
C73	C	-0.425633	-0.598234	0.359025
C74	C	-0.092300	-0.264901	0.692359
C75	C	0.241034	0.068433	1.025692
C76	C	-0.339807	-0.598324	0.450021
C77	C	-0.006474	-0.264991	0.783354
C78	C	0.326859	0.068343	1.116688
C79	C	-0.407589	-0.548925	0.430733
C80	C	-0.074256	-0.215592	0.764067
C81	C	0.259077	0.117742	1.097400
C82	C	-0.357856	-0.730666	0.378361
C83	C	-0.024523	-0.397333	0.711695
C84	C	0.308810	-0.063999	1.045028
C85	C	-0.357884	-0.416486	0.378418
C86	C	-0.024550	-0.083153	0.711752
C87	C	0.308783	0.250180	1.045085
C88	C	-0.550835	-1.073106	0.378397
C89	C	-0.217502	-0.739773	0.711730
C90	C	0.115832	-0.406440	1.045063
C91	C	-0.633381	-1.073136	0.378417
C92	C	-0.300047	-0.739803	0.711751
C93	C	0.033286	-0.406469	1.045084
C94	C	-0.832835	-1.023590	0.430818
C95	C	-0.499501	-0.690257	0.764151
C96	C	-0.166168	-0.356923	1.097485
C97	C	-0.882274	-1.005487	0.359186
C98	C	-0.548941	-0.672153	0.692519
C99	C	-0.215607	-0.338820	1.025852
C100	C	-0.784511	-1.073209	0.378428
C101	C	-0.451178	-0.739876	0.711761
C102	C	-0.117844	-0.406542	1.045094
C103	C	-0.882153	-1.091349	0.450068
C104	C	-0.548820	-0.758016	0.783401
C105	C	-0.215487	-0.424682	1.116735
C106	C	-0.930496	-1.073278	0.378444
C107	C	-0.597163	-0.739945	0.711777
C108	C	-0.263829	-0.406611	1.045110
C109	C	-0.832863	-1.055070	0.306757
C110	C	-0.499530	-0.721737	0.640091
C111	C	-0.166197	-0.388403	0.973424
C112	C	-0.832738	-1.140964	0.397688
C113	C	-0.499405	-0.807630	0.731021
C114	C	-0.166072	-0.474297	1.064355
C115	C	-0.882155	-1.122886	0.326006
C116	C	-0.548822	-0.789553	0.659340
C117	C	-0.215489	-0.456219	0.992673
C118	C	-0.700413	-1.073167	0.378419
C119	C	-0.367079	-0.739834	0.711753
C120	C	-0.033746	-0.406501	1.045086
C121	C	-1.014593	-1.073320	0.378444
C122	C	-0.681259	-0.739987	0.711777
C123	C	-0.347926	-0.406653	1.045111
C124	C	-0.164177	-1.073306	0.378440
C125	C	0.169156	-0.739973	0.711773
C126	C	0.502489	-0.406640	1.045107
C127	C	-0.081631	-1.073353	0.378453
C128	C	0.251702	-0.740020	0.711786
C129	C	0.585035	-0.406687	1.045119
C130	C	-0.357828	-1.073241	0.583154
C131	C	-0.024495	-0.739908	0.916487
C132	C	0.308839	-0.406574	1.249821
C133	C	-0.357805	-1.073260	0.670404
C134	C	-0.024471	-0.739927	1.003737
C135	C	0.308862	-0.406594	1.337071
C136	C	-0.357908	-0.266902	0.378450
C137	C	-0.024575	0.066432	0.711784
C138	C	0.308758	0.399765	1.045117
C139	C	-0.357886	-0.349447	0.378431
C140	C	-0.024553	-0.016114	0.711765
C141	C	0.308780	0.317219	1.045098
C142	C	-0.357884	-1.073194	0.174462
C143	C	-0.024550	-0.739861	0.507795
C144	C	0.308783	-0.406527	0.841128
C145	C	-0.357698	-1.073319	0.087212
C146	C	-0.024365	-0.739986	0.420546
C147	C	0.308969	-0.406652	0.753879
C148	C	-0.310311	-1.120788	0.711416
C149	C	0.023022	-0.787455	1.044750
C150	C	0.356355	-0.454121	1.378083
C151	C	-0.310286	-1.120797	0.793397
C152	C	0.023047	-0.787464	1.126730
C153	C	0.356380	-0.454130	1.460063
C154	C	-0.357760	-1.073281	0.834363
C155	C	-0.024426	-0.739948	1.167697
C156	C	0.308907	-0.406615	1.501030
C157	C	-0.405255	-1.025748	0.793345
C158	C	-0.071922	-0.692415	1.126679
C159	C	0.261411	-0.359082	1.460012
C160	C	-0.405276	-1.025736	0.711366
C161	C	-0.071942	-0.692403	1.044700
C162	C	0.261391	-0.359069	1.378033
C163	C	-0.405211	-1.025778	0.964215
C164	C	-0.071877	-0.692445	1.297549
C165	C	0.261456	-0.359112	1.630882
C166	C	-0.405191	-1.025791	1.046200
C167	C	-0.071858	-0.692458	1.379533
C168	C	0.261475	-0.359124	1.712867
C169	C	-0.310221	-1.120839	1.046246
C170	C	0.023112	-0.787506	1.379579
C171	C	0.356445	-0.454172	1.712913
C172	C	-0.310242	-1.120827	0.964267
C173	C	0.023091	-0.787493	1.297600
C174	C	0.356425	-0.454160	1.630933
C175	C	-0.357739	-1.073295	0.923254
C176	C	-0.024405	-0.739961	1.256588
C177	C	0.308928	-0.406628	1.589921
H178	H	-0.266227	-0.619897	0.281726
H179	H	0.067106	-0.286564	0.615059
H180	H	0.400439	0.046770	0.948392
H181	H	-0.811178	-0.981567	0.475060
H182	H	-0.477845	-0.648234	0.808393
H183	H	-0.144511	-0.314901	1.141727
Br184	Br	-0.245885	-1.185283	0.655826
Br185	Br	0.087448	-0.851949	0.989160
Br186	Br	0.420781	-0.518616	1.322493
H187	H	-0.904049	-0.948221	0.342910
H188	H	-0.570716	-0.614888	0.676243
H189	H	-0.237382	-0.281554	1.009577
Br190	Br	-0.796932	-1.029437	0.205758
Br191	Br	-0.463598	-0.696103	0.539091
Br192	Br	-0.130265	-0.362770	0.872425
Br193	Br	-0.469613	-0.961298	1.101798
Br194	Br	-0.136279	-0.627964	1.435131
Br195	Br	0.197054	-0.294631	1.768465
H196	H	-0.271614	-1.159500	0.826785
H197	H	0.061719	-0.826167	1.160119
H198	H	0.395052	-0.492834	1.493452
Br199	Br	-0.469669	-0.961267	0.908556
Br200	Br	-0.136335	-0.627934	1.241889
Br201	Br	0.196998	-0.294600	1.575223
Br202	Br	-0.918023	-1.192877	0.252093
Br203	Br	-0.584690	-0.859544	0.585427
Br204	Br	-0.251357	-0.526211	0.918760
Br205	Br	-0.401392	-0.512581	0.205756
Br206	Br	-0.068059	-0.179248	0.539089
Br207	Br	0.265274	0.154085	0.872423
Br208	Br	-0.796446	-1.236390	0.424871
Br209	Br	-0.463112	-0.903057	0.758205
Br210	Br	-0.129779	-0.569724	1.091538
H211	H	-0.903805	-1.106664	0.510647
H212	H	-0.570471	-0.773331	0.843980
H213	H	-0.237138	-0.439997	1.177314
Br214	Br	-0.469680	-0.961257	0.848942
Br215	Br	-0.136346	-0.627924	1.182275
Br216	Br	0.196987	-0.294591	1.515609
Br217	Br	-0.245820	-1.185319	0.908669
Br218	Br	0.087513	-0.851986	1.242002
Br219	Br	0.420847	-0.518653	1.575336
H220	H	-0.482923	-0.619811	0.342641
H221	H	-0.149590	-0.286478	0.675974
H222	H	0.183744	0.046856	1.009307
Br223	Br	-0.245764	-1.185350	1.101904
Br224	Br	0.087569	-0.852017	1.435237
Br225	Br	0.420902	-0.518683	1.768571
Br226	Br	-0.469729	-0.961227	0.655705
Br227	Br	-0.136396	-0.627894	0.989039
Br228	Br	0.196937	-0.294560	1.322372
H229	H	-0.324507	-0.620084	0.510580
H230	H	0.008826	-0.286751	0.843913
H231	H	0.342160	0.046582	1.177246
Br232	Br	-0.194687	-0.512784	0.424877
Br233	Br	0.138646	-0.179451	0.758210
Br234	Br	0.471980	0.153883	1.091543
Br235	Br	-0.477688	-0.513057	0.504531
Br236	Br	-0.144355	-0.179724	0.837864
Br237	Br	0.188979	0.153609	1.171198
