data_functionalizedCrystal
_audit_creation_method	'MofGen! by Chris Wilmer'
_symmetry_space_group_name_H-M	'P1'
_symmetry_Int_Tables_number	1
_symmetry_cell_setting	triclinic
loop_
_symmetry_equiv_pos_as_xyz
  x,y,z
_cell_length_a	19.188930
_cell_length_b	17.666332
_cell_length_c	19.188930
_cell_angle_alpha	89.988397
_cell_angle_beta	96.855221
_cell_angle_gamma	90.023234
loop_
_atom_site_label
_atom_site_type_symbol
_atom_site_fract_x
_atom_site_fract_y
_atom_site_fract_z
O1	O	0.926150	0.063200	-0.087169
O2	O	1.426150	0.563200	0.412831
O3	O	0.722838	0.063149	-0.098903
O4	O	1.222838	0.563149	0.401097
O5	O	0.830361	0.063161	0.008620
O6	O	1.330361	0.563161	0.508620
O7	O	0.818627	0.063188	-0.194692
O8	O	1.318627	0.563188	0.305308
O9	O	0.830342	-0.062735	0.008625
O10	O	1.330342	0.437265	0.508625
O11	O	0.722820	-0.062747	-0.098897
O12	O	1.222820	0.437253	0.401103
O13	O	0.926131	-0.062697	-0.087163
O14	O	1.426131	0.437303	0.412837
Cu15	Cu	0.824473	-0.074217	-0.093030
Cu16	Cu	1.324473	0.425783	0.406970
Cu17	Cu	0.824496	0.074670	-0.093036
Cu18	Cu	1.324496	0.574670	0.406964
O19	O	0.818608	-0.062709	-0.194686
O20	O	1.318608	0.437291	0.305314
C21	C	0.696818	0.000194	-0.098520
C22	C	1.196818	0.500194	0.401480
C23	C	0.619313	0.000174	-0.097380
C24	C	1.119313	0.500174	0.402620
C25	C	0.574389	0.000194	-0.160470
C26	C	1.074389	0.500194	0.339530
C27	C	0.501566	0.000203	-0.159399
C28	C	1.001566	0.500203	0.340601
C29	C	0.473669	0.000206	-0.095233
C30	C	0.973669	0.500206	0.404767
C31	C	0.518603	0.000181	-0.032133
C32	C	1.018603	0.500181	0.467867
C33	C	0.591425	0.000166	-0.033207
C34	C	1.091425	0.500166	0.466793
N35	N	0.365695	0.043078	-0.046188
N36	N	0.865695	0.543078	0.453812
N37	N	0.296517	0.043095	-0.045172
N38	N	0.796517	0.543095	0.454828
C39	C	0.254260	0.000252	-0.091994
C40	C	0.754260	0.500252	0.408006
N41	N	0.283795	-0.042599	-0.139881
N42	N	0.783795	0.457401	0.360119
N43	N	0.352979	-0.042612	-0.140899
N44	N	0.852979	0.457388	0.359101
C45	C	0.394707	0.000222	-0.094062
C46	C	0.894707	0.500222	0.405938
C47	C	0.130372	0.000280	-0.153928
C48	C	0.630372	0.500280	0.346072
C49	C	0.057547	0.000283	-0.152853
C50	C	0.557547	0.500283	0.347147
C51	C	0.074586	0.000270	-0.025586
C52	C	0.574586	0.500270	0.474414
C53	C	0.147409	0.000258	-0.026662
C54	C	0.647409	0.500258	0.473338
C55	C	0.175298	0.000267	-0.090835
C56	C	0.675298	0.500267	0.409165
N57	N	0.824463	-0.178937	-0.093025
N58	N	1.324463	0.321063	0.406975
C59	C	0.872089	-0.218541	-0.045437
C60	C	1.372089	0.281459	0.454563
C61	C	0.872093	-0.297789	-0.045433
C62	C	1.372093	0.202211	0.454567
C63	C	0.824478	-0.337429	-0.093030
C64	C	1.324478	0.162571	0.406970
C65	C	0.776842	-0.297815	-0.140621
C66	C	1.276842	0.202185	0.359379
C67	C	0.776835	-0.218569	-0.140619
C68	C	1.276835	0.281431	0.359381
N69	N	0.815401	-0.461841	-0.154837
N70	N	1.315401	0.038159	0.345163
N71	N	0.815413	-0.537121	-0.154837
N72	N	1.315413	-0.037121	0.345163
C73	C	0.824496	-0.576193	-0.093040
C74	C	1.324496	-0.076193	0.406960
N75	N	0.833582	-0.537140	-0.031239
N76	N	1.333582	-0.037140	0.468761
N77	N	0.833574	-0.461853	-0.031240
N78	N	1.333574	0.038147	0.468760
C79	C	0.824480	-0.423358	-0.093038
C80	C	1.324480	0.076642	0.406962
C81	C	0.872130	-0.701727	-0.045444
C82	C	1.372130	-0.201727	0.454556
C83	C	0.872129	-0.780976	-0.045440
C84	C	1.372129	-0.280976	0.454560
C85	C	0.776881	-0.781000	-0.140634
C86	C	1.276881	-0.281000	0.359366
C87	C	0.776878	-0.701753	-0.140632
C88	C	1.276878	-0.201753	0.359368
C89	C	0.824506	-0.662121	-0.093038
C90	C	1.324506	-0.162121	0.406962
C91	C	0.952151	0.000260	-0.087546
C92	C	1.452151	0.500260	0.412454
C93	C	1.029656	0.000285	-0.088687
C94	C	1.529656	0.500285	0.411313
C95	C	0.829972	0.000211	0.034634
C96	C	1.329972	0.500211	0.534634
C97	C	0.828831	0.000204	0.112138
C98	C	1.328831	0.500204	0.612138
N99	N	0.824512	0.179390	-0.093036
N100	N	1.324512	0.679390	0.406964
C101	C	0.818997	0.000244	-0.220700
C102	C	1.318997	0.500244	0.279300
C103	C	0.820138	0.000255	-0.298204
C104	C	1.320138	0.500255	0.201796
C105	C	0.891922	0.000216	0.157062
C106	C	1.391922	0.500216	0.657062
C107	C	0.890850	0.000228	0.229886
C108	C	1.390850	0.500228	0.729886
C109	C	0.826684	0.000212	0.257782
C110	C	1.326684	0.500212	0.757782
C111	C	0.763585	0.000205	0.212849
C112	C	1.263585	0.500205	0.712849
C113	C	0.764658	0.000200	0.140026
C114	C	1.264658	0.500200	0.640026
N115	N	0.777630	-0.042645	0.365789
N116	N	1.277630	0.457355	0.865789
N117	N	0.776615	-0.042642	0.434968
N118	N	1.276615	0.457358	0.934968
C119	C	0.823446	0.000227	0.477191
C120	C	1.323446	0.500227	0.977191
N121	N	0.871341	0.043084	0.447624
N122	N	1.371341	0.543084	0.947624
N123	N	0.872359	0.043079	0.378439
N124	N	1.372359	0.543079	0.878439
C125	C	0.825513	0.000218	0.336745
C126	C	1.325513	0.500218	0.836745
C127	C	0.885379	0.000253	0.601079
C128	C	1.385379	0.500253	1.101079
C129	C	0.884305	0.000270	0.673904
C130	C	1.384305	0.500270	1.173904
C131	C	0.757038	0.000239	0.656865
C132	C	1.257038	0.500239	1.156865
C133	C	0.758114	0.000230	0.584042
C134	C	1.258114	0.500230	1.084042
C135	C	0.822287	0.000233	0.556154
C136	C	1.322287	0.500233	1.056154
H137	H	0.153080	0.000276	-0.206181
H138	H	0.653080	0.500276	0.293819
C139	C	0.682690	-0.289881	-0.234707
C140	C	1.182690	0.210119	0.265293
C141	C	0.724499	-0.341383	-0.192939
C142	C	1.224499	0.158617	0.307061
H143	H	0.650370	-0.316780	-0.267001
H144	H	1.150370	0.183220	0.232999
H145	H	0.711668	-0.258952	-0.259752
H146	H	1.211668	0.241048	0.240248
H147	H	0.657669	-0.258993	-0.205694
H148	H	1.157669	0.241007	0.294306
H149	H	0.749524	-0.372269	-0.221951
H150	H	1.249524	0.127731	0.278049
H151	H	0.695518	-0.372326	-0.167892
H152	H	1.195518	0.127674	0.332108
H153	H	0.738051	-0.186322	-0.179371
H154	H	1.238051	0.313678	0.320629
C155	C	0.655894	-0.805449	-0.181932
C156	C	1.155894	-0.305449	0.318068
C157	C	0.724538	-0.824564	-0.192952
C158	C	1.224538	-0.324564	0.307048
H159	H	0.623579	-0.832350	-0.214228
H160	H	1.123579	-0.332350	0.285772
H161	H	0.649080	-0.752591	-0.188745
H162	H	1.149080	-0.252591	0.311255
H163	H	0.648468	-0.818456	-0.135350
H164	H	1.148468	-0.318456	0.364650
H165	H	0.731966	-0.811551	-0.239533
H166	H	1.231966	-0.311551	0.260467
H167	H	0.731355	-0.877434	-0.186145
H168	H	1.231355	-0.377434	0.313855
H169	H	0.020970	0.000295	-0.204232
H170	H	0.520970	0.500295	0.295768
C171	C	0.649979	0.064914	0.547090
C172	C	1.149979	0.564914	1.047090
C173	C	0.688760	0.000205	0.534659
C174	C	1.188760	0.500205	1.034659
H175	H	0.607159	0.064896	0.516606
H176	H	1.107159	0.564896	1.016606
H177	H	0.676305	0.108814	0.538640
H178	H	1.176305	0.608814	1.038640
H179	H	0.640164	0.064907	0.594455
H180	H	1.140164	0.564907	1.094455
H181	H	0.698580	0.000215	0.487295
H182	H	1.198580	0.500215	0.987295
H183	H	0.662429	-0.043707	0.543103
H184	H	1.162429	0.456293	1.043103
C185	C	0.914489	-0.580234	-0.003250
C186	C	1.414489	-0.080234	0.496750
C187	C	0.924525	-0.658156	0.006824
C188	C	1.424525	-0.158156	0.506824
H189	H	0.946854	-0.553339	0.029001
H190	H	1.446854	-0.053339	0.529001
H191	H	0.867944	-0.567247	0.004270
H192	H	1.367944	-0.067247	0.504270
H193	H	0.921877	-0.567272	-0.049853
H194	H	1.421877	-0.067272	0.450147
H195	H	0.917132	-0.671119	0.053426
H196	H	1.417132	-0.171119	0.553426
H197	H	0.971082	-0.671149	-0.000691
H198	H	1.471082	-0.171149	0.499309
C199	C	0.966290	-0.772986	0.048639
C200	C	1.466290	-0.272986	0.548639
C201	C	0.924487	-0.824512	0.006870
C202	C	1.424487	-0.324512	0.506870
H203	H	0.998617	-0.799866	0.080929
H204	H	1.498617	-0.299866	0.580929
H205	H	0.937309	-0.742102	0.073688
H206	H	1.437309	-0.242102	0.573688
H207	H	0.991303	-0.742055	0.019625
H208	H	1.491303	-0.242055	0.519625
H209	H	0.899470	-0.855440	0.035884
H210	H	1.399470	-0.355440	0.535884
H211	H	0.953472	-0.855410	-0.018180
H212	H	1.453472	-0.355410	0.481820
H213	H	0.910869	-0.186275	-0.006681
H214	H	1.410869	0.313725	0.493319
C215	C	0.654767	-0.064536	0.220757
C216	C	1.154767	0.435464	0.720757
C217	C	0.693050	0.000188	0.243507
C218	C	1.193050	0.500188	0.743507
H219	H	0.611219	-0.064539	0.239680
H220	H	1.111219	0.435461	0.739680
H221	H	0.680726	-0.108426	0.236204
H222	H	1.180726	0.391574	0.736204
H223	H	0.646383	-0.064531	0.170956
H224	H	1.146383	0.435469	0.670956
H225	H	0.701439	0.000180	0.293308
H226	H	1.201439	0.500180	0.793308
H227	H	0.667086	0.044089	0.228063
H228	H	1.167086	0.544089	0.728063
H229	H	0.464982	0.000217	-0.210776
H230	H	0.964982	0.500217	0.289224
H231	H	0.713281	0.000190	0.103448
H232	H	1.213281	0.500190	0.603448
C233	C	0.628402	0.064870	0.074931
C234	C	1.128402	0.564870	0.574931
C235	C	0.640812	0.000152	0.036147
C236	C	1.140812	0.500152	0.536147
H237	H	0.658896	0.064864	0.117745
H238	H	1.158896	0.564864	0.617745
H239	H	0.581047	0.064870	0.084754
H240	H	1.081047	0.564870	0.584754
H241	H	0.636860	0.108769	0.048599
H242	H	1.136860	0.608769	0.548599
H243	H	0.632349	-0.043747	0.062477
H244	H	1.132349	0.456253	0.562477
H245	H	0.688179	0.000145	0.026326
H246	H	1.188179	0.500145	0.526326
C247	C	0.735512	-0.677346	-0.261606
C248	C	1.235512	-0.177346	0.238394
C249	C	0.724533	-0.658215	-0.192952
C250	C	1.224533	-0.158215	0.307048
H251	H	0.703196	-0.650464	-0.293906
H252	H	1.203196	-0.150464	0.206094
H253	H	0.728699	-0.730208	-0.268413
H254	H	1.228699	-0.230208	0.231587
H255	H	0.782085	-0.664327	-0.269063
H256	H	1.282085	-0.164327	0.230937
H257	H	0.677961	-0.671239	-0.185493
H258	H	1.177961	-0.171239	0.314507
H259	H	0.731340	-0.605341	-0.186142
H260	H	1.231340	-0.105341	0.313858
H261	H	0.495885	0.000194	0.020111
H262	H	0.995885	0.500194	0.520111
H263	H	0.942228	0.000241	0.266470
H264	H	1.442228	0.500241	0.766470
C265	C	1.011068	0.000303	0.625233
C266	C	1.511068	0.500303	1.125233
C267	C	0.955915	0.000275	0.570419
C268	C	1.455915	0.500275	1.070419
H269	H	1.054613	0.000324	0.606304
H270	H	1.554613	0.500324	1.106304
H271	H	1.008002	-0.043597	0.653290
H272	H	1.508002	0.456403	1.153290
H273	H	1.007998	0.044209	0.653273
H274	H	1.507998	0.544209	1.153273
H275	H	0.958983	-0.043634	0.542382
H276	H	1.458983	0.456366	1.042382
H277	H	0.958983	0.044180	0.542349
H278	H	1.458983	0.544180	1.042349
C279	C	0.950081	0.000225	0.053001
C280	C	1.450081	0.500225	0.553001
C281	C	0.962459	0.000231	0.126407
C282	C	1.462459	0.500231	0.626407
H283	H	0.993629	0.000231	0.034076
H284	H	1.493629	0.500231	0.534076
H285	H	0.924124	0.044118	0.037563
H286	H	1.424124	0.544118	0.537563
H287	H	0.924106	-0.043688	0.037580
H288	H	1.424106	0.456312	0.537580
H289	H	0.988430	0.044147	0.141828
H290	H	1.488430	0.544147	0.641828
H291	H	0.988428	-0.043667	0.141851
H292	H	1.488428	0.456333	0.641851
C293	C	0.156934	0.000255	0.099239
C294	C	0.656934	0.500255	0.599239
C295	C	0.196795	0.000248	0.042690
C296	C	0.696795	0.500248	0.542690
H297	H	0.187424	0.000252	0.142055
H298	H	0.687424	0.500252	0.642055
H299	H	0.128155	-0.043639	0.097015
H300	H	0.628155	0.456361	0.597015
H301	H	0.128197	0.044167	0.097002
H302	H	0.628197	0.544167	0.597002
H303	H	0.225528	-0.043667	0.044924
H304	H	0.725528	0.456333	0.544924
H305	H	0.225586	0.044147	0.044915
H306	H	0.725586	0.544147	0.544915
C307	C	0.966245	-0.289813	0.048658
C308	C	1.466245	0.210187	0.548658
C309	C	0.924446	-0.341334	0.006881
C310	C	1.424446	0.158666	0.506881
H311	H	0.998566	-0.316696	0.080952
H312	H	1.498566	0.183304	0.580952
H313	H	0.937261	-0.258927	0.073702
H314	H	1.437261	0.241073	0.573702
H315	H	0.991266	-0.258882	0.019651
H316	H	1.491266	0.241118	0.519651
H317	H	0.899421	-0.372262	0.035888
H318	H	1.399421	0.127738	0.535888
H319	H	0.953434	-0.372233	-0.018165
H320	H	1.453434	0.127767	0.481835
H321	H	0.935683	0.000284	0.710481
H322	H	1.435683	0.500284	1.210481
H323	H	0.051874	0.000319	0.026659
H324	H	0.551874	0.500319	0.526659
C325	C	0.550227	0.000207	-0.286159
C326	C	1.050227	0.500207	0.213841
C327	C	0.605043	0.000191	-0.231008
C328	C	1.105043	0.500191	0.268992
H329	H	0.569154	0.000199	-0.329705
H330	H	1.069154	0.500199	0.170295
H331	H	0.522207	0.044115	-0.283096
H332	H	1.022207	0.544115	0.216904
H333	H	0.522151	-0.043692	-0.283084
H334	H	1.022151	0.456308	0.216916
H335	H	0.633116	0.044093	-0.234080
H336	H	1.133116	0.544093	0.265920
H337	H	0.633076	-0.043721	-0.234072
H338	H	1.133076	0.456279	0.265928
C339	C	0.648221	-0.064503	0.664775
C340	C	1.148221	0.435497	1.164775
C341	C	0.686503	0.000224	0.687520
C342	C	1.186503	0.500224	1.187520
H343	H	0.604674	-0.064506	0.683699
H344	H	1.104674	0.435494	1.183699
H345	H	0.674182	-0.108391	0.680224
H346	H	1.174182	0.391609	1.180224
H347	H	0.639836	-0.064502	0.614974
H348	H	1.139836	0.435498	1.114974
H349	H	0.694893	0.000220	0.737320
H350	H	1.194893	0.500220	1.237320
H351	H	0.660537	0.044123	0.672074
H352	H	1.160537	0.544123	1.172074
