data_functionalizedCrystal
_audit_creation_method	'MofGen! by Chris Wilmer'
_symmetry_space_group_name_H-M	'P1'
_symmetry_Int_Tables_number	1
_symmetry_cell_setting	triclinic
loop_
_symmetry_equiv_pos_as_xyz
  x,y,z
_cell_length_a	10.908878
_cell_length_b	10.908890
_cell_length_c	10.065875
_cell_angle_alpha	83.411698
_cell_angle_beta	96.581428
_cell_angle_gamma	60.084440
loop_
_atom_site_label
_atom_site_type_symbol
_atom_site_fract_x
_atom_site_fract_y
_atom_site_fract_z
O1	O	-1.772175	0.231765	-0.113498
O2	O	-1.375871	0.126694	-0.113492
O3	O	-1.626563	0.377385	-0.113514
O4	O	-1.521483	-0.018926	-0.113476
O5	O	-1.578665	0.329483	0.113479
O6	O	-1.327973	0.078793	0.113501
O7	O	-1.724277	0.183864	0.113495
Zn8	Zn	-1.518520	0.123723	0.149538
Zn9	Zn	-1.581628	0.186835	-0.149535
O10	O	-1.473585	-0.066827	0.113516
C11	C	-1.301984	0.092924	0.000005
C12	C	-1.153186	0.063682	0.000006
C13	C	-1.612435	0.403374	-0.000025
C14	C	-1.641683	0.552177	-0.000048
C15	C	-1.798165	0.217634	-0.000005
C16	C	-1.946965	0.246879	-0.000015
C17	C	-1.126966	0.170383	-0.000005
C18	C	-0.973177	0.140162	-0.000004
C19	C	-1.534986	0.578401	-0.000055
C20	C	-1.565213	0.732196	-0.000079
N21	N	-1.475461	0.080654	0.353647
C22	C	-1.487722	0.907191	-0.000007
C23	C	-1.458501	0.758412	-0.000086
N24	N	-1.624700	0.229917	-0.353644
C25	C	-1.533522	0.138714	0.578585
C26	C	-1.566653	0.171870	0.421415
H27	H	-0.881773	0.026431	0.000000
H28	H	-1.372861	-0.021977	0.411977
C29	C	-1.763846	0.822842	0.116599
C30	C	-1.718751	0.855579	-0.000093
H31	H	-1.858628	0.899020	0.116591
H32	H	-1.763679	0.735691	0.116601
H33	H	-1.699822	0.811639	0.195746
H34	H	-1.782769	0.866772	-0.079240
H35	H	-1.718928	0.942755	-0.000107
H36	H	-1.430928	0.036089	0.636918
C37	C	-1.889550	0.692048	-0.116748
C38	C	-1.795216	0.675557	-0.000064
H39	H	-1.984338	0.768211	-0.116750
H40	H	-1.858941	0.714247	-0.195891
H41	H	-1.889364	0.604872	-0.116720
H42	H	-1.795395	0.762730	-0.000096
H43	H	-1.825835	0.653366	0.079100
H44	H	-1.727285	0.332549	0.588021
C45	C	-1.378816	0.324132	-0.000009
C46	C	-1.250350	0.323912	-0.000014
H47	H	-1.454982	0.418916	-0.000006
H48	H	-1.401006	0.293535	-0.079159
H49	H	-1.367588	0.260108	0.079156
H50	H	-1.261574	0.387929	-0.079185
H51	H	-1.228156	0.354528	0.079144
C52	C	-1.016690	0.493298	-0.000042
C53	C	-1.070344	0.400419	-0.000030
H54	H	-1.092863	0.588086	-0.000060
H55	H	-0.943725	0.460709	0.079113
H56	H	-0.977118	0.494105	-0.079203
H57	H	-1.109907	0.399604	0.079136
H58	H	-1.143335	0.433017	-0.079193
C59	C	-0.971485	-0.088606	-0.116669
C60	C	-1.029800	-0.089847	0.000017
H61	H	-0.895308	-0.183390	-0.116655
H62	H	-1.044463	-0.056028	-0.195811
H63	H	-0.935113	-0.025573	-0.116662
H64	H	-1.066182	-0.152873	0.000005
H65	H	-0.956809	-0.122444	0.079180
C66	C	-1.288577	0.508674	-0.000054
C67	C	-1.381455	0.455019	-0.000042
H68	H	-1.193791	0.432500	-0.000039
H69	H	-1.321168	0.581639	-0.079215
H70	H	-1.287769	0.548248	0.079101
H71	H	-1.382271	0.415454	-0.079203
H72	H	-1.348856	0.382028	0.079127
C73	C	-1.704475	0.430907	0.377258
C74	C	-1.705151	0.310471	0.342748
H75	H	-1.789973	0.516483	0.328704
H76	H	-1.700329	0.426724	0.472551
H77	H	-1.622674	0.431203	0.353899
H78	H	-1.786948	0.310169	0.366116
H79	H	-1.709312	0.314655	0.247434
H80	H	-1.344765	0.667007	-0.000064
