data_functionalizedCrystal
_audit_creation_method	'MofGen! by Chris Wilmer'
_symmetry_space_group_name_H-M	'P1'
_symmetry_Int_Tables_number	1
_symmetry_cell_setting	triclinic
loop_
_symmetry_equiv_pos_as_xyz
  x,y,z
_cell_length_a	16.120530
_cell_length_b	13.897448
_cell_length_c	16.120297
_cell_angle_alpha	87.126532
_cell_angle_beta	90.128140
_cell_angle_gamma	92.886725
loop_
_atom_site_label
_atom_site_type_symbol
_atom_site_fract_x
_atom_site_fract_y
_atom_site_fract_z
Zn1	Zn	1.247483	0.488690	-0.534571
Zn2	Zn	1.747483	0.988690	-0.034571
Zn3	Zn	1.254447	0.642247	-0.395515
Zn4	Zn	1.754447	1.142247	0.104485
Zn5	Zn	1.115472	0.472390	-0.388489
Zn6	Zn	1.615472	0.972390	0.111511
Zn7	Zn	1.108403	0.641358	-0.527485
Zn8	Zn	1.608403	1.141358	-0.027485
O9	O	1.181451	0.561171	-0.461515
O10	O	1.681451	1.061171	0.038485
O11	O	1.364774	0.516253	-0.522031
O12	O	1.864774	1.016253	-0.022031
O13	O	1.241884	0.613265	-0.278218
O14	O	1.741884	1.113265	0.221782
O15	O	1.133027	0.339575	-0.407892
O16	O	1.633027	0.839575	0.092108
O17	O	1.369890	0.629070	-0.419868
O18	O	1.869890	1.129070	0.080132
O19	O	1.230015	0.351550	-0.515218
O20	O	1.730015	0.851550	-0.015218
O21	O	1.139780	0.488472	-0.273055
O22	O	1.639780	0.988472	0.226945
O23	O	0.998167	0.487611	-0.401021
O24	O	1.498167	0.987611	0.098979
O25	O	1.120980	0.627556	-0.644790
O26	O	1.620980	1.127556	-0.144790
O27	O	0.992974	0.611751	-0.503140
O28	O	1.492974	1.111751	-0.003140
O29	O	1.223161	0.515392	-0.649997
O30	O	1.723161	1.015392	-0.149997
O31	O	1.235030	0.777106	-0.412996
O32	O	1.735030	1.277106	0.087004
O33	O	1.127733	0.776454	-0.509954
O34	O	1.627733	1.276454	-0.009954
C35	C	0.965398	0.547817	-0.450550
C36	C	1.465398	1.047817	0.049450
C37	C	0.872968	0.542128	-0.445878
C38	C	1.372968	1.042128	0.054122
C39	C	1.181392	0.811781	-0.461488
C40	C	1.681392	1.311781	0.038512
C41	C	1.181441	0.918999	-0.461508
C42	C	1.681441	1.418999	0.038492
C43	C	1.170505	0.573193	-0.678409
C44	C	1.670505	1.073193	-0.178409
C45	C	1.165840	0.578316	-0.770837
C46	C	1.665840	1.078316	-0.270837
C47	C	0.703738	0.531719	-0.437357
C48	C	1.203738	1.031719	0.062643
C49	C	0.660002	0.590698	-0.485734
C50	C	1.160002	1.090698	0.014266
C51	C	0.565836	0.584907	-0.480993
C52	C	1.065836	1.084907	0.019007
C53	C	0.797912	0.537509	-0.442097
C54	C	1.297912	1.037509	0.057903
C55	C	1.398348	0.574579	-0.472524
C56	C	1.898348	1.074579	0.027476
C57	C	1.490777	0.580293	-0.477215
C58	C	1.990777	1.080293	0.022785
C59	C	1.181533	0.309586	-0.461562
C60	C	1.681533	0.809586	0.038438
C61	C	1.181567	0.202375	-0.461581
C62	C	1.681567	0.702375	0.038419
C63	C	1.181526	1.115302	-0.461564
C64	C	1.681526	1.615302	0.038436
C65	C	1.181476	1.006065	-0.461535
C66	C	1.681476	1.506065	0.038465
C67	C	1.157294	0.587646	-0.940062
C68	C	1.657294	1.087646	-0.440062
C69	C	1.205773	0.534418	-0.983829
C70	C	1.705773	1.034418	-0.483829
C71	C	1.201017	0.539609	-1.077991
C72	C	1.701017	1.039609	-0.577991
C73	C	1.162048	0.582456	-0.845890
C74	C	1.662048	1.082456	-0.345890
C75	C	1.192403	0.549130	-0.245467
C76	C	1.692403	1.049130	0.254533
C77	C	1.197228	0.543745	-0.153048
C78	C	1.697228	1.043745	0.346952
H79	H	0.693279	0.645540	-0.530713
H80	H	1.193279	1.145540	-0.030713
H81	H	1.250848	0.484948	-0.950580
H82	H	1.750848	0.984948	-0.450580
H83	H	0.670463	0.476881	-0.392381
H84	H	1.170463	0.976881	0.107619
C85	C	1.096411	0.654479	-0.984971
C86	C	1.596411	1.154479	-0.484971
H87	H	1.101172	0.649249	-1.043285
H88	H	1.601172	1.149249	-0.543285
H89	H	1.041243	0.636154	-0.967949
H90	H	1.541243	1.136154	-0.467949
H91	H	1.109275	0.719276	-0.971403
H92	H	1.609275	1.219276	-0.471403
