data_functionalizedCrystal
_audit_creation_method	'MofGen! by Chris Wilmer'
_symmetry_space_group_name_H-M	'P1'
_symmetry_Int_Tables_number	1
_symmetry_cell_setting	triclinic
loop_
_symmetry_equiv_pos_as_xyz
  x,y,z
_cell_length_a	14.395555
_cell_length_b	14.395555
_cell_length_c	14.809374
_cell_angle_alpha	67.422363
_cell_angle_beta	90.002017
_cell_angle_gamma	60.000146
loop_
_atom_site_label
_atom_site_type_symbol
_atom_site_fract_x
_atom_site_fract_y
_atom_site_fract_z
Zr1	Zr	0.907122	0.992362	-0.107963
O2	O	0.773658	1.156436	-0.239311
O3	O	0.948037	0.807672	-0.067688
O4	O	0.967460	0.962626	-0.239289
O5	O	0.738913	1.032126	0.067641
O6	O	1.120333	0.962621	-0.239282
O7	O	0.754235	1.001482	-0.067710
O8	O	1.085589	0.685436	0.067681
O9	O	0.773658	1.309311	-0.239322
O10	O	1.079573	0.891269	-0.050517
O11	O	0.954051	0.914143	0.050489
O12	O	0.976919	1.096581	-0.151549
O13	O	0.851397	1.119455	-0.050543
Zr14	Zr	1.126501	1.041228	0.107919
Zr15	Zr	1.150938	0.992353	-0.107951
Zr16	Zr	0.882685	1.041236	0.107907
Zr17	Zr	0.907121	1.236180	-0.107979
Zr18	Zr	1.126502	0.797410	0.107936
O19	O	1.085586	1.225918	0.067644
O20	O	1.120332	1.156424	-0.239295
O21	O	0.738912	1.225929	0.067628
O22	O	1.259965	0.877154	0.239268
O23	O	1.294711	0.807660	-0.067672
O24	O	0.913291	0.877166	0.239251
O25	O	1.294710	1.001463	-0.067685
O26	O	1.066163	1.070963	0.239245
O27	O	0.913290	1.070969	0.239238
O28	O	1.279388	1.032108	0.067667
O29	O	0.967458	1.309304	-0.239313
O30	O	1.066165	0.724285	0.239269
O31	O	1.259966	0.724278	0.239278
O32	O	1.279390	0.685430	0.067690
O33	O	0.754233	1.348160	-0.067734
O34	O	0.948034	1.348153	-0.067725
O35	O	1.056704	0.937008	0.151506
O36	O	1.182226	0.914135	0.050500
O37	O	1.079572	1.119447	-0.050533
O38	O	0.954050	1.142321	0.050473
C39	C	1.016813	0.711815	-0.000001
C40	C	1.016814	0.608308	0.000006
C41	C	0.948362	0.498300	0.055045
C42	C	1.051118	0.493062	0.094999
C43	C	0.914073	0.614895	-0.039902
C44	C	1.119622	0.418630	0.039959
C45	C	0.982506	0.540514	-0.094994
C46	C	1.085329	0.535224	-0.055064
C47	C	0.711836	1.016805	-0.000036
C48	C	0.608330	1.016809	-0.000041
C49	C	0.491768	1.128756	-0.055120
C50	C	0.465451	1.057524	-0.095025
C51	C	0.450225	1.088034	0.039857
C52	C	0.583382	0.945564	-0.040002
C53	C	0.568147	0.976103	0.094933
C54	C	0.541900	0.904786	0.055051
C55	C	1.321787	1.016784	-0.000008
C56	C	1.425293	1.016781	-0.000003
C57	C	1.047378	0.955660	-0.270042
C58	C	1.057752	0.934911	-0.361685
C59	C	1.016810	1.321774	-0.000043
C60	C	1.016809	1.425282	-0.000050
C61	C	1.011454	1.027510	-0.452661
C62	C	1.022175	1.006067	-0.547379
C63	C	0.986245	1.077930	0.269999
C64	C	0.975871	1.098678	0.361641
C65	C	1.321789	0.711805	0.000013
C66	C	1.425295	0.608294	0.000025
C67	C	0.986246	0.772950	0.270019
C68	C	0.975873	0.690191	0.361669
C69	C	1.291222	0.772940	0.270034
C70	C	1.384354	0.690177	0.361688
C71	C	0.742401	1.260650	-0.270078
C72	C	0.649269	1.343412	-0.361732
C73	C	0.711834	1.321785	-0.000057
C74	C	0.608328	1.425296	-0.000069
C75	C	1.047377	1.260639	-0.270063
C76	C	1.057750	1.343398	-0.361713
C77	C	1.024584	0.663265	0.457447
C78	C	1.014832	0.585520	0.543570
C79	C	0.956374	0.534696	0.533912
C80	C	0.907657	0.561630	0.438124
C81	C	0.917403	0.639380	0.352003
C82	C	1.493622	0.639372	0.352006
C83	C	1.581140	0.561619	0.438117
C84	C	1.559388	0.534668	0.533909
C85	C	1.450109	0.585483	0.543589
C86	C	1.362594	0.663240	0.457479
C87	C	0.540001	1.394230	-0.352050
C88	C	0.452483	1.472012	-0.438161
C89	C	0.474235	1.498969	-0.533953
C90	C	0.583514	1.448148	-0.543633
C91	C	0.671029	1.370373	-0.457523
C92	C	1.116216	1.394198	-0.352023
C93	C	1.125984	1.471948	-0.438129
C94	C	1.077280	1.498902	-0.533924
C95	C	1.018812	1.448093	-0.543612
C96	C	1.009051	1.370338	-0.457507
C97	C	1.541859	0.560194	0.055081
C98	C	1.568205	0.431111	0.094982
C99	C	1.583379	0.552983	-0.039911
C100	C	1.450272	0.480524	0.039982
C101	C	1.465455	0.602457	-0.094963
C102	C	1.491731	0.473379	-0.055086
H103	H	1.080162	0.473976	0.175326
C104	C	0.668086	1.372205	-0.660005
C105	C	0.607333	1.477706	-0.648964
H106	H	0.682769	1.390431	-0.725041
H107	H	0.626815	1.335976	-0.652309
H108	H	0.735887	1.318664	-0.610160
H109	H	0.539527	1.531244	-0.698805
H110	H	0.648603	1.513952	-0.656670
C111	C	0.562410	1.400046	-0.194032
C112	C	0.516080	1.364615	-0.246758
H113	H	0.547641	1.381763	-0.129029
H114	H	0.531001	1.483755	-0.229823
H115	H	0.640014	1.358632	-0.187471
H116	H	0.438474	1.406036	-0.253325
H117	H	0.547485	1.280891	-0.210958
H118	H	0.877739	0.661291	0.274020
H119	H	1.054509	0.563601	0.621557
C120	C	0.851044	1.531146	-0.660048
C121	C	0.965273	1.477728	-0.648914
H122	H	0.817991	1.549438	-0.725056
H123	H	0.820798	1.602661	-0.652492
H124	H	0.836875	1.477555	-0.610153
H125	H	0.979442	1.531324	-0.698804
H126	H	0.995529	1.406204	-0.656479
C127	C	0.809636	1.405525	-0.520949
C128	C	0.791132	1.314520	-0.468192
H129	H	0.883778	1.371048	-0.527550
H130	H	0.797088	1.451531	-0.485157
H131	H	0.760600	1.455701	-0.585929
H132	H	0.840162	1.264349	-0.403210
H133	H	0.803691	1.268494	-0.503983
H134	H	0.827187	0.698869	-0.073631
H135	H	1.173591	1.513311	-0.430221
H136	H	0.963885	1.122661	-0.460426
C137	C	1.472547	0.591272	0.701619
C138	C	1.426220	0.555837	0.648893
H139	H	1.457807	0.572955	0.766633
H140	H	1.441111	0.674987	0.665843
H141	H	1.550146	0.549887	0.708153
H142	H	1.348619	0.597229	0.642353
H143	H	1.457652	0.472107	0.684678
C144	C	1.223148	1.425588	-0.256430
C145	C	1.169766	1.364576	-0.246731
H146	H	1.256219	1.407293	-0.191428
H147	H	1.170849	1.509298	-0.292212
H148	H	1.278595	1.401532	-0.292215
H149	H	1.114314	1.388638	-0.210952
H150	H	1.222070	1.280848	-0.210933
C151	C	0.331773	1.487743	-0.325238
C152	C	0.332371	1.527852	-0.427504
H153	H	0.257623	1.522209	-0.318660
H154	H	0.368632	1.510787	-0.293844
H155	H	0.368645	1.403029	-0.293859
H156	H	0.295506	1.612566	-0.458881
H157	H	0.295497	1.504816	-0.458911
H158	H	0.961439	1.328984	-0.465411
H159	H	1.085235	1.562217	-0.604029
H160	H	1.562019	0.597827	0.101730
H161	H	1.612656	0.357645	0.175280
C162	C	1.276246	0.538253	0.085349
C163	C	1.373116	0.440336	0.085676
H164	H	1.228620	0.513440	0.113569
H165	H	1.240158	0.598792	0.018092
H166	H	1.294266	0.568922	0.124182
H167	H	1.355097	0.409673	0.046837
H168	H	1.409210	0.379777	0.152945
H169	H	0.392901	1.148278	0.073584
C170	C	1.471157	0.633531	0.194014
C171	C	1.517493	0.668998	0.246695
H172	H	1.485890	0.651818	0.128997
H173	H	1.393569	0.674909	0.187491
H174	H	1.502603	0.549807	0.229820
H175	H	1.486041	0.752724	0.210893
H176	H	1.595096	0.627622	0.253213
C177	C	1.084482	0.881223	-0.632738
C178	C	1.086404	0.877603	-0.536876
H179	H	1.124128	0.801915	-0.626252
H180	H	1.117874	0.922118	-0.668549
H181	H	1.010138	0.922076	-0.668419
H182	H	1.160748	0.836758	-0.501197
H183	H	1.053015	0.836691	-0.501050
C184	C	1.474004	0.740786	-0.244982
C185	C	1.405438	0.701681	-0.203335
H186	H	1.436950	0.802053	-0.311886
H187	H	1.540147	0.675594	-0.245755
H188	H	1.491401	0.771251	-0.205557
H189	H	1.388048	0.671207	-0.242757
H190	H	1.339275	0.766885	-0.202569
H191	H	0.953456	0.559546	-0.175295
C192	C	1.688102	0.637069	-0.027638
C193	C	1.660734	0.592926	-0.085466
H194	H	1.735855	0.661732	-0.055760
H195	H	1.724320	0.576012	0.039425
H196	H	1.622691	0.703416	-0.027377
H197	H	1.726145	0.526574	-0.085721
H198	H	1.624518	0.653989	-0.152547
H199	H	0.948447	0.471389	0.604046
H200	H	0.402964	1.562299	-0.604061
H201	H	0.890557	0.481601	0.101668
H202	H	1.206538	0.334716	0.073784
H203	H	0.928295	1.193837	-0.646132
H204	H	1.670113	0.520251	0.430217
C205	C	0.378052	1.221220	-0.260995
C206	C	0.405466	1.103963	-0.203426
H207	H	0.341013	1.249894	-0.327915
H208	H	0.443512	1.222245	-0.261843
H209	H	0.331021	1.271046	-0.232276
H210	H	0.452504	1.054134	-0.232141
H211	H	0.339995	1.102929	-0.202582
C212	C	0.757441	0.865089	-0.085311
C213	C	0.660573	0.864296	-0.085665
H214	H	0.805090	0.814925	-0.113508
H215	H	0.793502	0.836430	-0.018049
H216	H	0.739424	0.944450	-0.124152
H217	H	0.678589	0.784936	-0.046818
H218	H	0.624506	0.892950	-0.152939
H219	H	1.143287	0.551649	-0.101620
C220	C	0.559539	1.004496	0.244943
C221	C	0.628132	0.929716	0.203313
H222	H	0.596573	0.975867	0.311852
H223	H	0.493397	1.004832	0.245699
H224	H	0.542143	1.083501	0.205518
H225	H	0.645522	0.850712	0.242734
H226	H	0.694294	0.929367	0.202564
H227	H	0.471604	1.223401	-0.101769
H228	H	0.562285	0.810040	0.101635
H229	H	1.105330	0.839760	-0.353920
H230	H	1.072185	0.704639	0.465330
H231	H	1.471347	0.435815	-0.101669
H232	H	0.860061	0.520238	0.430275
H233	H	1.630659	0.471351	0.604017
H234	H	1.273625	0.704597	0.465377
