data_functionalizedCrystal
_audit_creation_method	'MofGen! by Chris Wilmer'
_symmetry_space_group_name_H-M	'P1'
_symmetry_Int_Tables_number	1
_symmetry_cell_setting	triclinic
loop_
_symmetry_equiv_pos_as_xyz
  x,y,z
_cell_length_a	14.971507
_cell_length_b	16.176319
_cell_length_c	17.699104
_cell_angle_alpha	90.007741
_cell_angle_beta	96.542910
_cell_angle_gamma	89.991477
loop_
_atom_site_label
_atom_site_type_symbol
_atom_site_fract_x
_atom_site_fract_y
_atom_site_fract_z
O1	O	-1.186606	0.068770	0.098708
O2	O	-0.926169	0.068767	0.110503
O3	O	-1.063736	0.068761	-0.005564
O4	O	-1.049039	0.068775	0.214775
O5	O	-1.063717	-0.068732	-0.005572
O6	O	-0.926150	-0.068726	0.110495
O7	O	-1.186587	-0.068724	0.098700
Cu8	Cu	-1.056367	-0.081279	0.104597
Cu9	Cu	-1.056389	0.081322	0.104606
O10	O	-1.049020	-0.068718	0.214767
C11	C	-0.892837	0.000020	0.109969
C12	C	-0.793546	0.000018	0.108379
N13	N	-1.056358	-0.195644	0.104590
C14	C	-0.355056	0.000025	0.170502
C15	C	-0.448351	0.000030	0.171989
C16	C	-0.505799	0.000023	0.103795
C17	C	-0.469948	0.000019	0.034110
C18	C	-0.376654	0.000020	0.032623
C19	C	-0.664401	0.000015	0.037213
C20	C	-0.757701	0.000012	0.038699
C21	C	-0.736097	0.000025	0.176579
C22	C	-0.642804	0.000026	0.175092
C23	C	-0.606959	0.000021	0.105406
C24	C	-1.117291	-0.238911	0.053217
C25	C	-1.117295	-0.325458	0.053216
C26	C	-1.056370	-0.368737	0.104593
C27	C	-0.995431	-0.325464	0.155969
C28	C	-0.995423	-0.238919	0.155965
C29	C	-0.995462	-0.674492	0.155983
C30	C	-0.995476	-0.761044	0.155984
C31	C	-1.117334	-0.761032	0.053234
C32	C	-1.117326	-0.674487	0.053231
C33	C	-1.056384	-0.631221	0.104603
C34	C	-1.056378	-0.537377	0.104603
C35	C	-1.056379	-0.462580	0.104598
C36	C	-0.219919	0.000022	0.099234
C37	C	-0.319210	0.000019	0.100822
C38	C	-1.063197	0.000014	-0.033766
C39	C	-1.061607	0.000014	-0.117787
N40	N	-1.056406	0.195688	0.104607
C41	C	-1.133393	0.000038	-0.642477
C42	C	-1.134881	0.000031	-0.563530
C43	C	-1.054124	0.000028	-0.515116
C44	C	-0.971874	0.000024	-0.545653
C45	C	-0.970387	0.000026	-0.624600
C46	C	-0.977869	0.000017	-0.227272
C47	C	-0.979362	0.000018	-0.148321
C48	C	-1.142363	0.000022	-0.166202
C49	C	-1.140876	0.000024	-0.245148
C50	C	-1.058627	0.000016	-0.275679
C51	C	-1.057014	0.000022	-0.361283
C52	C	-1.055735	0.000027	-0.429513
C53	C	-1.049560	0.000031	0.242969
C54	C	-1.051149	0.000037	0.326990
H55	H	-0.477531	0.000043	0.228730
H56	H	-0.906120	0.000017	-0.506229
H57	H	-0.945842	-0.639273	0.197814
O58	O	-0.525843	0.000122	-0.032084
C59	C	-0.643687	0.071365	-0.110443
C60	C	-0.580454	0.071344	-0.035442
H61	H	-0.687843	0.128951	-0.113189
H62	H	-0.687954	0.013861	-0.113204
H63	H	-0.602022	0.071322	-0.160490
H64	H	-0.622048	0.071417	0.014647
H65	H	-0.536184	0.128843	-0.032747
H66	H	-0.945861	-0.796280	0.197823
H67	H	-1.206637	0.000030	-0.284564
H68	H	-1.209335	0.000040	-0.141335
H69	H	-1.166911	-0.360686	0.011384
O70	O	-1.176465	-0.632342	0.003370
C71	C	-1.298379	-0.534344	-0.012775
C72	C	-1.231557	-0.582079	0.043816
H73	H	-1.342925	-0.493682	0.019903
H74	H	-1.342006	-0.580018	-0.049569
H75	H	-1.259624	-0.493948	-0.050563
H76	H	-1.270240	-0.622476	0.081654
H77	H	-1.187930	-0.536359	0.080557
O78	O	-0.936334	-0.367631	0.205848
C79	C	-0.882306	-0.500961	0.251367
C80	C	-0.949294	-0.453314	0.194847
H81	H	-0.892747	-0.570244	0.242481
H82	H	-0.893828	-0.483989	0.312021
H83	H	-0.810698	-0.483914	0.241406
H84	H	-1.020928	-0.470334	0.204738
H85	H	-0.937693	-0.470289	0.134212
O86	O	-0.898000	-0.000126	-0.256963
C87	C	-0.801724	-0.071322	-0.335765
C88	C	-0.892201	-0.071277	-0.302172
H89	H	-0.797014	-0.128833	-0.372337
H90	H	-0.744224	-0.071372	-0.287633
H91	H	-0.796978	-0.013754	-0.372240
H92	H	-0.897034	-0.128835	-0.265706
H93	H	-0.949658	-0.071184	-0.350340
O94	O	-0.341937	0.000122	-0.035111
C95	C	-0.331819	0.071372	-0.153387
C96	C	-0.371212	0.071343	-0.076711
H97	H	-0.355456	0.128956	-0.187036
H98	H	-0.355500	0.013867	-0.187146
H99	H	-0.255274	0.071336	-0.142717
H100	H	-0.447757	0.071407	-0.087312
H101	H	-0.347460	0.128843	-0.042976
O102	O	-0.890416	0.000065	-0.654136
C103	C	-0.728892	0.000014	-0.628073
C104	C	-0.819397	-0.000008	-0.594524
H105	H	-0.671450	-0.000063	-0.579893
H106	H	-0.724068	0.057568	-0.664552
H107	H	-0.724163	-0.057513	-0.664619
H108	H	-0.824188	0.057480	-0.557943
H109	H	-0.824183	-0.057600	-0.558088
O110	O	-1.176508	-0.197002	0.003236
C111	C	-1.297412	-0.206135	-0.098654
C112	C	-1.230384	-0.253696	-0.042100
H113	H	-1.341000	-0.251952	-0.135312
H114	H	-1.258922	-0.165656	-0.136575
H115	H	-1.341980	-0.165578	-0.065900
H116	H	-1.185799	-0.294299	-0.074793
H117	H	-1.268930	-0.294124	-0.004179
O118	O	-0.629475	-0.000102	-0.030433
C119	C	-0.536713	-0.071373	-0.112150
C120	C	-0.576189	-0.071328	-0.035510
H121	H	-0.493638	-0.128961	-0.116287
H122	H	-0.493527	-0.013872	-0.116308
H123	H	-0.593812	-0.071341	-0.160621
H124	H	-0.519147	-0.071388	0.013005
H125	H	-0.619399	-0.128824	-0.031419
H126	H	-1.166954	-0.796268	0.011401
H127	H	-0.308287	0.000025	0.226034
H128	H	-0.596031	0.000027	0.230622
O129	O	-1.214748	-0.000109	-0.533831
C130	C	-1.311001	-0.071309	-0.455044
C131	C	-1.220527	-0.071263	-0.488642
H132	H	-1.315694	-0.128822	-0.418489
H133	H	-1.368504	-0.071353	-0.503175
H134	H	-1.315759	-0.013743	-0.418553
H135	H	-1.215681	-0.128819	-0.525124
H136	H	-1.163067	-0.071175	-0.440476
H137	H	-0.913596	0.000014	-0.108904
H138	H	-0.945804	-0.203692	0.197798
O139	O	-1.211924	0.000006	-0.689395
C140	C	-1.373762	0.000057	-0.698789
C141	C	-1.284890	0.000077	-0.645571
H142	H	-1.432778	0.000132	-0.663379
H143	H	-1.377197	-0.057495	-0.736191
H144	H	-1.377100	0.057586	-0.736204
H145	H	-1.281492	-0.057413	-0.608109
H146	H	-1.281492	0.057668	-0.608221
H147	H	-0.765286	0.000029	0.233320
O148	O	-0.813474	0.000163	-0.027561
C149	C	-0.860472	0.071382	-0.144953
C150	C	-0.797270	0.071320	-0.069935
H151	H	-0.847380	0.128897	-0.179241
H152	H	-0.933323	0.071434	-0.131957
H153	H	-0.847459	0.013819	-0.179223
H154	H	-0.810202	0.128873	-0.035628
H155	H	-0.724440	0.071225	-0.082985
