data_functionalizedCrystal
_audit_creation_method	'MofGen! by Chris Wilmer'
_symmetry_space_group_name_H-M	'P1'
_symmetry_Int_Tables_number	1
_symmetry_cell_setting	triclinic
loop_
_symmetry_equiv_pos_as_xyz
  x,y,z
_cell_length_a	16.992697
_cell_length_b	12.503572
_cell_length_c	16.992695
_cell_angle_alpha	86.236993
_cell_angle_beta	89.331663
_cell_angle_gamma	86.247427
loop_
_atom_site_label
_atom_site_type_symbol
_atom_site_fract_x
_atom_site_fract_y
_atom_site_fract_z
O1	O	-1.055097	0.089165	0.162657
O2	O	-0.826699	0.089201	0.160823
O3	O	-0.939982	0.089175	0.047540
O4	O	-0.941814	0.089192	0.275940
O5	O	-0.931463	-0.089465	0.056075
O6	O	-0.818180	-0.089439	0.169358
O7	O	-1.046578	-0.089475	0.171191
Cu8	Cu	-0.931601	-0.105768	0.171054
Cu9	Cu	-0.941676	0.105495	0.160961
O10	O	-0.933295	-0.089448	0.284474
C11	C	-0.793079	-0.000114	0.162734
C12	C	-0.705596	-0.000100	0.155705
N13	N	-0.924521	-0.254358	0.178153
C14	C	-0.659605	-0.000095	0.223523
C15	C	-0.577404	-0.000109	0.216914
C16	C	-0.541195	-0.000120	0.142487
C17	C	-0.587191	-0.000128	0.074664
C18	C	-0.669391	-0.000122	0.081274
C19	C	-0.295879	-0.000146	0.115093
C20	C	-0.213674	-0.000149	0.108488
C21	C	-0.203892	-0.000131	0.250739
C22	C	-0.286093	-0.000119	0.257342
C23	C	-0.332082	-0.000133	0.189519
N24	N	-0.457172	-0.000131	0.135730
N25	N	-0.416103	-0.000130	0.196277
C26	C	-0.914107	-0.473471	0.188602
C27	C	-0.959174	-0.526809	0.143409
C28	C	-0.953379	-0.648731	0.149223
C29	C	-0.919901	-0.351538	0.182789
C30	C	-0.080198	-0.000152	0.169279
C31	C	-0.167683	-0.000143	0.176306
C32	C	-0.933367	-0.000145	0.022447
C33	C	-0.926338	-0.000143	-0.065037
N34	N	-0.948762	0.254085	0.153856
C35	C	-0.994156	-0.000155	-0.111027
C36	C	-0.987547	-0.000144	-0.193229
C37	C	-0.913120	-0.000128	-0.229438
C38	C	-0.845298	-0.000113	-0.183442
C39	C	-0.851907	-0.000117	-0.101242
C40	C	-0.885727	-0.000109	-0.474753
C41	C	-0.879122	-0.000109	-0.556959
C42	C	-1.021372	-0.000137	-0.566740
C43	C	-1.027975	-0.000147	-0.484538
C44	C	-0.960153	-0.000127	-0.438550
N45	N	-0.906363	-0.000120	-0.313461
N46	N	-0.966911	-0.000127	-0.354529
C47	C	-0.939910	-0.000126	0.309567
C48	C	-0.946939	-0.000121	0.397051
H49	H	-0.689080	-0.000086	0.284129
C50	C	-1.088487	0.091656	-0.028643
C51	C	-1.075967	-0.000171	-0.071227
H52	H	-1.138994	0.091644	-0.004070
H53	H	-1.085925	0.153942	-0.063479
H54	H	-1.049038	0.091648	0.010511
H55	H	-1.115413	-0.000159	-0.110384
H56	H	-1.078537	-0.062473	-0.036387
C57	C	-0.832689	-0.000082	-0.344412
C58	C	-0.811178	-0.000088	-0.424208
H59	H	-0.786662	-0.000061	-0.313208
H60	H	-0.860015	-0.062381	-0.329977
H61	H	-0.865968	0.062211	-0.335934
H62	H	-0.777903	-0.062385	-0.432687
H63	H	-0.783839	0.062217	-0.438648
H64	H	-0.557703	-0.000153	0.014065
H65	H	-0.784698	-0.000094	-0.212930
C66	C	-0.707417	0.091710	-0.042322
C67	C	-0.719950	-0.000119	0.006728
H68	H	-0.738635	0.091710	-0.088342
H69	H	-0.653288	0.091697	-0.056910
H70	H	-0.721844	0.154001	-0.014982
H71	H	-0.705518	-0.062411	-0.020610
H72	H	-0.774092	-0.000117	0.021315
C73	C	-1.057692	-0.537817	0.044625
C74	C	-1.017141	-0.464852	0.085285
H75	H	-1.093474	-0.499561	0.008742
H76	H	-1.086058	-0.581678	0.081194
H77	H	-1.021042	-0.581682	0.016351
H78	H	-1.053790	-0.420992	0.113563
H79	H	-0.988772	-0.420972	0.048711
C80	C	-0.861568	-0.645966	0.241316
C81	C	-0.856156	-0.535429	0.246733
H82	H	-0.825797	-0.684223	0.277209
H83	H	-0.848771	-0.664328	0.189127
H84	H	-0.913805	-0.664312	0.253952
H85	H	-0.803920	-0.517081	0.234091
H86	H	-0.868948	-0.517060	0.298934
C87	C	-0.297280	-0.000156	-0.026177
C88	C	-0.346424	-0.000152	0.040543
H89	H	-0.328489	-0.000153	-0.072203
H90	H	-0.262053	-0.062447	-0.022817
H91	H	-0.267980	0.062145	-0.028766
H92	H	-0.375720	-0.062457	0.043135
H93	H	-0.381665	0.062146	0.037182
H94	H	-0.539961	-0.000104	0.272139
H95	H	-1.088581	-0.000160	-0.455063
H96	H	-0.184196	-0.000156	0.047878
C97	C	-0.781199	0.091732	-0.007512
C98	C	-0.777360	-0.000103	-0.050687
H99	H	-0.735173	0.091745	0.023694
H100	H	-0.826465	0.091714	0.025812
H101	H	-0.784549	0.154018	-0.042766
H102	H	-0.774016	-0.062391	-0.015433
H103	H	-0.732082	-0.000095	-0.084014
H104	H	-1.042771	-0.000156	-0.230671
H105	H	-1.076589	-0.000152	-0.604193
C106	C	-0.739172	-0.000048	-0.539039
C107	C	-0.797307	-0.000075	-0.596762
H108	H	-0.688667	-0.000019	-0.563615
H109	H	-0.741726	-0.062342	-0.504211
H110	H	-0.747691	0.062250	-0.510154
H111	H	-0.788791	-0.062376	-0.625644
H112	H	-0.794750	0.062226	-0.631604
H113	H	-0.166439	-0.000122	0.305956
H114	H	-0.315569	-0.000097	0.317947
