data_functionalizedCrystal
_audit_creation_method	'MofGen! by Chris Wilmer'
_symmetry_space_group_name_H-M	'P1'
_symmetry_Int_Tables_number	1
_symmetry_cell_setting	triclinic
loop_
_symmetry_equiv_pos_as_xyz
  x,y,z
_cell_length_a	11.026660
_cell_length_b	11.026607
_cell_length_c	14.586319
_cell_angle_alpha	89.998207
_cell_angle_beta	89.996899
_cell_angle_gamma	108.585426
loop_
_atom_site_label
_atom_site_type_symbol
_atom_site_fract_x
_atom_site_fract_y
_atom_site_fract_z
O1	O	1.726717	0.533603	-0.076241
O2	O	1.360140	0.472843	-0.076242
O3	O	1.513047	0.319933	-0.076238
O4	O	1.573810	0.686513	-0.076245
O5	O	1.513033	0.319928	0.076243
O6	O	1.360126	0.472837	0.076239
O7	O	1.726703	0.533597	0.076240
Cu8	Cu	1.543413	0.503217	0.090162
Cu9	Cu	1.543430	0.503224	-0.090164
O10	O	1.573796	0.686507	0.076236
C11	C	1.312474	0.461631	-0.000002
C12	C	1.170461	0.428216	-0.000002
C13	C	0.970035	0.485957	-0.000006
C14	C	1.116813	0.520496	-0.000004
C15	C	1.501830	0.272271	0.000001
C16	C	1.468414	0.130257	-0.000002
C17	C	1.560682	0.076607	-0.000003
C18	C	1.526147	-0.070171	-0.000007
C19	C	1.774369	0.544809	-0.000003
C20	C	1.916382	0.578225	-0.000008
C21	C	1.585013	0.734169	-0.000005
C22	C	1.618429	0.876183	-0.000008
N23	N	1.543410	0.503213	0.216994
N24	N	1.543440	0.503219	-0.216996
C25	C	1.611152	0.435540	0.452002
C26	C	1.611155	0.435538	0.547983
C27	C	1.475690	0.570895	0.547989
C28	C	1.475680	0.570889	0.452010
C29	C	1.543419	0.503214	0.404019
C30	C	1.543432	0.503218	0.595979
C31	C	1.543434	0.503216	0.700046
C32	C	1.543415	0.503214	0.299945
H33	H	1.665244	0.139339	0.000002
H34	H	1.179538	0.625067	-0.000000
H35	H	1.666308	0.380429	0.587048
H36	H	1.420541	0.625996	0.587073
H37	H	1.421578	-0.132899	-0.000013
C38	C	1.766490	0.089866	-0.000002
C39	C	1.759597	-0.039150	-0.000005
H40	H	1.853641	0.142132	0.000005
H41	H	1.725272	0.107490	-0.053172
H42	H	1.725249	0.107474	0.053175
H43	H	1.800830	-0.056761	-0.053186
H44	H	1.800833	-0.056782	0.053170
H45	H	1.363852	0.067525	-0.000009
H46	H	1.107737	0.323645	-0.000061
H47	H	0.979112	0.682788	-0.000004
C48	C	1.745040	0.301733	0.461640
C49	C	1.685595	0.361139	0.399249
H50	H	1.790989	0.255791	0.429072
H51	H	1.802472	0.364816	0.499065
H52	H	1.681967	0.244285	0.499085
H53	H	1.748669	0.418594	0.361808
H54	H	1.628158	0.298048	0.361808
C55	C	0.911378	0.284044	-0.078388
C56	C	0.885366	0.344795	-0.000006
H57	H	0.859113	0.196893	-0.078384
H58	H	0.893750	0.325277	-0.131552
H59	H	0.998911	0.288744	-0.078378
H60	H	0.797835	0.340103	-0.000019
H61	H	0.902984	0.303550	0.053171
C62	C	1.341785	0.704701	0.461649
C63	C	1.401226	0.645287	0.399259
H64	H	1.295827	0.750632	0.429081
H65	H	1.284361	0.641624	0.499090
H66	H	1.404861	0.762160	0.499078
H67	H	1.338149	0.587821	0.361834
H68	H	1.458654	0.708372	0.361802
