data_functionalizedCrystal
_audit_creation_method	'MofGen! by Chris Wilmer'
_symmetry_space_group_name_H-M	'P1'
_symmetry_Int_Tables_number	1
_symmetry_cell_setting	triclinic
loop_
_symmetry_equiv_pos_as_xyz
  x,y,z
_cell_length_a	22.863218
_cell_length_b	22.862586
_cell_length_c	22.858745
_cell_angle_alpha	60.006856
_cell_angle_beta	60.013818
_cell_angle_gamma	59.991795
loop_
_atom_site_label
_atom_site_type_symbol
_atom_site_fract_x
_atom_site_fract_y
_atom_site_fract_z
O1	O	0.081006	-0.854581	0.714630
O2	O	0.030492	-0.665350	0.575795
O3	O	0.150314	-0.785089	0.575706
O4	O	-0.038816	-0.734841	0.714718
O5	O	0.190066	-0.745348	0.615369
O6	O	0.070244	-0.625609	0.615458
O7	O	0.120758	-0.814840	0.754293
Zn8	Zn	0.101812	-0.713914	0.691173
Zn9	Zn	0.049438	-0.766275	0.638915
O10	O	0.000936	-0.695100	0.754381
N11	N	0.137558	-0.678184	0.726840
N12	N	0.013698	-0.802011	0.603247
C13	C	0.187224	-0.518558	0.776483
C14	C	0.187235	-0.628552	0.776467
C15	C	0.214753	-0.601061	0.803961
C16	C	0.334724	-0.580392	0.740801
C17	C	0.409718	-0.605392	0.715784
C18	C	0.409746	-0.726732	0.762051
C19	C	0.334754	-0.701730	0.787070
C20	C	0.205297	-0.481049	0.702756
C21	C	0.180267	-0.406048	0.677779
C22	C	0.119099	-0.406071	0.800259
C23	C	0.144128	-0.481071	0.825236
C24	C	0.113501	-0.610437	0.794610
C25	C	0.088492	-0.635428	0.769607
C26	C	0.210943	-0.696652	0.708337
C27	C	0.235956	-0.671660	0.733331
C28	C	0.113585	-0.610461	0.923980
C29	C	0.088635	-0.635476	0.998978
C30	C	0.211128	-0.696714	0.998930
C31	C	0.236077	-0.671700	0.923930
C32	C	0.187303	-0.628571	0.886457
C33	C	0.297246	-0.628559	0.776441
C34	C	-0.117796	-0.823430	0.581283
C35	C	-0.007671	-0.823587	0.471446
C36	C	-0.007879	-0.933535	0.581483
C37	C	-0.007861	-0.823583	0.581554
C38	C	-0.035301	-0.851035	0.553942
N39	N	0.446162	-0.678198	0.726752
O40	O	0.691234	-0.690164	0.550341
O41	O	0.691462	-0.829422	0.739388
O42	O	0.691373	-0.829102	0.619485
O43	O	0.691323	-0.690484	0.670244
O44	O	0.572233	-0.789455	0.659278
O45	O	0.572322	-0.789775	0.779181
O46	O	0.572094	-0.650517	0.590134
Zn47	Zn	0.553292	-0.713851	0.690976
Zn48	Zn	0.710264	-0.766088	0.638547
O49	O	0.572183	-0.650837	0.710037
N50	N	0.817394	-0.801741	0.602763
N51	N	0.137538	-0.369628	0.726874
O52	O	-0.038795	-0.124419	0.714761
O53	O	0.150256	-0.124417	0.575522
O54	O	0.030331	-0.124432	0.575860
O55	O	0.081131	-0.124404	0.714423
O56	O	0.070086	-0.243584	0.615573
O57	O	0.190011	-0.243569	0.615236
O58	O	0.000960	-0.243571	0.754474
Zn59	Zn	0.101797	-0.262488	0.691160
Zn60	Zn	0.049419	-0.105500	0.638836
O61	O	0.120885	-0.243556	0.754137
N62	N	0.013669	0.001640	0.603123
N63	N	0.137749	-0.678230	1.035381
O64	O	0.125655	-0.854547	1.280566
O65	O	-0.013567	-0.665426	1.280590
O66	O	-0.013245	-0.785328	1.280537
O67	O	0.125333	-0.734644	1.280618
O68	O	0.026456	-0.745599	1.161392
O69	O	0.026134	-0.625697	1.161444
O70	O	0.165355	-0.814817	1.161420
Zn71	Zn	0.102048	-0.713949	1.142516
Zn72	Zn	0.049740	-0.766294	1.299495
O73	O	0.165033	-0.694915	1.161473
N74	N	0.014038	-0.802020	1.406629
C75	C	0.045634	-0.621635	0.576499
C76	C	0.194019	-0.769918	0.576389
C77	C	0.105616	-0.858555	0.753588
C78	C	-0.042769	-0.710272	0.753698
C79	C	0.631920	-0.828776	0.783102
C80	C	0.631811	-0.828380	0.634616
C81	C	0.631633	-0.651162	0.546422
C82	C	0.631745	-0.651559	0.694907
C83	C	0.193900	-0.183846	0.576155
C84	C	0.045437	-0.184012	0.576622
C85	C	-0.042734	-0.183994	0.753792
C86	C	0.105780	-0.183977	0.753375
C87	C	-0.012889	-0.621735	1.221020
C88	C	-0.012483	-0.770211	1.220931
C89	C	0.164678	-0.858508	1.220991
C90	C	0.164280	-0.710023	1.221052
H91	H	0.073862	-0.575336	0.893474
O92	O	0.258771	-0.782583	0.524217
C93	C	0.258837	-0.720965	0.462497
H94	H	0.201393	-0.686841	0.463272
H95	H	0.290693	-0.737644	0.412688
H96	H	0.284480	-0.688587	0.461623
H97	H	0.116407	-0.912913	0.797192
O98	O	0.118621	-0.183940	0.805379
C99	C	0.057131	-0.183959	0.867211
H100	H	0.007865	-0.161406	0.851576
H101	H	0.050869	-0.149363	0.893887
H102	H	0.062936	-0.241122	0.906170
O103	O	-0.064969	-0.556909	1.221058
C104	C	-0.039178	-0.512331	1.221069
H105	H	0.006810	-0.546789	1.243635
H106	H	-0.084197	-0.478005	1.255665
H107	H	-0.019292	-0.476152	1.163916
H108	H	-0.097093	-0.699562	0.797349
H109	H	-0.097027	-0.183996	0.797505
O110	O	-0.064312	-0.783225	1.220810
C111	C	-0.038218	-0.853649	1.220788
H112	H	0.022802	-0.872524	1.198280
H113	H	-0.059993	-0.854652	1.186135
H114	H	-0.056362	-0.890715	1.277930
O115	O	0.032843	-0.556758	0.524495
C116	C	0.082006	-0.524950	0.505189
H117	H	0.102969	-0.548677	0.551114
H118	H	0.054143	-0.464686	0.493487
H119	H	0.128658	-0.535766	0.455357
O120	O	0.216738	-0.923354	1.221012
C121	C	0.190961	-0.967918	1.220959
H122	H	0.129941	-0.948506	1.243508
H123	H	0.212931	-1.025314	1.255540
H124	H	0.209165	-0.965971	1.163790
O125	O	0.631959	-0.880398	0.621654
C126	C	0.693698	-0.940794	0.629585
H127	H	0.736813	-0.923620	0.621806
H128	H	0.714394	-0.966199	0.587843
H129	H	0.679812	-0.981399	0.685519
O130	O	0.216154	-0.696964	1.221039
C131	C	0.190055	-0.626546	1.221075
H132	H	0.144065	-0.592639	1.198514
H133	H	0.234917	-0.602453	1.186497
H134	H	0.170081	-0.627602	1.278242
H135	H	0.631558	-0.607440	0.492131
O136	O	0.017003	-0.617900	1.035341
C137	C	-0.014160	-0.643552	1.017036
H138	H	0.021372	-0.650899	0.962577
H139	H	-0.069333	-0.603347	1.014489
H140	H	-0.019719	-0.697149	1.059239
O141	O	0.258605	-0.738615	1.035214
C142	C	0.329020	-0.749213	0.986009
H143	H	0.328850	-0.740828	0.932556
H144	H	0.364656	-0.806093	1.007654
H145	H	0.350495	-0.709289	0.978028
O146	O	0.632025	-0.880867	0.847903
C147	C	0.632020	-0.855067	0.892496
H148	H	0.654525	-0.809057	0.858055
H149	H	0.666659	-0.900080	0.926790
H150	H	0.574872	-0.835202	0.928701
H151	H	0.631735	-0.608016	0.705768
O152	O	0.258565	-0.183416	0.523938
C153	C	0.303125	-0.183288	0.549676
H154	H	0.268668	-0.160963	0.595829
H155	H	0.337166	-0.148421	0.504694
H156	H	0.339573	-0.240376	0.569317
O157	O	0.016861	-0.617925	0.787351
C158	C	-0.014239	-0.643580	0.862471
H159	H	0.028491	-0.689836	0.886622
H160	H	-0.058440	-0.663056	0.876835
H161	H	-0.037915	-0.598594	0.884700
O162	O	0.307675	-0.689171	0.887403
C163	C	0.325774	-0.626155	0.844040
H164	H	0.276336	-0.579026	0.832826
H165	H	0.369241	-0.632858	0.791291
H166	H	0.346380	-0.615625	0.872936
O167	O	0.032490	-0.184163	0.524752
C168	C	0.015631	-0.245875	0.549456
H169	H	0.038764	-0.288987	0.593946
H170	H	0.039531	-0.266613	0.503334
H171	H	-0.045034	-0.231930	0.571061
O172	O	0.066143	-0.568458	0.836401
C173	C	0.022740	-0.505559	0.798559
H174	H	0.051668	-0.495120	0.738554
H175	H	0.011403	-0.458322	0.811987
H176	H	-0.029946	-0.512370	0.814535
H177	H	0.295996	-0.686402	0.718551
O178	O	0.258311	-0.738416	0.666334
C179	C	0.301642	-0.700533	0.603451
H180	H	0.272656	-0.640532	0.593046
H181	H	0.312972	-0.713937	0.556197
H182	H	0.354337	-0.716496	0.610258
O183	O	0.298456	-0.748615	0.821647
C184	C	0.347647	-0.818560	0.825672
H185	H	0.401088	-0.815707	0.781368
H186	H	0.325970	-0.849338	0.818886
H187	H	0.355658	-0.847194	0.880016
H188	H	0.440232	-0.566167	0.686761
O189	O	0.446298	-0.797785	0.772283
C190	C	0.520526	-0.809524	0.742576
H191	H	0.530742	-0.757910	0.699589
H192	H	0.549021	-0.853345	0.717649
H193	H	0.541837	-0.826811	0.786465
H194	H	0.304191	-0.520811	0.732143
H195	H	0.194981	-0.375507	0.617742
O196	O	0.247122	-0.517353	0.655304
C197	C	0.257712	-0.468161	0.584873
H198	H	0.212487	-0.414701	0.585028
H199	H	0.258078	-0.489823	0.549271
H200	H	0.311132	-0.460181	0.563367
H201	H	0.129402	-0.511613	0.885274
O202	O	0.077225	-0.369763	0.847712
C203	C	0.066668	-0.418953	0.918144
H204	H	0.075053	-0.472415	0.918009
H205	H	0.009804	-0.397292	0.953772
H206	H	0.106610	-0.426927	0.939606
