data_functionalizedCrystal
_audit_creation_method	'MofGen! by Chris Wilmer'
_symmetry_space_group_name_H-M	'P1'
_symmetry_Int_Tables_number	1
_symmetry_cell_setting	triclinic
loop_
_symmetry_equiv_pos_as_xyz
  x,y,z
_cell_length_a	25.639242
_cell_length_b	25.639239
_cell_length_c	12.827885
_cell_angle_alpha	90.035982
_cell_angle_beta	90.030023
_cell_angle_gamma	90.034213
loop_
_atom_site_label
_atom_site_type_symbol
_atom_site_fract_x
_atom_site_fract_y
_atom_site_fract_z
Zn1	Zn	0.799266	-0.208188	0.591103
Zn2	Zn	0.799177	-0.295633	0.416345
Zn3	Zn	0.711830	-0.208206	0.416344
Zn4	Zn	0.711787	-0.295587	0.591012
O5	O	0.755515	-0.251904	0.503701
O6	O	0.872419	-0.219799	0.567960
O7	O	0.787571	-0.284063	0.270108
O8	O	0.723484	-0.135039	0.439564
O9	O	0.872354	-0.284044	0.439565
O10	O	0.787722	-0.135025	0.567959
O11	O	0.723398	-0.219831	0.270108
O12	O	0.638659	-0.219786	0.439476
O13	O	0.723410	-0.283967	0.737260
O14	O	0.638628	-0.283985	0.567803
O15	O	0.787681	-0.219755	0.737327
O16	O	0.787530	-0.368792	0.439477
O17	O	0.723325	-0.368758	0.567804
C18	C	0.619672	-0.251883	0.503630
C19	C	0.561558	-0.251887	0.503625
C20	C	0.755427	-0.387746	0.503653
C21	C	0.755437	-0.445860	0.503668
C22	C	0.201188	-0.285388	0.570458
C23	C	0.146583	-0.285391	0.570474
O24	O	0.118340	-0.313849	0.627238
N25	N	0.119276	-0.251918	0.503769
C26	C	0.146575	-0.218436	0.437051
O27	O	0.118334	-0.189965	0.380315
C28	C	0.201179	-0.218431	0.437040
C29	C	0.228484	-0.251909	0.503742
C30	C	0.228493	-0.318863	0.637155
C31	C	0.283093	-0.318860	0.637137
C32	C	0.310389	-0.285382	0.570422
C33	C	0.283084	-0.251907	0.503724
C34	C	0.228477	-0.184947	0.370328
C35	C	0.283084	-0.184944	0.370324
C36	C	0.310389	-0.218422	0.437026
C37	C	0.364980	-0.218426	0.436990
N38	N	0.392288	-0.251899	0.503696
C39	C	0.364992	-0.285377	0.570411
C40	C	0.031905	-0.218449	0.437079
C41	C	-0.022697	-0.218457	0.437083
C42	C	-0.022686	-0.285411	0.570509
C43	C	0.031918	-0.285406	0.570498
C44	C	0.059212	-0.251922	0.503784
C45	C	0.479657	-0.285369	0.570367
C46	C	0.534263	-0.285365	0.570340
C47	C	0.534246	-0.218409	0.436919
C48	C	0.479645	-0.218415	0.436942
C49	C	0.452352	-0.251897	0.503675
O50	O	0.393258	-0.189981	0.380258
O51	O	0.393240	-0.313838	0.627147
C52	C	0.789034	-0.806228	0.436995
C53	C	0.789054	-0.860832	0.437009
O54	O	0.817528	-0.889073	0.380269
N55	N	0.755607	-0.888143	0.503770
C56	C	0.722141	-0.860846	0.570530
O57	O	0.693694	-0.889089	0.627317
C58	C	0.722124	-0.806242	0.570520
C59	C	0.755569	-0.778935	0.503747
C60	C	0.822477	-0.778921	0.370228
C61	C	0.822456	-0.724320	0.370213
C62	C	0.788992	-0.697027	0.436965
C63	C	0.755548	-0.724334	0.503732
C64	C	0.688661	-0.778946	0.637284
C65	C	0.688647	-0.724339	0.637269
C66	C	0.722092	-0.697032	0.570496
C67	C	0.722063	-0.642441	0.570468
N68	N	0.755510	-0.615131	0.503707
C69	C	0.788974	-0.642424	0.436955
C70	C	0.722180	-0.975516	0.570546
C71	C	0.722195	-1.030119	0.570551
C72	C	0.789108	-1.030102	0.437031
C73	C	0.789091	-0.975498	0.437022
C74	C	0.755628	-0.948206	0.503784
C75	C	0.788927	-0.527759	0.436928
C76	C	0.788902	-0.473153	0.436916
C77	C	0.721990	-0.473175	0.570439
C78	C	0.722013	-0.527776	0.570447
C79	C	0.755486	-0.555066	0.503689
O80	O	0.693605	-0.614165	0.627183
O81	O	0.817422	-0.614174	0.380187
C82	C	0.891888	-0.251925	0.503773
C83	C	0.950002	-0.251934	0.503803
C84	C	0.755551	-0.251853	0.776271
C85	C	0.755566	-0.251832	0.892425
C86	C	0.755617	-0.115531	0.503772
C87	C	0.755661	-0.057416	0.503802
C88	C	0.755510	-0.251916	0.232191
C89	C	0.755596	-0.251790	0.116039
C90	C	0.787372	-0.220052	0.944243
C91	C	0.787388	-0.220029	1.064293
H92	H	0.556492	-0.312629	0.624658
O93	O	0.689562	-0.446632	0.635392
C94	C	0.719309	-0.414985	0.702910
H95	H	0.760490	-0.431406	0.709450
H96	H	0.721110	-0.373615	0.670584
C97	C	0.643166	-0.393951	0.803467
C98	C	0.693743	-0.414122	0.811506
H99	H	0.627394	-0.393416	0.870453
H100	H	0.623123	-0.415270	0.757977
H101	H	0.644673	-0.359477	0.776525
H102	H	0.692234	-0.448597	0.838435
H103	H	0.713785	-0.392808	0.857003
O104	O	0.689640	-0.948950	0.635248
C105	C	0.655866	-0.917429	0.575675
H106	H	0.674326	-0.909253	0.496523
H107	H	0.617133	-0.938517	0.564106
C108	C	0.623685	-0.875594	0.730368
C109	C	0.646360	-0.865549	0.633155
H110	H	0.617819	-0.843593	0.765825
H111	H	0.646437	-0.896831	0.770505
H112	H	0.591410	-0.893169	0.720713
H113	H	0.678637	-0.847981	0.642812
H114	H	0.623612	-0.844308	0.593021
H115	H	0.814589	-0.192858	0.899729
O116	O	0.723019	-0.284218	0.945474
C117	C	0.670901	-0.272811	0.918841
H118	H	0.668273	-0.231062	0.888785
H119	H	0.657177	-0.300883	0.855549
C120	C	0.639289	-0.330105	1.052760
C121	C	0.636061	-0.278826	1.015853
H122	H	0.617797	-0.333818	1.112599
H123	H	0.674402	-0.337792	1.070701
H124	H	0.627853	-0.353492	1.000007
H125	H	0.647503	-0.255441	1.068601
H126	H	0.600949	-0.271136	0.997923
H127	H	0.816326	-0.953268	0.382650
H128	H	0.816359	-1.052334	0.382682
H129	H	0.694955	-1.052348	0.624914
O130	O	0.453199	-0.185849	0.372109
C131	C	0.489003	-0.156312	0.313197
H132	H	0.527943	-0.154529	0.355992
H133	H	0.494770	-0.175412	0.233759
C134	C	0.419896	-0.102847	0.245785
C135	C	0.467722	-0.100653	0.298350
H136	H	0.406768	-0.068514	0.236621
H137	H	0.395774	-0.122747	0.285471
H138	H	0.424708	-0.118766	0.179592
H139	H	0.462908	-0.084740	0.364546
H140	H	0.491843	-0.080748	0.258674
H141	H	0.814621	-0.192822	1.108855
O142	O	0.821443	-0.446708	0.372017
C143	C	0.850974	-0.482511	0.313090
H144	H	0.852786	-0.521415	0.355912
H145	H	0.831852	-0.488369	0.233684
C146	C	0.904392	-0.413373	0.245545
C147	C	0.906621	-0.461154	0.298144
H148	H	0.938717	-0.400198	0.236321
H149	H	0.884495	-0.389251	0.285242
H150	H	0.888455	-0.418261	0.179379
H151	H	0.922552	-0.456265	0.364314
H152	H	0.926522	-0.485275	0.258458
H153	H	0.816185	-0.549972	0.382569
H154	H	0.849731	-0.801137	0.315870
O155	O	0.656091	-0.697910	0.702161
C156	C	0.626590	-0.733725	0.761113
H157	H	0.624803	-0.772665	0.718310
H158	H	0.645722	-0.739487	0.840516
C159	C	0.573126	-0.664639	0.828640
C160	C	0.570928	-0.712464	0.776064
H161	H	0.538792	-0.651523	0.837868
H162	H	0.593002	-0.640509	0.788926
H163	H	0.589072	-0.669447	0.894804
H164	H	0.554989	-0.707654	0.709897
H165	H	0.551048	-0.736593	0.815768
H166	H	0.457442	-0.312632	0.624710
O167	O	0.723181	-0.284278	1.062774
C168	C	0.752946	-0.318044	0.999659
H169	H	0.792588	-0.299605	0.983449
H170	H	0.758647	-0.356802	1.041643
C171	C	0.675519	-0.350126	0.915807
C172	C	0.724206	-0.327476	0.895891
H173	H	0.657791	-0.355947	0.851800
H174	H	0.655465	-0.327379	0.958332
H175	H	0.680277	-0.382422	0.950797
H176	H	0.719447	-0.295178	0.860914
H177	H	0.744259	-0.350218	0.853358
H178	H	0.849692	-0.702090	0.315844
H179	H	0.305320	-0.346121	0.691455
O180	O	-0.049287	-0.317880	0.635292
C181	C	-0.103335	-0.310710	0.620975
H182	H	-0.110777	-0.270341	0.586891
H183	H	-0.118867	-0.341691	0.565220
C184	C	-0.122202	-0.365140	0.768560
C185	C	-0.131342	-0.315557	0.726704
H186	H	-0.139479	-0.368132	0.833776
H187	H	-0.085789	-0.369973	0.778203
H188	H	-0.135145	-0.390952	0.722087
H189	H	-0.118394	-0.289746	0.773171
H190	H	-0.167754	-0.310720	0.717071
O191	O	0.689507	-0.554224	0.635404
C192	C	0.659955	-0.518423	0.694295
H193	H	0.681352	-0.479476	0.697937
H194	H	0.620253	-0.512674	0.655944
C195	C	0.626122	-0.587528	0.801038
C196	C	0.652404	-0.539693	0.805519
H197	H	0.621461	-0.600649	0.869645
H198	H	0.646029	-0.611648	0.761360
H199	H	0.593039	-0.582730	0.769074
H200	H	0.685488	-0.544492	0.837470
H201	H	0.632502	-0.515574	0.845205
O202	O	0.202063	-0.351437	0.701999
C203	C	0.237883	-0.380967	0.760875
H204	H	0.276790	-0.382739	0.718048
H205	H	0.243725	-0.361870	0.840312
C206	C	0.168775	-0.434454	0.828335
C207	C	0.216560	-0.436633	0.775730
H208	H	0.155622	-0.468791	0.837503
H209	H	0.144643	-0.414558	0.788673
H210	H	0.173651	-0.418537	0.894527
H211	H	0.211683	-0.452544	0.709535
H212	H	0.240692	-0.456533	0.815382
O213	O	0.058416	-0.317868	0.635448
C214	C	0.045096	-0.306511	0.739640
H215	H	0.030109	-0.264746	0.745066
H216	H	0.013392	-0.334560	0.766854
C217	C	0.112022	-0.363930	0.802700
C218	C	0.093619	-0.312632	0.809365
H219	H	0.141953	-0.367708	0.845711
H220	H	0.120995	-0.371583	0.732504
H221	H	0.085598	-0.387299	0.825376
H222	H	0.120041	-0.289265	0.786677
H223	H	0.084652	-0.304976	0.879559
O224	O	-0.049137	-0.185891	0.372247
C225	C	-0.013330	-0.156355	0.313344
H226	H	0.025608	-0.154571	0.356148
H227	H	-0.007558	-0.175455	0.233907
C228	C	-0.082432	-0.102890	0.245912
C229	C	-0.034610	-0.100695	0.298489
H230	H	-0.095559	-0.068557	0.236744
H231	H	-0.106557	-0.122790	0.285593
H232	H	-0.077616	-0.118809	0.179721
H233	H	-0.039428	-0.084782	0.364684
H234	H	-0.010486	-0.080791	0.258819
H235	H	0.661423	-0.801171	0.691653
H236	H	0.054125	-0.191184	0.382745
H237	H	0.206255	-0.157686	0.316009
O238	O	0.309517	-0.152403	0.305410
C239	C	0.273703	-0.122850	0.246565
H240	H	0.234767	-0.144266	0.242889
H241	H	0.267932	-0.083164	0.284977
C242	C	0.342797	-0.088945	0.139876
C243	C	0.294976	-0.115251	0.135354
H244	H	0.355919	-0.084254	0.071277
H245	H	0.366926	-0.108853	0.179524
H246	H	0.337981	-0.055876	0.171891
H247	H	0.299794	-0.148321	0.103351
H248	H	0.270849	-0.095347	0.095698
H249	H	0.556480	-0.191154	0.382598
