data_functionalizedCrystal
_audit_creation_method	'MofGen! by Chris Wilmer'
_symmetry_space_group_name_H-M	'P1'
_symmetry_Int_Tables_number	1
_symmetry_cell_setting	triclinic
loop_
_symmetry_equiv_pos_as_xyz
  x,y,z
_cell_length_a	14.971482
_cell_length_b	6.394989
_cell_length_c	14.048226
_cell_angle_alpha	90.003392
_cell_angle_beta	89.994098
_cell_angle_gamma	94.944840
loop_
_atom_site_label
_atom_site_type_symbol
_atom_site_fract_x
_atom_site_fract_y
_atom_site_fract_z
O1	O	1.189893	-0.272175	-0.079142
O2	O	0.929845	-0.304781	-0.079146
O3	O	1.063560	0.015577	-0.079145
O4	O	1.056177	-0.592533	-0.079143
O5	O	1.063543	0.015596	0.079177
O6	O	0.929828	-0.304762	0.079175
O7	O	1.189876	-0.272156	0.079179
Zn8	Zn	1.059849	-0.288456	0.104314
Zn9	Zn	1.059871	-0.288481	-0.104281
O10	O	1.056161	-0.592514	0.079178
C11	C	0.896496	-0.303315	0.000014
C12	C	0.797151	-0.298949	0.000012
C13	C	0.750475	-0.296883	0.086314
C14	C	0.657132	-0.292747	0.086315
C15	C	0.610466	-0.290694	0.000014
C16	C	0.657149	-0.292754	-0.086295
C17	C	0.750491	-0.296874	-0.086295
C18	C	0.462594	-0.284171	-0.086289
C19	C	0.369245	-0.280054	-0.086289
C20	C	0.369235	-0.280044	0.086322
C21	C	0.462577	-0.284165	0.086322
C22	C	0.509253	-0.286229	0.000013
C23	C	1.223225	-0.273622	0.000017
C24	C	1.322569	-0.277988	0.000013
C25	C	1.062092	0.093412	0.000012
C26	C	1.057631	0.329657	0.000012
N27	N	1.059841	-0.288438	0.246675
N28	N	1.059887	-0.288483	-0.246642
C29	C	1.119069	-0.146642	0.296494
C30	C	1.119076	-0.146641	0.396151
C31	C	1.059856	-0.288447	0.445988
C32	C	1.000621	-0.430250	0.396163
C33	C	1.000611	-0.430239	0.296507
C34	C	1.000647	-0.430265	0.603877
C35	C	1.000658	-0.430279	0.703540
C36	C	1.119111	-0.146666	0.703521
C37	C	1.119101	-0.146656	0.603866
C38	C	1.059867	-0.288462	0.554047
H39	H	0.331227	-0.278364	0.156598
Br40	Br	0.813798	-0.299691	0.203445
Br41	Br	0.920285	-0.622739	0.771169
Br42	Br	0.813839	-0.299660	-0.203424
Br43	Br	0.920220	-0.622672	0.228896
H44	H	0.952399	-0.545704	0.436746
Br45	Br	1.199450	0.045806	0.228868
H46	H	1.167303	-0.031179	0.436713
H47	H	0.500570	-0.285850	0.156596
H48	H	0.619134	-0.291030	0.156591
Br49	Br	0.305912	-0.277268	-0.203415
H50	H	0.619146	-0.291067	-0.156564
H51	H	1.167326	-0.031197	0.563288
Br52	Br	0.525940	-0.286961	-0.203424
Br53	Br	0.920252	-0.622710	0.536269
Br54	Br	1.199503	0.045772	0.771135
