data_functionalizedCrystal
_audit_creation_method	'MofGen! by Chris Wilmer'
_symmetry_space_group_name_H-M	'P1'
_symmetry_Int_Tables_number	1
_symmetry_cell_setting	triclinic
loop_
_symmetry_equiv_pos_as_xyz
  x,y,z
_cell_length_a	19.805407
_cell_length_b	21.295417
_cell_length_c	21.295411
_cell_angle_alpha	89.978356
_cell_angle_beta	89.974514
_cell_angle_gamma	90.030507
loop_
_atom_site_label
_atom_site_type_symbol
_atom_site_fract_x
_atom_site_fract_y
_atom_site_fract_z
Zn1	Zn	1.034756	-0.250681	-0.355927
Zn2	Zn	1.284756	-0.000681	-0.105927
Zn3	Zn	1.534756	0.249319	0.144073
Zn4	Zn	1.784756	0.499319	0.394073
Zn5	Zn	1.034651	-0.355933	-0.250652
Zn6	Zn	1.284651	-0.105933	-0.000652
Zn7	Zn	1.534651	0.144067	0.249348
Zn8	Zn	1.784651	0.394067	0.499348
Zn9	Zn	0.921559	-0.250681	-0.250670
Zn10	Zn	1.171559	-0.000681	-0.000670
Zn11	Zn	1.421559	0.249319	0.249330
Zn12	Zn	1.671559	0.499319	0.499330
Zn13	Zn	0.921526	-0.355916	-0.355882
Zn14	Zn	1.171526	-0.105916	-0.105882
Zn15	Zn	1.421526	0.144084	0.144118
Zn16	Zn	1.671526	0.394084	0.394118
O17	O	0.978123	-0.303303	-0.303283
O18	O	1.228123	-0.053303	-0.053283
O19	O	1.478123	0.196697	0.196717
O20	O	1.728123	0.446697	0.446717
O21	O	1.129459	-0.264650	-0.341973
O22	O	1.379459	-0.014650	-0.091973
O23	O	1.629459	0.235350	0.158027
O24	O	1.879459	0.485350	0.408027
O25	O	1.019619	-0.341978	-0.162565
O26	O	1.269619	-0.091978	0.087435
O27	O	1.519619	0.158022	0.337435
O28	O	1.769619	0.408022	0.587435
O29	O	0.936632	-0.162592	-0.264659
O30	O	1.186632	0.087408	-0.014659
O31	O	1.436632	0.337408	0.235341
O32	O	1.686632	0.587408	0.485341
O33	O	1.129381	-0.341978	-0.264628
O34	O	1.379381	-0.091978	-0.014628
O35	O	1.629381	0.158022	0.235372
O36	O	1.879381	0.408022	0.485372
O37	O	1.019798	-0.162592	-0.341991
O38	O	1.269798	0.087408	-0.091991
O39	O	1.519798	0.337408	0.158009
O40	O	1.769798	0.587408	0.408009
O41	O	0.936531	-0.264650	-0.162578
O42	O	1.186531	-0.014650	0.087422
O43	O	1.436531	0.235350	0.337422
O44	O	1.686531	0.485350	0.587422
O45	O	0.826838	-0.264634	-0.264616
O46	O	1.076838	-0.014634	-0.014616
O47	O	1.326838	0.235366	0.235384
O48	O	1.576838	0.485366	0.485384
O49	O	0.936576	-0.341949	-0.443978
O50	O	1.186576	-0.091949	-0.193978
O51	O	1.436576	0.158051	0.056022
O52	O	1.686576	0.408051	0.306022
O53	O	0.826814	-0.341950	-0.341915
O54	O	1.076814	-0.091950	-0.091915
O55	O	1.326814	0.158050	0.158085
O56	O	1.576814	0.408050	0.408085
O57	O	1.019766	-0.264633	-0.444010
O58	O	1.269766	-0.014633	-0.194010
O59	O	1.519766	0.235367	0.055990
O60	O	1.769766	0.485367	0.305990
O61	O	1.019587	-0.444020	-0.264585
O62	O	1.269587	-0.194020	-0.014585
O63	O	1.519587	0.055980	0.235415
O64	O	1.769587	0.305980	0.485415
O65	O	0.936475	-0.444008	-0.341897
O66	O	1.186475	-0.194008	-0.091897
O67	O	1.436475	0.055992	0.158103
O68	O	1.686475	0.305992	0.408103
C69	C	0.802267	-0.303291	-0.303263
C70	C	1.052267	-0.053291	-0.053263
C71	C	1.302267	0.196709	0.196737
C72	C	1.552267	0.446709	0.446737
C73	C	0.727035	-0.303301	-0.303269
C74	C	0.977035	-0.053301	-0.053269
C75	C	1.227035	0.196699	0.196731
C76	C	1.477035	0.446699	0.446731
C77	C	0.978034	-0.466854	-0.303248
C78	C	1.228034	-0.216854	-0.053248
C79	C	1.478034	0.033146	0.196752
C80	C	1.728034	0.283146	0.446752
C81	C	0.978058	-0.536823	-0.303254
C82	C	1.228058	-0.286823	-0.053254
C83	C	1.478058	-0.036823	0.196746
C84	C	1.728058	0.213177	0.446746
C85	C	0.691696	-0.343620	-0.343453
C86	C	0.941696	-0.093620	-0.093453
C87	C	1.191696	0.156380	0.156547
C88	C	1.441696	0.406380	0.406547
C89	C	0.621007	-0.343621	-0.343462
C90	C	0.871007	-0.093621	-0.093462
C91	C	1.121007	0.156379	0.156538
C92	C	1.371007	0.406379	0.406538
C93	C	0.585659	-0.303306	-0.303283
C94	C	0.835659	-0.053306	-0.053283
C95	C	1.085659	0.196694	0.196717
C96	C	1.335659	0.446694	0.446717
C97	C	0.621003	-0.262982	-0.263097
C98	C	0.871003	-0.012982	-0.013097
C99	C	1.121003	0.237018	0.236903
C100	C	1.371003	0.487018	0.486903
C101	C	0.691690	-0.262979	-0.263092
C102	C	0.941690	-0.012979	-0.013092
C103	C	1.191690	0.237021	0.236908
C104	C	1.441690	0.487021	0.486908
C105	C	0.335930	-0.262996	-0.263118
C106	C	0.585930	-0.012996	-0.013118
C107	C	0.835930	0.237004	0.236882
C108	C	1.085930	0.487004	0.486882
C109	C	0.265238	-0.263005	-0.263125
C110	C	0.515238	-0.013005	-0.013125
C111	C	0.765238	0.236995	0.236875
C112	C	1.015238	0.486995	0.486875
C113	C	0.265247	-0.343638	-0.343488
C114	C	0.515247	-0.093638	-0.093488
C115	C	0.765247	0.156362	0.156512
C116	C	1.015247	0.406362	0.406512
C117	C	0.335934	-0.343635	-0.343483
C118	C	0.585934	-0.093635	-0.093483
C119	C	0.835934	0.156365	0.156517
C120	C	1.085934	0.406365	0.406517
C121	C	0.371272	-0.303309	-0.303299
C122	C	0.621272	-0.053309	-0.053299
C123	C	0.871272	0.196691	0.196701
C124	C	1.121272	0.446691	0.446701
C125	C	0.447920	-0.303308	-0.303291
C126	C	0.697920	-0.053308	-0.053291
C127	C	0.947920	0.196692	0.196709
C128	C	1.197920	0.446692	0.446709
C129	C	0.509012	-0.303310	-0.303288
C130	C	0.759012	-0.053310	-0.053288
C131	C	1.009012	0.196690	0.196712
C132	C	1.259012	0.446690	0.446712
C133	C	1.021373	-0.569675	-0.263039
C134	C	1.271373	-0.319675	-0.013039
C135	C	1.521373	-0.069675	0.236961
C136	C	1.771373	0.180325	0.486961
C137	C	1.021405	-0.635417	-0.263053
C138	C	1.271405	-0.385417	-0.013053
C139	C	1.521405	-0.135417	0.236947
C140	C	1.771405	0.114583	0.486947
C141	C	0.978109	-0.668305	-0.303276
C142	C	1.228109	-0.418305	-0.053276
C143	C	1.478109	-0.168305	0.196724
C144	C	1.728109	0.081695	0.446724
C145	C	0.934791	-0.635445	-0.343499
C146	C	1.184791	-0.385445	-0.093499
C147	C	1.434791	-0.135445	0.156501
C148	C	1.684791	0.114555	0.406501
C149	C	0.934766	-0.569704	-0.343488
C150	C	1.184766	-0.319704	-0.093488
C151	C	1.434766	-0.069704	0.156512
C152	C	1.684766	0.180296	0.406512
N153	N	0.918900	-0.771572	-0.308068
N154	N	1.168900	-0.521572	-0.058068
N155	N	1.418900	-0.271572	0.191932
N156	N	1.668900	-0.021572	0.441932
N157	N	0.918926	-0.834023	-0.308075
N158	N	1.168926	-0.584023	-0.058075
N159	N	1.418926	-0.334023	0.191925
N160	N	1.668926	-0.084023	0.441925
C161	C	0.978185	-0.866380	-0.303312
C162	C	1.228185	-0.616380	-0.053312
C163	C	1.478185	-0.366380	0.196688
C164	C	1.728185	-0.116380	0.446688
N165	N	1.037419	-0.833926	-0.298530
N166	N	1.287419	-0.583926	-0.048530
N167	N	1.537419	-0.333926	0.201470
N168	N	1.787419	-0.083926	0.451470
N169	N	1.037392	-0.771468	-0.298520
N170	N	1.287392	-0.521468	-0.048520
N171	N	1.537392	-0.271468	0.201480
N172	N	1.787392	-0.021468	0.451480
C173	C	0.978133	-0.739590	-0.303293
C174	C	1.228133	-0.489590	-0.053293
C175	C	1.478133	-0.239590	0.196707
C176	C	1.728133	0.010410	0.446707
C177	C	1.021538	-0.970517	-0.263110
C178	C	1.271538	-0.720517	-0.013110
C179	C	1.521538	-0.470517	0.236890
C180	C	1.771538	-0.220517	0.486890
C181	C	1.021571	-1.036261	-0.263129
C182	C	1.271571	-0.786261	-0.013129
C183	C	1.521571	-0.536261	0.236871
C184	C	1.771571	-0.286261	0.486871
C185	C	0.934952	-1.036288	-0.343571
C186	C	1.184952	-0.786288	-0.093571
C187	C	1.434952	-0.536288	0.156429
C188	C	1.684952	-0.286288	0.406429
C189	C	0.934925	-0.970545	-0.343556
C190	C	1.184925	-0.720545	-0.093556
C191	C	1.434925	-0.470545	0.156444
C192	C	1.684925	-0.220545	0.406444
C193	C	0.978217	-0.937664	-0.303322
C194	C	1.228217	-0.687664	-0.053322
C195	C	1.478217	-0.437664	0.196678
C196	C	1.728217	-0.187664	0.446678
C197	C	1.154666	-0.303315	-0.303304
C198	C	1.404666	-0.053315	-0.053304
C199	C	1.654666	0.196685	0.196696
C200	C	1.904666	0.446685	0.446696
C201	C	1.229898	-0.303321	-0.303313
C202	C	1.479898	-0.053321	-0.053313
C203	C	1.729898	0.196679	0.196687
C204	C	1.979898	0.446679	0.446687
C205	C	0.978179	-0.303290	-0.467473
C206	C	1.228179	-0.053290	-0.217473
C207	C	1.478179	0.196710	0.032527
C208	C	1.728179	0.446710	0.282527
C209	C	0.978203	-0.303284	-0.537441
C210	C	1.228203	-0.053284	-0.287441
C211	C	1.478203	0.196716	-0.037441
C212	C	1.728203	0.446716	0.212559
C213	C	0.978230	-0.139113	-0.303332
C214	C	1.228230	0.110887	-0.053332
C215	C	1.478230	0.360887	0.196668
C216	C	1.728230	0.610887	0.446668
C217	C	0.978276	-0.069144	-0.303353
C218	C	1.228276	0.180856	-0.053353
C219	C	1.478276	0.430856	0.196647
C220	C	1.728276	0.680856	0.446647
C221	C	1.021518	-0.263024	-0.570326
C222	C	1.271518	-0.013024	-0.320326
C223	C	1.521518	0.236976	-0.070326
C224	C	1.771518	0.486976	0.179674
C225	C	1.021517	-0.262996	-0.636069
C226	C	1.271517	-0.012996	-0.386069
C227	C	1.521517	0.237004	-0.136069
C228	C	1.771517	0.487004	0.113931
C229	C	0.978208	-0.303241	-0.668924
C230	C	1.228208	-0.053241	-0.418924
C231	C	1.478208	0.196759	-0.168924
C232	C	1.728208	0.446759	0.081076
C233	C	0.934885	-0.343504	-0.636031
C234	C	1.184885	-0.093504	-0.386031
C235	C	1.434885	0.156496	-0.136031
C236	C	1.684885	0.406496	0.113969
C237	C	0.934882	-0.343525	-0.570290
C238	C	1.184882	-0.093525	-0.320290
C239	C	1.434882	0.156475	-0.070290
C240	C	1.684882	0.406475	0.179710
N241	N	0.972986	-0.358308	-0.772139
N242	N	1.222986	-0.108308	-0.522139
N243	N	1.472986	0.141692	-0.272139
N244	N	1.722986	0.391692	-0.022139
N245	N	0.972993	-0.358286	-0.834591
N246	N	1.222993	-0.108286	-0.584591
N247	N	1.472993	0.141714	-0.334591
N248	N	1.722993	0.391714	-0.084591
C249	C	0.978213	-0.303177	-0.866999
C250	C	1.228213	-0.053177	-0.616999
C251	C	1.478213	0.196823	-0.366999
C252	C	1.728213	0.446823	-0.116999
N253	N	0.983439	-0.248089	-0.834596
N254	N	1.233439	0.001911	-0.584596
N255	N	1.483439	0.251911	-0.334596
N256	N	1.733439	0.501911	-0.084596
N257	N	0.983436	-0.248113	-0.772139
N258	N	1.233436	0.001887	-0.522139
N259	N	1.483436	0.251887	-0.272139
N260	N	1.733436	0.501887	-0.022139
C261	C	0.978206	-0.303221	-0.740209
C262	C	1.228206	-0.053221	-0.490209
C263	C	1.478206	0.196779	-0.240209
C264	C	1.728206	0.446779	0.009791
C265	C	1.021529	-0.262884	-0.971169
C266	C	1.271529	-0.012884	-0.721169
C267	C	1.521529	0.237116	-0.471169
C268	C	1.771529	0.487116	-0.221169
C269	C	1.021523	-0.262855	-1.036913
C270	C	1.271523	-0.012855	-0.786913
C271	C	1.521523	0.237145	-0.536913
C272	C	1.771523	0.487145	-0.286913
C273	C	0.934895	-0.343368	-1.036874
C274	C	1.184895	-0.093368	-0.786874
C275	C	1.434895	0.156632	-0.536874
C276	C	1.684895	0.406632	-0.286874
C277	C	0.934897	-0.343391	-0.971132
C278	C	1.184897	-0.093391	-0.721132
C279	C	1.434897	0.156609	-0.471132
C280	C	1.684897	0.406609	-0.221132
C281	C	0.978217	-0.303149	-0.938283
C282	C	1.228217	-0.053149	-0.688283
C283	C	1.478217	0.196851	-0.438283
C284	C	1.728217	0.446851	-0.188283
C285	C	0.978106	-0.303271	-0.139731
C286	C	1.228106	-0.053271	0.110269
C287	C	1.478106	0.196729	0.360269
C288	C	1.728106	0.446729	0.610269
C289	C	0.978213	-0.303099	-0.069764
C290	C	1.228213	-0.053099	0.180236
C291	C	1.478213	0.196901	0.430236
C292	C	1.728213	0.446901	0.680236
H293	H	0.720471	-0.376451	-0.376170
H294	H	0.970471	-0.126451	-0.126170
H295	H	1.220471	0.123549	0.123830
H296	H	1.470471	0.373549	0.373830
Br297	Br	1.080136	-0.525053	-0.208445
Br298	Br	1.330136	-0.275053	0.041555
Br299	Br	1.580136	-0.025053	0.291555
Br300	Br	1.830136	0.224947	0.541555
H301	H	0.899625	-0.376129	-1.063624
H302	H	1.149625	-0.126129	-0.813624
H303	H	1.399625	0.123871	-0.563624
H304	H	1.649625	0.373871	-0.313624
Br305	Br	0.875977	-0.525115	-0.398071
Br306	Br	1.125977	-0.275115	-0.148071
Br307	Br	1.375977	-0.025115	0.101929
Br308	Br	1.625977	0.224885	0.351929
Br309	Br	1.080323	-0.208221	-1.081544
Br310	Br	1.330323	0.041779	-0.831544
Br311	Br	1.580323	0.291779	-0.581544
Br312	Br	1.830323	0.541779	-0.331544
Br313	Br	0.876092	-0.398167	-0.525657
Br314	Br	1.126092	-0.148167	-0.275657
Br315	Br	1.376092	0.101833	-0.025657
Br316	Br	1.626092	0.351833	0.224343
Br317	Br	1.080289	-0.925889	-0.208507
Br318	Br	1.330289	-0.675889	0.041493
Br319	Br	1.580289	-0.425889	0.291493
Br320	Br	1.830289	-0.175889	0.541493
H321	H	0.592237	-0.376453	-0.376184
H322	H	0.842237	-0.126453	-0.126184
H323	H	1.092237	0.123547	0.123816
H324	H	1.342237	0.373547	0.373816
Br325	Br	1.080289	-0.208338	-0.680708
Br326	Br	1.330289	0.041662	-0.430708
Br327	Br	1.580289	0.291662	-0.180708
Br328	Br	1.830289	0.541662	0.069292
H329	H	0.899629	-0.376179	-0.944357
H330	H	1.149629	-0.126179	-0.694357
H331	H	1.399629	0.123821	-0.444357
H332	H	1.649629	0.373821	-0.194357
H333	H	0.364694	-0.230166	-0.230393
H334	H	0.614694	0.019834	0.019607
H335	H	0.864694	0.269834	0.269607
H336	H	1.114694	0.519834	0.519607
H337	H	1.056799	-0.230113	-0.944422
H338	H	1.306799	0.019887	-0.694422
H339	H	1.556799	0.269887	-0.444422
H340	H	1.806799	0.519887	-0.194422
H341	H	1.056848	-1.063008	-0.230382
H342	H	1.306848	-0.813008	0.019618
H343	H	1.556848	-0.563008	0.269618
H344	H	1.806848	-0.313008	0.519618
Br345	Br	0.217285	-0.398368	-0.398023
Br346	Br	0.467285	-0.148368	-0.148023
Br347	Br	0.717285	0.101632	0.101977
Br348	Br	0.967285	0.351632	0.351977
H349	H	0.899621	-0.376269	-0.662786
H350	H	1.149621	-0.126269	-0.412786
H351	H	1.399621	0.123731	-0.162786
H352	H	1.649621	0.373731	0.087214
H353	H	0.899703	-1.063064	-0.376324
H354	H	1.149703	-0.813064	-0.126324
H355	H	1.399703	-0.563064	0.123676
H356	H	1.649703	-0.313064	0.373676
H357	H	0.364711	-0.376465	-0.376199
H358	H	0.614711	-0.126465	-0.126199
H359	H	0.864711	0.123535	0.123801
H360	H	1.114711	0.373535	0.373801
H361	H	0.236459	-0.230171	-0.230406
H362	H	0.486459	0.019829	0.019594
H363	H	0.736459	0.269829	0.269594
H364	H	0.986459	0.519829	0.519594
Br365	Br	1.080194	-0.680012	-0.208472
Br366	Br	1.330194	-0.430012	0.041528
Br367	Br	1.580194	-0.180012	0.291528
Br368	Br	1.830194	0.069988	0.541528
H369	H	0.592217	-0.230155	-0.230385
H370	H	0.842217	0.019845	0.019615
H371	H	1.092217	0.269845	0.269615
H372	H	1.342217	0.519845	0.519615
H373	H	0.899651	-0.943795	-0.376300
H374	H	1.149651	-0.693795	-0.126300
H375	H	1.399651	-0.443795	0.123700
H376	H	1.649651	-0.193795	0.373700
H377	H	0.720463	-0.230144	-0.230373
H378	H	0.970463	0.019856	0.019627
H379	H	1.220463	0.269856	0.269627
H380	H	1.470463	0.519856	0.519627
H381	H	1.056792	-0.230255	-0.543585
H382	H	1.306792	0.019745	-0.293585
H383	H	1.556792	0.269745	-0.043585
H384	H	1.806792	0.519745	0.206415
H385	H	0.899541	-0.662227	-0.376250
H386	H	1.149541	-0.412227	-0.126250
H387	H	1.399541	-0.162227	0.123750
H388	H	1.649541	0.087773	0.373750
