data_functionalizedCrystal
_audit_creation_method	'MofGen! by Chris Wilmer'
_symmetry_space_group_name_H-M	'P1'
_symmetry_Int_Tables_number	1
_symmetry_cell_setting	triclinic
loop_
_symmetry_equiv_pos_as_xyz
  x,y,z
_cell_length_a	17.699077
_cell_length_b	12.811415
_cell_length_c	16.176319
_cell_angle_alpha	84.562354
_cell_angle_beta	89.993140
_cell_angle_gamma	83.663755
loop_
_atom_site_label
_atom_site_type_symbol
_atom_site_fract_x
_atom_site_fract_y
_atom_site_fract_z
O1	O	1.004676	0.132702	-0.078683
O2	O	0.784375	0.149978	-0.079982
O3	O	0.900067	-0.011467	-0.067872
O4	O	0.888984	0.294147	-0.090792
O5	O	0.900051	-0.011478	0.069621
O6	O	0.784359	0.149967	0.057512
O7	O	1.004660	0.132692	0.058811
Cu8	Cu	0.894508	0.141329	0.070716
Cu9	Cu	0.894527	0.141341	-0.091886
O10	O	0.888968	0.294137	0.046702
C11	C	0.756167	0.149355	-0.011189
C12	C	0.672140	0.147501	-0.011051
C13	C	0.632660	0.146622	0.063963
C14	C	0.553710	0.144863	0.064096
C15	C	0.514240	0.143991	-0.010787
C16	C	0.553726	0.144867	-0.085807
C17	C	0.632676	0.146618	-0.085938
C18	C	0.235331	0.137804	-0.085279
C19	C	0.156376	0.136056	-0.085142
C20	C	0.156365	0.136049	0.064755
C21	C	0.235315	0.137800	0.064624
C22	C	0.274794	0.138670	-0.010395
C23	C	0.360401	0.140575	-0.010538
C24	C	0.428634	0.142094	-0.010646
C25	C	0.899438	-0.050575	0.003805
C26	C	0.897577	-0.167089	0.012538
C27	C	0.894084	-0.386008	-0.120966
C28	C	0.892336	-0.495483	-0.112765
C29	C	0.892326	-0.495516	0.037140
C30	C	0.894075	-0.386040	0.028939
C31	C	0.894955	-0.331291	-0.050117
C32	C	0.896709	-0.221815	-0.058317
C33	C	0.896694	-0.221848	0.091587
C34	C	0.894945	-0.331323	0.099788
C35	C	1.032868	0.133315	-0.009983
C36	C	1.116895	0.135169	-0.010126
C37	C	0.889597	0.333245	-0.024977
C38	C	0.891458	0.449759	-0.033715
N39	N	0.894500	0.141320	0.185082
N40	N	0.894541	0.141342	-0.206252
C41	C	0.945744	0.069861	0.233706
C42	C	0.945748	0.069860	0.320253
C43	C	0.894511	0.141323	0.358174
C44	C	0.843261	0.212785	0.309544
C45	C	0.843254	0.212781	0.222999
C46	C	0.843287	0.212805	0.658571
C47	C	0.843300	0.212806	0.745122
C48	C	0.945781	0.069884	0.755825
C49	C	0.945774	0.069879	0.669280
C50	C	0.894522	0.141337	0.620658
C51	C	0.894518	0.141336	0.526814
C52	C	0.894518	0.141330	0.452016
H53	H	0.521570	0.144130	0.125181
H54	H	0.664790	0.147340	0.124941
O55	O	0.897636	-0.162822	0.168006
H56	H	0.948827	-0.193328	0.206221
H57	H	0.124242	0.135345	-0.146124
H58	H	0.124212	0.135335	0.125840
H59	H	0.801558	0.270990	0.618989
O60	O	0.675268	0.147564	-0.166843
H61	H	0.653605	0.218744	-0.208123
O62	O	0.277907	0.138749	-0.166189
H63	H	0.256237	0.209932	-0.207462
H64	H	0.521584	0.144150	-0.146778
H65	H	0.267447	0.138515	0.125601
H66	H	0.894807	-0.341432	-0.185336
O67	O	0.897649	-0.162754	-0.143579
H68	H	0.896739	-0.219198	-0.191467
O69	O	0.891384	-0.554503	-0.189180
H70	H	0.892288	-0.498036	-0.245527
O71	O	1.001034	-0.007201	0.372690
H72	H	0.991152	-0.089013	0.362217
H73	H	0.891604	-0.540110	0.101503
H74	H	0.894226	-0.375914	0.164153
H75	H	0.987471	0.011672	0.202836
H76	H	0.987499	0.011691	0.638407
H77	H	0.987511	0.011696	0.795423
O78	O	0.788046	0.289904	0.786027
H79	H	0.752406	0.339594	0.737678
H80	H	0.801539	0.270969	0.340425
H81	H	0.801525	0.270968	0.183410
