data_functionalizedCrystal
_audit_creation_method	'MofGen! by Chris Wilmer'
_symmetry_space_group_name_H-M	'P1'
_symmetry_Int_Tables_number	1
_symmetry_cell_setting	triclinic
loop_
_symmetry_equiv_pos_as_xyz
  x,y,z
_cell_length_a	19.121112
_cell_length_b	19.121063
_cell_length_c	19.120904
_cell_angle_alpha	94.741613
_cell_angle_beta	89.911155
_cell_angle_gamma	89.873133
loop_
_atom_site_label
_atom_site_type_symbol
_atom_site_fract_x
_atom_site_fract_y
_atom_site_fract_z
Zn1	Zn	1.039579	0.343505	0.456027
Zn2	Zn	1.039492	0.456148	0.343374
Zn3	Zn	0.927792	0.333517	0.333406
Zn4	Zn	0.917325	0.455676	0.455559
O5	O	0.981047	0.397212	0.397092
O6	O	1.137478	0.362825	0.445451
O7	O	1.029019	0.435899	0.243785
O8	O	0.947037	0.236577	0.345696
O9	O	1.137414	0.445584	0.362686
O10	O	1.029167	0.243915	0.435786
O11	O	0.946953	0.345802	0.236461
O12	O	0.828492	0.345344	0.345242
O13	O	0.929198	0.444779	0.553888
O14	O	0.820802	0.435094	0.434987
O15	O	1.019017	0.362368	0.554232
O16	O	1.018870	0.554351	0.362231
O17	O	0.929114	0.554005	0.444653
C18	C	0.799260	0.389085	0.388983
C19	C	0.721489	0.385625	0.385531
C20	C	0.281836	0.363681	0.363667
C21	C	0.354909	0.366935	0.366914
C22	C	0.387458	0.415361	0.415193
C23	C	0.346929	0.460531	0.460233
C24	C	0.273857	0.457272	0.456989
C25	C	0.607889	0.427537	0.427326
C26	C	0.680966	0.430793	0.430566
C27	C	0.688941	0.337196	0.337247
C28	C	0.615867	0.333945	0.334005
C29	C	0.575345	0.379112	0.379047
C30	C	0.462151	0.418690	0.418512
C31	C	0.500654	0.375779	0.375731
C32	C	0.972865	0.579659	0.404489
C33	C	0.969427	0.657714	0.407680
C34	C	0.972950	0.404635	0.580252
C35	C	0.969499	0.407798	0.658304
C36	C	1.163543	0.405371	0.405233
C37	C	1.241312	0.408848	0.408702
C38	C	0.989279	0.214054	0.389681
C39	C	0.992787	0.136003	0.386524
C40	C	1.014577	0.694545	0.366305
C41	C	1.011348	0.767887	0.369311
C42	C	0.962966	0.804396	0.413688
C43	C	0.917815	0.767560	0.455067
C44	C	0.921047	0.694220	0.452065
C45	C	0.950869	1.025827	0.424901
C46	C	0.947638	1.099172	0.427898
C47	C	1.041173	1.099494	0.342143
C48	C	1.044398	1.026152	0.339142
C49	C	0.999249	0.989323	0.380523
C50	C	0.959663	0.879362	0.416759
C51	C	1.002556	0.914358	0.377455
C52	C	0.989155	0.389769	0.214643
C53	C	0.992750	0.386414	0.136590
C54	C	1.014640	0.366379	0.695153
C55	C	1.011389	0.369348	0.768491
C56	C	0.963001	0.413741	0.804978
C57	C	0.917855	0.455161	0.768124
C58	C	0.921103	0.452188	0.694787
C59	C	0.950852	0.424861	1.026399
C60	C	0.947609	0.427833	1.099740
C61	C	1.041143	0.342018	1.100103
C62	C	1.044389	0.339052	1.026765
C63	C	0.999241	0.380470	0.989916
C64	C	0.959678	0.416778	0.879942
C65	C	1.002560	0.377428	0.914954
H66	H	0.373436	0.499957	0.499546
F67	F	0.715605	0.482338	0.481953
H68	H	1.083794	0.302905	0.997062
F69	F	0.873056	0.496271	0.655570
F70	F	0.564771	0.475611	0.475262
F71	F	1.054049	0.875501	0.330231
H72	H	1.077899	0.308297	1.130112
H73	H	1.077931	1.129488	0.308453
F74	F	0.866326	0.806418	0.502300
H75	H	1.083795	0.996428	0.303006
H76	H	1.048113	0.797871	0.335619
H77	H	0.884283	0.664233	0.485757
F78	F	1.054051	0.330177	0.876120
F79	F	0.902816	0.986640	0.468943
F80	F	0.908172	0.918224	0.463986
H81	H	1.054045	0.330232	0.665451
H82	H	0.908247	1.128897	0.464048
H83	H	0.255340	0.324247	0.324352
H84	H	0.908203	0.463984	1.129446
F85	F	1.059457	0.325289	0.807708
H86	H	0.920283	0.452926	0.909658
F87	F	0.230730	0.505344	0.504923
F88	F	1.066068	0.655695	0.319069
F89	F	0.902801	0.468943	0.987191
H90	H	0.878454	0.491304	0.797837
F91	F	0.732072	0.289127	0.289316
H92	H	0.589371	0.294516	0.294686
F93	F	0.398034	0.318857	0.318986
H94	H	0.488660	0.458121	0.457819
F95	F	0.466011	0.324239	0.324353
