data_functionalizedCrystal
_audit_creation_method	'MofGen! by Chris Wilmer'
_symmetry_space_group_name_H-M	'P1'
_symmetry_Int_Tables_number	1
_symmetry_cell_setting	triclinic
loop_
_symmetry_equiv_pos_as_xyz
  x,y,z
_cell_length_a	11.792241
_cell_length_b	10.489741
_cell_length_c	10.268362
_cell_angle_alpha	90.001054
_cell_angle_beta	90.000426
_cell_angle_gamma	84.366295
loop_
_atom_site_label
_atom_site_type_symbol
_atom_site_fract_x
_atom_site_fract_y
_atom_site_fract_z
O1	O	1.507381	0.174825	0.108173
O2	O	1.757381	0.424825	0.358173
O3	O	2.007381	0.674825	0.608173
O4	O	2.257381	0.924825	0.858173
O5	O	1.177089	0.192844	0.108203
O6	O	1.427089	0.442844	0.358203
O7	O	1.677089	0.692844	0.608203
O8	O	1.927089	0.942844	0.858203
O9	O	1.349751	-0.001789	0.108180
O10	O	1.599751	0.248211	0.358180
O11	O	1.849751	0.498211	0.608180
O12	O	2.099751	0.748211	0.858180
O13	O	1.334719	0.369458	0.108197
O14	O	1.584719	0.619458	0.358197
O15	O	1.834719	0.869458	0.608197
O16	O	2.084719	1.119458	0.858197
O17	O	1.349734	-0.001782	-0.108421
O18	O	1.599734	0.248218	0.141579
O19	O	1.849734	0.498218	0.391579
O20	O	2.099734	0.748218	0.641579
O21	O	1.177072	0.192850	-0.108397
O22	O	1.427072	0.442850	0.141603
O23	O	1.677072	0.692850	0.391603
O24	O	1.927072	0.942850	0.641603
O25	O	1.507365	0.174832	-0.108428
O26	O	1.757365	0.424832	0.141572
O27	O	2.007365	0.674832	0.391572
O28	O	2.257365	0.924832	0.641572
Cu29	Cu	1.342217	0.183842	-0.128190
Cu30	Cu	1.592217	0.433842	0.121810
Cu31	Cu	1.842217	0.683842	0.371810
Cu32	Cu	2.092217	0.933842	0.621810
Cu33	Cu	1.342236	0.183834	0.127965
Cu34	Cu	1.592236	0.433834	0.377965
Cu35	Cu	1.842236	0.683834	0.627965
Cu36	Cu	2.092236	0.933834	0.877965
O37	O	1.334703	0.369464	-0.108404
O38	O	1.584703	0.619464	0.141596
O39	O	1.834703	0.869464	0.391596
O40	O	2.084703	1.119464	0.641596
C41	C	1.134786	0.191715	-0.000093
C42	C	1.384786	0.441715	0.249907
C43	C	1.634786	0.691715	0.499907
C44	C	1.884786	0.941715	0.749907
C45	C	1.008764	0.188327	-0.000082
C46	C	1.258764	0.438327	0.249918
C47	C	1.508764	0.688327	0.499918
C48	C	1.758764	0.938327	0.749918
C49	C	1.348607	-0.049314	-0.000120
C50	C	1.598607	0.200686	0.249880
C51	C	1.848607	0.450686	0.499880
C52	C	2.098607	0.700686	0.749880
C53	C	1.345210	-0.190931	-0.000117
C54	C	1.595210	0.059069	0.249883
C55	C	1.845210	0.309069	0.499883
C56	C	2.095210	0.559069	0.749883
C57	C	0.778035	0.182098	-0.000120
C58	C	1.028035	0.432098	0.249880
C59	C	1.278035	0.682098	0.499880
C60	C	1.528035	0.932098	0.749880
C61	C	0.906429	0.185559	-0.000099
C62	C	1.156429	0.435559	0.249901
C63	C	1.406429	0.685559	0.499901
C64	C	1.656429	0.935559	0.749901
C65	C	1.235351	-0.258697	-0.000098
C66	C	1.485351	-0.008697	0.249902
C67	C	1.735351	0.241303	0.499902
C68	C	1.985351	0.491303	0.749902
C69	C	1.287239	-0.350993	-0.106898
C70	C	1.537239	-0.100993	0.143102
C71	C	1.787239	0.149007	0.393102
C72	C	2.037239	0.399007	0.643102
C73	C	1.287282	-0.350975	0.106654
C74	C	1.537282	-0.100975	0.356654
C75	C	1.787282	0.149025	0.606654
C76	C	2.037282	0.399025	0.856654
C77	C	1.397144	-0.281362	-0.107005
C78	C	1.647144	-0.031362	0.142995
C79	C	1.897144	0.218638	0.392995
C80	C	2.147144	0.468638	0.642995
C81	C	1.397171	-0.281334	0.106642
C82	C	1.647171	-0.031334	0.356642
C83	C	1.897171	0.218666	0.606642
C84	C	2.147171	0.468666	0.856642
C85	C	1.449140	-0.373603	-0.000184
C86	C	1.699140	-0.123603	0.249816
C87	C	1.949140	0.126397	0.499816
C88	C	2.199140	0.376397	0.749816
C89	C	1.549667	0.175960	-0.000128
C90	C	1.799667	0.425960	0.249872
C91	C	2.049667	0.675960	0.499872
C92	C	2.299667	0.925960	0.749872
C93	C	1.675690	0.179348	-0.000131
C94	C	1.925690	0.429348	0.249869
C95	C	2.175690	0.679348	0.499869
C96	C	2.425690	0.929348	0.749869
C97	C	1.335846	0.416989	-0.000102
C98	C	1.585846	0.666989	0.249898
C99	C	1.835846	0.916989	0.499898
C100	C	2.085846	1.166989	0.749898
C101	C	1.339243	0.558607	-0.000096
C102	C	1.589243	0.808607	0.249904
C103	C	1.839243	1.058607	0.499904
C104	C	2.089243	1.308607	0.749904
N105	N	1.342211	0.183846	-0.308356
N106	N	1.592211	0.433846	-0.058356
N107	N	1.842211	0.683846	0.191644
N108	N	2.092211	0.933846	0.441644
C109	C	1.342220	0.183847	-0.426198
C110	C	1.592220	0.433847	-0.176198
C111	C	1.842220	0.683847	0.073802
C112	C	2.092220	0.933847	0.323802
C113	C	1.342234	0.183836	-0.574036
C114	C	1.592234	0.433836	-0.324036
C115	C	1.842234	0.683836	-0.074036
C116	C	2.092234	0.933836	0.175964
N117	N	1.342251	0.183819	0.308131
N118	N	1.592251	0.433819	0.558131
N119	N	1.842251	0.683819	0.808131
N120	N	2.092251	0.933819	1.058131
H121	H	1.145025	-0.208738	-0.000197
H122	H	1.395025	0.041262	0.249803
H123	H	1.645025	0.291262	0.499803
H124	H	1.895025	0.541262	0.749803
H125	H	1.240791	-0.381783	0.196954
H126	H	1.490791	-0.131783	0.446954
H127	H	1.740791	0.118217	0.696954
H128	H	1.990791	0.368217	0.946954
H129	H	1.443581	-0.250686	-0.197398
H130	H	1.693581	-0.000686	0.052602
H131	H	1.943581	0.249314	0.302602
H132	H	2.193581	0.499314	0.552602
H133	H	1.240748	-0.381844	-0.197181
H134	H	1.490748	-0.131844	0.052819
H135	H	1.740748	0.118156	0.302819
H136	H	1.990748	0.368156	0.552819
H137	H	1.539547	-0.423335	-0.000252
H138	H	1.789547	-0.173335	0.249748
H139	H	2.039547	0.076665	0.499748
H140	H	2.289547	0.326665	0.749748
H141	H	1.443623	-0.250450	0.196930
H142	H	1.693623	-0.000450	0.446930
H143	H	1.943623	0.249550	0.696930
H144	H	2.193623	0.499550	0.946930
