data_functionalizedCrystal
_audit_creation_method	'MofGen! by Chris Wilmer'
_symmetry_space_group_name_H-M	'P1'
_symmetry_Int_Tables_number	1
_symmetry_cell_setting	triclinic
loop_
_symmetry_equiv_pos_as_xyz
  x,y,z
_cell_length_a	10.654541
_cell_length_b	9.130307
_cell_length_c	16.109301
_cell_angle_alpha	89.995658
_cell_angle_beta	96.027295
_cell_angle_gamma	90.002133
loop_
_atom_site_label
_atom_site_type_symbol
_atom_site_fract_x
_atom_site_fract_y
_atom_site_fract_z
O1	O	1.666258	0.121760	-0.116762
O2	O	1.300628	0.121773	-0.127890
O3	O	1.493488	0.121751	-0.001355
O4	O	1.473399	0.121782	-0.243297
O5	O	1.493474	-0.121848	-0.001355
O6	O	1.300615	-0.121826	-0.127890
O7	O	1.666245	-0.121839	-0.116762
Cu8	Cu	1.483428	-0.144075	-0.122326
Cu9	Cu	1.483445	0.144009	-0.122326
O10	O	1.473386	-0.121817	-0.243298
C11	C	1.253835	-0.000025	-0.127073
C12	C	1.114424	-0.000020	-0.124630
C13	C	1.084401	0.000017	-0.275937
C14	C	1.003896	0.000041	-0.350439
C15	C	0.872909	0.000043	-0.348139
C16	C	0.822426	0.000015	-0.271327
C17	C	0.902931	-0.000010	-0.196825
C18	C	1.033919	-0.000006	-0.199134
C19	C	0.932954	-0.000058	-0.045520
C20	C	1.063941	-0.000048	-0.047819
C21	C	0.882471	-0.000085	0.031291
C22	C	0.962976	-0.000099	0.105795
C23	C	1.093970	-0.000099	0.103491
C24	C	1.144446	-0.000073	0.026683
C25	C	1.492667	-0.000049	0.029625
C26	C	1.490227	-0.000051	0.121935
C27	C	1.713038	-0.000038	-0.117579
C28	C	1.852449	-0.000033	-0.120022
N29	N	1.483426	-0.346698	-0.122326
C30	C	1.654303	-0.653347	-0.010306
C31	C	1.739714	-0.576669	0.045703
C32	C	1.739698	-0.423336	0.045705
C33	C	1.654264	-0.346676	-0.010309
C34	C	1.568853	-0.423354	-0.066319
C35	C	1.568876	-0.576691	-0.066313
C36	C	1.398015	-0.423375	-0.178335
C37	C	1.398023	-0.576709	-0.178335
C38	C	1.312581	-0.346716	-0.234350
C39	C	1.227162	-0.423393	-0.290357
C40	C	1.227181	-0.576736	-0.290356
C41	C	1.312612	-0.653386	-0.234344
N42	N	1.483457	0.346632	-0.122320
C43	C	1.474206	-0.000014	-0.274277
C44	C	1.476646	-0.000002	-0.366587
C45	C	1.598994	-0.000032	0.343561
C46	C	1.596692	-0.000020	0.430295
C47	C	1.367871	-0.000017	0.411780
C48	C	1.370174	-0.000019	0.325047
C49	C	1.485739	-0.000034	0.290941
C50	C	1.481134	-0.000020	0.464407
C51	C	1.478637	-0.000007	0.558448
C52	C	1.488237	-0.000044	0.196894
H53	H	0.921861	-0.000121	0.168329
H54	H	1.809276	-0.639099	0.091309
H55	H	1.688915	-0.000015	0.473136
H56	H	1.045014	0.000060	-0.412978
C57	C	1.833649	-0.338983	0.107315
C58	C	1.784599	-0.233587	0.171200
C59	C	1.878550	-0.149235	0.232809
C60	C	2.021551	-0.170278	0.230534
C61	C	2.070608	-0.275679	0.166647
C62	C	1.976657	-0.360031	0.105037
H63	H	1.678735	-0.218005	0.172886
H64	H	1.842234	-0.071210	0.280103
H65	H	2.091099	-0.107836	0.276141
H66	H	2.176472	-0.291261	0.164960
H67	H	2.012974	-0.438056	0.057744
C68	C	1.133194	-0.339071	-0.351968
C69	C	0.990199	-0.360169	-0.349690
C70	C	0.896228	-0.275841	-0.411301
C71	C	0.945252	-0.170416	-0.475192
C72	C	1.088255	-0.149314	-0.477473
C73	C	1.182226	-0.233642	-0.415861
H74	H	0.953902	-0.438215	-0.302392
H75	H	0.790367	-0.291463	-0.409612
H76	H	0.875689	-0.107992	-0.520801
H77	H	1.124552	-0.071268	-0.524771
H78	H	1.288086	-0.218020	-0.417550
C79	C	1.133225	-0.661076	-0.351969
C80	C	0.990226	-0.640014	-0.349695
C81	C	0.896268	-0.724347	-0.411309
C82	C	0.945309	-0.829741	-0.475198
C83	C	1.088316	-0.850807	-0.477475
C84	C	1.182273	-0.766474	-0.415861
H85	H	0.953916	-0.561991	-0.302398
H86	H	0.790405	-0.708752	-0.409623
H87	H	0.875756	-0.892169	-0.520808
H88	H	1.124625	-0.928830	-0.524772
H89	H	1.288136	-0.782070	-0.417547
H90	H	1.273781	-0.000008	0.439561
H91	H	1.277943	-0.000016	0.282201
H92	H	1.693094	-0.000041	0.315794
H93	H	1.654267	-0.221824	-0.010311
H94	H	1.312577	-0.221864	-0.234350
H95	H	1.312630	-0.778239	-0.234336
H96	H	0.775813	-0.000092	0.033159
H97	H	1.191055	0.000048	-0.277818
H98	H	0.807361	0.000052	-0.408805
H99	H	1.251100	-0.000055	0.024800
H100	H	0.715768	-0.000002	-0.269461
H101	H	1.159511	-0.000124	0.164161
H102	H	1.654314	-0.778199	-0.010295
