data_functionalizedCrystal
_audit_creation_method	'MofGen! by Chris Wilmer'
_symmetry_space_group_name_H-M	'P1'
_symmetry_Int_Tables_number	1
_symmetry_cell_setting	triclinic
loop_
_symmetry_equiv_pos_as_xyz
  x,y,z
_cell_length_a	21.395364
_cell_length_b	18.050589
_cell_length_c	21.395355
_cell_angle_alpha	89.987098
_cell_angle_beta	89.975448
_cell_angle_gamma	90.043172
loop_
_atom_site_label
_atom_site_type_symbol
_atom_site_fract_x
_atom_site_fract_y
_atom_site_fract_z
Zn1	Zn	0.957870	-0.295449	-0.354286
Zn2	Zn	0.957777	-0.419621	-0.249519
Zn3	Zn	0.853085	-0.295482	-0.249523
Zn4	Zn	0.853059	-0.419634	-0.354259
O5	O	0.905448	-0.357547	-0.301897
O6	O	1.045536	-0.311902	-0.340398
O7	O	0.943862	-0.403162	-0.161841
O8	O	0.867035	-0.191553	-0.263433
O9	O	1.045467	-0.403130	-0.263426
O10	O	0.944020	-0.191529	-0.340402
O11	O	0.866945	-0.311957	-0.161844
O12	O	0.765404	-0.311970	-0.263406
O13	O	0.866990	-0.403153	-0.441940
O14	O	0.765384	-0.403184	-0.340356
O15	O	0.943995	-0.311915	-0.441960
O16	O	0.943836	-0.523547	-0.263400
O17	O	0.866900	-0.523557	-0.340352
C18	C	0.742660	-0.357583	-0.301879
C19	C	0.673019	-0.357616	-0.301886
C20	C	0.640364	-0.310191	-0.342028
C21	C	0.574928	-0.310171	-0.342030
C22	C	0.542151	-0.357590	-0.301898
C23	C	0.574814	-0.405018	-0.261749
C24	C	0.640248	-0.405031	-0.261743
C25	C	0.438429	-0.424470	-0.296866
C26	C	0.372996	-0.424458	-0.296876
C27	C	0.340330	-0.357549	-0.301912
C28	C	0.373105	-0.290650	-0.306951
C29	C	0.438539	-0.290663	-0.306945
C30	C	0.471198	-0.357581	-0.301899
C31	C	0.236722	-0.310099	-0.342058
C32	C	0.171285	-0.310078	-0.342056
C33	C	0.171172	-0.404931	-0.261778
C34	C	0.236607	-0.404945	-0.261776
C35	C	0.269379	-0.357530	-0.301920
C36	C	0.905372	-0.550499	-0.301886
C37	C	0.905397	-0.633045	-0.301903
C38	C	0.863600	-0.832527	-0.343735
C39	C	0.848322	-0.881960	-0.286561
C40	C	0.905459	-0.784175	-0.301911
C41	C	0.920768	-0.881824	-0.359090
C42	C	0.905517	-0.930160	-0.301924
C43	C	0.890150	-0.832520	-0.244707
C44	C	0.962622	-0.832380	-0.317275
C45	C	0.947366	-0.881790	-0.260062
C46	C	0.905423	-0.700077	-0.301904
C47	C	0.905552	-1.014256	-0.301924
C48	C	1.068871	-0.357511	-0.301915
C49	C	1.138512	-0.357496	-0.301922
C50	C	0.905500	-0.357532	-0.465320
C51	C	0.905522	-0.357525	-0.534961
C52	C	0.905541	-0.163841	-0.301921
C53	C	0.905580	-0.081295	-0.301931
C54	C	0.945616	-0.310015	-0.567686
C55	C	0.945616	-0.309983	-0.633121
C56	C	0.905527	-0.357475	-0.665830
C57	C	0.865425	-0.404988	-0.633097
C58	C	0.865422	-0.405013	-0.567663
C59	C	0.900553	-0.424345	-0.769501
C60	C	0.900560	-0.424321	-0.834934
C61	C	0.905531	-0.357396	-0.867650
C62	C	0.910508	-0.290493	-0.834926
C63	C	0.910505	-0.290518	-0.769492
C64	C	0.905525	-0.357452	-0.736782
C65	C	0.945626	-0.309848	-0.971327
C66	C	0.945621	-0.309814	-1.036764
C67	C	0.865433	-0.404825	-1.036739
C68	C	0.865435	-0.404852	-0.971304
C69	C	0.905535	-0.357364	-0.938602
C70	C	0.905432	-0.357508	-0.139109
C71	C	0.905531	-0.357305	-0.069468
H72	H	0.548335	-0.271549	-0.374717
C73	C	0.895085	-0.497915	-0.870924
N74	N	0.890960	-0.553348	-0.898030
C75	C	0.938230	-0.911082	-0.424410
N76	N	0.951378	-0.933115	-0.473611
H77	H	0.346510	-0.236166	-0.311051
C78	C	0.783048	-0.911380	-0.269008
N79	N	0.733883	-0.933538	-0.255791
H80	H	0.465222	-0.236191	-0.311046
C81	C	0.872610	-0.803386	-0.179369
N82	N	0.859396	-0.781440	-0.130159
C83	C	0.989719	-0.257767	-0.531717
N84	N	1.022935	-0.218410	-0.504625
H85	H	0.982789	-0.903285	-0.224658
H86	H	0.263406	-0.271486	-0.374741
C87	C	1.027873	-0.802925	-0.334858
N88	N	1.077018	-0.780733	-0.348110
C89	C	0.821314	-0.457281	-0.531665
N90	N	0.788093	-0.496652	-0.504550
C91	C	0.135365	-0.257903	-0.386216
N92	N	0.108309	-0.218604	-0.419479
C93	C	0.989728	-0.257721	-0.669125
N94	N	1.022955	-0.218359	-0.696242
H95	H	0.914556	-0.236044	-0.742851
C96	C	0.915974	-0.216869	-0.870910
N97	N	0.920092	-0.161418	-0.898015
H98	H	0.263196	-0.443567	-0.229091
H99	H	0.978275	-0.271176	-0.944700
C100	C	0.474354	-0.498081	-0.291329
N101	N	0.501413	-0.553523	-0.287160
C102	C	0.989729	-0.257546	-1.072761
N103	N	1.022953	-0.218176	-1.099874
H104	H	0.832786	-0.443486	-1.063369
H105	H	0.832790	-0.443544	-0.944659
C106	C	0.135120	-0.457091	-0.217631
N107	N	0.107963	-0.496379	-0.184377
H108	H	0.346315	-0.478932	-0.292776
H109	H	0.828150	-0.810895	-0.379053
C110	C	0.895097	-0.497974	-0.733519
N111	N	0.890992	-0.553430	-0.706418
H112	H	0.548122	-0.443626	-0.229072
H113	H	0.832782	-0.443653	-0.659733
H114	H	0.666835	-0.443652	-0.229054
H115	H	0.667042	-0.271581	-0.374715
