data_functionalizedCrystal
_audit_creation_method	'MofGen! by Chris Wilmer'
_symmetry_space_group_name_H-M	'P1'
_symmetry_Int_Tables_number	1
_symmetry_cell_setting	triclinic
loop_
_symmetry_equiv_pos_as_xyz
  x,y,z
_cell_length_a	19.188925
_cell_length_b	19.188930
_cell_length_c	9.565339
_cell_angle_alpha	89.995116
_cell_angle_beta	89.995513
_cell_angle_gamma	83.143665
loop_
_atom_site_label
_atom_site_type_symbol
_atom_site_fract_x
_atom_site_fract_y
_atom_site_fract_z
O1	O	0.926147	0.087144	-0.116306
O2	O	1.176147	0.337144	0.133694
O3	O	1.426147	0.587144	0.383694
O4	O	1.676147	0.837144	0.633694
O5	O	0.722835	0.098883	-0.116304
O6	O	0.972835	0.348883	0.133696
O7	O	1.222835	0.598883	0.383696
O8	O	1.472835	0.848883	0.633696
O9	O	0.830358	-0.008642	-0.116278
O10	O	1.080358	0.241358	0.133722
O11	O	1.330358	0.491358	0.383722
O12	O	1.580358	0.741358	0.633722
O13	O	0.818624	0.194669	-0.116332
O14	O	1.068624	0.444669	0.133668
O15	O	1.318624	0.694669	0.383668
O16	O	1.568624	0.944669	0.633668
O17	O	0.830350	-0.008635	0.116243
O18	O	1.080350	0.241365	0.366243
O19	O	1.330350	0.491365	0.616243
O20	O	1.580350	0.741365	0.866243
O21	O	0.722827	0.098889	0.116216
O22	O	0.972827	0.348889	0.366216
O23	O	1.222827	0.598889	0.616216
O24	O	1.472827	0.848889	0.866216
O25	O	0.926138	0.087151	0.116214
O26	O	1.176138	0.337151	0.366214
O27	O	1.426138	0.587151	0.616214
O28	O	1.676138	0.837151	0.866214
Zn29	Zn	0.824481	0.093021	0.153133
Zn30	Zn	1.074481	0.343021	0.403133
Zn31	Zn	1.324481	0.593021	0.653133
Zn32	Zn	1.574481	0.843021	0.903133
Zn33	Zn	0.824492	0.093012	-0.153222
Zn34	Zn	1.074492	0.343012	0.096778
Zn35	Zn	1.324492	0.593012	0.346778
Zn36	Zn	1.574492	0.843012	0.596778
O37	O	0.818615	0.194676	0.116188
O38	O	1.068615	0.444676	0.366188
O39	O	1.318615	0.694676	0.616188
O40	O	1.568615	0.944676	0.866188
C41	C	0.696820	0.098507	-0.000043
C42	C	0.946820	0.348507	0.249957
C43	C	1.196820	0.598507	0.499957
C44	C	1.446820	0.848507	0.749957
C45	C	0.619315	0.097367	-0.000041
C46	C	0.869315	0.347367	0.249959
C47	C	1.119315	0.597367	0.499959
C48	C	1.369315	0.847367	0.749959
C49	C	0.057545	0.152831	-0.000060
C50	C	0.307545	0.402831	0.249940
C51	C	0.557545	0.652831	0.499940
C52	C	0.807545	0.902831	0.749940
C53	C	0.130368	0.153908	-0.000067
C54	C	0.380368	0.403908	0.249933
C55	C	0.630368	0.653908	0.499933
C56	C	0.880368	0.903908	0.749933
C57	C	0.175302	0.090816	-0.000048
C58	C	0.425302	0.340816	0.249952
C59	C	0.675302	0.590816	0.499952
C60	C	0.925302	0.840816	0.749952
C61	C	0.147408	0.026642	-0.000057
C62	C	0.397408	0.276642	0.249943
C63	C	0.647408	0.526642	0.499943
C64	C	0.897408	0.776642	0.749943
C65	C	0.074586	0.025568	-0.000063
C66	C	0.324586	0.275568	0.249937
C67	C	0.574586	0.525568	0.499937
C68	C	0.824586	0.775568	0.749937
N69	N	0.295977	0.045142	0.079116
N70	N	0.545977	0.295142	0.329116
N71	N	0.795977	0.545142	0.579116
N72	N	1.045977	0.795142	0.829116
N73	N	0.365154	0.046167	0.079125
N74	N	0.615154	0.296167	0.329125
N75	N	0.865154	0.546167	0.579125
N76	N	1.115154	0.796167	0.829125
C77	C	0.394712	0.094050	-0.000032
C78	C	0.644712	0.344050	0.249968
C79	C	0.894712	0.594050	0.499968
C80	C	1.144712	0.844050	0.749968
N81	N	0.352477	0.140879	-0.079181
N82	N	0.602477	0.390879	0.170819
N83	N	0.852477	0.640879	0.420819
N84	N	1.102477	0.890879	0.670819
N85	N	0.283293	0.139856	-0.079184
N86	N	0.533293	0.389856	0.170816
N87	N	0.783293	0.639856	0.420816
N88	N	1.033293	0.889856	0.670816
C89	C	0.254267	0.091974	-0.000042
C90	C	0.504267	0.341974	0.249958
C91	C	0.754267	0.591974	0.499958
C92	C	1.004267	0.841974	0.749958
C93	C	0.501561	0.159386	-0.000042
C94	C	0.751561	0.409386	0.249958
C95	C	1.001561	0.659386	0.499958
C96	C	1.251561	0.909386	0.749958
C97	C	0.574385	0.160460	-0.000059
C98	C	0.824385	0.410460	0.249941
C99	C	1.074385	0.660460	0.499941
C100	C	1.324385	0.910460	0.749941
C101	C	0.591425	0.033193	-0.000034
C102	C	0.841425	0.283193	0.249966
C103	C	1.091425	0.533193	0.499966
C104	C	1.341425	0.783193	0.749966
C105	C	0.518601	0.032121	-0.000031
C106	C	0.768601	0.282121	0.249969
C107	C	1.018601	0.532121	0.499969
C108	C	1.268601	0.782121	0.749969
C109	C	0.473673	0.095220	-0.000029
C110	C	0.723673	0.345220	0.249971
C111	C	0.973673	0.595220	0.499971
C112	C	1.223673	0.845220	0.749971
C113	C	0.829974	-0.034650	-0.000013
C114	C	1.079974	0.215350	0.249987
C115	C	1.329974	0.465350	0.499987
C116	C	1.579974	0.715350	0.749987
C117	C	0.828833	-0.112154	-0.000001
C118	C	1.078833	0.137846	0.249999
C119	C	1.328833	0.387846	0.499999
C120	C	1.578833	0.637846	0.749999
C121	C	0.891924	-0.157079	0.000005
C122	C	1.141924	0.092921	0.250005
C123	C	1.391924	0.342921	0.500005
C124	C	1.641924	0.592921	0.750005
C125	C	0.890852	-0.229903	-0.000018
C126	C	1.140852	0.020097	0.249982
C127	C	1.390852	0.270097	0.499982
C128	C	1.640852	0.520097	0.749982
C129	C	0.826686	-0.257799	-0.000018
C130	C	1.076686	-0.007799	0.249982
C131	C	1.326686	0.242201	0.499982
C132	C	1.576686	0.492201	0.749982
C133	C	0.763587	-0.212864	-0.000032
C134	C	1.013587	0.037136	0.249968
C135	C	1.263587	0.287136	0.499968
C136	C	1.513587	0.537136	0.749968
C137	C	0.764660	-0.140041	-0.000024
C138	C	1.014660	0.109959	0.249976
C139	C	1.264660	0.359959	0.499976
C140	C	1.514660	0.609959	0.749976
N141	N	0.777636	-0.365800	0.079113
N142	N	1.027636	-0.115800	0.329113
N143	N	1.277636	0.134200	0.579113
N144	N	1.527636	0.384200	0.829113
N145	N	0.776620	-0.434979	0.079108
N146	N	1.026620	-0.184979	0.329108
N147	N	1.276620	0.065021	0.579108
N148	N	1.526620	0.315021	0.829108
C149	C	0.823448	-0.477207	-0.000046
C150	C	1.073448	-0.227207	0.249954
C151	C	1.323448	0.022793	0.499954
C152	C	1.573448	0.272793	0.749954
N153	N	0.871340	-0.447645	-0.079178
N154	N	1.121340	-0.197645	0.170822
N155	N	1.371340	0.052355	0.420822
N156	N	1.621340	0.302355	0.670822
N157	N	0.872358	-0.378460	-0.079167
N158	N	1.122358	-0.128460	0.170833
N159	N	1.372358	0.121540	0.420833
N160	N	1.622358	0.371540	0.670833
C161	C	0.825515	-0.336761	-0.000028
C162	C	1.075515	-0.086761	0.249972
C163	C	1.325515	0.163239	0.499972
C164	C	1.575515	0.413239	0.749972
C165	C	0.885381	-0.601097	-0.000067
C166	C	1.135381	-0.351097	0.249933
C167	C	1.385381	-0.101097	0.499933
C168	C	1.635381	0.148903	0.749933
C169	C	0.884307	-0.673922	-0.000098
C170	C	1.134307	-0.423922	0.249902
C171	C	1.384307	-0.173922	0.499902
C172	C	1.634307	0.076078	0.749902
C173	C	0.757040	-0.656880	-0.000098
C174	C	1.007040	-0.406880	0.249902
C175	C	1.257040	-0.156880	0.499902
C176	C	1.507040	0.093120	0.749902
C177	C	0.758116	-0.584057	-0.000081
C178	C	1.008116	-0.334057	0.249919
C179	C	1.258116	-0.084057	0.499919
C180	C	1.508116	0.165943	0.749919
C181	C	0.822289	-0.556170	-0.000059
C182	C	1.072289	-0.306170	0.249941
C183	C	1.322289	-0.056170	0.499941
C184	C	1.572289	0.193830	0.749941
C185	C	0.952154	0.087527	-0.000049
C186	C	1.202154	0.337527	0.249951
C187	C	1.452154	0.587527	0.499951
C188	C	1.702154	0.837527	0.749951
C189	C	1.029658	0.088666	-0.000060
C190	C	1.279658	0.338666	0.249940
C191	C	1.529658	0.588666	0.499940
C192	C	1.779658	0.838666	0.749940
C193	C	0.819000	0.220684	-0.000079
C194	C	1.069000	0.470684	0.249921
C195	C	1.319000	0.720684	0.499921
C196	C	1.569000	0.970684	0.749921
C197	C	0.820140	0.298188	-0.000100
C198	C	1.070140	0.548188	0.249900
C199	C	1.320140	0.798188	0.499900
C200	C	1.570140	1.048188	0.749900
N201	N	0.824479	0.093027	0.362212
N202	N	1.074479	0.343027	0.612212
N203	N	1.324479	0.593027	0.862212
N204	N	1.574479	0.843027	1.112212
N205	N	0.824500	0.093001	-0.362302
N206	N	1.074500	0.343001	-0.112302
N207	N	1.324500	0.593001	0.137698
N208	N	1.574500	0.843001	0.387698
C209	C	0.774738	0.142737	0.453403
C210	C	1.024738	0.392737	0.703403
C211	C	1.274738	0.642737	0.953403
C212	C	1.524738	0.892737	1.203403
C213	C	0.837790	0.156091	0.546577
C214	C	1.087790	0.406091	0.796577
C215	C	1.337790	0.656091	1.046577
C216	C	1.587790	0.906091	1.296577
C217	C	0.761454	0.079678	0.546594
C218	C	1.011454	0.329678	0.796594
C219	C	1.261454	0.579678	1.046594
C220	C	1.511454	0.829678	1.296594
C221	C	0.887562	0.106412	0.453334
C222	C	1.137562	0.356412	0.703334
C223	C	1.387562	0.606412	0.953334
C224	C	1.637562	0.856412	1.203334
C225	C	0.811185	0.029972	0.453343
C226	C	1.061185	0.279972	0.703343
C227	C	1.311185	0.529972	0.953343
C228	C	1.561185	0.779972	1.203343
C229	C	0.874282	0.043299	0.546475
C230	C	1.124282	0.293299	0.796475
C231	C	1.374282	0.543299	1.046475
C232	C	1.624282	0.793299	1.296475
H233	H	0.628010	-0.018178	-0.000029
H234	H	0.878010	0.231822	0.249971
H235	H	1.128010	0.481822	0.499971
H236	H	1.378010	0.731822	0.749971
F237	F	0.695297	-0.242553	-0.000042
F238	F	0.945297	0.007447	0.249958
F239	F	1.195297	0.257447	0.499958
F240	F	1.445297	0.507447	0.749958
H241	H	0.464978	0.210765	-0.000043
H242	H	0.714978	0.460765	0.249957
H243	H	0.964978	0.710765	0.499957
H244	H	1.214978	0.960765	0.749957
F245	F	0.796443	-0.039690	0.399769
F246	F	1.046443	0.210310	0.649769
F247	F	1.296443	0.460310	0.899769
F248	F	1.546443	0.710310	1.149769
H249	H	0.495896	-0.020129	-0.000024
H250	H	0.745896	0.229871	0.249976
H251	H	0.995896	0.479871	0.499976
H252	H	1.245896	0.729871	0.749976
F253	F	0.852507	0.225774	0.600107
F254	F	1.102507	0.475774	0.850107
F255	F	1.352507	0.725774	1.100107
F256	F	1.602507	0.975774	1.350107
F257	F	0.691777	0.064934	0.600141
F258	F	0.941777	0.314934	0.850141
F259	F	1.191777	0.564934	1.100141
F260	F	1.441777	0.814934	1.350141
H261	H	0.937635	-0.578390	-0.000055
H262	H	1.187635	-0.328390	0.249945
H263	H	1.437635	-0.078390	0.499945
H264	H	1.687635	0.171610	0.749945
H265	H	0.020968	0.204211	-0.000064
H266	H	0.270968	0.454211	0.249936
H267	H	0.520968	0.704211	0.499936
H268	H	0.770968	0.954211	0.749936
F269	F	0.957256	0.121237	0.400022
F270	F	1.207256	0.371237	0.650022
F271	F	1.457256	0.621237	0.900022
F272	F	1.707256	0.871237	1.150022
H273	H	0.153078	0.206160	-0.000054
H274	H	0.403078	0.456160	0.249946
H275	H	0.653078	0.706160	0.499946
H276	H	0.903078	0.956160	0.749946
F277	F	0.195232	-0.040505	-0.000041
F278	F	0.445232	0.209495	0.249959
F279	F	0.695232	0.459495	0.499959
F280	F	0.945232	0.709495	0.749959
H281	H	0.051883	-0.026685	-0.000064
H282	H	0.301883	0.223315	0.249936
H283	H	0.551883	0.473315	0.499936
H284	H	0.801883	0.723315	0.749936
F285	F	0.960223	-0.127404	-0.000002
F286	F	1.210223	0.122596	0.249998
F287	F	1.460223	0.372596	0.499998
F288	F	1.710223	0.622596	0.749998
H289	H	0.916402	0.001247	0.587084
H290	H	1.166402	0.251247	0.837084
H291	H	1.416402	0.501247	1.087084
H292	H	1.666402	0.751247	1.337084
F293	F	0.958005	-0.277725	-0.000013
F294	F	1.208005	-0.027725	0.249987
F295	F	1.458005	0.222275	0.499987
F296	F	1.708005	0.472275	0.749987
F297	F	0.697507	-0.092227	-0.000031
F298	F	0.947507	0.157773	0.249969
F299	F	1.197507	0.407773	0.499969
F300	F	1.447507	0.657773	0.749969
H301	H	0.935686	-0.710500	-0.000100
H302	H	1.185686	-0.460500	0.249900
H303	H	1.435686	-0.210500	0.499900
H304	H	1.685686	0.039500	0.749900
F305	F	0.688749	-0.686564	-0.000106
F306	F	0.938749	-0.436564	0.249894
F307	F	1.188749	-0.186564	0.499894
F308	F	1.438749	0.063436	0.749894
H309	H	0.597088	0.212713	-0.000070
H310	H	0.847088	0.462713	0.249930
H311	H	1.097088	0.712713	0.499930
H312	H	1.347088	0.962713	0.749930
H313	H	0.706740	-0.547478	-0.000078
H314	H	0.956740	-0.297478	0.249922
H315	H	1.206740	-0.047478	0.499922
H316	H	1.456740	0.202522	0.749922
F317	F	0.719807	0.197732	0.399982
F318	F	0.969807	0.447732	0.649982
F319	F	1.219807	0.697732	0.899982
F320	F	1.469807	0.947732	1.149982
