data_functionalizedCrystal
_audit_creation_method	'MofGen! by Chris Wilmer'
_symmetry_space_group_name_H-M	'P1'
_symmetry_Int_Tables_number	1
_symmetry_cell_setting	triclinic
loop_
_symmetry_equiv_pos_as_xyz
  x,y,z
_cell_length_a	16.109301
_cell_length_b	14.971486
_cell_length_c	14.048226
_cell_angle_alpha	90.001501
_cell_angle_beta	89.992144
_cell_angle_gamma	96.462195
loop_
_atom_site_label
_atom_site_type_symbol
_atom_site_fract_x
_atom_site_fract_y
_atom_site_fract_z
O1	O	0.108348	-1.186791	-0.079054
O2	O	0.121323	-0.926372	-0.079081
O3	O	-0.006187	-1.063735	-0.079057
O4	O	0.235857	-1.049427	-0.079078
O5	O	-0.006194	-1.063719	0.079264
O6	O	0.121315	-0.926355	0.079241
O7	O	0.108340	-1.186774	0.079267
Zn8	Zn	0.114826	-1.056562	0.104391
Zn9	Zn	0.114836	-1.056584	-0.104204
O10	O	0.235850	-1.049411	0.079244
C11	C	0.120739	-0.893040	0.000077
C12	C	0.119000	-0.793745	0.000067
C13	C	-0.037166	-1.063147	0.000104
C14	C	-0.129464	-1.061410	0.000105
C15	C	0.108924	-1.220106	0.000108
C16	C	0.110663	-1.319401	0.000111
C17	C	-0.351640	-1.138878	0.000098
C18	C	-0.438362	-1.137239	0.000090
C19	C	-0.418691	-0.974262	0.000077
C20	C	-0.331970	-0.975902	0.000078
C21	C	-0.298447	-1.058213	0.000094
C22	C	-0.471890	-1.054933	0.000085
C23	C	-0.565918	-1.053155	0.000076
C24	C	-0.204413	-1.059992	0.000101
C25	C	0.266829	-1.049999	0.000080
C26	C	0.359127	-1.051736	0.000073
N27	N	0.114819	-1.056554	0.246752
C28	C	0.193908	-0.736412	0.000062
C29	C	0.192269	-0.643115	0.000076
C30	C	0.115721	-0.607153	0.000089
C31	C	0.040807	-0.664494	0.000097
C32	C	0.042447	-0.757789	0.000089
C33	C	0.037395	-0.470036	0.000110
C34	C	0.035755	-0.376734	0.000116
C35	C	0.187217	-0.355362	0.000097
C36	C	0.188857	-0.448657	0.000090
C37	C	0.113942	-0.505991	0.000096
N38	N	0.114837	-1.056599	-0.246565
C39	C	0.058381	-1.117397	0.296580
C40	C	0.058381	-1.117403	0.396238
C41	C	0.114823	-1.056570	0.446065
C42	C	0.171263	-0.995719	0.396230
C43	C	0.171259	-0.995710	0.296574
C44	C	0.171269	-0.995745	0.603944
C45	C	0.171275	-0.995756	0.703607
C46	C	0.058391	-1.117439	0.703608
C47	C	0.058387	-1.117429	0.603952
C48	C	0.114829	-1.056580	0.554123
H49	H	-0.324348	-1.205901	0.000108
H50	H	-0.018551	-0.804470	0.000093
H51	H	0.012434	-1.166984	0.744184
O52	O	0.003650	-1.176546	0.248118
C53	C	0.048225	-1.231695	0.190406
H54	H	0.113791	-1.233244	0.220422
H55	H	0.014373	-1.302779	0.189234
H56	H	0.052556	-1.203658	0.114897
H57	H	-0.481669	-1.202924	0.000092
O58	O	-0.451219	-0.894287	-0.000099
C59	C	-0.424020	-0.845111	-0.082087
H60	H	-0.405928	-0.893245	-0.139394
H61	H	-0.476588	-0.807073	-0.109612
H62	H	-0.367553	-0.795251	-0.063553
O63	O	-0.280259	-0.897563	-0.000094
C64	C	-0.229486	-0.893656	-0.082080
H65	H	-0.261198	-0.939408	-0.139385
H66	H	-0.219797	-0.821607	-0.109610
H67	H	-0.166407	-0.916794	-0.063541
O68	O	0.226005	-0.936643	0.248020
C69	C	0.213912	-0.949692	0.149377
H70	H	0.147862	-0.983143	0.135777
H71	H	0.223055	-0.881951	0.111511
H72	H	0.261040	-0.994530	0.121078
H73	H	0.012432	-1.166969	0.563383
H74	H	0.012424	-1.166946	0.436808
O75	O	0.268341	-0.771192	0.000091
C76	C	0.334104	-0.700578	0.000067
H77	H	0.310731	-0.637210	0.030048
H78	H	0.387541	-0.720059	0.046025
H79	H	0.357219	-0.687364	-0.075889
O80	O	0.226121	-0.936564	0.751863
C81	C	0.275942	-0.882859	0.686517
H82	H	0.241856	-0.881865	0.615481
H83	H	0.288494	-0.811428	0.715319
H84	H	0.337761	-0.911856	0.675908
O85	O	0.226132	-0.936760	0.555433
C86	C	0.277507	-0.984640	0.497788
H87	H	0.244499	-1.054637	0.482859
H88	H	0.290600	-0.947299	0.427711
H89	H	0.338966	-0.990700	0.536180
H90	H	-0.026577	-0.347458	0.000128
H91	H	0.253267	-0.596437	0.000071
H92	H	0.251189	-0.477934	0.000070
O93	O	0.226120	-0.936535	0.444481
C94	C	0.275944	-0.882842	0.379128
H95	H	0.241852	-0.881841	0.308097
H96	H	0.288514	-0.811412	0.407928
H97	H	0.337755	-0.911856	0.368512
O98	O	0.259937	-0.299584	-0.000034
C99	C	0.263530	-0.244989	-0.082037
H100	H	0.197533	-0.240286	-0.109358
H101	H	0.294434	-0.174862	-0.063596
H102	H	0.301528	-0.275670	-0.139465
O103	O	-0.035454	-0.525604	0.000069
C104	C	-0.103370	-0.473860	0.000099
H105	H	-0.082334	-0.404219	-0.029865
H106	H	-0.155855	-0.508287	-0.045870
H107	H	-0.126839	-0.467233	0.076055
H108	H	-0.021520	-0.635206	0.000121
