data_functionalizedCrystal
_audit_creation_method	'MofGen! by Chris Wilmer'
_symmetry_space_group_name_H-M	'P1'
_symmetry_Int_Tables_number	1
_symmetry_cell_setting	triclinic
loop_
_symmetry_equiv_pos_as_xyz
  x,y,z
_cell_length_a	10.540539
_cell_length_b	9.065218
_cell_length_c	9.016244
_cell_angle_alpha	89.992557
_cell_angle_beta	90.000067
_cell_angle_gamma	95.229312
loop_
_atom_site_label
_atom_site_type_symbol
_atom_site_fract_x
_atom_site_fract_y
_atom_site_fract_z
O1	O	0.186140	-1.959478	0.123336
O2	O	0.201409	-1.530117	0.123338
O3	O	0.009104	-1.754594	0.123335
O4	O	0.378445	-1.735002	0.123339
O5	O	0.009108	-1.754561	-0.123346
O6	O	0.201413	-1.530084	-0.123343
O7	O	0.186144	-1.959445	-0.123344
Cu8	Cu	0.193779	-1.744762	-0.145868
Cu9	Cu	0.193774	-1.744801	0.145861
O10	O	0.378449	-1.734969	-0.123342
C11	C	0.199943	-1.475122	-0.000002
C12	C	0.195556	-1.311301	-0.000002
C13	C	-0.038202	-1.753108	-0.000003
C14	C	-0.179167	-1.748712	0.000005
C15	C	0.187610	-2.014441	-0.000001
C16	C	0.191997	-2.178262	0.000008
C17	C	-0.363216	-1.580278	0.000560
C18	C	-0.216582	-1.584734	0.000004
C19	C	-0.240530	-1.827607	-0.140862
C20	C	-0.387095	-1.822011	-0.140980
C21	C	-0.387606	-1.825383	0.139542
C22	C	-0.240619	-1.826894	0.141404
C23	C	0.425755	-1.736455	-0.000001
C24	C	0.566719	-1.740851	0.000001
N25	N	0.193782	-1.744745	-0.351054
C26	C	0.296304	-1.624297	-0.586085
C27	C	0.296691	-1.624563	-0.414194
C28	C	0.224486	-1.899006	-0.413392
C29	C	0.225212	-1.898349	-0.585337
C30	C	0.060224	-1.712464	-0.585599
C31	C	0.061076	-1.708925	-0.413644
N32	N	0.193761	-1.744829	0.351047
H33	H	-0.174210	-1.522654	0.100984
H34	H	-0.217731	-1.948027	-0.146100
Cl35	Cl	-0.057624	-1.848143	-0.648364
H36	H	-0.198132	-1.772775	-0.245690
Cl37	Cl	-0.430968	-1.731938	-0.303550
Cl38	Cl	-0.436607	-1.743452	0.304386
H39	H	-0.018942	-1.790897	-0.370669
H40	H	-0.199975	-1.769167	0.245614
Cl41	Cl	-0.407741	-1.480282	0.156525
H42	H	-0.393661	-1.515753	-0.099892
H43	H	-0.175055	-1.522192	-0.101143
Cl44	Cl	-0.202536	-2.011477	0.154548
H45	H	-0.434394	-1.943824	0.140489
Cl46	Cl	0.373234	-1.943691	-0.346888
Cl47	Cl	-0.460487	-2.004079	-0.150869
H48	H	0.031137	-1.602353	-0.629046
H49	H	0.278026	-1.509318	-0.627478
H50	H	0.278136	-1.509943	-0.372050
H51	H	0.394803	-1.644830	-0.629277
H52	H	0.153565	-1.990915	-0.626921
Cl53	Cl	0.449647	-1.656625	-0.350654
Cl54	Cl	0.025157	-1.533716	-0.350744
Cl55	Cl	0.375655	-1.942048	-0.647237
H56	H	0.151862	-1.990890	-0.372489
