data_functionalizedCrystal
_audit_creation_method	'MofGen! by Chris Wilmer'
_symmetry_space_group_name_H-M	'P1'
_symmetry_Int_Tables_number	1
_symmetry_cell_setting	triclinic
loop_
_symmetry_equiv_pos_as_xyz
  x,y,z
_cell_length_a	12.827893
_cell_length_b	16.959453
_cell_length_c	12.827885
_cell_angle_alpha	89.966028
_cell_angle_beta	89.980728
_cell_angle_gamma	90.020149
loop_
_atom_site_label
_atom_site_type_symbol
_atom_site_fract_x
_atom_site_fract_y
_atom_site_fract_z
Zn1	Zn	1.597638	-0.314640	-0.590813
Zn2	Zn	2.097638	0.185360	-0.090813
Zn3	Zn	1.597518	-0.446839	-0.416060
Zn4	Zn	2.097518	0.053161	0.083940
Zn5	Zn	1.422879	-0.314679	-0.416087
Zn6	Zn	1.922879	0.185321	0.083913
Zn7	Zn	1.422851	-0.446781	-0.590761
Zn8	Zn	1.922851	0.053219	-0.090761
O9	O	1.510221	-0.380735	-0.503430
O10	O	2.010221	0.119265	-0.003430
O11	O	1.743858	-0.332185	-0.567642
O12	O	2.243858	0.167815	-0.067642
O13	O	1.574313	-0.429348	-0.269828
O14	O	2.074313	0.070652	0.230172
O15	O	1.446123	-0.204063	-0.439298
O16	O	1.946123	0.295937	0.060702
O17	O	1.743770	-0.429311	-0.439252
O18	O	2.243770	0.070689	0.060748
O19	O	1.574518	-0.204034	-0.567668
O20	O	2.074518	0.295966	-0.067668
O21	O	1.446007	-0.332251	-0.269848
O22	O	1.946007	0.167749	0.230152
O23	O	1.276639	-0.332194	-0.439247
O24	O	1.776639	0.167806	0.060753
O25	O	1.446075	-0.429211	-0.737004
O26	O	1.946075	0.070789	-0.237004
O27	O	1.276619	-0.429249	-0.567580
O28	O	1.776619	0.070751	-0.067580
O29	O	1.574491	-0.332128	-0.737042
O30	O	2.074491	0.167872	-0.237042
O31	O	1.574286	-0.557442	-0.439202
O32	O	2.074286	-0.057442	0.060798
O33	O	1.445959	-0.557399	-0.567554
O34	O	1.945959	-0.057399	-0.067554
C35	C	1.238712	-0.380720	-0.503411
C36	C	1.738712	0.119280	-0.003411
C37	C	1.122558	-0.380733	-0.503428
C38	C	1.622558	0.119267	-0.003428
C39	C	0.950747	-0.428846	-0.566849
C40	C	1.450747	0.071154	-0.066849
C41	C	1.070797	-0.428834	-0.566833
C42	C	1.570797	0.071166	-0.066833
C43	C	1.510134	-0.586101	-0.503392
C44	C	2.010134	-0.086101	-0.003392
C45	C	1.510193	-0.673957	-0.503411
C46	C	2.010193	-0.173957	-0.003411
C47	C	1.577162	-1.045360	-0.570399
C48	C	2.077162	-0.545360	-0.070399
C49	C	1.443573	-1.045506	-0.436617
C50	C	1.943573	-0.545506	0.063383
C51	C	1.443534	-0.962961	-0.436593
C52	C	1.943534	-0.462961	0.063407
C53	C	1.510309	-0.921610	-0.503474
C54	C	2.010309	-0.421610	-0.003474
C55	C	1.577123	-0.962806	-0.570379
C56	C	2.077123	-0.462806	-0.070379
C57	C	1.376713	-0.921759	-0.369697
C58	C	1.876713	-0.421759	0.130303
C59	C	1.376671	-0.839208	-0.369671
C60	C	1.876671	-0.339208	0.130329
C61	C	1.443453	-0.797856	-0.436547
C62	C	1.943453	-0.297856	0.063453
C63	C	1.510270	-0.839057	-0.503454
C64	C	2.010270	-0.339057	-0.003454
C65	C	1.577046	-0.797707	-0.570336
C66	C	2.077046	-0.297707	-0.070336
C67	C	1.643869	-0.838906	-0.637238
C68	C	2.143869	-0.338906	-0.137238
C69	C	1.643905	-0.921454	-0.637256
C70	C	2.143905	-0.421454	-0.137256
C71	C	1.443417	-0.715308	-0.436530
C72	C	1.943417	-0.215308	0.063470
C73	C	1.577007	-0.715153	-0.570316
C74	C	2.077007	-0.215153	-0.070316
C75	C	1.782792	-0.380750	-0.503450
C76	C	2.282792	0.119250	-0.003450
C77	C	1.898945	-0.380756	-0.503458
C78	C	2.398945	0.119244	-0.003458
C79	C	1.510293	-0.380659	-0.776001
C80	C	2.010293	0.119341	-0.276001
C81	C	1.510324	-0.380626	-0.892154
C82	C	2.010324	0.119374	-0.392154
C83	C	1.510337	-0.174566	-0.503492
C84	C	2.010337	0.325434	-0.003492
C85	C	1.510387	-0.086710	-0.503518
C86	C	2.010387	0.413290	-0.003518
C87	C	1.573851	-0.428619	-1.063973
C88	C	2.073851	0.071381	-0.563973
C89	C	1.573821	-0.428654	-0.943923
C90	C	2.073821	0.071346	-0.443923
C91	C	1.510210	-0.380753	-0.231921
C92	C	2.010210	0.119247	0.268079
C93	C	1.510382	-0.380563	-0.115768
C94	C	2.010382	0.119437	0.384232
H95	H	1.115345	-0.470001	-0.621108
H96	H	1.615345	0.029999	-0.121108
Br97	Br	0.876543	-0.497502	-0.657308
Br98	Br	1.376543	0.002498	-0.157308
Br99	Br	1.048322	-0.312098	-0.412973
Br100	Br	1.548322	0.187902	0.087027
Br101	Br	1.352732	-0.659397	-0.345746
Br102	Br	1.852732	-0.159397	0.154254
H103	H	1.322346	-0.955432	-0.315249
H104	H	1.822346	-0.455432	0.184751
H105	H	1.456017	-0.339448	-1.071234
H106	H	1.956017	0.160552	-0.571234
H107	H	1.322261	-0.805668	-0.315195
H108	H	1.822261	-0.305668	0.184805
Br109	Br	1.667644	-0.659041	-0.661079
Br110	Br	2.167644	-0.159041	-0.161079
Br111	Br	1.734476	-0.782778	-0.728015
Br112	Br	2.234476	-0.282778	-0.228015
H113	H	1.628207	-0.469740	-1.108507
H114	H	2.128207	0.030260	-0.608507
Br115	Br	1.664404	-0.497226	-0.869691
Br116	Br	2.164404	0.002774	-0.369691
H117	H	1.698308	-0.955006	-0.691725
H118	H	2.198308	-0.455006	-0.191725
Br119	Br	1.667853	-1.101269	-0.661185
Br120	Br	2.167853	-0.601269	-0.161185
H121	H	0.943472	-0.339579	-0.449173
H122	H	1.443472	0.160421	0.050827
Br123	Br	1.352934	-1.101624	-0.345873
Br124	Br	1.852934	-0.601624	0.154127
H125	H	1.455987	-0.339478	-0.936689
H126	H	1.955987	0.160522	-0.436689
