data_functionalizedCrystal
_audit_creation_method	'MofGen! by Chris Wilmer'
_symmetry_space_group_name_H-M	'P1'
_symmetry_Int_Tables_number	1
_symmetry_cell_setting	triclinic
loop_
_symmetry_equiv_pos_as_xyz
  x,y,z
_cell_length_a	21.395362
_cell_length_b	17.640280
_cell_length_c	21.395356
_cell_angle_alpha	78.777041
_cell_angle_beta	89.964122
_cell_angle_gamma	78.812025
loop_
_atom_site_label
_atom_site_type_symbol
_atom_site_fract_x
_atom_site_fract_y
_atom_site_fract_z
Zn1	Zn	1.008265	-0.314325	-0.304300
Zn2	Zn	1.341598	0.019008	0.029033
Zn3	Zn	1.674931	0.352342	0.362366
Zn4	Zn	1.029397	-0.446492	-0.178379
Zn5	Zn	1.362731	-0.113159	0.154954
Zn6	Zn	1.696064	0.220174	0.488288
Zn7	Zn	0.903504	-0.314384	-0.199492
Zn8	Zn	1.236837	0.018949	0.133841
Zn9	Zn	1.570171	0.352283	0.467174
Zn10	Zn	0.924663	-0.446486	-0.283085
Zn11	Zn	1.257997	-0.113153	0.050249
Zn12	Zn	1.591330	0.220180	0.383582
O13	O	0.966457	-0.380422	-0.241314
O14	O	1.299791	-0.047089	0.092019
O15	O	1.633124	0.286245	0.425352
O16	O	1.098742	-0.331835	-0.287640
O17	O	1.432076	0.001498	0.045694
O18	O	1.765409	0.334832	0.379027
O19	O	1.012686	-0.428995	-0.093498
O20	O	1.346019	-0.095662	0.239836
O21	O	1.679353	0.237672	0.573169
O22	O	0.899701	-0.203779	-0.231110
O23	O	1.233035	0.129555	0.102223
O24	O	1.566368	0.462888	0.435557
O25	O	1.114268	-0.428938	-0.195126
O26	O	1.447602	-0.095604	0.138208
O27	O	1.780935	0.237729	0.471541
O28	O	0.976669	-0.203735	-0.308112
O29	O	1.310002	0.129598	0.025221
O30	O	1.643335	0.462932	0.358554
O31	O	0.920193	-0.331936	-0.109009
O32	O	1.253526	0.001398	0.224324
O33	O	1.586859	0.334731	0.557657
O34	O	0.818636	-0.331930	-0.210538
O35	O	1.151970	0.001403	0.122795
O36	O	1.485303	0.334737	0.456129
O37	O	0.935764	-0.428928	-0.373581
O38	O	1.269098	-0.095594	-0.040248
O39	O	1.602431	0.237739	0.293085
O40	O	0.834182	-0.428985	-0.271953
O41	O	1.167515	-0.095651	0.061380
O42	O	1.500849	0.237682	0.394713
O43	O	0.997186	-0.331829	-0.389168
O44	O	1.330519	0.001504	-0.055835
O45	O	1.663853	0.334837	0.277498
O46	O	1.033204	-0.557089	-0.174554
O47	O	1.366537	-0.223756	0.158780
O48	O	1.699870	0.109578	0.492113
O49	O	0.956256	-0.557085	-0.251481
O50	O	1.289589	-0.223751	0.081853
O51	O	1.622923	0.109582	0.415186
C52	C	0.803676	-0.380464	-0.241235
C53	C	1.137010	-0.047130	0.092099
C54	C	1.470343	0.286203	0.425432
C55	C	0.734041	-0.380501	-0.241213
C56	C	1.067374	-0.047167	0.092121
C57	C	1.400708	0.286166	0.425454
C58	C	0.999336	-0.585764	-0.208438
C59	C	1.332669	-0.252430	0.124896
C60	C	1.666003	0.080903	0.458229
C61	C	1.013459	-0.673610	-0.194394
C62	C	1.346792	-0.340276	0.138939
C63	C	1.680126	-0.006943	0.472273
C64	C	0.709450	-0.431104	-0.273121
C65	C	1.042783	-0.097771	0.060213
C66	C	1.376116	0.235563	0.393546
C67	C	0.644011	-0.431085	-0.273152
C68	C	0.977345	-0.097751	0.060182
C69	C	1.310678	0.235582	0.393515
C70	C	0.603168	-0.380470	-0.241262
C71	C	0.936501	-0.047137	0.092071
C72	C	1.269835	0.286197	0.425404
C73	C	0.627766	-0.329857	-0.209353
C74	C	0.961099	0.003476	0.123980
C75	C	1.294432	0.336810	0.457314
C76	C	0.693202	-0.329872	-0.209328
C77	C	1.026535	0.003461	0.124005
C78	C	1.359869	0.336795	0.457339
C79	C	0.498431	-0.374115	-0.185874
C80	C	0.831764	-0.040782	0.147460
C81	C	1.165098	0.292551	0.480793
C82	C	0.432997	-0.374106	-0.185896
C83	C	0.766330	-0.040772	0.147437
C84	C	1.099663	0.292561	0.480770
C85	C	0.401339	-0.380419	-0.241340
C86	C	0.734672	-0.047085	0.091994
C87	C	1.068006	0.286248	0.425327
C88	C	0.435127	-0.386758	-0.296759
C89	C	0.768460	-0.053425	0.036574
C90	C	1.101793	0.279909	0.369908
C91	C	0.500563	-0.386773	-0.296734
C92	C	0.833896	-0.053440	0.036599
C93	C	1.167230	0.279894	0.369932
C94	C	0.532212	-0.380448	-0.241286
C95	C	0.865545	-0.047114	0.092048
C96	C	1.198879	0.286219	0.425381
C97	C	0.305792	-0.431004	-0.273284
C98	C	0.639125	-0.097670	0.060049
C99	C	0.972459	0.235663	0.393382
C100	C	0.240352	-0.430979	-0.273317
C101	C	0.573685	-0.097645	0.060016
C102	C	0.907018	0.235688	0.393349
C103	C	0.224108	-0.329755	-0.209512
C104	C	0.557441	0.003578	0.123821
C105	C	0.890774	0.336912	0.457155
C106	C	0.289546	-0.329776	-0.209485
C107	C	0.622880	0.003557	0.123848
C108	C	0.956213	0.336891	0.457181
C109	C	0.330385	-0.380404	-0.241370
C110	C	0.663719	-0.047071	0.091963
C111	C	0.997052	0.286262	0.425297
C112	C	0.859424	-0.962650	-0.348231
C113	C	1.192758	-0.629317	-0.014898
C114	C	1.526091	-0.295984	0.318436
C115	C	0.872696	-1.045195	-0.335015
C116	C	1.206029	-0.711862	-0.001681
C117	C	1.539363	-0.378528	0.331652
C118	C	0.952871	-1.045134	-0.254992
C119	C	1.286205	-0.711801	0.078341
C120	C	1.619538	-0.378467	0.411675
C121	C	0.939608	-0.962588	-0.268204
C122	C	1.272942	-0.629254	0.065130
C123	C	1.606275	-0.295921	0.398463
C124	C	0.892884	-0.921352	-0.314823
C125	C	1.226217	-0.588019	0.018510
C126	C	1.559550	-0.254686	0.351843
C127	C	0.973068	-0.921290	-0.234796
C128	C	1.306401	-0.587956	0.098537
C129	C	1.639735	-0.254623	0.431871
C130	C	0.959803	-0.838751	-0.248004
C131	C	1.293137	-0.505417	0.085329
C132	C	1.626470	-0.172084	0.418662
C133	C	0.913080	-0.797509	-0.294621
C134	C	1.246413	-0.464176	0.038713
C135	C	1.579746	-0.130843	0.372046
C136	C	0.879619	-0.838813	-0.328032
C137	C	1.212953	-0.505480	0.005302
C138	C	1.546286	-0.172146	0.338635
C139	C	1.019789	-0.962527	-0.188173
C140	C	1.353123	-0.629193	0.145160
C141	C	1.686456	-0.295860	0.478493
C142	C	1.053249	-0.921229	-0.154766
C143	C	1.386582	-0.587895	0.178568
C144	C	1.719915	-0.254562	0.511901
C145	C	1.039988	-0.838688	-0.167977
C146	C	1.373321	-0.505355	0.165356
C147	C	1.706654	-0.172021	0.498690
C148	C	0.993264	-0.797447	-0.214593
C149	C	1.326597	-0.464113	0.118740
C150	C	1.659930	-0.130780	0.452074
C151	C	1.073448	-0.797384	-0.134566
C152	C	1.406781	-0.464051	0.198768
C153	C	1.740115	-0.130718	0.532101
C154	C	1.060184	-0.714845	-0.147774
C155	C	1.393517	-0.381512	0.185559
C156	C	1.726850	-0.048178	0.518892
C157	C	0.979999	-0.714908	-0.227802
C158	C	1.313333	-0.381574	0.105532
C159	C	1.646666	-0.048241	0.438865
C160	C	1.129874	-0.380380	-0.241394
C161	C	1.463207	-0.047047	0.091939
C162	C	1.796541	0.286286	0.425273
C163	C	1.199513	-0.380363	-0.241428
C164	C	1.532846	-0.047030	0.091905
C165	C	1.866179	0.286304	0.425238
C166	C	0.966478	-0.380371	-0.404746
C167	C	1.299812	-0.047038	-0.071412
C168	C	1.633145	0.286296	0.261921
C169	C	0.966487	-0.380349	-0.474390
C170	C	1.299821	-0.047016	-0.141057
C171	C	1.633154	0.286317	0.192276
C172	C	0.933468	-0.174278	-0.274333
C173	C	1.266801	0.159055	0.059001
C174	C	1.600134	0.492388	0.392334
C175	C	0.919409	-0.086432	-0.288403
C176	C	1.252743	0.246901	0.044930
C177	C	1.586076	0.580234	0.378263
C178	C	0.998508	-0.329664	-0.984324
C179	C	1.331841	0.003669	-0.650991
C180	C	1.665175	0.337002	-0.317657
C181	C	0.998506	-0.329684	-0.918886
C182	C	1.331840	0.003650	-0.585552
C183	C	1.665173	0.336983	-0.252219
C184	C	0.966524	-0.380244	-0.878046
C185	C	1.299857	-0.046911	-0.544712
C186	C	1.633191	0.286422	-0.211379
C187	C	0.934555	-0.430804	-0.902647
C188	C	1.267888	-0.097471	-0.569314
C189	C	1.601222	0.235863	-0.235980
C190	C	0.934563	-0.430789	-0.968083
C191	C	1.267896	-0.097456	-0.634750
C192	C	1.601230	0.235878	-0.301417
C193	C	0.911063	-0.386523	-0.773346
C194	C	1.244396	-0.053190	-0.440013
C195	C	1.577729	0.280144	-0.106680
C196	C	0.911053	-0.386532	-0.707912
C197	C	1.244386	-0.053199	-0.374578
C198	C	1.577719	0.280134	-0.041245
C199	C	0.966500	-0.380295	-0.676217
C200	C	1.299833	-0.046961	-0.342884
C201	C	1.633167	0.286372	-0.009550
C202	C	1.021956	-0.374031	-0.709967
C203	C	1.355290	-0.040698	-0.376634
C204	C	1.688623	0.292635	-0.043301
C205	C	1.021965	-0.374016	-0.775404
C206	C	1.355298	-0.040683	-0.442070
C207	C	1.688631	0.292650	-0.108737
C208	C	0.966512	-0.380266	-0.807090
C209	C	1.299845	-0.046933	-0.473757
C210	C	1.633179	0.286400	-0.140423
C211	C	0.998469	-0.329763	-0.580667
C212	C	1.331802	0.003571	-0.247333
C213	C	1.665135	0.336904	0.086000
C214	C	0.998469	-0.329787	-0.515226
C215	C	1.331802	0.003546	-0.181893
C216	C	1.665136	0.336879	0.151441
C217	C	0.934511	-0.430904	-0.498989
C218	C	1.267845	-0.097570	-0.165656
C219	C	1.601178	0.235763	0.167678
C220	C	0.934517	-0.430883	-0.564428
C221	C	1.267851	-0.097550	-0.231094
C222	C	1.601184	0.235783	0.102239
C223	C	0.966495	-0.380309	-0.605263
C224	C	1.299828	-0.046975	-0.271930
C225	C	1.633161	0.286358	0.061403
C226	C	0.966463	-0.380415	-0.078528
C227	C	1.299797	-0.047082	0.254806
C228	C	1.633130	0.286251	0.588139
C229	C	0.966540	-0.380214	-0.008919
C230	C	1.299874	-0.046881	0.324414
C231	C	1.633207	0.286452	0.657748
H232	H	0.742697	-0.472329	-0.299085
H233	H	1.076031	-0.138995	0.034249
H234	H	1.409364	0.194338	0.367582
Cl235	Cl	0.841335	-0.394398	-0.665491
Cl236	Cl	1.174669	-0.061065	-0.332157
Cl237	Cl	1.508002	0.272269	0.001176
H238	H	0.309569	-0.288573	-0.183498
H239	H	0.642902	0.044760	0.149835
H240	H	0.976235	0.378094	0.483168
H241	H	0.409352	-0.391897	-0.341907
H242	H	0.742686	-0.058564	-0.008573
H243	H	1.076019	0.274769	0.324760
H244	H	1.087429	-0.681220	-0.120569
H245	H	1.420763	-0.347887	0.212764
H246	H	1.754096	-0.014553	0.546097
Cl247	Cl	0.896547	-0.693744	-0.311371
Cl248	Cl	1.229880	-0.360411	0.021962
Cl249	Cl	1.563214	-0.027078	0.355296
Cl250	Cl	0.538223	-0.366181	-0.116166
Cl251	Cl	0.871556	-0.032848	0.217168
Cl252	Cl	1.204889	0.300485	0.550501
H253	H	1.111487	-0.830971	-0.096604
H254	H	1.444820	-0.497637	0.236730
H255	H	1.778153	-0.164304	0.570063
Cl256	Cl	0.543036	-0.394737	-0.366402
Cl257	Cl	0.876369	-0.061404	-0.033069
Cl258	Cl	1.209703	0.271930	0.300265
H259	H	1.024538	-0.288517	-0.898857
H260	H	1.357871	0.044817	-0.565523
H261	H	1.691204	0.378150	-0.232190
H262	H	0.908473	-0.472074	-0.465737
H263	H	1.241807	-0.138741	-0.132404
H264	H	1.575140	0.194593	0.200929
H265	H	0.821381	-0.929075	-0.386198
H266	H	1.154714	-0.595741	-0.052865
H267	H	1.488047	-0.262408	0.280469
Cl268	Cl	0.576420	-0.266223	-0.169267
Cl269	Cl	0.909753	0.067110	0.164067
Cl270	Cl	1.243087	0.400443	0.497400
Cl271	Cl	1.091670	-0.366204	-0.670128
Cl272	Cl	1.425003	-0.032871	-0.336794
Cl273	Cl	1.758337	0.300462	-0.003461
H274	H	0.339044	-0.472224	-0.299250
H275	H	0.672378	-0.138891	0.034083
H276	H	1.005711	0.194442	0.367416
Cl277	Cl	1.011610	-1.096980	-0.196388
Cl278	Cl	1.344944	-0.763647	0.136945
Cl279	Cl	1.678277	-0.430314	0.470278
H280	H	0.841576	-0.805238	-0.365999
H281	H	1.174909	-0.471904	-0.032666
H282	H	1.508242	-0.138571	0.300668
Cl283	Cl	1.038738	-0.266116	-1.035652
Cl284	Cl	1.372071	0.067217	-0.702318
Cl285	Cl	1.705405	0.400550	-0.368985
H286	H	0.220331	-0.472185	-0.299305
H287	H	0.553664	-0.138851	0.034029
H288	H	0.886998	0.194482	0.367362
Cl289	Cl	0.172767	-0.266120	-0.169426
Cl290	Cl	0.506100	0.067214	0.163907
Cl291	Cl	0.839434	0.400547	0.497240
Cl292	Cl	1.091680	-0.366155	-0.817829
Cl293	Cl	1.425013	-0.032821	-0.484495
Cl294	Cl	1.758347	0.300512	-0.151162
H295	H	0.405492	-0.368949	-0.140770
H296	H	0.738826	-0.035615	0.192564
H297	H	1.072159	0.297718	0.525897
H298	H	0.941956	-0.681332	-0.265769
H299	H	1.275289	-0.347999	0.067565
H300	H	1.608623	-0.014665	0.400898
H301	H	1.024506	-0.288581	-0.613917
H302	H	1.357839	0.044752	-0.280583
H303	H	1.691173	0.378085	0.052750
Cl304	Cl	0.841348	-0.394354	-0.813186
Cl305	Cl	1.174681	-0.061020	-0.479853
Cl306	Cl	1.508015	0.272313	-0.146519
Cl307	Cl	0.724118	-0.266251	-0.169211
Cl308	Cl	1.057452	0.067082	0.164122
Cl309	Cl	1.390785	0.400416	0.497455
Cl310	Cl	0.830620	-1.097110	-0.377012
Cl311	Cl	1.163953	-0.763777	-0.043678
Cl312	Cl	1.497287	-0.430444	0.289655
H313	H	1.030589	-1.029735	-0.177422
H314	H	1.363922	-0.696402	0.155911
H315	H	1.697256	-0.363069	0.489244
Cl316	Cl	1.038665	-0.266237	-0.484306
Cl317	Cl	1.371999	0.067096	-0.150973
Cl318	Cl	1.705332	0.400429	0.182360
H319	H	0.908516	-0.471972	-0.869391
H320	H	1.241849	-0.138639	-0.536057
H321	H	1.575183	0.194695	-0.202724
Cl322	Cl	0.894325	-0.494434	-0.595349
Cl323	Cl	1.227658	-0.161100	-0.262016
Cl324	Cl	1.560992	0.172233	0.071318
Cl325	Cl	1.111988	-0.973075	-0.096162
Cl326	Cl	1.445321	-0.639742	0.237171
Cl327	Cl	1.778654	-0.306408	0.570505
Cl328	Cl	0.894371	-0.494343	-0.999004
Cl329	Cl	1.227705	-0.161010	-0.665671
Cl330	Cl	1.561038	0.172324	-0.332337
H331	H	0.623985	-0.472292	-0.299138
H332	H	0.957318	-0.138958	0.034196
H333	H	1.290651	0.194375	0.367529
