data_functionalizedCrystal
_audit_creation_method	'MofGen! by Chris Wilmer'
_symmetry_space_group_name_H-M	'P1'
_symmetry_Int_Tables_number	1
_symmetry_cell_setting	triclinic
loop_
_symmetry_equiv_pos_as_xyz
  x,y,z
_cell_length_a	10.654545
_cell_length_b	17.699092
_cell_length_c	9.130313
_cell_angle_alpha	89.997169
_cell_angle_beta	89.996934
_cell_angle_gamma	83.884723
loop_
_atom_site_label
_atom_site_type_symbol
_atom_site_fract_x
_atom_site_fract_y
_atom_site_fract_z
O1	O	1.665987	0.106286	-0.121779
O2	O	2.165987	0.606286	0.378221
O3	O	1.300331	0.116417	-0.121784
O4	O	1.800331	0.616417	0.378216
O5	O	1.493485	0.001228	-0.121778
O6	O	1.993485	0.501228	0.378222
O7	O	1.472834	0.221475	-0.121785
O8	O	1.972834	0.721475	0.378215
O9	O	1.493472	0.001225	0.121821
O10	O	1.993472	0.501225	0.621821
O11	O	1.300318	0.116414	0.121815
O12	O	1.800318	0.616414	0.621815
O13	O	1.665974	0.106283	0.121820
O14	O	2.165974	0.606283	0.621820
Cu15	Cu	1.483145	0.111348	0.144060
Cu16	Cu	1.983145	0.611348	0.644060
Cu17	Cu	1.483161	0.111352	-0.144024
Cu18	Cu	1.983161	0.611352	0.355976
O19	O	1.472821	0.221471	0.121814
O20	O	1.972821	0.721471	0.621814
C21	C	1.253540	0.115672	0.000014
C22	C	1.753540	0.615672	0.500014
C23	C	1.114135	0.113449	0.000012
C24	C	1.614135	0.613449	0.500012
C25	C	1.048642	0.112400	0.132799
C26	C	1.548642	0.612400	0.632799
C27	C	0.917659	0.110299	0.132799
C28	C	1.417659	0.610299	0.632799
C29	C	0.917674	0.110297	-0.132786
C30	C	1.417674	0.610297	0.367214
C31	C	1.048655	0.112394	-0.132785
C32	C	1.548655	0.612394	0.367215
C33	C	1.492736	-0.026975	0.000019
C34	C	1.992736	0.473025	0.500019
C35	C	1.490511	-0.111007	0.000012
C36	C	1.990511	0.388993	0.500012
C37	C	1.489476	-0.150479	-0.132775
C38	C	1.989476	0.349521	0.367225
C39	C	1.487377	-0.229435	-0.132777
C40	C	1.987377	0.270565	0.367223
C41	C	1.486323	-0.268919	0.000010
C42	C	1.986323	0.231081	0.500010
C43	C	1.487354	-0.229441	0.132808
C44	C	1.987354	0.270559	0.632808
C45	C	1.489444	-0.150485	0.132808
C46	C	1.989444	0.349515	0.632808
C47	C	1.478925	-0.547859	0.132810
C48	C	1.978925	-0.047859	0.632810
C49	C	1.476839	-0.626820	0.132800
C50	C	1.976839	-0.126820	0.632800
C51	C	1.476858	-0.626809	-0.132775
C52	C	1.976858	-0.126809	0.367225
C53	C	1.478948	-0.547854	-0.132775
C54	C	1.978948	-0.047854	0.367225
C55	C	1.479973	-0.508382	0.000022
C56	C	1.979973	-0.008382	0.500022
C57	C	1.482246	-0.422769	0.000022
C58	C	1.982246	0.077231	0.500022
C59	C	1.484058	-0.354531	0.000012
C60	C	1.984058	0.145469	0.500012
C61	C	1.712766	0.107027	0.000018
C62	C	2.212766	0.607027	0.500018
C63	C	1.852171	0.109251	0.000011
C64	C	2.352171	0.609251	0.500011
C65	C	1.473569	0.249675	0.000013
C66	C	1.973569	0.749675	0.500013
C67	C	1.475794	0.333707	0.000011
C68	C	1.975794	0.833707	0.500011
N69	N	1.483143	0.111345	0.346682
N70	N	1.983143	0.611345	0.846682
N71	N	1.483172	0.111349	-0.346647
N72	N	1.983172	0.611349	0.153353
C73	C	1.568700	0.060361	0.423337
C74	C	2.068700	0.560361	0.923337
C75	C	1.568712	0.060361	0.576674
C76	C	2.068712	0.560361	1.076674
C77	C	1.397606	0.162336	0.576688
C78	C	1.897606	0.662336	1.076688
C79	C	1.397589	0.162331	0.423354
C80	C	1.897589	0.662331	0.923354
H81	H	1.101951	0.113260	0.240930
H82	H	1.601951	0.613260	0.740930
H83	H	1.101982	0.113245	-0.240922
H84	H	1.601982	0.613245	0.259078
H85	H	1.479812	-0.515711	-0.240904
H86	H	1.979812	-0.015711	0.259096
H87	H	0.864340	0.109445	0.240927
H88	H	1.364340	0.609445	0.740927
C89	C	1.662821	0.004268	0.660987
C90	C	2.162821	0.504268	1.160987
N91	N	1.733704	-0.037986	0.724491
N92	N	2.233704	0.462014	1.224491
H93	H	1.327952	0.203849	0.639129
H94	H	1.827952	0.703849	1.139129
C95	C	1.303523	0.218455	0.339029
C96	C	1.803523	0.718455	0.839029
N97	N	1.232693	0.260738	0.275515
N98	N	1.732693	0.760738	0.775515
C99	C	0.845633	0.109142	-0.278855
C100	C	1.345633	0.609142	0.221145
N101	N	0.791372	0.108275	-0.388877
N102	N	1.291372	0.608275	0.111123
C103	C	1.490636	-0.107055	-0.278854
C104	C	1.990636	0.392945	0.221146
N105	N	1.491503	-0.074349	-0.388886
N106	N	1.991503	0.425651	0.111114
C107	C	1.486354	-0.272860	-0.278854
C108	C	1.986354	0.227140	0.221146
N109	N	1.485624	-0.305569	-0.388885
N110	N	1.985624	0.194431	0.111115
C111	C	1.475715	-0.670234	-0.278856
C112	C	1.975715	-0.170234	0.221144
N113	N	1.474855	-0.702940	-0.388881
N114	N	1.974855	-0.202940	0.111119
H115	H	1.475977	-0.658965	0.240937
H116	H	1.975977	-0.158965	0.740937
H117	H	1.479785	-0.515733	0.240941
H118	H	1.979785	-0.015733	0.740941
H119	H	1.638362	0.018843	0.360915
H120	H	2.138362	0.518843	0.860915
H121	H	1.486488	-0.261594	0.240926
H122	H	1.986488	0.238406	0.740926
H123	H	1.490270	-0.118347	0.240937
H124	H	1.990270	0.381653	0.740937
