data_functionalizedCrystal
_audit_creation_method	'MofGen! by Chris Wilmer'
_symmetry_space_group_name_H-M	'P1'
_symmetry_Int_Tables_number	1
_symmetry_cell_setting	triclinic
loop_
_symmetry_equiv_pos_as_xyz
  x,y,z
_cell_length_a	12.759401
_cell_length_b	12.759393
_cell_length_c	12.759400
_cell_angle_alpha	90.031564
_cell_angle_beta	89.985304
_cell_angle_gamma	89.980563
loop_
_atom_site_label
_atom_site_type_symbol
_atom_site_fract_x
_atom_site_fract_y
_atom_site_fract_z
Zn1	Zn	1.606256	-0.594008	0.418204
Zn2	Zn	2.106256	-0.094008	0.918204
Zn3	Zn	1.606150	-0.418328	0.593923
Zn4	Zn	2.106150	0.081672	1.093923
Zn5	Zn	1.430557	-0.418344	0.418259
Zn6	Zn	1.930557	0.081656	0.918259
Zn7	Zn	1.430546	-0.593966	0.593842
Zn8	Zn	1.930546	-0.093966	1.093842
O9	O	1.518377	-0.506162	0.506057
O10	O	2.018377	-0.006162	1.006057
O11	O	1.753263	-0.570714	0.441525
O12	O	2.253263	-0.070714	0.941525
O13	O	1.582818	-0.271309	0.570677
O14	O	2.082818	0.228691	1.070677
O15	O	1.453913	-0.441671	0.271230
O16	O	1.953913	0.058329	0.771230
O17	O	1.753185	-0.441643	0.570625
O18	O	2.253185	0.058357	1.070625
O19	O	1.582998	-0.570730	0.271190
O20	O	2.082998	-0.070730	0.771190
O21	O	1.453811	-0.271321	0.441618
O22	O	1.953811	0.228679	0.941618
O23	O	1.283535	-0.441630	0.441539
O24	O	1.783535	0.058370	0.941539
O25	O	1.453894	-0.740993	0.570486
O26	O	1.953894	-0.240993	1.070486
O27	O	1.283527	-0.570659	0.570539
O28	O	1.783527	-0.070659	1.070539
O29	O	1.582987	-0.741023	0.441446
O30	O	2.082987	-0.241023	0.941446
O31	O	1.582807	-0.441603	0.740933
O32	O	2.082807	0.058397	1.240933
O33	O	1.453791	-0.570643	0.740873
O34	O	1.953791	-0.070643	1.240873
C35	C	1.245410	-0.506143	0.506037
C36	C	1.745410	-0.006143	1.006037
C37	C	1.128633	-0.506160	0.506053
C38	C	1.628633	-0.006160	1.006053
C39	C	0.964070	-0.573257	0.573343
C40	C	1.464070	-0.073257	1.073343
C41	C	1.073794	-0.573240	0.573329
C42	C	1.573794	-0.073240	1.073329
C43	C	1.073743	-0.439084	0.438794
C44	C	1.573743	0.060916	0.938794
C45	C	0.964021	-0.439097	0.438814
C46	C	1.464021	0.060903	0.938814
C47	C	0.909236	-0.640350	0.640616
C48	C	1.409236	-0.140350	1.140616
C49	C	0.964118	-0.707425	0.707876
C50	C	1.464118	-0.207425	1.207876
C51	C	1.073842	-0.707408	0.707863
C52	C	1.573842	-0.207408	1.207863
C53	C	1.128684	-0.640316	0.640588
C54	C	1.628684	-0.140316	1.140588
C55	C	1.518451	-0.780195	0.505951
C56	C	2.018451	-0.280195	1.005951
C57	C	1.518482	-0.896972	0.505906
C58	C	2.018482	-0.396972	1.005906
C59	C	1.585710	-0.951851	0.438708
C60	C	2.085710	-0.451851	0.938708
C61	C	1.585735	-1.061575	0.438670
C62	C	2.085735	-0.561575	0.938670
C63	C	1.451301	-1.061531	0.573036
C64	C	1.951301	-0.561531	1.073036
C65	C	1.451272	-0.951809	0.573068
C66	C	1.951272	-0.451809	1.073068
C67	C	1.652920	-0.897014	0.371545
C68	C	2.152920	-0.397014	0.871545
C69	C	1.720155	-0.951894	0.304343
C70	C	2.220155	-0.451894	0.804343
C71	C	1.720180	-1.061618	0.304305
C72	C	2.220180	-0.561618	0.804305
C73	C	1.652970	-1.116463	0.371469
C74	C	2.152970	-0.616463	0.871469
C75	C	1.792411	-0.506181	0.506078
C76	C	2.292411	-0.006181	1.006078
C77	C	1.909187	-0.506189	0.506087
C78	C	2.409187	-0.006189	1.006087
C79	C	1.518315	-0.506140	0.779024
C80	C	2.018315	-0.006140	1.279024
C81	C	1.518384	-0.506165	0.895801
C82	C	2.018384	-0.006165	1.395801
C83	C	1.518364	-0.233194	0.506087
C84	C	2.018364	0.266806	1.006087
C85	C	1.518537	-0.116418	0.505836
C86	C	2.018537	0.383582	1.005836
C87	C	1.518468	-0.506207	0.232023
C88	C	2.018468	-0.006207	0.732023
C89	C	1.518507	-0.506226	0.115247
C90	C	2.018507	-0.006226	0.615247
C91	C	1.585637	-0.439048	0.950659
C92	C	2.085637	0.060952	1.450659
C93	C	1.585702	-0.439080	1.060383
C94	C	2.085702	0.060920	1.560383
C95	C	1.451252	-0.573350	1.060381
C96	C	1.951252	-0.073350	1.560381
C97	C	1.451193	-0.573323	0.950659
C98	C	1.951193	-0.073323	1.450659
C99	C	1.652828	-0.371891	0.895801
C100	C	2.152828	0.128109	1.395801
C101	C	1.720086	-0.304767	0.950659
C102	C	2.220086	0.195233	1.450659
C103	C	1.720150	-0.304800	1.060383
C104	C	2.220150	0.195200	1.560383
C105	C	1.652957	-0.371956	1.115249
C106	C	2.152957	0.128044	1.615249
H107	H	1.652910	-0.807671	0.371571
H108	H	2.152910	-0.307671	0.871571
C109	C	0.788537	-0.640380	0.640631
C110	C	1.288537	-0.140380	1.140631
N111	N	0.697627	-0.640405	0.640640
N112	N	1.197627	-0.140405	1.140640
C113	C	0.903791	-0.781218	0.781878
C114	C	1.403791	-0.281218	1.281878
N115	N	0.858353	-0.836800	0.837616
N116	N	1.358353	-0.336800	1.337616
C117	C	1.377323	-0.891438	0.646995
C118	C	1.877323	-0.391438	1.146995
N119	N	1.321622	-0.845966	0.702677
N120	N	1.821622	-0.345966	1.202677
H121	H	1.652780	-0.371854	0.806458
H122	H	2.152780	0.128146	1.306458
H123	H	1.653024	-0.371985	1.204594
H124	H	2.153024	0.128015	1.704594
C125	C	1.793996	-0.230902	0.890305
C126	C	2.293996	0.269098	1.390305
N127	N	1.849667	-0.175265	0.844847
N128	N	2.349667	0.324735	1.344847
H129	H	1.218029	-0.640302	0.640589
H130	H	1.718029	-0.140302	1.140589
H131	H	1.774867	-0.907232	0.249654
H132	H	2.274867	-0.407232	0.749654
C133	C	1.794134	-1.121983	0.230379
C134	C	2.294134	-0.621983	0.730379
N135	N	1.849843	-1.167447	0.174699
N136	N	2.349843	-0.667447	0.674699
C137	C	1.377335	-0.647207	1.120737
C138	C	1.877335	-0.147207	1.620737
N139	N	1.321655	-0.702832	1.166198
N140	N	1.821655	-0.202832	1.666198
H141	H	1.118525	-0.762016	0.762637
H142	H	1.618525	-0.262016	1.262637
H143	H	1.774922	-0.250152	1.105046
H144	H	2.274922	0.249848	1.605046
C145	C	1.377196	-0.647140	0.890311
C146	C	1.877196	-0.147140	1.390311
N147	N	1.321456	-0.702737	0.844857
N148	N	1.821456	-0.202737	1.344857
C149	C	1.377378	-1.121864	0.646913
C150	C	1.877378	-0.621864	1.146913
N151	N	1.321699	-1.167307	0.702560
N152	N	1.821699	-0.667307	1.202560
H153	H	1.118404	-0.384463	0.384022
H154	H	1.618404	0.115537	0.884022
H155	H	1.652984	-1.205808	0.371421
H156	H	2.152984	-0.705808	0.871421
C157	C	0.903647	-0.365320	0.364826
C158	C	1.403647	0.134680	0.864826
N159	N	0.858173	-0.309747	0.309099
N160	N	1.358173	0.190253	0.809099
