data_functionalizedCrystal
_audit_creation_method	'MofGen! by Chris Wilmer'
_symmetry_space_group_name_H-M	'P1'
_symmetry_Int_Tables_number	1
_symmetry_cell_setting	triclinic
loop_
_symmetry_equiv_pos_as_xyz
  x,y,z
_cell_length_a	13.635800
_cell_length_b	13.563541
_cell_length_c	11.102149
_cell_angle_alpha	72.299482
_cell_angle_beta	108.603080
_cell_angle_gamma	75.295376
loop_
_atom_site_label
_atom_site_type_symbol
_atom_site_fract_x
_atom_site_fract_y
_atom_site_fract_z
V1	V	2.062843	-0.153602	0.450118
O2	O	2.034920	0.007393	0.386118
O3	O	2.058209	-0.304578	0.500352
O4	O	2.051116	-0.151234	0.622107
O5	O	2.042063	-0.147013	0.263519
V6	V	2.300506	-0.134346	0.421323
O7	O	2.202464	-0.195842	0.513282
O8	O	2.385984	-0.092105	0.358159
O9	O	2.193537	0.016631	0.371089
O10	O	2.387128	-0.295341	0.485323
O11	O	2.379985	-0.140935	0.607922
O12	O	2.200631	-0.136714	0.249334
V13	V	2.562843	-0.153602	0.450118
O14	O	2.534920	0.007393	0.386118
O15	O	2.558209	-0.304578	0.500352
O16	O	2.551116	-0.151234	0.622107
O17	O	2.542063	-0.147013	0.263519
V18	V	2.800506	-0.134346	0.421323
O19	O	2.702464	-0.195842	0.513282
O20	O	2.885984	-0.092105	0.358159
O21	O	2.693537	0.016631	0.371089
O22	O	2.887128	-0.295341	0.485323
O23	O	2.879985	-0.140935	0.607922
O24	O	2.700631	-0.136714	0.249334
C25	C	1.985066	-0.341383	0.507007
C26	C	2.022004	-0.464808	0.549226
C27	C	2.002865	-0.749311	0.180439
C28	C	1.968153	-0.633346	0.140769
C29	C	1.981614	-0.591206	0.242880
C30	C	2.029790	-0.665042	0.384667
C31	C	2.064498	-0.781018	0.424340
C32	C	2.043247	-0.622913	0.486781
C33	C	2.091424	-0.696749	0.628568
C34	C	2.126128	-0.812713	0.668234
C35	C	2.112667	-0.854853	0.566123
C36	C	2.008539	-0.506937	0.447108
C37	C	2.070173	-0.538644	0.691009
C38	C	2.104885	-0.654609	0.730679
C39	C	1.976016	-0.145776	0.662316
C40	C	2.007199	-0.144839	0.803269
C41	C	2.098351	0.053430	0.364432
C42	C	2.051034	0.176854	0.322222
C43	C	2.107401	-0.142175	0.209119
C44	C	2.065837	-0.143107	0.068163
C45	C	2.485066	-0.341383	0.507007
C46	C	2.522004	-0.464808	0.549226
C47	C	2.085962	-0.245215	1.055738
C48	C	2.056639	-0.246082	0.923290
C49	C	1.987070	-0.042722	0.815699
C50	C	2.016385	-0.041856	0.948145
C51	C	2.126132	-0.362624	1.117855
C52	C	2.096809	-0.363490	0.985406
C53	C	2.631629	-0.528431	0.577387
C54	C	2.666355	-0.644406	0.617077
C55	C	2.591452	-0.696754	0.628594
C56	C	2.481819	-0.633123	0.600434
C57	C	2.447097	-0.517152	0.560755
C58	C	2.476016	-0.145776	0.662316
C59	C	2.507199	-0.144839	0.803269
C60	C	2.598351	0.053430	0.364432
C61	C	2.551034	0.176854	0.322222
C62	C	2.607401	-0.142175	0.209119
C63	C	2.565837	-0.143107	0.068163
C64	C	2.613903	0.240476	0.294065
C65	C	2.569449	0.356450	0.254382
C66	C	2.462129	0.408798	0.242867
C67	C	2.399255	0.345168	0.271024
C68	C	2.443706	0.229198	0.310696
C69	C	2.614107	-0.149935	0.877903
C70	C	2.643393	-0.149033	1.010331
C71	C	2.458853	-0.137942	0.993480
C72	C	2.429566	-0.138836	0.861051
C73	C	2.720652	-0.156344	0.887635
C74	C	2.749938	-0.155441	1.020063
H75	H	1.969313	-0.446830	0.331664
H76	H	2.764523	-0.076608	1.021519
C77	C	2.629658	-0.824320	0.672237
H78	H	2.705674	-0.854705	0.687346
H79	H	2.623150	-0.858618	0.756151
H80	H	2.583730	-0.838335	0.600117
H81	H	2.755626	-0.696198	0.639997
C82	C	1.915161	-0.552135	-0.015182
H83	H	1.912121	-0.593839	-0.070313
H84	H	1.841315	-0.502624	-0.041043
H85	H	1.959371	-0.509851	-0.030409
H86	H	2.825493	-0.235717	1.101060
H87	H	2.392506	0.177403	0.333632
H88	H	2.726909	-0.080988	0.814115
C89	C	1.988056	-0.795661	0.068131
H90	H	1.954390	-0.735081	-0.021995
H91	H	2.059338	-0.843864	0.083861
H92	H	1.941277	-0.836620	0.073219
C93	C	2.179097	-0.893933	0.824190
H94	H	2.197824	-0.969033	0.833190
H95	H	2.245098	-0.885067	0.873136
H96	H	2.127025	-0.877814	0.862451
H97	H	1.953344	-0.496781	0.210572
H98	H	2.311871	0.387808	0.261641
H99	H	2.425947	0.503229	0.210561
H100	H	2.772178	-0.239144	0.892208
C101	C	2.311965	-0.133220	0.778952
H102	H	2.269932	-0.129527	0.832340
H103	H	2.274456	-0.068294	0.692510
H104	H	2.318956	-0.198392	0.761378
H105	H	2.692632	-0.485824	0.568007
H106	H	2.395650	-0.133052	1.040542
H107	H	2.140936	-0.949280	0.598415
C108	C	2.399435	-0.690716	0.613095
H109	H	2.435821	-0.768892	0.640743
H110	H	2.375532	-0.679539	0.681180
H111	H	2.336128	-0.659256	0.525147
C112	C	2.731950	0.182916	0.306712
H113	H	2.763008	0.237432	0.284239
H114	H	2.778777	0.127769	0.399849
H115	H	2.726884	0.148058	0.243814
C116	C	2.157871	-0.735830	0.886636
H117	H	2.160927	-0.694132	0.941776
H118	H	2.113666	-0.778114	0.901856
H119	H	2.231724	-0.785341	0.912498
C120	C	2.084938	-0.492300	0.803333
H121	H	2.057364	-0.412658	0.759400
H122	H	2.044241	-0.514212	0.854582
H123	H	2.162310	-0.521420	0.865297
C124	C	1.994219	0.070464	0.961806
H125	H	1.960573	0.130637	0.871358
H126	H	1.945186	0.078555	1.005864
H127	H	2.063227	0.071504	1.016608
C128	C	2.638626	0.426420	0.223430
H129	H	2.708914	0.378624	0.235996
H130	H	2.598904	0.482034	0.129596
H131	H	2.650758	0.461752	0.285631
C132	C	1.932689	0.068643	0.683681
H133	H	1.918118	0.053505	0.603020
H134	H	1.864182	0.114113	0.677906
H135	H	1.982237	0.107011	0.688663
H136	H	2.220765	-0.403170	1.184862
C137	C	2.062035	-0.417453	1.189929
H138	H	2.081942	-0.416873	1.279812
H139	H	1.983532	-0.376560	1.134744
H140	H	2.081108	-0.492766	1.199720
C141	C	2.002658	-0.407165	0.946960
H142	H	1.985576	-0.406271	0.856615
H143	H	2.026762	-0.481798	1.013834
H144	H	1.937539	-0.360351	0.946686
C145	C	2.202567	-0.430448	0.977765
H146	H	2.265961	-0.457385	1.064495
H147	H	2.193250	-0.492185	0.959168
H148	H	2.213742	-0.383067	0.904925
C149	C	2.326501	-0.447176	0.529757
H150	H	2.286869	-0.494968	0.542288
H151	H	2.328809	-0.411828	0.591932
H152	H	2.289412	-0.391571	0.435909
