data_functionalizedCrystal
_audit_creation_method	'MofGen! by Chris Wilmer'
_symmetry_space_group_name_H-M	'P1'
_symmetry_Int_Tables_number	1
_symmetry_cell_setting	triclinic
loop_
_symmetry_equiv_pos_as_xyz
  x,y,z
_cell_length_a	19.188925
_cell_length_b	18.266242
_cell_length_c	16.109301
_cell_angle_alpha	90.007769
_cell_angle_beta	83.302015
_cell_angle_gamma	90.009988
loop_
_atom_site_label
_atom_site_type_symbol
_atom_site_fract_x
_atom_site_fract_y
_atom_site_fract_z
O1	O	0.926394	0.060899	0.103777
O2	O	0.723115	0.060897	0.117755
O3	O	0.830339	0.060891	-0.010284
O4	O	0.819170	0.060906	0.231816
O5	O	0.830321	-0.060871	-0.010290
O6	O	0.723097	-0.060865	0.117748
O7	O	0.926376	-0.060863	0.103771
Zn8	Zn	0.824734	-0.080196	0.110758
Zn9	Zn	0.824757	0.080231	0.110767
O10	O	0.819152	-0.060856	0.231809
C11	C	0.697094	0.000016	0.117300
C12	C	0.619586	0.000015	0.115943
C13	C	0.057970	0.000021	0.181988
C14	C	0.130796	0.000025	0.183270
C15	C	0.175555	0.000019	0.108142
C16	C	0.147482	0.000028	0.031725
C17	C	0.074657	0.000031	0.030445
N18	N	0.296099	-0.041433	0.053749
N19	N	0.365279	-0.041438	0.054970
C20	C	0.394973	0.000011	0.111993
N21	N	0.352872	0.041455	0.167761
N22	N	0.283686	0.041456	0.166543
C23	C	0.254523	0.000016	0.109521
C24	C	0.502004	0.000011	0.189794
C25	C	0.574832	0.000020	0.191073
C26	C	0.591517	0.000015	0.039525
C27	C	0.518690	0.000014	0.038249
C28	C	0.473938	0.000009	0.113386
N29	N	0.824722	-0.189683	0.110752
C30	C	0.872217	-0.227995	0.054084
C31	C	0.872221	-0.304640	0.054080
C32	C	0.824738	-0.342970	0.110759
C33	C	0.777235	-0.304649	0.167431
C34	C	0.777227	-0.228006	0.167427
N35	N	0.815834	-0.463298	0.184358
N36	N	0.815846	-0.536106	0.184358
C37	C	0.824757	-0.573892	0.110771
N38	N	0.833671	-0.536120	0.037180
N39	N	0.833663	-0.463305	0.037180
C40	C	0.824741	-0.426077	0.110768
C41	C	0.872259	-0.695311	0.054094
C42	C	0.872259	-0.771958	0.054089
C43	C	0.777276	-0.771965	0.167446
C44	C	0.777273	-0.695321	0.167444
C45	C	0.824768	-0.656998	0.110769
C46	C	0.952397	0.000020	0.104226
C47	C	1.029905	0.000026	0.105582
C48	C	0.829877	0.000009	-0.041260
C49	C	0.828521	0.000008	-0.133551
N50	N	0.824774	0.189717	0.110767
C51	C	0.888992	0.000020	-0.356025
C52	C	0.887712	0.000026	-0.442741
C53	C	0.760494	0.000023	-0.422443
C54	C	0.761775	0.000022	-0.335728
C55	C	0.826026	0.000017	-0.302522
C56	C	0.823465	0.000024	-0.475953
C57	C	0.822077	0.000030	-0.569974
C58	C	0.827414	0.000012	-0.208495
C59	C	0.819614	0.000027	0.262786
C60	C	0.820970	0.000032	0.355076
H61	H	0.183930	0.000025	-0.029445
H62	H	0.941309	0.000018	-0.328992
O63	O	0.458555	0.000146	0.262799
C64	C	0.471296	0.063202	0.309219
H65	H	0.496205	0.107275	0.265238
H66	H	0.419621	0.084372	0.342746
H67	H	0.508361	0.048948	0.357208
H68	H	0.938985	0.000031	-0.486301
O69	O	0.602124	0.000156	0.265281
C70	C	0.643766	0.063214	0.270553
H71	H	0.626561	0.107284	0.227166
H72	H	0.637207	0.084388	0.337583
H73	H	0.701201	0.048962	0.251175
O74	O	0.698145	-0.000012	-0.454839
C75	C	0.710515	0.000005	-0.542849
H76	H	0.765004	-0.023044	-0.563418
H77	H	0.669402	-0.035349	-0.569327
H78	H	0.707142	0.058420	-0.566969
O79	O	0.014469	-0.000103	0.254950
C80	C	-0.028185	-0.063149	0.258732
H81	H	-0.001516	-0.107232	0.216119
H82	H	-0.036398	-0.084311	0.325732
H83	H	-0.081132	-0.048887	0.237405
H84	H	0.495840	0.000014	-0.023970
O85	O	0.157952	-0.000016	0.257568
C86	C	0.102836	0.000001	0.323609
H87	H	0.053363	-0.023045	0.300483
H88	H	0.118038	-0.035356	0.376962
H89	H	0.092540	0.058415	0.346786
O90	O	0.047508	-0.000001	-0.043852
C91	C	0.102626	0.000018	-0.109891
H92	H	0.152090	-0.023033	-0.086771
H93	H	0.087413	-0.035334	-0.163259
H94	H	0.112944	0.058433	-0.133046
H95	H	0.627959	0.000016	-0.021646
H96	H	0.910932	-0.803152	0.007939
H97	H	0.910898	-0.335839	0.007933
H98	H	0.738601	-0.664125	0.213592
O99	O	0.918373	-0.190883	-0.001055
C100	C	0.960306	-0.241140	-0.051059
H101	H	0.931688	-0.295784	-0.051908
H102	H	0.970973	-0.219006	-0.117491
H103	H	1.012163	-0.249270	-0.024215
O104	O	0.700560	0.000115	-0.283834
C105	C	0.661566	0.063185	-0.298824
H106	H	0.678723	0.084209	-0.364669
H107	H	0.603331	0.049001	-0.292505
H108	H	0.671113	0.107344	-0.251423
O109	O	0.731082	-0.341961	0.222374
C110	C	0.688018	-0.386303	0.177976
H111	H	0.715846	-0.397787	0.112835
H112	H	0.676971	-0.440197	0.212713
H113	H	0.636417	-0.356784	0.172476
H114	H	0.738550	-0.196811	0.213574
O115	O	0.918414	-0.658193	-0.001044
C116	C	0.960344	-0.708448	-0.051056
H117	H	0.931723	-0.763090	-0.051909
H118	H	0.971010	-0.686309	-0.117485
H119	H	1.012201	-0.716582	-0.024215
H120	H	0.738611	-0.803173	0.213592
