data_functionalizedCrystal
_audit_creation_method	'MofGen! by Chris Wilmer'
_symmetry_space_group_name_H-M	'P1'
_symmetry_Int_Tables_number	1
_symmetry_cell_setting	triclinic
loop_
_symmetry_equiv_pos_as_xyz
  x,y,z
_cell_length_a	10.654550
_cell_length_b	14.971482
_cell_length_c	13.448316
_cell_angle_alpha	89.993798
_cell_angle_beta	89.994587
_cell_angle_gamma	84.048756
loop_
_atom_site_label
_atom_site_type_symbol
_atom_site_fract_x
_atom_site_fract_y
_atom_site_fract_z
O1	O	0.163637	1.187840	-0.082676
O2	O	0.183240	0.927546	-0.082681
O3	O	-0.009365	1.063678	-0.082675
O4	O	0.356242	1.051708	-0.082682
O5	O	-0.009377	1.063660	0.082709
O6	O	0.183228	0.927529	0.082703
O7	O	0.163625	1.187823	0.082707
Cu8	Cu	0.173426	1.057674	0.097806
Cu9	Cu	0.173440	1.057694	-0.097780
O10	O	0.356230	1.051691	0.082701
C11	C	0.182359	0.894208	0.000010
C12	C	0.179734	0.794896	0.000009
C13	C	0.178491	0.748235	0.090160
C14	C	0.176005	0.654923	0.090162
C15	C	0.174770	0.608273	0.000010
C16	C	0.176009	0.654941	-0.090149
C17	C	0.178487	0.748252	-0.090149
C18	C	0.170849	0.460451	-0.090142
C19	C	0.168374	0.367133	-0.090143
C20	C	0.168367	0.367122	0.090168
C21	C	0.170845	0.460433	0.090168
C22	C	0.172086	0.507094	0.000009
C23	C	-0.056159	1.062790	0.000016
C24	C	-0.195574	1.060161	0.000012
C25	C	-0.275921	1.140313	0.000017
C26	C	-0.406916	1.137837	0.000010
C27	C	-0.377203	0.975050	-0.000002
C28	C	-0.246211	0.977526	-0.000002
C29	C	-0.293077	1.234297	0.000028
C30	C	-0.424071	1.231821	0.000021
C31	C	0.403025	1.052578	0.000008
C32	C	0.542440	1.055208	0.000005
C33	C	0.164507	1.221161	0.000014
C34	C	0.167132	1.320472	0.000009
N35	N	0.173415	1.057666	0.235370
N36	N	0.173440	1.057709	-0.235344
C37	C	0.088165	1.117964	0.287413
C38	C	0.088163	1.117970	0.391517
C39	C	0.173420	1.057681	0.443575
C40	C	0.258674	0.997376	0.391525
C41	C	0.258669	0.997367	0.287423
C42	C	0.258683	0.997401	0.608505
C43	C	0.258691	0.997411	0.712613
C44	C	0.088178	1.118004	0.712598
C45	C	0.088172	1.117995	0.608497
C46	C	0.173428	1.057691	0.556454
H47	H	0.167357	0.329126	0.163579
O48	O	0.172230	0.505864	-0.177658
C49	C	0.282361	0.550358	-0.183058
H50	H	0.318954	0.561171	-0.104781
H51	H	0.259668	0.618107	-0.221211
H52	H	0.357513	0.507775	-0.227547
O53	O	0.341537	0.938749	0.763030
C54	C	0.416792	0.885526	0.694776
H55	H	0.365305	0.884202	0.620570
H56	H	0.435753	0.814216	0.724871
H57	H	0.510169	0.915120	0.683695
O58	O	-0.250735	1.269937	0.085169
C59	C	-0.118624	1.270393	0.080121
H60	H	-0.078199	1.217348	0.024763
H61	H	-0.075890	1.254823	0.156675
H62	H	-0.094954	1.339376	0.054842
H63	H	0.179507	0.786210	0.163573
H64	H	-0.264109	1.271065	-0.069180
O65	O	0.005531	1.176584	0.442186
C66	C	0.072931	1.232189	0.502364
H67	H	0.171118	1.197165	0.517952
H68	H	0.020554	1.246021	0.575574
H69	H	0.081621	1.298343	0.462232
O70	O	0.005236	1.176592	0.558079
C71	C	-0.069993	1.229834	0.626334
H72	H	-0.071499	1.193166	0.700552
H73	H	-0.170254	1.242858	0.596259
H74	H	-0.029060	1.296530	0.637382
O75	O	0.167128	0.321958	-0.177803
C76	C	0.168782	0.383146	-0.257380
H77	H	0.130806	0.453118	-0.230958
H78	H	0.107155	0.361484	-0.320431
H79	H	0.269720	0.384314	-0.285101
O80	O	0.341364	0.938685	0.442049
C81	C	0.320756	0.850018	0.416618
H82	H	0.220206	0.848962	0.388011
H83	H	0.335096	0.805227	0.485090
H84	H	0.390302	0.824167	0.356192
O85	O	0.341553	0.938946	0.557838
C86	C	0.419156	0.987323	0.497620
H87	H	0.369295	1.057001	0.482017
H88	H	0.438933	0.950108	0.424421
H89	H	0.511989	0.993976	0.537727
O90	O	-0.426186	0.894706	-0.000056
C91	C	-0.327175	0.824493	-0.000033
H92	H	-0.238150	0.850125	-0.031337
H93	H	-0.354624	0.766859	-0.048055
H94	H	-0.308690	0.799717	0.079309
O95	O	0.174766	0.609770	-0.177812
C96	C	0.176429	0.670964	-0.257383
H97	H	0.138454	0.740934	-0.230955
H98	H	0.114805	0.649309	-0.320439
H99	H	0.277369	0.672132	-0.285098
O100	O	0.179477	0.793639	-0.177698
C101	C	0.072246	0.857090	-0.183081
H102	H	-0.004465	0.835579	-0.131918
H103	H	0.035799	0.861330	-0.262816
H104	H	0.098692	0.925668	-0.158863
H105	H	-0.180796	0.912259	-0.000019
O106	O	-0.478725	1.265631	-0.085261
C107	C	-0.428485	1.214930	-0.167035
H108	H	-0.331792	1.179959	-0.146547
H109	H	-0.418713	1.261380	-0.233138
H110	H	-0.494322	1.162455	-0.187545
H111	H	-0.466217	1.267225	0.069233
O112	O	0.005224	1.176563	0.237002
C113	C	-0.070000	1.229799	0.305266
H114	H	-0.071497	1.193124	0.379481
H115	H	-0.170264	1.242823	0.275198
H116	H	-0.029069	1.296495	0.316318
O117	O	0.341536	0.938919	0.236755
C118	C	0.419143	0.987289	0.176535
H119	H	0.369287	1.056969	0.160929
H120	H	0.438916	0.950072	0.103337
H121	H	0.511977	0.993940	0.216641
O122	O	0.174635	0.609716	0.177802
C123	C	0.066546	0.641970	0.232640
H124	H	0.032117	0.712875	0.206996
H125	H	0.091073	0.643037	0.315112
H126	H	-0.010955	0.596082	0.220155
O127	O	0.171989	0.505618	0.177829
C128	C	0.170392	0.444424	0.257406
H129	H	0.128899	0.381368	0.230984
H130	H	0.110183	0.476688	0.320459
H131	H	0.270801	0.425735	0.285122
H132	H	0.018759	1.167105	0.754978
