data_functionalizedCrystal
_audit_creation_method	'MofGen! by Chris Wilmer'
_symmetry_space_group_name_H-M	'P1'
_symmetry_Int_Tables_number	1
_symmetry_cell_setting	triclinic
loop_
_symmetry_equiv_pos_as_xyz
  x,y,z
_cell_length_a	15.538191
_cell_length_b	15.944551
_cell_length_c	14.185569
_cell_angle_alpha	76.843158
_cell_angle_beta	97.875798
_cell_angle_gamma	65.385416
loop_
_atom_site_label
_atom_site_type_symbol
_atom_site_fract_x
_atom_site_fract_y
_atom_site_fract_z
O1	O	1.228526	-0.247244	-0.083424
O2	O	0.954273	-0.150258	-0.083426
O3	O	1.098891	-0.323313	-0.083416
O4	O	1.083908	-0.074190	-0.083434
O5	O	1.141613	-0.374430	0.083422
O6	O	0.996995	-0.201376	0.083412
O7	O	1.271248	-0.298362	0.083414
Cu8	Cu	1.138022	-0.254536	0.098646
Cu9	Cu	1.087499	-0.194084	-0.098658
O10	O	1.126630	-0.125307	0.083404
C11	C	0.940539	-0.165670	-0.000007
C12	C	0.835967	-0.135444	-0.000007
C13	C	0.548159	-0.435726	-0.000001
C14	C	0.449895	-0.407303	-0.000004
C15	C	0.427459	-0.247430	-0.000015
C16	C	0.525725	-0.275842	-0.000008
C17	C	0.586068	-0.369990	-0.000002
C18	C	0.563633	-0.210106	-0.000008
C19	C	0.661889	-0.238513	-0.000006
C20	C	0.722237	-0.332657	-0.000003
C21	C	0.684324	-0.398398	0.000001
C22	C	0.503287	-0.115955	-0.000021
C23	C	0.541195	-0.050219	-0.000022
C24	C	0.639455	-0.078629	-0.000012
C25	C	0.699803	-0.172772	-0.000009
C26	C	0.677368	-0.012888	-0.000016
C27	C	0.775625	-0.041296	-0.000013
C28	C	0.798059	-0.201180	-0.000007
C29	C	1.119630	-0.379976	0.000003
C30	C	1.117766	-0.472653	0.000004
C31	C	1.023667	-0.658813	-0.000011
C32	C	1.088426	-0.758358	0.082251
C33	C	1.114392	-0.642349	-0.000004
C34	C	1.046328	-0.707950	-0.082238
C35	C	1.111124	-0.806262	-0.000016
C36	C	1.179193	-0.740694	0.082325
C37	C	1.137063	-0.690253	-0.082237
C38	C	1.201893	-0.789808	0.000044
C39	C	1.116272	-0.547921	0.000004
C40	C	1.109253	-0.900693	-0.000016
C41	C	1.284982	-0.282950	-0.000007
C42	C	1.389552	-0.313173	-0.000014
C43	C	1.105890	-0.068644	-0.000017
C44	C	1.107753	0.024036	-0.000025
N45	N	1.173564	-0.297058	0.237420
N46	N	1.051965	-0.151571	-0.237432
C47	C	0.947542	-0.026679	0.605054
C48	C	0.974471	-0.058885	0.710078
C49	C	1.102556	-0.212090	0.710047
C50	C	1.075635	-0.179898	0.605022
C51	C	0.998128	-0.087192	0.552534
C52	C	1.126220	-0.240411	0.552501
C53	C	1.099304	-0.208220	0.447485
C54	C	1.021802	-0.115516	0.394989
C55	C	0.971211	-0.055001	0.447517
C56	C	1.203732	-0.333115	0.604991
C57	C	1.254318	-0.393628	0.552471
C58	C	1.227397	-0.361440	0.447452
C59	C	1.149895	-0.268736	0.394957
C60	C	1.277988	-0.421956	0.394924
C61	C	1.251071	-0.389765	0.289908
C62	C	1.122978	-0.236545	0.289940
H63	H	0.628221	0.063771	-0.000031
C64	C	1.255071	-0.758303	0.176384
N65	N	1.312217	-0.771562	0.247231
H66	H	0.492050	0.026438	-0.000031
H67	H	1.059858	-0.161058	0.247202
C68	C	1.303728	-0.865680	0.000110
N69	N	1.380430	-0.922832	0.000165
H70	H	0.423280	-0.092828	-0.000026
H71	H	1.157593	-0.660505	-0.151786
H72	H	0.990134	-0.695013	-0.151788
H73	H	0.999890	-0.089306	0.309478
C74	C	0.614544	-0.539297	0.000010
N75	N	0.664543	-0.617302	0.000016
C76	C	0.885911	0.046959	0.389774
N77	N	0.821654	0.123746	0.346282
C78	C	0.921967	-0.582822	0.000101
N79	N	0.845371	-0.525586	0.000192
C80	C	0.408201	-0.479626	-0.000003
N81	N	0.376796	-0.534098	-0.000005
H82	H	0.378314	-0.170773	-0.000024
C83	C	0.817327	0.031017	-0.000011
N84	N	0.848736	0.085485	-0.000013
H85	H	0.884421	0.048808	0.562316
C86	C	1.060644	-0.798506	0.176200
N87	N	1.039712	-0.828740	0.246959
H88	H	0.933272	-0.009599	0.752835
C89	C	1.187810	-0.314067	0.767796
N90	N	1.252021	-0.390879	0.811292
H91	H	1.225647	-0.359320	0.690503
C92	C	1.339571	-0.495605	0.610220
N93	N	1.403782	-0.572418	0.653715
C94	C	1.363247	-0.523929	0.452676
N95	N	1.427465	-0.600737	0.496174
H96	H	1.292265	-0.439041	0.247145
H97	H	0.802240	-0.355781	-0.000014
C98	C	0.864443	-0.304751	0.000005
N99	N	0.914443	-0.382756	0.000010
H100	H	0.733460	-0.475065	0.000012
