data_functionalizedCrystal
_audit_creation_method	'MofGen! by Chris Wilmer'
_symmetry_space_group_name_H-M	'P1'
_symmetry_Int_Tables_number	1
_symmetry_cell_setting	triclinic
loop_
_symmetry_equiv_pos_as_xyz
  x,y,z
_cell_length_a	10.540510
_cell_length_b	10.540510
_cell_length_c	11.295483
_cell_angle_alpha	94.138442
_cell_angle_beta	85.853539
_cell_angle_gamma	84.513311
loop_
_atom_site_label
_atom_site_type_symbol
_atom_site_fract_x
_atom_site_fract_y
_atom_site_fract_z
O1	O	1.694365	0.170250	-0.099026
O2	O	1.324945	0.187146	-0.099026
O3	O	1.518102	-0.006012	-0.099025
O4	O	1.501207	0.363408	-0.099026
O5	O	1.501137	0.010927	0.099026
O6	O	1.307979	0.204085	0.099025
O7	O	1.677399	0.187189	0.099025
Cu8	Cu	1.491140	0.197184	0.117109
Cu9	Cu	1.511204	0.177151	-0.117109
O10	O	1.484241	0.380347	0.099025
C11	C	1.269159	0.194356	-0.000000
C12	C	1.128209	0.190589	-0.000001
C13	C	0.910778	0.324736	-0.000456
C14	C	1.057335	0.328793	-0.000003
C15	C	1.073769	0.129515	0.113093
C16	C	0.927001	0.126483	0.113181
C17	C	0.946488	0.104342	-0.112040
C18	C	1.092956	0.110770	-0.113527
C19	C	1.508361	-0.044846	-0.000002
C20	C	1.504595	-0.185796	-0.000009
C21	C	1.638742	-0.403227	0.000444
C22	C	1.642798	-0.256671	-0.000008
C23	C	1.443536	-0.240220	-0.113104
C24	C	1.440504	-0.386988	-0.113192
C25	C	1.418332	-0.367534	0.112028
C26	C	1.424760	-0.221066	0.113517
C27	C	1.733185	0.179978	-0.000003
C28	C	1.874136	0.183745	-0.000010
C29	C	1.493983	0.419181	-0.000001
C30	C	1.497750	0.560130	-0.000002
N31	N	1.477037	0.211273	0.281845
N32	N	1.525316	0.163052	-0.281846
C33	C	1.626834	0.061561	0.531135
C34	C	1.616186	0.072217	0.655798
C35	C	1.445087	0.243235	0.655838
C36	C	1.455735	0.232578	0.531174
C37	C	1.546613	0.141740	0.468827
C38	C	1.557267	0.131090	0.344161
C39	C	1.386163	0.302101	0.344203
C40	C	1.375514	0.312757	0.468867
H41	H	0.924411	0.000514	-0.112804
N42	N	1.304173	-0.418026	-0.120017
H43	H	1.301144	-0.513518	-0.120130
H44	H	1.249618	-0.373893	-0.048928
H45	H	1.469072	-0.185303	0.197183
N46	N	1.700860	-0.449637	0.107873
H47	H	1.778928	-0.510845	0.080887
H48	H	1.726975	-0.374238	0.157377
N49	N	1.299632	0.388574	0.276987
H50	H	1.207551	0.374953	0.298697
H51	H	1.313311	0.480631	0.298704
H52	H	0.903576	0.023555	0.118319
N53	N	1.514155	-0.449857	-0.225160
H54	H	1.548281	-0.382157	-0.273996
H55	H	1.587757	-0.509810	-0.203128
N56	N	1.724822	-0.036434	0.463884
H57	H	1.719386	-0.031026	0.375455
H58	H	1.813158	-0.019074	0.485641
N59	N	1.309250	-0.177901	-0.118694
H60	H	1.271872	-0.214326	-0.192085
H61	H	1.254819	-0.195003	-0.045383
H62	H	0.879537	0.182063	0.197720
N63	N	1.290324	-0.155304	0.122560
H64	H	1.241382	-0.179759	0.196271
H65	H	1.293474	-0.059616	0.127551
N66	N	1.277507	0.410739	0.536110
H67	H	1.189131	0.393416	0.514432
H68	H	1.283040	0.405281	0.624518
N69	N	0.844013	0.404785	0.106377
H70	H	0.868072	0.495204	0.105413
H71	H	0.748428	0.405187	0.103529
H72	H	1.454909	-0.402388	0.197754
N73	N	1.702723	-0.014249	0.723002
H74	H	1.649301	-0.066502	0.774737
H75	H	1.761891	-0.073324	0.664506
H76	H	1.705431	-0.235217	-0.081218
H77	H	1.371088	0.317185	0.706617
H78	H	1.314503	-0.389607	0.112790
H79	H	1.093620	0.377206	-0.081076
N80	N	1.655269	0.033121	0.276895
H81	H	1.743649	0.050437	0.298566
H82	H	1.637870	-0.055221	0.298613
N83	N	1.136085	-0.004771	0.118689
H84	H	1.068658	-0.066692	0.117573
H85	H	1.200364	-0.027246	0.047787
N86	N	1.718801	-0.469999	-0.106381
H87	H	1.681519	-0.443184	-0.181708
H88	H	1.809204	-0.445923	-0.105314
H89	H	0.875767	0.371642	-0.081563
H90	H	1.499877	-0.216567	-0.197268
H91	H	1.078776	0.391422	0.081204
H92	H	1.097408	0.185846	0.197258
H93	H	1.128736	0.155089	-0.197194
N94	N	0.899994	0.152479	-0.225593
H95	H	0.831549	0.226252	-0.205561
H96	H	0.973865	0.182095	-0.274667
H97	H	1.142619	0.009287	-0.120357
N98	N	1.706929	-0.208641	0.107378
H99	H	1.785394	-0.167165	0.080376
H100	H	1.645476	-0.143934	0.158245
