data_functionalizedCrystal
_audit_creation_method	'MofGen! by Chris Wilmer'
_symmetry_space_group_name_H-M	'P1'
_symmetry_Int_Tables_number	1
_symmetry_cell_setting	triclinic
loop_
_symmetry_equiv_pos_as_xyz
  x,y,z
_cell_length_a	13.032831
_cell_length_b	15.297327
_cell_length_c	13.032268
_cell_angle_alpha	105.380838
_cell_angle_beta	90.886977
_cell_angle_gamma	93.742008
loop_
_atom_site_label
_atom_site_type_symbol
_atom_site_fract_x
_atom_site_fract_y
_atom_site_fract_z
Zn1	Zn	1.363663	-0.605893	-0.885100
Zn2	Zn	1.355662	-0.739564	-0.736122
Zn3	Zn	1.221861	-0.568414	-0.684891
Zn4	Zn	1.162990	-0.734713	-0.885413
O5	O	1.276044	-0.662146	-0.797881
O6	O	1.502581	-0.641340	-0.886647
O7	O	1.359203	-0.703205	-0.583060
O8	O	1.268657	-0.447848	-0.689878
O9	O	1.496703	-0.739547	-0.777194
O10	O	1.372838	-0.475384	-0.836970
O11	O	1.260899	-0.577463	-0.545420
O12	O	1.074072	-0.572759	-0.690181
O13	O	1.168320	-0.731280	-1.031638
O14	O	1.030820	-0.694938	-0.837504
O15	O	1.315754	-0.636636	-1.031408
O16	O	1.302118	-0.864458	-0.777497
O17	O	1.160562	-0.860894	-0.887180
C18	C	1.016151	-0.629256	-0.758318
C19	C	0.904960	-0.615209	-0.741421
C20	C	0.834008	-0.669477	-0.806700
C21	C	0.719086	-0.654961	-0.789238
C22	C	1.224108	-0.895233	-0.837959
C23	C	1.201976	-0.994963	-0.855153
C24	C	1.434586	-1.283427	-0.675411
C25	C	1.455381	-1.189725	-0.659251
C26	C	1.392032	-1.141030	-0.708225
C27	C	1.307884	-1.186046	-0.773362
C28	C	1.287082	-1.279756	-0.789517
C29	C	1.244528	-1.137359	-0.822332
C30	C	1.160380	-1.182375	-0.887469
C31	C	1.139583	-1.276076	-0.903621
C32	C	1.202932	-1.324771	-0.854647
C33	C	1.265329	-1.043649	-0.806176
C34	C	1.117825	-1.039978	-0.920283
C35	C	1.097031	-1.133680	-0.936443
C36	C	1.536951	-0.695165	-0.837600
C37	C	1.648135	-0.709236	-0.854526
C38	C	1.236363	-0.687598	-1.070508
C39	C	1.219453	-0.698444	-1.186686
C40	C	1.328207	-0.428155	-0.757674
C41	C	1.350436	-0.328442	-0.740540
C42	C	1.284861	-0.656451	-1.238367
C43	C	1.267385	-0.667660	-1.358443
C44	C	1.315643	-0.636736	-0.526313
C45	C	1.332803	-0.625662	-0.410122
H46	H	0.880623	-0.557999	-0.672609
C47	C	1.048241	-1.325108	-0.974259
C48	C	1.043569	-1.417587	-0.977903
C49	C	0.959433	-1.462780	-1.042954
H50	H	1.055930	-1.318224	-1.044117
H51	H	0.986639	-1.299922	-0.946039
H52	H	1.105157	-1.442766	-1.006127
H53	H	1.035865	-1.424498	-0.908062
H54	H	0.897831	-1.437594	-1.014734
H55	H	0.967130	-1.455889	-1.112808
H56	H	0.956247	-1.525531	-1.045428
C57	C	1.005778	-1.182544	-1.007342
C58	C	1.017509	-1.172125	-1.110150
C59	C	0.933476	-1.217138	-1.175493
H60	H	0.944142	-1.157360	-0.979265
H61	H	1.002465	-1.245340	-1.010019
H62	H	1.020811	-1.109342	-1.107469
H63	H	1.079128	-1.197313	-1.138258
H64	H	0.930163	-1.279933	-1.178171
H65	H	0.871846	-1.191949	-1.147407
H66	H	0.941429	-1.210082	-1.245258
C67	C	0.680360	-0.785547	-0.946385
C68	C	0.592630	-0.832784	-1.003238
C69	C	0.622276	-0.903078	-1.087872
H70	H	0.718233	-0.826045	-0.919320
H71	H	0.722098	-0.760683	-0.992311
H72	H	0.550909	-0.857648	-0.957321
H73	H	0.554746	-0.792312	-1.030329
H74	H	0.664014	-0.878214	-1.133798
H75	H	0.660150	-0.943569	-1.060797
H76	H	0.562757	-0.935132	-1.126463
H77	H	1.353794	-0.612199	-1.193718
C78	C	0.686861	-0.578594	-0.697442
C79	C	0.774591	-0.531328	-0.640616
C80	C	0.744945	-0.460969	-0.556058
H81	H	0.645118	-0.603372	-0.651466
H82	H	0.648995	-0.538138	-0.724611
H83	H	0.812440	-0.571778	-0.613446
H84	H	0.816344	-0.506530	-0.686562
H85	H	0.707079	-0.420513	-0.583228
H86	H	0.703201	-0.485754	-0.510091
H87	H	0.804464	-0.428885	-0.517498
H88	H	1.333843	-1.007005	-0.753141
C89	C	1.546683	-1.140949	-0.588384
C90	C	1.534979	-1.151413	-0.485591
C91	C	1.619080	-1.106505	-0.420282
H92	H	1.550088	-1.078149	-0.585637
H93	H	1.608270	-1.166203	-0.616550
H94	H	1.473409	-1.126156	-0.457432
H95	H	1.531586	-1.214203	-0.488304
H96	H	1.680667	-1.131759	-0.448449
H97	H	1.622478	-1.043708	-0.417545
H98	H	1.611155	-1.113606	-0.350534
C99	C	1.175551	-0.726669	-1.418162
C100	C	1.176496	-0.726083	-1.525394
C101	C	1.091926	-0.780441	-1.580443
H102	H	1.113771	-0.703449	-1.387967
H103	H	1.179334	-0.787170	-1.412973
H104	H	1.172704	-0.665594	-1.530577
H105	H	1.238256	-0.749310	-1.555619
H106	H	1.095709	-0.840942	-1.575255
H107	H	1.030153	-0.757217	-1.550240
H108	H	1.092561	-0.780057	-1.653208
C109	C	1.424682	-0.566709	-1.350422
C110	C	1.423761	-0.567320	-1.243197
C111	C	1.508382	-0.513025	-1.188170
H112	H	1.420970	-0.506199	-1.355564
H113	H	1.486427	-0.589987	-1.380680
H114	H	1.362031	-0.544039	-1.212948
H115	H	1.427487	-0.627816	-1.238023
H116	H	1.570127	-0.536303	-1.218428
H117	H	1.504662	-0.452519	-1.193320
H118	H	1.507774	-0.513439	-1.115414
C119	C	1.049191	-0.986968	-0.973412
C120	C	1.085436	-0.895275	-0.945349
C121	C	1.022249	-0.846412	-0.994276
H122	H	0.980780	-0.992335	-0.950530
H123	H	1.050171	-1.010645	-1.048530
H124	H	1.084445	-0.871605	-0.870247
H125	H	1.153839	-0.889880	-0.968233
H126	H	1.023228	-0.870089	-1.069394
H127	H	0.953840	-0.851787	-0.971390
H128	H	1.046837	-0.784195	-0.975251
H129	H	1.408967	-1.064733	-0.695062
C130	C	1.503235	-1.336455	-0.622336
C131	C	1.467005	-1.428151	-0.650427
C132	C	1.530217	-1.477026	-0.601542
H133	H	1.502287	-1.312822	-0.547224
H134	H	1.571644	-1.331053	-0.645252
H135	H	1.398614	-1.433548	-0.627505
H136	H	1.467956	-1.451810	-0.725530
H137	H	1.598626	-1.471623	-0.624457
H138	H	1.529265	-1.453385	-0.526432
H139	H	1.505649	-1.539247	-0.620602
H140	H	0.858346	-0.726682	-0.875518
H141	H	1.150512	-0.742686	-1.231332
H142	H	1.186008	-1.401072	-0.867804
