data_functionalizedCrystal
_audit_creation_method	'MofGen! by Chris Wilmer'
_symmetry_space_group_name_H-M	'P1'
_symmetry_Int_Tables_number	1
_symmetry_cell_setting	triclinic
loop_
_symmetry_equiv_pos_as_xyz
  x,y,z
_cell_length_a	23.532407
_cell_length_b	14.853567
_cell_length_c	22.010155
_cell_angle_alpha	89.994498
_cell_angle_beta	90.000423
_cell_angle_gamma	96.758196
loop_
_atom_site_label
_atom_site_type_symbol
_atom_site_fract_x
_atom_site_fract_y
_atom_site_fract_z
O1	O	0.074345	-1.195558	0.050490
O2	O	0.083202	-0.933002	0.050501
O3	O	-0.004123	-1.072197	0.050484
O4	O	0.161671	-1.056363	0.050507
O5	O	-0.004110	-1.072172	-0.050567
O6	O	0.083216	-0.932977	-0.050549
O7	O	0.074358	-1.195533	-0.050561
Cu8	Cu	0.078788	-1.064252	-0.059782
Cu9	Cu	0.078773	-1.064282	0.059722
O10	O	0.161684	-1.056337	-0.050544
C11	C	0.082808	-0.899405	-0.000023
C12	C	0.081605	-0.799334	-0.000019
C13	C	-0.025335	-1.071782	-0.000043
C14	C	-0.088557	-1.070569	-0.000048
N15	N	0.078799	-1.064238	-0.143834
C16	C	-0.487334	-1.145338	-0.000017
C17	C	-0.546739	-1.144212	-0.000013
O18	O	-0.583181	-1.213524	0.000007
N19	N	-0.569726	-1.061460	-0.000010
C20	C	-0.533305	-0.979829	-0.000005
O21	O	-0.558312	-0.909339	-0.000001
C22	C	-0.473901	-0.980957	-0.000005
C23	C	-0.450917	-1.063714	-0.000015
C24	C	-0.464349	-1.228089	-0.000026
C25	C	-0.404948	-1.229214	-0.000032
C26	C	-0.368531	-1.147590	-0.000029
C27	C	-0.391516	-1.064839	-0.000020
C28	C	-0.437481	-0.899327	0.000004
C29	C	-0.378073	-0.900461	0.000004
C30	C	-0.355089	-0.983218	-0.000006
C31	C	-0.295698	-0.984341	-0.000023
N32	N	-0.272711	-1.067092	-0.000027
C33	C	-0.309127	-1.148717	-0.000029
C34	C	-0.658058	-0.977469	-0.000003
C35	C	-0.717461	-0.976340	-0.000007
C36	C	-0.730890	-1.140723	-0.000014
C37	C	-0.671486	-1.141851	-0.000014
C38	C	-0.635070	-1.060220	-0.000006
C39	C	-0.184380	-1.151075	-0.000042
C40	C	-0.124974	-1.152194	-0.000050
C41	C	-0.111549	-0.987811	-0.000041
C42	C	-0.170951	-0.986692	-0.000035
C43	C	-0.207365	-1.068331	-0.000034
O44	O	-0.259221	-0.915065	-0.000040
O45	O	-0.284112	-1.219196	-0.000025
C46	C	0.182895	-1.056753	-0.000016
C47	C	0.246118	-1.057966	-0.000007
C48	C	0.074753	-1.229130	-0.000035
C49	C	0.075956	-1.329200	-0.000035
C50	C	0.024648	-0.387423	-0.000041
C51	C	0.128393	-0.365008	-0.000026
C52	C	0.129524	-0.459029	-0.000024
C53	C	0.078216	-0.517252	-0.000029
C54	C	0.025777	-0.481454	-0.000037
C55	C	0.181961	-0.494835	-0.000010
C56	C	0.183094	-0.588861	-0.000007
C57	C	0.131786	-0.647086	-0.000017
C58	C	0.079345	-0.611283	-0.000025
C59	C	0.028037	-0.669506	-0.000031
C60	C	-0.024404	-0.633704	-0.000043
C61	C	-0.025531	-0.539679	-0.000047
C62	C	0.132913	-0.741111	-0.000014
C63	C	0.029166	-0.763536	-0.000027
C64	C	0.040110	-1.125922	-0.563621
C65	C	0.040106	-1.125926	-0.627229
O66	O	0.007219	-1.178335	-0.660127
N67	N	0.078761	-1.064282	-0.659041
C68	C	0.117418	-1.002624	-0.627243
O69	O	0.150295	-0.950190	-0.660143
C70	C	0.117418	-1.002616	-0.563637
C71	C	0.078765	-1.064270	-0.531827
C72	C	0.001460	-1.187570	-0.531812
C73	C	0.001465	-1.187567	-0.468209
C74	C	0.040120	-1.125915	-0.436415
C75	C	0.078770	-1.064267	-0.468224
C76	C	0.156072	-0.940954	-0.531839
C77	C	0.156069	-0.940951	-0.468229
C78	C	0.117416	-1.002605	-0.436419
C79	C	0.117430	-1.002611	-0.372827
N80	N	0.078776	-1.064255	-0.341014
C81	C	0.040121	-1.125907	-0.372808
C82	C	0.117412	-1.002644	-0.760821
C83	C	0.117415	-1.002655	-0.824426
C84	C	0.040103	-1.125956	-0.824407
C85	C	0.040104	-1.125949	-0.760801
C86	C	0.078758	-1.064288	-0.729008
C87	C	0.040134	-1.125896	-0.239237
C88	C	0.040144	-1.125890	-0.175628
C89	C	0.117453	-1.002586	-0.175652
C90	C	0.117446	-1.002595	-0.239256
C91	C	0.078781	-1.064253	-0.271046
O92	O	0.150298	-0.950226	-0.339889
O93	O	0.007243	-1.178324	-0.339901
N94	N	0.078758	-1.064304	0.143774
H95	H	-0.106264	-1.219587	-0.000059
O96	O	-0.020660	-0.820128	-0.000139
C97	C	-0.023098	-0.875204	-0.052462
H98	H	0.006003	-0.840509	-0.089039
H99	H	-0.068961	-0.886184	-0.070035
H100	H	-0.008309	-0.943452	-0.040621
H101	H	0.223733	-0.447423	0.000001
H102	H	0.225795	-0.618003	0.000003
O103	O	0.193673	-0.881181	-0.562758
C104	C	0.228862	-0.929124	-0.599561
H105	H	0.229914	-1.000210	-0.580393
H106	H	0.274082	-0.891922	-0.600281
H107	H	0.211045	-0.934007	-0.647768
H108	H	0.008627	-1.176155	-0.850306
H109	H	-0.066179	-0.681121	-0.000044
O110	O	0.193543	-0.880965	-0.437319
C111	C	0.162982	-0.825638	-0.400517
H112	H	0.118064	-0.824526	-0.419680
H113	H	0.186134	-0.753774	-0.399807
H114	H	0.160037	-0.853872	-0.352308
O115	O	0.154988	-0.942683	-0.855228
C116	C	0.189114	-0.888288	-0.813518
H117	H	0.165763	-0.887486	-0.768178
H118	H	0.197719	-0.816215	-0.831897
H119	H	0.231455	-0.917177	-0.806752
O120	O	0.155013	-0.942618	-0.270065
C121	C	0.189142	-0.888219	-0.228359
H122	H	0.165798	-0.887424	-0.183014
H123	H	0.197738	-0.816144	-0.246738
H124	H	0.231487	-0.917098	-0.221603
H125	H	-0.068226	-0.510520	-0.000071
O126	O	0.178269	-0.308547	-0.000099
C127	C	0.210102	-0.324679	-0.052437
H128	H	0.196175	-0.396131	-0.069887
H129	H	0.257593	-0.317643	-0.040659
H130	H	0.202281	-0.273307	-0.089084
H131	H	-0.214023	-1.217554	-0.000039
H132	H	-0.081888	-0.921355	-0.000040
H133	H	0.148928	-0.952392	-0.149756
H134	H	0.175610	-0.770257	-0.000005
H135	H	0.008668	-1.176099	-0.149731
O136	O	-0.193186	-0.906225	-0.000002
C137	C	-0.148302	-0.834424	-0.000018
H138	H	-0.107923	-0.859331	0.019100
H139	H	-0.160762	-0.776625	0.029330
H140	H	-0.139928	-0.809253	-0.048496
O141	O	0.002499	-1.185753	-0.270047
C142	C	-0.053893	-1.171593	-0.254509
H143	H	-0.053856	-1.136834	-0.208332
H144	H	-0.081859	-1.239608	-0.252319
H145	H	-0.071563	-1.126887	-0.290311
O146	O	-0.382720	-1.309685	-0.000009
C147	C	-0.427610	-1.381477	-0.000024
H148	H	-0.467983	-1.356570	0.019108
H149	H	-0.415151	-1.439295	0.029312
H150	H	-0.435996	-1.406617	-0.048504
H151	H	-0.493994	-1.294561	-0.000026
O152	O	-0.459769	-0.818911	0.000124
C153	C	-0.441145	-0.769207	0.052457
H154	H	-0.428751	-0.817631	0.089028
H155	H	-0.477156	-0.731177	0.070034
H156	H	-0.402469	-0.718622	0.040629
H157	H	-0.018049	-0.358269	-0.000053
H158	H	-0.030011	-1.237768	-0.442313
O159	O	-0.036113	-1.247553	-0.562596
C160	C	-0.070231	-1.301939	-0.520869
H161	H	-0.046873	-1.302723	-0.475530
H162	H	-0.078833	-1.374018	-0.539228
H163	H	-0.112573	-1.273054	-0.514106
O164	O	0.002499	-1.185869	-0.729998
C165	C	-0.031605	-1.240299	-0.771708
H166	H	-0.032287	-1.203346	-0.817052
H167	H	-0.077072	-1.254463	-0.753334
H168	H	-0.013034	-1.307099	-0.778464
O169	O	-0.342642	-0.821221	-0.000071
C170	C	-0.307891	-0.816921	-0.052416
H171	H	-0.304819	-0.888442	-0.069871
H172	H	-0.263276	-0.782925	-0.040645
H173	H	-0.327474	-0.775918	-0.089057
H174	H	-0.652777	-1.209239	-0.000021
H175	H	-0.760552	-1.207187	-0.000014
H176	H	-0.736168	-0.908951	-0.000010
H177	H	0.148894	-0.952434	-0.734938
H178	H	-0.628410	-0.910991	-0.000002
