data_functionalizedCrystal
_audit_creation_method	'MofGen! by Chris Wilmer'
_symmetry_space_group_name_H-M	'P1'
_symmetry_Int_Tables_number	1
_symmetry_cell_setting	triclinic
loop_
_symmetry_equiv_pos_as_xyz
  x,y,z
_cell_length_a	12.759401
_cell_length_b	10.686285
_cell_length_c	12.759393
_cell_angle_alpha	85.602987
_cell_angle_beta	89.979062
_cell_angle_gamma	85.633237
loop_
_atom_site_label
_atom_site_type_symbol
_atom_site_fract_x
_atom_site_fract_y
_atom_site_fract_z
Zn1	Zn	1.638400	-0.502237	-0.562006
Zn2	Zn	2.138400	-0.002237	-0.062006
Zn3	Zn	1.651794	-0.713276	-0.372873
Zn4	Zn	2.151794	-0.213276	0.127127
Zn5	Zn	1.462703	-0.502304	-0.386337
Zn6	Zn	1.962703	-0.002304	0.113663
Zn7	Zn	1.476188	-0.713187	-0.548516
Zn8	Zn	1.976188	-0.213187	-0.048516
O9	O	1.557272	-0.607751	-0.467433
O10	O	2.057272	-0.107751	0.032567
O11	O	1.787199	-0.530240	-0.536928
O12	O	2.287199	-0.030240	-0.036928
O13	O	1.626673	-0.685355	-0.227634
O14	O	2.126673	-0.185355	0.272366
O15	O	1.474761	-0.325719	-0.420919
O16	O	1.974761	0.174281	0.079081
O17	O	1.797039	-0.685290	-0.397973
O18	O	2.297039	-0.185290	0.102027
O19	O	1.603845	-0.325669	-0.549983
O20	O	2.103845	0.174331	-0.049983
O21	O	1.487749	-0.530355	-0.237525
O22	O	1.987749	-0.030355	0.262475
O23	O	1.317471	-0.530269	-0.407839
O24	O	1.817471	-0.030269	0.092161
O25	O	1.497744	-0.685139	-0.697331
O26	O	1.997744	-0.185139	-0.197331
O27	O	1.327378	-0.685204	-0.526992
O28	O	1.827378	-0.185204	-0.026992
O29	O	1.616921	-0.530155	-0.707241
O30	O	2.116921	-0.030155	-0.207241
O31	O	1.639748	-0.889840	-0.384893
O32	O	2.139748	-0.389840	0.115107
O33	O	1.510731	-0.889775	-0.513937
O34	O	2.010731	-0.389775	-0.013937
C35	C	1.284303	-0.607735	-0.467413
C36	C	1.784303	-0.107735	0.032587
C37	C	1.167528	-0.607759	-0.467427
C38	C	1.667528	-0.107759	0.032573
C39	C	1.117860	-0.688557	-0.529357
C40	C	1.617860	-0.188557	-0.029357
C41	C	1.008136	-0.688562	-0.529377
C42	C	1.508136	-0.188562	-0.029377
C43	C	0.997758	-0.526968	-0.405531
C44	C	1.497758	-0.026968	0.094469
C45	C	1.107479	-0.526957	-0.405516
C46	C	1.607479	-0.026957	0.094484
C47	C	1.578185	-0.935592	-0.446513
C48	C	2.078185	-0.435592	0.053487
C49	C	1.587228	-1.075844	-0.437599
C50	C	2.087228	-0.575844	0.062401
C51	C	1.831306	-0.607767	-0.467453
C52	C	2.331306	-0.107767	0.032547
C53	C	1.948083	-0.607774	-0.467462
C54	C	2.448083	-0.107774	0.032538
C55	C	1.557342	-0.607630	-0.741474
C56	C	2.057342	-0.107630	-0.241474
C57	C	1.557373	-0.607578	-0.858254
C58	C	2.057373	-0.107578	-0.358254
C59	C	1.536305	-0.278630	-0.488457
C60	C	2.036305	0.221370	0.011543
C61	C	1.527370	-0.138378	-0.497417
C62	C	2.027370	0.361622	0.002583
C63	C	1.619432	-0.526865	-0.918279
C64	C	2.119432	-0.026865	-0.418279
C65	C	1.619446	-0.526810	-1.028007
C66	C	2.119446	-0.026810	-0.528007
C67	C	1.495340	-0.688194	-1.017674
C68	C	1.995340	-0.188194	-0.517674
C69	C	1.495320	-0.688241	-0.907949
C70	C	1.995320	-0.188241	-0.407949
C71	C	1.557256	-0.607780	-0.194464
C72	C	2.057256	-0.107780	0.305536
C73	C	1.557406	-0.607477	-0.077707
C74	C	2.057406	-0.107477	0.422293
H75	H	1.166749	-0.754348	-0.579772
H76	H	1.666749	-0.254348	-0.079772
C77	C	1.665803	-1.148459	-0.359185
C78	C	2.165803	-0.648459	0.140815
H79	H	1.702137	-1.090421	-0.322849
H80	H	2.202137	-0.590421	0.177151
H81	H	1.714827	-1.199798	-0.396184
H82	H	2.214827	-0.699798	0.103816
H83	H	1.628908	-1.199944	-0.310130
H84	H	2.128908	-0.699944	0.189870
H85	H	1.669980	-0.461083	-1.076875
H86	H	2.169980	0.038917	-0.576875
H87	H	0.967702	-0.754353	-0.579808
H88	H	1.467702	-0.254353	-0.079808
H89	H	0.948853	-0.461184	-0.355123
H90	H	1.448853	0.038816	0.144877
H91	H	1.147919	-0.461154	-0.355087
H92	H	1.647919	0.038846	0.144913
C93	C	1.427095	-0.776927	-1.072336
C94	C	1.927095	-0.276927	-0.572336
H95	H	1.390124	-0.824996	-1.020870
H96	H	1.890124	-0.324996	-0.520870
H97	H	1.470794	-0.831891	-1.111633
H98	H	1.970794	-0.331891	-0.611633
H99	H	1.378246	-0.728630	-1.118217
H100	H	1.878246	-0.228630	-0.618217
H101	H	1.469206	-1.084620	-0.555451
H102	H	1.969206	-0.584620	-0.055451
C103	C	1.687672	-0.438124	-0.863619
C104	C	2.187672	0.061876	-0.363619
H105	H	1.724625	-0.390037	-0.915088
H106	H	2.224625	0.109963	-0.415088
H107	H	1.736519	-0.486405	-0.817735
H108	H	2.236519	0.013595	-0.317735
H109	H	1.643961	-0.383158	-0.824326
H110	H	2.143961	0.116842	-0.324326
C111	C	1.427059	-0.777038	-0.841916
C112	C	1.927059	-0.277038	-0.341916
H113	H	1.390119	-0.825085	-0.887225
H114	H	1.890119	-0.325085	-0.387225
H115	H	1.378201	-0.728788	-0.802186
H116	H	1.878201	-0.228788	-0.302186
H117	H	1.470756	-0.832040	-0.795610
H118	H	1.970756	-0.332040	-0.295610
