data_functionalizedCrystal
_audit_creation_method	'MofGen! by Chris Wilmer'
_symmetry_space_group_name_H-M	'P1'
_symmetry_Int_Tables_number	1
_symmetry_cell_setting	triclinic
loop_
_symmetry_equiv_pos_as_xyz
  x,y,z
_cell_length_a	19.077105
_cell_length_b	18.050589
_cell_length_c	19.076919
_cell_angle_alpha	92.275255
_cell_angle_beta	90.076224
_cell_angle_gamma	87.724731
loop_
_atom_site_label
_atom_site_type_symbol
_atom_site_fract_x
_atom_site_fract_y
_atom_site_fract_z
Zn1	Zn	1.058247	-0.359281	-0.440438
Zn2	Zn	1.558247	0.140719	0.059562
Zn3	Zn	1.062879	-0.478689	-0.322938
Zn4	Zn	1.562879	0.021311	0.177062
Zn5	Zn	0.945466	-0.349333	-0.318231
Zn6	Zn	1.445466	0.150667	0.181769
Zn7	Zn	0.940701	-0.478241	-0.435691
Zn8	Zn	1.440701	0.021759	0.064309
O9	O	1.001823	-0.416386	-0.379325
O10	O	1.501823	0.083614	0.120675
O11	O	1.157193	-0.379472	-0.428809
O12	O	1.657193	0.120528	0.071191
O13	O	1.051237	-0.457554	-0.223983
O14	O	1.551237	0.042446	0.276017
O15	O	0.960482	-0.246731	-0.334459
O16	O	1.460482	0.253269	0.165541
O17	O	1.160596	-0.467201	-0.342482
O18	O	1.660596	0.032799	0.157518
O19	O	1.043342	-0.254040	-0.424244
O20	O	1.543342	0.245960	0.075756
O21	O	0.964973	-0.362516	-0.220524
O22	O	1.464973	0.137484	0.279476
O23	O	0.846502	-0.362082	-0.329856
O24	O	1.346502	0.137918	0.170144
O25	O	0.952361	-0.466437	-0.534652
O26	O	1.452361	0.033563	-0.034652
O27	O	0.843002	-0.456790	-0.416153
O28	O	1.343002	0.043210	0.083847
O29	O	1.038722	-0.379038	-0.538140
O30	O	1.538722	0.120962	-0.038140
O31	O	1.046617	-0.582551	-0.337879
O32	O	1.546617	-0.082551	0.162121
O33	O	0.956853	-0.582222	-0.420717
O34	O	1.456853	-0.082222	0.079283
C35	C	0.819256	-0.408308	-0.371979
C36	C	1.319256	0.091692	0.128021
C37	C	0.741152	-0.404871	-0.368853
C38	C	1.241152	0.095129	0.131147
C39	C	0.702657	-0.452635	-0.412244
C40	C	1.202657	0.047365	0.087756
C41	C	0.629270	-0.449396	-0.409310
C42	C	1.129270	0.050604	0.090690
C43	C	0.594379	-0.398396	-0.362981
C44	C	1.094379	0.101604	0.137019
C45	C	0.632879	-0.350627	-0.319588
C46	C	1.132879	0.149373	0.180412
C47	C	0.706264	-0.353863	-0.322526
C48	C	1.206264	0.146137	0.177474
C49	C	0.375093	-0.383419	-0.349388
C50	C	0.875093	0.116581	0.150612
C51	C	0.301702	-0.380188	-0.346452
C52	C	0.801702	0.119812	0.153548
C53	C	0.298098	-0.478956	-0.436175
C54	C	0.798098	0.021044	0.063825
C55	C	0.371485	-0.482191	-0.439105
C56	C	0.871485	0.017809	0.060895
C57	C	0.409979	-0.434419	-0.395715
C58	C	0.909979	0.065581	0.104285
N59	N	0.519366	-0.395085	-0.359980
N60	N	1.019366	0.104915	0.140020
N61	N	0.484990	-0.437727	-0.398721
N62	N	0.984990	0.062273	0.101279
C63	C	1.001739	-0.609334	-0.379310
C64	C	1.501739	-0.109334	0.120690
C65	C	1.001766	-0.691882	-0.379329
C66	C	1.501766	-0.191882	0.120671
C67	C	0.952999	-0.891182	-0.424363
C68	C	1.452999	-0.391182	0.075637
C69	C	0.938449	-0.937256	-0.359556
C70	C	1.438449	-0.437256	0.140444
C71	C	1.001835	-0.843016	-0.379341
C72	C	1.501835	-0.343016	0.120659
C73	C	1.016419	-0.944025	-0.444157
C74	C	1.516419	-0.444025	0.055843
C75	C	1.001900	-0.989004	-0.379358
C76	C	1.501900	-0.489004	0.120642
C77	C	0.987253	-0.887999	-0.314499
C78	C	1.487253	-0.387999	0.185501
C79	C	1.065250	-0.894768	-0.399145
C80	C	1.565250	-0.394768	0.100855
C81	C	1.050726	-0.940818	-0.334295
C82	C	1.550726	-0.440818	0.165705
C83	C	1.001796	-0.758915	-0.379332
C84	C	1.501796	-0.258915	0.120668
C85	C	1.001939	-1.073102	-0.379360
C86	C	1.501939	-0.573102	0.120640
C87	C	1.185104	-0.424496	-0.386700
C88	C	1.685104	0.075504	0.113300
C89	C	1.263207	-0.427952	-0.389843
C90	C	1.763207	0.072048	0.110157
C91	C	0.994493	-0.423797	-0.562605
C92	C	1.494493	0.076203	-0.062605
C93	C	0.991370	-0.426955	-0.640709
C94	C	1.491370	0.073045	-0.140709
C95	C	1.001926	-0.222686	-0.379356
C96	C	1.501926	0.277314	0.120644
C97	C	1.001970	-0.140143	-0.379369
C98	C	1.501970	0.359857	0.120631
C99	C	1.034863	-0.382937	-0.679219
C100	C	1.534863	0.117063	-0.179219
C101	C	1.031920	-0.385901	-0.752605
C102	C	1.531920	0.114099	-0.252605
C103	C	0.985486	-0.432888	-0.787479
C104	C	1.485486	0.067112	-0.287479
C105	C	0.941988	-0.476908	-0.748964
C106	C	1.441988	0.023092	-0.248964
C107	C	0.944928	-0.473940	-0.675579
C108	C	1.444928	0.026060	-0.175579
C109	C	0.971867	-0.446642	-1.006761
C110	C	1.471867	0.053358	-0.506761
C111	C	0.968931	-0.449609	-1.080151
C112	C	1.468931	0.050391	-0.580151
C113	C	1.058863	-0.358601	-1.083787
C114	C	1.558863	0.141399	-0.583787
C115	C	1.061802	-0.355639	-1.010401
C116	C	1.561802	0.144361	-0.510401
C117	C	1.018301	-0.399657	-0.971892
C118	C	1.518301	0.100343	-0.471892
N119	N	0.982478	-0.435921	-0.862492
N120	N	1.482478	0.064079	-0.362492
N121	N	1.021307	-0.396619	-0.896881
N122	N	1.521307	0.103381	-0.396881
C123	C	1.009165	-0.408952	-0.196759
C124	C	1.509165	0.091048	0.303241
C125	C	1.012425	-0.405591	-0.118661
C126	C	1.512425	0.094409	0.381339
H127	H	0.406425	-0.344525	-0.314051
H128	H	0.906425	0.155475	0.185949
N129	N	0.918849	-0.500293	-1.117769
N130	N	1.418849	-0.000293	-0.617769
H131	H	0.891737	-0.527727	-1.082239
H132	H	1.391737	-0.027727	-0.582239
H133	H	0.885131	-0.469855	-1.146915
H134	H	1.385131	0.030145	-0.646915
H135	H	0.737606	-0.314965	-0.287196
H136	H	1.237606	0.185035	0.212804
H137	H	0.904177	-0.515163	-0.777365
H138	H	1.404177	-0.015163	-0.277365
N139	N	1.111887	-0.304963	-0.972787
N140	N	1.611887	0.195037	-0.472787
H141	H	1.138994	-0.277526	-1.008319
H142	H	1.638994	0.222474	-0.508319
H143	H	1.084524	-0.268098	-0.941191
H144	H	1.584524	0.231902	-0.441191
N145	N	1.136227	-0.869869	-0.421354
N146	N	1.636227	-0.369869	0.078646
H147	H	1.135801	-0.813877	-0.420733
H148	H	1.635801	-0.313877	0.079267
H149	H	1.173220	-0.888789	-0.387856
H150	H	1.673220	-0.388789	0.112144
N151	N	0.924927	-0.494107	-0.965249
N152	N	1.424927	0.005893	-0.465249
H153	H	0.935287	-0.548170	-0.978449
H154	H	1.435287	-0.048170	-0.478449
H155	H	0.933833	-0.485042	-0.913478
H156	H	1.433833	0.014958	-0.413478
H157	H	0.399888	-0.523722	-0.476830
H158	H	0.899888	-0.023722	0.023170
H159	H	0.273296	-0.338649	-0.308729
H160	H	0.773296	0.161351	0.191271
H161	H	0.604465	-0.309099	-0.281869
H162	H	1.104465	0.190901	0.218131
N163	N	1.032724	-0.976480	-0.516752
N164	N	1.532724	-0.476480	-0.016752
H165	H	1.039651	-0.935037	-0.549802
H166	H	1.539651	-0.435037	-0.049802
H167	H	1.076940	-1.009047	-0.515158
H168	H	1.576940	-0.509047	-0.015158
N169	N	0.898228	-0.862309	-0.474721
N170	N	1.398228	-0.362309	0.025279
H171	H	0.850365	-0.877667	-0.459674
H172	H	1.350365	-0.377667	0.040326
H173	H	0.898954	-0.806391	-0.474669
H174	H	1.398954	-0.306391	0.025331
H175	H	1.067339	-0.350058	-0.783957
H176	H	1.567339	0.149942	-0.283957
H177	H	0.884851	-0.956052	-0.342820
H178	H	1.384851	-0.456052	0.157180
H179	H	1.072677	-0.344677	-0.650829
H180	H	1.572677	0.155323	-0.150829
N181	N	0.256578	-0.530469	-0.482979
N182	N	0.756578	-0.030469	0.017021
H183	H	0.289817	-0.563267	-0.512774
H184	H	0.789817	-0.063267	-0.012774
H185	H	0.227256	-0.562290	-0.453103
H186	H	0.727256	-0.062290	0.046897
N187	N	0.970860	-0.855674	-0.241876
N188	N	1.470860	-0.355674	0.258124
H189	H	1.007536	-0.874143	-0.207826
H190	H	1.507536	-0.374143	0.292174
H191	H	0.970903	-0.799748	-0.242385
H192	H	1.470903	-0.299748	0.257615
N193	N	0.740287	-0.507647	-0.462209
N194	N	1.240287	-0.007647	0.037791
H195	H	0.704762	-0.537413	-0.489252
H196	H	1.204762	-0.037413	0.010748
H197	H	0.769453	-0.480133	-0.495996
H198	H	1.269453	0.019867	0.004004
N199	N	0.587750	-0.500922	-0.456100
N200	N	1.087750	-0.000922	0.043900
H201	H	0.620989	-0.533728	-0.485888
H202	H	1.120989	-0.033728	0.014112
H203	H	0.558433	-0.532734	-0.426210
H204	H	1.058433	-0.032734	0.073790
H205	H	1.092055	-0.962470	-0.296183
H206	H	1.592055	-0.462470	0.203817
H207	H	0.909504	-0.509777	-0.644225
H208	H	1.409504	-0.009777	-0.144225
N209	N	1.105778	-0.311126	-1.125321
N210	N	1.605778	0.188874	-0.625321
H211	H	1.096871	-0.320133	-1.177102
H212	H	1.596871	0.179867	-0.677102
H213	H	1.095382	-0.257086	-1.112060
H214	H	1.595382	0.242914	-0.612060
