data_functionalizedCrystal
_audit_creation_method	'MofGen! by Chris Wilmer'
_symmetry_space_group_name_H-M	'P1'
_symmetry_Int_Tables_number	1
_symmetry_cell_setting	triclinic
loop_
_symmetry_equiv_pos_as_xyz
  x,y,z
_cell_length_a	16.109318
_cell_length_b	19.188924
_cell_length_c	15.186229
_cell_angle_alpha	89.994194
_cell_angle_beta	90.000224
_cell_angle_gamma	83.305264
loop_
_atom_site_label
_atom_site_type_symbol
_atom_site_fract_x
_atom_site_fract_y
_atom_site_fract_z
O1	O	1.102821	0.089802	-0.073159
O2	O	0.860724	0.100958	-0.073178
O3	O	0.988762	-0.006260	-0.073158
O4	O	0.974783	0.197019	-0.073179
O5	O	0.988754	-0.006261	0.073300
O6	O	0.860716	0.100956	0.073280
O7	O	1.102813	0.089800	0.073298
Zn8	Zn	0.981763	0.095378	0.096542
Zn9	Zn	0.981774	0.095380	-0.096422
O10	O	0.974775	0.197018	0.073278
C11	C	0.829747	0.100503	0.000049
C12	C	0.737457	0.099142	0.000042
C13	C	0.438402	0.094746	-0.079776
C14	C	0.525119	0.096021	-0.079781
C15	C	0.525129	0.096009	0.079894
C16	C	0.438414	0.094730	0.079899
C17	C	0.395053	0.094102	0.000061
C18	C	0.568484	0.096656	0.000051
C19	C	0.662507	0.098037	0.000046
C20	C	0.301024	0.092719	0.000066
C21	C	0.988306	-0.032272	0.000072
C22	C	0.986950	-0.109780	0.000074
C23	C	0.986322	-0.146180	-0.079760
C24	C	0.985036	-0.219006	-0.079767
C25	C	0.984395	-0.255431	0.000065
C26	C	0.985019	-0.219022	0.079910
C27	C	0.986296	-0.146197	0.079914
N28	N	1.029698	-0.374987	0.059485
N29	N	1.028486	-0.444168	0.059476
C30	C	0.980544	-0.474849	0.000056
N31	N	0.933870	-0.433737	-0.059367
N32	N	0.935086	-0.364550	-0.059359
C33	C	0.983009	-0.334398	0.000069
C34	C	0.978520	-0.590215	-0.079791
C35	C	0.977229	-0.663041	-0.079794
C36	C	0.977220	-0.663057	0.079885
C37	C	0.978503	-0.590231	0.079886
C38	C	0.979157	-0.553815	0.000046
C39	C	1.133790	0.090255	0.000070
C40	C	1.226080	0.091616	0.000070
C41	C	0.975231	0.223030	0.000046
C42	C	0.976587	0.300538	0.000038
N43	N	0.981761	0.095376	0.228235
N44	N	0.981782	0.095376	-0.228114
C45	C	1.038476	0.047916	0.453966
C46	C	1.038478	0.047915	0.546156
C47	C	0.925062	0.142838	0.546147
C48	C	0.925056	0.142836	0.453959
C49	C	0.981768	0.095376	0.407871
C50	C	0.981776	0.095377	0.592249
C51	C	0.981779	0.095375	0.692205
C52	C	0.981764	0.095376	0.307909
H53	H	0.560411	0.096544	-0.144793
H54	H	0.979021	-0.560595	0.144895
H55	H	0.878873	0.181484	0.416426
Cl56	Cl	1.109767	-0.011750	0.396031
H57	H	1.084654	0.009268	0.583684
Cl58	Cl	0.853774	0.202503	0.604091
Cl59	Cl	0.987085	-0.100435	0.180286
Cl60	Cl	0.987138	-0.100403	-0.180130
Cl61	Cl	0.579645	0.096807	0.180256
Cl62	Cl	0.383894	0.093953	-0.180143
H63	H	0.403118	0.094205	0.144916
Cl64	Cl	0.984206	-0.264812	0.180270
Cl65	Cl	0.984246	-0.264775	-0.180138
H66	H	0.979048	-0.560563	-0.144801
Cl67	Cl	0.976433	-0.708801	-0.180167
Cl68	Cl	0.976410	-0.708842	0.180246
