data_functionalizedCrystal
_audit_creation_method	'MofGen! by Chris Wilmer'
_symmetry_space_group_name_H-M	'P1'
_symmetry_Int_Tables_number	1
_symmetry_cell_setting	triclinic
loop_
_symmetry_equiv_pos_as_xyz
  x,y,z
_cell_length_a	10.654562
_cell_length_b	10.654551
_cell_length_c	9.730223
_cell_angle_alpha	90.001469
_cell_angle_beta	89.996961
_cell_angle_gamma	84.487733
loop_
_atom_site_label
_atom_site_type_symbol
_atom_site_fract_x
_atom_site_fract_y
_atom_site_fract_z
O1	O	1.667825	0.176469	-0.114371
O2	O	1.302349	0.193259	-0.114353
O3	O	1.493489	0.002125	-0.114363
O4	O	1.476685	0.367603	-0.114361
O5	O	1.493487	0.002130	0.114217
O6	O	1.302347	0.193263	0.114227
O7	O	1.667823	0.176474	0.114209
Zn8	Zn	1.485085	0.184869	0.150510
Zn9	Zn	1.485088	0.184863	-0.150654
O10	O	1.476683	0.367607	0.114219
C11	C	1.255550	0.192025	-0.000061
C12	C	1.116108	0.188327	-0.000054
C13	C	1.050576	0.186604	0.124534
C14	C	0.919554	0.183139	0.124511
C15	C	0.919606	0.183125	-0.124700
C16	C	1.050627	0.186581	-0.124675
C17	C	1.116057	0.188350	0.249155
C18	C	1.050524	0.186629	0.373753
C19	C	0.919502	0.183165	0.373730
C20	C	0.854012	0.181421	0.249109
C21	C	1.492254	-0.044670	-0.000076
C22	C	1.488562	-0.184114	-0.000085
C23	C	1.486831	-0.249629	-0.124682
C24	C	1.483351	-0.380649	-0.124675
C25	C	1.483338	-0.380629	0.124535
C26	C	1.486809	-0.249610	0.124527
C27	C	1.488584	-0.184132	-0.249294
C28	C	1.486854	-0.249647	-0.373901
C29	C	1.483374	-0.380668	-0.373894
C30	C	1.481623	-0.446173	-0.249281
C31	C	1.714622	0.177708	-0.000086
C32	C	1.854064	0.181406	-0.000102
C33	C	1.477918	0.414403	-0.000071
C34	C	1.481610	0.553846	-0.000071
N35	N	1.485092	0.184873	0.356046
N36	N	1.485090	0.184850	-0.356190
C37	C	1.569751	0.100268	0.427968
C38	C	1.569747	0.100253	0.571851
C39	C	1.400422	0.269459	0.571878
C40	C	1.400420	0.269467	0.427998
C41	C	1.654422	0.015674	0.356017
C42	C	1.739089	-0.068937	0.427938
C43	C	1.739086	-0.068952	0.571821
C44	C	1.654415	0.015644	0.643783
H45	H	0.747325	0.178596	0.249100
C46	C	1.832223	-0.161978	0.348788
H47	H	1.820112	-0.149844	0.252796
H48	H	1.817871	-0.245934	0.372350
H49	H	1.916155	-0.147537	0.372374
H50	H	1.654435	0.015682	0.238860
H51	H	1.654411	0.015616	0.760942
C52	C	1.488715	-0.177539	0.261580
H53	H	1.487192	-0.235311	0.335796
H54	H	1.416960	-0.117491	0.266754
H55	H	1.563186	-0.135367	0.266753
H56	H	1.331482	0.338359	0.369439
C57	C	1.832210	-0.162019	0.650932
H58	H	1.882639	-0.212389	0.587469
H59	H	1.786589	-0.214733	0.707057
H60	H	1.884879	-0.116343	0.707060
H61	H	1.103984	0.187989	-0.226126
C62	C	0.847375	0.181589	0.510774
H63	H	0.759955	0.179366	0.492917
H64	H	0.860014	0.255370	0.561744
H65	H	0.877639	0.109138	0.562204
C66	C	1.122558	0.188545	0.510824
H67	H	1.209973	0.190867	0.492997
H68	H	1.110009	0.114872	0.562023
H69	H	1.092139	0.261099	0.562011
H70	H	1.488267	-0.196303	-0.475356
C71	C	0.847568	0.181223	-0.261769
H72	H	0.760150	0.178931	-0.243939
H73	H	0.877974	0.108682	-0.312969
H74	H	0.860123	0.254909	-0.312955
C75	C	1.492584	-0.040036	-0.249307
H76	H	1.493425	-0.010415	-0.341363
H77	H	1.566524	-0.019470	-0.203283
H78	H	1.420305	-0.001330	-0.203296
H79	H	1.481953	-0.434005	-0.475355
C80	C	1.477761	-0.590289	-0.249276
H81	H	1.476976	-0.619928	-0.341329
H82	H	1.403859	-0.610963	-0.203250
H83	H	1.550083	-0.628885	-0.203261
C84	C	1.307305	0.362515	0.651032
H85	H	1.319441	0.350401	0.747023
H86	H	1.223370	0.348099	0.627462
H87	H	1.321681	0.446468	0.627457
H88	H	1.481913	-0.433974	0.225989
H89	H	1.222741	0.191176	0.249187
