data_functionalizedCrystal
_audit_creation_method	'MofGen! by Chris Wilmer'
_symmetry_space_group_name_H-M	'P1'
_symmetry_Int_Tables_number	1
_symmetry_cell_setting	triclinic
loop_
_symmetry_equiv_pos_as_xyz
  x,y,z
_cell_length_a	14.853567
_cell_length_b	16.109301
_cell_length_c	15.186229
_cell_angle_alpha	89.994833
_cell_angle_beta	90.000997
_cell_angle_gamma	96.451794
loop_
_atom_site_label
_atom_site_type_symbol
_atom_site_fract_x
_atom_site_fract_y
_atom_site_fract_z
O1	O	1.196184	-0.108546	0.073183
O2	O	1.696184	0.391454	0.573183
O3	O	0.933703	-0.121477	0.073196
O4	O	1.433703	0.378523	0.573196
O5	O	1.072154	0.006009	0.073180
O6	O	1.572154	0.506009	0.573180
O7	O	1.057733	-0.236033	0.073199
O8	O	1.557733	0.263967	0.573199
O9	O	1.072145	0.006011	-0.073277
O10	O	1.572145	0.506011	0.426723
O11	O	0.933694	-0.121475	-0.073261
O12	O	1.433694	0.378525	0.426739
O13	O	1.196175	-0.108545	-0.073274
O14	O	1.696175	0.391455	0.426726
Zn15	Zn	1.064933	-0.115010	-0.096521
Zn16	Zn	1.564933	0.384990	0.403479
Zn17	Zn	1.064945	-0.115012	0.096443
Zn18	Zn	1.564945	0.384988	0.596443
O19	O	1.057724	-0.236031	-0.073258
O20	O	1.557724	0.263969	0.426742
C21	C	0.900111	-0.120890	-0.000031
C22	C	1.400111	0.379110	0.499969
C23	C	0.800030	-0.119135	-0.000027
C24	C	1.300030	0.380865	0.499973
C25	C	1.229767	-0.109131	-0.000045
C26	C	1.729767	0.390869	0.499955
C27	C	1.329848	-0.110887	-0.000044
C28	C	1.829848	0.389113	0.499956
C29	C	1.742245	-0.194038	-0.000022
C30	C	2.242245	0.305962	0.499978
C31	C	1.763776	-0.042582	-0.000034
C32	C	2.263776	0.457418	0.499966
C33	C	1.669745	-0.040931	-0.000039
C34	C	2.169745	0.459069	0.499961
C35	C	1.611959	-0.115835	-0.000034
C36	C	2.111959	0.384165	0.499966
C37	C	1.648204	-0.192390	-0.000024
C38	C	2.148204	0.307610	0.499976
C39	C	1.633492	0.035622	-0.000040
C40	C	2.133492	0.535622	0.499960
C41	C	1.539456	0.037276	-0.000044
C42	C	2.039456	0.537276	0.499956
C43	C	1.481668	-0.037629	-0.000045
C44	C	1.981668	0.462371	0.499955
C45	C	1.517919	-0.114187	-0.000036
C46	C	2.017919	0.385813	0.499964
C47	C	1.460133	-0.189090	-0.000032
C48	C	1.960133	0.310910	0.499968
C49	C	1.496382	-0.265649	-0.000029
C50	C	1.996382	0.234351	0.499971
C51	C	1.590417	-0.267295	-0.000026
C52	C	2.090417	0.232705	0.499974
C53	C	1.387634	-0.035983	-0.000049
C54	C	1.887634	0.464017	0.499951
C55	C	1.366093	-0.187442	-0.000034
C56	C	1.866093	0.312558	0.499966
C57	C	1.071566	0.036986	-0.000049
C58	C	1.571566	0.536986	0.499951
C59	C	1.069814	0.129284	-0.000050
C60	C	1.569814	0.629284	0.499950
C61	C	1.058313	-0.267007	-0.000027
C62	C	1.558313	0.232993	0.499973
C63	C	1.060064	-0.359305	-0.000020
C64	C	1.560064	0.140695	0.499980
N65	N	1.064931	-0.115007	-0.228214
N66	N	1.564931	0.384993	0.271786
C67	C	1.147896	0.351446	-0.000040
C68	C	1.647896	0.851446	0.499960
C69	C	1.146243	0.438169	-0.000032
C70	C	1.646243	0.938169	0.499968
C71	C	0.981976	0.418525	-0.000028
C72	C	1.481976	0.918525	0.499972
C73	C	0.983629	0.331804	-0.000029
C74	C	1.483629	0.831804	0.499971
C75	C	1.066592	0.298267	-0.000039
C76	C	1.566592	0.798267	0.499961
C77	C	1.063286	0.471711	-0.000031
C78	C	1.563286	0.971711	0.499969
C79	C	1.061494	0.565740	-0.000023
C80	C	1.561494	1.065740	0.499977
C81	C	1.068385	0.204233	-0.000046
C82	C	1.568385	0.704233	0.499954
C83	C	1.126258	-0.058576	-0.453943
C84	C	1.626258	0.441424	0.046057
C85	C	1.126261	-0.058574	-0.546133
C86	C	1.626261	0.441426	-0.046133
C87	C	1.003620	-0.171442	-0.546128
C88	C	1.503620	0.328558	-0.046128
C89	C	1.003614	-0.171439	-0.453940
C90	C	1.503614	0.328561	0.046060
C91	C	1.064938	-0.115007	-0.407850
C92	C	1.564938	0.384993	0.092150
C93	C	1.064947	-0.115008	-0.592228
C94	C	1.564947	0.384992	-0.092228
C95	C	1.064950	-0.115006	-0.692184
C96	C	1.564950	0.384994	-0.192184
C97	C	1.064934	-0.115008	-0.307888
C98	C	1.564934	0.384992	0.192112
N99	N	1.064954	-0.115008	0.228135
N100	N	1.564954	0.384992	0.728135
H101	H	1.319050	-0.248439	-0.000036
H102	H	1.819050	0.251561	0.499964
Br103	Br	1.791435	-0.297935	-0.000023
Br104	Br	2.291435	0.202065	0.499977
Br105	Br	1.256589	0.510338	-0.000028
Br106	Br	1.756589	1.010338	0.499972
H107	H	0.917418	0.288503	-0.000026
H108	H	1.417418	0.788503	0.499974
Br109	Br	0.920400	-0.248028	-0.608682
Br110	Br	1.420400	0.251972	-0.108682
Br111	Br	1.260487	0.305934	-0.000054
Br112	Br	1.760487	0.805934	0.499946
H113	H	0.914430	0.445842	-0.000021
H114	H	1.414430	0.945842	0.499979
Br115	Br	1.209481	0.018012	-0.391396
Br116	Br	1.709481	0.518012	0.108604
Br117	Br	1.417949	-0.367301	-0.000009
Br118	Br	1.917949	0.132699	0.499991
Br119	Br	0.920381	-0.248024	-0.391378
Br120	Br	1.420381	0.251976	0.108622
Br121	Br	1.639618	-0.371186	-0.000013
Br122	Br	2.139618	0.128814	0.499987
Br123	Br	1.842198	0.059068	-0.000035
Br124	Br	2.342198	0.559068	0.499965
Br125	Br	1.209480	0.018019	-0.608687
Br126	Br	1.709480	0.518019	-0.108687
H127	H	1.680547	0.096605	-0.000039
H128	H	2.180547	0.596605	0.499961
Br129	Br	1.338441	0.067909	-0.000050
Br130	Br	1.838441	0.567909	0.499950
Br131	Br	1.490268	0.141174	-0.000038
Br132	Br	1.990268	0.641174	0.499962
