data_functionalizedCrystal
_audit_creation_method	'MofGen! by Chris Wilmer'
_symmetry_space_group_name_H-M	'P1'
_symmetry_Int_Tables_number	1
_symmetry_cell_setting	triclinic
loop_
_symmetry_equiv_pos_as_xyz
  x,y,z
_cell_length_a	16.109301
_cell_length_b	11.804783
_cell_length_c	16.109301
_cell_angle_alpha	76.705655
_cell_angle_beta	83.461532
_cell_angle_gamma	76.713469
loop_
_atom_site_label
_atom_site_type_symbol
_atom_site_fract_x
_atom_site_fract_y
_atom_site_fract_z
O1	O	1.088169	0.098958	0.091889
O2	O	1.588169	0.598958	0.591889
O3	O	0.846105	0.098975	0.105186
O4	O	1.346105	0.598975	0.605186
O5	O	0.973788	0.098954	-0.022492
O6	O	1.473788	0.598954	0.477508
O7	O	0.960485	0.098979	0.219567
O8	O	1.460485	0.598979	0.719567
O9	O	1.003721	-0.099086	0.007481
O10	O	1.503721	0.400914	0.507481
O11	O	0.876037	-0.099064	0.135158
O12	O	1.376037	0.400936	0.635158
O13	O	1.118102	-0.099082	0.121862
O14	O	1.618102	0.400918	0.621862
Cu15	Cu	0.999803	-0.117156	0.131247
Cu16	Cu	1.499803	0.382844	0.631247
Cu17	Cu	0.964404	0.117049	0.095801
Cu18	Cu	1.464404	0.617049	0.595801
O19	O	0.990418	-0.099060	0.249539
O20	O	1.490418	0.400940	0.749539
C21	C	0.830096	-0.000042	0.119633
C22	C	1.330096	0.499958	0.619633
C23	C	0.737800	-0.000036	0.118017
C24	C	1.237800	0.499964	0.618017
N25	N	1.024707	-0.281883	0.156177
N26	N	1.524707	0.218117	0.656177
C27	C	0.428803	-0.000050	0.188502
C28	C	0.928803	0.499950	0.688502
C29	C	0.515523	-0.000043	0.190026
C30	C	1.015523	0.499957	0.690026
C31	C	0.535396	-0.000042	0.038537
C32	C	1.035396	0.499958	0.538537
C33	C	0.448677	-0.000041	0.037013
C34	C	0.948677	0.499959	0.537013
C35	C	0.395383	-0.000051	0.111998
C36	C	0.895383	0.499949	0.611998
C37	C	0.568822	-0.000045	0.115047
C38	C	1.068822	0.499955	0.615047
C39	C	0.662846	-0.000037	0.116700
C40	C	1.162846	0.499963	0.616700
C41	C	0.301352	-0.000056	0.110346
C42	C	0.801352	0.499944	0.610346
C43	C	0.879674	-0.655910	0.010990
C44	C	1.379674	-0.155910	0.510990
C45	C	0.860818	-0.531258	-0.007874
C46	C	1.360818	-0.031258	0.492126
C47	C	0.901788	-0.468908	0.033137
C48	C	1.401788	0.031092	0.533137
C49	C	0.961618	-0.531222	0.093016
C50	C	1.461618	-0.031222	0.593016
C51	C	0.980481	-0.655886	0.111878
C52	C	1.480481	-0.155886	0.611878
C53	C	1.002595	-0.468884	0.134025
C54	C	1.502595	0.031116	0.634025
C55	C	1.062425	-0.531198	0.193904
C56	C	1.562425	-0.031198	0.693904
C57	C	1.081284	-0.655849	0.212763
C58	C	1.581284	-0.155849	0.712763
C59	C	1.040313	-0.718199	0.171751
C60	C	1.540313	-0.218199	0.671751
C61	C	0.983733	-0.344220	0.115163
C62	C	1.483733	0.155780	0.615163
C63	C	1.084540	-0.344197	0.216050
C64	C	1.584540	0.155803	0.716050
C65	C	1.103395	-0.468848	0.234915
C66	C	1.603395	0.031152	0.734915
C67	C	1.134110	-0.000061	0.107414
C68	C	1.634110	0.499939	0.607414
C69	C	1.226405	-0.000059	0.109029
C70	C	1.726405	0.499941	0.609029
C71	C	0.988216	-0.000066	-0.038480
C72	C	1.488216	0.499934	0.461520
C73	C	0.986601	-0.000068	-0.130775
C74	C	1.486601	0.499932	0.369225
N75	N	0.939507	0.281777	0.070864
N76	N	1.439507	0.781777	0.570864
C77	C	1.058607	-0.000054	-0.353050
C78	C	1.558607	0.499946	0.146950
C79	C	1.057081	-0.000044	-0.439772
C80	C	1.557081	0.499956	0.060228
C81	C	0.905592	-0.000038	-0.419898
C82	C	1.405592	0.499962	0.080102
C83	C	0.907117	-0.000039	-0.333179
C84	C	1.407117	0.499961	0.166821
C85	C	0.983628	-0.000054	-0.299757
C86	C	1.483628	0.499946	0.200243
C87	C	0.980577	-0.000042	-0.473197
C88	C	1.480577	0.499958	0.026803
C89	C	0.978923	-0.000032	-0.567225
C90	C	1.478923	0.499968	-0.067225
C91	C	0.985283	-0.000062	-0.205723
C92	C	1.485283	0.499938	0.294277
C93	C	0.975990	-0.000037	0.265527
C94	C	1.475990	0.499963	0.765527
C95	C	0.977604	-0.000028	0.357821
C96	C	1.477604	0.499972	0.857821
H97	H	0.385414	-0.000057	0.249560
H98	H	0.885414	0.499943	0.749560
H99	H	0.846328	-0.706686	-0.022400
H100	H	1.346328	-0.206686	0.477600
Cl101	Cl	0.785585	-0.452930	-0.083125
Cl102	Cl	1.285585	0.047070	0.416875
Cl103	Cl	0.908521	-0.265899	0.039889
Cl104	Cl	1.408521	0.234101	0.539889
Cl105	Cl	1.151345	-0.000043	-0.506766
Cl106	Cl	1.651345	0.499957	-0.006766
Cl107	Cl	0.809412	-0.000021	-0.461922
Cl108	Cl	1.309412	0.499979	0.038078
H109	H	1.055659	-0.819701	0.187112
H110	H	1.555659	-0.319701	0.687112
H111	H	0.542728	-0.000041	0.252323
H112	H	1.042728	0.499959	0.752323
H113	H	0.886432	-0.367411	0.017774
H114	H	1.386432	0.132589	0.517774
Cl115	Cl	0.812848	-0.000028	-0.266179
Cl116	Cl	1.312848	0.499972	0.233821
H117	H	1.130008	-0.706582	0.261513
H118	H	1.630008	-0.206582	0.761513
H119	H	1.152110	-0.519602	0.283670
H120	H	1.652110	-0.019602	0.783670
H121	H	0.578798	-0.000037	-0.022513
H122	H	1.078798	0.499963	0.477487
Cl123	Cl	0.406658	-0.000027	-0.059174
Cl124	Cl	0.906658	0.499973	0.440826
Cl125	Cl	1.136053	-0.265823	0.267608
Cl126	Cl	1.636053	0.234177	0.767608
H127	H	1.120907	-0.000063	-0.325840
H128	H	1.620907	0.499937	0.174160
