data_functionalizedCrystal
_audit_creation_method	'MofGen! by Chris Wilmer'
_symmetry_space_group_name_H-M	'P1'
_symmetry_Int_Tables_number	1
_symmetry_cell_setting	triclinic
loop_
_symmetry_equiv_pos_as_xyz
  x,y,z
_cell_length_a	8.497374
_cell_length_b	8.497365
_cell_length_c	18.215407
_cell_angle_alpha	89.965465
_cell_angle_beta	89.998459
_cell_angle_gamma	90.037770
loop_
_atom_site_label
_atom_site_type_symbol
_atom_site_fract_x
_atom_site_fract_y
_atom_site_fract_z
Zn1	Zn	0.627641	-0.892191	1.125300
Zn2	Zn	0.960974	-0.558857	1.458634
Zn3	Zn	1.294308	-0.225524	1.791967
Zn4	Zn	0.891585	-0.628456	1.125228
Zn5	Zn	1.224918	-0.295123	1.458562
Zn6	Zn	1.558251	0.038211	1.791895
Zn7	Zn	0.627814	-0.628409	1.002201
Zn8	Zn	0.961148	-0.295075	1.335535
Zn9	Zn	1.294481	0.038258	1.668868
Zn10	Zn	0.891375	-0.892179	1.002250
Zn11	Zn	1.224708	-0.558845	1.335583
Zn12	Zn	1.558042	-0.225512	1.668917
O13	O	0.759604	-0.760309	1.063745
O14	O	1.092937	-0.426975	1.397078
O15	O	1.426270	-0.093642	1.730412
O16	O	0.662669	-0.857231	1.228275
O17	O	0.996002	-0.523897	1.561608
O18	O	1.329335	-0.190564	1.894942
O19	O	0.856755	-0.407687	1.108858
O20	O	1.190089	-0.074354	1.442191
O21	O	1.523422	0.258980	1.775525
O22	O	0.407029	-0.663385	1.018541
O23	O	0.740362	-0.330052	1.351874
O24	O	1.073696	0.003282	1.685207
O25	O	0.856587	-0.663466	1.228222
O26	O	1.189920	-0.330133	1.561556
O27	O	1.523254	0.003201	1.894889
O28	O	0.406902	-0.857185	1.108981
O29	O	0.740235	-0.523851	1.442314
O30	O	1.073568	-0.190518	1.775648
O31	O	0.662965	-0.407652	1.018471
O32	O	0.996298	-0.074319	1.351804
O33	O	1.329631	0.259014	1.685137
O34	O	0.662761	-0.663373	0.899224
O35	O	0.996095	-0.330040	1.232557
O36	O	1.329428	0.003293	1.565890
O37	O	0.856230	-1.112943	1.018623
O38	O	1.189563	-0.779610	1.351957
O39	O	1.522896	-0.446276	1.685290
O40	O	0.856398	-0.857164	0.899259
O41	O	1.189731	-0.523831	1.232593
O42	O	1.523065	-0.190498	1.565926
O43	O	0.662465	-1.112952	1.109028
O44	O	0.995799	-0.779619	1.442361
O45	O	1.329132	-0.446285	1.775695
O46	O	1.112319	-0.663454	1.108905
O47	O	1.445652	-0.330121	1.442239
O48	O	1.778986	0.003212	1.775572
O49	O	1.112165	-0.857210	1.018554
O50	O	1.445498	-0.523877	1.351887
O51	O	1.778832	-0.190544	1.685220
C52	C	0.759577	-0.760263	0.872539
C53	C	1.092910	-0.426930	1.205872
C54	C	1.426243	-0.093597	1.539205
C55	C	0.759603	-0.760281	0.790740
C56	C	1.092937	-0.426948	1.124073
C57	C	1.426270	-0.093615	1.457407
C58	C	0.860589	-0.861062	0.602584
C59	C	1.193922	-0.527728	0.935917
C60	C	1.527255	-0.194395	1.269250
C61	C	0.860593	-0.861081	0.525725
C62	C	1.193927	-0.527748	0.859058
C63	C	1.527260	-0.194415	1.192392
C64	C	0.658648	-0.659590	0.525658
C65	C	0.991981	-0.326257	0.858992
C66	C	1.325314	0.007077	1.192325
C67	C	0.658636	-0.659579	0.602516
C68	C	0.991969	-0.326246	0.935849
C69	C	1.325302	0.007087	1.269182
C70	C	0.759615	-0.760313	0.640976
C71	C	1.092949	-0.426980	0.974310
C72	C	1.426282	-0.093646	1.307643
C73	C	0.759632	-0.760343	0.487260
C74	C	1.092965	-0.427010	0.820594
C75	C	1.426299	-0.093676	1.153927
C76	C	0.759637	-0.760364	0.403927
C77	C	1.092970	-0.427030	0.737260
C78	C	1.426303	-0.093697	1.070593
C79	C	0.759609	-0.760295	0.724315
C80	C	1.092942	-0.426962	1.057649
C81	C	1.426276	-0.093628	1.390982
C82	C	1.169484	-0.760331	1.063736
C83	C	1.502817	-0.426998	1.397069
C84	C	1.836150	-0.093665	1.730403
C85	C	1.348128	-0.760306	1.063755
C86	C	1.681461	-0.426972	1.397089
C87	C	2.014794	-0.093639	1.730422
C88	C	0.759776	-0.350429	1.063692
C89	C	1.093109	-0.017095	1.397025
C90	C	1.426442	0.316238	1.730359
C91	C	0.759452	-0.171785	1.063797
C92	C	1.092785	0.161548	1.397130
C93	C	1.426119	0.494882	1.730463
C94	C	0.759632	-0.760355	1.255698
C95	C	1.092965	-0.427022	1.589031
C96	C	1.426299	-0.093688	1.922365
C97	C	0.759644	-0.760375	1.337497
C98	C	1.092977	-0.427041	1.670830
C99	C	1.426311	-0.093708	2.004164
H100	H	0.576436	-0.577574	0.494334
H101	H	0.909769	-0.244241	0.827668
H102	H	1.243103	0.089093	1.161001
H103	H	0.942814	-0.943123	0.494469
H104	H	1.276147	-0.609790	0.827803
H105	H	1.609480	-0.276457	1.161136
H106	H	0.576401	-0.577537	0.633776
H107	H	0.909735	-0.244204	0.967109
H108	H	1.243068	0.089129	1.300442
H109	H	0.942809	-0.943089	0.633896
H110	H	1.276142	-0.609756	0.967230
H111	H	1.609475	-0.276423	1.300563
