data_functionalizedCrystal
_audit_creation_method	'MofGen! by Chris Wilmer'
_symmetry_space_group_name_H-M	'P1'
_symmetry_Int_Tables_number	1
_symmetry_cell_setting	triclinic
loop_
_symmetry_equiv_pos_as_xyz
  x,y,z
_cell_length_a	14.519709
_cell_length_b	17.699083
_cell_length_c	16.776229
_cell_angle_alpha	89.992455
_cell_angle_beta	89.998478
_cell_angle_gamma	83.481580
loop_
_atom_site_label
_atom_site_type_symbol
_atom_site_fract_x
_atom_site_fract_y
_atom_site_fract_z
O1	O	1.223449	0.099215	-0.066186
O2	O	0.954923	0.110899	-0.066211
O3	O	1.096772	-0.005110	-0.066191
O4	O	1.081599	0.215225	-0.066206
O5	O	1.096754	-0.005117	0.066386
O6	O	0.954904	0.110892	0.066366
O7	O	1.223430	0.099208	0.066390
Zn8	Zn	1.089164	0.105049	0.087428
Zn9	Zn	1.089189	0.105058	-0.087248
O10	O	1.081580	0.215218	0.066370
C11	C	0.920556	0.110351	0.000075
C12	C	0.818181	0.108719	0.000065
C13	C	1.096219	-0.033312	0.000098
C14	C	1.094588	-0.117335	0.000098
C15	C	1.177851	-0.165718	0.000107
C16	C	1.176313	-0.244665	0.000099
C17	C	1.091511	-0.275229	0.000089
C18	C	1.008242	-0.226840	0.000078
C19	C	1.009781	-0.147894	0.000080
C20	C	1.002033	-0.545221	0.000071
C21	C	1.000501	-0.624173	0.000072
C22	C	1.168566	-0.641992	0.000091
C23	C	1.170105	-0.563046	0.000092
C24	C	1.086836	-0.514664	0.000077
C25	C	1.088505	-0.429060	0.000083
C26	C	1.089841	-0.360831	0.000089
C27	C	0.443311	0.102712	0.000102
C28	C	0.547612	0.104380	0.000092
C29	C	0.630743	0.105716	0.000083
C30	C	0.735050	0.107384	0.000074
C31	C	1.257797	0.099756	0.000104
C32	C	1.360171	0.101388	0.000107
C33	C	1.082134	0.243420	0.000080
C34	C	1.083765	0.327442	0.000075
N35	N	1.089154	0.105042	0.206639
N36	N	1.089206	0.105059	-0.206459
C37	C	1.151984	0.053694	0.248365
C38	C	1.151989	0.053694	0.331817
C39	C	1.089168	0.105045	0.373542
C40	C	1.026331	0.156395	0.331810
C41	C	1.026322	0.156392	0.248359
C42	C	1.026364	0.156410	0.668357
C43	C	1.026380	0.156411	0.751814
C44	C	1.152031	0.053712	0.751815
C45	C	1.152022	0.053709	0.668364
C46	C	1.089183	0.105056	0.626640
C47	C	1.089177	0.105055	0.536151
C48	C	1.089177	0.105050	0.464028
H49	H	1.244114	-0.284056	0.000108
H50	H	1.203180	0.011896	0.634394
O51	O	1.249371	-0.689100	0.000061
C52	C	1.229836	-0.765335	0.000074
H53	H	1.157411	-0.768458	-0.025036
H54	H	1.233371	-0.788171	0.063677
C55	C	1.390508	-0.809709	-0.021070
C56	C	1.301557	-0.813545	-0.051917
H57	H	1.434751	-0.839449	-0.053138
H58	H	1.403670	-0.758349	-0.021076
H59	H	1.393441	-0.828738	0.031931
H60	H	1.298622	-0.794508	-0.104914
H61	H	1.288396	-0.864904	-0.051921
O62	O	0.918039	-0.653738	0.000020
C63	C	0.844872	-0.594107	0.000024
H64	H	0.870606	-0.540440	-0.025071
H65	H	0.819178	-0.582978	0.063622
C66	C	0.733289	-0.682415	-0.021161
C67	C	0.764894	-0.616501	-0.051990
H68	H	0.683953	-0.696229	-0.053243
H69	H	0.782582	-0.722590	-0.021161
H70	H	0.711884	-0.673132	0.031837
H71	H	0.786309	-0.625788	-0.104983
H72	H	0.715603	-0.576328	-0.052000
H73	H	1.203196	0.011900	0.785796
O74	O	1.213045	0.003738	0.207960
C75	C	1.268515	-0.041571	0.262688
H76	H	1.230714	-0.042491	0.322179
H77	H	1.336965	-0.016869	0.271552
C78	C	1.334136	-0.122057	0.157068
C79	C	1.287704	-0.123193	0.230133
H80	H	1.345977	-0.172404	0.136986
H81	H	1.296768	-0.091530	0.120196
H82	H	1.391172	-0.101469	0.164465
H83	H	1.230664	-0.143771	0.222734
H84	H	1.325063	-0.153725	0.267003
H85	H	1.203150	0.011882	0.365790
O86	O	0.965248	0.206190	0.627793
C87	C	0.908453	0.165560	0.579517
H88	H	0.907023	0.105869	0.604675
H89	H	0.937320	0.161641	0.516270
C90	C	0.811108	0.280416	0.547333
C91	C	0.809345	0.207105	0.578238
H92	H	0.749974	0.306044	0.546541
H93	H	0.849373	0.307791	0.579855
H94	H	0.835168	0.277140	0.494631
H95	H	0.785296	0.210382	0.630943
H96	H	0.771073	0.179732	0.545724
H97	H	0.975176	0.198204	0.365787
O98	O	1.260310	-0.136157	0.000079
C99	C	1.333469	-0.195794	0.000103
H100	H	1.307736	-0.249454	-0.024998
H101	H	1.359139	-0.206939	0.063708
C102	C	1.445073	-0.107494	-0.021057
C103	C	1.413470	-0.173398	-0.051892
H104	H	1.494424	-0.093679	-0.053126
H105	H	1.395786	-0.067315	-0.021070
H106	H	1.466458	-0.116790	0.031947
H107	H	1.392075	-0.164099	-0.104890
H108	H	1.462756	-0.213576	-0.051889
H109	H	0.975158	0.198203	0.214387
H110	H	1.239159	-0.538166	0.000105
H111	H	0.975220	0.198229	0.785785
H112	H	0.934231	-0.505837	0.000059
O113	O	0.925945	-0.256653	0.000103
C114	C	0.942439	-0.336708	0.000087
H115	H	1.014445	-0.355153	0.025193
H116	H	0.938027	-0.358683	-0.063517
C117	C	0.780705	-0.346902	0.021236
C118	C	0.869142	-0.369556	0.052078
H119	H	0.735491	-0.367165	0.053303
H120	H	0.769592	-0.292967	0.021244
H121	H	0.777043	-0.365216	-0.031767
H122	H	0.872807	-0.351234	0.105076
H123	H	0.880254	-0.423488	0.052080
H124	H	0.941980	-0.108501	0.000072
