data_functionalizedCrystal
_audit_creation_method	'MofGen! by Chris Wilmer'
_symmetry_space_group_name_H-M	'P1'
_symmetry_Int_Tables_number	1
_symmetry_cell_setting	triclinic
loop_
_symmetry_equiv_pos_as_xyz
  x,y,z
_cell_length_a	17.637815
_cell_length_b	13.897449
_cell_length_c	17.640280
_cell_angle_alpha	101.199189
_cell_angle_beta	87.852258
_cell_angle_gamma	101.192654
loop_
_atom_site_label
_atom_site_type_symbol
_atom_site_fract_x
_atom_site_fract_y
_atom_site_fract_z
Zn1	Zn	-0.368363	1.479783	0.389108
Zn2	Zn	0.131637	1.979783	0.889108
Zn3	Zn	-0.215738	1.542375	0.490436
Zn4	Zn	0.284262	2.042375	0.990436
Zn5	Zn	-0.241383	1.343499	0.363469
Zn6	Zn	0.258617	1.843499	0.863469
Zn7	Zn	-0.342687	1.356127	0.516053
Zn8	Zn	0.157313	1.856127	1.016053
O9	O	-0.292043	1.430446	0.439766
O10	O	0.207957	1.930446	0.939766
O11	O	-0.348130	1.623067	0.402559
O12	O	0.151870	2.123067	0.902559
O13	O	-0.112870	1.536903	0.452143
O14	O	0.387130	2.036903	0.952143
O15	O	-0.279705	1.330098	0.260607
O16	O	0.220295	1.830098	0.760607
O17	O	-0.235997	1.669053	0.477004
O18	O	0.264003	2.169053	0.977004
O19	O	-0.372997	1.430226	0.279445
O20	O	0.127003	1.930226	0.779445
O21	O	-0.131711	1.390790	0.358861
O22	O	0.368289	1.890790	0.858861
O23	O	-0.254808	1.210194	0.383700
O24	O	0.245192	1.710194	0.883700
O25	O	-0.452363	1.351620	0.520664
O26	O	0.047637	1.851620	1.020664
O27	O	-0.329235	1.219471	0.495802
O28	O	0.170765	1.719471	0.995802
O29	O	-0.471227	1.442470	0.427399
O30	O	0.028773	1.942470	0.927399
O31	O	-0.211100	1.549148	0.600097
O32	O	0.288900	2.049148	1.100097
O33	O	-0.304369	1.412312	0.618917
O34	O	0.195631	1.912312	1.118917
C35	C	-0.292019	1.179833	0.439749
C36	C	0.207981	1.679833	0.939749
C37	C	-0.292023	1.072622	0.439764
C38	C	0.207977	1.572622	0.939764
C39	C	-0.292035	0.985551	0.439769
C40	C	0.207965	1.485551	0.939769
C41	C	-0.292057	0.876315	0.439779
C42	C	0.207943	1.376315	0.939779
C43	C	-0.490120	1.391472	0.479749
C44	C	0.009880	1.891472	0.979749
C45	C	-0.574529	1.374863	0.496787
C46	C	-0.074529	1.874863	0.996787
C47	C	-0.901243	1.556746	0.310051
C48	C	-0.401243	2.056746	0.810051
C49	C	-0.980554	1.541134	0.326078
C50	C	-0.480554	2.041134	0.826078
C51	C	-0.960902	1.446540	0.423187
C52	C	-0.460902	1.946540	0.923187
C53	C	-0.881587	1.462148	0.407171
C54	C	-0.381587	1.962148	0.907171
C55	C	-0.851764	1.517251	0.350601
C56	C	-0.351764	2.017251	0.850601
C57	C	-0.832108	1.422653	0.447721
C58	C	-0.332108	1.922653	0.947721
C59	C	-0.752800	1.438256	0.431703
C60	C	-0.252800	1.938256	0.931703
C61	C	-0.722971	1.493353	0.375135
C62	C	-0.222971	1.993353	0.875135
C63	C	-0.772456	1.532853	0.334583
C64	C	-0.272456	2.032853	0.834583
C65	C	-0.861933	1.367545	0.504286
C66	C	-0.361933	1.867545	1.004286
C67	C	-0.812454	1.328050	0.544837
C68	C	-0.312454	1.828050	1.044837
C69	C	-0.733144	1.343658	0.528823
C70	C	-0.233144	1.843658	1.028823
C71	C	-0.703315	1.398756	0.472254
C72	C	-0.203315	1.898756	0.972254
C73	C	-0.683660	1.304158	0.569374
C74	C	-0.183660	1.804158	1.069374
C75	C	-0.604352	1.319761	0.553356
C76	C	-0.104352	1.819761	1.053356
C77	C	-0.624008	1.414358	0.456236
C78	C	-0.124008	1.914358	0.956236
C79	C	-0.094747	1.469308	0.399885
C80	C	0.405253	1.969308	0.899885
C81	C	-0.010382	1.486040	0.382633
C82	C	0.489618	1.986040	0.882633
C83	C	-0.292067	1.682037	0.439784
C84	C	0.207933	2.182037	0.939784
C85	C	-0.292078	1.789251	0.439792
C86	C	0.207922	2.289251	0.939792
C87	C	-0.252182	1.488915	0.637063
C88	C	0.247818	1.988915	1.137063
C89	C	-0.235155	1.514012	0.721472
C90	C	0.264845	2.014012	1.221472
C91	C	-0.332076	1.371771	0.241703
C92	C	0.167924	1.871771	0.741703
C93	C	-0.349135	1.346768	0.157300
C94	C	0.150865	1.846768	0.657300
C95	C	-0.421672	1.240131	1.048158
C96	C	0.078328	1.740131	1.548158
C97	C	-0.405648	1.263719	1.127469
C98	C	0.094352	1.763719	1.627469
C99	C	-0.308626	1.406263	1.107826
C100	C	0.191374	1.906263	1.607826
C101	C	-0.324644	1.382689	1.028512
C102	C	0.175356	1.882689	1.528512
C103	C	-0.381168	1.299621	0.998685
C104	C	0.118832	1.799621	1.498685
C105	C	-0.284140	1.442180	0.979039
C106	C	0.215860	1.942180	1.479039
C107	C	-0.300154	1.418604	0.899732
C108	C	0.199846	1.918604	1.399732
C109	C	-0.356673	1.335538	0.869899
C110	C	0.143327	1.835538	1.369899
C111	C	-0.397182	1.276046	0.919378
C112	C	0.102818	1.776046	1.419378
C113	C	-0.227613	1.525244	1.008867
C114	C	0.272387	2.025244	1.508867
C115	C	-0.187108	1.584734	0.959394
C116	C	0.312892	2.084734	1.459394
C117	C	-0.203126	1.561163	0.880086
C118	C	0.296874	2.061163	1.380086
C119	C	-0.259645	1.478097	0.850252
C120	C	0.240355	1.978097	1.350252
C121	C	-0.162617	1.620656	0.830606
C122	C	0.337383	2.120656	1.330606
C123	C	-0.178632	1.597080	0.751299
C124	C	0.321368	2.097080	1.251299
C125	C	-0.275660	1.454522	0.770946
C126	C	0.224340	1.954522	1.270946
H127	H	-0.599724	1.459234	0.410175
H128	H	-0.099724	1.959234	0.910175
H129	H	-0.748172	1.577729	0.288522
H130	H	-0.248172	2.077729	0.788522
H131	H	-0.876959	1.601621	0.263990
H132	H	-0.376959	2.101621	0.763990
H133	H	-1.020840	1.573293	0.293048
H134	H	-0.520840	2.073293	0.793048
H135	H	-0.214578	1.544438	1.073445
H136	H	0.285422	2.044438	1.573445
H137	H	-0.141085	1.652366	0.983690
H138	H	0.358915	2.152366	1.483690
H139	H	-0.116591	1.688284	0.854903
H140	H	0.383409	2.188284	1.354903
H141	H	-0.145648	1.645523	0.711017
H142	H	0.354352	2.145523	1.211017
H143	H	-0.836748	1.283183	0.590894
H144	H	-0.336748	1.783183	1.090894
H145	H	-0.438646	1.215279	1.167751
H146	H	0.061354	1.715279	1.667751
H147	H	-0.262603	1.473895	1.132122
H148	H	0.237397	1.973895	1.632122
H149	H	-0.658393	1.506057	0.362094
H150	H	-0.158393	2.006057	0.862094
H151	H	-0.321692	1.386885	0.746661
H152	H	0.178308	1.886885	1.246661
H153	H	-0.926513	1.354832	0.517319
H154	H	-0.426513	1.854832	1.017319
H155	H	-0.985196	1.401673	0.469244
H156	H	-0.485196	1.901673	0.969244
H157	H	-0.707955	1.259286	0.615427
H158	H	-0.207955	1.759286	1.115427
H159	H	-0.564067	1.287581	0.586365
H160	H	-0.064067	1.787581	1.086365
H161	H	-0.369706	1.316339	0.805320
H162	H	0.130294	1.816339	1.305320
H163	H	-0.443215	1.208409	0.895094
H164	H	0.056785	1.708409	1.395094
H165	H	-0.467705	1.172494	1.023874
H166	H	0.032295	1.672494	1.523874
