data_functionalizedCrystal
_audit_creation_method	'MofGen! by Chris Wilmer'
_symmetry_space_group_name_H-M	'P1'
_symmetry_Int_Tables_number	1
_symmetry_cell_setting	triclinic
loop_
_symmetry_equiv_pos_as_xyz
  x,y,z
_cell_length_a	15.944499
_cell_length_b	9.065218
_cell_length_c	7.540329
_cell_angle_alpha	90.001757
_cell_angle_beta	89.994450
_cell_angle_gamma	95.753253
loop_
_atom_site_label
_atom_site_type_symbol
_atom_site_fract_x
_atom_site_fract_y
_atom_site_fract_z
O1	O	1.115988	-0.189906	-0.147582
O2	O	0.871611	-0.213444	-0.147561
O3	O	0.998851	0.013087	-0.147568
O4	O	0.988748	-0.416437	-0.147575
O5	O	0.998843	0.013090	0.147397
O6	O	0.871603	-0.213441	0.147404
O7	O	1.115981	-0.189903	0.147383
Cu8	Cu	0.993791	-0.201672	0.174326
Cu9	Cu	0.993800	-0.201675	-0.174504
O10	O	0.988741	-0.416434	0.147390
C11	C	0.840305	-0.212479	-0.000076
C12	C	0.747035	-0.209590	-0.000068
C13	C	0.456496	-0.341199	-0.000097
C14	C	0.517011	-0.272786	-0.145532
C15	C	0.411319	-0.199093	-0.000109
C16	C	0.516989	-0.272745	0.145280
C17	C	0.576267	-0.204258	-0.000086
C18	C	0.470605	-0.130642	-0.145665
C19	C	0.470577	-0.130621	0.145278
C20	C	0.531073	-0.062105	-0.000192
C21	C	0.316296	-0.196122	-0.000124
C22	C	0.671288	-0.207219	-0.000084
C23	C	0.997876	0.068052	-0.000088
C24	C	0.994973	0.231826	-0.000097
C25	C	1.147286	-0.190868	-0.000106
C26	C	1.240557	-0.193757	-0.000125
C27	C	0.989715	-0.471399	-0.000093
C28	C	0.992618	-0.635173	-0.000097
N29	N	0.993791	-0.201669	0.419675
N30	N	0.993807	-0.201667	-0.419853
H31	H	0.563356	0.055934	-0.000268
O32	O	0.541619	-0.344476	0.291833
C33	C	0.630012	-0.345054	0.290662
H34	H	0.654292	-0.330433	0.148908
H35	H	0.647512	-0.455000	0.345752
H36	H	0.659708	-0.250200	0.376376
O37	O	0.417693	-0.481814	-0.000493
C38	C	0.366435	-0.503146	-0.152520
H39	H	0.349396	-0.391270	-0.202482
H40	H	0.306380	-0.576375	-0.117553
H41	H	0.402077	-0.559040	-0.260455
H42	H	0.537567	-0.332897	-0.268481
H43	H	0.450175	-0.070594	-0.268757
O44	O	0.446048	-0.059187	0.292144
C45	C	0.469455	-0.134470	0.445186
H46	H	0.477107	-0.254756	0.410343
H47	H	0.418501	-0.130846	0.550722
H48	H	0.531682	-0.078687	0.498247
