data_functionalizedCrystal
_audit_creation_method	'MofGen! by Chris Wilmer'
_symmetry_space_group_name_H-M	'P1'
_symmetry_Int_Tables_number	1
_symmetry_cell_setting	triclinic
loop_
_symmetry_equiv_pos_as_xyz
  x,y,z
_cell_length_a	11.169417
_cell_length_b	18.101390
_cell_length_c	11.169416
_cell_angle_alpha	89.972974
_cell_angle_beta	90.011398
_cell_angle_gamma	89.984303
loop_
_atom_site_label
_atom_site_type_symbol
_atom_site_fract_x
_atom_site_fract_y
_atom_site_fract_z
Zn1	Zn	1.834919	-0.418692	-0.477721
Zn2	Zn	1.834822	-0.294863	-0.678447
Zn3	Zn	1.634218	-0.294872	-0.477781
Zn4	Zn	1.634213	-0.418671	-0.678365
O5	O	1.734543	-0.356774	-0.578079
O6	O	2.002856	-0.402270	-0.504357
O7	O	1.808173	-0.191231	-0.651887
O8	O	1.660884	-0.311310	-0.309823
O9	O	2.002785	-0.311294	-0.651829
O10	O	1.808338	-0.402279	-0.309780
O11	O	1.660790	-0.191238	-0.504458
O12	O	1.466268	-0.311290	-0.504379
O13	O	1.660875	-0.522306	-0.651691
O14	O	1.466264	-0.402244	-0.651748
O15	O	1.808333	-0.522322	-0.504278
O16	O	1.808168	-0.311274	-0.846386
O17	O	1.660781	-0.402235	-0.846326
C18	C	1.422718	-0.356766	-0.578062
C19	C	1.289318	-0.356780	-0.578084
C20	C	1.734614	-0.549936	-0.577969
C21	C	1.734645	-0.632250	-0.577922
C22	C	1.734709	-0.931342	-0.577847
C23	C	1.827791	-0.900026	-0.485426
C24	C	1.827501	-0.814408	-0.485083
C25	C	1.734678	-0.782959	-0.577884
C26	C	1.608230	-0.814036	-0.543525
C27	C	1.608787	-0.899681	-0.542832
C28	C	1.766962	-0.899761	-0.704866
C29	C	1.769737	-0.814110	-0.704218
C30	C	1.734653	-0.699099	-0.577908
C31	C	1.734726	-1.015201	-0.577821
C32	C	2.047585	-0.356783	-0.578096
C33	C	2.180985	-0.356787	-0.578103
C34	C	1.734496	-0.356767	-0.889903
C35	C	1.734586	-0.356789	-1.023303
C36	C	1.734541	-0.164364	-0.578101
C37	C	1.734743	-0.082050	-0.577810
C38	C	1.734622	-0.356798	-0.265036
C39	C	1.734656	-0.356808	-0.131636
H40	H	1.921861	-0.920626	-0.506677
C41	C	1.571863	-0.926687	-0.417400
C42	C	1.564729	-1.010052	-0.390804
C43	C	1.527806	-1.037054	-0.265368
C44	C	1.498017	-0.980692	-0.166529
C45	C	1.505150	-0.897322	-0.193122
C46	C	1.542073	-0.870320	-0.318558
H47	H	1.586781	-1.051780	-0.463973
H48	H	1.522526	-1.098771	-0.245682
H49	H	1.470685	-1.000681	-0.073674
H50	H	1.483098	-0.855594	-0.119953
H51	H	1.547353	-0.808603	-0.338244
C52	C	1.511965	-0.927672	-0.629873
C53	C	1.434378	-0.872092	-0.699782
C54	C	1.337581	-0.900079	-0.786846
C55	C	1.318370	-0.983646	-0.804002
C56	C	1.395959	-1.039231	-0.734091
C57	C	1.492756	-1.011244	-0.647026
H58	H	1.448598	-0.810226	-0.687084
H59	H	1.280145	-0.858931	-0.838599
H60	H	1.246715	-1.004364	-0.868452
H61	H	1.381740	-1.101097	-0.746788
H62	H	1.550192	-1.052392	-0.595274
C63	C	1.954182	-0.786031	-0.514116
C64	C	2.060089	-0.806742	-0.432426
C65	C	2.186782	-0.778378	-0.461447
C66	C	2.207568	-0.729302	-0.572159
C67	C	2.101658	-0.708588	-0.653856
C68	C	1.974965	-0.736953	-0.624835
H69	H	2.044704	-0.843074	-0.350464
H70	H	2.265183	-0.793711	-0.400968
H71	H	2.301354	-0.708304	-0.593642
H72	H	2.117042	-0.672257	-0.735818
H73	H	1.896563	-0.721619	-0.685314
H74	H	1.806709	-0.921559	-0.391853
H75	H	1.580397	-0.792593	-0.451707
H76	H	1.862791	-0.793798	-0.730128
H77	H	1.536992	-0.793664	-0.608768
C78	C	1.684799	-0.785205	-0.802248
C79	C	1.581655	-0.732575	-0.769150
C80	C	1.496700	-0.703675	-0.867175
C81	C	1.514889	-0.727406	-0.998297
C82	C	1.618036	-0.780039	-1.031401
C83	C	1.702992	-0.808939	-0.933376
H84	H	1.568187	-0.715006	-0.672080
H85	H	1.420343	-0.664713	-0.842668
H86	H	1.452000	-0.706013	-1.070861
H87	H	1.631505	-0.797608	-1.128471
H88	H	1.779349	-0.847901	-0.957883
H89	H	1.806149	-0.793930	-0.390985
H90	H	1.857553	-0.921403	-0.736154
H91	H	1.699172	-0.920018	-0.773730
