data_functionalizedCrystal
_audit_creation_method	'MofGen! by Chris Wilmer'
_symmetry_space_group_name_H-M	'P1'
_symmetry_Int_Tables_number	1
_symmetry_cell_setting	triclinic
loop_
_symmetry_equiv_pos_as_xyz
  x,y,z
_cell_length_a	6.817900
_cell_length_b	11.102188
_cell_length_c	12.200875
_cell_angle_alpha	92.493457
_cell_angle_beta	107.143593
_cell_angle_gamma	108.603875
loop_
_atom_site_label
_atom_site_type_symbol
_atom_site_fract_x
_atom_site_fract_y
_atom_site_fract_z
V1	V	-4.094460	-0.176128	-0.357661
O2	O	-4.053827	0.008167	-0.350853
O3	O	-4.071344	-0.348946	-0.355215
O4	O	-4.063800	-0.173549	-0.513649
O5	O	-4.061423	-0.168445	-0.191321
V6	V	-4.572513	-0.154068	-0.337765
O7	O	-4.367717	-0.224516	-0.401304
O8	O	-4.749453	-0.105680	-0.294123
O9	O	-4.372422	0.018750	-0.340211
O10	O	-4.730542	-0.338362	-0.344574
O11	O	-4.722946	-0.161751	-0.504105
O12	O	-4.379966	-0.156647	-0.181777
C13	C	-3.921922	-0.391071	-0.349573
C14	C	-3.984427	-0.532353	-0.348613
C15	C	-3.912297	-0.167333	-0.551670
C16	C	-3.968681	-0.166368	-0.679191
C17	C	-3.958635	-0.580493	-0.243113
C18	C	-4.017389	-0.713244	-0.242215
C19	C	-4.127719	-0.749703	-0.452326
C20	C	-4.068980	-0.616955	-0.453223
C21	C	-4.149487	-0.876921	-0.118458
C22	C	-4.123658	-0.925064	-0.012951
C23	C	-3.937777	-0.861725	0.083188
C24	C	-3.777674	-0.750242	0.073828
C25	C	-3.803488	-0.702106	-0.031680
C26	C	-3.989413	-0.765444	-0.127817
C27	C	-3.936861	-0.453273	-0.576973
C28	C	-3.962660	-0.405134	-0.682481
C29	C	-4.148533	-0.468472	-0.778630
C30	C	-4.308614	-0.579960	-0.769280
C31	C	-4.282815	-0.628099	-0.663772
C32	C	-4.096941	-0.564752	-0.567622
C33	C	-4.071870	-0.164603	-0.912666
C34	C	-4.014440	-0.165585	-0.782744
C35	C	-4.185187	0.060868	-0.345851
C36	C	-4.101921	0.202149	-0.346818
C37	C	-4.194811	-0.162867	-0.143750
C38	C	-4.117665	-0.163826	-0.016228
H39	H	-3.673129	-0.611343	-0.039303
H40	H	-3.916753	-0.900932	0.169094
O41	O	-4.278925	-1.033366	-0.003670
C42	C	-4.392531	-1.184959	0.120432
C43	C	-4.216523	-1.062312	0.110070
H44	H	-4.342165	-1.208385	0.212392
H45	H	-4.410226	-1.268486	0.056120
H46	H	-4.555603	-1.168750	0.100467
H47	H	-4.053355	-1.078395	0.130058
H48	H	-4.199020	-0.978827	0.174366
H49	H	-4.459961	-0.631537	-0.847574
H50	H	-4.300871	-0.928493	-0.196731
H51	H	-3.889789	-0.511612	-0.157932
O52	O	-4.438314	-0.736289	-0.654500
C53	C	-4.700075	-0.830403	-0.558293
C54	C	-4.523989	-0.707795	-0.568654
H55	H	-4.769427	-0.807404	-0.488908
H56	H	-4.623994	-0.907145	-0.533211
H57	H	-4.837283	-0.867418	-0.645163
H58	H	-4.386728	-0.670667	-0.481818
H59	H	-4.600234	-0.631135	-0.593795
O60	O	-3.597139	-0.688514	0.167180
C61	C	-3.383592	-0.492170	0.301197
C62	C	-3.588095	-0.561922	0.195451
H63	H	-3.376238	-0.389817	0.324102
H64	H	-3.230585	-0.489321	0.279651
H65	H	-3.392639	-0.545778	0.378182
H66	H	-3.579261	-0.508369	0.118422
H67	H	-3.741017	-0.564783	0.217094
O68	O	-4.209776	-0.832062	-0.553831
C69	C	-4.349270	-1.052729	-0.645573
C70	C	-4.256330	-0.959605	-0.530532
H71	H	-4.386978	-1.155868	-0.626777
H72	H	-4.223875	-1.030742	-0.693174
H73	H	-4.505920	-1.040513	-0.701948
H74	H	-4.099709	-0.971769	-0.474066
H75	H	-4.381867	-0.981616	-0.483021
O76	O	-4.173503	-0.421888	-0.881205
C77	C	-4.215583	-0.462487	-1.083949
C78	C	-4.187252	-0.515386	-0.967857
H79	H	-4.226753	-0.538066	-1.154043
H80	H	-4.069219	-0.371970	-1.074212
H81	H	-4.371922	-0.438288	-1.109551
H82	H	-4.030995	-0.539663	-0.942188
H83	H	-4.333731	-0.605858	-0.977657
O84	O	-3.807317	-0.296884	-0.691782
C85	C	-3.693803	-0.145203	-0.815838
C86	C	-3.869863	-0.267822	-0.805472
H87	H	-3.744330	-0.121654	-0.907743
H88	H	-3.530686	-0.161343	-0.795985
H89	H	-3.676119	-0.061778	-0.751421
H90	H	-3.887742	-0.351305	-0.869882
H91	H	-4.032885	-0.251574	-0.825280
O92	O	-3.756239	-0.391952	-0.483537
C93	C	-3.436238	-0.406508	-0.341616
C94	C	-3.640752	-0.476114	-0.447399
H95	H	-3.342784	-0.474514	-0.312382
H96	H	-3.488099	-0.374891	-0.267761
H97	H	-3.326341	-0.318542	-0.366447
H98	H	-3.750738	-0.564127	-0.422680
H99	H	-3.588735	-0.507636	-0.521226
