data_functionalizedCrystal
_audit_creation_method	'MofGen! by Chris Wilmer'
_symmetry_space_group_name_H-M	'P1'
_symmetry_Int_Tables_number	1
_symmetry_cell_setting	triclinic
loop_
_symmetry_equiv_pos_as_xyz
  x,y,z
_cell_length_a	10.654549
_cell_length_b	14.519709
_cell_length_c	9.130313
_cell_angle_alpha	90.012940
_cell_angle_beta	89.997498
_cell_angle_gamma	95.917539
loop_
_atom_site_label
_atom_site_type_symbol
_atom_site_fract_x
_atom_site_fract_y
_atom_site_fract_z
O1	O	1.666594	-0.129531	-0.121796
O2	O	1.300997	-0.141872	-0.121809
O3	O	1.493489	-0.001513	-0.121761
O4	O	1.474102	-0.269890	-0.121844
O5	O	1.493476	-0.001509	0.121838
O6	O	1.300984	-0.141868	0.121790
O7	O	1.666581	-0.129527	0.121803
Cu8	Cu	1.483781	-0.135697	0.144039
Cu9	Cu	1.483797	-0.135702	-0.144045
O10	O	1.474089	-0.269885	0.121755
C11	C	1.254201	-0.140964	-0.000011
C12	C	1.114784	-0.138253	-0.000014
C13	C	0.903499	-0.218340	-0.000033
C14	C	1.034495	-0.220894	-0.000042
C15	C	1.064071	-0.053052	0.000009
C16	C	0.933077	-0.050499	0.000008
C17	C	1.492579	0.032853	0.000046
C18	C	1.489871	0.135249	0.000067
C19	C	1.479904	0.510196	0.000107
C20	C	1.482672	0.405874	0.000096
C21	C	1.484887	0.322726	0.000089
C22	C	1.487656	0.218397	0.000075
C23	C	1.713377	-0.130435	0.000001
C24	C	1.852794	-0.133146	-0.000005
C25	C	1.474999	0.695748	-0.000003
C26	C	1.477707	0.593353	0.000121
N27	N	1.483780	-0.135693	0.346661
N28	N	1.483809	-0.135698	-0.346668
C29	C	1.569044	-0.073568	0.423334
C30	C	1.569056	-0.073569	0.576671
C31	C	1.398535	-0.197826	0.576648
C32	C	1.398518	-0.197821	0.423314
H33	H	1.075772	-0.290268	-0.000066
O34	O	1.142010	0.027251	-0.000227
C35	C	1.118984	0.078936	-0.126356
H36	H	1.074325	0.030535	-0.214552
H37	H	1.052169	0.132746	-0.097818
C38	C	1.299267	0.187534	-0.075220
C39	C	1.244425	0.128086	-0.183548
H40	H	1.376643	0.217856	-0.110496
H41	H	1.314778	0.152716	0.009759
H42	H	1.243575	0.232368	-0.051448
H43	H	1.300110	0.083247	-0.207305
H44	H	1.228926	0.162899	-0.268533
O45	O	1.315863	-0.258215	0.348666
C46	C	1.383231	-0.315583	0.259958
H47	H	1.481414	-0.279521	0.236987
H48	H	1.391915	-0.383805	0.319016
C49	C	1.191868	-0.379095	0.142522
C50	C	1.312455	-0.334800	0.114299
H51	H	1.148209	-0.390953	0.052676
H52	H	1.146480	-0.340449	0.202290
H53	H	1.199122	-0.435942	0.191741
H54	H	1.305200	-0.277949	0.065098
H55	H	1.357841	-0.373437	0.054520
H56	H	1.638484	-0.022980	0.639094
O57	O	0.883756	0.032242	-0.000225
C58	C	0.808852	0.038724	-0.126371
H59	H	0.839946	-0.009669	-0.214562
H60	H	0.705600	0.018111	-0.097858
C61	C	0.786314	0.198459	-0.075234
C62	C	0.824512	0.139027	-0.183556
H63	H	0.795968	0.260331	-0.110506
H64	H	0.836775	0.194092	0.009756
H65	H	0.700274	0.181270	-0.051483
H66	H	0.910555	0.156209	-0.207292
H67	H	0.774066	0.143400	-0.268552
H68	H	0.838136	-0.285636	-0.000045
H69	H	1.329119	-0.248410	0.639075
O70	O	1.651729	-0.013068	0.348971
C71	C	1.631107	0.078350	0.386563
H72	H	1.530558	0.079460	0.428713
H73	H	1.700637	0.104948	0.475598
C74	C	1.773976	0.139420	0.198650
C75	C	1.650477	0.140784	0.250407
H76	H	1.785930	0.177934	0.114666
H77	H	1.787874	0.077830	0.173327
H78	H	1.831904	0.161583	0.272858
H79	H	1.592552	0.118610	0.176207
H80	H	1.636569	0.202372	0.275716
