data_functionalizedCrystal
_audit_creation_method	'MofGen! by Chris Wilmer'
_symmetry_space_group_name_H-M	'P1'
_symmetry_Int_Tables_number	1
_symmetry_cell_setting	triclinic
loop_
_symmetry_equiv_pos_as_xyz
  x,y,z
_cell_length_a	6.817900
_cell_length_b	11.102210
_cell_length_c	16.015572
_cell_angle_alpha	76.743532
_cell_angle_beta	104.485554
_cell_angle_gamma	108.604261
loop_
_atom_site_label
_atom_site_type_symbol
_atom_site_fract_x
_atom_site_fract_y
_atom_site_fract_z
V1	V	-3.999218	-0.051261	-0.269392
O2	O	-3.960397	0.130656	-0.264266
O3	O	-3.976755	-0.224934	-0.267548
O4	O	-3.927020	0.005776	-0.386885
O5	O	-4.010477	-0.101651	-0.144104
V6	V	-4.482569	-0.036148	-0.254407
O7	O	-4.260854	-0.084413	-0.302264
O8	O	-4.671130	-0.002996	-0.221536
O9	O	-4.281825	0.137525	-0.256251
O10	O	-4.638787	-0.218066	-0.259533
O11	O	-4.588707	0.014242	-0.379696
O12	O	-4.331561	-0.093186	-0.136915
C13	C	-3.828835	-0.269029	-0.263298
C14	C	-3.891597	-0.410646	-0.262573
C15	C	-3.765392	0.025266	-0.415522
C16	C	-3.787817	0.070751	-0.511573
C17	C	-3.952896	-0.628697	-0.182440
C18	C	-3.893905	-0.495634	-0.183111
C19	C	-3.948265	-0.458727	-0.341368
C20	C	-4.007240	-0.591787	-0.340696
C21	C	-4.136745	-0.332976	-0.889201
C22	C	-4.157815	-0.290194	-0.979451
C23	C	-4.047772	-0.068856	-0.954747
C24	C	-4.026682	-0.111619	-0.864493
C25	C	-4.071175	-0.243680	-0.831728
C26	C	-3.961112	-0.022324	-0.807019
C27	C	-3.940035	-0.065084	-0.716773
C28	C	-3.984528	-0.197140	-0.684001
C29	C	-4.050098	-0.286441	-0.741482
C30	C	-3.916634	0.109736	-0.839786
C31	C	-3.851064	0.199031	-0.782312
C32	C	-3.829971	0.156272	-0.692064
C33	C	-3.874465	0.024216	-0.659292
C34	C	-3.764401	0.245573	-0.634584
C35	C	-3.743324	0.202812	-0.544338
C36	C	-3.853387	-0.018544	-0.569046
C37	C	-4.093088	0.181612	-0.260499
C38	C	-4.009564	0.323231	-0.261230
C39	C	-4.156532	-0.112681	-0.108273
C40	C	-4.113345	-0.158161	-0.012221
H41	H	-3.954778	-0.697886	-0.117733
C42	C	-3.767939	-0.216006	-0.558036
C43	C	-3.901683	-0.163658	-0.532888
H44	H	-3.797588	-0.305575	-0.535675
H45	H	-3.625427	-0.174467	-0.535479
H46	H	-3.790130	-0.203496	-0.620010
H47	H	-3.879481	-0.176160	-0.470913
H48	H	-4.044229	-0.205211	-0.555440
H49	H	-3.814851	0.306556	-0.809003
C50	C	-4.085333	-0.291908	-0.438000
C51	C	-3.945734	-0.365312	-0.428716
H52	H	-4.083782	-0.234246	-0.491929
H53	H	-4.043133	-0.244236	-0.391178
H54	H	-4.223769	-0.347464	-0.437205
H55	H	-3.807294	-0.309756	-0.429505
H56	H	-3.987923	-0.412987	-0.475551
C57	C	-4.055079	-0.541950	-0.497202
C58	C	-4.069545	-0.644637	-0.427309
H59	H	-4.093550	-0.574582	-0.550669
H60	H	-3.914386	-0.487958	-0.491417
H61	H	-4.147521	-0.493682	-0.496926
H62	H	-3.977090	-0.692900	-0.427581
H63	H	-4.210260	-0.698652	-0.433095
C64	C	-4.417175	-0.374590	-1.099414
C65	C	-4.229892	-0.388356	-1.042630
H66	H	-4.461679	-0.435195	-1.138414
H67	H	-4.393679	-0.289833	-1.131841
H68	H	-4.523192	-0.389430	-1.066494
H69	H	-4.123870	-0.373506	-1.075550
H70	H	-4.253378	-0.473134	-1.010201
C71	C	-4.159976	-0.500938	-0.774936
C72	C	-4.098293	-0.431589	-0.705441
H73	H	-4.189532	-0.590536	-0.752678
H74	H	-4.049473	-0.476578	-0.806894
H75	H	-4.282783	-0.482744	-0.812358
H76	H	-3.975476	-0.449775	-0.668022
H77	H	-4.208806	-0.455958	-0.673467
C78	C	-4.031199	0.094981	-1.082116
C79	C	-3.998856	0.076302	-0.990767
H80	H	-4.000980	0.184598	-1.104350
H81	H	-4.173800	0.053771	-1.104785
H82	H	-3.940720	0.059259	-1.099164
H83	H	-4.089347	0.112017	-0.973719
H84	H	-3.856232	0.117530	-0.968090
H85	H	-3.689932	0.275526	-0.497541
C86	C	-3.779348	-0.308053	-0.113870
C87	C	-3.831620	-0.442791	-0.096504
H88	H	-3.740882	-0.275434	-0.060398
H89	H	-3.897409	-0.281533	-0.149245
H90	H	-3.664276	-0.275817	-0.143732
H91	H	-3.946703	-0.475028	-0.066647
H92	H	-3.713546	-0.469324	-0.061115
H93	H	-3.967369	-0.231954	-0.610517
H94	H	-4.172949	-0.440512	-0.862522
H95	H	-3.933768	0.144548	-0.913270
C96	C	-3.747864	0.409404	-0.761956
C97	C	-3.715507	0.390730	-0.670607
H98	H	-3.717665	0.499020	-0.784192
H99	H	-3.890463	0.368183	-0.784621
H100	H	-3.657378	0.373689	-0.779006
H101	H	-3.806005	0.426436	-0.653557
H102	H	-3.572885	0.431968	-0.647934
