data_functionalizedCrystal
_audit_creation_method	'MofGen! by Chris Wilmer'
_symmetry_space_group_name_H-M	'P1'
_symmetry_Int_Tables_number	1
_symmetry_cell_setting	triclinic
loop_
_symmetry_equiv_pos_as_xyz
  x,y,z
_cell_length_a	25.639243
_cell_length_b	25.639239
_cell_length_c	25.639234
_cell_angle_alpha	89.975095
_cell_angle_beta	89.976852
_cell_angle_gamma	90.041410
loop_
_atom_site_label
_atom_site_type_symbol
_atom_site_fract_x
_atom_site_fract_y
_atom_site_fract_z
Zn1	Zn	0.799262	-0.208145	-0.295656
Zn2	Zn	1.299262	0.291855	0.204344
Zn3	Zn	0.799175	-0.295573	-0.208220
Zn4	Zn	1.299175	0.204427	0.291780
Zn5	Zn	0.711828	-0.208157	-0.208229
Zn6	Zn	1.211828	0.291843	0.291771
Zn7	Zn	0.711784	-0.295555	-0.295619
Zn8	Zn	1.211784	0.204445	0.204381
O9	O	0.755512	-0.251857	-0.251931
O10	O	1.255512	0.248143	0.248069
O11	O	0.872416	-0.219744	-0.284069
O12	O	1.372416	0.280256	0.215931
O13	O	0.787570	-0.283990	-0.135056
O14	O	1.287570	0.216010	0.364944
O15	O	0.723481	-0.134990	-0.219846
O16	O	1.223481	0.365010	0.280154
O17	O	0.872351	-0.283977	-0.219830
O18	O	1.372351	0.216023	0.280170
O19	O	0.787719	-0.134981	-0.284077
O20	O	1.287719	0.365019	0.215923
O21	O	0.723396	-0.219766	-0.135063
O22	O	1.223396	0.280234	0.364937
O23	O	0.638656	-0.219749	-0.219810
O24	O	1.138656	0.280251	0.280190
O25	O	0.723406	-0.283947	-0.368789
O26	O	1.223406	0.216053	0.131211
O27	O	0.638624	-0.283959	-0.284016
O28	O	1.138624	0.216041	0.215984
O29	O	0.787676	-0.219727	-0.368816
O30	O	1.287676	0.280273	0.131184
O31	O	0.787527	-0.368736	-0.219795
O32	O	1.287527	0.131264	0.280205
O33	O	0.723321	-0.368723	-0.284007
O34	O	1.223321	0.131277	0.215993
C35	C	0.619669	-0.251854	-0.251910
C36	C	1.119669	0.248146	0.248090
C37	C	0.561555	-0.251865	-0.251914
C38	C	1.061555	0.248135	0.248086
C39	C	0.201220	-0.218464	-0.285436
C40	C	0.701220	0.281536	0.214564
C41	C	0.146616	-0.218463	-0.285439
C42	C	0.646616	0.281537	0.214561
O43	O	0.118403	-0.190055	-0.313915
O44	O	0.618403	0.309945	0.186085
N45	N	0.119273	-0.251856	-0.251945
N46	N	0.619273	0.248144	0.248055
C47	C	0.146537	-0.285247	-0.218443
C48	C	0.646537	0.214753	0.281557
O49	O	0.118266	-0.313650	-0.189954
O50	O	0.618266	0.186350	0.310046
C51	C	0.201140	-0.285245	-0.218437
C52	C	0.701140	0.214755	0.281563
C53	C	0.228481	-0.251854	-0.251937
C54	C	0.728481	0.248146	0.248063
C55	C	0.228560	-0.185075	-0.318932
C56	C	0.728560	0.314925	0.181068
C57	C	0.283161	-0.185076	-0.318930
C58	C	0.783161	0.314924	0.181070
C59	C	0.310421	-0.218466	-0.285431
C60	C	0.810421	0.281534	0.214569
C61	C	0.283081	-0.251855	-0.251934
C62	C	0.783081	0.248145	0.248066
C63	C	0.228404	-0.318633	-0.184932
C64	C	0.728404	0.181367	0.315068
C65	C	0.283011	-0.318627	-0.184929
C66	C	0.783011	0.181373	0.315071
C67	C	0.310351	-0.285236	-0.218429
C68	C	0.810351	0.214764	0.281571
C69	C	0.364942	-0.285246	-0.218432
C70	C	0.864942	0.214754	0.281568
N71	N	0.392285	-0.251854	-0.251926
N72	N	0.892285	0.248146	0.248074
C73	C	0.365025	-0.218464	-0.285425
C74	C	0.865025	0.281536	0.214575
C75	C	0.031866	-0.285250	-0.218456
C76	C	0.531866	0.214750	0.281544
C77	C	-0.022736	-0.285255	-0.218464
C78	C	0.477264	0.214745	0.281536
C79	C	-0.022653	-0.218470	-0.285460
C80	C	0.477347	0.281530	0.214540
C81	C	0.031950	-0.218468	-0.285454
C82	C	0.531950	0.281532	0.214546
C83	C	0.059209	-0.251857	-0.251950
C84	C	0.559209	0.248143	0.248050
C85	C	0.479690	-0.218469	-0.285417
C86	C	0.979690	0.281531	0.214583
C87	C	0.534295	-0.218475	-0.285413
C88	C	1.034295	0.281525	0.214587
C89	C	0.534208	-0.285258	-0.218415
C90	C	1.034208	0.214742	0.281585
C91	C	0.479607	-0.285254	-0.218421
C92	C	0.979607	0.214746	0.281579
C93	C	0.452349	-0.251856	-0.251924
C94	C	0.952349	0.248144	0.248076
O95	O	0.393190	-0.313639	-0.189969
O96	O	0.893190	0.186361	0.310031
O97	O	0.393303	-0.190061	-0.313904
O98	O	0.893303	0.309939	0.186096
C99	C	0.755424	-0.387700	-0.251907
C100	C	1.255424	0.112300	0.248093
C101	C	0.755434	-0.445814	-0.251914
C102	C	1.255434	0.054186	0.248086
C103	C	0.789031	-0.806171	-0.218553
C104	C	1.289031	-0.306171	0.281447
C105	C	0.789051	-0.860776	-0.218560
C106	C	1.289051	-0.360776	0.281440
O107	O	0.817526	-0.889007	-0.190169
O108	O	1.317526	-0.389007	0.309831
N109	N	0.755604	-0.888096	-0.251966
N110	N	1.255604	-0.388096	0.248034
C111	C	0.722138	-0.860810	-0.285371
C112	C	1.222138	-0.360810	0.214629
O113	O	0.693690	-0.889063	-0.313786
O114	O	1.193690	-0.389063	0.186214
C115	C	0.722120	-0.806207	-0.285366
C116	C	1.222120	-0.306207	0.214634
C117	C	0.755566	-0.778889	-0.251954
C118	C	1.255566	-0.278889	0.248046
C119	C	0.822475	-0.778853	-0.185144
C120	C	1.322475	-0.278853	0.314856
C121	C	0.822454	-0.724253	-0.185137
C122	C	1.322454	-0.224253	0.314863
C123	C	0.788989	-0.696970	-0.218538
C124	C	1.288989	-0.196970	0.281462
C125	C	0.755545	-0.724288	-0.251946
C126	C	1.255545	-0.224288	0.248054
C127	C	0.688657	-0.778922	-0.318773
C128	C	1.188657	-0.278922	0.181227
C129	C	0.688643	-0.724315	-0.318765
C130	C	1.188643	-0.224315	0.181235
C131	C	0.722089	-0.696997	-0.285354
C132	C	1.222089	-0.196997	0.214646
C133	C	0.722059	-0.642405	-0.285340
C134	C	1.222059	-0.142405	0.214660
N135	N	0.755507	-0.615084	-0.251934
N136	N	1.255507	-0.115084	0.248066
C137	C	0.788972	-0.642367	-0.218533
C138	C	1.288972	-0.142367	0.281467
C139	C	0.722177	-0.975481	-0.285379
C140	C	1.222177	-0.475481	0.214621
C141	C	0.722191	-1.030083	-0.285381
C142	C	1.222191	-0.530083	0.214619
C143	C	0.789106	-1.030045	-0.218571
C144	C	1.289106	-0.530045	0.281429
C145	C	0.789089	-0.975441	-0.218566
C146	C	1.289089	-0.475441	0.281434
C147	C	0.755625	-0.948160	-0.251973
C148	C	1.255625	-0.448160	0.248027
C149	C	0.788925	-0.527702	-0.218519
C150	C	1.288925	-0.027702	0.281481
C151	C	0.788899	-0.473097	-0.218513
C152	C	1.288899	0.026903	0.281487
C153	C	0.721987	-0.473140	-0.285325
C154	C	1.221987	0.026860	0.214675
C155	C	0.722010	-0.527740	-0.285330
C156	C	1.222010	-0.027740	0.214670
C157	C	0.755483	-0.555020	-0.251925
C158	C	1.255483	-0.055020	0.248075
O159	O	0.693601	-0.614139	-0.313718
O160	O	1.193601	-0.114139	0.186282
O161	O	0.817419	-0.614108	-0.190127
O162	O	1.317419	-0.114108	0.309873
C163	C	0.891885	-0.251861	-0.251952
C164	C	1.391885	0.248139	0.248048
C165	C	0.949999	-0.251863	-0.251961
C166	C	1.449999	0.248137	0.248039
C167	C	0.755546	-0.251834	-0.388304
C168	C	1.255546	0.248166	0.111696
C169	C	0.755560	-0.251823	-0.446418
C170	C	1.255560	0.248177	0.053582
C171	C	0.755615	-0.115484	-0.251967
C172	C	1.255615	0.384516	0.248033
C173	C	0.755658	-0.057370	-0.251982
C174	C	1.255658	0.442630	0.248018
C175	C	0.722160	-0.218320	-0.806790
C176	C	1.222160	0.281680	-0.306790
C177	C	0.722163	-0.218310	-0.861395
C178	C	1.222163	0.281690	-0.361395
O179	O	0.693738	-0.189882	-0.889639
O180	O	1.193738	0.310118	-0.389639
N181	N	0.755578	-0.251741	-0.888701
N182	N	1.255578	0.248259	-0.388701
C183	C	0.788989	-0.285188	-0.861400
C184	C	1.288989	0.214812	-0.361400
O185	O	0.817411	-0.313623	-0.889640
O186	O	1.317411	0.186377	-0.389640
C187	C	0.788983	-0.285200	-0.806797
C188	C	1.288983	0.214800	-0.306797
C189	C	0.755569	-0.251763	-0.779493
C190	C	1.255569	0.248237	-0.279493
C191	C	0.688749	-0.184886	-0.779487
C192	C	1.188749	0.315114	-0.279487
C193	C	0.688747	-0.184895	-0.724887
C194	C	1.188747	0.315105	-0.224887
C195	C	0.722156	-0.218338	-0.697589
C196	C	1.222156	0.281662	-0.197589
C197	C	0.755567	-0.251772	-0.724893
C198	C	1.255567	0.248228	-0.224893
C199	C	0.822390	-0.318648	-0.779496
C200	C	1.322390	0.181352	-0.279496
C201	C	0.822381	-0.318657	-0.724889
C202	C	1.322381	0.181343	-0.224889
C203	C	0.788968	-0.285220	-0.697586
C204	C	1.288968	0.214780	-0.197586
C205	C	0.788974	-0.285223	-0.642995
C206	C	1.288974	0.214777	-0.142995
N207	N	0.755559	-0.251792	-0.615689
N208	N	1.255559	0.248208	-0.115689
C209	C	0.722150	-0.218349	-0.642986
C210	C	1.222150	0.281651	-0.142986
C211	C	0.788998	-0.285161	-0.976071
C212	C	1.288998	0.214839	-0.476071
C213	C	0.789006	-0.285147	-1.030673
C214	C	1.289006	0.214853	-0.530673
C215	C	0.722180	-0.218270	-1.030664
C216	C	1.222180	0.281730	-0.530664
C217	C	0.722174	-0.218282	-0.976061
C218	C	1.222174	0.281718	-0.476061
C219	C	0.755583	-0.251730	-0.948764
C220	C	1.255583	0.248270	-0.448764
C221	C	0.722149	-0.218370	-0.528321
C222	C	1.222149	0.281630	-0.028321
C223	C	0.722151	-0.218381	-0.473715
C224	C	1.222151	0.281619	0.026285
C225	C	0.788976	-0.285259	-0.473729
C226	C	1.288976	0.214741	0.026271
C227	C	0.788975	-0.285247	-0.528330
C228	C	1.288975	0.214753	-0.028330
C229	C	0.755558	-0.251801	-0.555624
C230	C	1.255558	0.248199	-0.055624
O231	O	0.817383	-0.313639	-0.614716
O232	O	1.317383	0.186361	-0.114716
O233	O	0.693728	-0.189924	-0.614739
O234	O	1.193728	0.310076	-0.114739
C235	C	0.755508	-0.251843	-0.116089
C236	C	1.255508	0.248157	0.383911
C237	C	0.755595	-0.251706	-0.057975
C238	C	1.255595	0.248294	0.442025
H239	H	0.054207	-0.191277	-0.312732
H240	H	0.554207	0.308723	0.187268
H241	H	0.694777	-0.549984	-0.312538
H242	H	1.194777	-0.049984	0.187462
H243	H	0.694976	-0.191040	-1.052899
H244	H	1.194976	0.308960	-0.552899
H245	H	0.694966	-0.191054	-0.953834
H246	H	1.194966	0.308946	-0.453834
H247	H	0.816189	-0.312469	-0.550561
H248	H	1.316189	0.187531	-0.050561
H249	H	0.816357	-1.052268	-0.191376
H250	H	1.316357	-0.552268	0.308624
H251	H	0.694951	-1.052321	-0.312583
H252	H	1.194951	-0.552321	0.187417
H253	H	0.816178	-0.312486	-0.451494
H254	H	1.316178	0.187514	0.048506
H255	H	0.457346	-0.312450	-0.191149
H256	H	0.957346	0.187550	0.308851
H257	H	0.556553	-0.191283	-0.312694
H258	H	1.056553	0.308717	0.187306
H259	H	0.694922	-0.953271	-0.312581
H260	H	1.194922	-0.453271	0.187419
H261	H	0.661419	-0.801155	-0.345978
H262	H	1.161419	-0.301155	0.154022
H263	H	0.457503	-0.191272	-0.312697
H264	H	0.957503	0.308728	0.187303
H265	H	-0.044859	-0.191281	-0.312735
H266	H	0.455141	0.308719	0.187265
H267	H	-0.044992	-0.312451	-0.191191
H268	H	0.455008	0.187549	0.308809
H269	H	0.661393	-0.702105	-0.345971
H270	H	1.161393	-0.202105	0.154029
H271	H	0.849729	-0.801061	-0.157945
H272	H	1.349729	-0.301061	0.342055
H273	H	0.694738	-0.450918	-0.312518
H274	H	1.194738	0.049082	0.187482
H275	H	0.849690	-0.702014	-0.157932
H276	H	1.349690	-0.202014	0.342068
H277	H	0.694942	-0.191150	-0.451488
H278	H	1.194942	0.308850	0.048512
H279	H	0.305416	-0.157885	-0.346208
H280	H	0.805416	0.342115	0.153792
H281	H	0.054058	-0.312444	-0.191174
H282	H	0.554058	0.187556	0.308826
H283	H	0.694937	-0.191135	-0.550538
H284	H	1.194937	0.308865	-0.050538
H285	H	0.661536	-0.157669	-0.702661
H286	H	1.161536	0.342331	-0.202661
H287	H	0.206153	-0.345823	-0.157652
H288	H	0.706153	0.154177	0.342348
H289	H	0.849599	-0.345877	-0.801717
H290	H	1.349599	0.154123	-0.301717
H291	H	0.661540	-0.157653	-0.801707
H292	H	1.161540	0.342347	-0.301707
H293	H	0.816221	-0.312369	-1.052899
H294	H	1.316221	0.187631	-0.552899
H295	H	0.816324	-0.953202	-0.191360
H296	H	1.316324	-0.453202	0.308640
H297	H	0.305202	-0.345817	-0.157644
H298	H	0.805202	0.154183	0.342356
H299	H	0.816209	-0.312396	-0.953849
H300	H	1.316209	0.187604	-0.453849
H301	H	0.556413	-0.312444	-0.191142
H302	H	1.056413	0.187556	0.308858
H303	H	0.849590	-0.345892	-0.702668
H304	H	1.349590	0.154108	-0.202668
H305	H	0.206371	-0.157882	-0.346212
H306	H	0.706371	0.342118	0.153788
H307	H	0.816135	-0.450856	-0.191304
H308	H	1.316135	0.049144	0.308696
H309	H	0.816183	-0.549907	-0.191319
H310	H	1.316183	-0.049907	0.308681
