data_functionalizedCrystal
_audit_creation_method	'MofGen! by Chris Wilmer'
_symmetry_space_group_name_H-M	'P1'
_symmetry_Int_Tables_number	1
_symmetry_cell_setting	triclinic
loop_
_symmetry_equiv_pos_as_xyz
  x,y,z
_cell_length_a	19.188930
_cell_length_b	15.995350
_cell_length_c	14.472311
_cell_angle_alpha	89.999517
_cell_angle_beta	90.014772
_cell_angle_gamma	96.681422
loop_
_atom_site_label
_atom_site_type_symbol
_atom_site_fract_x
_atom_site_fract_y
_atom_site_fract_z
O1	O	0.090001	-1.110655	0.076773
O2	O	0.101115	-0.866839	0.076794
O3	O	-0.006080	-0.995783	0.076765
O4	O	0.197196	-0.981711	0.076802
O5	O	-0.006093	-0.995774	-0.076917
O6	O	0.101101	-0.866830	-0.076888
O7	O	0.089988	-1.110646	-0.076909
Cu8	Cu	0.095543	-0.988737	-0.090931
Cu9	Cu	0.095559	-0.988748	0.090816
O10	O	0.197182	-0.981702	-0.076880
C11	C	-0.032099	-0.995323	-0.000079
C12	C	-0.109607	-0.993955	-0.000087
C13	C	0.100648	-0.835641	-0.000045
C14	C	0.099271	-0.742696	-0.000038
C15	C	0.090454	-1.141843	-0.000068
C16	C	0.091831	-1.234789	-0.000069
C17	C	-0.154338	-1.069615	-0.000097
C18	C	-0.227165	-1.068330	-0.000082
C19	C	-0.255258	-0.991380	-0.000075
C20	C	-0.210517	-0.915710	-0.000059
C21	C	-0.137691	-0.916997	-0.000065
N22	N	-0.363417	-0.932558	-0.052371
N23	N	-0.432599	-0.931341	-0.052368
C24	C	-0.474676	-0.987497	-0.000056
N25	N	-0.444960	-1.044930	0.052240
N26	N	-0.375772	-1.046150	0.052233
C27	C	-0.334224	-0.989976	-0.000069
C28	C	-0.598375	-1.061769	-0.000050
C29	C	-0.671204	-1.060480	-0.000029
C30	C	-0.654553	-0.907859	-0.000015
C31	C	-0.581727	-0.909149	-0.000027
C32	C	-0.553643	-0.986106	-0.000048
C33	C	0.223201	-0.982162	-0.000034
C34	C	0.300709	-0.983530	-0.000020
N35	N	0.095532	-0.988736	-0.218762
C36	C	0.094324	-0.404967	-0.000058
C37	C	0.017982	-0.452680	-0.000415
C38	C	0.019360	-0.549365	-0.000062
C39	C	0.096778	-0.572518	-0.000049
C40	C	0.134440	-0.531298	0.087714
C41	C	0.132522	-0.434669	0.087781
C42	C	0.134084	-0.434315	-0.086984
C43	C	0.134066	-0.531260	-0.088137
C44	C	0.098169	-0.667211	-0.000040
C45	C	0.092936	-0.310274	-0.000060
C46	C	0.095554	-0.988748	-0.592853
C47	C	0.038388	-1.057966	-0.553674
C48	C	0.038177	-1.057787	-0.446586
C49	C	0.095543	-0.988743	-0.407262
C50	C	0.079632	-0.901444	-0.446149
C51	C	0.079228	-0.901854	-0.553271
C52	C	0.168799	-1.006042	-0.553346
C53	C	0.168309	-1.008027	-0.446218
C54	C	0.095538	-0.988734	-0.302374
C55	C	0.095557	-0.988751	-0.697741
N56	N	0.095565	-0.988755	0.218647
H57	H	-0.131477	-1.132280	-0.000112
H58	H	-0.010244	-0.577899	-0.062975
H59	H	-0.012387	-0.433201	0.062166
H60	H	-0.545305	-0.847538	-0.000023
N61	N	0.222171	-0.942730	-0.585149
N62	N	0.272190	-0.962992	-0.632188
H63	H	0.309879	-0.918277	-0.654655
H64	H	-0.263592	-1.129943	-0.000087
N65	N	0.102757	-0.408688	-0.170437
N66	N	0.078288	-0.462676	-0.227867
H67	H	0.056155	-0.444578	-0.286802
N68	N	0.099577	-0.565619	-0.169602
N69	N	0.132782	-0.603161	-0.227683
H70	H	0.108422	-0.627421	-0.285221
N71	N	0.129459	-0.835300	-0.585783
N72	N	0.123372	-0.760733	-0.564621
H73	H	0.158841	-0.713724	-0.587580
N74	N	0.130459	-0.835269	-0.414197
N75	N	0.126238	-0.760955	-0.438189
H76	H	0.162135	-0.714218	-0.415623
N77	N	-0.239220	-0.837115	-0.000044
N78	N	-0.304243	-0.835975	-0.000040
H79	H	-0.324516	-0.780465	-0.000024
N80	N	0.012216	-0.882679	-0.584629
N81	N	-0.033930	-0.869090	-0.527401
H82	H	-0.081259	-0.855547	-0.549543
H83	H	-0.010433	-0.577336	0.062950
N84	N	0.205787	-0.548772	0.091841
N85	N	0.226701	-0.587715	0.159381
H86	H	0.277090	-0.600058	0.162295
N87	N	-0.569694	-1.140382	-0.000074
N88	N	-0.609645	-1.207933	-0.000078
H89	H	-0.589391	-1.263455	-0.000097
H90	H	-0.012539	-0.434266	-0.063354
H91	H	0.190521	-0.546418	-0.093428
N92	N	-0.716896	-1.137771	-0.000061
N93	N	-0.759404	-1.154068	-0.064845
H94	H	-0.791676	-1.208657	-0.064871
N95	N	0.098083	-0.411839	0.170074
N96	N	0.075628	-0.467244	0.227056
H97	H	0.051304	-0.451125	0.285177
H98	H	-0.101270	-0.855384	-0.000057
H99	H	0.188571	-0.402216	0.091773
H100	H	0.108293	-0.559772	0.153020
H101	H	0.026823	-0.885779	-0.419338
H102	H	0.180382	-1.072246	-0.420802
H103	H	-0.677425	-0.845205	-0.000005
N104	N	0.187979	-1.084173	-0.587241
N105	N	0.147892	-1.128063	-0.640934
H106	H	0.161431	-1.183246	-0.664876
N107	N	-0.029421	-1.044358	-0.587454
N108	N	-0.064395	-1.099923	-0.634376
H109	H	-0.112285	-1.090309	-0.658235
H110	H	0.190370	-0.402347	-0.087568
N111	N	0.050132	-1.139185	-0.413610
N112	N	0.058685	-1.196524	-0.469711
H113	H	0.067151	-1.254007	-0.446427
N114	N	0.050088	-1.139654	-0.585996
N115	N	0.049512	-1.154858	-0.670730
H116	H	0.057779	-1.212552	-0.693565
H117	H	-0.016179	-1.046766	-0.420978
N118	N	0.224171	-0.948852	-0.412628
N119	N	0.211204	-0.891243	-0.359197
H120	H	0.250656	-0.849444	-0.335473
