data_functionalizedCrystal
_audit_creation_method	'MofGen! by Chris Wilmer'
_symmetry_space_group_name_H-M	'P1'
_symmetry_Int_Tables_number	1
_symmetry_cell_setting	triclinic
loop_
_symmetry_equiv_pos_as_xyz
  x,y,z
_cell_length_a	14.971491
_cell_length_b	16.109301
_cell_length_c	14.048226
_cell_angle_alpha	90.004103
_cell_angle_beta	90.006543
_cell_angle_gamma	83.538858
loop_
_atom_site_label
_atom_site_type_symbol
_atom_site_fract_x
_atom_site_fract_y
_atom_site_fract_z
O1	O	1.186786	0.108364	0.079204
O2	O	0.926368	0.121334	0.079198
O3	O	1.063731	-0.006173	0.079192
O4	O	1.049423	0.235871	0.079211
O5	O	1.063718	-0.006172	-0.079130
O6	O	0.926355	0.121335	-0.079124
O7	O	1.186773	0.108365	-0.079117
Zn8	Zn	1.056562	0.114850	-0.104257
Zn9	Zn	1.056579	0.114849	0.104338
O10	O	1.049410	0.235872	-0.079111
C11	C	0.893038	0.120754	0.000036
C12	C	0.793743	0.119013	0.000033
C13	C	0.366056	0.111502	0.086356
C14	C	0.459354	0.113135	0.086352
C15	C	0.505991	0.113958	0.000048
C16	C	0.459327	0.113139	-0.086258
C17	C	0.366032	0.111500	-0.086254
C18	C	0.653784	0.116557	-0.086262
C19	C	0.747085	0.118197	-0.086266
C20	C	0.747106	0.118192	0.086345
C21	C	0.653810	0.116553	0.086349
C22	C	0.607152	0.115736	0.000042
C23	C	1.063145	-0.037148	0.000030
C24	C	1.061407	-0.129445	0.000029
C25	C	1.138876	-0.351620	0.000046
C26	C	1.137236	-0.438342	0.000054
C27	C	0.974259	-0.418674	0.000046
C28	C	0.975900	-0.331953	0.000045
C29	C	1.058211	-0.298429	0.000040
C30	C	1.054930	-0.471872	0.000049
C31	C	1.053152	-0.565900	0.000057
C32	C	1.059989	-0.204395	0.000034
C33	C	1.220103	0.108945	0.000047
C34	C	1.319398	0.110686	0.000056
C35	C	1.049996	0.266847	0.000053
C36	C	1.051734	0.359145	0.000060
N37	N	1.056557	0.114851	-0.246618
C38	C	1.002362	0.064331	-0.703491
C39	C	1.002358	0.064328	-0.603833
C40	C	1.056580	0.114842	-0.553988
C41	C	1.110816	0.165355	-0.603805
C42	C	1.110824	0.165352	-0.703461
C43	C	1.110795	0.165358	-0.396091
C44	C	1.110786	0.165362	-0.296428
C45	C	1.002330	0.064334	-0.296463
C46	C	1.002337	0.064332	-0.396119
C47	C	1.056572	0.114846	-0.445929
N48	N	1.056591	0.114842	0.246699
H49	H	0.615840	0.115889	0.156626
H50	H	0.497307	0.113803	-0.156529
H51	H	0.958168	0.023205	-0.255903
H52	H	0.328043	0.110844	-0.156528
O53	O	1.163503	0.214503	-0.444331
C54	C	1.271112	0.314675	-0.433785
C55	C	1.211454	0.259072	-0.379035
H56	H	1.309911	0.350710	-0.381017
H57	H	1.227148	0.360577	-0.480422
H58	H	1.320493	0.273850	-0.480459
H59	H	1.162065	0.299831	-0.332309
H60	H	1.255475	0.213165	-0.332458
H61	H	1.202922	-0.481648	0.000061
O62	O	0.949797	0.015190	-0.555392
C63	C	0.944612	-0.097010	-0.442806
C64	C	1.004255	-0.041443	-0.497630
H65	H	0.988615	-0.142799	-0.396078
H66	H	0.905859	-0.133171	-0.495492
H67	H	0.895193	-0.056148	-0.396210
H68	H	1.053724	-0.082242	-0.544227
H69	H	1.042945	-0.005275	-0.444893
O70	O	0.897596	-0.280192	-0.000087
C71	C	0.804840	-0.170900	-0.082136
C72	C	0.893554	-0.229457	-0.082100
H73	H	0.801535	-0.129877	-0.148446
H74	H	0.801531	-0.129748	-0.015922
H75	H	0.745743	-0.209772	-0.082093
H76	H	0.952701	-0.190651	-0.082176
H77	H	0.896785	-0.270611	-0.148307
O78	O	1.218907	-0.319191	0.000095
C79	C	1.380383	-0.347857	0.000062
C80	C	1.289809	-0.384689	0.000023
H81	H	1.437732	-0.400794	-0.000017
H82	H	1.385286	-0.307775	0.066336
H83	H	1.385180	-0.307724	-0.066179
H84	H	1.284952	-0.424860	0.066218
H85	H	1.284945	-0.424724	-0.066295
H86	H	0.958203	0.023201	-0.744068
H87	H	0.615796	0.115901	-0.156542
O88	O	0.894385	-0.451380	-0.000001
C89	C	0.819627	-0.576260	0.000047
C90	C	0.910148	-0.539335	0.000081
H91	H	0.832340	-0.647377	0.000133
H92	H	0.779750	-0.554423	-0.066229
H93	H	0.779768	-0.554308	0.066285
H94	H	0.950080	-0.561271	-0.066113
H95	H	0.949957	-0.561169	0.066401
H96	H	0.958181	0.023203	-0.436700
H97	H	1.154935	0.206497	-0.255847
O98	O	0.792407	0.119139	-0.170078
C99	C	0.887612	0.192933	-0.270232
C100	C	0.836312	0.191982	-0.175290
H101	H	0.923138	0.251812	-0.274469
H102	H	0.838271	0.192115	-0.331952
H103	H	0.939461	0.135535	-0.274536
H104	H	0.784464	0.249370	-0.170894
H105	H	0.885708	0.192758	-0.113616
H106	H	1.154969	0.206479	-0.563213
H107	H	1.154983	0.206483	-0.744015
H108	H	0.497339	0.113795	0.156626
O109	O	0.320837	0.110819	0.170253
C110	C	0.282115	0.182308	0.317767
C111	C	0.333379	0.183180	0.222796
H112	H	0.292222	0.240815	0.360266
H113	H	0.308681	0.124529	0.360385
H114	H	0.207429	0.180959	0.302925
H115	H	0.408073	0.184559	0.237552
H116	H	0.306741	0.240953	0.180208
O117	O	0.792505	0.119094	0.170125
C118	C	0.887649	0.192938	0.270334
C119	C	0.836290	0.192005	0.175413
H120	H	0.923047	0.251889	0.274648
H121	H	0.939585	0.135605	0.274661
H122	H	0.838276	0.192033	0.331999
H123	H	0.885595	0.192939	0.113693
H124	H	0.784342	0.249333	0.171169
