data_functionalizedCrystal
_audit_creation_method	'MofGen! by Chris Wilmer'
_symmetry_space_group_name_H-M	'P1'
_symmetry_Int_Tables_number	1
_symmetry_cell_setting	triclinic
loop_
_symmetry_equiv_pos_as_xyz
  x,y,z
_cell_length_a	19.288840
_cell_length_b	14.853559
_cell_length_c	18.366186
_cell_angle_alpha	89.995958
_cell_angle_beta	89.983729
_cell_angle_gamma	83.378735
loop_
_atom_site_label
_atom_site_type_symbol
_atom_site_fract_x
_atom_site_fract_y
_atom_site_fract_z
O1	O	0.921740	0.112357	-0.060668
O2	O	1.421740	0.612357	0.439332
O3	O	0.719528	0.127552	-0.060642
O4	O	1.219528	0.627552	0.439358
O5	O	0.826039	-0.011307	-0.060655
O6	O	1.326039	0.488693	0.439345
O7	O	0.815230	0.251216	-0.060655
O8	O	1.315230	0.751216	0.439345
O9	O	0.826021	-0.011314	0.060444
O10	O	1.326021	0.488686	0.560444
O11	O	0.719510	0.127545	0.060457
O12	O	1.219510	0.627545	0.560457
O13	O	0.921722	0.112350	0.060432
O14	O	1.421722	0.612350	0.560432
Zn15	Zn	0.820613	0.119947	0.079672
Zn16	Zn	1.320613	0.619947	0.579672
Zn17	Zn	0.820637	0.119956	-0.079882
Zn18	Zn	1.320637	0.619956	0.420118
O19	O	0.815212	0.251209	0.060444
O20	O	1.315212	0.751209	0.560444
C21	C	0.693641	0.127063	-0.000089
C22	C	1.193641	0.627063	0.499911
C23	C	0.616531	0.125607	-0.000080
C24	C	1.116531	0.625607	0.499920
C25	C	0.580335	0.124911	-0.066093
C26	C	1.080335	0.624911	0.433907
C27	C	0.507884	0.123533	-0.066102
C28	C	1.007884	0.623533	0.433898
C29	C	0.471633	0.122832	-0.000094
C30	C	0.971633	0.622832	0.499906
C31	C	0.507837	0.123533	0.065928
C32	C	1.007837	0.623533	0.565928
C33	C	0.580286	0.124921	0.065935
C34	C	1.080286	0.624921	0.565935
C35	C	0.362113	0.067825	0.050468
C36	C	0.862113	0.567825	0.550468
C37	C	0.289666	0.066432	0.050458
C38	C	0.789666	0.566432	0.550458
C39	C	0.248175	0.118556	-0.000113
C40	C	0.748175	0.618556	0.499887
C41	C	0.279141	0.172062	-0.050686
C42	C	0.779141	0.672062	0.449314
C43	C	0.351591	0.173450	-0.050679
C44	C	0.851591	0.673450	0.449321
C45	C	0.393074	0.121328	-0.000094
C46	C	0.893074	0.621328	0.499906
C47	C	0.133419	0.116367	-0.066140
C48	C	0.633419	0.616367	0.433860
C49	C	0.060965	0.114994	-0.066146
C50	C	0.560965	0.614994	0.433854
C51	C	0.060921	0.114986	0.065886
C52	C	0.560921	0.614986	0.565886
C53	C	0.133372	0.116368	0.065890
C54	C	0.633372	0.616368	0.565890
C55	C	0.169617	0.117054	-0.000125
C56	C	0.669617	0.617054	0.499875
C57	C	0.825541	-0.044896	-0.000107
C58	C	1.325541	0.455104	0.499893
C59	C	0.824077	-0.144972	-0.000110
C60	C	1.324077	0.355028	0.499890
C61	C	0.817874	-0.568107	-0.066121
C62	C	1.317874	-0.068107	0.433879
C63	C	0.817854	-0.568109	0.065906
C64	C	1.317854	-0.068109	0.565906
C65	C	0.819236	-0.474084	0.065907
C66	C	1.319236	0.025916	0.565907
C67	C	0.819935	-0.427066	-0.000108
C68	C	1.319935	0.072934	0.499892
C69	C	0.819253	-0.474073	-0.066123
C70	C	1.319253	0.025927	0.433877
C71	C	0.819911	-0.427069	0.131920
C72	C	1.319911	0.072931	0.631920
C73	C	0.821292	-0.333038	0.131923
C74	C	1.321292	0.166962	0.631923
C75	C	0.821996	-0.286019	0.065908
C76	C	1.321996	0.213981	0.565908
C77	C	0.821315	-0.333032	-0.000109
C78	C	1.321315	0.166968	0.499891
C79	C	0.822015	-0.286013	-0.066124
C80	C	1.322015	0.213987	0.433876
C81	C	0.821339	-0.333026	-0.132142
C82	C	1.321339	0.166974	0.367858
C83	C	0.819958	-0.427054	-0.132138
C84	C	1.319958	0.072946	0.367862
C85	C	0.823377	-0.191990	0.065904
C86	C	1.323377	0.308010	0.565904
C87	C	0.823395	-0.191979	-0.066125
C88	C	1.323395	0.308021	0.433875
C89	C	0.947610	0.112839	-0.000123
C90	C	1.447610	0.612839	0.499877
C91	C	1.024719	0.114295	-0.000137
C92	C	1.524719	0.614295	0.499863
C93	C	0.815709	0.284799	-0.000106
C94	C	1.315709	0.784799	0.499894
C95	C	0.817174	0.384874	-0.000107
C96	C	1.317174	0.884874	0.499893
N97	N	0.820602	0.119940	0.188563
N98	N	1.320602	0.619940	0.688563
N99	N	0.820654	0.119955	-0.188773
N100	N	1.320654	0.619955	0.311227
C101	C	0.867780	0.058483	0.226657
C102	C	1.367780	0.558483	0.726657
C103	C	0.867785	0.058479	0.302885
C104	C	1.367785	0.558479	0.802885
C105	C	0.820618	0.119947	0.341015
C106	C	1.320618	0.619947	0.841015
C107	C	0.773430	0.181409	0.302911
C108	C	1.273430	0.681409	0.802911
C109	C	0.773423	0.181405	0.226685
C110	C	1.273423	0.681405	0.726685
C111	C	0.811595	0.202092	0.461776
C112	C	1.311595	0.702092	0.961776
C113	C	0.811607	0.202097	0.538001
C114	C	1.311607	0.702097	1.038001
C115	C	0.820637	0.119959	0.576123
C116	C	1.320637	0.619959	1.076123
C117	C	0.829670	0.037812	0.538010
C118	C	1.329670	0.537812	1.038010
C119	C	0.829662	0.037808	0.461784
C120	C	1.329662	0.537808	0.961784
C121	C	0.820620	0.119958	0.423670
C122	C	1.320620	0.619958	0.923670
C123	C	0.867823	0.058493	0.696873
C124	C	1.367823	0.558493	1.196873
C125	C	0.867823	0.058487	0.773102
C126	C	1.367823	0.558487	1.273102
C127	C	0.773471	0.181425	0.773127
C128	C	1.273471	0.681425	1.273127
C129	C	0.773468	0.181422	0.696899
C130	C	1.273468	0.681422	1.196899
C131	C	0.820648	0.119957	0.658776
C132	C	1.320648	0.619957	1.158776
H133	H	0.162844	0.116928	0.119645
H134	H	0.662844	0.616928	0.619645
N135	N	0.819160	-0.477782	0.203116
N136	N	1.319160	0.022218	0.703116
H137	H	0.819797	-0.433734	0.244936
H138	H	1.319797	0.066266	0.744936
H139	H	0.775565	-0.509310	0.205995
H140	H	1.275565	-0.009310	0.705995
N141	N	0.918660	-0.007815	0.185540
N142	N	1.418660	0.492185	0.685540
H143	H	0.949440	0.026531	0.153899
H144	H	1.449440	0.526531	0.653899
H145	H	0.948500	-0.046732	0.221291
H146	H	1.448500	0.453268	0.721291
H147	H	0.031405	0.114421	0.119631
H148	H	0.531405	0.614421	0.619631
H149	H	0.823912	-0.153714	0.119655
H150	H	1.323912	0.346286	0.619655
H151	H	0.804257	0.268986	0.569027
H152	H	1.304257	0.768986	1.069027
N153	N	0.406859	0.011598	0.105014
N154	N	0.906859	0.511598	0.605014
H155	H	0.457454	0.020598	0.097348
H156	H	0.957454	0.520598	0.597348
H157	H	0.392203	0.031095	0.155952
H158	H	0.892203	0.531095	0.655952
N159	N	0.619423	0.125673	-0.137293
N160	N	1.119423	0.625673	0.362707
H161	H	0.670813	0.126660	-0.127274
H162	H	1.170813	0.626660	0.372726
H163	H	0.612358	0.069557	-0.166123
H164	H	1.112358	0.569557	0.333877
H165	H	0.821903	-0.294730	-0.185891
H166	H	1.321903	0.205270	0.314109
H167	H	0.245360	0.214510	-0.091863
H168	H	0.745360	0.714510	0.408137
H169	H	0.837015	-0.029079	0.430755
H170	H	1.337015	0.470921	0.930755
H171	H	0.821845	-0.294769	0.185680
H172	H	1.321845	0.205231	0.685680
N173	N	0.817149	-0.618809	-0.137322
N174	N	1.317149	-0.118809	0.362678
H175	H	0.773556	-0.650335	-0.140264
H176	H	1.273556	-0.150335	0.359736
H177	H	0.817830	-0.574700	-0.179098
H178	H	1.317830	-0.074700	0.320902
H179	H	0.906204	0.008432	0.333908
H180	H	1.406204	0.508432	0.833908
H181	H	0.819407	-0.465340	-0.185886
H182	H	1.319407	0.034660	0.314114
H183	H	0.735025	0.231456	0.333961
H184	H	1.235025	0.731456	0.833961
N185	N	0.817108	-0.618818	0.137104
N186	N	1.317108	-0.118818	0.637104
H187	H	0.816134	-0.685519	0.127088
H188	H	1.316134	-0.185519	0.627088
H189	H	0.860376	-0.609871	0.165914
H190	H	1.360376	-0.109871	0.665914
H191	H	0.162930	0.116936	-0.119893
H192	H	0.662930	0.616936	0.380107
H193	H	0.264459	0.022860	0.091634
H194	H	0.764459	0.522860	0.591634
H195	H	0.837023	-0.029073	0.569047
H196	H	1.337023	0.470927	1.069047
N197	N	0.021921	0.114237	-0.137349
N198	N	0.521921	0.614237	0.362651
H199	H	-0.013721	0.169538	-0.140302
H200	H	0.486279	0.669538	0.359698
H201	H	0.055926	0.114846	-0.179123
H202	H	0.555926	0.614846	0.320877
H203	H	0.478317	0.122965	0.119672
H204	H	0.978317	0.622965	0.619672
H205	H	0.906238	0.008441	0.665832
H206	H	1.406238	0.508441	1.165832
H207	H	0.906239	0.008437	0.804119
H208	H	1.406239	0.508437	1.304119
N209	N	0.722591	0.247718	0.814241
N210	N	1.222591	0.747718	1.314241
H211	H	0.729752	0.238394	0.868312
H212	H	1.229752	0.738394	1.368312
H213	H	0.730669	0.311648	0.800910
H214	H	1.230669	0.811648	1.300910
N215	N	0.722582	0.247707	0.655805
N216	N	1.222582	0.747707	1.155805
H217	H	0.692701	0.286647	0.691525
H218	H	1.192701	0.786647	1.191525
H219	H	0.749202	0.287473	0.624161
H220	H	1.249202	0.787473	1.124161
N221	N	0.801856	0.290690	0.420663
N222	N	1.301856	0.790690	0.920663
H223	H	0.796143	0.342728	0.456371
H224	H	1.296143	0.842728	0.956371
H225	H	0.844054	0.295803	0.389020
H226	H	1.344054	0.795803	0.889020
N227	N	0.619331	0.125675	0.137138
N228	N	1.119331	0.625675	0.637138
H229	H	0.585375	0.125026	0.178954
H230	H	1.085375	0.625026	0.678954
H231	H	0.654975	0.070373	0.140018
H232	H	1.154975	0.570373	0.640018
N233	N	0.722532	0.247695	0.185598
N234	N	1.222532	0.747695	0.685598
H235	H	0.730587	0.311656	0.198855
H236	H	1.230587	0.811656	0.698855
H237	H	0.729709	0.238291	0.131537
H238	H	1.229709	0.738291	0.631537
N239	N	0.468832	0.122784	-0.137304
N240	N	0.968832	0.622784	0.362696
H241	H	0.502786	0.123431	-0.179122
H242	H	1.002786	0.623431	0.320878
H243	H	0.444361	0.066331	-0.140176
H244	H	0.944361	0.566331	0.359824
H245	H	0.376800	0.217018	-0.091855
H246	H	0.876800	0.717018	0.408145
H247	H	0.823968	-0.153704	-0.119883
H248	H	1.323968	0.346296	0.380117
