data_functionalizedCrystal
_audit_creation_method	'MofGen! by Chris Wilmer'
_symmetry_space_group_name_H-M	'P1'
_symmetry_Int_Tables_number	1
_symmetry_cell_setting	triclinic
loop_
_symmetry_equiv_pos_as_xyz
  x,y,z
_cell_length_a	8.559649
_cell_length_b	10.489741
_cell_length_c	7.088929
_cell_angle_alpha	83.712943
_cell_angle_beta	95.325015
_cell_angle_gamma	77.158919
loop_
_atom_site_label
_atom_site_type_symbol
_atom_site_fract_x
_atom_site_fract_y
_atom_site_fract_z
O1	O	2.103400	-0.028523	-0.158957
O2	O	1.638952	0.037276	-0.158967
O3	O	1.881746	-0.182335	-0.158950
O4	O	1.860607	0.191088	-0.158973
O5	O	1.914192	-0.211743	0.159027
O6	O	1.671399	0.007868	0.159010
O7	O	2.135846	-0.057931	0.159021
Cu8	Cu	1.906585	-0.027717	0.188049
Cu9	Cu	1.868214	0.007062	-0.187996
O10	O	1.893053	0.161680	0.159004
C11	C	1.595703	0.027558	0.000020
C12	C	1.418493	0.042401	0.000017
C13	C	1.896372	-0.244403	0.000037
C14	C	1.891596	-0.385529	0.000034
C15	C	1.737113	-0.437401	0.000016
C16	C	1.826086	-0.551707	0.156797
C17	C	1.794133	-0.522692	-0.156703
C18	C	1.980646	-0.497989	0.156944
C19	C	1.948657	-0.468948	-0.156697
C20	C	2.037747	-0.583242	0.000122
C21	C	2.179096	-0.048213	0.000029
C22	C	2.356304	-0.063054	0.000020
C23	C	1.878426	0.223748	0.000012
C24	C	1.883201	0.364876	0.000003
N25	N	1.933585	-0.052180	0.452539
N26	N	1.841226	0.031513	-0.452486
H27	H	1.438631	-0.164693	0.000017
H28	H	1.336155	0.144049	-0.000000
O29	O	2.047700	-0.155804	0.549739
C30	C	2.015113	-0.274850	0.501017
H31	H	1.938847	-0.255280	0.355643
H32	H	1.946557	-0.316736	0.613653
C33	C	2.268821	-0.398782	0.670571
C34	C	2.175160	-0.374747	0.492011
H35	H	2.367544	-0.460406	0.665024
H36	H	2.290774	-0.318579	0.703403
H37	H	2.211672	-0.433680	0.764415
H38	H	2.232301	-0.339834	0.398176
H39	H	2.153220	-0.454946	0.459163
H40	H	1.610115	-0.374390	0.000171
H41	H	1.774246	-0.588094	0.289341
H42	H	2.059494	-0.486305	0.289639
O43	O	2.189536	-0.657995	0.000324
C44	C	2.300148	-0.576470	0.001930
H45	H	2.246290	-0.482475	0.062877
H46	H	2.326620	-0.549920	-0.150209
C47	C	2.524118	-0.765696	0.052015
C48	C	2.457974	-0.650256	0.126886
H49	H	2.621475	-0.811211	0.129086
H50	H	2.449597	-0.820622	0.050926
H51	H	2.546164	-0.743555	-0.074766
H52	H	2.435910	-0.672399	0.253655
H53	H	2.532494	-0.595335	0.127999
H54	H	2.000441	-0.432522	-0.289249
O55	O	1.699791	-0.536623	-0.314779
C56	C	1.541396	-0.461331	-0.314153
H57	H	1.544142	-0.378974	-0.222365
H58	H	1.464076	-0.527514	-0.252969
C59	C	1.465737	-0.502083	-0.632848
C60	C	1.469112	-0.400924	-0.520125
H61	H	1.421144	-0.464826	-0.759901
H62	H	1.572448	-0.552814	-0.633269
H63	H	1.401306	-0.557228	-0.581839
H64	H	1.533558	-0.345792	-0.571121
H65	H	1.362408	-0.350183	-0.519718
H66	H	1.745507	0.118244	0.465862
