data_functionalizedCrystal
_audit_creation_method	'MofGen! by Chris Wilmer'
_symmetry_space_group_name_H-M	'P1'
_symmetry_Int_Tables_number	1
_symmetry_cell_setting	triclinic
loop_
_symmetry_equiv_pos_as_xyz
  x,y,z
_cell_length_a	15.995350
_cell_length_b	14.044220
_cell_length_c	13.101039
_cell_angle_alpha	86.332523
_cell_angle_beta	93.354042
_cell_angle_gamma	88.340626
loop_
_atom_site_label
_atom_site_type_symbol
_atom_site_fract_x
_atom_site_fract_y
_atom_site_fract_z
O1	O	-1.124322	-0.116953	-0.085130
O2	O	-0.881675	-0.132040	-0.085151
O3	O	-0.999356	0.013487	-0.085130
O4	O	-1.006641	-0.262481	-0.085150
O5	O	-0.990914	0.003029	0.085298
O6	O	-0.873233	-0.142498	0.085277
O7	O	-1.115880	-0.127412	0.085299
Zn8	Zn	-0.993216	-0.136616	0.112347
Zn9	Zn	-1.004339	-0.122836	-0.112199
O10	O	-0.998199	-0.272939	0.085278
C11	C	-0.846213	-0.136645	0.000061
C12	C	-0.753123	-0.134775	0.000053
C13	C	-0.991946	0.043573	0.000084
C14	C	-0.982435	0.148798	0.000084
C15	C	-1.151342	-0.122807	0.000085
C16	C	-1.244432	-0.124677	0.000086
C17	C	-0.414873	-0.128060	0.000075
C18	C	-0.454547	-0.024441	0.000462
C19	C	-0.551396	-0.026288	0.000071
C20	C	-0.582683	-0.131391	0.000064
C21	C	-0.550234	-0.176539	-0.097258
C22	C	-0.453408	-0.173930	-0.097332
C23	C	-0.443629	-0.187965	0.096477
C24	C	-0.540509	-0.188019	0.097756
C25	C	-0.677522	-0.133278	0.000055
C26	C	-0.320034	-0.126176	0.000077
C27	C	-1.005609	-0.303024	0.000062
C28	C	-1.015120	-0.408250	0.000055
N29	N	-0.985631	-0.146020	0.265595
C30	C	-0.965048	0.341461	0.000068
C31	C	-1.032504	0.399094	0.000071
C32	C	-1.022829	0.506298	0.000062
C33	C	-0.974721	0.234247	0.000077
N34	N	-1.011930	-0.113425	-0.265447
C35	C	-0.975312	-0.158822	0.474635
C36	C	-1.022247	-0.100625	0.525519
C37	C	-1.016505	-0.107749	0.641837
C38	C	-0.981052	-0.151700	0.358307
H39	H	-0.573368	0.009614	0.069836
H40	H	-1.097524	0.367926	0.000008
C41	C	-0.878289	0.382836	0.000011
C42	C	-0.817950	0.308598	-0.000012
C43	C	-0.738021	0.346689	-0.000076
H44	H	-0.868665	0.417297	0.059424
H45	H	-0.874622	0.424564	-0.059448
H46	H	-0.821615	0.266887	0.059441
H47	H	-0.827547	0.274131	-0.059421
H48	H	-0.734354	0.388417	-0.059535
H49	H	-0.728405	0.381150	0.059338
H50	H	-0.697072	0.296326	-0.000101
C51	C	-1.081363	-0.026948	0.466948
C52	C	-1.075275	-0.034328	0.361551
C53	C	-1.129639	0.033606	0.307560
H54	H	-1.066475	0.035190	0.484475
H55	H	-1.137267	-0.038012	0.484282
H56	H	-1.019383	-0.023257	0.344224
H57	H	-1.090171	-0.096451	0.343994
H58	H	-1.185543	0.022543	0.324894
H59	H	-1.114745	0.095740	0.325094
H60	H	-1.125520	0.028603	0.236042
H61	H	-0.417542	-0.264420	0.097130
H62	H	-0.579694	0.018455	-0.069810
H63	H	-0.429473	0.012704	0.070256
C64	C	-0.430251	-0.118195	-0.194361
C65	C	-0.503401	-0.087188	-0.252369
C66	C	-0.482107	-0.035829	-0.341751
H67	H	-0.397397	-0.158073	-0.233390
H68	H	-0.399048	-0.064495	-0.176611
H69	H	-0.534591	-0.140880	-0.270120
H70	H	-0.536264	-0.047298	-0.213371
H71	H	-0.450904	0.017871	-0.324001
H72	H	-0.449253	-0.075713	-0.380771
H73	H	-0.531736	-0.014777	-0.381116
C74	C	-0.916074	-0.232364	0.533206
C75	C	-0.922112	-0.224919	0.638602
C76	C	-0.867567	-0.292660	0.692602
H77	H	-0.860215	-0.221168	0.515819
H78	H	-0.930848	-0.294568	0.515740
H79	H	-0.907332	-0.162730	0.656061
H80	H	-0.977958	-0.236125	0.656020
H81	H	-0.882341	-0.354864	0.675136
H82	H	-0.811711	-0.281458	0.675206
H83	H	-0.871662	-0.287624	0.764118
H84	H	-0.427062	-0.249752	-0.101754
C85	C	-0.408096	-0.148538	0.194731
C86	C	-0.359660	-0.069703	0.170500
C87	C	-0.326983	-0.033289	0.260980
H88	H	-0.374099	-0.196420	0.232930
H89	H	-0.452790	-0.129414	0.234340
H90	H	-0.314972	-0.088830	0.130908
H91	H	-0.393639	-0.021802	0.132315
H92	H	-0.371678	-0.014165	0.300589
H93	H	-0.292990	-0.081178	0.299172
H94	H	-0.294122	0.020209	0.244553
H95	H	-0.435311	0.021055	-0.068941
H96	H	-0.579544	-0.136588	-0.169683
H97	H	-0.561472	-0.155120	0.169754
C98	C	-0.577168	-0.279134	-0.102160
C99	C	-0.664758	-0.281260	-0.106483
C100	C	-0.689601	-0.375752	-0.111012
H101	H	-0.554835	-0.315849	-0.042879
H102	H	-0.556947	-0.305071	-0.161598
H103	H	-0.684971	-0.255336	-0.047052
H104	H	-0.687112	-0.244565	-0.165761
H105	H	-0.669380	-0.401689	-0.170449
H106	H	-0.667263	-0.412459	-0.051729
H107	H	-0.749033	-0.377206	-0.113955
C108	C	-0.568404	-0.290636	0.105541
C109	C	-0.655494	-0.291471	0.111509
C110	C	-0.681222	-0.385988	0.118657
H111	H	-0.542064	-0.323213	0.165201
H112	H	-0.553131	-0.321605	0.046666
H113	H	-0.670759	-0.260516	0.170378
H114	H	-0.681855	-0.258914	0.051856
H115	H	-0.665949	-0.416957	0.059781
H116	H	-0.654876	-0.418556	0.178317
H117	H	-0.740315	-0.386567	0.122697
