data_functionalizedCrystal
_audit_creation_method	'MofGen! by Chris Wilmer'
_symmetry_space_group_name_H-M	'P1'
_symmetry_Int_Tables_number	1
_symmetry_cell_setting	triclinic
loop_
_symmetry_equiv_pos_as_xyz
  x,y,z
_cell_length_a	8.497374
_cell_length_b	18.215407
_cell_length_c	18.215405
_cell_angle_alpha	90.025333
_cell_angle_beta	89.985971
_cell_angle_gamma	89.996297
loop_
_atom_site_label
_atom_site_type_symbol
_atom_site_fract_x
_atom_site_fract_y
_atom_site_fract_z
Zn1	Zn	0.891978	-1.124955	0.293103
Zn2	Zn	0.628155	-1.124898	0.416139
Zn3	Zn	0.628196	-1.001922	0.293092
Zn4	Zn	0.891878	-1.001853	0.416133
O5	O	0.760052	-1.063407	0.354617
O6	O	0.857006	-1.227931	0.309431
O7	O	0.407398	-1.108590	0.399814
O8	O	0.663247	-1.018295	0.190109
O9	O	0.663177	-1.227890	0.399825
O10	O	0.857046	-1.108687	0.190117
O11	O	0.407429	-1.018240	0.309412
O12	O	0.663149	-0.898929	0.309406
O13	O	1.112653	-1.018178	0.399816
O14	O	0.856875	-0.898878	0.399805
O15	O	1.112727	-1.108620	0.309426
O16	O	0.663079	-1.108523	0.519122
O17	O	0.856835	-1.018123	0.519118
C18	C	0.760007	-0.872201	0.354604
C19	C	0.760025	-0.790402	0.354616
C20	C	0.759976	-1.063329	0.545823
C21	C	0.759996	-1.063363	0.627622
C22	C	0.760098	-1.255360	0.354630
C23	C	0.760118	-1.337159	0.354636
C24	C	1.171532	-1.063401	0.354618
C25	C	1.350176	-1.063403	0.354626
C26	C	0.760163	-1.063505	0.162664
C27	C	0.760210	-1.063547	0.080865
C28	C	0.860771	-0.602201	0.401761
C29	C	0.860791	-0.525342	0.401763
C30	C	0.659367	-0.525365	0.307486
C31	C	0.659357	-0.602222	0.307481
C32	C	0.760056	-0.640638	0.354622
C33	C	0.760086	-0.486922	0.354630
C34	C	0.760107	-0.403589	0.354632
C35	C	0.760038	-0.723977	0.354619
C36	C	0.659293	-1.110545	0.815793
C37	C	0.659332	-1.110578	0.892652
C38	C	0.860924	-1.016363	0.892688
C39	C	0.860892	-1.016334	0.815831
C40	C	0.760068	-1.063424	0.777385
C41	C	0.760138	-1.063486	0.931101
C42	C	0.760180	-1.063521	1.014435
C43	C	0.760028	-1.063390	0.694046
H44	H	0.942771	-0.633477	0.440145
H45	H	0.577199	-1.148890	0.784493
C46	C	0.971820	-0.964563	0.934980
C47	C	0.971858	-0.964590	1.019520
C48	C	1.082756	-0.912788	1.061809
C49	C	1.193615	-0.860959	1.019559
C50	C	1.193581	-0.860930	0.935014
C51	C	1.082683	-0.912732	0.892725
H52	H	0.889790	-1.002959	1.050800
H53	H	1.082781	-0.912810	1.124395
H54	H	1.275709	-0.822612	1.050865
H55	H	1.275649	-0.822561	0.903734
H56	H	1.082658	-0.912710	0.830139
C57	C	0.548476	-1.162412	0.934901
C58	C	0.437583	-1.214208	0.892610
C59	C	0.326726	-1.266046	0.934858
C60	C	0.326762	-1.266087	1.019398
C61	C	0.437659	-1.214289	1.061695
C62	C	0.548516	-1.162451	1.019446
H63	H	0.437553	-1.214180	0.830024
H64	H	0.244633	-1.304391	0.903548
H65	H	0.244699	-1.304461	1.050673
H66	H	0.437690	-1.214317	1.124280
H67	H	0.630610	-1.124106	1.050757
C68	C	0.971752	-0.964497	0.773577
C69	C	0.903254	-0.906731	0.720796
C70	C	1.014113	-0.854898	0.678543
C71	C	1.193471	-0.860832	0.689069
C72	C	1.261979	-0.918600	0.741852
C73	C	1.151120	-0.970433	0.784106
H74	H	0.770474	-0.902336	0.713002
H75	H	0.963398	-0.812134	0.639469
H76	H	1.275536	-0.822463	0.657790
H77	H	1.394759	-0.922995	0.749646
H78	H	1.201835	-1.013197	0.823179
H79	H	0.577379	-0.494077	0.269106
C80	C	0.971575	-0.483061	0.453618
C81	C	1.082337	-0.525320	0.505468
C82	C	1.193130	-0.483039	0.557325
C83	C	1.193160	-0.398499	0.557331
C84	C	1.082393	-0.356235	0.505479
C85	C	0.971601	-0.398516	0.453623
H86	H	1.082319	-0.587906	0.505466
H87	H	1.275126	-0.514326	0.595709
H88	H	1.275175	-0.367200	0.595718
H89	H	1.082412	-0.293649	0.505482
H90	H	0.889605	-0.367229	0.415238
C91	C	0.548555	-0.644510	0.255628
C92	C	0.437770	-0.602257	0.203783
C93	C	0.326976	-0.644545	0.151933
C94	C	0.326967	-0.729085	0.151928
C95	C	0.437756	-0.771342	0.203775
C96	C	0.548550	-0.729054	0.255625
H97	H	0.437773	-0.539671	0.203785
H98	H	0.244963	-0.613263	0.113552
H99	H	0.244950	-0.760389	0.113545
H100	H	0.437753	-0.833928	0.203773
H101	H	0.630563	-0.760337	0.294006
