data_functionalizedCrystal
_audit_creation_method	'MofGen! by Chris Wilmer'
_symmetry_space_group_name_H-M	'P1'
_symmetry_Int_Tables_number	1
_symmetry_cell_setting	triclinic
loop_
_symmetry_equiv_pos_as_xyz
  x,y,z
_cell_length_a	18.050591
_cell_length_b	25.639240
_cell_length_c	18.050582
_cell_angle_alpha	89.968180
_cell_angle_beta	89.980240
_cell_angle_gamma	90.029204
loop_
_atom_site_label
_atom_site_type_symbol
_atom_site_fract_x
_atom_site_fract_y
_atom_site_fract_z
Zn1	Zn	1.135269	-0.208234	-0.419961
Zn2	Zn	1.135170	-0.295661	-0.295751
Zn3	Zn	1.011088	-0.208236	-0.295774
Zn4	Zn	1.011026	-0.295634	-0.419889
O5	O	1.073138	-0.251941	-0.357844
O6	O	1.239180	-0.219841	-0.403504
O7	O	1.118695	-0.284077	-0.191829
O8	O	1.027629	-0.135071	-0.312288
O9	O	1.239108	-0.284074	-0.312248
O10	O	1.118864	-0.135069	-0.403527
O11	O	1.027532	-0.219846	-0.191846
O12	O	0.907156	-0.219820	-0.312218
O13	O	1.027523	-0.284028	-0.523823
O14	O	0.907110	-0.284031	-0.403404
O15	O	1.118804	-0.219815	-0.523876
O16	O	1.118635	-0.368823	-0.312178
O17	O	1.027427	-0.368803	-0.403381
C18	C	0.880186	-0.251923	-0.357806
C19	C	0.797641	-0.251928	-0.357808
C20	C	0.548818	-0.216974	-0.308338
C21	C	0.598252	-0.204244	-0.376117
C22	C	0.500520	-0.251954	-0.357869
C23	C	0.598168	-0.264646	-0.290064
C24	C	0.646505	-0.251940	-0.357835
C25	C	0.548866	-0.239200	-0.425684
C26	C	0.548779	-0.299624	-0.339585
C27	C	0.598190	-0.286913	-0.407410
C28	C	0.416422	-0.251961	-0.357887
C29	C	0.730602	-0.251933	-0.357825
C30	C	1.073033	-0.387784	-0.357785
C31	C	1.073057	-0.445898	-0.357785
C32	C	1.120668	-0.806221	-0.405437
C33	C	1.120690	-0.860826	-0.405453
O34	O	1.161046	-0.889029	-0.445908
N35	N	1.073241	-0.888180	-0.357915
C36	C	1.025763	-0.860928	-0.310365
O37	O	0.985405	-0.889209	-0.269933
C38	C	1.025738	-0.806325	-0.310354
C39	C	1.073194	-0.778973	-0.357889
C40	C	1.168121	-0.778870	-0.452969
C41	C	1.168100	-0.724269	-0.452953
C42	C	1.120626	-0.697020	-0.405405
C43	C	1.073173	-0.724372	-0.357873
C44	C	0.978255	-0.779073	-0.262809
C45	C	0.978234	-0.724466	-0.262802
C46	C	1.025691	-0.697114	-0.310337
C47	C	1.025679	-0.642523	-0.310309
N48	N	1.073127	-0.615168	-0.357846
C49	C	1.120601	-0.642417	-0.405394
C50	C	1.025818	-0.975599	-0.310392
C51	C	1.025846	-1.030201	-0.310399
C52	C	1.120773	-1.030095	-0.405487
C53	C	1.120748	-0.975492	-0.405477
C54	C	1.073267	-0.948244	-0.357930
C55	C	1.120553	-0.527752	-0.405356
C56	C	1.120530	-0.473147	-0.405333
C57	C	1.025601	-0.473257	-0.310248
C58	C	1.025627	-0.527858	-0.310267
C59	C	1.073105	-0.555104	-0.357827
O60	O	0.985341	-0.614285	-0.269876
O61	O	1.160944	-0.614129	-0.445826
C62	C	1.266844	-0.251960	-0.357881
C63	C	1.349390	-0.251968	-0.357897
C64	C	1.073168	-0.251918	-0.551549
C65	C	1.073180	-0.251908	-0.634095
C66	C	1.073264	-0.115568	-0.357918
C67	C	1.073318	-0.057454	-0.357950
C68	C	1.023580	-0.286780	-0.833517
C69	C	1.091333	-0.299563	-0.882911
C70	C	1.073217	-0.251868	-0.785225
C71	C	1.005500	-0.239070	-0.882913
C72	C	1.073246	-0.251831	-0.931211
C73	C	1.141006	-0.264677	-0.833532
C74	C	1.055127	-0.204162	-0.833530
C75	C	1.122927	-0.216927	-0.882902
C76	C	1.073199	-0.251891	-0.701127
C77	C	1.073272	-0.251808	-1.015307
C78	C	1.073152	-0.251927	-0.164891
C79	C	1.073284	-0.251789	-0.082346
H80	H	1.159178	-0.450879	-0.444042
H81	H	0.987155	-0.953416	-0.271668
H82	H	1.206741	-0.702002	-0.491662
H83	H	0.619731	-0.316489	-0.449331
H84	H	0.948221	-0.228262	-0.904605
H85	H	1.106652	-0.339891	-0.904602
O86	O	0.623968	-0.277556	-0.221695
C87	C	0.626911	-0.342001	-0.124521
C88	C	0.597660	-0.327457	-0.201962
H89	H	0.605639	-0.382341	-0.108537
H90	H	0.690063	-0.342285	-0.125272
H91	H	0.606643	-0.312120	-0.082399
H92	H	0.617873	-0.357323	-0.244128
H93	H	0.534509	-0.327156	-0.201150
O94	O	0.624215	-0.156178	-0.394683
C95	C	0.696628	-0.105345	-0.480592
C96	C	0.667265	-0.159807	-0.459668
H97	H	0.731453	-0.108262	-0.533126
H98	H	0.647995	-0.077884	-0.490614
H99	H	0.732218	-0.089573	-0.433489
H100	H	0.631686	-0.175626	-0.506745
H101	H	0.715932	-0.187233	-0.449620
O102	O	0.932042	-0.805608	-0.216715
C103	C	0.805736	-0.822354	-0.180532
C104	C	0.857995	-0.792283	-0.232792
H105	H	0.745858	-0.811583	-0.193501
H106	H	0.813827	-0.866070	-0.188698
H107	H	0.818843	-0.811642	-0.120664
H108	H	0.844919	-0.802950	-0.292680
H109	H	0.849894	-0.748574	-0.224561
H110	H	0.939567	-0.702284	-0.224084
O111	O	0.522798	-0.347727	-0.321258
C112	C	0.450421	-0.422056	-0.359173
C113	C	0.479808	-0.367589	-0.380039
H114	H	0.415645	-0.438126	-0.406679
H115	H	0.499042	-0.449338	-0.348154
H116	H	0.414777	-0.419010	-0.307207
H117	H	0.515441	-0.370585	-0.432016
H118	H	0.431154	-0.340328	-0.391011
O119	O	1.166956	-1.056489	-0.451705
C120	C	1.261073	-1.050637	-0.546055
C121	C	1.208824	-1.020679	-0.493745
H122	H	1.294925	-1.021698	-0.580069
H123	H	1.299986	-1.076183	-0.512040
H124	H	1.226943	-1.076214	-0.584822
H125	H	1.242894	-0.995074	-0.454967
H126	H	1.169908	-0.995166	-0.527806
H127	H	1.159391	-0.953225	-0.444184
H128	H	0.986989	-0.550129	-0.271555
H129	H	0.527142	-0.187375	-0.266518
H130	H	1.206779	-0.801050	-0.491693
H131	H	1.198302	-0.275531	-0.811932
O132	O	0.979510	-0.446702	-0.264133
C133	C	0.937440	-0.362622	-0.221957
C134	C	0.989668	-0.392633	-0.274227
H135	H	0.945646	-0.318902	-0.230089
H136	H	0.877536	-0.373344	-0.234947
H137	H	0.950509	-0.373409	-0.162095
H138	H	0.976665	-0.381862	-0.334107
H139	H	1.049556	-0.381908	-0.261173
O140	O	0.973632	-0.322115	-0.807678
C141	C	0.936290	-0.412316	-0.803564
C142	C	0.992912	-0.372355	-0.832862
H143	H	0.951849	-0.452942	-0.823926
H144	H	0.936368	-0.411784	-0.740411
H145	H	0.878697	-0.401793	-0.824708
H146	H	1.050533	-0.382851	-0.811773
H147	H	0.992770	-0.372894	-0.896014
H148	H	1.164965	-0.187388	-0.904448
O149	O	1.166740	-0.554133	-0.451582
C150	C	1.260855	-0.548250	-0.545929
C151	C	1.208599	-0.518310	-0.493607
H152	H	1.294700	-0.519301	-0.579932
H153	H	1.299775	-0.573798	-0.511924
H154	H	1.226732	-0.573825	-0.584706
H155	H	1.242662	-0.492707	-0.454820
H156	H	1.169676	-0.492795	-0.527658
H157	H	0.987210	-1.052466	-0.271683
O158	O	1.036746	-0.156107	-0.807535
C159	C	0.951676	-0.105403	-0.734121
C160	C	0.972429	-0.159856	-0.763499
H161	H	0.899666	-0.108415	-0.698525
H162	H	0.999197	-0.089349	-0.699339
H163	H	0.940775	-0.078124	-0.782803
H164	H	0.983317	-0.187175	-0.714862
H165	H	0.924896	-0.175868	-0.798302
O166	O	0.523020	-0.226315	-0.494044
C167	C	0.415738	-0.211899	-0.570766
C168	C	0.444910	-0.226489	-0.493313
H169	H	0.352584	-0.212046	-0.570205
H170	H	0.436503	-0.171370	-0.586454
H171	H	0.436539	-0.241520	-0.612999
H172	H	0.424121	-0.196903	-0.451028
H173	H	0.424151	-0.267031	-0.477689
