data_functionalizedCrystal
_audit_creation_method	'MofGen! by Chris Wilmer'
_symmetry_space_group_name_H-M	'P1'
_symmetry_Int_Tables_number	1
_symmetry_cell_setting	triclinic
loop_
_symmetry_equiv_pos_as_xyz
  x,y,z
_cell_length_a	17.038272
_cell_length_b	19.188930
_cell_length_c	16.098538
_cell_angle_alpha	92.708456
_cell_angle_beta	87.069734
_cell_angle_gamma	87.128169
loop_
_atom_site_label
_atom_site_type_symbol
_atom_site_fract_x
_atom_site_fract_y
_atom_site_fract_z
O1	O	1.040399	0.148677	-0.069168
O2	O	0.812777	0.146269	-0.069192
O3	O	0.933156	0.046226	-0.069163
O4	O	0.920020	0.248720	-0.069197
O5	O	0.926124	0.052046	0.069348
O6	O	0.805745	0.152089	0.069319
O7	O	1.033367	0.154497	0.069343
Zn8	Zn	0.918440	0.154217	0.091323
Zn9	Zn	0.927705	0.146549	-0.091172
O10	O	0.912989	0.254540	0.069314
C11	C	0.780140	0.146990	0.000061
C12	C	0.693368	0.140458	0.000052
C13	C	0.643067	0.200424	0.000043
C14	C	0.561535	0.194283	0.000055
C15	C	0.530306	0.128176	0.000071
C16	C	0.580613	0.068205	0.000083
C17	C	0.662144	0.074347	0.000077
C18	C	0.284615	0.106479	0.000097
C19	C	0.203078	0.100342	0.000101
C20	C	0.184005	0.226420	0.000075
C21	C	0.265538	0.232556	0.000063
C22	C	0.315838	0.172586	0.000080
C23	C	0.446968	0.121897	0.000081
C24	C	0.399175	0.178865	0.000075
C25	C	0.929215	0.023099	0.000095
C26	C	0.927937	-0.054485	0.000102
C27	C	0.998572	-0.095020	0.000113
C28	C	0.997373	-0.167919	0.000100
C29	C	0.925534	-0.200279	0.000092
C30	C	0.854890	-0.159735	0.000076
C31	C	0.856092	-0.086838	0.000081
N32	N	0.868229	-0.309715	0.047224
N33	N	0.867092	-0.378964	0.047221
C34	C	0.921910	-0.419913	0.000075
N35	N	0.977918	-0.388997	-0.047058
N36	N	0.979057	-0.319742	-0.047051
C37	C	0.924223	-0.279323	0.000086
C38	C	0.991249	-0.539494	0.000070
C39	C	0.990047	-0.612395	0.000052
C40	C	0.847562	-0.604208	0.000036
C41	C	0.848767	-0.531310	0.000046
C42	C	0.920612	-0.498957	0.000067
C43	C	1.066005	0.153776	0.000089
C44	C	1.152777	0.160308	0.000092
C45	C	0.916930	0.277667	0.000054
C46	C	0.918208	0.355250	0.000042
N47	N	0.912123	0.159449	0.215871
N48	N	0.934028	0.141311	-0.215719
C49	C	0.963235	0.117004	0.259468
C50	C	0.958823	0.120672	0.346656
C51	C	0.903302	0.166789	0.390245
C52	C	0.852184	0.209235	0.346641
C53	C	0.856593	0.205564	0.259455
C54	C	0.887319	0.180086	0.653491
C55	C	0.882916	0.183756	0.740683
C56	C	0.989554	0.095192	0.740692
C57	C	0.993961	0.091527	0.653504
C58	C	0.942841	0.133971	0.609908
C59	C	0.898792	0.170540	0.479365
C60	C	0.947347	0.130216	0.520790
H61	H	0.424604	0.232690	0.000067
N62	N	0.835094	0.223443	0.608979
N63	N	0.785527	0.264614	0.647911
H64	H	0.748639	0.295236	0.616473
H65	H	0.798571	-0.053834	0.000072
N66	N	1.019903	0.069862	0.214932
N67	N	1.018506	0.005690	0.224694
H68	H	1.058511	-0.027617	0.193233
H69	H	1.049750	-0.513152	0.000084
N70	N	0.132635	0.287683	0.000077
N71	N	0.160528	0.346703	0.000069
H72	H	0.124249	0.389973	0.000074
H73	H	0.555180	0.014379	0.000108
H74	H	1.000442	0.086110	0.382152
N75	N	0.842074	0.217638	0.523895
N76	N	0.791175	0.194624	0.572558
H77	H	0.751115	0.227884	0.604011
N78	N	0.795469	0.256333	0.391176
N79	N	0.791539	0.259606	0.469020
H80	H	0.751484	0.292871	0.500473
H81	H	0.796399	-0.186087	0.000067
H82	H	1.047569	-0.645398	0.000056
N83	N	1.069521	-0.209345	0.000109
N84	N	1.087713	-0.253383	-0.058273
H85	H	1.138667	-0.282639	-0.058266
N86	N	1.050812	0.044543	0.608995
N87	N	1.096533	0.006733	0.647932
H88	H	1.136737	-0.026401	0.616498
H89	H	0.814971	0.240126	0.223959
H90	H	0.837702	0.221313	0.776169
H91	H	0.789070	-0.630555	0.000025
N92	N	0.776607	-0.489910	0.000037
N93	N	0.712469	-0.518809	0.000026
H94	H	0.661502	-0.489571	0.000018
H95	H	1.031173	0.060635	0.776196
H96	H	0.703099	0.025516	0.000084
N97	N	0.171174	0.032812	0.000137
N98	N	0.124848	0.017782	0.058529
H99	H	0.102314	-0.029908	0.058554
H100	H	0.992550	0.092665	0.485297
H101	H	0.668487	0.254256	0.000029
N102	N	0.510160	0.255543	0.000064
N103	N	0.509937	0.300888	0.058444
H104	H	0.473655	0.344158	0.058454
N105	N	0.297422	0.300089	0.000036
N106	N	0.252501	0.353626	0.000023
H107	H	0.275019	0.401322	-0.000002
H108	H	0.421531	0.068073	0.000118
H109	H	0.325560	0.057646	0.000111
N110	N	1.071964	-0.061985	0.000133
N111	N	1.135027	-0.098192	0.000141
H112	H	1.186862	-0.074860	0.000153
