data_functionalizedCrystal
_audit_creation_method	'MofGen! by Chris Wilmer'
_symmetry_space_group_name_H-M	'P1'
_symmetry_Int_Tables_number	1
_symmetry_cell_setting	triclinic
loop_
_symmetry_equiv_pos_as_xyz
  x,y,z
_cell_length_a	10.540510
_cell_length_b	11.792241
_cell_length_c	10.868271
_cell_angle_alpha	90.000107
_cell_angle_beta	89.997346
_cell_angle_gamma	95.646637
loop_
_atom_site_label
_atom_site_type_symbol
_atom_site_fract_x
_atom_site_fract_y
_atom_site_fract_z
O1	O	0.173994	-1.507345	-0.102196
O2	O	0.673994	-1.007345	0.397804
O3	O	0.191926	-1.177049	-0.102223
O4	O	0.691926	-0.677049	0.397777
O5	O	-0.001773	-1.349750	-0.102208
O6	O	0.498227	-0.849750	0.397792
O7	O	0.367694	-1.334644	-0.102211
O8	O	0.867694	-0.834644	0.397789
O9	O	-0.001781	-1.349735	0.102436
O10	O	0.498219	-0.849735	0.602436
O11	O	0.191918	-1.177034	0.102421
O12	O	0.691918	-0.677034	0.602421
O13	O	0.173987	-1.507330	0.102449
O14	O	0.673987	-1.007330	0.602449
Zn15	Zn	0.182951	-1.342180	0.134927
Zn16	Zn	0.682951	-0.842180	0.634927
Zn17	Zn	0.182961	-1.342199	-0.134701
Zn18	Zn	0.682961	-0.842199	0.365299
O19	O	0.367686	-1.334629	0.102434
O20	O	0.867686	-0.834629	0.602434
C21	C	0.190796	-1.134748	0.000095
C22	C	0.690796	-0.634748	0.500095
C23	C	0.187424	-1.008726	0.000084
C24	C	0.687424	-0.508726	0.500084
C25	C	-0.049077	-1.348617	0.000111
C26	C	0.450923	-0.848617	0.500111
C27	C	-0.190016	-1.345249	0.000104
C28	C	0.309984	-0.845249	0.500104
N29	N	0.182944	-1.342175	0.318941
N30	N	0.682944	-0.842175	0.818941
C31	C	-0.407862	-1.465224	0.000582
C32	C	0.092138	-0.965224	0.500582
C33	C	-0.261278	-1.468816	0.000115
C34	C	0.238722	-0.968816	0.500115
C35	C	-0.234564	-1.282003	-0.116761
C36	C	0.265436	-0.782003	0.383239
C37	C	-0.381316	-1.279285	-0.116853
C38	C	0.118684	-0.779285	0.383147
C39	C	-0.381125	-1.276696	0.115866
C40	C	0.118875	-0.776696	0.615866
C41	C	-0.234803	-1.282557	0.117405
C42	C	0.265197	-0.782557	0.617405
C43	C	0.414990	-1.335762	0.000112
C44	C	0.914990	-0.835762	0.500112
C45	C	0.555929	-1.339130	0.000111
C46	C	1.055929	-0.839130	0.500111
C47	C	0.175117	-1.549631	0.000128
C48	C	0.675117	-1.049631	0.500128
C49	C	0.178488	-1.675654	0.000131
C50	C	0.678488	-1.175654	0.500131
C51	C	0.181225	-0.777998	0.000120
C52	C	0.681225	-0.277998	0.500120
C53	C	0.184670	-0.906392	0.000100
C54	C	0.684670	-0.406392	0.500100
N55	N	0.182959	-1.342213	-0.318715
N56	N	0.682959	-0.842213	0.181285
C57	C	0.182959	-1.342193	0.569947
C58	C	0.682959	-0.842193	1.069947
C59	C	0.182954	-1.342180	0.430270
C60	C	0.682954	-0.842180	0.930270
H61	H	-0.232099	-1.518303	0.083887
H62	H	0.267901	-1.018303	0.583887
H63	H	-0.404010	-1.186864	-0.122155
H64	H	0.095990	-0.686864	0.377845
H65	H	-0.451521	-1.513093	-0.082745
H66	H	0.048479	-1.013093	0.417255
F67	F	-0.462907	-1.528144	0.110130
F68	F	0.037093	-1.028144	0.610130
F69	F	-0.224352	-1.533887	-0.109563
F70	F	0.275648	-1.033887	0.390437
H71	H	-0.421669	-1.322520	-0.204204
H72	H	0.078331	-0.822520	0.295796
F73	F	-0.172233	-1.163102	-0.122460
F74	F	0.327767	-0.663102	0.377540
F75	F	-0.436846	-1.327672	0.231645
F76	F	0.063154	-0.827672	0.731645
H77	H	-0.206344	-1.328577	0.203860
H78	H	0.293656	-0.828577	0.703860
H79	H	-0.203848	-1.325937	-0.203724
H80	H	0.296152	-0.825937	0.296276
F81	F	-0.170289	-1.164637	0.126620
F82	F	0.329711	-0.664637	0.626620
F83	F	-0.409683	-1.155433	0.116888
F84	F	0.090317	-0.655433	0.616888
