data_functionalizedCrystal
_audit_creation_method	'MofGen! by Chris Wilmer'
_symmetry_space_group_name_H-M	'P1'
_symmetry_Int_Tables_number	1
_symmetry_cell_setting	triclinic
loop_
_symmetry_equiv_pos_as_xyz
  x,y,z
_cell_length_a	6.817900
_cell_length_b	11.168121
_cell_length_c	17.110486
_cell_angle_alpha	95.206488
_cell_angle_beta	99.060439
_cell_angle_gamma	108.508496
loop_
_atom_site_label
_atom_site_type_symbol
_atom_site_fract_x
_atom_site_fract_y
_atom_site_fract_z
V1	V	-4.002456	-0.174329	-0.246727
O2	O	-3.964089	0.008764	-0.242023
O3	O	-3.979476	-0.346036	-0.245046
O4	O	-3.931896	-0.171477	-0.354330
O5	O	-4.011998	-0.167003	-0.131983
V6	V	-4.485662	-0.152449	-0.233002
O7	O	-4.264411	-0.222324	-0.276834
O8	O	-4.673904	-0.104453	-0.202895
O9	O	-4.285436	0.019259	-0.234683
O10	O	-4.641426	-0.335541	-0.237705
O11	O	-4.593517	-0.159774	-0.347746
O12	O	-4.333015	-0.155300	-0.125399
C13	C	-3.831377	-0.387900	-0.241155
C14	C	-3.893727	-0.528273	-0.240498
C15	C	-4.094729	-0.596960	-0.243958
C16	C	-4.159175	-0.742042	-0.243279
C17	C	-3.770684	-0.165231	-0.380557
C18	C	-3.794445	-0.164036	-0.468523
C19	C	-3.987827	-0.169777	-0.513881
C20	C	-4.010141	-0.168653	-0.596534
C21	C	-3.839074	-0.161798	-0.633829
C22	C	-3.645674	-0.156053	-0.588464
C23	C	-3.623358	-0.157168	-0.505812
C24	C	-3.897332	-0.158109	-0.883183
C25	C	-3.919665	-0.156998	-0.965842
C26	C	-4.284131	-0.169596	-0.973907
C27	C	-4.261801	-0.170718	-0.891253
C28	C	-4.068401	-0.164966	-0.845895
C29	C	-3.861880	-0.160653	-0.718314
C30	C	-4.045594	-0.166102	-0.761410
C31	C	-4.096877	0.061117	-0.238571
C32	C	-4.013765	0.201488	-0.239233
C33	C	-4.157571	-0.161550	-0.099167
C34	C	-4.113048	-0.162739	-0.011200
H35	H	-4.127137	-0.175367	-0.483523
C36	C	-4.166303	-0.400334	-0.248400
C37	C	-4.262649	-0.531361	-0.248634
H38	H	-4.269976	-0.359840	-0.251282
H39	H	-4.099877	-0.387612	-0.293235
H40	H	-4.063736	-0.364686	-0.200516
H41	H	-4.365206	-0.567011	-0.296522
H42	H	-4.329109	-0.544091	-0.203795
H43	H	-3.780349	-0.151412	-0.996204
H44	H	-3.769354	-0.576877	-0.237038
H45	H	-4.184872	-0.171679	-0.731041
H46	H	-4.167607	-0.173320	-0.633461
H47	H	-3.506386	-0.150464	-0.618835
C48	C	-3.438572	-0.260159	-0.418840
C49	C	-3.410790	-0.150870	-0.455952
H50	H	-3.307337	-0.256263	-0.388056
H51	H	-3.489940	-0.333936	-0.458481
H52	H	-3.537259	-0.264384	-0.384801
H53	H	-3.312114	-0.146650	-0.489995
H54	H	-3.359393	-0.077073	-0.416306
H55	H	-3.722602	-0.155076	-0.748689
H56	H	-4.401106	-0.176299	-0.860894
H57	H	-4.441590	-0.174277	-1.010845
C58	C	-3.609067	-0.043246	-0.774825
C59	C	-3.684891	-0.151960	-0.833303
H60	H	-3.477942	-0.039498	-0.744023
H61	H	-3.707809	-0.047446	-0.740822
H62	H	-3.589996	0.030938	-0.799973
H63	H	-3.703977	-0.226146	-0.808154
H64	H	-3.586126	-0.147771	-0.867310
C65	C	-4.409670	-0.881067	-0.178816
C66	C	-4.391636	-0.821740	-0.247273
H67	H	-4.553187	-0.930275	-0.181284
H68	H	-4.361286	-0.817878	-0.132546
H69	H	-4.326792	-0.935301	-0.176198
H70	H	-4.474503	-0.767499	-0.249888
H71	H	-4.440047	-0.884937	-0.293555
H72	H	-3.841567	-0.739473	-0.236268
