data_functionalizedCrystal
_audit_creation_method	'MofGen! by Chris Wilmer'
_symmetry_space_group_name_H-M	'P1'
_symmetry_Int_Tables_number	1
_symmetry_cell_setting	triclinic
loop_
_symmetry_equiv_pos_as_xyz
  x,y,z
_cell_length_a	14.971482
_cell_length_b	23.532409
_cell_length_c	14.048226
_cell_angle_alpha	89.996625
_cell_angle_beta	89.994098
_cell_angle_gamma	83.231084
loop_
_atom_site_label
_atom_site_type_symbol
_atom_site_fract_x
_atom_site_fract_y
_atom_site_fract_z
O1	O	1.186166	0.074206	-0.079142
O2	O	0.925672	0.083096	-0.079145
O3	O	1.063773	-0.004247	-0.079145
O4	O	1.048065	0.161549	-0.079142
O5	O	1.063757	-0.004252	0.079177
O6	O	0.925655	0.083091	0.079176
O7	O	1.186150	0.074201	0.079180
Zn8	Zn	1.055900	0.078645	0.104315
Zn9	Zn	1.055921	0.078652	-0.104280
O10	O	1.048048	0.161544	0.079179
C11	C	0.892343	0.082696	0.000015
C12	C	0.793058	0.081506	0.000013
C13	C	0.746410	0.080943	0.086315
C14	C	0.653124	0.079815	0.086316
C15	C	0.606486	0.079255	0.000014
C16	C	0.653140	0.079817	-0.086295
C17	C	0.746426	0.080940	-0.086295
C18	C	0.458703	0.077477	-0.086289
C19	C	0.365411	0.076354	-0.086289
C20	C	0.365401	0.076352	0.086322
C21	C	0.458687	0.077475	0.086322
C22	C	0.505334	0.078038	0.000013
C23	C	1.063364	-0.025467	0.000014
C24	C	1.062161	-0.088689	0.000007
C25	C	1.057051	-0.361953	-0.086298
C26	C	1.058169	-0.302548	-0.086299
O27	O	1.058786	-0.271819	-0.159692
N28	N	1.058713	-0.272847	0.000004
C29	C	1.058149	-0.302554	0.086312
O30	O	1.058715	-0.271836	0.159719
C31	C	1.057038	-0.361958	0.086311
C32	C	1.056485	-0.391656	0.000003
C33	C	1.056499	-0.391651	-0.172599
C34	C	1.055380	-0.451052	-0.172599
C35	C	1.054813	-0.480755	-0.086297
C36	C	1.055365	-0.451057	0.000004
C37	C	1.056480	-0.391665	0.172618
C38	C	1.055369	-0.451073	0.172610
C39	C	1.054816	-0.480771	0.086302
C40	C	1.053679	-0.540160	0.086306
N41	N	1.053135	-0.569862	0.000003
C42	C	1.053702	-0.540159	-0.086298
C43	C	1.060484	-0.177801	0.086307
C44	C	1.061589	-0.118397	0.086309
C45	C	1.061611	-0.118396	-0.086302
C46	C	1.060500	-0.177800	-0.086303
C47	C	1.059940	-0.207502	0.000005
C48	C	1.051350	-0.664905	-0.086291
C49	C	1.050227	-0.724311	-0.086282
C50	C	1.050210	-0.724307	0.086328
C51	C	1.051329	-0.664906	0.086320
C52	C	1.051902	-0.635207	0.000003
O53	O	1.053065	-0.570928	0.159661
O54	O	1.053147	-0.570886	-0.159693
C55	C	1.219478	0.074601	0.000018
C56	C	1.318763	0.075791	0.000013
C57	C	1.048457	0.182764	0.000018
C58	C	1.049660	0.245986	0.000019
N59	N	1.055891	0.078640	0.246675
N60	N	1.055937	0.078652	-0.246641
C61	C	1.117062	0.039981	0.296494
C62	C	1.117068	0.039980	0.396151
C63	C	1.055907	0.078643	0.445989
C64	C	0.994730	0.117304	0.396164
C65	C	0.994721	0.117301	0.296508
C66	C	0.994756	0.117308	0.603878
C67	C	0.994767	0.117312	0.703540
C68	C	1.117103	0.039987	0.703522
C69	C	1.117094	0.039984	0.603866
C70	C	1.055918	0.078647	0.554047
H71	H	0.327416	0.075894	0.156598
H72	H	0.615149	0.079347	0.156592
H73	H	0.615161	0.079357	-0.156563
Br74	Br	0.522011	0.078237	-0.203423
Br75	Br	1.059716	-0.218104	0.203450
H76	H	1.062069	-0.094201	-0.156574
Br77	Br	0.911759	0.169784	0.771170
Br78	Br	1.057216	-0.351375	0.289759
Br79	Br	1.200104	-0.012480	0.536226
Br80	Br	1.200130	-0.012479	0.771135
Br81	Br	0.911718	0.169772	0.463796
H82	H	0.327440	0.075899	-0.156564
H83	H	1.166876	0.008501	0.436713
H84	H	1.166869	0.008500	0.255923
Br85	Br	0.911726	0.169777	0.536270
Br86	Br	0.521979	0.078244	0.203447
Br87	Br	0.809736	0.081700	-0.203423
H88	H	1.054936	-0.475227	-0.242880
H89	H	1.051743	-0.640722	0.156599
Br90	Br	0.911694	0.169766	0.228897
H91	H	1.056964	-0.367474	-0.242880
Br92	Br	1.054616	-0.491381	0.289749
Br93	Br	0.809695	0.081708	0.203446
H94	H	1.049773	-0.748488	-0.156568
Br95	Br	1.059749	-0.218098	-0.203439
H96	H	1.062023	-0.094221	0.156590
Br97	Br	1.052128	-0.624608	-0.203436
Br98	Br	1.049431	-0.764629	0.203446
