data_functionalizedCrystal
_audit_creation_method	'MofGen! by Chris Wilmer'
_symmetry_space_group_name_H-M	'P1'
_symmetry_Int_Tables_number	1
_symmetry_cell_setting	triclinic
loop_
_symmetry_equiv_pos_as_xyz
  x,y,z
_cell_length_a	10.654550
_cell_length_b	14.044220
_cell_length_c	9.730223
_cell_angle_alpha	89.994583
_cell_angle_beta	89.999957
_cell_angle_gamma	88.836904
loop_
_atom_site_label
_atom_site_type_symbol
_atom_site_fract_x
_atom_site_fract_y
_atom_site_fract_z
O1	O	1.681228	0.133232	-0.114191
O2	O	2.181228	0.633232	0.385809
O3	O	1.317025	0.145925	-0.114216
O4	O	1.817025	0.645925	0.385784
O5	O	1.493659	0.001558	-0.114190
O6	O	1.993659	0.501558	0.385810
O7	O	1.504593	0.277599	-0.114217
O8	O	2.004593	0.777599	0.385783
O9	O	1.493647	0.001554	0.114390
O10	O	1.993647	0.501554	0.614390
O11	O	1.317012	0.145921	0.114364
O12	O	1.817012	0.645921	0.614364
O13	O	1.681215	0.133228	0.114389
O14	O	2.181215	0.633228	0.614389
Zn15	Zn	1.499111	0.139574	0.150668
Zn16	Zn	1.999111	0.639574	0.650668
Zn17	Zn	1.499128	0.139579	-0.150496
Zn18	Zn	1.999128	0.639579	0.349504
O19	O	1.504580	0.277595	0.114363
O20	O	2.004580	0.777595	0.614363
C21	C	1.270127	0.144991	0.000070
C22	C	1.770127	0.644991	0.500070
C23	C	1.130403	0.142202	0.000061
C24	C	1.630403	0.642202	0.500061
C25	C	1.488867	-0.033790	0.000100
C26	C	1.988867	0.466210	0.500100
C27	C	1.474592	-0.139110	0.000101
C28	C	1.974592	0.360890	0.500101
C29	C	1.059459	0.227204	0.000057
C30	C	1.559459	0.727204	0.500057
C31	C	0.928175	0.224578	0.000081
C32	C	1.428175	0.724578	0.500081
C33	C	0.938790	0.051942	0.000108
C34	C	1.438790	0.551942	0.500108
C35	C	1.070072	0.054569	0.000094
C36	C	1.570072	0.554569	0.500094
C37	C	1.448493	-0.331943	0.000079
C38	C	1.948493	0.168057	0.500079
C39	C	1.549741	-0.388910	0.000082
C40	C	2.049741	0.111090	0.500082
C41	C	1.535219	-0.496209	0.000070
C42	C	2.035219	0.003791	0.500070
C43	C	1.463013	-0.224634	0.000091
C44	C	1.963013	0.275366	0.500091
C45	C	1.728113	0.134162	0.000099
C46	C	2.228113	0.634162	0.500099
C47	C	1.867836	0.136950	0.000100
C48	C	2.367836	0.636950	0.500100
C49	C	1.509372	0.312943	0.000070
C50	C	2.009372	0.812943	0.500070
C51	C	1.523648	0.418262	0.000060
C52	C	2.023648	0.918262	0.500060
N53	N	1.499109	0.139570	0.356205
N54	N	1.999109	0.639570	0.856205
N55	N	1.499140	0.139576	-0.356032
N56	N	1.999140	0.639576	0.143968
C57	C	1.577355	0.075671	0.428142
C58	C	2.077355	0.575671	0.928142
C59	C	1.577367	0.075671	0.572025
C60	C	2.077367	0.575671	1.072025
C61	C	1.420885	0.203477	0.572021
C62	C	1.920885	0.703477	1.072021
C63	C	1.420867	0.203471	0.428140
C64	C	1.920867	0.703471	0.928140
H65	H	1.108577	0.298560	0.000041
H66	H	1.608577	0.798560	0.500041
H67	H	0.870417	0.293795	0.000080
H68	H	1.370417	0.793795	0.500080
H69	H	0.889652	-0.019406	0.000143
H70	H	1.389652	0.480594	0.500143
N71	N	1.336458	0.272386	0.350538
N72	N	1.836458	0.772386	0.850538
H73	H	1.286900	0.312872	0.417939
H74	H	1.786900	0.812872	0.917939
H75	H	1.389251	0.314659	0.290817
H76	H	1.889251	0.814659	0.790817
H77	H	1.641062	0.023637	0.369576
H78	H	2.141062	0.523637	0.869576
N79	N	1.679013	-0.346786	0.000121
N80	N	2.179013	0.153214	0.500121
H81	H	1.726238	-0.368555	-0.084606
H82	H	2.226238	0.131445	0.415394
H83	H	1.671101	-0.275003	0.000185
H84	H	2.171101	0.224997	0.500185
N85	N	1.319229	-0.374066	0.000076
N86	N	1.819229	0.125934	0.500076
H87	H	1.308700	-0.414661	-0.084659
H88	H	1.808700	0.085339	0.415341
H89	H	1.308789	-0.414627	0.084867
H90	H	1.808789	0.085373	0.584867
H91	H	1.357184	0.255506	0.630605
H92	H	1.857184	0.755506	1.130605
N93	N	1.146602	-0.037115	0.000114
N94	N	1.646602	0.462885	0.500114
H95	H	1.088464	-0.093029	0.000130
H96	H	1.588464	0.406971	0.500130
H97	H	1.201301	-0.039788	-0.084624
H98	H	1.701301	0.460212	0.415376
N99	N	1.661779	0.006766	0.649617
N100	N	2.161779	0.506766	1.149617
H101	H	1.711345	-0.033709	0.582209
H102	H	2.211345	0.466291	1.082209
H103	H	1.721400	0.043492	0.709287
H104	H	2.221400	0.543492	1.209287
