data_functionalizedCrystal
_audit_creation_method	'MofGen! by Chris Wilmer'
_symmetry_space_group_name_H-M	'P1'
_symmetry_Int_Tables_number	1
_symmetry_cell_setting	triclinic
loop_
_symmetry_equiv_pos_as_xyz
  x,y,z
_cell_length_a	10.540539
_cell_length_b	15.944551
_cell_length_c	9.016244
_cell_angle_alpha	89.996810
_cell_angle_beta	89.994699
_cell_angle_gamma	84.012115
loop_
_atom_site_label
_atom_site_type_symbol
_atom_site_fract_x
_atom_site_fract_y
_atom_site_fract_z
O1	O	1.684281	0.118370	-0.123274
O2	O	1.314716	0.129523	-0.123293
O3	O	1.509591	0.001731	-0.123269
O4	O	1.489407	0.246161	-0.123297
O5	O	1.509562	0.001734	0.123411
O6	O	1.314688	0.129525	0.123388
O7	O	1.684253	0.118372	0.123407
Cu8	Cu	1.499468	0.123949	0.145921
Cu9	Cu	1.499502	0.123946	-0.145807
O10	O	1.489378	0.246164	0.123384
C11	C	1.267411	0.128688	0.000046
C12	C	1.126497	0.126185	0.000039
C13	C	1.508739	-0.029566	0.000071
C14	C	1.506227	-0.122827	0.000072
C15	C	0.944375	0.030298	0.000626
C16	C	1.090959	0.032835	0.000054
C17	C	1.064229	0.171108	-0.140828
C18	C	0.917728	0.167922	-0.140930
C19	C	0.917181	0.169824	0.139592
C20	C	1.064151	0.170684	0.141438
C21	C	1.379430	-0.338440	0.000045
C22	C	1.438296	-0.399105	0.121677
C23	C	1.501682	-0.293580	0.000060
C24	C	1.438353	-0.399091	-0.121531
C25	C	1.497283	-0.458519	0.000043
C26	C	1.560582	-0.353017	0.121792
C27	C	1.560622	-0.352996	-0.121525
C28	C	1.619577	-0.413643	0.000136
C29	C	1.504213	-0.198563	0.000072
C30	C	1.494762	-0.553535	0.000042
C31	C	1.731559	0.119207	0.000065
C32	C	1.872473	0.121710	0.000062
C33	C	1.490231	0.277461	0.000040
C34	C	1.492743	0.370722	0.000029
N35	N	1.499453	0.123951	0.351108
N36	N	1.499526	0.123937	-0.350993
C37	C	1.394894	0.192082	0.586128
C38	C	1.395120	0.192337	0.414237
C39	C	1.631905	0.143889	0.413450
C40	C	1.631333	0.144372	0.585395
C41	C	1.472882	0.035659	0.585659
C42	C	1.469829	0.036231	0.413705
H43	H	0.916281	-0.006580	0.101649
H44	H	0.869036	0.237251	0.140536
C45	C	1.242354	-0.294254	0.000198
H46	H	1.199112	-0.309934	0.086725
H47	H	1.198498	-0.310689	-0.085330
H48	H	1.244894	-0.234873	-0.000674
H49	H	1.612297	-0.332559	-0.224355
C50	C	1.756723	-0.457708	0.000314
H51	H	1.769919	-0.491593	-0.086096
H52	H	1.769278	-0.492277	0.085960
H53	H	1.815570	-0.416459	0.001190
H54	H	1.386576	-0.419520	0.224501
H55	H	1.386641	-0.419477	-0.224368
H56	H	1.412128	0.257831	0.373084
C57	C	1.566088	-0.035566	0.355683
H58	H	1.625876	-0.012882	0.292247
H59	H	1.522038	-0.074826	0.302006
H60	H	1.609767	-0.063275	0.437016
C61	C	1.262116	0.176146	0.357291
H62	H	1.207456	0.169357	0.439244
H63	H	1.269073	0.126419	0.298558
H64	H	1.227747	0.222692	0.298960
H65	H	0.886034	0.139615	0.246368
C66	C	1.261471	0.176137	0.642056
H67	H	1.268376	0.127782	0.704263
H68	H	1.208271	0.167039	0.559815
H69	H	1.225458	0.223753	0.696631
C70	C	1.575946	-0.032862	0.640598
H71	H	1.634934	-0.007839	0.701845
H72	H	1.619573	-0.059122	0.557913
H73	H	1.536910	-0.073888	0.695967
H74	H	1.411675	0.257205	0.629315
C75	C	1.120062	0.126351	0.282224
H76	H	1.181152	0.080914	0.254961
H77	H	1.053511	0.105321	0.337552
H78	H	1.160050	0.165470	0.341004
H79	H	0.889981	0.134718	-0.246221
C80	C	1.149168	-0.014915	0.136464
H81	H	1.083236	-0.036046	0.192725
H82	H	1.192053	0.022363	0.196048
H83	H	1.208111	-0.060537	0.104770
H84	H	1.654810	0.208777	0.625478
C85	C	1.739664	0.079930	0.641591
H86	H	1.783835	0.053577	0.559330
H87	H	1.704766	0.038443	0.700153
H88	H	1.797242	0.108022	0.699936
H89	H	1.378403	0.016683	0.629105
H90	H	1.711617	0.095612	0.372555
H91	H	1.372396	0.021118	0.372960
C92	C	0.904258	-0.019319	-0.135066
H93	H	0.843884	0.015433	-0.192062
H94	H	0.867043	-0.067892	-0.102663
H95	H	0.977103	-0.036095	-0.194204
H96	H	1.107254	0.139899	-0.245656
C97	C	1.664371	0.229913	0.355264
H98	H	1.597388	0.253788	0.292997
H99	H	1.741621	0.222463	0.300311
H100	H	1.674105	0.266568	0.436602
H101	H	1.612234	-0.332717	0.224735
C102	C	1.093174	0.263714	-0.147948
H103	H	1.054637	0.289679	-0.233948
H104	H	1.182829	0.265849	-0.152182
H105	H	1.059892	0.292752	-0.062111
C106	C	1.148031	-0.015245	-0.136593
H107	H	1.081615	-0.036398	-0.191979
H108	H	1.207107	-0.060857	-0.105184
H109	H	1.190565	0.021868	-0.196941
H110	H	0.868845	0.235058	-0.147331
H111	H	1.087450	0.238743	0.149936
