data_functionalizedCrystal
_audit_creation_method	'MofGen! by Chris Wilmer'
_symmetry_space_group_name_H-M	'P1'
_symmetry_Int_Tables_number	1
_symmetry_cell_setting	triclinic
loop_
_symmetry_equiv_pos_as_xyz
  x,y,z
_cell_length_a	19.188933
_cell_length_b	19.188920
_cell_length_c	16.053802
_cell_angle_alpha	87.453692
_cell_angle_beta	87.428887
_cell_angle_gamma	96.856425
loop_
_atom_site_label
_atom_site_type_symbol
_atom_site_fract_x
_atom_site_fract_y
_atom_site_fract_z
O1	O	0.929096	-0.084226	-0.069420
O2	O	0.725785	-0.095959	-0.069430
O3	O	0.833309	0.011562	-0.069397
O4	O	0.821571	-0.191747	-0.069453
O5	O	0.827391	0.005669	0.069460
O6	O	0.719866	-0.101853	0.069427
O7	O	0.923177	-0.090120	0.069437
Zn8	Zn	0.820582	-0.096922	0.091479
Zn9	Zn	0.828380	-0.089157	-0.091471
O10	O	0.815653	-0.197641	0.069404
C11	C	0.696815	-0.098525	-0.000002
C12	C	0.619310	-0.097384	-0.000005
C13	C	0.069281	-0.086026	-0.075685
C14	C	0.142105	-0.087094	-0.075688
C15	C	0.175296	-0.090845	0.000002
C16	C	0.135659	-0.093509	0.075702
C17	C	0.062837	-0.092434	0.075703
N18	N	0.281914	-0.134654	0.056331
N19	N	0.351092	-0.135677	0.056325
C20	C	0.394704	-0.094082	0.000003
N21	N	0.366525	-0.051435	-0.056325
N22	N	0.297341	-0.050416	-0.056321
C23	C	0.254259	-0.092010	0.000009
C24	C	0.513298	-0.092571	-0.075696
C25	C	0.586124	-0.093635	-0.075696
C26	C	0.579675	-0.100057	0.075696
C27	C	0.506852	-0.098986	0.075694
C28	C	0.473667	-0.095246	-0.000004
C29	C	0.829970	0.034626	0.000037
C30	C	0.828831	0.112131	0.000053
C31	C	0.884295	0.673897	0.000160
C32	C	0.885371	0.601074	0.000151
C33	C	0.822280	0.556140	0.000139
C34	C	0.758106	0.584034	0.000156
C35	C	0.757031	0.656855	0.000173
N36	N	0.778618	0.437467	-0.047154
N37	N	0.779644	0.368290	-0.047172
C38	C	0.825514	0.336733	0.000089
N39	N	0.870331	0.376967	0.047357
N40	N	0.869308	0.446150	0.047372
C41	C	0.823438	0.477177	0.000121
C42	C	0.890850	0.229884	0.000068
C43	C	0.891924	0.157059	0.000064
C44	C	0.764656	0.140021	0.000060
C45	C	0.763585	0.212844	0.000072
C46	C	0.826684	0.257772	0.000072
C47	C	0.952147	-0.087553	0.000008
C48	C	1.029652	-0.088694	0.000005
C49	C	0.818991	0.779293	0.000025
C50	C	0.820130	0.701783	0.000173
N51	N	0.815265	-0.102221	0.216337
N52	N	0.833702	-0.083852	-0.216330
C53	C	0.861034	-0.056487	0.260045
C54	C	0.857321	-0.060201	0.347451
C55	C	0.807843	-0.109652	0.391147
C56	C	0.762070	-0.155389	0.347433
C57	C	0.765780	-0.151671	0.260029
C58	C	0.791639	-0.125871	0.652552
C59	C	0.787934	-0.129586	0.739962
C60	C	0.883184	-0.034397	0.739974
C61	C	0.886893	-0.030687	0.652568
C62	C	0.841117	-0.076420	0.608862
N63	N	0.804049	-0.113451	0.480490
N64	N	0.844909	-0.072618	0.519521
H65	H	0.474585	-0.101161	0.137329
H66	H	0.174376	-0.084926	-0.137326
H67	H	0.704778	0.679559	0.000186
O68	O	0.934873	0.017577	0.610349
C69	C	0.977114	0.140329	0.584286
C70	C	0.922729	0.085664	0.632013
H71	H	0.967323	0.195389	0.601796
H72	H	0.972053	0.135400	0.514247
H73	H	1.032265	0.130659	0.601526
H74	H	0.867553	0.095300	0.614843
H75	H	0.927851	0.090606	0.702040
H76	H	0.162687	-0.096561	0.137330
H77	H	0.942229	0.266466	0.000068
H78	H	0.606699	-0.103107	0.137325
H79	H	0.937624	0.578364	0.000141
O80	O	0.954320	0.130086	0.000017
C81	C	1.080434	0.154672	0.000061
C82	C	1.009820	0.185314	0.000093
H83	H	1.125324	0.199308	0.000140
H84	H	1.086639	0.123492	-0.058069
H85	H	1.081610	0.118520	0.058154
H86	H	1.008596	0.221495	-0.057960
H87	H	1.003644	0.216453	0.058262
O88	O	0.696752	0.540487	0.000176
C89	C	0.570412	0.531274	0.000123
C90	C	0.639844	0.580668	0.000116
H91	H	0.524384	0.563741	0.000056
H92	H	0.565209	0.494299	0.058237
H93	H	0.570248	0.499208	-0.057986
H94	H	0.640056	0.612780	0.058185
H95	H	0.645020	0.617597	-0.058037
O96	O	0.703392	0.096360	-0.000101
C97	C	0.633826	0.007275	-0.072032
C98	C	0.703233	0.056701	-0.071968
H99	H	0.633680	-0.024813	-0.130122
H100	H	0.587755	0.039688	-0.072079
H101	H	0.628679	-0.029677	-0.013902
H102	H	0.708448	0.093663	-0.130089
H103	H	0.749269	0.024244	-0.071878
O104	O	0.701194	0.239823	0.000038
C105	C	0.575076	0.215234	0.000083
C106	C	0.645688	0.184590	0.000098
H107	H	0.530180	0.170593	0.000150
H108	H	0.573820	0.251341	-0.058034
H109	H	0.568956	0.246462	0.058189
H110	H	0.651854	0.153329	-0.057968
H111	H	0.646913	0.148521	0.058254
H112	H	0.901327	-0.016221	0.224474
H113	H	0.935675	0.710473	0.000165
H114	H	0.894589	-0.022960	0.383038
H115	H	0.754367	-0.163110	0.616973
O116	O	0.927739	0.009967	0.782391
C117	C	1.048129	0.050090	0.809077
C118	C	0.997751	-0.000208	0.761005
H119	H	1.104744	0.041891	0.791791
H120	H	1.037042	0.038946	0.879063
H121	H	1.039891	0.106711	0.791920
H122	H	1.005960	-0.056846	0.778093
H123	H	1.008850	0.010997	0.691031
O124	O	0.739798	-0.177640	0.782280
C125	C	0.645726	-0.271674	0.773050
C126	C	0.700192	-0.217283	0.725021
H127	H	0.613699	-0.303750	0.726777
H128	H	0.609167	-0.243380	0.813967
H129	H	0.674029	-0.308194	0.813973
H130	H	0.671948	-0.180747	0.684052
H131	H	0.736748	-0.245622	0.684156
O132	O	0.713974	-0.203333	0.389971
C133	C	0.614367	-0.222624	0.488635
C134	C	0.668803	-0.168251	0.440530
H135	H	0.577822	-0.194281	0.529510
H136	H	0.642625	-0.259163	0.529589
H137	H	0.582322	-0.254687	0.442366
H138	H	0.700864	-0.136140	0.486739
H139	H	0.640502	-0.131760	0.399564
O140	O	0.037116	-0.082477	-0.149270
C141	C	0.012217	-0.137150	-0.278658
C142	C	0.048690	-0.141252	-0.195362
H143	H	0.021549	-0.184670	-0.315939
H144	H	0.034683	-0.086958	-0.316028
H145	H	-0.046632	-0.136804	-0.265641
H146	H	0.107541	-0.141625	-0.208302
H147	H	0.026168	-0.191437	-0.158017
O148	O	0.024438	-0.095065	0.149307
C149	C	0.025732	-0.101503	0.299465
C150	C	0.069302	-0.098541	0.216169
H151	H	0.061989	-0.104298	0.353545
H152	H	-0.015046	-0.150027	0.303296
H153	H	-0.002003	-0.052320	0.303213
H154	H	0.097082	-0.147688	0.212365
H155	H	0.110039	-0.049985	0.212373
O156	O	0.481122	-0.089026	-0.149277
C157	C	0.456216	-0.143710	-0.278657
C158	C	0.492700	-0.147801	-0.195367
H159	H	0.465552	-0.191230	-0.315936
H160	H	0.478671	-0.093518	-0.316033
H161	H	0.397367	-0.143373	-0.265631
H162	H	0.551552	-0.148166	-0.208317
H163	H	0.470190	-0.197987	-0.158016
O164	O	0.721290	-0.196172	0.217698
C165	C	0.626396	-0.290951	0.226905
C166	C	0.676753	-0.240608	0.274947
H167	H	0.590364	-0.326880	0.273170
H168	H	0.658128	-0.324066	0.185984
H169	H	0.593382	-0.259136	0.185983
H170	H	0.709778	-0.272368	0.315913
H171	H	0.644979	-0.207492	0.315815
H172	H	0.618390	-0.091457	-0.137335
