data_functionalizedCrystal
_audit_creation_method	'MofGen! by Chris Wilmer'
_symmetry_space_group_name_H-M	'P1'
_symmetry_Int_Tables_number	1
_symmetry_cell_setting	triclinic
loop_
_symmetry_equiv_pos_as_xyz
  x,y,z
_cell_length_a	21.395362
_cell_length_b	13.897448
_cell_length_c	13.897449
_cell_angle_alpha	90.009266
_cell_angle_beta	90.024426
_cell_angle_gamma	90.033571
loop_
_atom_site_label
_atom_site_type_symbol
_atom_site_fract_x
_atom_site_fract_y
_atom_site_fract_z
Zn1	Zn	0.957795	-0.383779	0.545910
Zn2	Zn	0.957757	-0.545040	0.384611
Zn3	Zn	0.853046	-0.383805	0.384570
Zn4	Zn	0.853003	-0.545078	0.545806
O5	O	0.905400	-0.464426	0.465224
O6	O	1.045468	-0.405143	0.524574
O7	O	0.943869	-0.523647	0.249624
O8	O	0.866975	-0.248820	0.405999
O9	O	1.045440	-0.523621	0.406068
O10	O	0.943934	-0.248800	0.524534
O11	O	0.866938	-0.405189	0.249594
O12	O	0.765362	-0.405226	0.405898
O13	O	0.866902	-0.523686	0.680801
O14	O	0.765331	-0.523712	0.524357
O15	O	0.943892	-0.405180	0.680878
O16	O	0.943828	-0.680027	0.405968
O17	O	0.866865	-0.680055	0.524397
C18	C	0.742613	-0.464477	0.465112
C19	C	0.672972	-0.464522	0.465087
C20	C	0.640259	-0.526299	0.526677
C21	C	0.574823	-0.526275	0.526720
C22	C	0.542103	-0.464484	0.465156
C23	C	0.574824	-0.402695	0.403563
C24	C	0.640258	-0.402714	0.403528
C25	C	0.438397	-0.456704	0.378319
C26	C	0.372964	-0.456692	0.378352
C27	C	0.340283	-0.464422	0.465263
C28	C	0.373042	-0.472183	0.552143
C29	C	0.438477	-0.472201	0.552109
C30	C	0.471151	-0.464457	0.465187
C31	C	0.236617	-0.526177	0.526904
C32	C	0.171180	-0.526146	0.526948
C33	C	0.171183	-0.402571	0.403783
C34	C	0.236618	-0.402596	0.403747
C35	C	0.269331	-0.464404	0.465306
C36	C	0.905355	-0.715040	0.465196
C37	C	0.905393	-0.822254	0.465217
C38	C	0.905458	-1.018549	0.465277
C39	C	0.905420	-0.909316	0.465246
C40	C	1.068824	-0.464375	0.465337
C41	C	1.138465	-0.464353	0.465385
C42	C	0.905397	-0.464434	0.716817
C43	C	0.905395	-0.464438	0.824031
C44	C	0.905463	-0.212833	0.465273
C45	C	0.905490	-0.105619	0.465294
C46	C	0.905394	-0.464441	0.911101
C47	C	0.905393	-0.464437	1.020333
C48	C	0.905398	-0.464437	1.214610
C49	C	0.905396	-0.464428	1.107396
H50	H	0.465147	-0.478518	0.622851
H51	H	0.465000	-0.450406	0.307541
H52	H	0.666893	-0.352404	0.353375
Cl53	Cl	0.331787	-0.446934	0.269132
H54	H	0.346435	-0.478475	0.622915
H55	H	0.548179	-0.352383	0.353439
H56	H	0.144547	-0.576451	0.577108
H57	H	0.666890	-0.576627	0.576804
H58	H	0.263254	-0.576499	0.577034
Cl59	Cl	0.130055	-0.324884	0.326393
Cl60	Cl	0.533689	-0.603945	0.604152
Cl61	Cl	0.277745	-0.324931	0.326313
