data_functionalizedCrystal
_audit_creation_method	'MofGen! by Chris Wilmer'
_symmetry_space_group_name_H-M	'P1'
_symmetry_Int_Tables_number	1
_symmetry_cell_setting	triclinic
loop_
_symmetry_equiv_pos_as_xyz
  x,y,z
_cell_length_a	16.625547
_cell_length_b	25.639240
_cell_length_c	16.625539
_cell_angle_alpha	89.963426
_cell_angle_beta	89.978691
_cell_angle_gamma	90.032694
loop_
_atom_site_label
_atom_site_type_symbol
_atom_site_fract_x
_atom_site_fract_y
_atom_site_fract_z
Zn1	Zn	1.232595	-0.208160	-0.455944
Zn2	Zn	1.232482	-0.295595	-0.321087
Zn3	Zn	1.097765	-0.208176	-0.321115
Zn4	Zn	1.097703	-0.295566	-0.455867
O5	O	1.165136	-0.251874	-0.388503
O6	O	1.345412	-0.219764	-0.438076
O7	O	1.214590	-0.284017	-0.208259
O8	O	1.115724	-0.135008	-0.339043
O9	O	1.345329	-0.284003	-0.338997
O10	O	1.214783	-0.134997	-0.438102
O11	O	1.115614	-0.219791	-0.208279
O12	O	0.984924	-0.219763	-0.338969
O13	O	1.115618	-0.283953	-0.568710
O14	O	0.984879	-0.283968	-0.437971
O15	O	1.214722	-0.219736	-0.568766
O16	O	1.214530	-0.368757	-0.338923
O17	O	1.115508	-0.368736	-0.437945
C18	C	0.955645	-0.251864	-0.388465
C19	C	0.866024	-0.251873	-0.388468
C20	C	0.793242	-0.251874	-0.388478
C21	C	0.701933	-0.251876	-0.388498
C22	C	0.629157	-0.251881	-0.388519
C23	C	0.537843	-0.251885	-0.388538
C24	C	1.165022	-0.387717	-0.388440
C25	C	1.165047	-0.445831	-0.388440
C26	C	1.216742	-0.806150	-0.440176
C27	C	1.216766	-0.860754	-0.440193
O28	O	1.260583	-0.888953	-0.484116
N29	N	1.165248	-0.888113	-0.388581
C30	C	1.113698	-0.860866	-0.336956
O31	O	1.069880	-0.889151	-0.293059
C32	C	1.113670	-0.806262	-0.336944
C33	C	1.165197	-0.778906	-0.388553
C34	C	1.268264	-0.778793	-0.491782
C35	C	1.268241	-0.724193	-0.491764
C36	C	1.216696	-0.696949	-0.440141
C37	C	1.165174	-0.724305	-0.388536
C38	C	1.062116	-0.779016	-0.285324
C39	C	1.062093	-0.724409	-0.285317
C40	C	1.113620	-0.697052	-0.336926
C41	C	1.113606	-0.642461	-0.336895
N42	N	1.165124	-0.615102	-0.388506
C43	C	1.216669	-0.642345	-0.440129
C44	C	1.113758	-0.975536	-0.336986
C45	C	1.113789	-1.030139	-0.336993
C46	C	1.216856	-1.030023	-0.440230
C47	C	1.216828	-0.975420	-0.440219
C48	C	1.165275	-0.948177	-0.388597
C49	C	1.216617	-0.527680	-0.440088
C50	C	1.216592	-0.473075	-0.440063
C51	C	1.113522	-0.473195	-0.336829
C52	C	1.113550	-0.527796	-0.336850
C53	C	1.165100	-0.555037	-0.388486
O54	O	1.069809	-0.614227	-0.292997
O55	O	1.260472	-0.614053	-0.484027
C56	C	1.375445	-0.251885	-0.388542
C57	C	1.465066	-0.251890	-0.388559
C58	C	1.165176	-0.251840	-0.598812
C59	C	1.165193	-0.251825	-0.688434
C60	C	1.165273	-0.115501	-0.388584
C61	C	1.165331	-0.057387	-0.388619
C62	C	1.165206	-0.251814	-0.761216
C63	C	1.165225	-0.251794	-0.852525
C64	C	1.165244	-0.251776	-0.925301
C65	C	1.165264	-0.251757	-1.016615
C66	C	1.165143	-0.251871	-0.179013
C67	C	1.165283	-0.251739	-0.089392
H68	H	1.258554	-0.450803	-0.482089
H69	H	1.258589	-0.549854	-0.482140
N70	N	1.060887	-0.445352	-0.284095
N71	N	1.060881	-0.396600	-0.284093
H72	H	1.023706	-0.376934	-0.246851
N73	N	1.269502	-1.057850	-0.492981
N74	N	1.315498	-1.033423	-0.539065
H75	H	1.352677	-1.053076	-0.576319
H76	H	1.310196	-0.701922	-0.533791
H77	H	1.310237	-0.800969	-0.533824
H78	H	1.258785	-0.953149	-0.482244
H79	H	1.071839	-1.052408	-0.294959
N80	N	1.061091	-0.947719	-0.284243
N81	N	1.015101	-0.972158	-0.238170
H82	H	0.977903	-0.952515	-0.200921
N83	N	1.009467	-0.806943	-0.232610
N84	N	0.963442	-0.782601	-0.186539
H85	H	0.926250	-0.802323	-0.149311
N86	N	1.009421	-0.696590	-0.232584
N87	N	0.963422	-0.721026	-0.186515
H88	H	0.926223	-0.701381	-0.149272
N89	N	1.060945	-0.555760	-0.284128
N90	N	1.089373	-0.586245	-0.232799
H91	H	1.052220	-0.605996	-0.195568
