data_functionalizedCrystal
_audit_creation_method	'MofGen! by Chris Wilmer'
_symmetry_space_group_name_H-M	'P1'
_symmetry_Int_Tables_number	1
_symmetry_cell_setting	triclinic
loop_
_symmetry_equiv_pos_as_xyz
  x,y,z
_cell_length_a	14.519731
_cell_length_b	14.519731
_cell_length_c	9.130313
_cell_angle_alpha	89.994496
_cell_angle_beta	89.996385
_cell_angle_gamma	83.688853
loop_
_atom_site_label
_atom_site_type_symbol
_atom_site_fract_x
_atom_site_fract_y
_atom_site_fract_z
O1	O	1.223863	0.120983	-0.121806
O2	O	1.557197	0.454317	0.211528
O3	O	1.890530	0.787650	0.544861
O4	O	0.955390	0.135199	-0.121808
O5	O	1.288724	0.468533	0.211525
O6	O	1.622057	0.801866	0.544858
O7	O	1.096735	-0.006145	-0.121794
O8	O	1.430068	0.327188	0.211540
O9	O	1.763401	0.660521	0.544873
O10	O	1.082519	0.262328	-0.121821
O11	O	1.415852	0.595661	0.211513
O12	O	1.749186	0.928995	0.544846
O13	O	1.096725	-0.006149	0.121805
O14	O	1.430058	0.327184	0.455138
O15	O	1.763392	0.660517	0.788472
O16	O	0.955381	0.135195	0.121790
O17	O	1.288714	0.468529	0.455124
O18	O	1.622047	0.801862	0.788457
O19	O	1.223854	0.120979	0.121793
O20	O	1.557187	0.454313	0.455126
O21	O	1.890520	0.787646	0.788460
Cu22	Cu	1.089616	0.128087	0.144034
Cu23	Cu	1.422950	0.461420	0.477368
Cu24	Cu	1.756283	0.794754	0.810701
Cu25	Cu	1.089628	0.128092	-0.144050
Cu26	Cu	1.422961	0.461425	0.189284
Cu27	Cu	1.756294	0.794758	0.522617
O28	O	1.082509	0.262324	0.121778
O29	O	1.415843	0.595657	0.455112
O30	O	1.749176	0.928991	0.788445
C31	C	0.921026	0.134531	-0.000009
C32	C	1.254359	0.467864	0.333324
C33	C	1.587693	0.801198	0.666657
C34	C	0.818645	0.132535	-0.000010
C35	C	1.151979	0.465868	0.333323
C36	C	1.485312	0.799202	0.666657
C37	C	0.735501	0.130913	-0.000016
C38	C	1.068835	0.464247	0.333318
C39	C	1.402168	0.797580	0.666651
C40	C	0.631192	0.128887	-0.000016
C41	C	0.964526	0.462220	0.333317
C42	C	1.297859	0.795553	0.666651
C43	C	0.548053	0.127278	-0.000016
C44	C	0.881386	0.460612	0.333318
C45	C	1.214720	0.793945	0.666651
C46	C	0.443738	0.125252	-0.000019
C47	C	0.777071	0.458585	0.333315
C48	C	1.110404	0.791919	0.666648
C49	C	1.096064	-0.040507	0.000006
C50	C	1.429397	0.292827	0.333339
C51	C	1.762730	0.626160	0.666673
C52	C	1.094068	-0.142887	0.000007
C53	C	1.427401	0.190446	0.333340
C54	C	1.760734	0.523780	0.666674
C55	C	1.092446	-0.226031	0.000003
C56	C	1.425779	0.107302	0.333337
C57	C	1.759113	0.440635	0.666670
C58	C	1.090419	-0.330340	-0.000008
C59	C	1.423753	0.002993	0.333326
C60	C	1.757086	0.336326	0.666659
C61	C	1.088811	-0.413479	-0.000017
C62	C	1.422144	-0.080146	0.333316
C63	C	1.755478	0.253187	0.666649
C64	C	1.086785	-0.517795	-0.000026
C65	C	1.420118	-0.184462	0.333308
C66	C	1.753451	0.148872	0.666641
C67	C	1.258218	0.121648	-0.000009
C68	C	1.591551	0.454981	0.333324
C69	C	1.924885	0.788314	0.666657
C70	C	1.360598	0.123644	-0.000018
C71	C	1.693932	0.456977	0.333315
C72	C	2.027265	0.790310	0.666648
C73	C	1.083180	0.296685	-0.000025
C74	C	1.416513	0.630019	0.333309
C75	C	1.749847	0.963352	0.666642
C76	C	1.085176	0.399066	-0.000035
C77	C	1.418509	0.732399	0.333298
C78	C	1.751843	1.065732	0.666632
N79	N	1.089615	0.128083	0.346657
N80	N	1.422948	0.461416	0.679990
N81	N	1.756282	0.794750	1.013324
N82	N	1.089636	0.128088	-0.346672
N83	N	1.422970	0.461422	-0.013339
N84	N	1.756303	0.794755	0.319994
C85	C	1.152223	0.065522	0.423315
C86	C	1.485557	0.398855	0.756649
C87	C	1.818890	0.732189	1.089982
C88	C	1.152232	0.065522	0.576652
C89	C	1.485565	0.398855	0.909985
C90	C	1.818899	0.732189	1.243319
C91	C	1.027021	0.190652	0.576659
C92	C	1.360355	0.523986	0.909992
C93	C	1.693688	0.857319	1.243325
C94	C	1.027009	0.190647	0.423325
C95	C	1.360342	0.523981	0.756658
C96	C	1.693675	0.857314	1.089991
H97	H	1.203212	0.014578	0.639063
H98	H	1.536546	0.347911	0.972396
H99	H	1.869879	0.681245	1.305730
H100	H	0.976021	0.241592	0.360905
H101	H	1.309354	0.574926	0.694238
H102	H	1.642688	0.908259	1.027572
H103	H	0.976050	0.241592	0.639097
H104	H	1.309383	0.574926	0.972430
H105	H	1.642716	0.908259	1.305763
H106	H	1.203200	0.014577	0.360896
H107	H	1.536533	0.347910	0.694229
H108	H	1.869866	0.681244	1.027563
