data_functionalizedCrystal
_audit_creation_method	'MofGen! by Chris Wilmer'
_symmetry_space_group_name_H-M	'P1'
_symmetry_Int_Tables_number	1
_symmetry_cell_setting	triclinic
loop_
_symmetry_equiv_pos_as_xyz
  x,y,z
_cell_length_a	11.026607
_cell_length_b	11.026607
_cell_length_c	9.482900
_cell_angle_alpha	101.400185
_cell_angle_beta	78.636152
_cell_angle_gamma	108.586017
loop_
_atom_site_label
_atom_site_type_symbol
_atom_site_fract_x
_atom_site_fract_y
_atom_site_fract_z
O1	O	-1.742236	-0.518010	0.120892
O2	O	-1.242236	-0.018010	0.620892
O3	O	-1.375656	-0.457246	0.120894
O4	O	-0.875656	0.042754	0.620894
O5	O	-1.528564	-0.304339	0.120888
O6	O	-1.028564	0.195661	0.620888
O7	O	-1.589328	-0.670917	0.120898
O8	O	-1.089328	-0.170917	0.620898
O9	O	-1.497539	-0.335557	-0.120903
O10	O	-0.997539	0.164443	0.379097
O11	O	-1.344632	-0.488465	-0.120897
O12	O	-0.844632	0.011535	0.379103
O13	O	-1.711212	-0.549228	-0.120899
O14	O	-1.211212	-0.049228	0.379101
Cu15	Cu	-1.525089	-0.521697	-0.142976
Cu16	Cu	-1.025089	-0.021697	0.357024
Cu17	Cu	-1.561779	-0.484778	0.142971
Cu18	Cu	-1.061779	0.015222	0.642971
O19	O	-1.558304	-0.702136	-0.120893
O20	O	-1.058304	-0.202136	0.379107
C21	C	-1.312485	-0.461645	-0.000001
C22	C	-0.812485	0.038355	0.499999
C23	C	-1.170471	-0.428228	-0.000000
C24	C	-0.670471	0.071772	0.500000
C25	C	-1.501842	-0.272288	-0.000006
C26	C	-1.001842	0.227712	0.499994
C27	C	-1.468426	-0.130273	-0.000000
C28	C	-0.968426	0.369727	0.500000
C29	C	-1.774384	-0.544829	-0.000001
C30	C	-1.274384	-0.044829	0.499999
C31	C	-1.916399	-0.578244	0.000008
C32	C	-1.416399	-0.078244	0.500008
C33	C	-1.585026	-0.734186	0.000004
C34	C	-1.085026	-0.234186	0.500004
C35	C	-1.618444	-0.876199	0.000008
C36	C	-1.118444	-0.376199	0.500008
C37	C	-1.116822	-0.520498	0.000003
C38	C	-0.616822	-0.020498	0.500003
C39	C	-0.970043	-0.485962	0.000004
C40	C	-0.470043	0.014038	0.500004
N41	N	-1.499293	-0.547665	-0.344095
N42	N	-0.999293	-0.047665	0.155905
C43	C	-1.560695	-0.076624	0.000001
C44	C	-1.060695	0.423376	0.500001
C45	C	-1.526161	0.070155	0.000007
C46	C	-1.026161	0.570155	0.500007
C47	C	-1.554160	-0.492428	-0.416296
C48	C	-1.054160	0.007572	0.083704
C49	C	-1.532708	-0.514046	-0.583713
C50	C	-1.032708	-0.014046	-0.083713
N51	N	-1.587583	-0.458801	0.344090
N52	N	-1.087583	0.041199	0.844090
H53	H	-1.179554	-0.625061	-0.000002
H54	H	-0.679554	-0.125061	0.499998
Cl55	Cl	-1.684965	-0.361402	-0.560010
Cl56	Cl	-1.184965	0.138598	-0.060010
Cl57	Cl	-0.873201	-0.324514	-0.000010
Cl58	Cl	-0.373201	0.175486	0.499990
Cl59	Cl	-1.364713	0.166998	0.000022
Cl60	Cl	-0.864713	0.666998	0.500022
Cl61	Cl	-1.779895	0.026964	0.000014
Cl62	Cl	-1.279895	0.526964	0.500014
Cl63	Cl	-1.306985	-0.033426	0.000015
Cl64	Cl	-0.806985	0.466574	0.500015
H65	H	-0.979125	-0.682816	0.000001
H66	H	-0.479125	-0.182816	0.500001
Cl67	Cl	-1.650856	-0.394355	-0.320387
Cl68	Cl	-1.150856	0.105645	0.179613
Cl69	Cl	-1.073624	-0.266788	-0.000015
Cl70	Cl	-0.573624	0.233212	0.499985
Cl71	Cl	-1.402239	-0.645382	-0.440004
Cl72	Cl	-0.902239	-0.145382	0.059996
Cl73	Cl	-1.722139	-0.173468	0.000009
Cl74	Cl	-1.222139	0.326532	0.500009
Cl75	Cl	-1.435650	-0.611768	-0.679617
Cl76	Cl	-0.935650	-0.111768	-0.179617
