data_functionalizedCrystal
_audit_creation_method	'MofGen! by Chris Wilmer'
_symmetry_space_group_name_H-M	'P1'
_symmetry_Int_Tables_number	1
_symmetry_cell_setting	triclinic
loop_
_symmetry_equiv_pos_as_xyz
  x,y,z
_cell_length_a	14.971491
_cell_length_b	12.811415
_cell_length_c	13.448316
_cell_angle_alpha	84.562549
_cell_angle_beta	89.991393
_cell_angle_gamma	83.830592
loop_
_atom_site_label
_atom_site_type_symbol
_atom_site_fract_x
_atom_site_fract_y
_atom_site_fract_z
O1	O	1.187330	0.136810	-0.095070
O2	O	0.926976	0.153185	-0.096539
O3	O	1.063702	-0.007787	-0.082022
O4	O	1.050604	0.297782	-0.109586
O5	O	1.063685	-0.007797	0.083362
O6	O	0.926959	0.153175	0.068846
O7	O	1.187313	0.136800	0.070315
Cu8	Cu	1.057134	0.144987	0.084682
Cu9	Cu	1.057155	0.144998	-0.110905
O10	O	1.050587	0.297772	0.055799
C11	C	0.893641	0.152446	-0.013779
C12	C	0.794338	0.150249	-0.013578
C13	C	0.366615	0.140773	-0.102897
C14	C	0.459921	0.142834	-0.103079
C15	C	0.506561	0.143866	-0.013018
C16	C	0.459890	0.142826	0.077232
C17	C	0.366586	0.140757	0.077414
C18	C	0.654364	0.147141	0.076846
C19	C	0.747674	0.149212	0.076665
C20	C	0.747699	0.149218	-0.103647
C21	C	0.654395	0.147149	-0.103465
C22	C	0.607731	0.146111	-0.013214
C23	C	1.062959	-0.046898	0.004195
C24	C	1.060760	-0.163419	0.014700
C25	C	1.056631	-0.382353	-0.145884
C26	C	1.054565	-0.491835	-0.136019
C27	C	1.054556	-0.491867	0.044295
C28	C	1.056622	-0.382385	0.034430
C29	C	1.057661	-0.327632	-0.060663
C30	C	1.059733	-0.218148	-0.070527
C31	C	1.059717	-0.218181	0.109785
C32	C	1.057651	-0.327663	0.119651
C33	C	1.220648	0.137538	-0.012447
C34	C	1.319951	0.139736	-0.012654
C35	C	1.051330	0.336882	-0.030421
C36	C	1.053529	0.453404	-0.040932
N37	N	1.057126	0.144978	0.222247
N38	N	1.057170	0.144999	-0.248469
C39	C	1.117688	0.073729	0.280712
C40	C	1.117693	0.073728	0.384816
C41	C	1.057141	0.144982	0.430451
C42	C	0.996574	0.216234	0.371978
C43	C	0.996564	0.216229	0.267877
C44	C	0.996598	0.216241	0.588957
C45	C	0.996608	0.216248	0.693065
C46	C	1.117727	0.073740	0.705896
C47	C	1.117718	0.073735	0.601795
C48	C	1.057151	0.144989	0.543329
H49	H	0.616423	0.146316	-0.176801
Cl50	Cl	1.193868	-0.015833	0.779399
Cl51	Cl	1.193819	-0.015849	0.223353
Cl52	Cl	1.061021	-0.149384	0.216927
Cl53	Cl	0.806360	0.150536	-0.217105
H54	H	1.167028	0.015720	0.564639
Cl55	Cl	0.307924	0.139444	0.190868
H56	H	0.785644	0.150058	0.150000
H57	H	0.497912	0.143672	-0.176563
H58	H	1.060582	-0.173571	-0.147956
Cl59	Cl	1.053268	-0.560624	-0.243158
Cl60	Cl	1.057951	-0.313519	-0.265424
H61	H	1.167006	0.015711	0.432418
H62	H	0.947300	0.274269	0.730216
H63	H	1.056802	-0.372258	0.197072
Cl64	Cl	0.920453	0.305818	0.515461
H65	H	0.947266	0.274247	0.409140
Cl66	Cl	0.307991	0.139483	-0.216124
Cl67	Cl	0.920423	0.305800	0.194378
H68	H	0.497872	0.143660	0.150562
Cl69	Cl	0.595703	0.145824	0.190307
H70	H	1.053702	-0.536465	0.121714
