data_functionalizedCrystal
_audit_creation_method	'MofGen! by Chris Wilmer'
_symmetry_space_group_name_H-M	'P1'
_symmetry_Int_Tables_number	1
_symmetry_cell_setting	triclinic
loop_
_symmetry_equiv_pos_as_xyz
  x,y,z
_cell_length_a	15.944551
_cell_length_b	17.038272
_cell_length_c	15.021413
_cell_angle_alpha	90.004029
_cell_angle_beta	89.997174
_cell_angle_gamma	87.305147
loop_
_atom_site_label
_atom_site_type_symbol
_atom_site_fract_x
_atom_site_fract_y
_atom_site_fract_z
O1	O	1.121728	0.100827	-0.073940
O2	O	0.878066	0.113259	-0.073962
O3	O	0.998449	-0.006773	-0.073944
O4	O	1.001345	0.220859	-0.073958
O5	O	0.998429	-0.006755	0.074120
O6	O	0.878046	0.113277	0.074102
O7	O	1.121708	0.100844	0.074125
Zn8	Zn	0.999874	0.107063	0.097622
Zn9	Zn	0.999900	0.107041	-0.097459
O10	O	1.001326	0.220876	0.074107
C11	C	0.846725	0.112752	0.000067
C12	C	0.753369	0.111205	0.000059
C13	C	0.532936	0.033105	0.000081
C14	C	0.474515	0.069363	-0.072924
C15	C	0.582443	0.108405	0.000070
C16	C	0.474519	0.069398	0.073055
C17	C	0.417337	0.105696	0.000084
C18	C	0.525252	0.144684	-0.072996
C19	C	0.525262	0.144709	0.073049
C20	C	0.466862	0.181022	0.000026
C21	C	0.677557	0.109964	0.000061
C22	C	0.322225	0.104143	0.000087
C23	C	0.995805	-0.035893	0.000088
C24	C	0.987945	-0.122688	0.000087
C25	C	1.060103	-0.172781	0.000094
C26	C	1.052713	-0.254334	0.000085
C27	C	0.973165	-0.285792	0.000075
C28	C	0.901002	-0.235693	0.000065
C29	C	0.908393	-0.154142	0.000068
C30	C	0.947056	-0.531558	0.000061
C31	C	0.939671	-0.613115	0.000060
C32	C	1.091383	-0.631751	0.000079
C33	C	1.098766	-0.550197	0.000087
C34	C	1.026603	-0.500105	0.000072
C35	C	0.965610	-0.369152	0.000069
C36	C	1.034159	-0.416747	0.000073
C37	C	1.153049	0.101352	0.000093
C38	C	1.246405	0.102899	0.000096
C39	C	1.003969	0.249997	0.000073
C40	C	1.011829	0.336792	0.000068
N41	N	0.999863	0.107078	0.230759
N42	N	0.999917	0.107019	-0.230597
C43	C	0.944187	0.162555	0.470434
C44	C	1.021171	0.177734	0.529775
C45	C	0.999883	0.107059	0.412366
C46	C	0.922921	0.091897	0.529768
C47	C	0.999896	0.107041	0.587790
C48	C	1.076908	0.122273	0.470400
C49	C	0.978606	0.036405	0.470388
C50	C	1.055643	0.051554	0.529702
C51	C	0.999875	0.107070	0.311309
C52	C	0.999913	0.107029	0.688846
H53	H	0.438170	0.243580	-0.000019
O54	O	0.888167	0.218627	0.439271
C55	C	0.930451	0.272543	0.386381
H56	H	0.991409	0.243364	0.360325
H57	H	0.945241	0.326003	0.428182
C58	C	0.799444	0.334478	0.339340
C59	C	0.874311	0.298637	0.307331
H60	H	0.764814	0.350578	0.290580
H61	H	0.770956	0.298156	0.374975
H62	H	0.811780	0.379024	0.374174
H63	H	0.861974	0.254088	0.272507
H64	H	0.902795	0.334953	0.271688
O65	O	1.154597	0.137774	0.439560
C66	C	1.176991	0.212040	0.470563
H67	H	1.139571	0.227877	0.533224
H68	H	1.162561	0.258113	0.416998
C69	C	1.317456	0.190081	0.415177
C70	C	1.271501	0.209530	0.492144
H71	H	1.375755	0.188535	0.428486
H72	H	1.302369	0.140048	0.394286
H73	H	1.305422	0.228479	0.370547
H74	H	1.283528	0.171128	0.536767
H75	H	1.286593	0.259556	0.513042
H76	H	0.874891	-0.638725	0.000067
O77	O	0.957148	-0.034807	0.439085
C78	C	0.958178	-0.033995	0.345235
H79	H	1.000752	0.013508	0.321046
H80	H	0.891774	-0.021170	0.319227
C81	C	0.939205	-0.172942	0.340234
C82	C	0.991501	-0.114603	0.310525
H83	H	0.959756	-0.222665	0.318822
H84	H	0.938507	-0.173489	0.403463
H85	H	0.883872	-0.162245	0.318559
H86	H	1.046829	-0.125295	0.332210
H87	H	0.992208	-0.114059	0.247299
O88	O	1.042518	0.249058	0.560861
C89	C	0.983646	0.307412	0.530652
H90	H	0.922047	0.279374	0.514000
H91	H	1.008978	0.336624	0.468562
C92	C	1.043984	0.404005	0.624476
C93	C	0.968324	0.369569	0.604030
H94	H	1.034535	0.442349	0.669737
H95	H	1.083649	0.364692	0.644826
H96	H	1.065086	0.428342	0.572728
H97	H	0.947229	0.345225	0.655775
H98	H	0.928655	0.408880	0.583691
H99	H	1.150134	-0.672544	0.000090
H100	H	0.849634	-0.113356	0.000061
O101	O	0.447868	0.031513	0.146781
C102	C	0.474919	0.070550	0.223629
H103	H	0.487093	0.134191	0.206488
H104	H	0.535254	0.040002	0.249441
C105	C	0.391567	-0.009675	0.316914
C106	C	0.406513	0.068491	0.295863
H107	H	0.349373	-0.010948	0.361473
H108	H	0.373344	-0.035978	0.265140
H109	H	0.441851	-0.035123	0.338419
H110	H	0.356232	0.093934	0.274348
H111	H	0.424726	0.094797	0.347635
O112	O	0.876874	-0.483017	0.000097
C113	C	0.805082	-0.528274	0.000073
H114	H	0.822055	-0.589137	0.028102
H115	H	0.780977	-0.534085	-0.070962
C116	C	0.715447	-0.412891	0.023713
C117	C	0.736292	-0.487642	0.058146
H118	H	0.673013	-0.387827	0.059532
H119	H	0.763815	-0.382400	0.023726
H120	H	0.695365	-0.417744	-0.035482
H121	H	0.756384	-0.482788	0.117335
H122	H	0.687927	-0.518132	0.058144
H123	H	0.836233	-0.261313	0.000051
O124	O	0.845206	0.076694	0.560770
C125	C	0.786690	0.135370	0.530589
H126	H	0.811925	0.164017	0.468106
H127	H	0.776143	0.181744	0.584660
C128	C	0.671935	0.062939	0.585727
C129	C	0.702926	0.098119	0.508980
H130	H	0.620264	0.039963	0.572401
H131	H	0.711358	0.023409	0.606064
H132	H	0.663153	0.101590	0.630779
H133	H	0.711718	0.059467	0.463933
H134	H	0.663502	0.137642	0.488635
H135	H	0.561807	-0.029389	-0.000005
H136	H	1.102803	0.004613	0.555561
H137	H	0.452139	0.037507	-0.134642
O138	O	1.111448	-0.386229	-0.000076
C139	C	1.155815	-0.411842	-0.076741
H140	H	1.109413	-0.428818	-0.130346
H141	H	1.198827	-0.464984	-0.059397
C142	C	1.265847	-0.324255	-0.045666
C143	C	1.208856	-0.345098	-0.111507
H144	H	1.298569	-0.283086	-0.067110
H145	H	1.235959	-0.307000	0.005987
H146	H	1.301683	-0.368545	-0.031218
H147	H	1.173016	-0.300811	-0.125946
H148	H	1.238740	-0.362344	-0.163163
O149	O	0.551904	0.182714	-0.146621
C150	C	0.596625	0.248371	-0.120577
H151	H	0.621705	0.238974	-0.050124
H152	H	0.553011	0.303323	-0.122336
C153	C	0.639712	0.270095	-0.271451
C154	C	0.670521	0.258550	-0.184923
H155	H	0.685292	0.276377	-0.311144
H156	H	0.609580	0.225862	-0.288999
H157	H	0.603367	0.315887	-0.272904
H158	H	0.706856	0.212754	-0.183468
H159	H	0.700661	0.302775	-0.167376
O160	O	0.552099	0.182576	0.146701
C161	C	0.605520	0.131156	0.196734
H162	H	0.633339	0.082929	0.151485
H163	H	0.568084	0.103614	0.252306
C164	C	0.642700	0.236574	0.293017
C165	C	0.676873	0.177344	0.237440
H166	H	0.686711	0.265064	0.318130
H167	H	0.606706	0.271216	0.259311
H168	H	0.611503	0.213613	0.339320
H169	H	0.708059	0.200305	0.191132
H170	H	0.712873	0.142706	0.271138
O171	O	1.137441	-0.142356	0.000063
C172	C	1.199543	-0.204061	0.000087
H173	H	1.172038	-0.259462	-0.027946
H174	H	1.222075	-0.215596	0.071121
C175	C	1.307880	-0.113000	-0.023545
C176	C	1.274100	-0.181043	-0.057983
H177	H	1.353873	-0.098801	-0.059362
H178	H	1.266042	-0.071427	-0.023558
H179	H	1.326650	-0.122621	0.035649
H180	H	1.255322	-0.171418	-0.117172
H181	H	1.315938	-0.222614	-0.057982
H182	H	1.111472	-0.295117	0.000093
H183	H	1.163543	-0.524590	0.000096
H184	H	0.900842	-0.394774	0.000062
