data_functionalizedCrystal
_audit_creation_method	'MofGen! by Chris Wilmer'
_symmetry_space_group_name_H-M	'P1'
_symmetry_Int_Tables_number	1
_symmetry_cell_setting	triclinic
loop_
_symmetry_equiv_pos_as_xyz
  x,y,z
_cell_length_a	15.538191
_cell_length_b	23.532407
_cell_length_c	14.185569
_cell_angle_alpha	76.924933
_cell_angle_beta	97.875798
_cell_angle_gamma	65.060386
loop_
_atom_site_label
_atom_site_type_symbol
_atom_site_fract_x
_atom_site_fract_y
_atom_site_fract_z
O1	O	1.230119	-0.167965	-0.083405
O2	O	0.955241	-0.102078	-0.083414
O3	O	1.100973	-0.219642	-0.083391
O4	O	1.084386	-0.050401	-0.083428
O5	O	1.144024	-0.254369	0.083451
O6	O	0.998292	-0.136805	0.083427
O7	O	1.273169	-0.202692	0.083436
Cu8	Cu	1.139661	-0.172919	0.098666
Cu9	Cu	1.088749	-0.131851	-0.098643
O10	O	1.127437	-0.085128	0.083413
C11	C	0.941606	-0.112548	0.000006
C12	C	0.836839	-0.092014	0.000003
C13	C	1.122077	-0.258136	0.000032
C14	C	1.120810	-0.321097	0.000040
C15	C	0.550965	-0.296010	0.000032
C16	C	0.452518	-0.276701	0.000027
C17	C	0.429052	-0.168092	0.000004
C18	C	0.527501	-0.187393	0.000014
C19	C	0.588450	-0.251353	0.000027
C20	C	0.564986	-0.142735	0.000008
C21	C	0.663425	-0.162034	0.000013
C22	C	0.724379	-0.225991	0.000023
C23	C	0.686889	-0.270652	0.000031
C24	C	0.504034	-0.078774	-0.000012
C25	C	0.541519	-0.034116	-0.000018
C26	C	0.639961	-0.053416	-0.000006
C27	C	0.700915	-0.117373	0.000004
C28	C	0.677451	-0.008755	-0.000015
C29	C	0.775890	-0.028054	-0.000010
C30	C	0.799355	-0.136672	0.000009
C31	C	1.199074	-0.736103	-0.000012
C32	C	1.197893	-0.795262	-0.000020
O33	O	1.270447	-0.846751	-0.000055
N34	N	1.111258	-0.800275	-0.000022
C35	C	1.025796	-0.746122	-0.000027
O36	O	0.951997	-0.755818	-0.000030
C37	C	1.026976	-0.686963	-0.000026
C38	C	1.113619	-0.681957	-0.000014
C39	C	1.285710	-0.731095	-0.000001
C40	C	1.286891	-0.671940	0.000008
C41	C	1.201436	-0.617794	0.000007
C42	C	1.114800	-0.622802	-0.000004
C43	C	0.941513	-0.632810	-0.000038
C44	C	0.942700	-0.573649	-0.000038
C45	C	1.029343	-0.568643	-0.000026
C46	C	1.030526	-0.509502	0.000003
N47	N	1.117161	-0.504489	0.000006
C48	C	1.202616	-0.558635	0.000007
C49	C	1.023323	-0.870361	-0.000030
C50	C	1.022144	-0.929521	-0.000023
C51	C	1.194241	-0.978656	-0.000018
C52	C	1.195421	-0.919497	-0.000017
C53	C	1.109958	-0.865349	-0.000027
C54	C	1.205090	-0.434404	0.000028
C55	C	1.206265	-0.375243	0.000042
C56	C	1.034167	-0.326112	0.000032
C57	C	1.032993	-0.385269	0.000023
C58	C	1.118462	-0.439415	0.000018
O59	O	0.958009	-0.457984	0.000034
O60	O	1.276399	-0.548925	-0.000003
C61	C	1.286804	-0.192222	0.000014
C62	C	1.391568	-0.212754	0.000010
C63	C	1.106332	-0.046633	-0.000012
C64	C	1.107598	0.016329	-0.000026
N65	N	1.175477	-0.201806	0.237443
N66	N	1.052941	-0.102970	-0.237420
C67	C	0.947714	-0.018124	0.605056
C68	C	0.974850	-0.040003	0.710082
C69	C	1.103922	-0.144083	0.710064
C70	C	1.076793	-0.122214	0.605036
C71	C	0.998689	-0.059234	0.552540
C72	C	1.127769	-0.163323	0.552520
C73	C	1.100645	-0.141454	0.447501
C74	C	1.022546	-0.078476	0.394998
C75	C	0.971565	-0.037365	0.447521
C76	C	1.205877	-0.226302	0.605017
C77	C	1.256852	-0.267411	0.552501
C78	C	1.229724	-0.245544	0.447480
C79	C	1.151625	-0.182566	0.394977
C80	C	1.280705	-0.286655	0.394957
C81	C	1.253581	-0.264786	0.289938
C82	C	1.124502	-0.160697	0.289959
H83	H	0.848985	-0.188756	0.000025
O84	O	0.940281	-0.817710	-0.000202
C85	C	0.819446	-0.704393	-0.086602
C86	C	0.913478	-0.763969	-0.086540
H87	H	0.797759	-0.660924	-0.156388
H88	H	0.757277	-0.718096	-0.086666
H89	H	0.833730	-0.690042	-0.016745
H90	H	0.899290	-0.778350	-0.156385
H91	H	0.975616	-0.750234	-0.086424
O92	O	1.179715	-0.205309	0.760956
C93	C	1.244194	-0.322634	0.793142
C94	C	1.158307	-0.253332	0.735428
H95	H	1.226908	-0.361480	0.772540
H96	H	1.314401	-0.326554	0.772461
H97	H	1.254831	-0.331173	0.877217
H98	H	1.147581	-0.244747	0.651340
H99	H	1.088148	-0.249445	0.756192
O100	O	1.303003	-0.304761	0.238925
C101	C	1.350996	-0.408681	0.206707
C102	C	1.294972	-0.363486	0.264548
H103	H	1.344539	-0.456176	0.227418
H104	H	1.318162	-0.382245	0.122629
H105	H	1.431830	-0.421097	0.227307
H106	H	1.214131	-0.351057	0.244032
H107	H	1.327885	-0.389946	0.348612
H108	H	0.964593	-0.282017	0.000034
H109	H	1.227961	-0.244104	0.690530
O110	O	0.812167	0.015408	-0.000144
C111	C	0.799987	0.120307	-0.086621
C112	C	0.758793	0.071152	-0.086577
H113	H	0.756865	0.165381	-0.156505
H114	H	0.792828	0.136403	-0.016850
H115	H	0.880824	0.095500	-0.086569
H116	H	0.677946	0.095914	-0.086665
H117	H	0.766028	0.055058	-0.156342
O118	O	1.288212	-0.486943	0.000071
C119	C	1.459019	-0.529409	0.000030
C120	C	1.364960	-0.469863	-0.000004
H121	H	1.521089	-0.515616	-0.000052
H122	H	1.480859	-0.572881	0.069867
H123	H	1.444716	-0.543800	-0.069779
H124	H	1.379188	-0.455412	0.069758
H125	H	1.343147	-0.426428	-0.069886
H126	H	1.060895	-0.109415	0.247215
O127	O	0.819953	-0.244637	-0.000107
C128	C	0.932483	-0.224575	-0.086572
C129	C	0.824207	-0.203379	-0.086539
H130	H	0.935957	-0.191237	-0.156456
H131	H	0.972061	-0.220251	-0.016801
H132	H	0.969593	-0.277969	-0.086513
H133	H	0.787012	-0.149982	-0.086633
H134	H	0.784702	-0.207751	-0.156305
H135	H	0.736520	-0.322736	0.000048
H136	H	0.491880	0.017961	-0.000033
O137	O	1.356689	-0.347794	0.445908
C138	C	1.529383	-0.421800	0.477950
C139	C	1.443426	-0.352531	0.420209
H140	H	1.599526	-0.425658	0.457178
H141	H	1.540104	-0.430392	0.562044
H142	H	1.512130	-0.460653	0.457322
H143	H	1.460614	-0.313636	0.440753
H144	H	1.432726	-0.343996	0.336129
H145	H	1.276824	-0.371174	0.000054
O146	O	1.371126	-0.667182	-0.000032
C147	C	1.541709	-0.722195	0.000027
C148	C	1.446370	-0.727661	0.000053
H149	H	1.602575	-0.771089	0.000117
H150	H	1.528614	-0.681220	-0.069812
H151	H	1.564536	-0.710235	0.069834
H152	H	1.423491	-0.739643	-0.069707
H153	H	1.459518	-0.768621	0.069938
H154	H	1.265973	-0.915427	-0.000008
H155	H	1.355300	-0.775177	-0.000003
O156	O	0.857251	-0.637541	-0.000099
C157	C	0.686691	-0.582544	-0.000068
C158	C	0.782051	-0.577095	-0.000020
H159	H	0.625873	-0.533685	0.000018
H160	H	0.663748	-0.594432	-0.069911
H161	H	0.699882	-0.623574	0.069735
H162	H	0.768938	-0.536063	-0.069774
H163	H	0.804966	-0.565241	0.069870
H164	H	1.263822	-1.022753	-0.000020
O165	O	0.859755	-0.520977	-0.000089
C166	C	0.785305	-0.408076	-0.000022
C167	C	0.879301	-0.467667	0.000009
H168	H	0.801081	-0.364964	0.000078
H169	H	0.724611	-0.393003	-0.069866
H170	H	0.760650	-0.422165	0.069779
H171	H	0.904044	-0.453627	-0.069745
H172	H	0.939935	-0.482726	0.069899
H173	H	0.951595	-0.933593	-0.000015
O174	O	0.610098	-0.358112	-0.000130
C175	C	0.637956	-0.438877	-0.086514
C176	C	0.570915	-0.368532	-0.086463
H177	H	0.606291	-0.447329	-0.156295
H178	H	0.714750	-0.445017	-0.086579
H179	H	0.642424	-0.476384	-0.016653
H180	H	0.566364	-0.330983	-0.156312
H181	H	0.494156	-0.362448	-0.086345
H182	H	0.962449	-0.389350	0.000041
H183	H	0.907959	0.013917	0.404778
O184	O	0.369835	-0.105920	-0.000186
C185	C	0.297408	0.010814	-0.086602
C186	C	0.364471	-0.059560	-0.086527
H187	H	0.293066	0.048315	-0.156390
H188	H	0.220576	0.016988	-0.086671
H189	H	0.328994	0.019235	-0.016748
H190	H	0.332973	-0.068029	-0.156369
H191	H	0.441294	-0.065700	-0.086406
H192	H	1.000466	-0.060670	0.309485
H193	H	1.320448	-0.318690	0.595255
H194	H	0.933333	-0.006521	0.752836
H195	H	0.422003	-0.313071	0.000030
O196	O	0.871843	0.043085	0.554209
C197	C	0.746627	0.144005	0.565298
C198	C	0.832538	0.074712	0.623008
H199	H	0.714811	0.169590	0.620897
H200	H	0.774363	0.174387	0.516147
H201	H	0.687058	0.139316	0.516116
H202	H	0.892140	0.079339	0.672245
H203	H	0.804728	0.044355	0.672096
H204	H	0.423878	-0.063062	-0.000019
O205	O	0.618117	0.053339	0.000011
C206	C	0.456045	0.131223	-0.000083
C207	C	0.523137	0.060876	-0.000088
H208	H	0.379235	0.137343	-0.000185
H209	H	0.487554	0.139697	0.069752
H210	H	0.451665	0.168726	-0.069893
H211	H	0.527544	0.023328	0.069674
H212	H	0.491602	0.052457	-0.069970
