data_functionalizedCrystal
_audit_creation_method	'MofGen! by Chris Wilmer'
_symmetry_space_group_name_H-M	'P1'
_symmetry_Int_Tables_number	1
_symmetry_cell_setting	triclinic
loop_
_symmetry_equiv_pos_as_xyz
  x,y,z
_cell_length_a	19.077236
_cell_length_b	12.594516
_cell_length_c	19.076919
_cell_angle_alpha	87.723714
_cell_angle_beta	90.112677
_cell_angle_gamma	92.311142
loop_
_atom_site_label
_atom_site_type_symbol
_atom_site_fract_x
_atom_site_fract_y
_atom_site_fract_z
Zn1	Zn	1.058319	-0.386370	0.440563
Zn2	Zn	1.062971	-0.556943	0.323065
Zn3	Zn	0.945534	-0.385812	0.318343
Zn4	Zn	0.940791	-0.571143	0.435804
O5	O	1.001904	-0.475067	0.379444
O6	O	1.157269	-0.403288	0.428944
O7	O	1.051324	-0.528066	0.224108
O8	O	0.960533	-0.236939	0.334571
O9	O	1.160687	-0.528607	0.342620
O10	O	1.043396	-0.237349	0.424365
O11	O	0.965044	-0.402337	0.220638
O12	O	0.846572	-0.416106	0.329956
O13	O	0.952449	-0.552809	0.534767
O14	O	0.843087	-0.552268	0.416255
O15	O	1.038796	-0.417057	0.538263
O16	O	1.046725	-0.707774	0.338005
O17	O	0.956960	-0.718207	0.420834
C18	C	0.819332	-0.485668	0.372077
C19	C	0.741227	-0.490230	0.368943
C20	C	0.702751	-0.427238	0.412483
C21	C	0.629363	-0.431519	0.409532
C22	C	0.594452	-0.498797	0.363043
C23	C	0.632933	-0.561791	0.319497
C24	C	0.706320	-0.557504	0.322446
C25	C	0.375160	-0.518598	0.349394
C26	C	0.301768	-0.522883	0.346451
C27	C	0.298203	-0.392608	0.436484
C28	C	0.371592	-0.388332	0.439432
C29	C	0.410066	-0.451321	0.395884
N30	N	0.519438	-0.503177	0.360026
N31	N	0.485079	-0.446936	0.398897
C32	C	1.001851	-0.751611	0.379432
C33	C	1.001892	-0.869915	0.379453
C34	C	0.953108	-1.015641	0.424481
C35	C	1.016476	-0.942094	0.444299
C36	C	0.938529	-0.941891	0.359667
C37	C	1.065407	-1.007149	0.399336
C38	C	0.987417	-1.006953	0.314672
C39	C	1.050831	-0.933434	0.334467
C40	C	1.185188	-0.464426	0.386840
C41	C	1.263292	-0.459891	0.389991
C42	C	0.994575	-0.486579	0.562724
C43	C	0.991452	-0.491485	0.640827
C44	C	1.001975	-0.197444	0.379472
C45	C	1.002005	-0.079137	0.379484
C46	C	1.009244	-0.463521	0.196879
C47	C	1.012503	-0.458307	0.118781
C48	C	1.034938	-0.423114	0.679341
C49	C	1.031995	-0.427720	0.752727
C50	C	0.985569	-0.500702	0.787597
C51	C	0.942077	-0.569076	0.749077
C52	C	0.945017	-0.564464	0.675693
C53	C	0.971952	-0.522069	1.006877
C54	C	0.969017	-0.526678	1.080267
C55	C	1.058934	-0.385320	1.083911
C56	C	1.061873	-0.380719	1.010525
C57	C	1.018379	-0.449089	0.972012
N58	N	0.982561	-0.505414	0.862609
N59	N	1.021384	-0.444371	0.897001
H60	H	0.273345	-0.577674	0.308593
N61	N	0.898461	-1.063224	0.474936
H62	H	0.850654	-1.038479	0.460478
H63	H	0.909592	-1.039695	0.523858
H64	H	0.904273	-0.628497	0.777474
N65	N	0.416653	-0.586531	0.302425
H66	H	0.383398	-0.629802	0.272530
H67	H	0.445963	-0.635871	0.332191
N68	N	0.587876	-0.363556	0.456489
H69	H	0.598645	-0.382606	0.507191
H70	H	0.536101	-0.376488	0.447511
N71	N	0.740400	-0.354681	0.462633
H72	H	0.792729	-0.361528	0.457900
H73	H	0.725567	-0.375279	0.512280
N74	N	0.595276	-0.634346	0.269352
H75	H	0.563688	-0.687308	0.296629
H76	H	0.630829	-0.673527	0.242224
H77	H	0.400011	-0.333550	0.477291
H78	H	1.094344	-0.329656	1.115277
H79	H	0.266869	-0.341324	0.471938
H80	H	1.099681	-0.321291	0.982139
N81	N	0.747823	-0.625439	0.275481
H82	H	0.714572	-0.668711	0.245583
H83	H	0.777132	-0.674778	0.305249
N84	N	1.032769	-0.904221	0.516880
H85	H	0.995850	-0.934276	0.550849
H86	H	1.033071	-0.823978	0.516169
N87	N	1.136470	-1.045056	0.421604
H88	H	1.136070	-1.125265	0.421498
H89	H	1.147517	-1.020828	0.470382
N90	N	1.105594	-0.886115	0.284045
H91	H	1.153453	-0.909923	0.299091
H92	H	1.104914	-0.805972	0.284028
N93	N	0.971112	-1.044857	0.242106
H94	H	0.923170	-1.021247	0.227188
H95	H	0.971773	-1.125028	0.242618
H96	H	0.884895	-0.913134	0.342920
N97	N	1.085018	-0.344403	0.641733
H98	H	1.112119	-0.301789	0.677270
H99	H	1.057648	-0.294892	0.610134
N100	N	1.078885	-0.353957	0.794267
H101	H	1.108741	-0.307022	0.761042
H102	H	1.110175	-0.397291	0.826034
H103	H	0.909598	-0.620129	0.644335
H104	H	0.931208	-0.586112	1.108656
N105	N	0.925020	-0.595774	0.965343
H106	H	0.895158	-0.642697	0.998570
H107	H	0.954804	-0.641473	0.936029
