data_functionalizedCrystal
_audit_creation_method	'MofGen! by Chris Wilmer'
_symmetry_space_group_name_H-M	'P1'
_symmetry_Int_Tables_number	1
_symmetry_cell_setting	triclinic
loop_
_symmetry_equiv_pos_as_xyz
  x,y,z
_cell_length_a	10.540535
_cell_length_b	11.792241
_cell_length_c	10.868271
_cell_angle_alpha	90.005281
_cell_angle_beta	89.995021
_cell_angle_gamma	95.641471
loop_
_atom_site_label
_atom_site_type_symbol
_atom_site_fract_x
_atom_site_fract_y
_atom_site_fract_z
O1	O	1.685369	-0.159932	-0.102343
O2	O	1.315906	-0.175009	-0.102341
O3	O	1.509604	-0.002323	-0.102333
O4	O	1.491672	-0.332618	-0.102350
O5	O	1.509588	-0.002316	0.102311
O6	O	1.315890	-0.175002	0.102304
O7	O	1.685353	-0.159925	0.102302
Zn8	Zn	1.500619	-0.167462	0.134795
Zn9	Zn	1.500640	-0.167471	-0.134834
O10	O	1.491656	-0.332611	0.102294
C11	C	1.268599	-0.173876	-0.000018
C12	C	1.127662	-0.170496	-0.000017
C13	C	1.508469	0.039974	-0.000011
C14	C	1.505098	0.165997	-0.000012
C15	C	1.732661	-0.161058	-0.000023
C16	C	1.873598	-0.164438	-0.000032
C17	C	1.909858	-0.290519	-0.000036
C18	C	2.056447	-0.294075	0.000436
C19	C	2.083121	-0.106880	0.116614
C20	C	1.936364	-0.104197	0.116705
C21	C	1.936488	-0.102370	-0.116023
C22	C	2.082815	-0.108201	-0.117548
C23	C	1.492790	-0.374908	-0.000030
C24	C	1.496162	-0.500931	-0.000037
N25	N	1.500614	-0.167456	0.318809
C26	C	1.498899	0.396725	-0.000033
C27	C	1.502343	0.268331	-0.000022
N28	N	1.500656	-0.167469	-0.318848
C29	C	1.500634	-0.167469	0.569815
C30	C	1.500619	-0.167465	0.430137
H31	H	2.085624	-0.343820	-0.083158
H32	H	2.084737	-0.343583	0.084525
H33	H	2.111273	-0.154493	-0.203834
H34	H	2.113879	-0.150521	0.203738
H35	H	1.914598	-0.009607	-0.117149
H36	H	1.867738	-0.338936	-0.083664
H37	H	1.893796	-0.141629	-0.204451
H38	H	1.866241	-0.338124	0.083472
H39	H	2.130773	-0.015891	0.120626
H40	H	1.896052	-0.147153	0.204218
H41	H	1.913634	-0.011769	0.121678
H42	H	2.132139	-0.018003	-0.124937
