data_functionalizedCrystal
_audit_creation_method	'MofGen! by Chris Wilmer'
_symmetry_space_group_name_H-M	'P1'
_symmetry_Int_Tables_number	1
_symmetry_cell_setting	triclinic
loop_
_symmetry_equiv_pos_as_xyz
  x,y,z
_cell_length_a	10.268362
_cell_length_b	17.699083
_cell_length_c	17.699092
_cell_angle_alpha	96.715309
_cell_angle_beta	90.003598
_cell_angle_gamma	90.001444
loop_
_atom_site_label
_atom_site_type_symbol
_atom_site_fract_x
_atom_site_fract_y
_atom_site_fract_z
O1	O	0.108113	-1.004079	0.095711
O2	O	0.108155	-0.783701	0.108164
O3	O	0.108130	-0.900113	-0.008251
O4	O	0.108138	-0.887667	0.212126
O5	O	-0.108471	-0.900103	-0.008256
O6	O	-0.108446	-0.783691	0.108159
O7	O	-0.108488	-1.004069	0.095707
Cu8	Cu	-0.128244	-0.893879	0.101932
Cu9	Cu	0.127911	-0.893891	0.101938
O10	O	-0.108463	-0.887657	0.212122
C11	C	-0.000140	-0.755499	0.107715
C12	C	-0.000124	-0.671480	0.106377
N13	N	-0.308410	-0.893876	0.101928
C14	C	-0.000169	-0.899661	-0.036450
C15	C	-0.000162	-0.898319	-0.120468
C16	C	-0.574081	-0.893887	0.101937
C17	C	-0.426243	-0.893878	0.101934
N18	N	0.308077	-0.893899	0.101936
C19	C	-0.000190	-1.032271	0.096155
C20	C	-0.000198	-1.116289	0.097494
C21	C	-0.000122	-0.622862	0.174710
C22	C	-0.000139	-0.543918	0.173448
C23	C	-0.000148	-0.513595	0.103851
C24	C	-0.000154	-0.562220	0.035513
C25	C	-0.000147	-0.641162	0.036776
C26	C	-0.000187	-0.243857	0.030418
C27	C	-0.000191	-0.164909	0.029160
C28	C	-0.000179	-0.146613	0.167089
C29	C	-0.000171	-0.225555	0.168352
C30	C	-0.000184	-0.274173	0.100014
C31	C	-0.000168	-0.359772	0.101384
C32	C	-0.000155	-0.427998	0.102481
C33	C	0.117908	-0.897697	-0.159933
C34	C	0.117910	-0.896432	-0.238876
C35	C	-0.000160	-0.895795	-0.278353
C36	C	-0.118240	-0.896416	-0.238883
C37	C	-0.118240	-0.897675	-0.159940
C38	C	-0.118241	-0.891335	-0.557248
C39	C	-0.118231	-0.890078	-0.636196
C40	C	0.117910	-0.890092	-0.636183
C41	C	0.117909	-0.891351	-0.557241
C42	C	-0.000170	-0.891968	-0.517777
C43	C	-0.000170	-0.893338	-0.432178
C44	C	-0.000161	-0.894430	-0.363952
C45	C	-0.000162	-0.888109	0.240321
C46	C	-0.000159	-0.889450	0.324339
H47	H	-0.000113	-0.647544	0.231383
F48	F	0.243577	-0.898380	-0.117926
H49	H	0.214054	-0.891873	-0.525103
F50	F	0.243577	-0.895770	-0.280874
F51	F	-0.000173	-0.529947	-0.038557
H52	H	-0.000135	-0.504335	0.229091
H53	H	-0.214386	-0.898172	-0.127808
H54	H	-0.000157	-0.250239	0.225025
H55	H	0.214055	-0.889586	-0.668324
H56	H	-0.000148	-0.680748	-0.018868
H57	H	-0.214384	-0.889558	-0.668336
F58	F	-0.000201	-0.132640	-0.044918
F59	F	-0.000200	-0.295591	-0.042314
F60	F	-0.243911	-0.891982	-0.515256
F61	F	-0.243900	-0.895730	-0.280898
F62	F	-0.000170	-0.094864	0.239821
