data_functionalizedCrystal
_audit_creation_method	'MofGen! by Chris Wilmer'
_symmetry_space_group_name_H-M	'P1'
_symmetry_Int_Tables_number	1
_symmetry_cell_setting	triclinic
loop_
_symmetry_equiv_pos_as_xyz
  x,y,z
_cell_length_a	17.699083
_cell_length_b	9.130307
_cell_length_c	17.699083
_cell_angle_alpha	90.004177
_cell_angle_beta	96.716985
_cell_angle_gamma	90.004943
loop_
_atom_site_label
_atom_site_type_symbol
_atom_site_fract_x
_atom_site_fract_y
_atom_site_fract_z
O1	O	-1.004073	0.121582	0.095710
O2	O	-0.783694	0.121634	0.108162
O3	O	-0.900110	0.121594	-0.008253
O4	O	-0.887657	0.121623	0.212125
O5	O	-0.900106	-0.122005	-0.008254
O6	O	-0.783691	-0.121965	0.108161
O7	O	-1.004069	-0.122017	0.095709
Cu8	Cu	-0.893879	-0.144233	0.101935
Cu9	Cu	-0.893884	0.143851	0.101936
O10	O	-0.887653	-0.121976	0.212124
C11	C	-0.755495	-0.000159	0.107716
C12	C	-0.671477	-0.000140	0.106377
C13	C	-0.622856	-0.000131	0.174710
C14	C	-0.543913	-0.000149	0.173448
C15	C	-0.513592	-0.000165	0.103852
C16	C	-0.562219	-0.000179	0.035513
C17	C	-0.641161	-0.000171	0.036776
C18	C	-0.243856	-0.000211	0.030418
C19	C	-0.164908	-0.000214	0.029160
C20	C	-0.146608	-0.000188	0.167090
C21	C	-0.225550	-0.000181	0.168353
C22	C	-0.274170	-0.000202	0.100015
C23	C	-0.359769	-0.000185	0.101384
C24	C	-0.427995	-0.000172	0.102481
N25	N	-0.893882	-0.346856	0.101934
C26	C	-0.997009	-0.346882	-0.001123
C27	C	-1.048578	-0.423561	-0.052649
C28	C	-1.048586	-0.576895	-0.052649
C29	C	-0.997017	-0.653552	-0.001120
C30	C	-0.945449	-0.576873	0.050406
C31	C	-0.945448	-0.423536	0.050403
C32	C	-0.842319	-0.576847	0.153458
C33	C	-0.842313	-0.423514	0.153463
C34	C	-0.790750	-0.653504	0.204987
C35	C	-0.739184	-0.576825	0.256518
C36	C	-0.739179	-0.423482	0.256517
C37	C	-0.790745	-0.346834	0.204989
C38	C	-0.032268	-0.000217	0.096156
C39	C	-0.116286	-0.000215	0.097494
C40	C	-0.899662	-0.000206	-0.036451
C41	C	-0.898323	-0.000206	-0.120469
N42	N	-0.893887	0.346473	0.101932
C43	C	-0.966656	-0.000224	-0.169090
C44	C	-0.965394	-0.000211	-0.248033
C45	C	-0.895798	-0.000190	-0.278354
C46	C	-0.827459	-0.000168	-0.229727
C47	C	-0.828722	-0.000170	-0.150785
C48	C	-0.822364	-0.000155	-0.548090
C49	C	-0.821106	-0.000156	-0.627038
C50	C	-0.959036	-0.000195	-0.645338
C51	C	-0.960299	-0.000198	-0.566396
C52	C	-0.891961	-0.000168	-0.517776
C53	C	-0.893330	-0.000179	-0.432177
C54	C	-0.894427	-0.000189	-0.363951
C55	C	-0.888102	-0.000174	0.240322
C56	C	-0.889440	-0.000164	0.324340
H57	H	-0.537526	-0.000213	-0.021154
H58	H	-0.790748	-0.221982	0.204986
Cl59	Cl	-0.674341	-0.327099	0.321293
H60	H	-0.504328	-0.000140	0.229092
Cl61	Cl	-0.263663	-0.000152	0.255849
H62	H	-0.680748	-0.000178	-0.018868
Cl63	Cl	-0.085481	-0.000169	0.253002
H64	H	-0.997015	-0.222030	-0.001121
Cl65	Cl	-1.113412	-0.673294	-0.117430
H66	H	-1.023330	-0.000250	-0.144409
Cl67	Cl	-0.739966	-0.000123	-0.267844
Cl68	Cl	-0.742813	-0.000142	-0.089661
H69	H	-0.140225	-0.000230	-0.027517
H70	H	-0.647537	-0.000116	0.231384
Cl71	Cl	-1.113402	-0.327190	-0.117429
H72	H	-0.283434	-0.000230	-0.025228
H73	H	-0.997021	-0.778404	-0.001130
Cl74	Cl	-0.790755	-0.846268	0.204985
Cl75	Cl	-0.674358	-0.673198	0.321287
H76	H	-1.021038	-0.000229	-0.287618
H77	H	-1.016971	-0.000222	-0.541714
Cl78	Cl	-0.733606	-0.000127	-0.665153
H79	H	-1.014680	-0.000212	-0.684934
H80	H	-0.766718	-0.000130	-0.508512
