data_functionalizedCrystal
_audit_creation_method	'MofGen! by Chris Wilmer'
_symmetry_space_group_name_H-M	'P1'
_symmetry_Int_Tables_number	1
_symmetry_cell_setting	triclinic
loop_
_symmetry_equiv_pos_as_xyz
  x,y,z
_cell_length_a	8.559649
_cell_length_b	15.944551
_cell_length_c	7.681481
_cell_angle_alpha	84.256492
_cell_angle_beta	94.913240
_cell_angle_gamma	76.638701
loop_
_atom_site_label
_atom_site_type_symbol
_atom_site_fract_x
_atom_site_fract_y
_atom_site_fract_z
O1	O	2.105021	-0.019570	-0.146399
O2	O	1.639821	0.023810	-0.146411
O3	O	1.885126	-0.120976	-0.146389
O4	O	1.859716	0.125215	-0.146421
O5	O	1.915319	-0.138833	0.146471
O6	O	1.670014	0.005953	0.146450
O7	O	2.135214	-0.037427	0.146461
Zn8	Zn	1.907408	-0.018572	0.192953
Zn9	Zn	1.867627	0.004955	-0.192903
O10	O	1.889909	0.107359	0.146439
C11	C	1.595387	0.018169	0.000018
C12	C	1.418008	0.027954	0.000014
C13	C	1.899168	-0.161130	0.000042
C14	C	1.896006	-0.254172	0.000042
C15	C	1.736394	-0.458726	0.000014
C16	C	1.825398	-0.533331	0.144414
C17	C	1.890284	-0.424528	0.000029
C18	C	1.795667	-0.515712	-0.144323
C19	C	1.884744	-0.589082	0.000008
C20	C	1.979342	-0.497915	0.144548
C21	C	1.949576	-0.480280	-0.144319
C22	C	2.038696	-0.554877	0.000116
C23	C	1.893471	-0.329732	0.000042
C24	C	1.881571	-0.683878	0.000007
C25	C	2.179647	-0.031786	0.000028
C26	C	2.357025	-0.041570	0.000021
C27	C	1.875866	0.147513	0.000005
C28	C	1.879027	0.240556	-0.000008
N29	N	1.934569	-0.034630	0.456290
N30	N	1.840479	0.021005	-0.456240
H31	H	1.440515	-0.108579	0.000021
C32	C	2.062549	-0.110469	0.556343
C33	C	2.031851	-0.188595	0.511608
C34	C	2.149719	-0.258475	0.603725
H35	H	2.059717	-0.108845	0.679330
H36	H	2.166167	-0.106506	0.526158
H37	H	1.928260	-0.192557	0.541805
H38	H	2.034697	-0.190248	0.388637
H39	H	2.253337	-0.254512	0.573539
H40	H	2.146878	-0.256842	0.726707
H41	H	2.128916	-0.311491	0.573373
C42	C	1.712361	0.096803	0.443811
C43	C	1.629646	0.145743	0.563817
C44	C	1.511626	0.215582	0.471797
H45	H	1.638246	0.075374	0.371898
H46	H	1.762539	0.132423	0.371916
H47	H	1.579469	0.110130	0.635682
H48	H	1.703717	0.167193	0.635734
H49	H	1.561804	0.251201	0.399901
H50	H	1.437523	0.194145	0.399887
H51	H	1.455500	0.248800	0.553206
H52	H	1.334507	0.094969	-0.000004
H53	H	2.056976	-0.489573	0.266760
H54	H	1.772895	-0.556682	0.266489
C55	C	1.566104	-0.403391	0.000554
C56	C	1.501893	-0.430333	0.152098
C57	C	1.345040	-0.379370	0.152676
H58	H	1.500235	-0.409771	-0.100866
H59	H	1.569137	-0.344160	-0.000400
H60	H	1.498850	-0.489549	0.153036
H61	H	1.567715	-0.423950	0.253543
H62	H	1.348073	-0.320140	0.151722
H63	H	1.279187	-0.385754	0.051250
H64	H	1.301459	-0.397638	0.255504
C65	C	2.209238	-0.610087	0.000584
C66	C	2.304658	-0.601486	0.152039
C67	C	2.461761	-0.652344	0.152551
H68	H	2.254041	-0.591274	-0.100898
H69	H	2.206277	-0.669242	-0.000293
H70	H	2.307626	-0.542344	0.152900
H71	H	2.259906	-0.620305	0.253546
H72	H	2.458800	-0.711499	0.151674
H73	H	2.506548	-0.633526	0.051063
H74	H	2.526519	-0.646522	0.255319
C75	C	2.019215	-0.449097	-0.307308
C76	C	1.922551	-0.457358	-0.458098
C77	C	1.986624	-0.428625	-0.608289
H78	H	2.125872	-0.483187	-0.308590
H79	H	2.021563	-0.389900	-0.305632
H80	H	1.920220	-0.516545	-0.459774
H81	H	1.815892	-0.423267	-0.456875
H82	H	1.988972	-0.369428	-0.606614
H83	H	2.093280	-0.462718	-0.609553
H84	H	1.921039	-0.434219	-0.710618
C85	C	1.691826	-0.526822	-0.307042
C86	C	1.533736	-0.477464	-0.306364
C87	C	1.438029	-0.487663	-0.456235
H88	H	1.691165	-0.586335	-0.306593
H89	H	1.734793	-0.507692	-0.409624
H90	H	1.490779	-0.496598	-0.203809
H91	H	1.534346	-0.417947	-0.306840
H92	H	1.480996	-0.468533	-0.558818
H93	H	1.437381	-0.547177	-0.455773
H94	H	1.330758	-0.454169	-0.455804
