data_functionalizedCrystal
_audit_creation_method	'MofGen! by Chris Wilmer'
_symmetry_space_group_name_H-M	'P1'
_symmetry_Int_Tables_number	1
_symmetry_cell_setting	triclinic
loop_
_symmetry_equiv_pos_as_xyz
  x,y,z
_cell_length_a	16.625548
_cell_length_b	12.594516
_cell_length_c	16.625539
_cell_angle_alpha	89.976673
_cell_angle_beta	89.979432
_cell_angle_gamma	90.017121
loop_
_atom_site_label
_atom_site_type_symbol
_atom_site_fract_x
_atom_site_fract_y
_atom_site_fract_z
Zn1	Zn	1.232716	-0.423710	-0.455937
Zn2	Zn	1.232635	-0.601711	-0.321116
Zn3	Zn	1.097878	-0.423750	-0.321118
Zn4	Zn	1.097864	-0.601650	-0.455906
O5	O	1.165273	-0.512705	-0.388519
O6	O	1.345538	-0.447331	-0.438065
O7	O	1.214731	-0.578147	-0.208284
O8	O	1.115805	-0.274799	-0.339016
O9	O	1.345478	-0.578108	-0.339013
O10	O	1.214870	-0.274769	-0.438067
O11	O	1.115726	-0.447400	-0.208285
O12	O	0.985044	-0.447341	-0.338985
O13	O	1.115780	-0.578003	-0.568743
O14	O	0.985033	-0.578043	-0.438014
O15	O	1.214856	-0.447271	-0.568766
O16	O	1.214717	-0.750649	-0.338983
O17	O	1.115701	-0.750604	-0.438012
C18	C	0.955782	-0.512690	-0.388497
C19	C	0.866161	-0.512709	-0.388506
C20	C	0.537986	-0.512716	-0.388541
C21	C	0.629294	-0.512711	-0.388529
C22	C	0.702071	-0.512713	-0.388523
C23	C	0.793385	-0.512707	-0.388512
C24	C	1.165220	-0.789246	-0.388511
C25	C	1.165272	-0.907552	-0.388535
C26	C	1.111412	-0.976819	-0.442359
C27	C	1.091767	-1.047680	-0.368785
C28	C	1.184990	-1.047490	-0.462122
C29	C	1.145588	-0.976855	-0.314921
C30	C	1.238845	-0.976658	-0.408308
C31	C	1.219228	-1.047487	-0.334683
C32	C	1.375582	-0.512721	-0.388542
C33	C	1.465203	-0.512728	-0.388552
C34	C	1.165326	-0.512626	-0.598828
C35	C	1.165348	-0.512592	-0.688449
C36	C	1.165348	-0.235085	-0.388545
C37	C	1.165380	-0.116779	-0.388556
C38	C	1.165385	-0.512473	-1.016625
C39	C	1.165373	-0.512510	-0.925317
C40	C	1.165367	-0.512534	-0.852540
C41	C	1.165354	-0.512568	-0.761226
C42	C	1.165267	-0.512708	-0.179028
C43	C	1.165401	-0.512442	-0.089408
H44	H	1.029597	-1.078900	-0.352077
C45	C	1.123139	-0.823978	-0.231660
C46	C	1.123028	-0.935152	-0.230899
H47	H	1.109204	-0.798233	-0.179790
H48	H	1.175197	-0.799076	-0.245778
H49	H	1.085080	-0.799228	-0.269919
H50	H	1.161092	-0.959901	-0.192643
H51	H	1.070962	-0.960064	-0.216771
C52	C	1.259994	-1.053276	-0.196221
C53	C	1.280777	-1.089126	-0.273182
H54	H	1.297987	-1.078991	-0.158253
H55	H	1.259978	-0.977866	-0.195577
H56	H	1.207924	-1.078676	-0.182636
H57	H	1.332844	-1.063719	-0.286770
H58	H	1.280801	-1.164552	-0.273828
C59	C	1.343224	-0.970092	-0.508023
C60	C	1.322750	-0.934502	-0.430910
H61	H	1.395021	-0.944058	-0.521983
H62	H	1.343756	-1.045498	-0.508676
H63	H	1.304785	-0.944838	-0.545709
H64	H	1.361186	-0.959763	-0.393222
H65	H	1.322224	-0.859080	-0.430251
H66	H	1.201624	-1.078517	-0.524346
H67	H	1.065783	-0.945789	-0.487811
