data_functionalizedCrystal
_audit_creation_method	'MofGen! by Chris Wilmer'
_symmetry_space_group_name_H-M	'P1'
_symmetry_Int_Tables_number	1
_symmetry_cell_setting	triclinic
loop_
_symmetry_equiv_pos_as_xyz
  x,y,z
_cell_length_a	19.288840
_cell_length_b	11.792254
_cell_length_c	18.366186
_cell_angle_alpha	90.004646
_cell_angle_beta	90.012747
_cell_angle_gamma	83.662307
loop_
_atom_site_label
_atom_site_type_symbol
_atom_site_fract_x
_atom_site_fract_y
_atom_site_fract_z
O1	O	0.922168	0.141444	0.060672
O2	O	0.720014	0.160572	0.060647
O3	O	0.825992	-0.014237	0.060655
O4	O	0.816190	0.316253	0.060664
O5	O	0.825981	-0.014241	-0.060445
O6	O	0.720003	0.160568	-0.060453
O7	O	0.922157	0.141440	-0.060428
Zn8	Zn	0.821078	0.151003	-0.079667
Zn9	Zn	0.821093	0.151009	0.079886
O10	O	0.816178	0.316249	-0.060436
C11	C	0.694128	0.159960	0.000094
C12	C	0.617013	0.158126	0.000084
C13	C	0.580811	0.157248	0.066097
C14	C	0.508354	0.155512	0.066106
C15	C	0.472104	0.154633	0.000098
C16	C	0.508315	0.155518	-0.065924
C17	C	0.580769	0.157265	-0.065931
C18	C	0.362376	0.085387	-0.050465
C19	C	0.289924	0.083633	-0.050456
C20	C	0.248630	0.149250	0.000117
C21	C	0.279798	0.216606	0.050691
C22	C	0.352253	0.218353	0.050684
C23	C	0.393539	0.152739	0.000098
C24	C	0.133861	0.146492	0.066144
C25	C	0.061402	0.144763	0.066150
C26	C	0.061365	0.144757	-0.065882
C27	C	0.133822	0.146497	-0.065886
C28	C	0.170066	0.147359	0.000129
C29	C	0.825369	-0.056520	0.000105
C30	C	0.823521	-0.182505	0.000105
C31	C	0.822019	-0.284818	0.000108
C32	C	0.820141	-0.413176	0.000114
C33	C	0.948042	0.142052	0.000127
C34	C	1.025157	0.143886	0.000141
C35	C	0.816802	0.358532	0.000115
C36	C	0.818650	0.484517	0.000120
N37	N	0.821073	0.150999	-0.188559
C38	C	0.868032	0.073620	-0.773105
C39	C	0.868032	0.073622	-0.696878
C40	C	0.821093	0.150998	-0.658770
C41	C	0.774161	0.228397	-0.696896
C42	C	0.774166	0.228400	-0.773123
C43	C	0.757886	0.166154	-0.538023
C44	C	0.757880	0.166143	-0.461798
C45	C	0.821077	0.150996	-0.423662
C46	C	0.884283	0.135835	-0.461761
C47	C	0.884288	0.135838	-0.537987
C48	C	0.821082	0.151004	-0.576115
C49	C	0.868010	0.073610	-0.302890
C50	C	0.868012	0.073621	-0.226661
C51	C	0.774134	0.228390	-0.226681
C52	C	0.774139	0.228385	-0.302909
C53	C	0.821076	0.150989	-0.341009
N54	N	0.821103	0.151004	0.188777
H55	H	0.031927	0.144055	0.119908
H56	H	0.163372	0.147205	0.119897
H57	H	0.264552	0.028782	-0.091633
H58	H	0.735923	0.291394	-0.333946
C59	C	0.365109	-0.046260	-0.150432
C60	C	0.407764	0.013243	-0.106054
H61	H	0.393131	-0.090802	-0.184745
H62	H	0.332765	0.006506	-0.175475
H63	H	0.340513	-0.094853	-0.121174
H64	H	0.432357	0.061843	-0.135312
H65	H	0.440121	-0.039530	-0.081010
H66	H	0.377627	0.273199	0.091863
H67	H	0.706420	0.178495	-0.569067
C68	C	0.632938	0.196127	-0.469492
C69	C	0.688406	0.182809	-0.419924
H70	H	0.590047	0.206422	-0.443640
H71	H	0.634092	0.130041	-0.499227
H72	H	0.637051	0.260964	-0.499217
H73	H	0.684296	0.117966	-0.390202
H74	H	0.687251	0.248902	-0.390177
H75	H	0.906231	0.010593	-0.333912
H76	H	0.935752	0.123497	-0.569004
H77	H	0.735943	0.291400	-0.665865
H78	H	0.735951	0.291417	-0.804158
C79	C	0.908089	-0.123040	-0.796566
C80	C	0.919636	-0.011440	-0.814979
H81	H	0.939953	-0.175547	-0.822414
H82	H	0.861698	-0.135163	-0.809084
H83	H	0.914798	-0.134098	-0.745710
H84	H	0.912922	-0.000379	-0.865835
H85	H	0.966038	0.000687	-0.802466
H86	H	0.610245	0.157981	-0.119689
C87	C	0.573564	0.157072	0.196604
C88	C	0.620648	0.158206	0.138660
H89	H	0.598160	0.157671	0.241400
H90	H	0.550360	0.090224	0.193857
H91	H	0.540248	0.222564	0.193857
H92	H	0.653962	0.092709	0.141403
H93	H	0.643864	0.225061	0.141408
H94	H	0.906230	0.010608	-0.195625
C95	C	0.434341	0.055992	0.142695
C96	C	0.468550	0.154540	0.138672
H97	H	0.409767	0.055397	0.187494
H98	H	0.467660	-0.009481	0.139947
H99	H	0.402387	0.055239	0.103379
H100	H	0.500508	0.155289	0.177986
H101	H	0.435227	0.220031	0.141428
C102	C	0.046487	0.046671	-0.178418
C103	C	0.021533	0.143791	-0.138443
H104	H	0.021896	0.046083	-0.223218
H105	H	0.039666	-0.019771	-0.151296
H106	H	0.094821	0.047846	-0.187860
H107	H	-0.026801	0.142611	-0.128997
H108	H	0.028348	0.210250	-0.165571
H109	H	0.246178	0.270043	0.091870
H110	H	0.163299	0.147205	-0.119641
C111	C	0.759645	0.382914	-0.140961
C112	C	0.722540	0.313451	-0.184803
H113	H	0.727792	0.435427	-0.115102
H114	H	0.788707	0.423606	-0.170689
H115	H	0.787592	0.336816	-0.107348
H116	H	0.694596	0.359549	-0.218419
H117	H	0.693466	0.272757	-0.155072
H118	H	0.906248	0.010605	-0.665837
C119	C	0.493429	0.057431	-0.178460
C120	C	0.468474	0.154548	-0.138483
H121	H	0.468836	0.056842	-0.223258
H122	H	0.486613	-0.009013	-0.151338
H123	H	0.541763	0.058612	-0.187906
H124	H	0.420142	0.153362	-0.129033
H125	H	0.475284	0.221009	-0.165611
C126	C	0.959780	0.214856	-0.376064
C127	C	0.953769	0.119245	-0.419872
H128	H	1.002682	0.204628	-0.350212
H129	H	0.922156	0.223851	-0.342454
H130	H	0.958590	0.280929	-0.405821
H131	H	0.954954	0.053172	-0.390115
H132	H	0.991403	0.110237	-0.453487
