data_functionalizedCrystal
_audit_creation_method	'MofGen! by Chris Wilmer'
_symmetry_space_group_name_H-M	'P1'
_symmetry_Int_Tables_number	1
_symmetry_cell_setting	triclinic
loop_
_symmetry_equiv_pos_as_xyz
  x,y,z
_cell_length_a	19.077105
_cell_length_b	21.295417
_cell_length_c	21.295412
_cell_angle_alpha	90.030668
_cell_angle_beta	92.320544
_cell_angle_gamma	87.726672
loop_
_atom_site_label
_atom_site_type_symbol
_atom_site_fract_x
_atom_site_fract_y
_atom_site_fract_z
Zn1	Zn	1.075981	-0.289351	0.394524
Zn2	Zn	1.075874	-0.394616	0.289246
Zn3	Zn	0.958275	-0.285132	0.285045
Zn4	Zn	0.958239	-0.390349	0.390256
O5	O	1.017092	-0.339862	0.339768
O6	O	1.174458	-0.306866	0.384103
O7	O	1.060245	-0.380112	0.200598
O8	O	0.973949	-0.197604	0.299596
O9	O	1.174379	-0.384204	0.306755
O10	O	1.060427	-0.200704	0.380030
O11	O	0.973846	-0.299675	0.197512
O12	O	0.859780	-0.295537	0.295457
O13	O	0.973887	-0.376931	0.478913
O14	O	0.859753	-0.372840	0.372755
O15	O	1.060392	-0.302729	0.482048
O16	O	1.060209	-0.482137	0.302616
O17	O	0.973784	-0.479002	0.376828
C18	C	0.834229	-0.333268	0.333188
C19	C	0.755999	-0.330463	0.330388
C20	C	1.017000	-0.503410	0.339729
C21	C	1.017025	-0.573379	0.339736
C22	C	0.719251	-0.369453	0.369254
C23	C	0.645746	-0.366808	0.366626
C24	C	0.608990	-0.325176	0.325128
C25	C	0.645743	-0.286182	0.286261
C26	C	0.719247	-0.288824	0.288892
C27	C	0.389157	-0.312950	0.312952
C28	C	0.315648	-0.310313	0.310323
C29	C	0.315655	-0.390938	0.390689
C30	C	0.389161	-0.393579	0.393314
C31	C	0.425907	-0.354582	0.354449
N32	N	0.533856	-0.322474	0.322440
N33	N	0.501040	-0.357282	0.357141
C34	C	1.062067	-0.607859	0.301137
C35	C	1.062100	-0.673602	0.301152
C36	C	1.017078	-0.704864	0.339760
C37	C	0.972033	-0.670376	0.378367
C38	C	0.972007	-0.604634	0.378355
N39	N	0.955509	-0.805913	0.342344
N40	N	0.955537	-0.868366	0.342351
C41	C	1.017157	-0.902941	0.339799
N42	N	1.078751	-0.872705	0.337227
N43	N	1.078723	-0.810246	0.337216
C44	C	1.017103	-0.776150	0.339778
C45	C	1.062239	-1.008708	0.301214
C46	C	1.062273	-1.074453	0.301234
C47	C	0.972200	-1.071225	0.378445
C48	C	0.972172	-1.005481	0.378429
C49	C	1.017191	-0.974227	0.339810
C50	C	1.200670	-0.346482	0.346374
C51	C	1.278900	-0.349303	0.349189
C52	C	1.017147	-0.339825	0.503960
C53	C	1.017171	-0.339809	0.573929
C54	C	1.017204	-0.175676	0.339820
C55	C	1.017252	-0.105709	0.339843
C56	C	1.017078	-0.339855	0.176216
C57	C	1.017191	-0.339698	0.106252
C58	C	0.972195	-0.297921	0.605179
C59	C	0.972192	-0.297909	0.670922
C60	C	1.017178	-0.339779	0.705412
C61	C	1.062158	-0.381675	0.674154
C62	C	1.062154	-0.381690	0.608412
N63	N	1.078790	-0.346804	0.810861
N64	N	1.078791	-0.346786	0.873313
C65	C	1.017191	-0.339738	0.903487
N66	N	0.955589	-0.332695	0.868851
N67	N	0.955588	-0.332710	0.806394
C68	C	1.017187	-0.339768	0.776697
C69	C	0.972209	-0.297835	1.006023
C70	C	0.972205	-0.297827	1.071766
C71	C	1.062177	-0.381590	1.074997
C72	C	1.062174	-0.381600	1.009255
C73	C	1.017191	-0.339720	0.974771
H74	H	0.749172	-0.403356	0.403044
Cl75	Cl	1.118908	-1.117799	0.252709
Cl76	Cl	0.435343	-0.263924	0.264094
Cl77	Cl	0.599551	-0.415826	0.415489
H78	H	1.098786	-0.415766	0.702240
Cl79	Cl	0.765445	-0.239805	0.240031
Cl80	Cl	1.118701	-0.434352	0.569124
H81	H	0.419082	-0.427481	0.427105
Cl82	Cl	0.599536	-0.233841	0.234096
H83	H	0.935546	-1.096677	0.409883
H84	H	0.935581	-0.263733	0.977945
Cl85	Cl	1.118672	-0.568571	0.252597
Cl86	Cl	0.915638	-0.245180	1.111052
H87	H	0.285728	-0.422686	0.422332
H88	H	0.935492	-0.977406	0.409858
H89	H	1.098800	-0.415709	0.983811
H90	H	1.098807	-0.415680	1.103079
H91	H	0.285723	-0.276404	0.276534
H92	H	1.098781	-0.701681	0.269720
H93	H	0.935378	-0.695833	0.409803
H94	H	0.935327	-0.576560	0.409788
Cl95	Cl	0.915641	-0.245274	0.561832
Cl96	Cl	1.118832	-0.969413	0.252666
H97	H	0.935569	-0.263796	0.696371
