data_functionalizedCrystal
_audit_creation_method	'MofGen! by Chris Wilmer'
_symmetry_space_group_name_H-M	'P1'
_symmetry_Int_Tables_number	1
_symmetry_cell_setting	triclinic
loop_
_symmetry_equiv_pos_as_xyz
  x,y,z
_cell_length_a	17.638686
_cell_length_b	16.625546
_cell_length_c	16.625525
_cell_angle_alpha	89.905447
_cell_angle_beta	78.733729
_cell_angle_gamma	78.788994
loop_
_atom_site_label
_atom_site_type_symbol
_atom_site_fract_x
_atom_site_fract_y
_atom_site_fract_z
Zn1	Zn	1.208930	-0.569929	-0.704752
Zn2	Zn	1.208741	-0.704884	-0.569875
Zn3	Zn	1.076631	-0.542811	-0.542699
Zn4	Zn	1.076695	-0.677439	-0.677484
O5	O	1.142749	-0.623766	-0.623703
O6	O	1.319534	-0.610666	-0.709645
O7	O	1.191111	-0.683522	-0.453416
O8	O	1.094232	-0.433587	-0.564234
O9	O	1.319396	-0.709817	-0.610552
O10	O	1.191432	-0.453510	-0.683294
O11	O	1.094049	-0.564447	-0.433449
O12	O	0.966010	-0.537835	-0.537794
O13	O	1.094342	-0.663041	-0.793956
O14	O	0.966057	-0.636746	-0.636820
O15	O	1.191495	-0.584054	-0.813990
O16	O	1.191173	-0.814066	-0.584112
O17	O	1.094160	-0.793902	-0.663171
C18	C	0.937349	-0.581370	-0.581399
C19	C	0.849477	-0.563252	-0.563321
C20	C	1.142674	-0.833241	-0.623654
C21	C	1.142715	-0.922871	-0.623674
C22	C	0.560713	-0.761580	-0.761246
C23	C	0.478144	-0.744549	-0.744238
C24	C	0.478061	-0.641393	-0.641282
C25	C	0.560631	-0.658418	-0.658278
C26	C	0.601951	-0.718512	-0.718262
C27	C	0.601870	-0.615350	-0.615294
C28	C	0.684432	-0.632372	-0.632292
C29	C	0.725757	-0.692461	-0.692274
C30	C	0.684514	-0.735534	-0.735260
C31	C	0.560549	-0.555252	-0.555315
C32	C	0.601787	-0.512184	-0.512331
C33	C	0.684351	-0.529209	-0.529324
C34	C	0.725676	-0.589299	-0.589307
C35	C	0.725595	-0.486137	-0.486339
C36	C	0.808158	-0.503158	-0.503337
C37	C	0.808239	-0.606320	-0.606305
C38	C	1.142853	-1.251075	-0.623787
C39	C	1.142812	-1.159758	-0.623757
C40	C	1.142783	-1.086976	-0.623730
C41	C	1.142743	-0.995653	-0.623702
C42	C	1.348952	-0.666328	-0.666172
C43	C	1.436823	-0.684465	-0.684270
C44	C	1.142947	-0.623511	-0.834053
C45	C	1.143031	-0.623403	-0.923692
C46	C	1.142846	-0.413477	-0.623774
C47	C	1.142887	-0.323864	-0.623805
C48	C	1.142598	-0.623971	-0.414180
C49	C	1.142667	-0.623884	-0.324574
C50	C	1.142736	-0.623804	-0.251806
C51	C	1.142821	-0.623695	-0.160515
C52	C	1.142884	-0.623603	-0.087752
C53	C	1.142967	-0.623495	0.003545
H54	H	0.841884	-0.655259	-0.655145
O55	O	0.600824	-0.819865	-0.819620
C56	C	0.580723	-0.798130	-0.895876
H57	H	0.558039	-0.729042	-0.895397
H58	H	0.532816	-0.831491	-0.907014
C59	C	0.681985	-0.907502	-0.965367
C60	C	0.654129	-0.822646	-0.964780
H61	H	0.727263	-0.922627	-1.007871
H62	H	0.695525	-0.922148	-0.913991
H63	H	0.642056	-0.935293	-0.974645
H64	H	0.694055	-0.794856	-0.955491
H65	H	0.640597	-0.807996	-1.016156
H66	H	0.568134	-0.463254	-0.463494
H67	H	0.792985	-0.706314	-0.706117
H68	H	0.841735	-0.468082	-0.468341
O69	O	0.724625	-0.793818	-0.793634
C70	C	0.704524	-0.772083	-0.869890
H71	H	0.681840	-0.702995	-0.869411
H72	H	0.656617	-0.805445	-0.881028
C73	C	0.805786	-0.881455	-0.939381
C74	C	0.777930	-0.796599	-0.938794
H75	H	0.851064	-0.896581	-0.981885
H76	H	0.819326	-0.896101	-0.888005
H77	H	0.765856	-0.909246	-0.948659
H78	H	0.817855	-0.768810	-0.929505
H79	H	0.764398	-0.781949	-0.990170
O80	O	0.685416	-0.427868	-0.427986
C81	C	0.637572	-0.463896	-0.365993
H82	H	0.662430	-0.532526	-0.366009
H83	H	0.575027	-0.453781	-0.378049
C84	C	0.605688	-0.339917	-0.281946
C85	C	0.636223	-0.424208	-0.281962
H86	H	0.604852	-0.315433	-0.230112
H87	H	0.637919	-0.315642	-0.323713
H88	H	0.553569	-0.331498	-0.291997
H89	H	0.688343	-0.432625	-0.271922
H90	H	0.604000	-0.448483	-0.240191
O91	O	0.438045	-0.786263	-0.786072
C92	C	0.390336	-0.730521	-0.828390
H93	H	0.415242	-0.672154	-0.838608
H94	H	0.327740	-0.714832	-0.790573
C95	C	0.358545	-0.841359	-0.899346
C96	C	0.389139	-0.769673	-0.911902
H97	H	0.357803	-0.865510	-0.950858
H98	H	0.390685	-0.878914	-0.870833
H99	H	0.306385	-0.828274	-0.867829
H100	H	0.441301	-0.782760	-0.943409
H101	H	0.357008	-0.732121	-0.940422
H102	H	0.444408	-0.592462	-0.592445
H103	H	0.493321	-0.541391	-0.541481
