data_functionalizedCrystal
_audit_creation_method	'MofGen! by Chris Wilmer'
_symmetry_space_group_name_H-M	'P1'
_symmetry_Int_Tables_number	1
_symmetry_cell_setting	triclinic
loop_
_symmetry_equiv_pos_as_xyz
  x,y,z
_cell_length_a	14.044220
_cell_length_b	14.519731
_cell_length_c	12.996460
_cell_angle_alpha	90.001112
_cell_angle_beta	90.007391
_cell_angle_gamma	88.438865
loop_
_atom_site_label
_atom_site_type_symbol
_atom_site_fract_x
_atom_site_fract_y
_atom_site_fract_z
O1	O	0.124370	1.233882	0.085572
O2	O	0.457704	1.567215	0.418905
O3	O	0.791037	1.900549	0.752239
O4	O	0.138984	0.966587	0.085574
O5	O	0.472317	1.299920	0.418907
O6	O	0.805651	1.633253	0.752241
O7	O	-0.006314	1.096222	0.085563
O8	O	0.327019	1.429556	0.418896
O9	O	0.660352	1.762889	0.752230
O10	O	0.269669	1.104246	0.085583
O11	O	0.603002	1.437580	0.418917
O12	O	0.936336	1.770913	0.752250
O13	O	-0.006324	1.096219	-0.085571
O14	O	0.327009	1.429552	0.247762
O15	O	0.660343	1.762886	0.581096
O16	O	0.138975	0.966583	-0.085560
O17	O	0.472308	1.299917	0.247774
O18	O	0.805641	1.633250	0.581107
O19	O	0.124361	1.233879	-0.085562
O20	O	0.457694	1.567212	0.247772
O21	O	0.791028	1.900546	0.581105
Cu22	Cu	0.131667	1.100231	-0.101187
Cu23	Cu	0.465000	1.433564	0.232147
Cu24	Cu	0.798334	1.766898	0.565480
Cu25	Cu	0.131678	1.100235	0.101199
Cu26	Cu	0.465011	1.433568	0.434532
Cu27	Cu	0.798345	1.766901	0.767866
O28	O	0.269659	1.104243	-0.085551
O29	O	0.602993	1.437577	0.247783
O30	O	0.936326	1.770910	0.581116
C31	C	0.138295	0.932170	0.000007
C32	C	0.471628	1.265504	0.333341
C33	C	0.804961	1.598837	0.666674
C34	C	0.136243	0.829625	0.000008
C35	C	0.469576	1.162958	0.333341
C36	C	0.802909	1.496291	0.666674
C37	C	0.134575	0.746346	0.000012
C38	C	0.467909	1.079679	0.333345
C39	C	0.801242	1.413013	0.666678
C40	C	0.132492	0.641869	0.000012
C41	C	0.465825	0.975203	0.333345
C42	C	0.799159	1.308536	0.666679
C43	C	0.130839	0.558597	0.000012
C44	C	0.464172	0.891930	0.333345
C45	C	0.797505	1.225263	0.666678
C46	C	0.128756	0.454113	0.000014
C47	C	0.462089	0.787447	0.333347
C48	C	0.795422	1.120780	0.666681
C49	C	-0.041640	1.092708	-0.000004
C50	C	0.291693	1.426042	0.333329
C51	C	0.625027	1.759375	0.666662
C52	C	-0.146884	1.082231	-0.000006
C53	C	0.186449	1.415564	0.333328
C54	C	0.519782	1.748898	0.666661
C55	C	-0.339580	1.063077	0.000009
C56	C	-0.006246	1.396410	0.333343
C57	C	0.327087	1.729743	0.666676
C58	C	-0.397081	1.137385	0.000012
C59	C	-0.063748	1.470718	0.333345
C60	C	0.269586	1.804051	0.666679
C61	C	-0.504303	1.126727	0.000020
C62	C	-0.170970	1.460060	0.333354
C63	C	0.162363	1.793394	0.666687
C64	C	-0.232347	1.073733	0.000001
C65	C	0.100986	1.407066	0.333334
C66	C	0.434319	1.740400	0.666668
C67	C	0.304985	1.107757	0.000019
C68	C	0.638318	1.441091	0.333352
C69	C	0.971652	1.774424	0.666686
C70	C	0.410229	1.118234	0.000027
C71	C	0.743563	1.451568	0.333360
C72	C	1.076896	1.784901	0.666694
C73	C	0.125050	1.268295	0.000007
C74	C	0.458384	1.601629	0.333341
C75	C	0.791717	1.934962	0.666674
C76	C	0.127102	1.370841	0.000014
C77	C	0.460436	1.704174	0.333347
C78	C	0.793769	2.037508	0.666680
N79	N	0.131679	1.100237	0.243546
N80	N	0.465013	1.433571	0.576879
N81	N	0.798346	1.766904	0.910213
N82	N	0.131658	1.100235	-0.243534
N83	N	0.464992	1.433568	0.089800
N84	N	0.798325	1.766902	0.423133
C85	C	0.131670	1.100232	0.663360
C86	C	0.465003	1.433565	0.996694
C87	C	0.798337	1.766899	1.330027
C88	C	0.131675	1.100231	0.546555
C89	C	0.465009	1.433564	0.879889
C90	C	0.798342	1.766897	1.213222
C91	C	0.131674	1.100234	0.453457
C92	C	0.465007	1.433567	0.786790
C93	C	0.798341	1.766901	1.120124
C94	C	0.131680	1.100234	0.336644
C95	C	0.465014	1.433567	0.669978
C96	C	0.798347	1.766901	1.003311
H97	H	-0.365783	1.209006	0.000080
H98	H	-0.032450	1.542339	0.333414
H99	H	0.300884	1.875672	0.666747
H100	H	-0.370876	0.991461	0.000012
H101	H	-0.037543	1.324795	0.333346
H102	H	0.295791	1.658128	0.666679
