data_functionalizedCrystal
_audit_creation_method	'MofGen! by Chris Wilmer'
_symmetry_space_group_name_H-M	'P1'
_symmetry_Int_Tables_number	1
_symmetry_cell_setting	triclinic
loop_
_symmetry_equiv_pos_as_xyz
  x,y,z
_cell_length_a	27.440280
_cell_length_b	17.052862
_cell_length_c	17.052892
_cell_angle_alpha	102.027771
_cell_angle_beta	53.484027
_cell_angle_gamma	109.736438
loop_
_atom_site_label
_atom_site_type_symbol
_atom_site_fract_x
_atom_site_fract_y
_atom_site_fract_z
Zr1	Zr	0.487540	0.244633	0.811102
O2	O	0.572444	0.334031	0.696759
O3	O	0.391015	0.217226	0.846139
O4	O	0.464670	0.366649	0.869222
O5	O	0.520883	0.066743	0.655485
O6	O	0.459847	0.392380	1.005281
O7	O	0.498790	0.184608	0.673676
O8	O	0.328093	0.125089	0.963989
O9	O	0.652636	0.334033	0.696776
O10	O	0.431422	0.224742	0.962639
O11	O	0.451508	0.117577	0.847524
O12	O	0.538226	0.293503	0.874702
O13	O	0.558313	0.186339	0.759587
Zr14	Zr	0.515084	0.097689	0.999088
Zr15	Zr	0.479849	0.285671	1.028100
Zr16	Zr	0.522775	0.056651	0.782089
Zr17	Zr	0.615437	0.244636	0.811129
Zr18	Zr	0.387186	0.097686	0.999060
O19	O	0.611608	0.125096	0.964051
O20	O	0.561508	0.392382	1.005303
O21	O	0.622544	0.066745	0.655507
O22	O	0.430179	0.008291	1.113430
O23	O	0.380080	0.275577	1.154683
O24	O	0.441115	-0.050060	0.804887
O25	O	0.481741	0.275579	1.154705
O26	O	0.537954	-0.024327	0.940968
O27	O	0.542776	-0.050058	0.804908
O28	O	0.503833	0.157714	1.136514
O29	O	0.646523	0.366653	0.869261
O30	O	0.356101	-0.024331	0.940928
O31	O	0.349987	0.008289	1.113413
O32	O	0.321980	0.157709	1.136474
O33	O	0.680643	0.184612	0.673715
O34	O	0.674530	0.217232	0.846200
O35	O	0.464397	0.048818	0.935488
O36	O	0.444311	0.155983	1.050603
O37	O	0.551115	0.224745	0.962665
O38	O	0.571201	0.117580	0.847550
C39	C	0.341332	0.171157	0.905060
C40	C	0.287036	0.171156	0.905048
C41	C	0.457238	0.406298	0.941385
C42	C	0.442280	0.486101	0.953702
C43	C	0.545385	-0.063976	0.868804
C44	C	0.560343	-0.143779	0.856488
C45	C	-0.060191	0.227097	0.965211
C46	C	-0.111215	0.227097	0.965219
O47	O	-0.146534	0.274650	1.016350
N48	N	-0.126247	0.171160	0.905130
C49	C	-0.090255	0.115214	0.845035
O50	O	-0.107726	0.067634	0.793926
C51	C	-0.039235	0.115211	0.845032
C52	C	-0.024203	0.171157	0.905118
C53	C	-0.045158	0.283039	1.025293
C54	C	0.005863	0.283040	1.025282
C55	C	0.041851	0.227100	0.965190
C56	C	0.026818	0.171159	0.905108
C57	C	-0.003247	0.059262	0.784943
C58	C	0.047775	0.059263	0.784945
C59	C	0.062807	0.115210	0.845032
C60	C	0.113828	0.115220	0.845005
N61	N	0.128859	0.171158	0.905094
C62	C	0.092871	0.227098	0.965187
C63	C	-0.197402	0.115223	0.845047
C64	C	-0.248418	0.115229	0.845044
C65	C	-0.269375	0.227111	0.965230
C66	C	-0.218355	0.227108	0.965227
C67	C	-0.182370	0.171160	0.905137
C68	C	0.200020	0.227097	0.965160
C69	C	0.251048	0.227096	0.965141
C70	C	0.271998	0.115211	0.844959
C71	C	0.220977	0.115215	0.844974
C72	C	0.184987	0.171161	0.905082
O73	O	0.149173	0.067690	0.793904
O74	O	0.110345	0.274662	1.016297
C75	C	0.661291	0.171165	0.905129
C76	C	0.715587	0.171166	0.905141
C77	C	0.510932	0.119828	0.633663
C78	C	0.514197	0.102406	0.541541
C79	C	0.623124	0.854626	0.804795
C80	C	0.637180	0.779647	0.793217
C81	C	0.588457	0.706258	0.833337
C82	C	0.525674	0.707853	0.885037
C83	C	0.511617	0.782838	0.896610
C84	C	0.476949	0.634469	0.925152
C85	C	0.414167	0.636064	0.976852
C86	C	0.400112	0.711043	0.988423
C87	C	0.448836	0.784432	0.948303
C88	C	0.491006	0.559484	0.913580
C89	C	0.379499	0.487696	1.005395
C90	C	0.365443	0.562674	1.016973
C91	C	0.474722	0.313039	0.321945
C92	C	0.471658	0.329413	0.408495
C93	C	0.482292	0.272663	0.441761
C94	C	0.495992	0.199535	0.388468
C95	C	0.499061	0.183162	0.301905
C96	C	0.506631	0.142787	0.421722
C97	C	0.520331	0.069659	0.368429
C98	C	0.523400	0.053289	0.281875
C99	C	0.512765	0.110039	0.248609
C100	C	0.503562	0.159159	0.508284
C101	C	0.527901	0.029283	0.488245
C102	C	0.530966	0.012909	0.401695
C103	C	0.491691	0.222494	1.176527
C104	C	0.488426	0.239916	1.268648
C105	C	0.331711	0.222490	1.176492
C106	C	0.274151	0.239910	1.268602
C107	C	0.385405	-0.063980	0.868770
C108	C	0.346068	-0.143784	0.856441
C109	C	0.375785	-0.012647	1.140202
C110	C	0.333182	-0.075030	1.219995
C111	C	0.626838	0.354969	0.669988
C112	C	0.669441	0.417351	0.590194
C113	C	0.670912	0.119832	0.633697
C114	C	0.728473	0.102411	0.541587
C115	C	0.617218	0.406301	0.941420
C116	C	0.656555	0.486106	0.953748
C117	C	0.240390	0.283990	1.265943
C118	C	0.186310	0.300375	1.352484
C119	C	0.165988	0.272673	1.441683
C120	C	0.199754	0.228592	1.444340
C121	C	0.253836	0.212213	1.357800
C122	C	0.334324	-0.217161	0.896567
C123	C	0.297371	-0.292153	0.884978
C124	C	0.272159	-0.293767	0.833269
C125	C	0.283906	-0.220383	0.793139
C126	C	0.320863	-0.145393	0.804722
C127	C	0.302691	-0.048385	1.317565
C128	C	0.262666	-0.106991	1.392548
C129	C	0.253131	-0.192242	1.369960
C130	C	0.283628	-0.218887	1.272380
C131	C	0.323655	-0.160281	1.197399
C132	C	0.699939	0.390706	0.492625
C133	C	0.739979	0.449313	0.417641
C134	C	0.749517	0.534564	0.440229
C135	C	0.719017	0.561209	0.537809
C136	C	0.678981	0.502603	0.612791
C137	C	0.762237	0.058339	0.544248
C138	C	0.816327	0.041975	0.457710
C139	C	0.836650	0.069680	0.368511
C140	C	0.802883	0.113758	0.365854
C141	C	0.748796	0.130126	0.452392
C142	C	0.681756	0.487693	1.005463
C143	C	0.718712	0.562675	1.017065
C144	C	0.730470	0.636067	0.976946
C145	C	0.705264	0.634477	0.925230
C146	C	0.668306	0.559498	0.913634
H147	H	0.263285	0.272657	1.014070
Br148	Br	-0.268803	0.039312	0.763478
H149	H	0.339824	0.427939	1.038060
H150	H	0.721307	0.166010	0.450212
Br151	Br	0.368529	-0.214992	0.966753
H152	H	0.183200	0.206041	1.516977
Br153	Br	0.299645	0.152382	1.361426
Br154	Br	0.151182	0.303022	1.046739
Br155	Br	0.910057	0.047458	0.251074
H156	H	0.647791	0.558216	0.871520
Br157	Br	0.862143	-0.017847	0.461339
H158	H	0.330418	-0.085650	0.772049
Br159	Br	0.280241	0.564850	1.087134
H160	H	0.158824	0.336268	1.350302
Br161	Br	0.198806	-0.271769	1.471734
Br162	Br	0.780631	0.737819	0.992691
H163	H	0.121950	0.286015	1.512142
Br164	Br	0.721233	0.734087	0.870779
H165	H	0.287810	-0.351897	0.917663
Br166	Br	0.478132	0.294885	0.559224
Br167	Br	0.453068	0.428653	0.480817
H168	H	0.018096	0.328594	1.074212
Br169	Br	0.315624	0.067309	1.348247
H170	H	0.654148	0.524308	0.692235
Br171	Br	0.576209	0.557328	0.843418
Br172	Br	0.221284	-0.070812	1.524968
H173	H	-0.074459	0.328592	1.074232
Br174	Br	0.734671	0.020734	0.665291
Br175	Br	0.830471	0.151348	0.244790
Br176	Br	0.460301	0.390057	0.276789
Br177	Br	-0.197960	0.303038	1.046776
Br178	Br	0.731966	0.676911	0.568448
Br179	Br	0.516919	0.087810	0.131148
H180	H	0.534562	-0.006251	0.238477
Br181	Br	0.549557	-0.086334	0.329362
Br182	Br	0.722383	0.777478	0.723019
Br183	Br	0.542341	-0.047735	0.533380
H184	H	0.739232	0.563952	1.059174
Br185	Br	0.314908	0.713203	1.058567
Br186	Br	0.665809	0.388101	1.059919
H187	H	-0.298688	0.272659	1.014163
H188	H	0.256932	0.306562	1.193323
Br189	Br	-0.148566	0.039290	0.763481
H190	H	-0.015477	0.013703	0.736015
Br191	Br	0.429762	0.886196	0.964017
Br192	Br	0.096608	-0.016674	0.703392
Br193	Br	0.200583	0.039299	0.763412
H194	H	0.301311	0.069668	0.796030
Br195	Br	0.270681	-0.334589	1.241741
Br196	Br	0.222005	-0.395547	0.817558
H197	H	0.599905	0.645209	0.823907
H198	H	0.492407	0.218701	0.551668
Br199	Br	0.249685	-0.222587	0.722966
H200	H	0.348477	-0.181988	1.117955
H201	H	0.692176	0.321294	0.474214
H202	H	0.764807	0.427602	0.338194
H203	H	0.662789	0.914382	0.772129
H204	H	0.782118	0.582276	0.379165
