data_functionalizedCrystal
_audit_creation_method	'MofGen! by Chris Wilmer'
_symmetry_space_group_name_H-M	'P1'
_symmetry_Int_Tables_number	1
_symmetry_cell_setting	triclinic
loop_
_symmetry_equiv_pos_as_xyz
  x,y,z
_cell_length_a	8.597340
_cell_length_b	19.188930
_cell_length_c	7.681481
_cell_angle_alpha	84.272277
_cell_angle_beta	103.474906
_cell_angle_gamma	84.247170
loop_
_atom_site_label
_atom_site_type_symbol
_atom_site_fract_x
_atom_site_fract_y
_atom_site_fract_z
O1	O	2.099171	0.096557	0.172031
O2	O	1.635032	0.107681	0.101607
O3	O	1.880499	0.000479	0.138886
O4	O	1.853704	0.203759	0.134752
O5	O	1.910712	-0.012745	0.436332
O6	O	1.665245	0.094457	0.399053
O7	O	2.129384	0.083332	0.469477
Zn8	Zn	1.902112	0.086795	0.481491
Zn9	Zn	1.862305	0.104219	0.089593
O10	O	1.883917	0.190534	0.432198
C11	C	1.590758	0.100611	0.241321
C12	C	1.413824	0.099238	0.214476
C13	C	1.894739	-0.032145	0.287483
C14	C	1.892136	-0.109654	0.287103
C15	C	2.036167	-0.154389	0.308965
C16	C	2.033718	-0.227215	0.308566
C17	C	1.887233	-0.255304	0.286338
C18	C	1.743182	-0.210558	0.264463
C19	C	1.745634	-0.137733	0.264845
N20	N	1.785545	-0.367956	0.370575
N21	N	1.783226	-0.437138	0.370217
C22	C	1.879837	-0.474720	0.285180
N23	N	1.978880	-0.440511	0.200541
N24	N	1.981205	-0.371324	0.200908
C25	C	1.884558	-0.334269	0.285920
C26	C	2.021221	-0.598422	0.306608
C27	C	2.018765	-0.671248	0.306196
C28	C	1.728227	-0.654591	0.262111
C29	C	1.730686	-0.581765	0.262505
C30	C	1.877188	-0.553686	0.284763
C31	C	2.173657	0.090402	0.329760
C32	C	2.350591	0.091776	0.356593
C33	C	1.869677	0.223159	0.283597
C34	C	1.872278	0.300668	0.283965
N35	N	1.929291	0.074903	0.748953
N36	N	1.835138	0.116105	-0.177867
H37	H	2.151008	-0.263645	0.326362
C38	C	2.211265	0.031242	0.848795
C39	C	2.059054	0.018127	0.870170
H40	H	2.291371	-0.003808	0.923638
H41	H	2.214194	0.029946	0.726304
H42	H	2.231467	0.076478	0.881980
H43	H	2.038846	-0.027108	0.836972
H44	H	2.056121	0.019416	0.992688
C45	C	2.323102	-0.178175	0.352511
C46	C	2.197199	-0.123524	0.333411
H47	H	2.422513	-0.159117	0.367590
H48	H	2.326634	-0.210849	0.455165
H49	H	2.305556	-0.201615	0.247711
H50	H	2.214739	-0.100088	0.438218
H51	H	2.193669	-0.090838	0.230747
H52	H	1.623913	-0.233433	0.246361
C53	C	1.620168	0.087367	0.538925
C54	C	1.460232	0.084567	0.548589
H55	H	1.687858	0.082920	0.657459
H56	H	1.652996	0.049852	0.478302
H57	H	1.628117	0.131234	0.474482
H58	H	1.452280	0.040698	0.613021
H59	H	1.427395	0.122085	0.609239
C60	C	1.483220	-0.094306	0.074480
C61	C	1.587303	-0.088557	0.240825
H62	H	1.385470	-0.063948	0.059663
H63	H	1.532774	-0.081168	-0.020104
H64	H	1.460808	-0.141699	0.071084
H65	H	1.609724	-0.041165	0.244216
H66	H	1.537738	-0.101691	0.335434
H67	H	1.332590	0.104577	0.072249
C68	C	1.622340	0.209224	0.807982
C69	C	1.705383	0.172879	0.700926
H70	H	1.542241	0.244277	0.733143
H71	H	1.572481	0.176966	0.872340
H72	H	1.695980	0.231088	0.891048
H73	H	1.631744	0.151011	0.617868
H74	H	1.755243	0.205141	0.636537
C75	C	2.308152	-0.622197	0.350102
C76	C	2.182247	-0.567549	0.331029
H77	H	2.407559	-0.603136	0.365162
H78	H	2.311703	-0.654873	0.452759
H79	H	2.290591	-0.645636	0.245300
H80	H	2.199802	-0.544114	0.435838
H81	H	2.178698	-0.534861	0.228362
H82	H	2.136056	-0.707671	0.323990
H83	H	1.608955	-0.677460	0.244004
H84	H	1.613401	-0.545341	0.244712
