data_functionalizedCrystal
_audit_creation_method	'MofGen! by Chris Wilmer'
_symmetry_space_group_name_H-M	'P1'
_symmetry_Int_Tables_number	1
_symmetry_cell_setting	triclinic
loop_
_symmetry_equiv_pos_as_xyz
  x,y,z
_cell_length_a	16.109304
_cell_length_b	9.065218
_cell_length_c	7.540329
_cell_angle_alpha	89.997391
_cell_angle_beta	90.002729
_cell_angle_gamma	95.760705
loop_
_atom_site_label
_atom_site_type_symbol
_atom_site_fract_x
_atom_site_fract_y
_atom_site_fract_z
O1	O	0.121908	-1.957445	0.147561
O2	O	0.131907	-1.527918	0.147543
O3	O	0.005968	-1.754479	0.147553
O4	O	0.247848	-1.730884	0.147550
O5	O	0.005961	-1.754477	-0.147412
O6	O	0.131900	-1.527917	-0.147422
O7	O	0.121901	-1.957443	-0.147404
Cu8	Cu	0.126900	-1.742680	-0.174346
Cu9	Cu	0.126908	-1.742682	0.174485
O10	O	0.247841	-1.730883	-0.147415
C11	C	0.130943	-1.472954	0.000059
C12	C	0.128069	-1.309181	0.000052
C13	C	-0.025018	-1.753522	0.000075
C14	C	-0.117335	-1.750654	0.000087
C15	C	-0.329720	-1.744030	0.160865
C16	C	-0.416461	-1.741322	0.160864
C17	C	-0.416465	-1.741328	-0.160724
C18	C	-0.329725	-1.744025	-0.160720
C19	C	-0.286355	-1.745384	0.000080
C20	C	-0.459836	-1.739978	0.000074
C21	C	-0.553885	-1.737042	0.000071
C22	C	-0.192301	-1.748317	0.000084
C23	C	0.278827	-1.731840	0.000068
C24	C	0.371144	-1.734708	0.000068
N25	N	0.126908	-1.742684	0.419833
C26	C	0.122866	-1.012408	0.000073
C27	C	0.125739	-1.176181	0.000058
N28	N	0.126894	-1.742689	-0.419694
H29	H	-0.294410	-1.745132	0.291799
F30	F	-0.283570	-1.745452	-0.331859
H31	H	-0.451764	-1.740217	0.291791
H32	H	-0.451788	-1.740224	-0.291641
