data_functionalizedCrystal
_audit_creation_method	'MofGen! by Chris Wilmer'
_symmetry_space_group_name_H-M	'P1'
_symmetry_Int_Tables_number	1
_symmetry_cell_setting	triclinic
loop_
_symmetry_equiv_pos_as_xyz
  x,y,z
_cell_length_a	12.837943
_cell_length_b	11.792241
_cell_length_c	11.892095
_cell_angle_alpha	93.915739
_cell_angle_beta	85.689438
_cell_angle_gamma	89.511178
loop_
_atom_site_label
_atom_site_type_symbol
_atom_site_fract_x
_atom_site_fract_y
_atom_site_fract_z
O1	O	1.383703	0.288690	-0.093984
O2	O	1.081816	0.274106	-0.093991
O3	O	1.240085	0.116971	-0.093980
O4	O	1.225434	0.445825	-0.093996
O5	O	1.226889	0.130050	0.094027
O6	O	1.068620	0.287185	0.094016
O7	O	1.370507	0.301770	0.094022
Zn8	Zn	1.217468	0.296554	0.123869
Zn9	Zn	1.234855	0.279322	-0.123838
O10	O	1.212238	0.458904	0.094011
C11	C	1.036570	0.275719	0.000012
C12	C	0.921410	0.261025	0.000009
C13	C	1.232566	0.081126	0.000023
C14	C	1.229812	-0.045167	0.000022
C15	C	0.681444	0.437671	0.000017
C16	C	0.573241	0.423870	0.000015
C17	C	0.596797	0.219624	0.000013
C18	C	0.705001	0.233425	0.000015
C19	C	0.747320	0.342452	0.000015
C20	C	0.855526	0.356251	0.000008
C21	C	0.879080	0.152006	0.000014
C22	C	0.770877	0.138205	0.000013
C23	C	1.224748	-0.276394	0.000003
C24	C	1.227561	-0.147723	0.000014
C25	C	1.415753	0.300157	0.000017
C26	C	1.530913	0.314850	0.000012
C27	C	1.219756	0.494749	0.000005
C28	C	1.222512	0.621042	-0.000001
N29	N	1.205610	0.308315	0.292922
N30	N	1.246721	0.267553	-0.292891
C31	C	1.329237	0.185651	0.529579
C32	C	1.320956	0.193880	0.647920
C33	C	1.180761	0.332997	0.647948
C34	C	1.189043	0.324768	0.529607
C35	C	1.263284	0.251093	0.470427
C36	C	1.271570	0.242870	0.352083
C37	C	1.131371	0.381980	0.352113
C38	C	1.123090	0.390210	0.470454
H39	H	0.889980	0.445026	0.000010
O40	O	1.050886	0.461791	0.527772
C41	C	0.994469	0.517810	0.450181
H42	H	0.998943	0.465258	0.365822
H43	H	0.909339	0.528506	0.484388
H44	H	1.029502	0.604963	0.437591
H45	H	1.077670	0.435272	0.303938
O46	O	0.509154	0.516269	-0.000139
C47	C	0.452715	0.507643	-0.097526
H48	H	0.449008	0.414653	-0.129988
H49	H	0.370104	0.542683	-0.075630
H50	H	0.493390	0.558616	-0.165707
O51	O	0.729801	0.032292	0.000207
C52	C	0.756598	-0.019714	0.097557
H53	H	0.774674	0.048557	0.165620
H54	H	0.688490	-0.072846	0.130235
H55	H	0.828296	-0.076905	0.075536
O56	O	1.384987	0.130142	0.705259
C57	C	1.369495	0.013876	0.676369
H58	H	1.335528	0.003696	0.590454
H59	H	1.447427	-0.033861	0.672306
H60	H	1.313004	-0.022222	0.742985
H61	H	0.715901	0.526445	0.000015
O62	O	0.943188	0.059576	-0.000140
C63	C	1.013291	0.054665	-0.097529
H64	H	1.021554	0.143143	-0.129987
H65	H	1.092829	0.022665	-0.075639
H66	H	0.982180	-0.005783	-0.165712
H67	H	0.562315	0.130865	0.000107
H68	H	1.332023	0.182884	0.303899
O69	O	1.401232	0.114045	0.471947
C70	C	1.350106	0.033159	0.403510
H71	H	1.270422	0.068305	0.385814
H72	H	1.399122	0.014156	0.320276
H73	H	1.339431	-0.048389	0.449097
O74	O	1.108734	0.404536	0.705622
C75	C	1.115550	0.397735	0.822756
H76	H	1.196645	0.365377	0.838896
H77	H	1.101346	0.485608	0.867742
H78	H	1.054173	0.336722	0.856347
