data_functionalizedCrystal
_audit_creation_method	'MofGen! by Chris Wilmer'
_symmetry_space_group_name_H-M	'P1'
_symmetry_Int_Tables_number	1
_symmetry_cell_setting	triclinic
loop_
_symmetry_equiv_pos_as_xyz
  x,y,z
_cell_length_a	12.837943
_cell_length_b	12.503552
_cell_length_c	12.837942
_cell_angle_alpha	93.893149
_cell_angle_beta	85.171060
_cell_angle_gamma	93.895408
loop_
_atom_site_label
_atom_site_type_symbol
_atom_site_fract_x
_atom_site_fract_y
_atom_site_fract_z
O1	O	1.407780	0.089301	-0.266687
O2	O	1.907780	0.589301	0.233313
O3	O	1.104647	0.089307	-0.253244
O4	O	1.604647	0.589307	0.246756
O5	O	1.249492	0.089297	-0.108399
O6	O	1.749492	0.589297	0.391601
O7	O	1.262936	0.089310	-0.411532
O8	O	1.762936	0.589310	0.088468
O9	O	1.238586	-0.089344	-0.119301
O10	O	1.738586	0.410656	0.380699
O11	O	1.093741	-0.089335	-0.264146
O12	O	1.593741	0.410665	0.235854
O13	O	1.396874	-0.089341	-0.277590
O14	O	1.896874	0.410659	0.222410
Cu15	Cu	1.244312	-0.105649	-0.271863
Cu16	Cu	1.744312	0.394351	0.228137
Cu17	Cu	1.257210	0.105615	-0.258970
Cu18	Cu	1.757210	0.605615	0.241030
O19	O	1.252030	-0.089331	-0.422434
O20	O	1.752030	0.410669	0.077566
C21	C	1.060125	-0.000013	-0.254153
C22	C	1.560125	0.499987	0.245847
C23	C	0.943710	-0.000011	-0.240609
C24	C	1.443710	0.499989	0.259391
N25	N	1.235248	-0.254241	-0.280932
N26	N	1.735248	0.245759	0.219068
C27	C	0.718836	-0.000019	-0.403439
C28	C	1.218836	0.499981	0.096561
C29	C	0.609453	-0.000018	-0.390717
C30	C	1.109453	0.499982	0.109283
C31	C	0.615561	-0.000014	-0.202446
C32	C	1.115561	0.499986	0.297554
C33	C	0.724943	-0.000016	-0.215167
C34	C	1.224943	0.499984	0.284833
C35	C	0.776577	-0.000017	-0.315667
C36	C	1.276577	0.499983	0.184333
C37	C	0.885961	-0.000010	-0.328387
C38	C	1.385961	0.499990	0.171613
C39	C	0.892066	-0.000014	-0.140117
C40	C	1.392066	0.499986	0.359883
C41	C	0.782684	-0.000013	-0.127395
C42	C	1.282684	0.499987	0.372605
C43	C	1.279609	-0.526678	-0.236550
C44	C	1.779609	-0.026678	0.263450
C45	C	1.221923	-0.473350	-0.294273
C46	C	1.721923	0.026650	0.205727
C47	C	1.229339	-0.351426	-0.286848
C48	C	1.729339	0.148574	0.213152
C49	C	1.272194	-0.648612	-0.243973
C50	C	1.772194	-0.148612	0.256027
C51	C	1.441397	-0.000019	-0.276680
C52	C	1.941397	0.499981	0.223320
C53	C	1.557812	-0.000014	-0.290224
C54	C	2.057812	0.499986	0.209776
C55	C	1.239497	-0.000023	-0.074781
C56	C	1.739497	0.499977	0.425219
C57	C	1.225953	-0.000021	0.041634
C58	C	1.725953	0.499979	0.541634
N59	N	1.266281	0.254207	-0.249894
N60	N	1.766281	0.754207	0.250106
C61	C	1.262024	-0.000009	-0.456052
C62	C	1.762024	0.499991	0.043948
C63	C	1.275569	-0.000004	-0.572467
C64	C	1.775569	0.499996	-0.072467
C65	C	1.388784	-0.000002	0.266509
C66	C	1.888784	0.499998	0.766509
C67	C	1.376062	0.000000	0.375892
C68	C	1.876062	0.500000	0.875892
C69	C	1.187791	-0.000007	0.369784
C70	C	1.687791	0.499993	0.869784
C71	C	1.200512	-0.000009	0.260402
C72	C	1.700512	0.499991	0.760402
C73	C	1.301012	-0.000008	0.208768
C74	C	1.801012	0.499992	0.708768
C75	C	1.313731	-0.000018	0.099383
C76	C	1.813731	0.499982	0.599383
C77	C	1.125461	-0.000017	0.093278
C78	C	1.625461	0.499983	0.593278
C79	C	1.112740	-0.000015	0.202660
C80	C	1.612740	0.499985	0.702660
H81	H	0.928000	-0.000013	-0.410219
H82	H	1.428000	0.499987	0.089781
Cl83	Cl	0.536867	-0.000024	-0.501064
Cl84	Cl	1.036867	0.499976	-0.001064
Cl85	Cl	0.717763	-0.000015	-0.001060
Cl86	Cl	1.217763	0.499985	0.498940
Cl87	Cl	0.986405	-0.000007	0.267582
Cl88	Cl	1.486405	0.499993	0.767582
Cl89	Cl	1.364455	-0.455799	-0.151650
Cl90	Cl	1.864455	0.044201	0.348350
Cl91	Cl	1.440071	-0.000024	0.034473
Cl92	Cl	1.940071	0.499976	0.534473
H93	H	1.447536	0.000009	0.422901
H94	H	1.947536	0.500009	0.922901
H95	H	1.105969	0.000004	0.411844
H96	H	1.605969	0.500004	0.911844
Cl97	Cl	0.964663	0.000005	-0.029767
Cl98	Cl	1.464663	0.500005	0.470233
H99	H	0.760877	-0.000018	-0.485269
H100	H	1.260877	0.499982	0.014731
Cl101	Cl	1.137080	-0.544232	-0.379184
Cl102	Cl	1.637080	-0.044232	0.120816
H103	H	1.470614	-0.000011	0.224468
H104	H	1.970614	0.499989	0.724468
H105	H	0.573496	-0.000102	-0.120629
H106	H	1.073496	0.499898	0.379371
H107	H	1.053990	-0.000031	0.046253
H108	H	1.553990	0.499969	0.546253
