data_functionalizedCrystal
_audit_creation_method	'MofGen! by Chris Wilmer'
_symmetry_space_group_name_H-M	'P1'
_symmetry_Int_Tables_number	1
_symmetry_cell_setting	triclinic
loop_
_symmetry_equiv_pos_as_xyz
  x,y,z
_cell_length_a	15.995343
_cell_length_b	15.072220
_cell_length_c	19.288865
_cell_angle_alpha	89.985399
_cell_angle_beta	96.687284
_cell_angle_gamma	89.999635
loop_
_atom_site_label
_atom_site_type_symbol
_atom_site_fract_x
_atom_site_fract_y
_atom_site_fract_z
O1	O	1.110651	0.073704	-0.089510
O2	O	1.610651	0.573704	0.410490
O3	O	0.866833	0.073727	-0.100571
O4	O	1.366833	0.573727	0.399429
O5	O	0.995787	0.073697	0.006072
O6	O	1.495787	0.573697	0.506072
O7	O	0.981697	0.073733	-0.196153
O8	O	1.481697	0.573733	0.303847
O9	O	0.995778	-0.073868	0.006085
O10	O	1.495778	0.426132	0.506085
O11	O	0.866824	-0.073839	-0.100558
O12	O	1.366824	0.426161	0.399442
O13	O	1.110642	-0.073861	-0.089497
O14	O	1.610642	0.426139	0.410503
Zn15	Zn	0.988732	-0.097279	-0.095025
Zn16	Zn	1.488732	0.402721	0.404975
Zn17	Zn	0.988743	0.097144	-0.095042
Zn18	Zn	1.488743	0.597144	0.404958
O19	O	0.981688	-0.073832	-0.196140
O20	O	1.481688	0.426168	0.303860
C21	C	0.835635	-0.000053	-0.100108
C22	C	1.335635	0.499947	0.399892
C23	C	0.742690	-0.000046	-0.098740
C24	C	1.242690	0.499954	0.401260
C25	C	0.572513	-0.000058	-0.096257
C26	C	1.072513	0.499942	0.403743
C27	C	0.549458	-0.000072	-0.019277
C28	C	1.049458	0.499928	0.480723
C29	C	0.452785	-0.000412	-0.017829
C30	C	0.952785	0.499588	0.482171
C31	C	0.404962	-0.000069	-0.093811
C32	C	0.904962	0.499931	0.406189
C33	C	0.433903	-0.084161	-0.132510
C34	C	0.933903	0.415839	0.367490
C35	C	0.530692	-0.084227	-0.133423
C36	C	1.030692	0.415773	0.366577
C37	C	0.530608	0.083589	-0.134565
C38	C	1.030608	0.583589	0.365435
C39	C	0.434124	0.084688	-0.131723
C40	C	0.934124	0.584688	0.368277
C41	C	0.310269	-0.000078	-0.092433
C42	C	0.810269	0.499922	0.407567
C43	C	0.667206	-0.000055	-0.097637
C44	C	1.167206	0.499945	0.402363
N45	N	0.988731	-0.229968	-0.095013
N46	N	1.488731	0.270032	0.404987
C47	C	0.988744	-0.589169	-0.095037
C48	C	1.488744	-0.089169	0.404963
C49	C	1.057967	-0.551551	-0.038165
C50	C	1.557967	-0.051551	0.461835
C51	C	1.057788	-0.448725	-0.037955
C52	C	1.557788	0.051275	0.462045
C53	C	0.988738	-0.410965	-0.095025
C54	C	1.488738	0.089035	0.404975
C55	C	0.901440	-0.448303	-0.079199
C56	C	1.401440	0.051697	0.420801
C57	C	0.901850	-0.551161	-0.078797
C58	C	1.401850	-0.051161	0.421203
C59	C	1.006030	-0.551235	-0.167903
C60	C	1.506030	-0.051235	0.332097
C61	C	1.008015	-0.448371	-0.167415
C62	C	1.508015	0.051629	0.332585
C63	C	0.988729	-0.310252	-0.095020
C64	C	1.488729	0.189748	0.404980
C65	C	0.988747	-0.689883	-0.095041
C66	C	1.488747	-0.189883	0.404959
C67	C	1.141840	-0.000079	-0.089959
C68	C	1.641840	0.499921	0.410041
C69	C	1.234785	-0.000081	-0.091328
C70	C	1.734785	0.499919	0.408672
C71	C	0.995329	-0.000088	0.031956
C72	C	1.495329	0.499912	0.531956
C73	C	0.993968	-0.000096	0.109063
C74	C	1.493968	0.499904	0.609063
N75	N	0.988751	0.229833	-0.095049
N76	N	1.488751	0.729833	0.404951
C77	C	0.982146	-0.000045	-0.222024
C78	C	1.482146	0.499955	0.277976
C79	C	0.983507	-0.000031	-0.299131
C80	C	1.483507	0.499969	0.200869
C81	C	1.069633	-0.000107	0.153565
C82	C	1.569633	0.499893	0.653565
C83	C	1.068354	-0.000093	0.226015
C84	C	1.568354	0.499907	0.726015
C85	C	0.991407	-0.000085	0.253960
C86	C	1.491407	0.499915	0.753960
C87	C	0.915732	-0.000069	0.209449
C88	C	1.415732	0.499931	0.709449
C89	C	0.917013	-0.000074	0.137000
C90	C	1.417013	0.499926	0.637000
C91	C	0.930914	-0.051769	0.362408
C92	C	1.430914	0.448231	0.862408
C93	C	0.929637	-0.051769	0.434856
C94	C	1.429637	0.448231	0.934856
C95	C	0.987453	-0.000065	0.477416
C96	C	1.487453	0.499935	0.977416
C97	C	1.046562	0.051627	0.447522
C98	C	1.546562	0.551627	0.947522
C99	C	1.047843	0.051622	0.375073
C100	C	1.547843	0.551622	0.875073
C101	C	0.990009	-0.000079	0.332518
C102	C	1.490009	0.499921	0.832518
C103	C	1.061737	-0.000060	0.600477
C104	C	1.561737	0.499940	1.100477
C105	C	1.060455	-0.000040	0.672929
C106	C	1.560455	0.499960	1.172929
C107	C	0.907831	-0.000025	0.656361
C108	C	1.407831	0.499975	1.156361
C109	C	0.909115	-0.000036	0.583911
C110	C	1.409115	0.499964	1.083911
C111	C	0.986070	-0.000057	0.555974
C112	C	1.486070	0.499943	1.055974
H113	H	0.558973	0.147349	-0.110283
H114	H	1.058973	0.647349	0.389717
C115	C	1.090175	-0.586266	-0.188450
C116	C	1.590175	-0.086266	0.311550
N117	N	1.153557	-0.612652	-0.203918
N118	N	1.653557	-0.112652	0.296082
H119	H	0.883831	-0.093877	0.327760
H120	H	1.383831	0.406123	0.827760
C121	C	0.830185	-0.415256	-0.133664
C122	C	1.330185	0.084744	0.366336
N123	N	0.776517	-0.390361	-0.174688
N124	N	1.276517	0.109639	0.325312
C125	C	0.427249	0.081000	0.023108
C126	C	0.927249	0.581000	0.523108
N127	N	0.408021	0.142317	0.053950
N128	N	0.908021	0.642317	0.553950
H129	H	0.847500	-0.000032	0.547677
H130	H	1.347500	0.499968	1.047677
H131	H	0.434459	-0.061056	0.012334
H132	H	0.934459	0.438944	0.512334
H133	H	0.413908	-0.146990	-0.105947
H134	H	0.913908	0.353010	0.394053
C135	C	1.151594	-0.000111	0.274976
C136	C	1.651594	0.499889	0.774976
N137	N	1.214291	-0.000127	0.311851
N138	N	1.714291	0.499873	0.811851
C139	C	0.567011	-0.169481	-0.097621
C140	C	1.067011	0.330519	0.402379
N141	N	0.594363	-0.233696	-0.070651
N142	N	1.094363	0.266304	0.429349
C143	C	1.112855	0.108490	0.342191
C144	C	1.612855	0.608490	0.842191
N145	N	1.161820	0.151327	0.317424
N146	N	1.661820	0.651327	0.817424
C147	C	0.944288	-0.413642	-0.227269
C148	C	1.444288	0.086358	0.272731
N149	N	0.896283	-0.387483	-0.272350
N150	N	1.396283	0.112517	0.227650
C151	C	1.042895	-0.415502	0.035096
C152	C	1.542895	0.084498	0.535096
N153	N	1.031673	-0.390480	0.090121
N154	N	1.531673	0.109520	0.590121
H155	H	1.093642	0.093730	0.482173
H156	H	1.593642	0.593730	0.982173
C157	C	0.937833	-0.584106	-0.225080
C158	C	1.437833	-0.084106	0.274920
N159	N	0.886466	-0.608872	-0.268140
N160	N	1.386466	-0.108872	0.231860
H161	H	0.885780	-0.422560	-0.026663
H162	H	1.385780	0.077440	0.473337
H163	H	0.544407	0.084410	-0.191227
H164	H	1.044407	0.584410	0.308773
C165	C	0.550095	-0.089062	-0.209685
C166	C	1.050095	0.410938	0.290315
N167	N	0.564706	-0.092711	-0.267124
N168	N	1.064706	0.407289	0.232876
C169	C	0.833773	-0.000064	0.088046
C170	C	1.333773	0.499936	0.588046
N171	N	0.771074	-0.000059	0.051173
N172	N	1.271074	0.499941	0.551173
H173	H	1.123086	-0.576284	-0.047437
H174	H	1.623086	-0.076284	0.452563
H175	H	0.853081	-0.000061	0.232207
H176	H	1.353081	0.499939	0.732207
H177	H	1.072233	-0.423967	-0.179424
H178	H	1.572233	0.076033	0.320576
H179	H	0.577581	0.060222	0.010556
H180	H	1.077581	0.560222	0.510556
C181	C	1.154286	-0.000123	0.122838
C182	C	1.654286	0.499877	0.622838
N183	N	1.218047	-0.000133	0.099694
N184	N	1.718047	0.499867	0.599694
C185	C	0.881213	-0.583597	-0.007006
C186	C	1.381213	-0.083597	0.492994
N187	N	0.865669	-0.608024	0.047069
N188	N	1.365669	-0.108024	0.547069
H189	H	1.124398	-0.000073	0.577730
H190	H	1.624398	0.499927	1.077730
H191	H	0.578549	-0.060295	0.010080
H192	H	1.078549	0.439705	0.510080
C193	C	0.830186	-0.584783	-0.132624
C194	C	1.330186	-0.084783	0.367376
N195	N	0.776205	-0.610103	-0.173162
N196	N	1.276205	-0.110103	0.326838
H197	H	1.122072	-0.000045	0.709162
H198	H	1.622072	0.499955	1.209162
H199	H	0.845179	-0.000014	0.679114
H200	H	1.345179	0.499986	1.179114
H201	H	0.415676	0.146901	-0.103541
H202	H	0.915676	0.646901	0.396459
H203	H	0.881503	-0.093855	0.459190
H204	H	1.381503	0.406145	0.959190
C205	C	0.389342	0.091898	-0.206633
C206	C	0.889342	0.591898	0.293367
N207	N	0.355613	0.097321	-0.263058
N208	N	0.855613	0.597321	0.236942
H209	H	0.401846	-0.087043	-0.188431
H210	H	0.901846	0.412957	0.311569
H211	H	1.122689	-0.423480	-0.047379
H212	H	1.622689	0.076520	0.452621
C213	C	1.043300	-0.586485	0.034475
C214	C	1.543300	-0.086485	0.534475
N215	N	1.032249	-0.612798	0.089188
N216	N	1.532249	-0.112798	0.589188
