data_functionalizedCrystal
_audit_creation_method	'MofGen! by Chris Wilmer'
_symmetry_space_group_name_H-M	'P1'
_symmetry_Int_Tables_number	1
_symmetry_cell_setting	triclinic
loop_
_symmetry_equiv_pos_as_xyz
  x,y,z
_cell_length_a	10.654549
_cell_length_b	10.654551
_cell_length_c	14.586319
_cell_angle_alpha	89.997973
_cell_angle_beta	89.997509
_cell_angle_gamma	84.485103
loop_
_atom_site_label
_atom_site_type_symbol
_atom_site_fract_x
_atom_site_fract_y
_atom_site_fract_z
O1	O	1.667841	0.176395	-0.076215
O2	O	1.302362	0.193202	-0.076221
O3	O	1.493504	0.002059	-0.076216
O4	O	1.476699	0.367538	-0.076221
O5	O	1.493490	0.002056	0.076265
O6	O	1.302349	0.193199	0.076259
O7	O	1.667827	0.176392	0.076265
Cu8	Cu	1.485087	0.184795	0.090185
Cu9	Cu	1.485103	0.184799	-0.090141
O10	O	1.476686	0.367535	0.076260
C11	C	1.255557	0.191966	0.000018
C12	C	1.116114	0.188275	0.000016
C13	C	0.905600	0.297338	0.000018
C14	C	1.036621	0.300816	0.000013
C15	C	1.064581	0.072247	0.000015
C16	C	0.933563	0.068770	0.000014
C17	C	1.198883	0.442866	-0.053411
C18	C	1.250412	0.558891	-0.053397
C19	C	1.195542	0.658663	0.000032
C20	C	1.089145	0.642415	0.053470
C21	C	1.037624	0.526388	0.053465
C22	C	1.092491	0.426621	0.000014
C23	C	0.771297	-0.073272	0.053445
C24	C	0.719773	-0.189300	0.053446
C25	C	0.774642	-0.289083	0.000023
C26	C	0.881044	-0.272847	-0.053402
C27	C	0.932568	-0.156819	-0.053403
C28	C	0.877690	-0.057036	0.000019
C29	C	1.492263	-0.044740	0.000023
C30	C	1.488570	-0.184183	0.000018
C31	C	1.486844	-0.249686	-0.083100
C32	C	1.483364	-0.380706	-0.083101
C33	C	1.483341	-0.380711	0.083142
C34	C	1.486812	-0.249692	0.083142
C35	C	1.405182	-0.550776	-0.182963
C36	C	1.403478	-0.616285	-0.266085
C37	C	1.478077	-0.582744	-0.339470
C38	C	1.554412	-0.483698	-0.329735
C39	C	1.556127	-0.418197	-0.246611
C40	C	1.481498	-0.451733	-0.173230
C41	C	1.565005	-0.079621	0.182998
C42	C	1.566730	-0.014118	0.266123
C43	C	1.492138	-0.047658	0.339515
C44	C	1.415822	-0.146710	0.329790
C45	C	1.414098	-0.212213	0.246665
C46	C	1.488688	-0.178663	0.173272
C47	C	1.714632	0.177628	0.000024
C48	C	1.854075	0.181319	0.000020
C49	C	1.477927	0.414334	0.000019
C50	C	1.481619	0.553777	0.000018
N51	N	1.485085	0.184792	0.217017
N52	N	1.485114	0.184792	-0.216973
C53	C	1.569751	0.100183	0.452026
C54	C	1.569754	0.100180	0.548007
C55	C	1.400439	0.269405	0.548012
C56	C	1.400431	0.269401	0.452032
C57	C	1.485093	0.184791	0.404042
C58	C	1.485106	0.184792	0.596002
C59	C	1.485109	0.184790	0.700070
C60	C	1.485089	0.184792	0.299968
H61	H	0.840884	0.388983	0.000023
H62	H	1.351950	-0.292863	0.238749
H63	H	1.355056	-0.173996	0.389543
H64	H	1.493559	0.005678	0.407202
Cl65	Cl	1.384160	0.579316	-0.120577
Cl66	Cl	1.489047	-0.167335	-0.187598
Cl67	Cl	1.260324	0.804520	0.000048
H68	H	1.331487	0.338300	0.412961
Cl69	Cl	1.648214	-0.441552	-0.421992
Cl70	Cl	1.020183	0.767846	0.120653
Cl71	Cl	1.164517	-0.069235	0.000017
Cl72	Cl	0.903878	0.505956	0.120637
Cl73	Cl	1.267849	0.317450	-0.120607
Cl74	Cl	0.709876	-0.434954	0.000036
H75	H	1.019208	-0.143605	-0.096907
H76	H	0.925723	-0.354099	-0.096902
H77	H	1.331511	0.338294	0.587095
Cl78	Cl	0.586019	-0.209716	0.120621
H79	H	1.618278	-0.337558	-0.238685
H80	H	0.726611	0.007975	0.096951
Cl81	Cl	1.662686	0.110394	0.278353
H82	H	1.476688	-0.636090	-0.407150
Cl83	Cl	1.311369	-0.592933	-0.090714
Cl84	Cl	1.307514	-0.740791	-0.278323
Cl85	Cl	1.676179	-0.006188	0.391699
Cl86	Cl	1.481132	-0.463073	0.187635
H87	H	1.638688	0.031283	0.587073
H88	H	1.625737	-0.052292	0.123235
