data_functionalizedCrystal
_audit_creation_method	'MofGen! by Chris Wilmer'
_symmetry_space_group_name_H-M	'P1'
_symmetry_Int_Tables_number	1
_symmetry_cell_setting	triclinic
loop_
_symmetry_equiv_pos_as_xyz
  x,y,z
_cell_length_a	27.732064
_cell_length_b	26.809956
_cell_length_c	27.732048
_cell_angle_alpha	90.000636
_cell_angle_beta	82.646040
_cell_angle_gamma	90.001122
loop_
_atom_site_label
_atom_site_type_symbol
_atom_site_fract_x
_atom_site_fract_y
_atom_site_fract_z
O1	O	0.640926	0.041396	0.057548
O2	O	0.500133	0.041417	0.066285
O3	O	0.574902	0.041396	-0.008480
O4	O	0.566157	0.041417	0.132313
O5	O	0.574888	-0.041563	-0.008468
O6	O	0.500119	-0.041542	0.066297
O7	O	0.640912	-0.041563	0.057560
Zn8	Zn	0.570513	-0.054724	0.061930
Zn9	Zn	0.570532	0.054578	0.061915
O10	O	0.566143	-0.041543	0.132325
C11	C	0.482120	-0.000060	0.066106
C12	C	0.428465	-0.000052	0.065551
N13	N	0.570504	-0.129320	0.061940
C14	C	0.051392	-0.000087	0.017583
C15	C	0.253053	-0.000074	0.019630
O16	O	0.284305	-0.000098	-0.017591
N17	N	0.272180	-0.000066	0.063964
C18	C	0.240889	-0.000064	0.107790
O19	O	0.261785	-0.000061	0.145546
C20	C	0.039230	-0.000080	0.105743
C21	C	0.020105	-0.000084	0.061406
C22	C	0.032267	-0.000092	-0.026750
C23	C	-0.018145	-0.000092	-0.027261
C24	C	-0.049432	-0.000089	0.016561
C25	C	-0.030307	-0.000085	0.060895
C26	C	0.007940	-0.000082	0.149568
C27	C	-0.042478	-0.000087	0.149053
C28	C	-0.061602	-0.000091	0.104716
C29	C	-0.112006	-0.000082	0.104206
N30	N	-0.131134	-0.000090	0.059872
C31	C	-0.099846	-0.000094	0.016049
C32	C	0.346763	-0.000054	0.108861
C33	C	0.397178	-0.000049	0.109373
C34	C	0.409338	-0.000060	0.021213
C35	C	0.358923	-0.000062	0.020701
C36	C	0.327636	-0.000062	0.064527
C37	C	-0.205716	-0.000095	0.014979
C38	C	-0.256133	-0.000093	0.014472
C39	C	-0.268289	-0.000084	0.102632
C40	C	-0.217876	-0.000083	0.103140
C41	C	-0.186590	-0.000090	0.059309
O42	O	-0.143287	-0.000063	0.141407
O43	O	-0.120752	-0.000107	-0.021701
C44	C	0.101804	-0.000087	0.018094
C45	C	0.120930	-0.000083	0.062428
C46	C	0.089642	-0.000079	0.106250
C47	C	0.171344	-0.000078	0.062940
C48	C	0.202631	-0.000081	0.019117
C49	C	0.183504	-0.000090	-0.025217
C50	C	0.133092	-0.000090	-0.025728
C51	C	0.108770	-0.000071	0.150585
C52	C	0.159183	-0.000069	0.151092
C53	C	0.190470	-0.000073	0.107270
C54	C	0.603635	-0.473955	0.028817
C55	C	0.603647	-0.682833	0.028810
O56	O	0.631796	-0.709845	0.000651
N57	N	0.570534	-0.708947	0.061904
C58	C	0.537415	-0.682839	0.095001
O59	O	0.509248	-0.709843	0.123147
C60	C	0.537402	-0.473962	0.095006
C61	C	0.570519	-0.447851	0.061912
C62	C	0.636750	-0.447844	-0.004274
C63	C	0.636748	-0.395628	-0.004270
C64	C	0.603632	-0.369523	0.028825
C65	C	0.570518	-0.395634	0.061916
C66	C	0.504280	-0.447855	0.128100
C67	C	0.504279	-0.395632	0.128097
C68	C	0.537397	-0.369521	0.095004
C69	C	0.537400	-0.317313	0.095015
N70	N	0.570512	-0.291199	0.061921
C71	C	0.603628	-0.317304	0.028826
C72	C	0.537425	-0.792502	0.094997
C73	C	0.537429	-0.844721	0.094996
C74	C	0.603660	-0.844712	0.028804
C75	C	0.603658	-0.792492	0.028808
C76	C	0.570537	-0.766388	0.061902
C77	C	0.603623	-0.207646	0.028837
C78	C	0.603620	-0.155425	0.028845
C79	C	0.537387	-0.155439	0.095035
C80	C	0.537392	-0.207655	0.095029
C81	C	0.570512	-0.233757	0.061926
O82	O	0.509262	-0.290269	0.123156
O83	O	0.631784	-0.290290	0.000677
C84	C	0.603637	-0.526172	0.028813
C85	C	0.570522	-0.552283	0.061904
C86	C	0.537406	-0.526178	0.095000
C87	C	0.570526	-0.604502	0.061904
C88	C	0.603642	-0.630607	0.028809
C89	C	0.636754	-0.604493	-0.004286
C90	C	0.636753	-0.552277	-0.004282
C91	C	0.504294	-0.552293	0.128094
C92	C	0.504298	-0.604509	0.128088
C93	C	0.537414	-0.630614	0.094993
C94	C	0.658925	-0.000085	0.057739
C95	C	0.712580	-0.000090	0.058295
C96	C	0.574712	-0.000085	-0.026481
C97	C	0.574159	-0.000089	-0.080136
N98	N	0.570545	0.129174	0.061901
C99	C	0.614862	-0.000069	-0.418948
C100	C	0.612811	-0.000062	-0.620608
O101	O	0.650032	-0.000046	-0.651862
N102	N	0.568476	-0.000056	-0.639735
C103	C	0.524651	-0.000048	-0.608442
O104	O	0.486895	-0.000037	-0.629338
C105	C	0.526703	-0.000052	-0.406784
C106	C	0.571040	-0.000063	-0.387660
C107	C	0.659196	-0.000080	-0.399824
C108	C	0.659709	-0.000084	-0.349412
C109	C	0.615887	-0.000078	-0.318124
C110	C	0.571553	-0.000067	-0.337248
C111	C	0.482878	-0.000040	-0.375493
C112	C	0.483395	-0.000040	-0.325075
C113	C	0.527733	-0.000051	-0.305952
C114	C	0.528243	-0.000066	-0.255548
N115	N	0.572578	-0.000072	-0.236422
C116	C	0.616400	-0.000078	-0.267710
C117	C	0.523577	-0.000047	-0.714317
C118	C	0.523064	-0.000047	-0.764731
C119	C	0.611225	-0.000060	-0.776893
C120	C	0.611737	-0.000064	-0.726478
C121	C	0.567912	-0.000053	-0.695190
C122	C	0.617472	-0.000088	-0.161841
C123	C	0.617981	-0.000095	-0.111424
C124	C	0.529821	-0.000079	-0.099266
C125	C	0.529312	-0.000075	-0.149679
C126	C	0.573142	-0.000078	-0.180965
O127	O	0.491043	-0.000076	-0.224267
O128	O	0.654151	-0.000078	-0.246805
C129	C	0.614350	-0.000065	-0.469360
C130	C	0.570016	-0.000054	-0.488484
C131	C	0.526194	-0.000048	-0.457196
C132	C	0.569503	-0.000054	-0.538899
C133	C	0.613325	-0.000060	-0.570187
C134	C	0.657660	-0.000066	-0.551060
C135	C	0.658172	-0.000071	-0.500648
C136	C	0.481859	-0.000041	-0.476323
C137	C	0.481351	-0.000037	-0.526735
C138	C	0.525172	-0.000044	-0.558023
C139	C	0.566333	-0.000060	0.150326
C140	C	0.566886	-0.000053	0.203981
H141	H	-0.180248	-0.000100	-0.020712
C142	C	0.434103	-0.000025	-0.396516
C143	C	0.397797	-0.043093	-0.384556
C144	C	0.349018	-0.043076	-0.405576
C145	C	0.336545	0.000008	-0.438556
C146	C	0.372851	0.043079	-0.450517
C147	C	0.421630	0.043063	-0.429497
H148	H	0.407030	-0.074989	-0.360141
H149	H	0.322142	-0.074960	-0.396721
H150	H	0.300435	0.000020	-0.454116
H151	H	0.363618	0.074975	-0.474932
H152	H	0.448507	0.074947	-0.438352
H153	H	0.646906	-0.000065	-0.802377
H154	H	0.447706	-0.000031	-0.299603
C155	C	0.500965	-0.236379	0.131434
C156	C	0.445930	-0.229195	0.130998
C157	C	0.409498	-0.257914	0.167401
C158	C	0.428102	-0.293816	0.204241
C159	C	0.483140	-0.301002	0.204679
C160	C	0.519572	-0.272283	0.168275
H161	H	0.432156	-0.202616	0.103726
H162	H	0.368756	-0.252594	0.167077
H163	H	0.401133	-0.315075	0.231189
H164	H	0.496914	-0.327581	0.231951
H165	H	0.560314	-0.277603	0.168600
C166	C	0.467866	-0.633229	0.164494
C167	C	0.412831	-0.626045	0.164052
C168	C	0.376397	-0.654763	0.200452
C169	C	0.394997	-0.690664	0.237295
C170	C	0.450034	-0.697850	0.237738
C171	C	0.486469	-0.669132	0.201338
H172	H	0.399060	-0.599467	0.136777
H173	H	0.335655	-0.649444	0.200124
H174	H	0.368026	-0.711923	0.264241
H175	H	0.463806	-0.724428	0.265013
H176	H	0.527211	-0.674451	0.201666
C177	C	0.501003	-0.873441	0.131403
C178	C	0.519609	-0.909337	0.168247
C179	C	0.483179	-0.938054	0.204653
C180	C	0.428144	-0.930876	0.204215
C181	C	0.409535	-0.894978	0.167370
C182	C	0.445964	-0.866261	0.130964
H183	H	0.560352	-0.914652	0.168572
H184	H	0.496955	-0.964628	0.231928
H185	H	0.401177	-0.952134	0.231165
H186	H	0.368792	-0.889663	0.167045
H187	H	0.432188	-0.839687	0.103689
H188	H	0.477306	-0.374381	0.155047
H189	H	0.117526	-0.000093	-0.061832
H190	H	0.510426	-0.134176	0.121982
H191	H	0.486960	-0.000046	-0.780296
H192	H	0.023501	-0.000077	0.185672
C193	C	0.640050	-0.126703	-0.007561
C194	C	0.676474	-0.155421	-0.043967
C195	C	0.712902	-0.126701	-0.080372
C196	C	0.712905	-0.069262	-0.080372
C197	C	0.676480	-0.040540	-0.043965
C198	C	0.640052	-0.069261	-0.007560
H199	H	0.676473	-0.197944	-0.043968
H200	H	0.739866	-0.147963	-0.107323
H201	H	0.739871	-0.048002	-0.107322
H202	H	0.676481	0.001982	-0.043964
H203	H	0.613087	-0.047999	0.019391
C204	C	0.708480	-0.000089	-0.328379
C205	C	0.720963	0.042988	-0.295395
C206	C	0.769737	0.042986	-0.274366
C207	C	0.806029	-0.000094	-0.286320
C208	C	0.793546	-0.043175	-0.319305
C209	C	0.744772	-0.043173	-0.340335
H210	H	0.694098	0.074882	-0.286545
H211	H	0.778977	0.074878	-0.249947
H212	H	0.842134	-0.000095	-0.270752
H213	H	0.820412	-0.075068	-0.328156
H214	H	0.735533	-0.075064	-0.364753
C215	C	0.707406	-0.000089	-0.434236
C216	C	0.743828	-0.043178	-0.432311
C217	C	0.792042	-0.043192	-0.466718
C218	C	0.803833	-0.000118	-0.503051
C219	C	0.767410	0.042974	-0.504977
C220	C	0.719197	0.042988	-0.470570
H221	H	0.735100	-0.075066	-0.405414
H222	H	0.819004	-0.075091	-0.465292
H223	H	0.839524	-0.000128	-0.528521
H224	H	0.776138	0.074863	-0.531874
H225	H	0.692234	0.074887	-0.471996
C226	C	-0.039175	-0.000103	-0.076034
C227	C	-0.072156	-0.043188	-0.088509
C228	C	-0.093181	-0.043202	-0.137285
C229	C	-0.081226	-0.000131	-0.173587
C230	C	-0.048244	0.042957	-0.161114
C231	C	-0.027218	0.042971	-0.112338
H232	H	-0.081007	-0.075074	-0.061635
H233	H	-0.117597	-0.075098	-0.146518
H234	H	-0.096790	-0.000141	-0.209694
H235	H	-0.039392	0.074843	-0.187988
H236	H	-0.002803	0.074867	-0.103104
C237	C	0.640085	-0.763772	-0.007599
C238	C	0.621476	-0.727878	-0.044442
C239	C	0.657904	-0.699161	-0.080851
C240	C	0.712940	-0.706339	-0.080416
C241	C	0.731551	-0.742235	-0.043571
C242	C	0.695124	-0.770951	-0.007162
H243	H	0.580733	-0.722563	-0.044765
H244	H	0.644126	-0.672588	-0.108126
H245	H	0.739906	-0.685081	-0.107368
H246	H	0.772295	-0.747550	-0.043248
H247	H	0.708901	-0.797524	0.020113
C248	C	0.673180	-0.523558	-0.040688
C249	C	0.672781	-0.530742	-0.095729
C250	C	0.709210	-0.502027	-0.132138
C251	C	0.746037	-0.466128	-0.113506
C252	C	0.746438	-0.458942	-0.058463
C253	C	0.710009	-0.487657	-0.022054
H254	H	0.645518	-0.557318	-0.109523
H255	H	0.708913	-0.507347	-0.172884
H256	H	0.773004	-0.444871	-0.140458
H257	H	0.773701	-0.432366	-0.044668
H258	H	0.710305	-0.482337	0.018693
H259	H	0.477313	-0.469107	0.155047
C260	C	0.217926	-0.000095	-0.073422
C261	C	0.254257	-0.043176	-0.085182
C262	C	0.288681	-0.043184	-0.133384
C263	C	0.286775	-0.000112	-0.169827
C264	C	0.250443	0.042972	-0.158069
C265	C	0.216019	0.042981	-0.109867
H266	H	0.255669	-0.075063	-0.058203
H267	H	0.315577	-0.075078	-0.142088
H268	H	0.312259	-0.000118	-0.205509
H269	H	0.249031	0.074860	-0.185047
H270	H	0.189123	0.074875	-0.101162
H271	H	0.083300	-0.000068	0.186271
C272	C	0.673173	-0.366908	-0.040678
C273	C	0.672771	-0.374093	-0.095718
C274	C	0.709196	-0.345376	-0.132129
C275	C	0.746023	-0.309474	-0.113500
C276	C	0.746427	-0.302288	-0.058458
C277	C	0.710002	-0.331004	-0.022046
H278	H	0.645508	-0.400671	-0.109510
H279	H	0.708897	-0.350696	-0.172875
H280	H	0.772987	-0.288217	-0.140454
H281	H	0.773689	-0.275710	-0.044665
H282	H	0.710301	-0.325684	0.018700
H283	H	0.494142	-0.000076	-0.073782
C284	C	0.066678	-0.000092	-0.074961
C285	C	0.064759	-0.043171	-0.111395
C286	C	0.099166	-0.043167	-0.159609
C287	C	0.135491	-0.000083	-0.171389
C288	C	0.137410	0.042999	-0.134953
C289	C	0.103004	0.042995	-0.086739
H290	H	0.037868	-0.075067	-0.102676
H291	H	0.097744	-0.075059	-0.186581
H292	H	0.160960	-0.000080	-0.207080
H293	H	0.164301	0.074895	-0.143672
H294	H	0.104425	0.074887	-0.059767
H295	H	0.477326	-0.531042	0.155044
C296	C	0.640086	-0.873434	-0.007603
C297	C	0.621469	-0.909335	-0.044438
C298	C	0.657889	-0.938059	-0.080846
C299	C	0.712927	-0.930883	-0.080420
C300	C	0.731547	-0.894981	-0.043584
C301	C	0.695126	-0.866256	-0.007176
H302	H	0.580724	-0.914648	-0.044755
H303	H	0.644105	-0.964637	-0.108114
H304	H	0.739888	-0.952147	-0.107371
H305	H	0.772292	-0.889668	-0.043267
H306	H	0.708910	-0.839679	0.020093
C307	C	0.660509	-0.000072	-0.705444
C308	C	0.696795	-0.043156	-0.717397
C309	C	0.745569	-0.043163	-0.696366
C310	C	0.758056	-0.000085	-0.663384
C311	C	0.721769	0.043002	-0.651430
C312	C	0.672995	0.043009	-0.672460
H313	H	0.687553	-0.075047	-0.741814
H314	H	0.772432	-0.075059	-0.705216
H315	H	0.794162	-0.000090	-0.647816
H316	H	0.731011	0.074894	-0.627013
H317	H	0.646132	0.074905	-0.663611
H318	H	0.446173	-0.000035	-0.450852
H319	H	0.663720	-0.625756	-0.031232
H320	H	0.434821	-0.000061	-0.014469
C321	C	0.180214	-0.000066	0.199868
C322	C	0.168258	-0.043145	0.236160
C323	C	0.189287	-0.043148	0.284935
C324	C	0.222273	-0.000071	0.297417
C325	C	0.234231	0.043011	0.261124
C326	C	0.213202	0.043014	0.212349
H327	H	0.143838	-0.075036	0.226921
H328	H	0.180435	-0.075041	0.311801
H329	H	0.237840	-0.000073	0.333522
H330	H	0.258651	0.074902	0.270363
H331	H	0.222054	0.074906	0.185483
H332	H	-0.067950	-0.000090	0.184742
H333	H	0.487888	-0.000039	-0.688846
C334	C	0.480543	-0.000065	-0.170721
C335	C	0.444238	-0.043137	-0.158780
C336	C	0.395469	-0.043120	-0.179820
C337	C	0.383006	-0.000033	-0.212801
C338	C	0.419312	0.043042	-0.224743
C339	C	0.468081	0.043026	-0.203703
H340	H	0.453463	-0.075036	-0.134365
H341	H	0.368593	-0.075007	-0.170979
H342	H	0.346904	-0.000021	-0.228376
H343	H	0.410087	0.074941	-0.249159
H344	H	0.494957	0.074912	-0.212544
C345	C	-0.196832	-0.000073	0.151908
C346	C	-0.208782	-0.043147	0.188208
C347	C	-0.187741	-0.043142	0.236976
C348	C	-0.154750	-0.000063	0.249444
C349	C	-0.142799	0.043014	0.213143
C350	C	-0.163840	0.043009	0.164375
H351	H	-0.233205	-0.075039	0.178979
H352	H	-0.196588	-0.075030	0.263848
H353	H	-0.139174	-0.000059	0.285545
H354	H	-0.118376	0.074906	0.222372
H355	H	-0.154993	0.074897	0.137503
C356	C	0.432574	-0.000025	-0.547766
C357	C	0.396268	-0.043095	-0.535814
C358	C	0.347493	-0.043078	-0.556843
C359	C	0.335024	0.000009	-0.589822
C360	C	0.371331	0.043081	-0.601775
C361	C	0.420106	0.043064	-0.580747
H362	H	0.405498	-0.074993	-0.511400
H363	H	0.320617	-0.074963	-0.547994
H364	H	0.298918	0.000021	-0.605388
H365	H	0.362101	0.074979	-0.626189
H366	H	0.446982	0.074949	-0.589595
H367	H	0.510453	-0.771252	0.121948
H368	H	0.694276	-0.000080	-0.485083
H369	H	-0.271701	-0.000095	-0.021634
H370	H	0.343355	-0.000065	-0.015402
H371	H	0.412744	-0.000039	0.145477
H372	H	0.321293	-0.000054	0.144551
H373	H	-0.293772	-0.000079	0.138311
H374	H	0.693341	-0.000074	-0.576544
H375	H	0.630592	-0.228893	0.001881
H376	H	0.663717	-0.469094	-0.031226
H377	H	0.653163	-0.000089	-0.187309
H378	H	0.654087	-0.000105	-0.095857
