data_functionalizedCrystal
_audit_creation_method	'MofGen! by Chris Wilmer'
_symmetry_space_group_name_H-M	'P1'
_symmetry_Int_Tables_number	1
_symmetry_cell_setting	triclinic
loop_
_symmetry_equiv_pos_as_xyz
  x,y,z
_cell_length_a	18.101395
_cell_length_b	21.395364
_cell_length_c	21.395355
_cell_angle_alpha	89.974702
_cell_angle_beta	90.018571
_cell_angle_gamma	89.951348
loop_
_atom_site_label
_atom_site_type_symbol
_atom_site_fract_x
_atom_site_fract_y
_atom_site_fract_z
Zn1	Zn	-0.294585	-0.957854	0.354274
Zn2	Zn	-0.418409	-0.957754	0.249496
Zn3	Zn	-0.294622	-0.853069	0.249509
Zn4	Zn	-0.418426	-0.853036	0.354235
O5	O	-0.356510	-0.905428	0.301878
O6	O	-0.310989	-1.045518	0.340386
O7	O	-0.401996	-0.943839	0.161820
O8	O	-0.190984	-0.867024	0.263428
O9	O	-0.401961	-1.045445	0.263406
O10	O	-0.190957	-0.944009	0.340398
O11	O	-0.311050	-0.866928	0.161829
O12	O	-0.311067	-0.765387	0.263390
O13	O	-0.401990	-0.866968	0.441918
O14	O	-0.402025	-0.765362	0.340332
O15	O	-0.311005	-0.943977	0.441946
O16	O	-0.522044	-0.943807	0.263368
O17	O	-0.522056	-0.866871	0.340319
C18	C	-0.356552	-0.742640	0.301859
C19	C	-0.356588	-0.672999	0.301865
C20	C	-0.309297	-0.640347	0.342010
C21	C	-0.309280	-0.574911	0.342012
C22	C	-0.356567	-0.542131	0.301875
C23	C	-0.403861	-0.574791	0.261722
C24	C	-0.403871	-0.640226	0.261717
C25	C	-0.423263	-0.438405	0.296836
C26	C	-0.423253	-0.372972	0.296845
C27	C	-0.356533	-0.340310	0.301886
C28	C	-0.289820	-0.373089	0.306931
C29	C	-0.289831	-0.438523	0.306926
C30	C	-0.356560	-0.471179	0.301875
C31	C	-0.309220	-0.236705	0.342035
C32	C	-0.309201	-0.171268	0.342032
C33	C	-0.403788	-0.171150	0.261746
C34	C	-0.403800	-0.236585	0.261746
C35	C	-0.356517	-0.269359	0.301893
C36	C	-0.548921	-0.905342	0.301852
C37	C	-0.631235	-0.905362	0.301862
C38	C	-0.781943	-0.905434	0.301886
C39	C	-0.813336	-0.857003	0.350265
C40	C	-0.898954	-0.857186	0.350469
C41	C	-0.930326	-0.905504	0.301911
C42	C	-0.899124	-0.971561	0.319675
C43	C	-0.813480	-0.971240	0.320012
C44	C	-0.813571	-0.888401	0.235628
C45	C	-0.899224	-0.886985	0.235995
C46	C	-1.014185	-0.905547	0.301924
C47	C	-0.698084	-0.905395	0.301875
C48	C	-0.163348	-0.905532	0.301919
C49	C	-0.081034	-0.905576	0.301936
C50	C	-0.356495	-0.905480	0.465302
C51	C	-0.356489	-0.905502	0.534943
C52	C	-0.356478	-0.068851	0.301895
C53	C	-0.356487	-0.138493	0.301894
C54	C	-0.356472	-0.905412	0.139091
C55	C	-0.356270	-0.905512	0.069450
C56	C	-0.309111	-0.945599	0.567672
C57	C	-0.309079	-0.945599	0.633107
C58	C	-0.356439	-0.905507	0.665811
C59	C	-0.403820	-0.865402	0.633075
C60	C	-0.403845	-0.865400	0.567640
C61	C	-0.423122	-0.900530	0.769477
C62	C	-0.423098	-0.900537	0.834910
C63	C	-0.356360	-0.905511	0.867632
C64	C	-0.289645	-0.910492	0.834914
C65	C	-0.289670	-0.910489	0.769480
C66	C	-0.356416	-0.905505	0.736764
C67	C	-0.308944	-0.945609	0.971314
C68	C	-0.308911	-0.945604	1.036751
C69	C	-0.403658	-0.865411	1.036716
C70	C	-0.403684	-0.865413	0.971281
C71	C	-0.356328	-0.905516	0.938584
H72	H	-0.270767	-0.548320	0.374701
O73	O	-0.257809	-0.988855	1.072056
H74	H	-0.224892	-1.016742	1.038324
O75	O	-0.257963	-0.988846	0.668407
H76	H	-0.220274	-0.960820	0.698198
O77	O	-0.257867	-0.988860	0.936045
H78	H	-0.265853	-0.982130	0.885045
H79	H	-0.793259	-0.923671	0.199584
O80	O	-0.454810	-0.271806	0.218446
H81	H	-0.492540	-0.301605	0.246426
O82	O	-0.454864	-0.539441	0.218430
H83	H	-0.446917	-0.488454	0.225182
O84	O	-0.926251	-0.822590	0.218244
H85	H	-0.904027	-0.809846	0.171607
O86	O	-0.217884	-0.473880	0.312361
H87	H	-0.210269	-0.503679	0.270399
O88	O	-0.926041	-0.872166	0.415509
H89	H	-0.987357	-0.872343	0.415884
O90	O	-0.258214	-0.272056	0.385329
H91	H	-0.266173	-0.323043	0.378588
O92	O	-0.454740	-0.822167	1.071979
H93	H	-0.446766	-0.828906	1.122979
O94	O	-0.258298	-0.675697	0.385306
H95	H	-0.220580	-0.705529	0.357317
H96	H	-0.442269	-0.832765	0.944633
O97	O	-0.495201	-0.337619	0.291392
H98	H	-0.541596	-0.371322	0.287869
H99	H	-0.920589	-0.919688	0.198039
H100	H	-0.270549	-0.978253	0.541054
H101	H	-0.477598	-0.464993	0.292730
O102	O	-0.786946	-0.990306	0.384170
H103	H	-0.835285	-0.999668	0.414663
H104	H	-0.920057	-0.808210	0.339365
H105	H	-0.477453	-0.896312	0.742840
H106	H	-0.235348	-0.914543	0.742843
H107	H	-0.235490	-0.346497	0.311036
O108	O	-0.454787	-0.135798	0.218454
H109	H	-0.441995	-0.148340	0.169299
O110	O	-0.495049	-0.895159	0.870198
H111	H	-0.541458	-0.891684	0.836453
H112	H	-0.235301	-0.914543	0.861555
O113	O	-0.258190	-0.136045	0.385331
H114	H	-0.225320	-0.169830	0.413249
H115	H	-0.442378	-0.832758	0.659706
H116	H	-0.920525	-0.986247	0.367580
O117	O	-0.454931	-0.822137	0.532333
H118	H	-0.487854	-0.794253	0.566065
O119	O	-0.454881	-0.675450	0.218418
H120	H	-0.487762	-0.641666	0.190508
H121	H	-0.791773	-0.868155	0.399081
O122	O	-0.786168	-0.791895	0.335736
H123	H	-0.749996	-0.793355	0.293881
H124	H	-0.792704	-1.008566	0.286300
O125	O	-0.785075	-0.825655	0.214157
H126	H	-0.832353	-0.793505	0.206385
O127	O	-0.926463	-1.020772	0.274721
H128	H	-0.962606	-0.998607	0.239119
