data_functionalizedCrystal
_audit_creation_method	'MofGen! by Chris Wilmer'
_symmetry_space_group_name_H-M	'P1'
_symmetry_Int_Tables_number	1
_symmetry_cell_setting	triclinic
loop_
_symmetry_equiv_pos_as_xyz
  x,y,z
_cell_length_a	23.532407
_cell_length_b	23.532407
_cell_length_c	15.072220
_cell_angle_alpha	89.994175
_cell_angle_beta	89.992868
_cell_angle_gamma	82.848678
loop_
_atom_site_label
_atom_site_type_symbol
_atom_site_fract_x
_atom_site_fract_y
_atom_site_fract_z
O1	O	0.755267	0.069131	-0.073681
O2	O	1.255267	0.569131	0.426319
O3	O	0.589403	0.079134	-0.073708
O4	O	1.089403	0.579134	0.426292
O5	O	0.677336	-0.008799	-0.073677
O6	O	1.177336	0.491201	0.426323
O7	O	0.667333	0.157064	-0.073711
O8	O	1.167333	0.657064	0.426289
O9	O	0.677315	-0.008794	0.073888
O10	O	1.177315	0.491206	0.573888
O11	O	0.589382	0.079139	0.073857
O12	O	1.089382	0.579139	0.573857
O13	O	0.755245	0.069136	0.073884
O14	O	1.255245	0.569136	0.573884
Zn15	Zn	0.672310	0.074138	0.097300
Zn16	Zn	1.172310	0.574138	0.597300
Zn17	Zn	0.672338	0.074132	-0.097123
Zn18	Zn	1.172338	0.574132	0.402877
O19	O	0.667312	0.157069	0.073854
O20	O	1.167312	0.657069	0.573854
C21	C	0.568176	0.078882	0.000071
C22	C	1.068176	0.578882	0.500071
C23	C	0.504959	0.078116	0.000062
C24	C	1.004959	0.578116	0.500062
C25	C	0.105856	0.125350	0.000092
C26	C	0.605856	0.625350	0.500092
C27	C	0.046456	0.124638	0.000098
C28	C	0.546456	0.624638	0.500098
O29	O	0.009711	0.168424	0.000121
O30	O	0.509711	0.668424	0.500121
N31	N	0.023830	0.072362	0.000107
N32	N	0.523830	0.572362	0.500107
C33	C	0.060607	0.020794	0.000120
C34	C	0.560607	0.520794	0.500120
O35	O	0.035908	-0.023737	0.000129
O36	O	0.535908	0.476263	0.500129
C37	C	0.120006	0.021506	0.000120
C38	C	0.620006	0.521506	0.500120
C39	C	0.142629	0.073785	0.000102
C40	C	0.642629	0.573785	0.500102
C41	C	0.128479	0.177625	0.000075
C42	C	0.628479	0.677625	0.500075
C43	C	0.187876	0.178336	0.000067
C44	C	0.687876	0.678336	0.500067
C45	C	0.224649	0.126772	0.000078
C46	C	0.724649	0.626772	0.500078
C47	C	0.202025	0.074497	0.000095
C48	C	0.702025	0.574497	0.500095
C49	C	0.156783	-0.030062	0.000139
C50	C	0.656783	0.469938	0.500139
C51	C	0.216185	-0.029345	0.000141
C52	C	0.716185	0.470655	0.500141
C53	C	0.238808	0.022934	0.000123
C54	C	0.738808	0.522934	0.500123
C55	C	0.298194	0.023643	0.000098
C56	C	0.798194	0.523643	0.500098
N57	N	0.320820	0.075920	0.000088
N58	N	0.820820	0.575920	0.500088
C59	C	0.284048	0.127484	0.000078
C60	C	0.784048	0.627484	0.500078
C61	C	-0.064135	0.019302	0.000120
C62	C	0.435865	0.519302	0.500120
C63	C	-0.123533	0.018589	0.000112
C64	C	0.376467	0.518589	0.500112
C65	C	-0.137680	0.122434	0.000092
C66	C	0.362320	0.622434	0.500092
C67	C	-0.078281	0.123146	0.000093
C68	C	0.421719	0.623146	0.500093
C69	C	-0.041509	0.071578	0.000110
C70	C	0.458491	0.571578	0.500110
C71	C	0.408784	0.128974	0.000062
C72	C	0.908784	0.628974	0.500062
C73	C	0.468186	0.129680	0.000051
C74	C	0.968186	0.629680	0.500051
C75	C	0.482329	0.025836	0.000077
C76	C	0.982329	0.525836	0.500077
C77	C	0.422932	0.025129	0.000083
C78	C	0.922932	0.525129	0.500083
C79	C	0.386160	0.076702	0.000079
C80	C	0.886160	0.576702	0.500079
O81	O	0.334974	-0.020119	0.000078
O82	O	0.834974	0.479881	0.500078
O83	O	0.308755	0.172007	0.000081
O84	O	0.808755	0.672007	0.500081
C85	C	0.677071	-0.030013	0.000108
C86	C	1.177071	0.469987	0.500108
C87	C	0.676305	-0.093230	0.000114
C88	C	1.176305	0.406770	0.500114
C89	C	0.723539	-0.492333	0.000073
C90	C	1.223539	0.007667	0.500073
C91	C	0.722827	-0.551733	0.000066
C92	C	1.222827	-0.051733	0.500066
O93	O	0.766613	-0.588478	0.000041
O94	O	1.266613	-0.088478	0.500041
N95	N	0.670551	-0.574359	0.000059
N96	N	1.170551	-0.074359	0.500059
C97	C	0.618983	-0.537582	0.000048
C98	C	1.118983	-0.037582	0.500048
O99	O	0.574452	-0.562281	0.000040
O100	O	1.074452	-0.062281	0.500040
C101	C	0.619695	-0.478182	0.000049
C102	C	1.119695	0.021818	0.500049
C103	C	0.671974	-0.455560	0.000066
C104	C	1.171974	0.044440	0.500066
C105	C	0.775814	-0.469710	0.000089
C106	C	1.275814	0.030290	0.500089
C107	C	0.776525	-0.410313	0.000098
C108	C	1.276525	0.089687	0.500098
C109	C	0.724961	-0.373540	0.000090
C110	C	1.224961	0.126460	0.500090
C111	C	0.672685	-0.396164	0.000074
C112	C	1.172685	0.103836	0.500074
C113	C	0.568127	-0.441406	0.000032
C114	C	1.068127	0.058594	0.500032
C115	C	0.568844	-0.382004	0.000032
C116	C	1.068844	0.117996	0.500032
C117	C	0.621123	-0.359381	0.000049
C118	C	1.121123	0.140619	0.500049
C119	C	0.621832	-0.299995	0.000075
C120	C	1.121832	0.200005	0.500075
N121	N	0.674109	-0.277368	0.000083
N122	N	1.174109	0.222632	0.500083
C123	C	0.725673	-0.314141	0.000091
C124	C	1.225673	0.185859	0.500091
C125	C	0.617491	-0.662324	0.000046
C126	C	1.117491	-0.162324	0.500046
C127	C	0.616778	-0.721722	0.000052
C128	C	1.116778	-0.221722	0.500052
C129	C	0.720623	-0.735869	0.000068
C130	C	1.220623	-0.235869	0.500068
C131	C	0.721335	-0.676470	0.000069
C132	C	1.221335	-0.176470	0.500069
C133	C	0.669767	-0.639698	0.000054
C134	C	1.169767	-0.139698	0.500054
C135	C	0.727163	-0.189405	0.000109
C136	C	1.227163	0.310595	0.500109
C137	C	0.727869	-0.130003	0.000122
C138	C	1.227869	0.369997	0.500122
C139	C	0.624025	-0.115860	0.000101
C140	C	1.124025	0.384140	0.500101
C141	C	0.623318	-0.175257	0.000093
C142	C	1.123318	0.324743	0.500093
C143	C	0.674891	-0.212029	0.000094
C144	C	1.174891	0.287971	0.500094
O145	O	0.578070	-0.263215	0.000097
O146	O	1.078070	0.236785	0.500097
O147	O	0.770196	-0.289433	0.000087
O148	O	1.270196	0.210567	0.500087
C149	C	0.776472	0.069388	0.000103
C150	C	1.276472	0.569388	0.500103
C151	C	0.839689	0.070154	0.000107
C152	C	1.339689	0.570154	0.500107
C153	C	0.667577	0.178283	0.000067
C154	C	1.167577	0.678283	0.500067
C155	C	0.668343	0.241500	0.000054
C156	C	1.168343	0.741500	0.500054
N157	N	0.672294	0.074142	0.229989
N158	N	1.172294	0.574142	0.729989
N159	N	0.672358	0.074123	-0.229812
N160	N	1.172358	0.574123	0.270188
C161	C	0.672337	0.074130	0.589190
C162	C	1.172337	0.574130	1.089190
C163	C	0.625130	0.121025	0.551567
C164	C	1.125130	0.621025	1.051567
C165	C	0.625236	0.121195	0.448741
C166	C	1.125236	0.621195	0.948741
C167	C	0.672315	0.074136	0.410986
C168	C	1.172315	0.574136	0.910986
C169	C	0.731666	0.086779	0.448284
C170	C	1.231666	0.586779	0.948284
C171	C	0.731401	0.087112	0.551142
C172	C	1.231401	0.587112	1.051142
C173	C	0.660725	0.014450	0.551300
C174	C	1.160725	0.514450	1.051300
C175	C	0.659359	0.014856	0.448437
C176	C	1.159359	0.514856	0.948437
C177	C	0.672307	0.074138	0.310273
C178	C	1.172307	0.574138	0.810273
C179	C	0.672350	0.074128	0.689904
C180	C	1.172350	0.574128	1.189904
H181	H	-0.167632	0.164421	0.000088
H182	H	0.332368	0.664421	0.500088
N183	N	0.369139	0.184604	0.000054
N184	N	0.869139	0.684604	0.500054
H185	H	0.344180	0.186628	-0.054646
H186	H	0.844180	0.686628	0.445354
H187	H	0.344213	0.186602	0.054795
H188	H	0.844213	0.686602	0.554795
N189	N	-0.147930	-0.037797	0.000116
N190	N	0.352070	0.462203	0.500116
H191	H	-0.115616	-0.070352	0.000121
H192	H	0.384384	0.429648	0.500121
H193	H	-0.172268	-0.040356	0.054823
H194	H	0.327732	0.459644	0.554823
H195	H	0.138375	-0.072634	0.000155
H196	H	0.638375	0.427366	0.500155
H197	H	0.763906	-0.658056	0.000082
H198	H	1.263906	-0.158056	0.500082
N199	N	0.398527	-0.031256	0.000086
N200	N	0.898527	0.468744	0.500086
H201	H	0.430838	-0.063814	0.000086
H202	H	0.930838	0.436186	0.500086
H203	H	0.374191	-0.033813	0.054796
H204	H	0.874191	0.466187	0.554796
H205	H	-0.034198	-0.022693	0.000126
H206	H	0.465802	0.477307	0.500126
H207	H	0.525555	-0.459814	0.000013
H208	H	1.025555	0.040186	0.500013
H209	H	0.512280	-0.016146	0.000081
H210	H	1.012280	0.483854	0.500081
N211	N	0.601525	0.002156	0.416141
N212	N	1.101525	0.502156	0.916141
H213	H	0.606248	-0.034539	0.380667
H214	H	1.106248	0.465461	0.880667
H215	H	0.575800	-0.002127	0.468732
H216	H	1.075800	0.497873	0.968732
H217	H	0.526850	-0.352066	0.000019
H218	H	1.026850	0.147934	0.500019
N219	N	0.212272	0.234724	0.000043
N220	N	0.712272	0.734724	0.500043
H221	H	0.179956	0.267277	0.000038
H222	H	0.679956	0.767277	0.500038
H223	H	0.236605	0.237289	0.054745
H224	H	0.736605	0.737289	0.554745
H225	H	0.580748	-0.193677	0.000104
H226	H	1.080748	0.306323	0.500104
H227	H	0.695155	-0.020444	0.575631
H228	H	1.195155	0.479556	1.075631
N229	N	0.784259	-0.105603	0.000145
N230	N	1.284259	0.394397	0.500145
H231	H	0.816815	-0.137915	0.000146
H232	H	1.316815	0.362085	0.500146
H233	H	0.786826	-0.081260	-0.054555
H234	H	1.286826	0.418740	0.445445
N235	N	0.255847	-0.084966	0.000166
N236	N	0.755847	0.415034	0.500166
H237	H	0.232498	-0.118189	0.000178
H238	H	0.732498	0.381811	0.500178
H239	H	0.280804	-0.086940	-0.054539
H240	H	0.780804	0.413060	0.445461
H241	H	0.762610	-0.765821	0.000071
H242	H	1.262610	-0.265821	0.500071
H243	H	0.582043	-0.085909	0.000098
H244	H	1.082043	0.414091	0.500098
H245	H	0.574207	-0.740136	0.000053
H246	H	1.074207	-0.240136	0.500053
N247	N	0.566786	0.111285	0.415330
N248	N	1.066786	0.611285	0.915330
H249	H	0.540719	0.106768	0.467420
H250	H	1.040719	0.606768	0.967420
H251	H	0.550231	0.145073	0.378199
H252	H	1.050231	0.645073	0.878199
H253	H	0.580859	0.113670	0.576323
H254	H	1.080859	0.613670	1.076323
H255	H	0.819097	-0.391900	0.000108
H256	H	1.319097	0.108100	0.500108
N257	N	0.782787	-0.229060	0.000111
N258	N	1.282787	0.270940	0.500111
H259	H	0.816007	-0.205707	0.000124
H260	H	1.316007	0.294293	0.500124
H261	H	0.784747	-0.254017	0.054814
H262	H	1.284747	0.245983	0.554814
N263	N	0.831434	-0.509367	0.000098
N264	N	1.331434	-0.009367	0.500098
H265	H	0.864653	-0.486012	0.000109
H266	H	1.364653	0.013988	0.500109
H267	H	0.833394	-0.534320	0.054806
H268	H	1.333394	-0.034320	0.554806
N269	N	0.561868	-0.622664	0.000038
N270	N	1.061868	-0.122664	0.500038
H271	H	0.528647	-0.646015	0.000034
H272	H	1.028647	-0.146015	0.500034
H273	H	0.559891	-0.597714	0.054743
H274	H	1.059891	-0.097714	0.554743
N275	N	0.088822	0.233245	0.000114
N276	N	0.588822	0.733245	0.500114
H277	H	0.112176	0.266464	0.000120
H278	H	0.612176	0.766464	0.500120
H279	H	0.063860	0.235234	-0.054577
H280	H	0.563860	0.735234	0.445423
H281	H	0.632406	0.165070	0.577398
H282	H	1.132406	0.665070	1.077398
N283	N	0.634859	0.179908	0.416116
N284	N	1.134859	0.679908	0.916116
H285	H	0.639068	0.205775	0.468553
H286	H	1.139068	0.705775	0.968553
H287	H	0.670826	0.176785	0.378947
H288	H	1.170826	0.676785	0.878947
H289	H	-0.059867	0.165717	0.000083
H290	H	0.440133	0.665717	0.500083
N291	N	0.745024	0.144748	0.582908
N292	N	1.245024	0.644748	1.082908
H293	H	0.751143	0.169700	0.530095
H294	H	1.251143	0.669700	1.030095
H295	H	0.712097	0.163653	0.619705
H296	H	1.212097	0.663653	1.119705
H297	H	0.767609	0.054284	0.576029
H298	H	1.267609	0.554284	1.076029
H299	H	0.767620	0.053517	0.423827
H300	H	1.267620	0.553517	0.923827
H301	H	0.742205	0.129794	0.422508
H302	H	1.242205	0.629794	0.922508
H303	H	0.618404	0.002210	0.577287
H304	H	1.118404	0.502210	1.077287
H305	H	0.691535	-0.021650	0.422741
H306	H	1.191535	0.478350	0.922741
H307	H	0.486602	0.172255	0.000036
H308	H	0.986602	0.672255	0.500036
