data_functionalizedCrystal
_audit_creation_method	'MofGen! by Chris Wilmer'
_symmetry_space_group_name_H-M	'P1'
_symmetry_Int_Tables_number	1
_symmetry_cell_setting	triclinic
loop_
_symmetry_equiv_pos_as_xyz
  x,y,z
_cell_length_a	16.992694
_cell_length_b	15.455387
_cell_length_c	16.974813
_cell_angle_alpha	96.657409
_cell_angle_beta	92.975366
_cell_angle_gamma	87.192853
loop_
_atom_site_label
_atom_site_type_symbol
_atom_site_fract_x
_atom_site_fract_y
_atom_site_fract_z
O1	O	-1.043758	0.084056	0.171481
O2	O	-0.710425	0.417389	0.504814
O3	O	-0.377091	0.750723	0.838147
O4	O	-0.815470	0.083952	0.169637
O5	O	-0.482137	0.417286	0.502970
O6	O	-0.148803	0.750619	0.836303
O7	O	-0.935637	0.075922	0.055489
O8	O	-0.602303	0.409256	0.388822
O9	O	-0.268970	0.742589	0.722156
O10	O	-0.923591	0.092086	0.285628
O11	O	-0.590258	0.425419	0.618962
O12	O	-0.256925	0.758753	0.952295
O13	O	-0.929519	-0.068801	0.048888
O14	O	-0.596186	0.264532	0.382221
O15	O	-0.262853	0.597865	0.715555
O16	O	-0.809353	-0.060771	0.163036
O17	O	-0.476019	0.272562	0.496369
O18	O	-0.142686	0.605895	0.829702
O19	O	-1.037640	-0.060667	0.164880
O20	O	-0.704307	0.272666	0.498213
O21	O	-0.370974	0.605999	0.831546
Cu22	Cu	-0.922938	-0.073934	0.163355
Cu23	Cu	-0.589604	0.259400	0.496688
Cu24	Cu	-0.256271	0.592733	0.830022
Cu25	Cu	-0.930173	0.097219	0.171161
Cu26	Cu	-0.596839	0.430552	0.504495
Cu27	Cu	-0.263506	0.763885	0.837828
O28	O	-0.917474	-0.052637	0.279027
O29	O	-0.584140	0.280696	0.612361
O30	O	-0.250807	0.614029	0.945694
C31	C	-0.783194	0.011427	0.163963
C32	C	-0.449861	0.344760	0.497296
C33	C	-0.116528	0.678094	0.830629
C34	C	-0.696137	0.010940	0.156881
C35	C	-0.362804	0.344273	0.490214
C36	C	-0.029471	0.677606	0.823547
N37	N	-0.917855	-0.194313	0.157864
N38	N	-0.584522	0.139020	0.491198
N39	N	-0.251188	0.472354	0.824531
C40	C	-0.932006	0.001485	0.022605
C41	C	-0.598673	0.334818	0.355938
C42	C	-0.265340	0.668151	0.689271
C43	C	-0.930293	-0.004700	-0.065546
C44	C	-0.596960	0.328633	0.267788
C45	C	-0.263626	0.661966	0.601121
C46	C	-1.069916	0.011860	0.170554
C47	C	-0.736583	0.345193	0.503887
C48	C	-0.403249	0.678526	0.837220
C49	C	-1.156973	0.012353	0.177636
C50	C	-0.823640	0.345686	0.510969
C51	C	-0.490307	0.679019	0.844303
C52	C	-0.646026	0.015738	0.225215
C53	C	-0.312693	0.349072	0.558549
C54	C	0.020641	0.682405	0.891882
C55	C	-0.564226	0.015259	0.218555
C56	C	-0.230893	0.348592	0.551889
C57	C	0.102440	0.681925	0.885222
C58	C	-0.532540	0.009986	0.143561
C59	C	-0.199206	0.343320	0.476894
C60	C	0.134127	0.676653	0.810227
C61	C	-0.582657	0.005185	0.075221
C62	C	-0.249324	0.338518	0.408554
C63	C	0.084009	0.671851	0.741888
C64	C	-0.664455	0.005658	0.081881
C65	C	-0.331122	0.338992	0.415215
C66	C	0.002211	0.672325	0.748548
C67	C	-0.288889	0.008024	0.115957
C68	C	0.044444	0.341358	0.449290
C69	C	0.377778	0.674691	0.782623
C70	C	-0.207085	0.007554	0.109301
C71	C	0.126249	0.340887	0.442635
C72	C	0.459582	0.674221	0.775968
C73	C	-0.188659	0.017626	0.252636
C74	C	0.144674	0.350960	0.585970
C75	C	0.478008	0.684293	0.919303
C76	C	-0.270460	0.018105	0.259290
C77	C	0.062874	0.351438	0.592624
C78	C	0.396207	0.684771	0.925957
C79	C	-0.320570	0.013298	0.190951
C80	C	0.012763	0.346632	0.524284
C81	C	0.346097	0.679965	0.857617
N82	N	-0.448928	0.009499	0.136752
N83	N	-0.115594	0.342832	0.470085
N84	N	0.217739	0.676165	0.803418
N85	N	-0.404180	0.013780	0.197760
N86	N	-0.070847	0.347113	0.531093
N87	N	0.262487	0.680447	0.864427
N88	N	-0.935262	0.217597	0.176646
N89	N	-0.601928	0.550931	0.509979
N90	N	-0.268595	0.884264	0.843313
C91	C	-0.963474	0.763729	0.207029
C92	C	-0.630140	1.097063	0.540363
C93	C	-0.296807	1.430396	0.873696
C94	C	-0.959619	0.672631	0.202872
C95	C	-0.626285	1.005964	0.536205
C96	C	-0.292952	1.339298	0.869538
C97	C	-0.910140	0.623492	0.149552
C98	C	-0.576807	0.956825	0.482886
C99	C	-0.243473	1.290158	0.816219
C100	C	-0.864519	0.665455	0.100382
C101	C	-0.531186	0.998788	0.433715
C102	C	-0.197853	1.332122	0.767049
C103	C	-0.868379	0.756552	0.104536
C104	C	-0.535046	1.089885	0.437870
C105	C	-0.201713	1.423218	0.771203
C106	C	-0.893501	0.350657	0.131630
C107	C	-0.560168	0.683991	0.464963
C108	C	-0.226834	1.017324	0.798296
C109	C	-0.889643	0.259555	0.127481
C110	C	-0.556309	0.592888	0.460814
C111	C	-0.222976	0.926222	0.794148
C112	C	-0.984744	0.266737	0.229970
C113	C	-0.651410	0.600070	0.563304
C114	C	-0.318077	0.933404	0.896637
C115	C	-0.988596	0.357835	0.234123
C116	C	-0.655262	0.691168	0.567456
C117	C	-0.321929	1.024502	0.900790
C118	C	-0.942978	0.399790	0.184950
C119	C	-0.609645	0.733124	0.518283
C120	C	-0.276312	1.066457	0.851616
N121	N	-0.906196	0.530374	0.145303
N122	N	-0.572863	0.863708	0.478637
N123	N	-0.239530	1.197041	0.811970
N124	N	-0.946927	0.492906	0.189196
N125	N	-0.613593	0.826239	0.522529
N126	N	-0.280260	1.159572	0.855862
C127	C	-0.932825	0.071282	-0.103356
C128	C	-0.599491	0.404615	0.229977
C129	C	-0.266158	0.737949	0.563310
C130	C	-0.931210	0.065468	-0.186183
C131	C	-0.597876	0.398801	0.147150
C132	C	-0.264543	0.732135	0.480484
C133	C	-0.927069	-0.016330	-0.231198
C134	C	-0.593735	0.317004	0.102135
C135	C	-0.260402	0.650337	0.435469
C136	C	-0.924535	-0.092318	-0.193382
C137	C	-0.591201	0.241016	0.139952
C138	C	-0.257868	0.574349	0.473285
C139	C	-0.926144	-0.086503	-0.110556
C140	C	-0.592811	0.246831	0.222777
C141	C	-0.259477	0.580164	0.556111
C142	C	-0.921893	-0.042180	-0.479296
C143	C	-0.588560	0.291153	-0.145962
C144	C	-0.255226	0.624486	0.187371
C145	C	-0.920286	-0.047990	-0.562127
C146	C	-0.586953	0.285344	-0.228794
C147	C	-0.253619	0.618677	0.104540
C148	C	-0.926960	0.109797	-0.554922
C149	C	-0.593626	0.443130	-0.221589
C150	C	-0.260293	0.776463	0.111744
C151	C	-0.928574	0.115604	-0.472096
C152	C	-0.595240	0.448938	-0.138763
C153	C	-0.261907	0.782271	0.194571
C154	C	-0.926035	0.039616	-0.434287
C155	C	-0.592702	0.372950	-0.100953
C156	C	-0.259368	0.706283	0.232380
N157	N	-0.925421	-0.022275	-0.315860
N158	N	-0.592087	0.311059	0.017473
N159	N	-0.258754	0.644392	0.350806
N160	N	-0.927678	0.045562	-0.349625
N161	N	-0.594344	0.378896	-0.016292
N162	N	-0.261011	0.712229	0.317041
C163	C	-0.921104	0.021802	0.311912
C164	C	-0.587771	0.355135	0.645245
C165	C	-0.254438	0.688469	0.978578
C166	C	-0.922818	0.027993	0.400062
C167	C	-0.589484	0.361326	0.733396
C168	C	-0.256151	0.694659	1.066729
H169	H	-0.671818	0.020032	0.286284
H170	H	-0.338485	0.353366	0.619617
H171	H	-0.005152	0.686699	0.952951
H172	H	-0.849347	0.219548	0.084062
H173	H	-0.516014	0.552881	0.417395
H174	H	-0.182680	0.886214	0.750729
H175	H	-0.523428	0.019167	0.274201
H176	H	-0.190095	0.352501	0.607534
H177	H	0.143238	0.685834	0.940868
H178	H	-0.933275	0.127341	-0.216965
H179	H	-0.599941	0.460674	0.116369
H180	H	-0.266608	0.794008	0.449702
H181	H	-0.296253	0.022408	0.320359
H182	H	0.037081	0.355741	0.653693
H183	H	0.370414	0.689075	0.987026
H184	H	-1.003760	0.803733	0.250452
H185	H	-0.670427	1.137066	0.583786
H186	H	-0.337093	1.470399	0.917119
H187	H	-1.021883	0.232567	0.270004
H188	H	-0.688550	0.565900	0.603337
H189	H	-0.355216	0.899234	0.936670
H190	H	-0.147851	0.021538	0.308275
H191	H	0.185482	0.354871	0.641608
H192	H	0.518816	0.688204	0.974941
H193	H	-1.028889	0.397838	0.277539
H194	H	-0.695555	0.731172	0.610872
H195	H	-0.362222	1.064505	0.944206
H196	H	-0.831231	0.790712	0.064501
H197	H	-0.497898	1.124045	0.397834
H198	H	-0.164565	1.457379	0.731168
H199	H	-0.921158	-0.158919	-0.230039
H200	H	-0.587825	0.174414	0.103294
H201	H	-0.254492	0.507748	0.436628
H202	H	-0.916910	-0.114603	-0.598776
H203	H	-0.583577	0.218731	-0.265443
H204	H	-0.250243	0.552064	0.067891
H205	H	-0.996768	0.638473	0.242906
H206	H	-0.663435	0.971807	0.576239
H207	H	-0.330101	1.305140	0.909573
H208	H	-0.919842	-0.104056	-0.448523
H209	H	-0.586508	0.229278	-0.115189
H210	H	-0.253175	0.562611	0.218144
H211	H	-0.556851	0.000879	0.014158
H212	H	-0.223518	0.334213	0.347491
H213	H	0.109815	0.667546	0.680825
H214	H	-0.931946	0.182213	-0.435450
H215	H	-0.598613	0.515546	-0.102117
H216	H	-0.265280	0.848879	0.231216
H217	H	-0.924071	-0.148376	-0.079771
H218	H	-0.590738	0.184958	0.253562
H219	H	-0.257405	0.518291	0.586895
H220	H	-0.181289	0.003261	0.048229
H221	H	0.152044	0.336595	0.381562
H222	H	0.485377	0.669928	0.714896
H223	H	-0.824237	0.625438	0.056964
H224	H	-0.490903	0.958772	0.390298
H225	H	-0.157570	1.292105	0.723631
H226	H	-0.705256	0.001751	0.026236
H227	H	-0.371923	0.335084	0.359569
H228	H	-0.038589	0.668418	0.692903
H229	H	-0.329679	0.004110	0.060309
H230	H	0.003654	0.337443	0.393642
H231	H	0.336987	0.670777	0.726976
H232	H	-0.929025	0.171662	-0.585716
H233	H	-0.595691	0.504995	-0.252383
H234	H	-0.262358	0.838328	0.080951
H235	H	-0.936201	0.137891	-0.066711
H236	H	-0.602867	0.471224	0.266622
H237	H	-0.269534	0.804557	0.599956
H238	H	-0.856356	0.384806	0.091589
H239	H	-0.523023	0.718140	0.424922
H240	H	-0.189690	1.051473	0.758256
