data_functionalizedCrystal
_audit_creation_method	'MofGen! by Chris Wilmer'
_symmetry_space_group_name_H-M	'P1'
_symmetry_Int_Tables_number	1
_symmetry_cell_setting	triclinic
loop_
_symmetry_equiv_pos_as_xyz
  x,y,z
_cell_length_a	12.645331
_cell_length_b	25.639239
_cell_length_c	12.645323
_cell_angle_alpha	90.031874
_cell_angle_beta	90.022676
_cell_angle_gamma	90.037665
loop_
_atom_site_label
_atom_site_type_symbol
_atom_site_fract_x
_atom_site_fract_y
_atom_site_fract_z
Zn1	Zn	1.620577	-0.208161	0.599395
Zn2	Zn	1.620393	-0.295600	0.422113
Zn3	Zn	1.443291	-0.208179	0.422139
Zn4	Zn	1.443208	-0.295566	0.599328
O5	O	1.531867	-0.251876	0.510744
O6	O	1.768900	-0.219767	0.575895
O7	O	1.596858	-0.284025	0.273769
O8	O	1.466920	-0.135011	0.445691
O9	O	1.768765	-0.284008	0.445647
O10	O	1.597171	-0.134998	0.575920
O11	O	1.466742	-0.219797	0.273788
O12	O	1.294933	-0.219764	0.445627
O13	O	1.466778	-0.283949	0.747685
O14	O	1.294872	-0.283967	0.575807
O15	O	1.597090	-0.219734	0.747733
O16	O	1.596778	-0.368760	0.445582
O17	O	1.466600	-0.368735	0.575782
C18	C	1.256438	-0.251864	0.510713
C19	C	1.138607	-0.251871	0.510725
C20	C	0.971047	-0.211295	0.429281
C21	C	1.093606	-0.211400	0.428922
C22	C	1.094046	-0.306949	0.480197
C23	C	0.971448	-0.306727	0.479641
C24	C	0.971468	-0.237893	0.623013
C25	C	1.094075	-0.236663	0.622389
C26	C	1.531689	-0.387719	0.510695
C27	C	1.531710	-0.445833	0.510710
C28	C	1.599827	-0.806196	0.443064
C29	C	1.599869	-0.860801	0.443079
O30	O	1.657600	-0.889038	0.385511
N31	N	1.532054	-0.888115	0.510814
C32	C	1.464201	-0.860823	0.578547
O33	O	1.406523	-0.889070	0.636163
C34	C	1.464166	-0.806219	0.578538
C35	C	1.531978	-0.778908	0.510790
C36	C	1.667635	-0.778884	0.375323
C37	C	1.667592	-0.724284	0.375308
C38	C	1.599742	-0.696995	0.443034
C39	C	1.531935	-0.724307	0.510775
C40	C	1.396319	-0.778928	0.646275
C41	C	1.396290	-0.724321	0.646260
C42	C	1.464102	-0.697009	0.578513
C43	C	1.464042	-0.642418	0.578485
N44	N	1.531857	-0.615103	0.510750
C45	C	1.599707	-0.642392	0.443024
C46	C	1.464281	-0.975493	0.578564
C47	C	1.464309	-1.030096	0.578569
C48	C	1.599979	-1.030070	0.443101
C49	C	1.599944	-0.975466	0.443092
C50	C	1.532096	-0.948179	0.510828
C51	C	1.599611	-0.527727	0.442997
C52	C	1.599560	-0.473122	0.442984
C53	C	1.463894	-0.473152	0.578455
C54	C	1.463942	-0.527753	0.578464
C55	C	1.531809	-0.555039	0.510731
O56	O	1.406343	-0.614146	0.636027
O57	O	1.657385	-0.614138	0.385428
C58	C	1.808372	-0.251889	0.510775
C59	C	1.926203	-0.251895	0.510788
C60	C	1.531945	-0.251836	0.787249
C61	C	1.531979	-0.251819	0.905079
C62	C	1.532075	-0.115503	0.510816
C63	C	1.532164	-0.057389	0.510846
C64	C	1.531850	-0.251879	0.235314
C65	C	1.532023	-0.251749	0.117485
C66	C	1.449747	-0.292026	1.072613
C67	C	1.449962	-0.292225	0.950053
C68	C	1.643667	-0.266773	0.949595
C69	C	1.643216	-0.267025	1.072194
C70	C	1.503578	-0.196432	1.072291
C71	C	1.501086	-0.196764	0.949684
H72	H	0.942793	-0.318601	0.397599
H73	H	1.408649	-0.450925	0.633594
H74	H	1.341094	-0.801156	0.701438
N75	N	1.345527	-0.280404	1.109563
N76	N	1.273576	-0.270373	1.044903
H77	H	1.199967	-0.262164	1.071005
H78	H	1.341041	-0.702106	0.701423
N79	N	1.346068	-0.280478	0.912288
N80	N	1.303448	-0.238078	0.935970
H81	H	1.230067	-0.229783	0.909304
H82	H	1.468338	-0.332779	1.103422
H83	H	1.722892	-0.801097	0.320173
N84	N	1.473551	-0.343668	0.913273
N85	N	1.489914	-0.379535	0.978149
H86	H	1.506577	-0.415869	0.952176
N87	N	1.130625	-0.185820	0.651287
N88	N	1.184911	-0.179820	0.733028
H89	H	1.210727	-0.143912	0.753438
H90	H	1.124693	-0.319027	0.399035
N91	N	0.932733	-0.188391	0.657834
N92	N	0.871285	-0.162827	0.600353
H93	H	0.843925	-0.127865	0.624935
H94	H	1.667331	-0.307463	1.100794
N95	N	0.934104	-0.159904	0.452997
N96	N	0.880804	-0.135325	0.386348
H97	H	0.854705	-0.099027	0.403095
N98	N	0.932320	-0.222773	0.325575
N99	N	0.871838	-0.260724	0.311434
H100	H	0.844485	-0.268832	0.238192
H101	H	1.123193	-0.338007	0.537699
H102	H	1.706594	-0.238962	1.101879
N103	N	1.130335	-0.223003	0.324595
N104	N	1.106017	-0.193896	0.249154
H105	H	1.131955	-0.202092	0.175468
N106	N	1.674466	-0.316968	0.911097
N107	N	1.756787	-0.321708	0.857264
H108	H	1.778536	-0.357159	0.830077
N109	N	0.935125	-0.274994	0.699206
N110	N	0.957138	-0.322223	0.688495
H111	H	0.931475	-0.348428	0.742301
N112	N	1.394651	-0.555646	0.647653
N113	N	1.334068	-0.531272	0.708109
H114	H	1.285133	-0.550968	0.756980
H115	H	1.423555	-0.182801	1.103198
H116	H	1.124713	-0.264076	0.686368
N117	N	1.397974	-0.182621	0.913182
N118	N	1.347369	-0.212947	0.854531
H119	H	1.274545	-0.202960	0.828746
N120	N	0.934239	-0.345963	0.550862
N121	N	0.998818	-0.373424	0.600813
H122	H	0.972544	-0.401137	0.651108
N123	N	1.722623	-0.231132	0.913053
N124	N	1.697397	-0.194225	0.853650
H125	H	1.753157	-0.169052	0.827840
H126	H	1.123737	-0.170558	0.448058
H127	H	1.654780	-0.450886	0.387812
N128	N	1.668939	-0.555586	0.373802
N129	N	1.729468	-0.531185	0.313325
H130	H	1.778426	-0.550859	0.264450
N131	N	1.570764	-0.157128	0.911256
N132	N	1.578289	-0.148999	0.814093
H133	H	1.627507	-0.121009	0.786946
N134	N	1.394974	-0.947622	0.647765
N135	N	1.401959	-0.953691	0.745592
H136	H	1.353014	-0.934010	0.794469
N137	N	1.578749	-0.158789	1.108715
N138	N	1.590062	-0.150919	1.205624
H139	H	1.643155	-0.124338	1.231356
N140	N	1.736869	-0.696398	0.306100
N141	N	1.797441	-0.720778	0.245643
H142	H	1.846374	-0.701088	0.196762
H143	H	1.655230	-1.052298	0.387959
N144	N	1.669216	-0.947579	0.373881
N145	N	1.729782	-0.971957	0.313415
H146	H	1.778710	-0.952264	0.264531
H147	H	1.409080	-1.052328	0.633725
