data_functionalizedCrystal
_audit_creation_method	'MofGen! by Chris Wilmer'
_symmetry_space_group_name_H-M	'P1'
_symmetry_Int_Tables_number	1
_symmetry_cell_setting	triclinic
loop_
_symmetry_equiv_pos_as_xyz
  x,y,z
_cell_length_a	14.971486
_cell_length_b	17.699083
_cell_length_c	14.048226
_cell_angle_alpha	89.992674
_cell_angle_beta	89.998499
_cell_angle_gamma	83.448572
loop_
_atom_site_label
_atom_site_type_symbol
_atom_site_fract_x
_atom_site_fract_y
_atom_site_fract_z
O1	O	1.186608	0.098633	-0.079053
O2	O	0.926167	0.110445	-0.079079
O3	O	1.063746	-0.005632	-0.079057
O4	O	1.049030	0.214710	-0.079075
O5	O	1.063729	-0.005639	0.079264
O6	O	0.926151	0.110438	0.079242
O7	O	1.186591	0.098626	0.079268
Zn8	Zn	1.056368	0.104531	0.104392
Zn9	Zn	1.056390	0.104540	-0.104203
O10	O	1.049013	0.214703	0.079246
C11	C	0.892836	0.109913	0.000078
C12	C	0.793544	0.108330	0.000068
C13	C	1.063210	-0.033834	0.000104
C14	C	1.061628	-0.117856	0.000104
C15	C	0.736085	0.176522	0.000064
C16	C	0.642790	0.175030	0.000078
C17	C	0.606958	0.105346	0.000090
C18	C	0.664425	0.037148	0.000097
C19	C	0.757717	0.038641	0.000090
C20	C	0.469973	0.034042	0.000111
C21	C	0.376674	0.032549	0.000117
C22	C	0.355046	0.170431	0.000099
C23	C	0.448339	0.171924	0.000092
C24	C	0.505799	0.103726	0.000097
C25	C	1.142384	-0.166278	0.000113
C26	C	1.140892	-0.245225	0.000105
C27	C	1.058644	-0.275748	0.000094
C28	C	0.977882	-0.227320	0.000081
C29	C	0.979375	-0.148374	0.000083
C30	C	0.971860	-0.545698	0.000073
C31	C	0.970374	-0.624649	0.000074
C32	C	1.133378	-0.642548	0.000095
C33	C	1.134871	-0.563603	0.000096
C34	C	1.054109	-0.515181	0.000079
C35	C	1.055728	-0.429578	0.000087
C36	C	1.057024	-0.361350	0.000093
C37	C	1.219923	0.099158	0.000109
C38	C	1.319214	0.100741	0.000112
C39	C	1.049549	0.242905	0.000083
C40	C	1.051131	0.326927	0.000077
N41	N	1.056360	0.104524	0.246753
N42	N	1.056406	0.104541	-0.246564
C43	C	1.117299	0.053147	0.296581
C44	C	1.117305	0.053146	0.396238
C45	C	1.056376	0.104528	0.446066
C46	C	0.995431	0.155908	0.396231
C47	C	0.995421	0.155904	0.296576
C48	C	0.995456	0.155913	0.603946
C49	C	0.995467	0.155918	0.703608
C50	C	1.117340	0.053156	0.703608
C51	C	1.117331	0.053152	0.603953
C52	C	1.056386	0.104533	0.554125
H53	H	0.765252	0.233267	0.000054
H54	H	0.347502	-0.024194	0.000127
H55	H	1.199138	-0.681983	0.000104
O56	O	0.525827	-0.032185	0.000282
C57	C	0.643754	-0.110510	0.082264
C58	C	0.580538	-0.035491	0.082207
H59	H	0.688018	-0.113200	0.148483
H60	H	0.602163	-0.160601	0.082330
H61	H	0.687926	-0.113243	0.015972
H62	H	0.536354	-0.032683	0.148488
H63	H	0.622183	0.014565	0.082091
H64	H	0.804501	-0.016888	0.000093
O65	O	0.936379	0.205856	0.555435
C66	C	0.917105	0.309222	0.442942
C67	C	0.984100	0.252693	0.497804
H68	H	0.955661	0.347115	0.396350
H69	H	0.872504	0.276522	0.396235
H70	H	0.873542	0.345916	0.495689
H71	H	1.027722	0.215985	0.445127
H72	H	1.028639	0.285439	0.544526
O73	O	0.936150	0.205743	0.751976
C74	C	0.780529	0.249870	0.782460
C75	C	0.847608	0.193394	0.727638
H76	H	0.708928	0.239916	0.762788
H77	H	0.790935	0.241041	0.862255
H78	H	0.792072	0.310507	0.762872
H79	H	0.836106	0.132734	0.747146
H80	H	0.837186	0.202290	0.647857
H81	H	0.308257	0.225960	0.000099
O82	O	1.176664	0.003318	0.751966
C83	C	1.332289	-0.040828	0.782407
C84	C	1.265203	0.015658	0.727593
H85	H	1.403887	-0.030882	0.762707
H86	H	1.321906	-0.032002	0.862203
H87	H	1.320731	-0.101462	0.762840
H88	H	1.276721	0.076315	0.747081
H89	H	1.275603	0.006766	0.647811
H90	H	0.903394	-0.649498	0.000067
O91	O	1.176540	0.003347	0.444751
C92	C	1.298766	-0.012575	0.557215
C93	C	1.231718	0.043907	0.502349
H94	H	1.343408	0.020196	0.603782
H95	H	1.260291	-0.050430	0.603949
H96	H	1.342279	-0.049313	0.504472
H97	H	1.188188	0.080695	0.555024
H98	H	1.270249	0.081710	0.455601
H99	H	1.206652	-0.284648	0.000115
O100	O	0.893330	-0.498776	0.000111
C101	C	0.731489	-0.489361	0.000051
C102	C	0.820363	-0.542590	0.000025
H103	H	0.672472	-0.524763	-0.000039
H104	H	0.728045	-0.451975	0.066325
H105	H	0.728161	-0.451929	-0.066190
H106	H	0.823750	-0.580069	0.066221
H107	H	0.823770	-0.579925	-0.066292
O108	O	0.936207	0.205715	0.444739
C109	C	0.814001	0.221657	0.557229
C110	C	0.881034	0.165165	0.502373
H111	H	0.769363	0.188894	0.603824
H112	H	0.852489	0.259513	0.603933
H113	H	0.770481	0.258392	0.504478
H114	H	0.924570	0.128378	0.555054
H115	H	0.842490	0.127361	0.455654
O116	O	0.629575	-0.030525	-0.000059
C117	C	0.536754	-0.112206	-0.082039
C118	C	0.576175	-0.035547	-0.081987
H119	H	0.493556	-0.116285	-0.148261
H120	H	0.593813	-0.160721	-0.082097
H121	H	0.493656	-0.116343	-0.015749
H122	H	0.619262	-0.031336	-0.148266
H123	H	0.519073	0.012930	-0.081880
H124	H	0.945797	0.197740	0.256007
H125	H	1.209360	-0.141433	0.000128
H126	H	1.201846	-0.538756	0.000110
O127	O	0.898063	-0.257093	0.000112
C128	C	0.823518	-0.370777	0.000050
C129	C	0.913977	-0.337163	0.000033
H130	H	0.836353	-0.435517	-0.000034
H131	H	0.783599	-0.350900	0.066318
H132	H	0.783628	-0.350790	-0.066196
H133	H	0.953940	-0.357135	0.066235
H134	H	0.953828	-0.357036	-0.066279
H135	H	0.596010	0.230559	0.000074
H136	H	1.166918	0.011309	0.256017
O137	O	0.483000	0.239680	0.000121
C138	C	0.451708	0.376283	0.000050
C139	C	0.412335	0.299603	0.000036
H140	H	0.394596	0.424751	-0.000039
H141	H	0.494816	0.380476	0.066319
H142	H	0.494874	0.380386	-0.066196
H143	H	0.369130	0.295448	0.066237
H144	H	0.369279	0.295443	-0.066277
O145	O	0.900870	-0.101411	-0.000052
C146	C	0.762041	-0.061912	-0.082126
C147	C	0.850906	-0.115153	-0.082073
H148	H	0.721629	-0.072993	-0.148443
H149	H	0.721482	-0.073031	-0.015919
H150	H	0.777258	-0.000252	-0.082080
H151	H	0.835771	-0.176832	-0.082153
H152	H	0.891439	-0.103969	-0.148274
H153	H	1.166948	0.011317	0.563383
