data_functionalizedCrystal
_audit_creation_method	'MofGen! by Chris Wilmer'
_symmetry_space_group_name_H-M	'P1'
_symmetry_Int_Tables_number	1
_symmetry_cell_setting	triclinic
loop_
_symmetry_equiv_pos_as_xyz
  x,y,z
_cell_length_a	17.699077
_cell_length_b	17.019294
_cell_length_c	16.176319
_cell_angle_alpha	86.114226
_cell_angle_beta	89.993140
_cell_angle_gamma	83.337580
loop_
_atom_site_label
_atom_site_type_symbol
_atom_site_fract_x
_atom_site_fract_y
_atom_site_fract_z
O1	O	1.004150	0.099735	-0.075834
O2	O	1.337484	0.433068	0.257499
O3	O	1.670817	0.766401	0.590833
O4	O	0.783780	0.112718	-0.076762
O5	O	1.117114	0.446052	0.256571
O6	O	1.450447	0.779385	0.589904
O7	O	0.900112	-0.008619	-0.068119
O8	O	1.233446	0.324715	0.265215
O9	O	1.566779	0.658048	0.598548
O10	O	0.887818	0.221071	-0.084478
O11	O	1.221151	0.554405	0.248856
O12	O	1.554485	0.887738	0.582189
O13	O	0.900096	-0.008626	0.069375
O14	O	1.233430	0.324707	0.402708
O15	O	1.566763	0.658040	0.736042
O16	O	0.783764	0.112710	0.060731
O17	O	1.117098	0.446044	0.394065
O18	O	1.450431	0.779377	0.727398
O19	O	1.004134	0.099727	0.061660
O20	O	1.337468	0.433060	0.394993
O21	O	1.670801	0.766394	0.728326
Cu22	Cu	0.893948	0.106218	0.073750
Cu23	Cu	1.227281	0.439551	0.407083
Cu24	Cu	1.560614	0.772885	0.740416
Cu25	Cu	0.893967	0.106227	-0.088852
Cu26	Cu	1.227300	0.439560	0.244481
Cu27	Cu	1.560633	0.772894	0.577814
O28	O	0.887802	0.221064	0.053016
O29	O	1.221135	0.554397	0.386349
O30	O	1.554469	0.887730	0.719683
C31	C	0.755575	0.112250	-0.007983
C32	C	1.088908	0.445583	0.325350
C33	C	1.422241	0.778917	0.658684
C34	C	0.671556	0.110857	-0.007885
C35	C	1.004889	0.444190	0.325448
C36	C	1.338222	0.777523	0.658782
C37	C	0.632079	0.110196	0.067110
C38	C	0.965412	0.443529	0.400444
C39	C	1.298746	0.776863	0.733777
C40	C	0.553136	0.108874	0.067205
C41	C	0.886469	0.442208	0.400539
C42	C	1.219802	0.775541	0.733872
C43	C	0.513669	0.108219	-0.007696
C44	C	0.847003	0.441552	0.325637
C45	C	1.180336	0.774886	0.658970
C46	C	0.553152	0.108877	-0.082697
C47	C	0.886485	0.442211	0.250636
C48	C	1.219818	0.775544	0.583969
C49	C	0.632094	0.110193	-0.082791
C50	C	0.965428	0.443527	0.250542
C51	C	1.298761	0.776860	0.583875
C52	C	0.234785	0.103569	-0.082321
C53	C	0.568118	0.436902	0.251012
C54	C	0.901451	0.770235	0.584346
C55	C	0.155836	0.102255	-0.082222
C56	C	0.489170	0.435588	0.251112
C57	C	0.822503	0.768922	0.584445
C58	C	0.155826	0.102250	0.067676
C59	C	0.489159	0.435583	0.401009
C60	C	0.822493	0.768916	0.734342
C61	C	0.234769	0.103566	0.067582
C62	C	0.568102	0.436899	0.400915
C63	C	0.901435	0.770232	0.734249
C64	C	0.274245	0.104220	-0.007418
C65	C	0.607578	0.437553	0.325915
C66	C	0.940911	0.770886	0.659248
C67	C	0.359844	0.105651	-0.007520
C68	C	0.693178	0.438985	0.325813
C69	C	1.026511	0.772318	0.659146
C70	C	0.428070	0.106793	-0.007596
C71	C	0.761404	0.440126	0.325738
C72	C	1.094737	0.773460	0.659071
C73	C	0.899638	-0.038011	0.002720
C74	C	1.232971	0.295323	0.336053
C75	C	1.566305	0.628656	0.669386
C76	C	0.898239	-0.125579	0.008951
C77	C	1.231572	0.207755	0.342284
C78	C	1.564906	0.541088	0.675618
C79	C	0.897592	-0.166710	-0.063069
C80	C	1.230926	0.166624	0.270265
C81	C	1.564259	0.499957	0.603598
C82	C	0.896273	-0.248988	-0.057211
C83	C	1.229606	0.084345	0.276122
C84	C	1.562940	0.417678	0.609456
C85	C	0.895606	-0.290135	0.020667
C86	C	1.228939	0.043198	0.354001
C87	C	1.562273	0.376531	0.687334
C88	C	0.896251	-0.248998	0.092692
C89	C	1.229584	0.084335	0.426026
C90	C	1.562917	0.417668	0.759359
C91	C	0.897564	-0.166720	0.086834
C92	C	1.230898	0.166613	0.420167
C93	C	1.564231	0.499946	0.753500
C94	C	0.891634	-0.538561	0.042106
C95	C	1.224967	-0.205228	0.375439
C96	C	1.558300	0.128105	0.708772
C97	C	0.890322	-0.620845	0.047959
C98	C	1.223655	-0.287512	0.381292
C99	C	1.556989	0.045821	0.714625
C100	C	0.890343	-0.620829	-0.101945
C101	C	1.223677	-0.287496	0.231388
C102	C	1.557010	0.045837	0.564721
C103	C	0.891662	-0.538550	-0.107797
C104	C	1.224995	-0.205217	0.225536
C105	C	1.558328	0.128116	0.558870
C106	C	0.892302	-0.497420	-0.035772
C107	C	1.225635	-0.164087	0.297561
C108	C	1.558969	0.169247	0.630895
C109	C	0.894260	-0.374238	0.026657
C110	C	1.227593	-0.040904	0.359990
C111	C	1.560927	0.292429	0.693323
C112	C	0.893643	-0.413318	-0.041762
C113	C	1.226976	-0.079985	0.291571
C114	C	1.560309	0.253348	0.624905
C115	C	1.032340	0.100195	-0.007122
C116	C	1.365673	0.433529	0.326212
C117	C	1.699006	0.766862	0.659545
C118	C	1.116359	0.101589	-0.007225
C119	C	1.449692	0.434922	0.326109
C120	C	1.783026	0.768255	0.659442
C121	C	0.888277	0.250456	-0.017824
C122	C	1.221610	0.583789	0.315509
C123	C	1.554943	0.917123	0.648843
C124	C	0.889675	0.338024	-0.024061
C125	C	1.223009	0.671357	0.309272
C126	C	1.556342	1.004690	0.642606
N127	N	0.893940	0.106211	0.188116
N128	N	1.227273	0.439544	0.521449
N129	N	1.560607	0.772878	0.854782
N130	N	0.893980	0.106228	-0.203218
N131	N	1.227314	0.439561	0.130116
N132	N	1.560647	0.772894	0.463449
C133	C	0.945467	0.052505	0.235206
C134	C	1.278801	0.385838	0.568539
C135	C	1.612134	0.719172	0.901872
C136	C	0.945471	0.052504	0.321753
C137	C	1.278805	0.385838	0.655086
C138	C	1.612138	0.719171	0.988419
C139	C	0.893951	0.106214	0.361208
C140	C	1.227284	0.439547	0.694541
C141	C	1.560617	0.772881	1.027875
C142	C	0.842418	0.159922	0.314112
C143	C	1.175751	0.493256	0.647445
C144	C	1.509085	0.826589	0.980778
C145	C	0.842411	0.159919	0.227566
C146	C	1.175744	0.493252	0.560900
C147	C	1.509078	0.826586	0.894233
C148	C	0.842444	0.159937	0.663139
C149	C	1.175777	0.493271	0.996472
C150	C	1.509110	0.826604	1.329806
C151	C	0.842456	0.159938	0.749690
C152	C	1.175789	0.493272	1.083024
C153	C	1.509123	0.826605	1.416357
C154	C	0.945504	0.052523	0.757325
C155	C	1.278837	0.385856	1.090658
C156	C	1.612171	0.719189	1.423992
C157	C	0.945497	0.052519	0.670780
C158	C	1.278831	0.385852	1.004113
C159	C	1.612164	0.719186	1.337447
C160	C	0.893962	0.106224	0.623691
C161	C	1.227295	0.439558	0.957025
C162	C	1.560629	0.772891	1.290358
C163	C	0.893957	0.106224	0.529847
C164	C	1.227291	0.439557	0.863181
C165	C	1.560624	0.772890	1.196514
C166	C	0.893958	0.106219	0.455050
C167	C	1.227292	0.439552	0.788383
C168	C	1.560625	0.772886	1.121717
H169	H	0.266917	0.104099	-0.143391
H170	H	0.600250	0.437432	0.189943
H171	H	0.933584	0.770766	0.523276
H172	H	0.664235	0.110733	-0.143860
H173	H	0.997568	0.444066	0.189473
H174	H	1.330902	0.777400	0.522806
H175	H	0.987428	0.008772	0.360093
H176	H	1.320762	0.342106	0.693427
H177	H	1.654095	0.675439	1.026760
Br178	Br	0.889425	-0.676689	0.153658
Br179	Br	1.222758	-0.343355	0.486991
Br180	Br	1.556091	-0.010022	0.820324
Br181	Br	0.894550	-0.357476	-0.147451
Br182	Br	1.227884	-0.024142	0.185883
Br183	Br	1.561217	0.309191	0.519216
H184	H	0.987452	0.008786	0.638658
H185	H	1.320786	0.342120	0.971992
H186	H	1.654119	0.675453	1.305325
Br187	Br	0.889475	-0.676653	-0.199688
Br188	Br	1.222808	-0.343320	0.133645
Br189	Br	1.556142	-0.009986	0.466979
H190	H	0.800451	0.203651	0.189226
H191	H	1.133785	0.536984	0.522559
H192	H	1.467118	0.870317	0.855893
Br193	Br	0.772490	0.232810	0.367655
Br194	Br	1.105823	0.566144	0.700988
Br195	Br	1.439156	0.899477	1.034322
H196	H	0.521013	0.108338	-0.143683
H197	H	0.854346	0.441671	0.189650
H198	H	1.187679	0.775005	0.522983
H199	H	0.895703	-0.282506	0.156103
H200	H	1.229036	0.050827	0.489436
H201	H	1.562369	0.384161	0.822769
Br202	Br	1.015446	-0.020366	0.821235
Br203	Br	1.348779	0.312967	1.154568
Br204	Br	1.682112	0.646300	1.487902
Br205	Br	0.288325	0.104462	0.169237
Br206	Br	0.621658	0.437796	0.502571
Br207	Br	0.954992	0.771129	0.835904
Br208	Br	0.898438	-0.110898	0.184579
Br209	Br	1.231771	0.222435	0.517912
Br210	Br	1.565105	0.555769	0.851245
H211	H	0.664206	0.110736	0.128104
H212	H	0.997539	0.444069	0.461437
H213	H	1.330873	0.777403	0.794770
H214	H	0.893719	-0.407749	0.090065
H215	H	1.227053	-0.074416	0.423399
H216	H	1.560386	0.258918	0.756732
Br217	Br	0.499561	0.107991	0.168989
Br218	Br	0.832894	0.441324	0.502322
Br219	Br	1.166228	0.774657	0.835655
Br220	Br	0.898506	-0.110876	-0.168766
Br221	Br	1.231839	0.222457	0.164567
Br222	Br	1.565172	0.555790	0.497901
H223	H	0.987424	0.008772	0.203087
H224	H	1.320758	0.342105	0.536420
H225	H	1.654091	0.675439	0.869754
H226	H	0.895750	-0.282474	-0.115857
H227	H	1.229083	0.050859	0.217476
H228	H	1.562416	0.384193	0.550809
H229	H	0.892206	-0.505054	-0.171214
H230	H	1.225539	-0.171721	0.162120
H231	H	1.558873	0.161612	0.495453
H232	H	0.892170	-0.505085	0.100754
H233	H	1.225504	-0.171752	0.434087
H234	H	1.558837	0.161582	0.767421
H235	H	0.123675	0.101713	0.128745
H236	H	0.457009	0.435047	0.462078
H237	H	0.790342	0.768380	0.795411
Br238	Br	0.102275	0.101367	-0.183881
Br239	Br	0.435608	0.434700	0.149452
Br240	Br	0.768941	0.768033	0.482786
Br241	Br	0.772531	0.232835	0.803237
Br242	Br	1.105865	0.566169	1.136570
Br243	Br	1.439198	0.899502	1.469903
Br244	Br	0.772507	0.232822	0.599238
Br245	Br	1.105840	0.566155	0.932571
Br246	Br	1.439174	0.899489	1.265904
