data_functionalizedCrystal
_audit_creation_method	'MofGen! by Chris Wilmer'
_symmetry_space_group_name_H-M	'P1'
_symmetry_Int_Tables_number	1
_symmetry_cell_setting	triclinic
loop_
_symmetry_equiv_pos_as_xyz
  x,y,z
_cell_length_a	14.519709
_cell_length_b	14.519709
_cell_length_c	11.892095
_cell_angle_alpha	93.895429
_cell_angle_beta	86.099364
_cell_angle_gamma	83.680145
loop_
_atom_site_label
_atom_site_type_symbol
_atom_site_fract_x
_atom_site_fract_y
_atom_site_fract_z
O1	O	1.229745	0.115014	-0.093858
O2	O	0.961271	0.129249	-0.093893
O3	O	1.102625	-0.012106	-0.093864
O4	O	1.088390	0.256369	-0.093886
O5	O	1.090840	-0.000339	0.094141
O6	O	0.949485	0.141016	0.094112
O7	O	1.217959	0.126782	0.094147
Zn8	Zn	1.081851	0.135768	0.123980
Zn9	Zn	1.097379	0.120263	-0.123725
O10	O	1.076604	0.268137	0.094119
C11	C	0.921018	0.134469	0.000106
C12	C	0.818638	0.132480	0.000093
C13	C	0.443739	0.125163	0.000145
C14	C	0.548047	0.127195	0.000130
C15	C	0.631185	0.128821	0.000118
C16	C	0.735500	0.130854	0.000105
C17	C	1.096069	-0.040582	0.000139
C18	C	1.094081	-0.142964	0.000139
C19	C	1.086763	-0.517861	0.000109
C20	C	1.088795	-0.413553	0.000117
C21	C	1.090422	-0.330416	0.000125
C22	C	1.092454	-0.226101	0.000132
C23	C	1.258212	0.121562	0.000147
C24	C	1.360593	0.123550	0.000152
C25	C	1.083161	0.296613	0.000114
C26	C	1.085150	0.398993	0.000106
N27	N	1.071260	0.146348	0.293032
N28	N	1.107978	0.109675	-0.292777
C29	C	1.181675	0.035996	0.529702
C30	C	1.174278	0.043398	0.648042
C31	C	1.049067	0.168551	0.648055
C32	C	1.056463	0.161149	0.529715
C33	C	1.122770	0.094870	0.470542
C34	C	1.130170	0.087472	0.352200
C35	C	1.004955	0.212620	0.352215
C36	C	0.997559	0.220023	0.470555
H37	H	1.184163	0.033507	0.304022
N38	N	0.944765	0.272762	0.291801
N39	N	0.885568	0.331930	0.344653
H40	H	0.843060	0.374407	0.301987
N41	N	0.981320	0.236233	0.708499
N42	N	0.896908	0.233942	0.695291
H43	H	0.849057	0.281738	0.737982
N44	N	1.249351	-0.031717	0.469189
N45	N	1.224050	-0.093115	0.403165
H46	H	1.271830	-0.140941	0.360404
N47	N	1.234450	-0.016752	0.708456
N48	N	1.293642	-0.075925	0.655604
H49	H	1.336141	-0.118411	0.698270
H50	H	0.943570	0.273984	0.518747
