data_functionalizedCrystal
_audit_creation_method	'MofGen! by Chris Wilmer'
_symmetry_space_group_name_H-M	'P1'
_symmetry_Int_Tables_number	1
_symmetry_cell_setting	triclinic
loop_
_symmetry_equiv_pos_as_xyz
  x,y,z
_cell_length_a	12.645331
_cell_length_b	12.645330
_cell_length_c	12.645323
_cell_angle_alpha	90.026844
_cell_angle_beta	90.021793
_cell_angle_gamma	90.016671
loop_
_atom_site_label
_atom_site_type_symbol
_atom_site_fract_x
_atom_site_fract_y
_atom_site_fract_z
Zn1	Zn	1.620722	-0.422039	0.599446
Zn2	Zn	1.620606	-0.599333	0.422186
Zn3	Zn	1.443439	-0.422081	0.422191
Zn4	Zn	1.443418	-0.599258	0.599402
O5	O	1.532047	-0.510678	0.510806
O6	O	1.769054	-0.445572	0.575949
O7	O	1.597065	-0.575869	0.273840
O8	O	1.467013	-0.273728	0.445724
O9	O	1.768969	-0.575829	0.445717
O10	O	1.597262	-0.273697	0.575953
O11	O	1.466901	-0.445643	0.273843
O12	O	1.295089	-0.445570	0.445681
O13	O	1.466978	-0.575700	0.747755
O14	O	1.295074	-0.575741	0.575877
O15	O	1.597242	-0.445499	0.747788
O16	O	1.597045	-0.747671	0.445674
O17	O	1.466866	-0.747615	0.575873
C18	C	1.256617	-0.510653	0.510776
C19	C	1.138787	-0.510667	0.510788
C20	C	0.971197	-0.428400	0.429333
C21	C	1.093757	-0.428613	0.428974
C22	C	1.094267	-0.622343	0.480273
C23	C	0.971668	-0.621893	0.479717
C24	C	0.971636	-0.482323	0.623072
C25	C	1.094241	-0.479828	0.622448
C26	C	1.531969	-0.786108	0.510791
C27	C	1.532033	-0.903938	0.510821
C28	C	1.450475	-1.071511	0.592982
C29	C	1.450058	-0.948951	0.592717
C30	C	1.501789	-0.948535	0.399099
C31	C	1.501292	-1.071133	0.399597
C32	C	1.644334	-1.071028	0.539475
C33	C	1.643646	-0.948421	0.541918
C34	C	1.808552	-0.510704	0.510838
C35	C	1.926382	-0.510715	0.510851
C36	C	1.532120	-0.510586	0.787312
C37	C	1.532152	-0.510547	0.905142
C38	C	1.532153	-0.234173	0.510844
C39	C	1.532198	-0.116343	0.510861
C40	C	1.532034	-0.510693	0.235377
C41	C	1.532208	-0.510433	0.117547
C42	C	1.450207	-0.592441	0.950003
C43	C	1.449919	-0.592133	1.072563
C44	C	1.502283	-0.398649	1.073044
C45	C	1.501655	-0.399189	0.950446
C46	C	1.644240	-0.539437	0.950333
C47	C	1.643672	-0.541835	1.072939
H48	H	0.943024	-0.645970	0.397678
H49	H	1.419734	-0.374744	0.921847
H50	H	1.468654	-0.675612	0.920527
H51	H	0.942023	-0.685300	0.536502
C52	C	1.133685	-0.707418	0.557954
N53	N	1.163382	-0.771497	0.616463
C54	C	1.475794	-1.111250	0.705265
N55	N	1.494865	-1.141191	0.789840
C56	C	1.390550	-1.109896	0.366856
N57	N	1.307135	-1.139087	0.342199
C58	C	1.578805	-0.313916	0.910350
N59	N	1.636908	-0.249684	0.880154
H60	H	1.124924	-0.646833	0.399115
H61	H	1.666242	-0.624105	1.102023
H62	H	1.560155	-0.335930	1.102181
C63	C	1.681111	-0.647740	0.908575
N64	N	1.708871	-0.729319	0.877124
H65	H	1.420672	-0.917923	0.374420
C66	C	1.726718	-0.458866	0.911130
N67	N	1.788833	-0.398178	0.881595
C68	C	1.133545	-0.368799	0.653529
N69	N	1.163152	-0.285169	0.676935
H70	H	1.468602	-0.675012	1.102653
C71	C	1.730549	-0.467119	1.114293
N72	N	1.795983	-0.410831	1.145438
C73	C	1.134424	-0.316734	0.454798
N74	N	1.165049	-0.232461	0.474242
C75	C	0.931388	-0.316186	0.454889
N76	N	0.901395	-0.231664	0.474138
H77	H	1.366879	-0.572951	1.101889
H78	H	1.671922	-1.101870	0.619558
H79	H	1.124898	-0.535408	0.686433
C80	C	0.929508	-0.453455	0.317650
N81	N	0.898105	-0.472329	0.233532
C82	C	0.929905	-0.374224	0.660558
N83	N	0.898477	-0.292797	0.688779
H84	H	1.421277	-0.373750	1.103746
H85	H	1.123036	-0.447379	0.345814
C86	C	1.475617	-0.908209	0.704633
N87	N	1.494864	-0.877526	0.788934
C88	C	1.338638	-0.566878	0.908390
N89	N	1.254604	-0.547619	0.877049
H90	H	1.367863	-1.102411	0.574266
C91	C	0.932480	-0.563314	0.705128
N92	N	0.902980	-0.624318	0.766924
C93	C	1.726589	-1.110200	0.458678
N94	N	1.788537	-1.139712	0.397819
C95	C	1.337732	-0.909451	0.567184
N96	N	1.253117	-0.879700	0.547978
H97	H	1.558233	-1.100794	0.336324
H98	H	1.559426	-0.919380	0.336240
H99	H	1.666453	-0.919268	0.624140
H100	H	1.707740	-0.917774	0.486462
