data_functionalizedCrystal
_audit_creation_method	'MofGen! by Chris Wilmer'
_symmetry_space_group_name_H-M	'P1'
_symmetry_Int_Tables_number	1
_symmetry_cell_setting	triclinic
loop_
_symmetry_equiv_pos_as_xyz
  x,y,z
_cell_length_a	23.532407
_cell_length_b	22.010155
_cell_length_c	19.188930
_cell_angle_alpha	90.000879
_cell_angle_beta	82.996764
_cell_angle_gamma	90.005729
loop_
_atom_site_label
_atom_site_type_symbol
_atom_site_fract_x
_atom_site_fract_y
_atom_site_fract_z
O1	O	0.755444	0.050494	0.084747
O2	O	1.255444	0.550494	0.584747
O3	O	0.589606	0.050504	0.097011
O4	O	1.089606	0.550504	0.597011
O5	O	0.677311	0.050487	-0.010792
O6	O	1.177311	0.550487	0.489208
O7	O	0.667739	0.050511	0.192550
O8	O	1.167739	0.550511	0.692550
O9	O	0.677295	-0.050564	-0.010776
O10	O	1.177295	0.449436	0.489224
O11	O	0.589590	-0.050546	0.097027
O12	O	1.089590	0.449454	0.597027
O13	O	0.755428	-0.050557	0.084763
O14	O	1.255428	0.449443	0.584763
Cu15	Cu	0.672508	-0.059778	0.090897
Cu16	Cu	1.172508	0.440222	0.590897
Cu17	Cu	0.672526	0.059725	0.090878
Cu18	Cu	1.172526	0.559725	0.590878
O19	O	0.667723	-0.050539	0.192566
O20	O	1.167723	0.449461	0.692566
C21	C	0.568382	-0.000020	0.096707
C22	C	1.068382	0.499980	0.596707
C23	C	0.505163	-0.000016	0.095768
C24	C	1.005163	0.499984	0.595768
N25	N	0.672498	-0.143831	0.090910
N26	N	1.172498	0.356169	0.590910
C27	C	0.238851	-0.000041	0.028100
C28	C	0.738851	0.499959	0.528100
C29	C	0.298254	-0.000041	0.028972
C30	C	0.798254	0.499959	0.528972
O31	O	0.334884	-0.000068	-0.024707
O32	O	0.834884	0.499932	0.475293
N33	N	0.321016	-0.000029	0.093061
N34	N	0.821016	0.499971	0.593061
C35	C	0.284373	-0.000024	0.156282
C36	C	0.784373	0.499976	0.656282
O37	O	0.309188	-0.000014	0.210874
O38	O	0.809188	0.499986	0.710874
C39	C	0.224972	-0.000028	0.155409
C40	C	0.724972	0.499972	0.655409
C41	C	0.202213	-0.000034	0.091316
C42	C	0.702213	0.499966	0.591316
C43	C	0.216092	-0.000047	-0.035987
C44	C	0.716092	0.499953	0.464013
C45	C	0.156694	-0.000046	-0.036859
C46	C	0.656694	0.499954	0.463141
C47	C	0.120055	-0.000039	0.026356
C48	C	0.620055	0.499961	0.526356
C49	C	0.142815	-0.000033	0.090444
C50	C	0.642815	0.499967	0.590444
C51	C	0.188329	-0.000027	0.218629
C52	C	0.688329	0.499973	0.718629
C53	C	0.128925	-0.000032	0.217750
C54	C	0.628925	0.499968	0.717750
C55	C	0.106166	-0.000038	0.153657
C56	C	0.606166	0.499962	0.653657
C57	C	0.046778	-0.000025	0.152788
C58	C	0.546778	0.499975	0.652788
N59	N	0.024016	-0.000037	0.088699
N60	N	0.524016	0.499963	0.588699
C61	C	0.060655	-0.000044	0.025483
C62	C	0.560655	0.499956	0.525483
C63	C	0.409119	-0.000015	0.158110
C64	C	0.909119	0.499985	0.658110
C65	C	0.468519	-0.000006	0.158984
C66	C	0.968519	0.499994	0.658984
C67	C	0.482396	-0.000024	0.031674
C68	C	0.982396	0.499976	0.531674
C69	C	0.422995	-0.000029	0.030801
C70	C	0.922995	0.499971	0.530801
C71	C	0.386357	-0.000027	0.094021
C72	C	0.886357	0.499973	0.594021
C73	C	-0.064086	-0.000042	0.023657
C74	C	0.435914	0.499958	0.523657
C75	C	-0.123490	-0.000038	0.022791
C76	C	0.376510	0.499962	0.522791
C77	C	-0.137362	-0.000023	0.150100
C78	C	0.362638	0.499977	0.650100
C79	C	-0.077963	-0.000023	0.150967
C80	C	0.422037	0.499977	0.650967
C81	C	-0.041326	-0.000035	0.087740
C82	C	0.458674	0.499965	0.587740
O83	O	0.010113	0.000000	0.206439
O84	O	0.510113	0.500000	0.706439
O85	O	0.035831	-0.000061	-0.029100
O86	O	0.535831	0.499939	0.470900
C87	C	0.711364	-0.563618	0.043149
C88	C	1.211364	-0.063618	0.543149
C89	C	0.711367	-0.627225	0.043144
C90	C	1.211367	-0.127225	0.543144
O91	O	0.744389	-0.660123	0.002546
O92	O	1.244389	-0.160123	0.502546
N93	N	0.672526	-0.659038	0.090863
N94	N	1.172526	-0.159038	0.590863
C95	C	0.633676	-0.627239	0.138585
C96	C	1.133676	-0.127239	0.638585
O97	O	0.600639	-0.660139	0.179172
O98	O	1.100639	-0.160139	0.679172
C99	C	0.633671	-0.563633	0.138586
C100	C	1.133671	-0.063633	0.638586
C101	C	0.672519	-0.531824	0.090869
C102	C	1.172519	-0.031824	0.590869
C103	C	0.750208	-0.531809	-0.004564
C104	C	1.250208	-0.031809	0.495436
C105	C	0.750206	-0.468205	-0.004558
C106	C	1.250206	0.031795	0.495442
C107	C	0.711360	-0.436411	0.043161
C108	C	1.211360	0.063589	0.543161
C109	C	0.672516	-0.468221	0.090875
C110	C	1.172516	0.031779	0.590875
C111	C	0.594819	-0.531836	0.186303
C112	C	1.094819	-0.031836	0.686303
C113	C	0.594818	-0.468225	0.186300
C114	C	1.094818	0.031775	0.686300
C115	C	0.633665	-0.436416	0.138583
C116	C	1.133665	0.063584	0.638583
C117	C	0.633669	-0.372823	0.138600
C118	C	1.133669	0.127177	0.638600
N119	N	0.672509	-0.341011	0.090881
N120	N	1.172509	0.158989	0.590881
C121	C	0.711355	-0.372805	0.043162
C122	C	1.211355	0.127195	0.543162
C123	C	0.633689	-0.760817	0.138578
C124	C	1.133689	-0.260817	0.638578
C125	C	0.633696	-0.824422	0.138581
C126	C	1.133696	-0.324422	0.638581
C127	C	0.711386	-0.824404	0.043140
C128	C	1.211386	-0.324404	0.543140
C129	C	0.711381	-0.760798	0.043141
C130	C	1.211381	-0.260798	0.543141
C131	C	0.672530	-0.729005	0.090860
C132	C	1.172530	-0.229005	0.590860
C133	C	0.711348	-0.239234	0.043178
C134	C	1.211348	0.260766	0.543178
C135	C	0.711344	-0.175625	0.043190
C136	C	1.211344	0.324375	0.543190
C137	C	0.633652	-0.175649	0.138629
C138	C	1.133652	0.324351	0.638629
C139	C	0.633658	-0.239252	0.138619
C140	C	1.133658	0.260748	0.638619
C141	C	0.672508	-0.271043	0.090888
C142	C	1.172508	0.228957	0.590888
O143	O	0.600662	-0.339885	0.179176
O144	O	1.100662	0.160115	0.679176
O145	O	0.744382	-0.339898	0.002575
O146	O	1.244382	0.160102	0.502575
C147	C	0.776652	-0.000031	0.085068
C148	C	1.276652	0.499969	0.585068
C149	C	0.839871	-0.000031	0.086007
C150	C	1.339871	0.499969	0.586007
C151	C	0.676993	-0.000040	-0.036794
C152	C	1.176993	0.499960	0.463206
C153	C	0.676062	-0.000045	-0.114295
C154	C	1.176062	0.499955	0.385705
N155	N	0.672540	0.143778	0.090859
N156	N	1.172540	0.643778	0.590859
C157	C	0.727524	-0.000052	-0.159383
C158	C	1.227524	0.499948	0.340617
C159	C	0.726650	-0.000042	-0.232205
C160	C	1.226650	0.499958	0.267795
C161	C	0.674311	-0.000038	-0.259934
C162	C	1.174311	0.499962	0.240066
C163	C	0.622842	-0.000028	-0.214836
C164	C	1.122842	0.499972	0.285164
C165	C	0.623718	-0.000032	-0.142017
C166	C	1.123718	0.499968	0.357983
N167	N	0.634299	-0.034425	-0.367806
N168	N	1.134299	0.465575	0.132194
N169	N	0.633470	-0.034423	-0.436982
N170	N	1.133470	0.465577	0.063018
C171	C	0.671670	-0.000026	-0.479334
C172	C	1.171670	0.499974	0.020666
N173	N	0.710737	0.034362	-0.449899
N174	N	1.210737	0.534362	0.050101
N175	N	0.711567	0.034357	-0.380717
N176	N	1.211567	0.534357	0.119283
C177	C	0.673356	-0.000034	-0.338894
C178	C	1.173356	0.499966	0.161106
C179	C	0.722188	-0.000020	-0.603384
C180	C	1.222188	0.499980	-0.103384
C181	C	0.721311	-0.000007	-0.676206
C182	C	1.221311	0.499993	-0.176206
C183	C	0.617502	0.000001	-0.658836
C184	C	1.117502	0.500001	-0.158836
C185	C	0.618380	-0.000007	-0.586015
C186	C	1.118380	0.499993	-0.086015
C187	C	0.670724	-0.000020	-0.558294
C188	C	1.170724	0.499980	-0.058294
C189	C	0.668041	-0.000011	0.218568
C190	C	1.168041	0.499989	0.718568
C191	C	0.668972	-0.000002	0.296070
C192	C	1.168972	0.499998	0.796070
H193	H	-0.142016	-0.000041	-0.029403
H194	H	0.357984	0.499959	0.470597
H195	H	0.379291	-0.000009	0.209595
H196	H	0.879291	0.499991	0.709595
N197	N	0.089410	-0.000022	0.285941
N198	N	0.589410	0.499978	0.785941
H199	H	0.048325	-0.000023	0.275668
H200	H	0.548325	0.499977	0.775668
H201	H	0.096760	-0.037480	0.313894
H202	H	0.596760	0.462520	0.813894
N203	N	0.561049	0.000011	-0.688733
N204	N	1.061049	0.500011	-0.188733
H205	H	0.568302	0.000015	-0.741706
H206	H	1.068302	0.500015	-0.241706
H207	H	0.538529	-0.037448	-0.672216
H208	H	1.038529	0.462552	-0.172216
N209	N	0.398450	-0.000036	-0.038326
N210	N	0.898450	0.499964	0.461674
H211	H	0.430679	-0.000038	-0.078237
H212	H	0.930679	0.499962	0.421763
H213	H	0.374106	-0.037500	-0.041459
H214	H	0.874106	0.462500	0.458541
N215	N	0.521919	-0.000033	-0.036511
N216	N	1.021919	0.499967	0.463489
H217	H	0.563001	-0.000031	-0.026228
H218	H	1.063001	0.499969	0.473772
H219	H	0.514566	-0.037498	-0.064454
H220	H	1.014566	0.462502	0.435546
N221	N	0.493063	0.000016	0.228112
N222	N	0.993063	0.500016	0.728112
H223	H	0.460834	0.000023	0.268022
H224	H	0.960834	0.500023	0.768022
H225	H	0.517402	-0.037443	0.231261
H226	H	1.017402	0.462557	0.731261
H227	H	0.602031	-0.265151	0.177482
H228	H	1.102031	0.234849	0.677482
N229	N	0.562874	-0.000004	-0.537379
N230	N	1.062874	0.499996	-0.037379
H231	H	0.529583	-0.000000	-0.565993
H232	H	1.029583	0.500000	-0.065993
H233	H	0.560970	-0.037466	-0.506790
H234	H	1.060970	0.462534	-0.006790
N235	N	0.552913	-0.566133	0.237762
N236	N	1.052913	-0.066133	0.737762
H237	H	0.527770	-0.592524	0.211228
H238	H	1.027770	-0.092524	0.711228
H239	H	0.574628	-0.592489	0.268537
H240	H	1.074628	-0.092489	0.768537
N241	N	-0.024576	-0.000056	-0.044536
N242	N	0.475424	0.499944	0.455464
H243	H	-0.048015	-0.000059	-0.085262
H244	H	0.451985	0.499941	0.414738
H245	H	0.000377	0.037405	-0.046957
H246	H	0.500377	0.537405	0.453043
N247	N	-0.176883	-0.000016	0.218282
N248	N	0.323117	0.499984	0.718282
H249	H	-0.201836	0.037442	0.220750
H250	H	0.298164	0.537442	0.720750
H251	H	-0.201802	-0.037501	0.220715
H252	H	0.298198	0.462499	0.720715
N253	N	0.132151	-0.000058	-0.105988
N254	N	0.632151	0.499942	0.394012
H255	H	0.164382	-0.000066	-0.145897
H256	H	0.664382	0.499934	0.354103
H257	H	0.107807	-0.037522	-0.109117
H258	H	0.607807	0.462478	0.390883
H259	H	0.743013	-0.734902	0.004285
H260	H	1.243013	-0.234902	0.504285
N261	N	0.568206	-0.000035	-0.093388
N262	N	1.068206	0.499965	0.406612
H263	H	0.566251	-0.037498	-0.062794
H264	H	1.066251	0.462502	0.437206
H265	H	0.566291	0.037445	-0.062827
H266	H	1.066291	0.537445	0.437173
H267	H	0.742980	-0.149728	0.004333
H268	H	1.242980	0.350272	0.504333
N269	N	0.591784	-0.726528	0.190052
N270	N	1.091784	-0.226528	0.690052
H271	H	0.567182	-0.756337	0.220277
H272	H	1.067182	-0.256337	0.720277
H273	H	0.613503	-0.700133	0.220788
H274	H	1.113503	-0.200133	0.720788
N275	N	0.792100	-0.433901	-0.056031
N276	N	1.292100	0.066099	0.443969
H277	H	0.817250	-0.407508	-0.029512
H278	H	1.317250	0.092492	0.470488
H279	H	0.816665	-0.463741	-0.086246
H280	H	1.316665	0.036259	0.413754
H281	H	0.770147	-0.000060	-0.136818
H282	H	1.270147	0.499940	0.363182
N283	N	0.255604	-0.000060	-0.104176
N284	N	0.755604	0.499940	0.395824
H285	H	0.232164	-0.000066	-0.144901
H286	H	0.732164	0.499934	0.355099
H287	H	0.280554	0.037403	-0.106599
H288	H	0.780554	0.537403	0.393401
H289	H	0.206849	-0.000020	0.270820
H290	H	0.706849	0.499980	0.770820
N291	N	0.591798	-0.858727	0.190048
N292	N	1.091798	-0.358727	0.690048
H293	H	0.613477	-0.885116	0.220830
H294	H	1.113477	-0.385116	0.720830
H295	H	0.567201	-0.828889	0.220227
H296	H	1.067201	-0.328889	0.720227
N297	N	0.552910	-0.433934	0.237766
N298	N	1.052910	0.066066	0.737766
H299	H	0.528304	-0.463741	0.267990
H300	H	1.028304	0.036259	0.767990
H301	H	0.574628	-0.407541	0.268504
H302	H	1.074628	0.092459	0.768504
H303	H	0.743016	-0.850302	0.004283
H304	H	1.243016	-0.350302	0.504283
H305	H	0.742983	-0.265111	0.004310
H306	H	1.242983	0.234889	0.504310
N307	N	-0.053411	-0.000008	0.220093
N308	N	0.446589	0.499992	0.720093
H309	H	-0.085638	-0.000001	0.260007
H310	H	0.414362	0.499999	0.760007
H311	H	-0.029076	-0.037471	0.223234
H312	H	0.470924	0.462529	0.723234
N313	N	0.792118	-0.566095	-0.056026
N314	N	1.292118	-0.066095	0.443974
H315	H	0.816723	-0.536283	-0.086244
H316	H	1.316723	-0.036283	0.413756
H317	H	0.817226	-0.592472	-0.029440
H318	H	1.317226	-0.092472	0.470560
N319	N	0.591756	-0.141350	0.190096
N320	N	1.091756	0.358650	0.690096
H321	H	0.597651	-0.096230	0.182852
H322	H	1.097651	0.403770	0.682852
H323	H	0.551379	-0.152473	0.182274
H324	H	1.051379	0.347527	0.682274
H325	H	0.763220	-0.000008	-0.712917
H326	H	1.263220	0.499992	-0.212917
H327	H	0.768558	-0.000044	-0.268922
H328	H	1.268558	0.499956	0.231078
N329	N	0.566390	-0.000021	-0.244739
N330	N	1.066390	0.499979	0.255261
H331	H	0.573644	-0.000022	-0.297712
H332	H	1.073644	0.499978	0.202288
H333	H	0.543871	-0.037480	-0.228219
H334	H	1.043871	0.462520	0.271781
H335	H	0.764810	-0.000028	-0.580812
H336	H	1.264810	0.499972	-0.080812
