data_functionalizedCrystal
_audit_creation_method	'MofGen! by Chris Wilmer'
_symmetry_space_group_name_H-M	'P1'
_symmetry_Int_Tables_number	1
_symmetry_cell_setting	triclinic
loop_
_symmetry_equiv_pos_as_xyz
  x,y,z
_cell_length_a	16.959447
_cell_length_b	12.759401
_cell_length_c	12.759399
_cell_angle_alpha	90.015766
_cell_angle_beta	90.020893
_cell_angle_gamma	90.015428
loop_
_atom_site_label
_atom_site_type_symbol
_atom_site_fract_x
_atom_site_fract_y
_atom_site_fract_z
Zn1	Zn	-0.446897	-1.606217	0.418278
Zn2	Zn	0.053103	-1.106217	0.918278
Zn3	Zn	-0.314732	-1.606118	0.593974
Zn4	Zn	0.185268	-1.106118	1.093974
Zn5	Zn	-0.314740	-1.430528	0.418310
Zn6	Zn	0.185260	-0.930528	0.918310
Zn7	Zn	-0.446876	-1.430505	0.593916
Zn8	Zn	0.053124	-0.930505	1.093916
O9	O	-0.380811	-1.518342	0.506119
O10	O	0.119189	-1.018342	1.006119
O11	O	-0.429371	-1.753225	0.441595
O12	O	0.070629	-1.253225	0.941595
O13	O	-0.204122	-1.582794	0.570709
O14	O	0.295878	-1.082794	1.070709
O15	O	-0.332283	-1.453885	0.271285
O16	O	0.167717	-0.953885	0.771285
O17	O	-0.332270	-1.753152	0.570678
O18	O	0.167730	-1.253152	1.070678
O19	O	-0.429378	-1.582963	0.271261
O20	O	0.070622	-1.082963	0.771261
O21	O	-0.204128	-1.453789	0.441650
O22	O	0.295872	-0.953789	0.941650
O23	O	-0.332262	-1.283504	0.441594
O24	O	0.167738	-0.783504	0.941594
O25	O	-0.557489	-1.453845	0.570580
O26	O	-0.057489	-0.953845	1.070580
O27	O	-0.429342	-1.283487	0.570611
O28	O	0.070658	-0.783487	1.070611
O29	O	-0.557505	-1.582940	0.441539
O30	O	-0.057505	-1.082940	0.941539
O31	O	-0.332249	-1.582771	0.740987
O32	O	0.167751	-1.082771	1.240987
O33	O	-0.429334	-1.453749	0.740945
O34	O	0.070666	-0.953749	1.240945
C35	C	-0.380806	-1.518275	0.779087
C36	C	0.119194	-1.018275	1.279087
C37	C	-0.380830	-1.518343	0.895863
C38	C	0.119170	-1.018343	1.395863
C39	C	-0.380801	-1.245375	0.506100
C40	C	0.119199	-0.745375	1.006100
C41	C	-0.380815	-1.128598	0.506117
C42	C	0.119185	-0.628598	1.006117
C43	C	-0.586980	-1.518401	0.506050
C44	C	-0.086980	-1.018401	1.006050
C45	C	-0.674836	-1.518426	0.506020
C46	C	-0.174836	-1.018426	1.006020
C47	C	-0.716103	-1.451225	0.573192
C48	C	-0.216103	-0.951225	1.073192
C49	C	-0.716123	-1.585644	0.438813
C50	C	-0.216123	-1.085644	0.938813
C51	C	-0.798668	-1.585666	0.438778
C52	C	-0.298668	-1.085666	0.938778
C53	C	-0.839936	-1.518465	0.505951
C54	C	-0.339936	-1.018465	1.005951
C55	C	-0.798657	-1.451243	0.573158
C56	C	-0.298657	-0.951243	1.073158
C57	C	-0.839953	-1.652880	0.371565
C58	C	-0.339953	-1.152880	0.871565
C59	C	-0.922504	-1.652904	0.371527
C60	C	-0.422504	-1.152904	0.871527
C61	C	-0.963773	-1.585707	0.438706
C62	C	-0.463773	-1.085707	0.938706
C63	C	-0.922489	-1.518483	0.505916
C64	C	-0.422489	-1.018483	1.005916
C65	C	-0.963757	-1.451282	0.573089
C66	C	-0.463757	-0.951282	1.073089
C67	C	-0.922474	-1.384062	0.640305
C68	C	-0.422474	-0.884062	1.140305
C69	C	-0.839926	-1.384047	0.640336
C70	C	-0.339926	-0.884047	1.140336
C71	C	-1.046322	-1.585723	0.438675
C72	C	-0.546322	-1.085723	0.938675
C73	C	-1.046310	-1.451300	0.573054
C74	C	-0.546310	-0.951300	1.073054
C75	C	-0.175445	-1.518344	0.506113
C76	C	0.324555	-1.018344	1.006113
C77	C	-0.087589	-1.518522	0.505847
C78	C	0.412411	-1.018522	1.005847
C79	C	-0.380822	-1.792375	0.506140
C80	C	0.119178	-1.292375	1.006140
C81	C	-0.380827	-1.909152	0.506148
C82	C	0.119173	-1.409152	1.006148
C83	C	-0.431281	-1.073754	0.573404
C84	C	0.068719	-0.573754	1.073404
C85	C	-0.431289	-0.964030	0.573417
C86	C	0.068711	-0.464030	1.073417
C87	C	-0.330359	-0.964003	0.438854
C88	C	0.169641	-0.464003	0.938854
C89	C	-0.330355	-1.073725	0.438836
C90	C	0.169645	-0.573725	0.938836
C91	C	-0.489549	-1.073769	0.651096
C92	C	0.010451	-0.573769	1.151096
C93	C	-0.489558	-0.964045	0.651109
C94	C	0.010442	-0.464045	1.151109
C95	C	-0.330336	-1.585598	0.950713
C96	C	0.169664	-1.085598	1.450713
C97	C	-0.330365	-1.585661	1.060437
C98	C	0.169635	-1.085661	1.560437
C99	C	-0.431384	-1.451204	1.060453
C100	C	0.068616	-0.951204	1.560453
C101	C	-0.431359	-1.451147	0.950731
C102	C	0.068641	-0.951147	1.450731
C103	C	-0.272011	-1.663223	0.950704
C104	C	0.227989	-1.163223	1.450704
C105	C	-0.272040	-1.663286	1.060428
C106	C	0.227960	-1.163286	1.560428
C107	C	-0.380844	-1.518434	1.232086
C108	C	0.119156	-1.018434	1.732086
C109	C	-0.380885	-1.518462	1.115309
C110	C	0.119115	-1.018462	1.615309
H111	H	-0.956085	-1.329342	0.694991
H112	H	-0.456085	-0.829342	1.194991
H113	H	-0.547752	-0.930044	0.622075
H114	H	-0.047752	-0.430044	1.122075
H115	H	-0.294019	-1.740588	1.094377
H116	H	0.205981	-1.240588	1.594377
O117	O	-0.485880	-1.378727	1.119629
O118	O	0.014120	-0.878727	1.619629
H119	H	-0.472269	-1.296271	1.098640
H120	H	0.027731	-0.796271	1.598640
O121	O	-0.795403	-1.311537	0.712818
O122	O	-0.295403	-0.811537	1.212818
H123	H	-0.731069	-1.322805	0.701544
H124	H	-0.231069	-0.822805	1.201544
O125	O	-0.485811	-1.378597	0.891566
O126	O	0.014189	-0.878597	1.391566
H127	H	-0.520938	-1.331871	0.948155
H128	H	-0.020938	-0.831871	1.448155
O129	O	-0.570671	-1.113254	0.622355
O130	O	-0.070671	-0.613254	1.122355
H131	H	-0.594308	-1.161566	0.687498
H132	H	-0.094308	-0.661566	1.187498
H133	H	-1.079930	-1.640444	0.383940
H134	H	-0.579930	-1.140444	0.883940
O135	O	-0.795441	-1.725361	0.299128
O136	O	-0.295441	-1.225361	0.799128
H137	H	-0.757818	-1.678346	0.245704
H138	H	-0.257818	-1.178346	0.745704
O139	O	-0.967033	-1.725402	0.299040
O140	O	-0.467033	-1.225402	0.799040
H141	H	-0.951199	-1.807850	0.317073
H142	H	-0.451199	-1.307850	0.817073
H143	H	-0.682488	-1.396499	0.627921
H144	H	-0.182488	-0.896499	1.127921
H145	H	-0.682518	-1.640351	0.384119
H146	H	-0.182518	-1.140351	0.884119
O147	O	-0.275931	-1.132874	0.366249
O148	O	0.224069	-0.632874	0.866249
H149	H	-0.284409	-1.218390	0.377529
H150	H	0.215591	-0.718390	0.877529
O151	O	-0.293785	-1.770967	0.911151
O152	O	0.206215	-1.270967	1.411151
H153	H	-0.293741	-1.770855	0.824161
H154	H	0.206259	-1.270855	1.324161
H155	H	-0.289278	-0.919312	0.384076
H156	H	0.210722	-0.419312	0.884076
O157	O	-0.467693	-0.924561	0.758850
O158	O	0.032307	-0.424561	1.258850
H159	H	-0.456974	-0.992248	0.811584
H160	H	0.043026	-0.492248	1.311584
H161	H	-0.467520	-1.107784	0.728344
H162	H	0.032480	-0.607784	1.228344
H163	H	-0.213833	-1.634103	0.916747
H164	H	0.286167	-1.134103	1.416747
H165	H	-0.210815	-1.641552	1.090280
H166	H	0.289185	-1.141552	1.590280
H167	H	-1.079904	-1.396580	0.627759
H168	H	-0.579904	-0.896580	1.127759
