data_functionalizedCrystal
_audit_creation_method	'MofGen! by Chris Wilmer'
_symmetry_space_group_name_H-M	'P1'
_symmetry_Int_Tables_number	1
_symmetry_cell_setting	triclinic
loop_
_symmetry_equiv_pos_as_xyz
  x,y,z
_cell_length_a	27.440280
_cell_length_b	27.440280
_cell_length_c	27.440280
_cell_angle_alpha	60.004742
_cell_angle_beta	90.008003
_cell_angle_gamma	60.004534
loop_
_atom_site_label
_atom_site_type_symbol
_atom_site_fract_x
_atom_site_fract_y
_atom_site_fract_z
Zr1	Zr	0.469569	0.533327	-0.063884
O2	O	0.391762	0.634989	-0.141703
O3	O	0.493412	0.431666	-0.040030
O4	O	0.493424	0.533315	-0.141691
O5	O	0.391752	0.533349	0.040152
O6	O	0.573627	0.533306	-0.141681
O7	O	0.391751	0.533339	-0.040041
O8	O	0.573606	0.351473	0.040173
O9	O	0.391773	0.715181	-0.141702
O10	O	0.563446	0.473473	-0.029848
O11	O	0.503593	0.473488	0.029992
O12	O	0.503607	0.593167	-0.089701
O13	O	0.443753	0.593181	-0.029861
Zr14	Zr	0.597485	0.533327	0.064031
Zr15	Zr	0.597483	0.533312	-0.063868
Zr16	Zr	0.469571	0.533342	0.064015
Zr17	Zr	0.469586	0.661225	-0.063883
Zr18	Zr	0.597469	0.405430	0.064029
O19	O	0.573642	0.634989	0.040176
O20	O	0.573640	0.634968	-0.141680
O21	O	0.391765	0.635010	0.040153
O22	O	0.675292	0.431666	0.141849
O23	O	0.675290	0.431644	-0.040007
O24	O	0.493415	0.431687	0.141826
O25	O	0.675303	0.533306	-0.040006
O26	O	0.573631	0.533339	0.141838
O27	O	0.493428	0.533349	0.141828
O28	O	0.675304	0.533315	0.040188
O29	O	0.493447	0.715169	-0.141689
O30	O	0.573607	0.351485	0.141835
O31	O	0.675282	0.351473	0.141848
O32	O	0.675281	0.351461	0.040185
O33	O	0.391774	0.715193	-0.040039
O34	O	0.493449	0.715181	-0.040026
O35	O	0.563448	0.473488	0.089847
O36	O	0.623302	0.473473	0.030007
O37	O	0.563462	0.593167	-0.029846
O38	O	0.503608	0.593181	0.029994
C39	C	0.533507	0.373347	0.000071
C40	C	0.533500	0.319051	0.000071
C41	C	0.564787	-0.017698	-0.031157
C42	C	0.564792	-0.068722	-0.031156
O43	O	0.591381	-0.095135	-0.057702
N44	N	0.533549	-0.094231	0.000079
C45	C	0.502303	-0.068718	0.031319
O46	O	0.475729	-0.095101	0.057887
C47	C	0.502301	-0.017699	0.031320
C48	C	0.533542	0.007812	0.000079
C49	C	0.596025	0.007812	-0.062396
C50	C	0.596019	0.058833	-0.062398
C51	C	0.564774	0.084344	-0.031162
C52	C	0.533535	0.058833	0.000076
C53	C	0.471059	0.007809	0.062563
C54	C	0.471061	0.058832	0.062563
C55	C	0.502301	0.084343	0.031321
C56	C	0.502284	0.135365	0.031310
N57	N	0.533527	0.160874	0.000075
C58	C	0.564772	0.135364	-0.031161
C59	C	0.502309	-0.175864	0.031314
C60	C	0.502307	-0.226879	0.031309
C61	C	0.564798	-0.226880	-0.031164
C62	C	0.564796	-0.175861	-0.031163
C63	C	0.533553	-0.150355	0.000079
C64	C	0.564756	0.242512	-0.031164
C65	C	0.564745	0.293540	-0.031166
C66	C	0.502257	0.293534	0.031311
C67	C	0.502265	0.242514	0.031310
C68	C	0.533519	0.217002	0.000072
O69	O	0.475710	0.161808	0.057845
O70	O	0.591348	0.161746	-0.057718
C71	C	0.373526	0.533346	0.000053
C72	C	0.319223	0.533352	0.000046
C73	C	0.013761	0.470837	0.031332
C74	C	-0.037257	0.470833	0.031338
O75	O	-0.037080	0.417698	0.057927
N76	N	-0.094010	0.533311	0.000094
C77	C	-0.099743	0.595797	-0.031152
O78	O	-0.152700	0.648939	-0.057726
C79	C	-0.048725	0.595800	-0.031153
C80	C	0.008027	0.533318	0.000088
C81	C	0.070511	0.408360	0.062571
C82	C	0.121525	0.408364	0.062565
C83	C	0.115791	0.470845	0.031320
C84	C	0.059042	0.533322	0.000081
C85	C	-0.054459	0.658286	-0.062395
C86	C	-0.003435	0.658283	-0.062393
C87	C	0.053317	0.595801	-0.031153
C88	C	0.104322	0.595807	-0.031170
N89	N	0.161074	0.533329	0.000073
C90	C	0.166809	0.470848	0.031318
C91	C	-0.206882	0.595786	-0.031145
C92	C	-0.257899	0.595784	-0.031148
C93	C	-0.195409	0.470819	0.031343
C94	C	-0.144392	0.470823	0.031341
C95	C	-0.150129	0.533308	0.000098
C96	C	0.273941	0.470862	0.031302
C97	C	0.324958	0.470871	0.031291
C98	C	0.262464	0.595835	-0.031196
C99	C	0.211452	0.595826	-0.031188
C100	C	0.217194	0.533334	0.000066
O101	O	0.104191	0.648916	-0.057744
O102	O	0.219768	0.417715	0.057894
C103	C	0.693528	0.533308	0.000093
C104	C	0.747831	0.533302	0.000100
C105	C	0.533525	0.533308	-0.159909
C106	C	0.533524	0.533302	-0.214206
C107	C	0.533548	0.693308	0.000075
C108	C	0.533555	0.747604	0.000076
C109	C	0.502297	0.595817	-0.582183
C110	C	0.502299	0.595821	-0.633205
O111	O	0.475752	0.648957	-0.686164
N112	N	0.533533	0.533343	-0.627480
C113	C	0.564773	0.470857	-0.570727
O114	O	0.591341	0.417715	-0.570542
C115	C	0.564774	0.470854	-0.519706
C116	C	0.533533	0.533336	-0.525436
C117	C	0.471058	0.658294	-0.587911
C118	C	0.471056	0.658290	-0.536892
C119	C	0.502292	0.595809	-0.480145
C120	C	0.533530	0.533332	-0.474418
C121	C	0.596018	0.408369	-0.462955
C122	C	0.596017	0.408371	-0.411933
C123	C	0.564775	0.470853	-0.417663
C124	C	0.564764	0.470847	-0.366652
N125	N	0.533529	0.533325	-0.372378
C126	C	0.502293	0.595806	-0.429124
C127	C	0.564769	0.470868	-0.677877
C128	C	0.564764	0.470871	-0.728897
C129	C	0.502290	0.595835	-0.791371
C130	C	0.502292	0.595832	-0.740350
C131	C	0.533534	0.533346	-0.683603
C132	C	0.502290	0.595793	-0.321979
C133	C	0.502288	0.595783	-0.270952
C134	C	0.564764	0.470819	-0.208482
C135	C	0.564764	0.470829	-0.259504
C136	C	0.533525	0.533321	-0.316253
O137	O	0.591299	0.417738	-0.313675
O138	O	0.475736	0.648939	-0.429298
C139	C	0.533530	0.533346	0.160056
C140	C	0.533530	0.533352	0.214352
C141	C	0.693508	0.373328	0.000091
C142	C	0.747804	0.319026	0.000097
C143	C	0.533509	0.373365	0.160054
C144	C	0.533503	0.319076	0.214350
C145	C	0.693510	0.373347	0.160074
C146	C	0.747807	0.319051	0.214376
C147	C	0.373544	0.693308	-0.159927
C148	C	0.319248	0.747604	-0.214230
C149	C	0.373547	0.693326	0.000055
C150	C	0.319251	0.747629	0.000049
C151	C	0.533546	0.693289	-0.159907
C152	C	0.533552	0.747579	-0.214203
C153	C	0.742058	0.293525	-0.031149
C154	C	0.793070	0.242509	-0.031155
C155	C	0.849827	0.216992	0.000089
C156	C	0.855572	0.242498	0.031336
C157	C	0.804560	0.293516	0.031338
C158	C	0.564744	0.293581	0.271096
C159	C	0.564736	0.242577	0.322118
C160	C	0.533490	0.217066	0.316392
C161	C	0.502245	0.242566	0.259639
C162	C	0.502250	0.293572	0.208618
C163	C	0.804553	0.293546	0.208642
C164	C	0.855576	0.242536	0.259660
C165	C	0.849850	0.217029	0.316412
C166	C	0.793098	0.242539	0.322146
C167	C	0.742077	0.293551	0.271128
C168	C	0.262501	0.773115	-0.208495
C169	C	0.211479	0.824141	-0.259514
C170	C	0.217204	0.849650	-0.316266
C171	C	0.273957	0.824137	-0.322000
C172	C	0.324978	0.773116	-0.270982
C173	C	0.324997	0.773135	0.031290
C174	C	0.273985	0.824165	0.031282
C175	C	0.217228	0.849684	0.000036
C176	C	0.211483	0.824176	-0.031209
C177	C	0.262494	0.773150	-0.031204
C178	C	0.564804	0.773074	-0.208458
C179	C	0.564821	0.824078	-0.259469
C180	C	0.533583	0.849589	-0.316227
C181	C	0.502330	0.824089	-0.321971
C182	C	0.502316	0.773082	-0.270960
H183	H	0.621460	0.079600	-0.087836
H184	H	0.278674	0.844925	0.056727
Br185	Br	-0.187636	0.386023	0.073746
H186	H	0.809247	0.314272	0.056786
H187	H	0.175655	0.891195	-0.357803
H188	H	0.278612	0.844913	-0.368214
Br189	Br	-0.334915	0.680584	-0.073558
H190	H	0.590207	0.221746	-0.056600
Br191	Br	0.134450	0.858814	-0.073609
H192	H	0.371182	0.752345	-0.275658
H193	H	-0.211562	0.646672	-0.056590
H194	H	0.590195	0.419951	-0.254837
Br195	Br	0.459893	0.680632	-0.748134
Br196	Br	0.459857	0.207900	0.073699
Br197	Br	0.638432	-0.026796	-0.104797
Br198	Br	0.148003	0.918934	0.000036
H199	H	0.476812	0.314324	0.162414
H200	H	0.788381	0.221748	-0.056600
Br201	Br	0.459893	0.738494	-0.278768
Br202	Br	0.607196	-0.141244	-0.073563
H203	H	0.371207	0.752361	0.056737
Br204	Br	0.533607	0.918814	-0.385451
H205	H	0.788445	0.221764	0.368361
Br206	Br	0.428641	0.743092	-0.544679
Br207	Br	0.932589	0.207924	0.251865
H208	H	0.257807	0.752384	-0.056642
H209	H	-0.100661	0.709165	-0.087834
Br210	Br	0.607204	0.738463	-0.131437
Br211	Br	0.919051	0.147752	0.000080
Br212	Br	0.134465	0.858754	-0.251718
H213	H	0.590270	0.844834	-0.254780
H214	H	0.476897	0.844868	-0.368189
Br215	Br	0.254714	0.738504	-0.131481
Br216	Br	0.607142	0.328163	-0.073571
Br217	Br	0.428661	0.743102	-0.664920
H218	H	0.590240	-0.247661	-0.056598
Br219	Br	0.459895	0.680604	-0.398988
Br220	Br	0.459900	-0.141250	0.073715
Br221	Br	0.428659	-0.026801	0.104966
Br222	Br	0.459896	-0.261483	0.073699
H223	H	0.445617	0.079597	0.088003
Br224	Br	0.932604	0.207858	0.073738
H225	H	0.476816	0.314316	0.056740
H226	H	0.278626	0.419974	0.056753
Br227	Br	0.401978	0.386068	0.073689
H228	H	-0.008114	0.709168	-0.087828
H229	H	0.809227	0.314306	0.162436
Br230	Br	0.134430	0.680623	-0.073601
Br231	Br	0.459900	0.680632	-0.868395
H232	H	0.695873	0.314311	0.275806
H233	H	0.075190	0.357478	0.088018
Br234	Br	-0.067375	0.386023	0.073741
Br235	Br	0.198540	0.323562	0.104969
H236	H	0.476845	0.646666	-0.275625
Br237	Br	0.254693	0.680627	-0.073589
Br238	Br	0.607153	0.386070	-0.721112
H239	H	0.621459	0.357489	-0.458277
Br240	Br	0.607166	0.386058	-0.600863
H241	H	0.621459	0.357487	-0.365727
Br242	Br	0.607152	0.386028	-0.131461
H243	H	0.695848	0.314300	-0.056598
H244	H	0.590181	0.221821	0.368324
Br245	Br	0.607157	0.328189	0.278885
H246	H	0.891400	0.175491	0.357949
H247	H	0.533490	0.175534	0.357941
Br248	Br	0.459843	0.207936	0.251877
