data_functionalizedCrystal
_audit_creation_method	'MofGen! by Chris Wilmer'
_symmetry_space_group_name_H-M	'P1'
_symmetry_Int_Tables_number	1
_symmetry_cell_setting	triclinic
loop_
_symmetry_equiv_pos_as_xyz
  x,y,z
_cell_length_a	15.944551
_cell_length_b	14.044220
_cell_length_c	12.503572
_cell_angle_alpha	86.164750
_cell_angle_beta	86.471578
_cell_angle_gamma	91.656193
loop_
_atom_site_label
_atom_site_type_symbol
_atom_site_fract_x
_atom_site_fract_y
_atom_site_fract_z
O1	O	-0.198063	1.263177	-0.089184
O2	O	0.051937	1.513177	0.160816
O3	O	0.301937	1.763177	0.410816
O4	O	0.551937	2.013177	0.660816
O5	O	-0.190754	0.987209	-0.089212
O6	O	0.059246	1.237209	0.160788
O7	O	0.309246	1.487209	0.410788
O8	O	0.559246	1.737209	0.660788
O9	O	-0.072698	1.132729	-0.089204
O10	O	0.177302	1.382729	0.160796
O11	O	0.427302	1.632729	0.410796
O12	O	0.677302	1.882729	0.660796
O13	O	-0.316119	1.117656	-0.089193
O14	O	-0.066119	1.367656	0.160807
O15	O	0.183881	1.617656	0.410807
O16	O	0.433881	1.867656	0.660807
O17	O	-0.081592	1.121785	0.089437
O18	O	0.168408	1.371785	0.339437
O19	O	0.418408	1.621785	0.589437
O20	O	0.668408	1.871785	0.839437
O21	O	-0.199649	0.976265	0.089429
O22	O	0.050351	1.226265	0.339429
O23	O	0.300351	1.476265	0.589429
O24	O	0.550351	1.726265	0.839429
O25	O	-0.206958	1.252233	0.089457
O26	O	0.043042	1.502233	0.339457
O27	O	0.293042	1.752233	0.589457
O28	O	0.543042	2.002233	0.839457
Cu29	Cu	-0.204115	1.113250	0.105754
Cu30	Cu	0.045885	1.363250	0.355754
Cu31	Cu	0.295885	1.613250	0.605754
Cu32	Cu	0.545885	1.863250	0.855754
Cu33	Cu	-0.193596	1.126192	-0.105510
Cu34	Cu	0.056404	1.376192	0.144490
Cu35	Cu	0.306404	1.626192	0.394490
Cu36	Cu	0.556404	1.876192	0.644490
O37	O	-0.325014	1.106712	0.089448
O38	O	-0.075014	1.356712	0.339448
O39	O	0.174986	1.606712	0.589448
O40	O	0.424986	1.856712	0.839448
C41	C	-0.192002	0.946423	0.000104
C42	C	0.057998	1.196423	0.250104
C43	C	0.307998	1.446423	0.500104
C44	C	0.557998	1.696423	0.750104
C45	C	-0.182461	0.841197	0.000093
C46	C	0.067539	1.091197	0.250093
C47	C	0.317539	1.341197	0.500093
C48	C	0.567539	1.591197	0.750093
C49	C	-0.165018	0.648533	0.000114
C50	C	0.084982	0.898533	0.250114
C51	C	0.334982	1.148533	0.500114
C52	C	0.584982	1.398533	0.750114
C53	C	-0.232689	0.590904	0.000121
C54	C	0.017311	0.840904	0.250121
C55	C	0.267311	1.090904	0.500121
C56	C	0.517311	1.340904	0.750121
C57	C	-0.222984	0.483699	0.000133
C58	C	0.027016	0.733699	0.250133
C59	C	0.277016	0.983699	0.500133
C60	C	0.527016	1.233699	0.750133
C61	C	-0.174722	0.755748	0.000102
C62	C	0.075278	1.005748	0.250102
C63	C	0.325278	1.255748	0.500102
C64	C	0.575278	1.505748	0.750102
C65	C	-0.351908	1.112810	0.000129
C66	C	-0.101908	1.362810	0.250129
C67	C	0.148092	1.612810	0.500129
C68	C	0.398092	1.862810	0.750129
C69	C	-0.445294	1.114686	0.000134
C70	C	-0.195294	1.364686	0.250134
C71	C	0.054706	1.614686	0.500134
C72	C	0.304706	1.864686	0.750134
C73	C	-0.667240	1.209371	0.000127
C74	C	-0.417240	1.459371	0.250127
C75	C	-0.167240	1.709371	0.500127
C76	C	0.082760	1.959371	0.750127
C77	C	-0.729350	1.160006	0.088203
C78	C	-0.479350	1.410006	0.338203
C79	C	-0.229350	1.660006	0.588203
C80	C	0.020650	1.910006	0.838203
C81	C	-0.616274	1.118080	0.000125
C82	C	-0.366274	1.368080	0.250125
C83	C	-0.116274	1.618080	0.500125
C84	C	0.133726	1.868080	0.750125
C85	C	-0.720564	1.170775	-0.087923
C86	C	-0.470564	1.420775	0.162077
C87	C	-0.220564	1.670775	0.412077
C88	C	0.029436	1.920775	0.662077
C89	C	-0.781432	1.121365	0.000111
C90	C	-0.531432	1.371365	0.250111
C91	C	-0.281432	1.621365	0.500111
C92	C	-0.031432	1.871365	0.750111
C93	C	-0.677157	1.068686	0.088274
C94	C	-0.427157	1.318686	0.338274
C95	C	-0.177157	1.568686	0.588274
C96	C	0.072843	1.818686	0.838274
C97	C	-0.668362	1.079472	-0.087932
C98	C	-0.418362	1.329472	0.162068
C99	C	-0.168362	1.579472	0.412068
C100	C	0.081638	1.829472	0.662068
C101	C	-0.730450	1.030040	0.000166
C102	C	-0.480450	1.280040	0.250166
C103	C	-0.230450	1.530040	0.500166
C104	C	0.019550	1.780040	0.750166
C105	C	-0.521130	1.116190	0.000134
C106	C	-0.271130	1.366190	0.250134
C107	C	-0.021130	1.616190	0.500134
C108	C	0.228870	1.866190	0.750134
C109	C	-0.876574	1.123248	0.000110
C110	C	-0.626574	1.373248	0.250110
C111	C	-0.376574	1.623248	0.500110
C112	C	-0.126574	1.873248	0.750110
C113	C	-0.045804	1.126632	0.000113
C114	C	0.204196	1.376632	0.250113
C115	C	0.454196	1.626632	0.500113
C116	C	0.704196	1.876632	0.750113
C117	C	0.047583	1.124757	0.000101
C118	C	0.297583	1.374757	0.250101
C119	C	0.547583	1.624757	0.500101
C120	C	0.797583	1.874757	0.750101
C121	C	-0.205709	1.293019	0.000138
C122	C	0.044291	1.543019	0.250138
C123	C	0.294291	1.793019	0.500138
C124	C	0.544291	2.043019	0.750138
C125	C	-0.215251	1.398246	0.000142
C126	C	0.034749	1.648246	0.250142
C127	C	0.284749	1.898246	0.500142
C128	C	0.534749	2.148246	0.750142
N129	N	-0.211514	1.104153	0.254346
N130	N	0.038486	1.354153	0.504346
N131	N	0.288486	1.604153	0.754346
N132	N	0.538486	1.854153	1.004346
N133	N	-0.186192	1.135296	-0.254102
N134	N	0.063808	1.385296	-0.004102
N135	N	0.313808	1.635296	0.245898
N136	N	0.563808	1.885296	0.495898
C137	C	-0.222404	1.090773	0.473460
C138	C	0.027596	1.340773	0.723460
C139	C	0.277596	1.590773	0.973460
C140	C	0.527596	1.840773	1.223460
C141	C	-0.175304	1.148674	0.526791
C142	C	0.074696	1.398674	0.776791
C143	C	0.324696	1.648674	1.026791
C144	C	0.574696	1.898674	1.276791
C145	C	-0.181364	1.141228	0.648714
C146	C	0.068636	1.391228	0.898714
C147	C	0.318636	1.641228	1.148714
C148	C	0.568636	1.891228	1.398714
C149	C	-0.216346	1.098217	0.351527
C150	C	0.033654	1.348217	0.601527
C151	C	0.283654	1.598217	0.851527
C152	C	0.533654	1.848217	1.101527
H153	H	-0.297913	0.622079	0.000119
H154	H	-0.047913	0.872079	0.250119
H155	H	0.202087	1.122079	0.500119
H156	H	0.452087	1.372079	0.750119
O157	O	-0.281858	1.017719	0.534258
O158	O	-0.031858	1.267719	0.784258
O159	O	0.218142	1.517719	1.034258
O160	O	0.468142	1.767719	1.284258
H161	H	-0.245615	0.968492	0.585508
H162	H	0.004385	1.218492	0.835508
H163	H	0.254385	1.468492	1.085508
H164	H	0.504385	1.718492	1.335508
O165	O	-0.632928	1.034450	-0.186590
O166	O	-0.382928	1.284450	0.063410
O167	O	-0.132928	1.534450	0.313410
O168	O	0.117072	1.784450	0.563410
H169	H	-0.685086	1.014023	-0.236187
H170	H	-0.435086	1.264023	0.013813
H171	H	-0.185086	1.514023	0.263813
H172	H	0.064914	1.764023	0.513813
O173	O	-0.746094	1.227982	-0.186553
O174	O	-0.496094	1.477982	0.063447
O175	O	-0.246094	1.727982	0.313447
O176	O	0.003906	1.977982	0.563447
H177	H	-0.783996	1.181558	-0.234977
H178	H	-0.533996	1.431558	0.015023
H179	H	-0.283996	1.681558	0.265023
H180	H	-0.033996	1.931558	0.515023
H181	H	-0.099799	0.617360	0.000117
H182	H	0.150201	0.867360	0.250117
H183	H	0.400201	1.117360	0.500117
H184	H	0.650201	1.367360	0.750117
H185	H	-0.756056	1.194056	0.162673
H186	H	-0.506056	1.444056	0.412673
H187	H	-0.256056	1.694056	0.662673
H188	H	-0.006056	1.944056	0.912673
O189	O	-0.630629	1.309730	0.000246
O190	O	-0.380629	1.559730	0.250246
O191	O	-0.130629	1.809730	0.500246
O192	O	0.119371	2.059730	0.750246
H193	H	-0.655144	1.342913	0.073479
H194	H	-0.405144	1.592913	0.323479
H195	H	-0.155144	1.842913	0.573479
H196	H	0.094856	2.092913	0.823479
H197	H	-0.657988	1.025537	0.162815
H198	H	-0.407988	1.275537	0.412815
H199	H	-0.157988	1.525537	0.662815
H200	H	0.092012	1.775537	0.912815
O201	O	-0.766868	0.929584	0.000215
O202	O	-0.516868	1.179584	0.250215
O203	O	-0.266868	1.429584	0.500215
O204	O	-0.016868	1.679584	0.750215
H205	H	-0.749538	0.887445	0.073395
H206	H	-0.499538	1.137445	0.323395
H207	H	-0.249538	1.387445	0.573395
H208	H	0.000462	1.637445	0.823395
H209	H	-0.130430	1.203837	0.480881
H210	H	0.119570	1.453837	0.730881
H211	H	0.369570	1.703837	0.980881
H212	H	0.619570	1.953837	1.230881
