data_functionalizedCrystal
_audit_creation_method	'MofGen! by Chris Wilmer'
_symmetry_space_group_name_H-M	'P1'
_symmetry_Int_Tables_number	1
_symmetry_cell_setting	triclinic
loop_
_symmetry_equiv_pos_as_xyz
  x,y,z
_cell_length_a	16.992694
_cell_length_b	19.188930
_cell_length_c	16.053802
_cell_angle_alpha	92.551696
_cell_angle_beta	87.249047
_cell_angle_gamma	86.906503
loop_
_atom_site_label
_atom_site_type_symbol
_atom_site_fract_x
_atom_site_fract_y
_atom_site_fract_z
O1	O	1.043197	0.145267	-0.069340
O2	O	0.814918	0.143642	-0.069364
O3	O	0.935644	0.043185	-0.069335
O4	O	0.922471	0.245724	-0.069369
O5	O	0.928999	0.048690	0.069522
O6	O	0.808273	0.149147	0.069493
O7	O	1.036552	0.150772	0.069517
Zn8	Zn	0.921357	0.150834	0.091552
Zn9	Zn	0.930113	0.143581	-0.091399
O10	O	0.915826	0.251229	0.069488
C11	C	0.782390	0.144306	0.000061
C12	C	0.695368	0.138072	0.000053
C13	C	0.644922	0.198212	0.000043
C14	C	0.563155	0.192351	0.000056
C15	C	0.531836	0.126351	0.000072
C16	C	0.582288	0.066208	0.000084
C17	C	0.664054	0.072069	0.000077
C18	C	0.288320	0.102059	0.000098
C19	C	0.206548	0.096203	0.000102
C20	C	0.187420	0.222347	0.000076
C21	C	0.269188	0.228202	0.000064
C22	C	0.319633	0.168059	0.000081
N23	N	0.448257	0.120359	0.000082
N24	N	0.403210	0.174051	0.000076
C25	C	0.931895	0.019902	0.000096
C26	C	0.930614	-0.057677	0.000103
C27	C	1.001452	-0.098456	0.000114
C28	C	1.000250	-0.171350	0.000101
C29	C	0.928204	-0.203463	0.000093
C30	C	0.857356	-0.162676	0.000076
C31	C	0.858561	-0.089783	0.000081
N32	N	0.870872	-0.312817	0.047342
N33	N	0.869732	-0.382063	0.047339
C34	C	0.924569	-0.423085	0.000075
N35	N	0.980600	-0.392247	-0.047175
N36	N	0.981742	-0.322995	-0.047168
C37	C	0.926889	-0.282503	0.000086
C38	C	0.994108	-0.542905	0.000071
C39	C	0.992903	-0.615801	0.000052
C40	C	0.850007	-0.607124	0.000036
C41	C	0.851215	-0.534230	0.000046
C42	C	0.923267	-0.502125	0.000068
C43	C	1.069080	0.150109	0.000090
C44	C	1.156102	0.156342	0.000093
C45	C	0.919575	0.274513	0.000055
C46	C	0.920856	0.352091	0.000043
N47	N	0.915388	0.155784	0.216410
N48	N	0.936088	0.138625	-0.216258
C49	C	0.966776	0.113057	0.260117
C50	C	0.962607	0.116526	0.347523
C51	C	0.907054	0.162727	0.391220
C52	C	0.855661	0.205456	0.347508
C53	C	0.859826	0.201983	0.260104
C54	C	0.888860	0.177881	0.652626
C55	C	0.884700	0.181353	0.740036
C56	C	0.991646	0.092421	0.740045
C57	C	0.995810	0.088955	0.652639
C58	C	0.944414	0.131681	0.608934
N59	N	0.902794	0.166276	0.480563
N60	N	0.948671	0.128128	0.519593
H61	H	0.181053	0.042455	0.000114
O62	O	0.342725	0.037194	0.000115
H63	H	0.307207	-0.009683	0.000120
H64	H	0.522084	0.241323	0.000047
O65	O	1.076655	-0.215346	0.000125
H66	H	1.126959	-0.180775	0.000147
H67	H	0.294682	0.281946	0.000042
H68	H	0.556782	0.012469	0.000109
O69	O	1.079169	-0.063836	0.000123
H70	H	1.080437	-0.028602	0.056724
O71	O	1.069314	-0.659784	0.000062
H72	H	1.056375	-0.715866	0.000044
O73	O	0.779651	-0.197311	0.000069
H74	H	0.730592	-0.156706	0.000056
O75	O	0.772296	-0.641748	0.000031
H76	H	0.783358	-0.699286	0.000035
O77	O	0.774804	-0.490247	0.000050
H78	H	0.774636	-0.459067	-0.056547
H79	H	0.705127	0.023097	0.000084
H80	H	1.052778	-0.516763	0.000085
O81	O	0.782154	-0.045793	0.000083
H82	H	0.731851	-0.080365	0.000081
O83	O	1.047077	0.046336	0.787179
H84	H	1.012301	0.012126	0.827010
O85	O	0.824771	0.231177	0.787173
H86	H	0.789724	0.260298	0.742099
O87	O	1.026691	0.063222	0.212986
H88	H	1.061717	0.034089	0.258066
H89	H	0.847013	0.212672	0.617048
H90	H	1.004451	0.081734	0.383108
O91	O	1.055721	0.039118	0.605507
H92	H	1.090749	0.009983	0.650583
O93	O	0.133009	0.287212	0.000077
H94	H	0.097990	0.285318	-0.056511
O95	O	0.795744	0.255292	0.394633
H96	H	0.801486	0.250537	0.462754
O97	O	0.804406	0.248070	0.212956
H98	H	0.765081	0.280785	0.258025
O99	O	0.678695	0.269400	0.000035
H100	H	0.661108	0.296281	-0.056558
