data_functionalizedCrystal
_audit_creation_method	'MofGen! by Chris Wilmer'
_symmetry_space_group_name_H-M	'P1'
_symmetry_Int_Tables_number	1
_symmetry_cell_setting	triclinic
loop_
_symmetry_equiv_pos_as_xyz
  x,y,z
_cell_length_a	15.944551
_cell_length_b	11.026607
_cell_length_c	10.065875
_cell_angle_alpha	79.268236
_cell_angle_beta	81.248110
_cell_angle_gamma	83.957623
loop_
_atom_site_label
_atom_site_type_symbol
_atom_site_fract_x
_atom_site_fract_y
_atom_site_fract_z
O1	O	1.147788	-0.138653	-0.113626
O2	O	0.906153	-0.157954	-0.113600
O3	O	1.006943	0.028350	-0.113606
O4	O	1.046997	-0.324957	-0.113620
O5	O	0.987745	-0.007318	0.113384
O6	O	0.886955	-0.193622	0.113390
O7	O	1.128590	-0.174322	0.113363
Zn8	Zn	1.004724	-0.189635	0.149416
Zn9	Zn	1.030018	-0.142641	-0.149653
O10	O	1.027799	-0.360625	0.113370
C11	C	0.865138	-0.174987	-0.000102
C12	C	0.771528	-0.172587	-0.000091
C13	C	1.169604	-0.157288	-0.000138
C14	C	1.263215	-0.159686	-0.000157
C15	C	0.989955	0.055727	-0.000112
C16	C	0.967929	0.190444	-0.000114
C17	C	1.496394	-0.280910	-0.000131
C18	C	1.558370	-0.207034	-0.112045
C19	C	1.434596	-0.164034	-0.000137
C20	C	1.539416	-0.242172	0.111749
C21	C	1.600142	-0.168243	-0.000113
C22	C	1.495347	-0.090111	-0.112144
C23	C	1.476380	-0.125282	0.111750
C24	C	1.538328	-0.051317	-0.000191
C25	C	1.339229	-0.161612	-0.000153
C26	C	1.695507	-0.170654	-0.000107
C27	C	1.044787	-0.388002	-0.000128
C28	C	1.066815	-0.522717	-0.000134
N29	N	0.987468	-0.221707	0.353523
C30	C	1.028749	0.264246	-0.000123
C31	C	1.005985	0.403482	-0.000125
N32	N	1.047280	-0.110559	-0.353759
C33	C	1.024008	-0.153792	0.421299
C34	C	1.010735	-0.178484	0.578468
H35	H	1.477763	-0.377904	-0.000246
C36	C	1.120693	0.211173	-0.000418
C37	C	1.170418	0.268930	-0.117224
C38	C	1.255120	0.220063	-0.117555
H39	H	1.141295	0.225346	0.078640
H40	H	1.123818	0.124666	-0.000492
H41	H	1.167297	0.355416	-0.117137
H42	H	1.149843	0.254762	-0.196302
H43	H	1.258245	0.133556	-0.117629
H44	H	1.275713	0.234238	-0.038491
H45	H	1.288867	0.259235	-0.196811
C46	C	1.565418	-0.327750	0.238078
C47	C	1.522315	-0.285845	0.354994
C48	C	1.546252	-0.364646	0.471385
H49	H	1.551255	-0.409306	0.238124
H50	H	1.625061	-0.328053	0.237686
H51	H	1.462685	-0.285555	0.355386
H52	H	1.536472	-0.204300	0.354993
H53	H	1.605896	-0.364949	0.470993
H54	H	1.532088	-0.446198	0.471417
H55	H	1.517017	-0.336219	0.550726
C56	C	1.078969	-0.051975	0.343748
C57	C	1.161580	-0.076823	0.378436
C58	C	1.212240	0.016951	0.307056
H59	H	1.080728	-0.048810	0.248420
H60	H	1.055541	0.025331	0.367148
H61	H	1.185003	-0.154108	0.355027
H62	H	1.159848	-0.079976	0.473751
H63	H	1.188811	0.094257	0.330456
H64	H	1.213992	0.020108	0.211732
H65	H	1.268294	0.000111	0.330591
H66	H	1.088389	-0.034125	0.587917
C67	C	1.428691	-0.079100	0.237694
C68	C	1.450656	0.040317	0.238794
C69	C	1.406604	0.082858	0.354732
H70	H	1.369167	-0.077246	0.235965
H71	H	1.443447	-0.133096	0.317332
H72	H	1.435895	0.094300	0.159177
H73	H	1.510173	0.038497	0.240544
H74	H	1.421360	0.028861	0.434370
H75	H	1.347082	0.084704	0.352993
H76	H	1.421507	0.163881	0.355500
C77	C	1.158764	0.424223	-0.000422
C78	C	1.208491	0.481982	-0.117224
C79	C	1.293194	0.433125	-0.117544
H80	H	1.179360	0.438401	0.078639
H81	H	1.161895	0.337715	-0.000493
H82	H	1.205364	0.568470	-0.117140
H83	H	1.187921	0.467809	-0.196304
H84	H	1.296325	0.346617	-0.117615
H85	H	1.313781	0.447306	-0.038478
H86	H	1.326943	0.472299	-0.196798
H87	H	0.937058	0.443374	-0.000127
C88	C	0.875979	0.243403	-0.000178
C89	C	0.824283	0.148337	-0.000204
C90	C	0.739574	0.197074	-0.000282
H91	H	0.858046	0.279748	0.078954
H92	H	0.871517	0.304596	-0.079369
H93	H	0.828740	0.087165	0.078979
H94	H	0.842188	0.111983	-0.079330
H95	H	0.735112	0.258268	-0.079473
H96	H	0.721650	0.233419	0.078852
H97	H	0.704489	0.132583	-0.000312
H98	H	0.969618	-0.254910	0.636791
C99	C	1.605716	-0.253032	-0.238330
C100	C	1.582416	-0.174470	-0.355305
C101	C	1.626002	-0.216855	-0.471637
H102	H	1.665294	-0.253522	-0.238009
H103	H	1.591495	-0.334586	-0.238224
H104	H	1.596643	-0.092936	-0.355411
H105	H	1.522844	-0.173971	-0.355671
H106	H	1.611780	-0.298410	-0.471531
H107	H	1.685578	-0.217344	-0.471302
H108	H	1.610193	-0.163565	-0.551018
C109	C	1.469454	-0.004198	-0.238337
C110	C	1.491141	0.115612	-0.238454
C111	C	1.467289	0.194784	-0.354671
H112	H	1.498279	-0.032798	-0.317816
H113	H	1.409728	-0.003148	-0.237597
H114	H	1.550855	0.114558	-0.239207
H115	H	1.462318	0.144249	-0.159001
H116	H	1.407564	0.195834	-0.353931
H117	H	1.496117	0.166173	-0.434141
H118	H	1.481993	0.276086	-0.354760
C119	C	0.932715	-0.323598	0.431531
C120	C	0.930458	-0.327859	0.571910
C121	C	0.880036	-0.421718	0.643809
H122	H	0.876571	-0.307061	0.408369
H123	H	0.956199	-0.400925	0.408254
H124	H	0.906971	-0.250550	0.595178
H125	H	0.986589	-0.344413	0.595113
H126	H	0.903521	-0.499045	0.620532
H127	H	0.823896	-0.405172	0.620637
H128	H	0.878505	-0.424630	0.739064
H129	H	1.556808	0.045791	-0.000244
