data_functionalizedCrystal
_audit_creation_method	'MofGen! by Chris Wilmer'
_symmetry_space_group_name_H-M	'P1'
_symmetry_Int_Tables_number	1
_symmetry_cell_setting	triclinic
loop_
_symmetry_equiv_pos_as_xyz
  x,y,z
_cell_length_a	12.759401
_cell_length_b	13.897448
_cell_length_c	12.759393
_cell_angle_alpha	89.966654
_cell_angle_beta	89.981504
_cell_angle_gamma	90.017853
loop_
_atom_site_label
_atom_site_type_symbol
_atom_site_fract_x
_atom_site_fract_y
_atom_site_fract_z
Zn1	Zn	1.606234	-0.383954	-0.593968
Zn2	Zn	1.606119	-0.545283	-0.418283
Zn3	Zn	1.430536	-0.384004	-0.418308
Zn4	Zn	1.430515	-0.545209	-0.593924
O5	O	1.518351	-0.464613	-0.506121
O6	O	1.753239	-0.405365	-0.570671
O7	O	1.582788	-0.523942	-0.271265
O8	O	1.453899	-0.249016	-0.441638
O9	O	1.753155	-0.523893	-0.441596
O10	O	1.582983	-0.248979	-0.570695
O11	O	1.453788	-0.405451	-0.271283
O12	O	1.283512	-0.405379	-0.441596
O13	O	1.453864	-0.523766	-0.740951
O14	O	1.283497	-0.523815	-0.570621
O15	O	1.582964	-0.405293	-0.740984
O16	O	1.582768	-0.680255	-0.441554
O17	O	1.453753	-0.680201	-0.570597
C18	C	1.245383	-0.464595	-0.506107
C19	C	1.128607	-0.464611	-0.506125
C20	C	1.073764	-0.526379	-0.573198
C21	C	0.964040	-0.526391	-0.573209
C22	C	0.964011	-0.402864	-0.439067
C23	C	1.073733	-0.402847	-0.439062
C24	C	1.073780	-0.597700	-0.650640
C25	C	0.964056	-0.597712	-0.650652
C26	C	1.518274	-0.715227	-0.506090
C27	C	1.518337	-0.822441	-0.506113
C28	C	1.518448	-1.018736	-0.506178
C29	C	1.518383	-0.909503	-0.506145
C30	C	1.792384	-0.464631	-0.506136
C31	C	1.909161	-0.464639	-0.506142
C32	C	1.518424	-0.464515	-0.780154
C33	C	1.518456	-0.464474	-0.896931
C34	C	1.518456	-0.213020	-0.506174
C35	C	1.518501	-0.105806	-0.506197
C36	C	1.585687	-0.402779	-0.951812
C37	C	1.585712	-0.402744	-1.061536
C38	C	1.451271	-0.526107	-1.061489
C39	C	1.451242	-0.526137	-0.951767
C40	C	1.663309	-0.331559	-0.951839
C41	C	1.663334	-0.331524	-1.061564
C42	C	1.518338	-0.464640	-0.233154
C43	C	1.518510	-0.464410	-0.116377
H44	H	1.396492	-0.576371	-0.907087
H45	H	1.396546	-0.576309	-1.106150
O46	O	1.109224	-0.574044	-0.747833
C47	C	1.112663	-0.614971	-0.931294
C48	C	1.072435	-0.641858	-0.821290
H49	H	1.082954	-0.669796	-0.990711
H50	H	1.082881	-0.540324	-0.953336
H51	H	1.202011	-0.614921	-0.931257
H52	H	0.983091	-0.641963	-0.821243
H53	H	1.102297	-0.716489	-0.799293
O54	O	1.637277	-0.242402	-0.916511
C55	C	1.590011	-0.079891	-0.962378
C56	C	1.619456	-0.180816	-1.002529
H57	H	1.575616	-0.030065	-1.031903
H58	H	1.515861	-0.084711	-0.912775
H59	H	1.656837	-0.050164	-0.912716
H60	H	1.552698	-0.210602	-1.052234
H61	H	1.693638	-0.175936	-1.052075
O62	O	1.114191	-0.682388	-0.615725
C63	C	1.077727	-0.841493	-0.549971
C64	C	1.031822	-0.745645	-0.589519
H65	H	1.011154	-0.892656	-0.528752
H66	H	1.127996	-0.875136	-0.614094
H67	H	1.128028	-0.827616	-0.477713
H68	H	0.981474	-0.759440	-0.661758
H69	H	0.981612	-0.712032	-0.525333
H70	H	1.744703	-0.351532	-1.091341
O71	O	0.923369	-0.566041	-0.742932
C72	C	0.815278	-0.603103	-0.892392
C73	C	0.861267	-0.639087	-0.787897
H74	H	0.765076	-0.662150	-0.928788
H75	H	0.764928	-0.536731	-0.877598
H76	H	0.881856	-0.583806	-0.948188
H77	H	0.794756	-0.658438	-0.732050
H78	H	0.911644	-0.705425	-0.802772
O79	O	1.755407	-0.363516	-0.911050
C80	C	1.854409	-0.397803	-0.754639
C81	C	1.750050	-0.361610	-0.800694
H82	H	1.850121	-0.396255	-0.665410
H83	H	1.869447	-0.474610	-0.782122
H84	H	1.920954	-0.349268	-0.782302
H85	H	1.683440	-0.410074	-0.773051
H86	H	1.735103	-0.284787	-0.773217
O87	O	1.126845	-0.342805	-0.373820
C88	C	1.115232	-0.220224	-0.240837
C89	C	1.054953	-0.288194	-0.314652
H90	H	1.057134	-0.176038	-0.192996
H91	H	1.166548	-0.264383	-0.185736
H92	H	1.166652	-0.169880	-0.289196
H93	H	1.003476	-0.338552	-0.266377
H94	H	1.003703	-0.243974	-0.369756
O95	O	0.910541	-0.342969	-0.373950
C96	C	0.741496	-0.288212	-0.314545
C97	C	0.801915	-0.356104	-0.388332
H98	H	0.653662	-0.298793	-0.326164
H99	H	0.762957	-0.305062	-0.229774
H100	H	0.763153	-0.210459	-0.333126
H101	H	0.780292	-0.433879	-0.369847
H102	H	0.780449	-0.339170	-0.473082
H103	H	0.934257	-0.672400	-0.628717
O104	O	1.628444	-0.246926	-1.102239
C105	C	1.499672	-0.168152	-1.210485
C106	C	1.539068	-0.264015	-1.164473
H107	H	1.427420	-0.181938	-1.260829
H108	H	1.478561	-0.116924	-1.144001
H109	H	1.563929	-0.134628	-1.260749
H110	H	1.474859	-0.297622	-1.114221
H111	H	1.560211	-0.315177	-1.231006
