data_functionalizedCrystal
_audit_creation_method	'MofGen! by Chris Wilmer'
_symmetry_space_group_name_H-M	'P1'
_symmetry_Int_Tables_number	1
_symmetry_cell_setting	triclinic
loop_
_symmetry_equiv_pos_as_xyz
  x,y,z
_cell_length_a	17.699077
_cell_length_b	10.654545
_cell_length_c	16.776229
_cell_angle_alpha	89.995723
_cell_angle_beta	89.993415
_cell_angle_gamma	83.883002
loop_
_atom_site_label
_atom_site_type_symbol
_atom_site_fract_x
_atom_site_fract_y
_atom_site_fract_z
O1	O	1.005091	0.158773	-0.066274
O2	O	0.784844	0.179442	-0.066277
O3	O	0.900031	-0.013721	-0.066275
O4	O	0.889904	0.351936	-0.066276
O5	O	0.900015	-0.013732	0.066302
O6	O	0.784828	0.179430	0.066300
O7	O	1.005076	0.158761	0.066303
Zn8	Zn	0.894949	0.169094	0.087351
Zn9	Zn	0.894970	0.169109	-0.087325
O10	O	0.889888	0.351924	0.066301
C11	C	0.756634	0.178697	0.000011
C12	C	0.672602	0.176479	0.000009
C13	C	0.633119	0.175427	0.072278
C14	C	0.554163	0.173323	0.072279
C15	C	0.514691	0.172280	0.000010
C16	C	0.554179	0.173328	-0.072264
C17	C	0.633134	0.175423	-0.072264
C18	C	0.235762	0.164877	-0.072265
C19	C	0.156801	0.162785	-0.072260
C20	C	0.156791	0.162777	0.072277
C21	C	0.235746	0.164872	0.072277
C22	C	0.275228	0.165913	0.000004
C23	C	0.360841	0.168192	0.000004
C24	C	0.429078	0.170009	0.000009
C25	C	0.899279	-0.060511	0.000012
C26	C	0.897054	-0.199916	0.000007
C27	C	0.897080	-0.199911	-0.144532
C28	C	0.896050	-0.265401	-0.216801
C29	C	0.893960	-0.396383	-0.216802
C30	C	0.892897	-0.461878	-0.144526
C31	C	0.893926	-0.396389	-0.072257
C32	C	0.896019	-0.265404	-0.072263
C33	C	0.893895	-0.396392	0.072281
C34	C	0.895991	-0.265411	0.072283
C35	C	0.892831	-0.461887	0.144557
C36	C	0.893867	-0.396398	0.216828
C37	C	0.895958	-0.265409	0.216826
C38	C	0.897020	-0.199921	0.144553
C39	C	1.033285	0.159506	0.000013
C40	C	1.117318	0.161724	0.000010
C41	C	0.890640	0.398715	0.000012
C42	C	0.892865	0.538119	0.000012
N43	N	0.894941	0.169082	0.206562
N44	N	0.894984	0.169111	-0.206536
C45	C	0.945962	0.083585	0.248280
C46	C	0.945966	0.083584	0.331732
C47	C	0.894953	0.169087	0.373465
C48	C	0.843926	0.254589	0.331741
C49	C	0.843919	0.254583	0.248290
C50	C	0.843954	0.254613	0.668288
C51	C	0.843967	0.254615	0.751745
C52	C	0.946001	0.083615	0.751730
C53	C	0.945994	0.083609	0.668279
C54	C	0.894965	0.169105	0.626563
C55	C	0.894960	0.169104	0.536074
C56	C	0.894960	0.169096	0.463952
H57	H	0.124636	0.161923	0.131126
H58	H	0.892995	-0.449734	0.275669
C59	C	0.897101	-0.194542	0.295375
C60	C	0.895736	-0.279943	0.358664
C61	C	0.896794	-0.214714	0.431036
H62	H	0.853869	-0.133734	0.298481
H63	H	0.941989	-0.153187	0.298437
H64	H	0.850852	-0.321278	0.355603
H65	H	0.938964	-0.340753	0.355585
H66	H	0.941682	-0.173359	0.434098
H67	H	0.853561	-0.153908	0.434134
H68	H	0.895874	-0.272650	0.473986
C69	C	1.001402	-0.009079	0.202911
C70	C	1.048093	0.057666	0.154976
C71	C	1.099163	-0.027673	0.113172
H72	H	0.973953	-0.061300	0.170316
H73	H	1.031833	-0.060014	0.239669
H74	H	1.017666	0.108579	0.118222
H75	H	1.075559	0.109881	0.187550
H76	H	1.129594	-0.078607	0.149930
H77	H	1.071708	-0.079888	0.080582
H78	H	1.130854	0.017602	0.080649
H79	H	0.987510	0.013965	0.365699
C80	C	0.114084	0.161584	-0.150810
C81	C	0.165562	0.162909	-0.214105
C82	C	0.126240	0.161790	-0.286473
H83	H	0.077894	0.233953	-0.153930
H84	H	0.088691	0.087537	-0.153851
H85	H	0.190943	0.236949	-0.211067
H86	H	0.201753	0.090546	-0.211012
H87	H	0.100846	0.087742	-0.289513
H88	H	0.090051	0.234159	-0.289584
H89	H	0.161162	0.162677	-0.329427
H90	H	0.898791	-0.093261	-0.144538
C91	C	1.001412	-0.009367	0.623115
C92	C	1.046082	-0.084268	0.677512
C93	C	1.097134	-0.169947	0.635937
H94	H	1.033221	0.035590	0.590545
H95	H	0.973928	-0.061656	0.590589
H96	H	1.073565	-0.031986	0.710024
H97	H	1.014294	-0.129253	0.710083
H98	H	1.069649	-0.222236	0.603412
H99	H	1.128937	-0.124979	0.603369
H100	H	1.127443	-0.220786	0.672839
H101	H	0.522035	0.172469	-0.131106
C102	C	0.788487	0.347500	0.796912
C103	C	0.743780	0.422349	0.742518
C104	C	0.692661	0.507911	0.784098
H105	H	0.815896	0.399847	0.829459
H106	H	0.756715	0.302413	0.829461
H107	H	0.775548	0.467433	0.709983
H108	H	0.716355	0.370038	0.709970
H109	H	0.660889	0.462824	0.816646
H110	H	0.720077	0.560248	0.816643
H111	H	0.662317	0.558698	0.747198
C112	C	0.278699	0.166221	-0.150674
C113	C	0.316091	0.275405	-0.154893
C114	C	0.355661	0.276681	-0.227112
H115	H	0.243959	0.165373	-0.193777
H116	H	0.314930	0.093873	-0.153692
H117	H	0.279864	0.347734	-0.151883
H118	H	0.350843	0.276277	-0.111808
H119	H	0.391892	0.204334	-0.230130
H120	H	0.320916	0.275830	-0.270208
H121	H	0.381042	0.350755	-0.229981
C122	C	0.897107	-0.194096	-0.295206
C123	C	0.833328	-0.104533	-0.299439
C124	C	0.834286	-0.038813	-0.371647
H125	H	0.896162	-0.251698	-0.338318
H126	H	0.941965	-0.152646	-0.298195
H127	H	0.788482	-0.145981	-0.296457
H128	H	0.834259	-0.046905	-0.256344
H129	H	0.879144	0.002637	-0.374636
H130	H	0.833343	-0.096424	-0.414753
H131	H	0.791017	0.021971	-0.374525
C132	C	0.788683	0.347519	0.622906
C133	C	0.829398	0.424285	0.574970
C134	C	0.778508	0.509884	0.533143
H135	H	0.758290	0.398564	0.659627
H136	H	0.756944	0.302458	0.590315
H137	H	0.861124	0.469343	0.607558
H138	H	0.859788	0.373275	0.538234
H139	H	0.746769	0.464823	0.500552
H140	H	0.748117	0.560920	0.569870
H141	H	0.806125	0.561972	0.500609
H142	H	0.898727	-0.093270	0.144544
C143	C	0.675862	0.176635	-0.150811
C144	C	0.624394	0.175310	-0.214101
C145	C	0.663725	0.176439	-0.286472
H146	H	0.712055	0.104270	-0.153930
H147	H	0.701253	0.250685	-0.153857
H148	H	0.599015	0.101267	-0.211057
H149	H	0.588199	0.247669	-0.211009
H150	H	0.689116	0.250490	-0.289518
H151	H	0.699917	0.104073	-0.289583
H152	H	0.628809	0.175552	-0.329423
C153	C	0.788415	0.347273	0.377008
C154	C	0.713938	0.327033	0.356745
C155	C	0.662780	0.412381	0.398436
H156	H	0.796964	0.431126	0.363359
H157	H	0.795677	0.335026	0.432691
H158	H	0.706679	0.339291	0.301075
H159	H	0.705364	0.243198	0.370396
H160	H	0.670042	0.400133	0.454119
H161	H	0.671336	0.496228	0.384783
H162	H	0.612242	0.398652	0.384699
C163	C	0.788438	0.347212	0.202951
C164	C	0.741744	0.280407	0.155075
C165	C	0.690615	0.365693	0.113307
H166	H	0.815842	0.399463	0.170320
H167	H	0.758014	0.398120	0.239731
H168	H	0.772164	0.229521	0.118299
H169	H	0.714323	0.228161	0.187686
H170	H	0.660191	0.416601	0.150087
H171	H	0.718026	0.417939	0.080680
H172	H	0.658922	0.320378	0.080824
H173	H	0.665251	0.176287	0.131127
C174	C	0.892952	-0.467664	-0.295210
C175	C	0.956739	-0.557214	-0.299426
C176	C	0.955828	-0.622904	-0.371642
H177	H	0.893918	-0.410043	-0.338316
H178	H	0.848099	-0.509122	-0.298225
H179	H	1.001580	-0.515757	-0.296420
H180	H	0.955786	-0.614860	-0.256338
H181	H	0.910975	-0.664363	-0.374656
H182	H	0.956791	-0.565275	-0.414741
H183	H	0.999102	-0.683679	-0.374509
H184	H	0.522022	0.172446	0.131127
H185	H	0.267881	0.165728	0.131125
H186	H	0.891185	-0.568529	-0.144533
H187	H	0.891125	-0.568538	0.144551
H188	H	0.987549	0.013994	0.785705
