data_functionalizedCrystal
_audit_creation_method	'MofGen! by Chris Wilmer'
_symmetry_space_group_name_H-M	'P1'
_symmetry_Int_Tables_number	1
_symmetry_cell_setting	triclinic
loop_
_symmetry_equiv_pos_as_xyz
  x,y,z
_cell_length_a	19.288864
_cell_length_b	19.288865
_cell_length_c	17.766277
_cell_angle_alpha	90.012963
_cell_angle_beta	90.012907
_cell_angle_gamma	83.136245
loop_
_atom_site_label
_atom_site_type_symbol
_atom_site_fract_x
_atom_site_fract_y
_atom_site_fract_z
O1	O	-0.921342	-0.086651	-0.062844
O2	O	-0.421342	0.413349	0.437156
O3	O	-0.719082	-0.098340	-0.062794
O4	O	-0.219082	0.401660	0.437206
O5	O	-0.826056	0.008635	-0.062806
O6	O	-0.326056	0.508635	0.437194
O7	O	-0.814368	-0.193626	-0.062832
O8	O	-0.314368	0.306374	0.437168
O9	O	-0.826059	0.008645	0.062383
O10	O	-0.326059	0.508645	0.562383
O11	O	-0.719084	-0.098329	0.062395
O12	O	-0.219084	0.401671	0.562395
O13	O	-0.921345	-0.086641	0.062344
O14	O	-0.421345	0.413359	0.562344
Cu15	Cu	-0.820215	-0.092484	0.073800
Cu16	Cu	-0.320215	0.407516	0.573800
Cu17	Cu	-0.820212	-0.092497	-0.074250
Cu18	Cu	-0.320212	0.407503	0.425750
O19	O	-0.814370	-0.193615	0.062356
O20	O	-0.314370	0.306385	0.562356
C21	C	-0.693207	-0.097959	-0.000193
C22	C	-0.193207	0.402041	0.499807
C23	C	-0.616103	-0.096830	-0.000173
C24	C	-0.116103	0.403170	0.499827
C25	C	-0.825682	0.034516	-0.000209
C26	C	-0.325682	0.534516	0.499791
C27	C	-0.824553	0.111620	-0.000202
C28	C	-0.324553	0.611620	0.499798
C29	C	-0.947220	-0.087022	-0.000258
C30	C	-0.447220	0.412978	0.499742
C31	C	-1.024324	-0.088151	-0.000283
C32	C	-0.524324	0.411849	0.499717
C33	C	-0.571407	-0.159598	-0.000193
C34	C	-0.071407	0.340402	0.499807
C35	C	-0.498960	-0.158537	-0.000201
C36	C	0.001040	0.341463	0.499799
C37	C	-0.471212	-0.094705	-0.000205
C38	C	0.028788	0.405295	0.499795
C39	C	-0.515918	-0.031929	-0.000180
C40	C	-0.015918	0.468071	0.499820
C41	C	-0.588364	-0.032991	-0.000164
C42	C	-0.088364	0.467009	0.499836
C43	C	-0.362949	-0.044529	-0.044082
C44	C	0.137051	0.455471	0.455918
C45	C	-0.290505	-0.043469	-0.044103
C46	C	0.209495	0.456531	0.455897
C47	C	-0.247767	-0.091425	-0.000250
C48	C	0.252233	0.408575	0.499750
C49	C	-0.277480	-0.140452	0.043614
C50	C	0.222520	0.359548	0.543614
C51	C	-0.349926	-0.141515	0.043630
C52	C	0.150074	0.358485	0.543630
C53	C	-0.392658	-0.093546	-0.000221
C54	C	0.107342	0.406454	0.499779
C55	C	-0.124514	-0.153047	-0.000278
C56	C	0.375486	0.346953	0.499722
C57	C	-0.052066	-0.151984	-0.000281
C58	C	0.447934	0.348016	0.499719
C59	C	-0.069026	-0.025374	-0.000267
C60	C	0.430974	0.474626	0.499733
C61	C	-0.141473	-0.026439	-0.000256
C62	C	0.358527	0.473561	0.499744
C63	C	-0.169212	-0.090278	-0.000265
C64	C	0.330788	0.409722	0.499735
C65	C	-0.814745	-0.219497	-0.000242
C66	C	-0.314745	0.280503	0.499758
C67	C	-0.815874	-0.296601	-0.000254
C68	C	-0.315874	0.203399	0.499746
C69	C	-0.887321	0.156316	-0.000214
C70	C	-0.387321	0.656316	0.499786
C71	C	-0.886260	0.228763	-0.000226
C72	C	-0.386260	0.728763	0.499774
C73	C	-0.822428	0.256511	-0.000210
C74	C	-0.322428	0.756511	0.499790
C75	C	-0.759652	0.211805	-0.000203
C76	C	-0.259652	0.711805	0.499797
C77	C	-0.760714	0.139359	-0.000198
C78	C	-0.260714	0.639359	0.499802
C79	C	-0.772249	0.364802	0.043653
C80	C	-0.272249	0.864802	0.543653
C81	C	-0.771189	0.437246	0.043654
C82	C	-0.271189	0.937246	0.543654
C83	C	-0.819148	0.479956	-0.000226
C84	C	-0.319148	0.979956	0.499774
C85	C	-0.868179	0.450215	-0.044097
C86	C	-0.368179	0.950215	0.455903
C87	C	-0.869241	0.377769	-0.044093
C88	C	-0.369241	0.877769	0.455907
C89	C	-0.821269	0.335065	-0.000215
C90	C	-0.321269	0.835065	0.499785
C91	C	-0.880770	0.603209	-0.000252
C92	C	-0.380770	1.103209	0.499748
C93	C	-0.879707	0.675657	-0.000268
C94	C	-0.379707	1.175657	0.499732
C95	C	-0.753097	0.658697	-0.000238
C96	C	-0.253097	1.158697	0.499762
C97	C	-0.754162	0.586250	-0.000229
C98	C	-0.254162	1.086250	0.499771
C99	C	-0.818000	0.558511	-0.000232
C100	C	-0.318000	1.058511	0.499768
N101	N	-0.820210	-0.092501	-0.178380
N102	N	-0.320210	0.407499	0.321620
C103	C	-0.867663	-0.045224	-0.217772
C104	C	-0.367663	0.454776	0.282228
C105	C	-0.867669	-0.045223	-0.296574
C106	C	-0.367669	0.454777	0.203426
C107	C	-0.820210	-0.092492	-0.335981
C108	C	-0.320210	0.407508	0.164019
C109	C	-0.772754	-0.139777	-0.296579
C110	C	-0.272754	0.360223	0.203421
C111	C	-0.772754	-0.139781	-0.217779
C112	C	-0.272754	0.360219	0.282221
C113	C	-0.756923	-0.101637	-0.460811
C114	C	-0.256923	0.398363	0.039189
C115	C	-0.756922	-0.101627	-0.539610
C116	C	-0.256922	0.398373	-0.039610
C117	C	-0.820210	-0.092482	-0.579027
C118	C	-0.320210	0.407518	-0.079027
C119	C	-0.883503	-0.083330	-0.539636
C120	C	-0.383503	0.416670	-0.039636
C121	C	-0.883503	-0.083335	-0.460836
C122	C	-0.383503	0.416665	0.039164
C123	C	-0.820205	-0.092492	-0.421426
C124	C	-0.320205	0.407508	0.078574
C125	C	-0.867673	-0.045202	-0.703865
C126	C	-0.367673	0.454798	-0.203865
C127	C	-0.867680	-0.045205	-0.782668
C128	C	-0.367680	0.454795	-0.282668
C129	C	-0.772760	-0.139755	-0.782672
C130	C	-0.272760	0.360245	-0.282672
C131	C	-0.772759	-0.139755	-0.703870
C132	C	-0.272759	0.360245	-0.203870
C133	C	-0.820215	-0.092474	-0.664471
C134	C	-0.320215	0.407526	-0.164471
N135	N	-0.820222	-0.092475	0.177931
N136	N	-0.320222	0.407525	0.677931
H137	H	-0.593987	-0.211580	-0.000202
H138	H	-0.093987	0.288420	0.499798
Cl139	Cl	-0.930872	0.340381	-0.099247
Cl140	Cl	-0.430872	0.840381	0.400753
Cl141	Cl	-0.711953	0.311117	0.098824
Cl142	Cl	-0.211953	0.811117	0.598824
H143	H	-0.734112	-0.178280	-0.185705
H144	H	-0.234112	0.321720	0.314295
H145	H	-0.734114	-0.178264	-0.328668
H146	H	-0.234114	0.321736	0.171332
Cl147	Cl	-0.927336	0.014233	-0.654334
Cl148	Cl	-0.427336	0.514233	-0.154334
H149	H	-0.734116	-0.178249	-0.671795
H150	H	-0.234116	0.321751	-0.171795
Cl151	Cl	-0.442760	-0.237451	-0.000225
Cl152	Cl	0.057240	0.262549	0.499775
H153	H	-0.701123	0.681288	-0.000229
H154	H	-0.201123	1.181288	0.499771
Cl155	Cl	-0.927328	0.014216	-0.346104
Cl156	Cl	-0.427328	0.514216	0.153896
H157	H	-0.703049	0.549857	-0.000215
H158	H	-0.203049	1.049857	0.499785
Cl159	Cl	-0.677357	-0.113193	-0.589122
Cl160	Cl	-0.177357	0.386807	-0.089122
H161	H	-0.935037	-0.075886	-0.428766
H162	H	-0.435037	0.424114	0.071234
Cl163	Cl	-0.253157	0.018157	-0.099252
Cl164	Cl	0.246843	0.518157	0.400748
H165	H	-0.397742	-0.005477	-0.079797
H166	H	0.102258	0.494523	0.420203
H167	H	-0.930822	0.712049	-0.000282
H168	H	-0.430822	1.212049	0.499718
H169	H	-0.935039	-0.075888	-0.571728
H170	H	-0.435039	0.424112	-0.071728
Cl171	Cl	-0.709554	0.474629	0.098808
Cl172	Cl	-0.209554	0.974629	0.598808
H173	H	-0.493322	0.020044	-0.000193
H174	H	0.006678	0.520044	0.499807
Cl175	Cl	-0.387278	-0.203143	0.098773
Cl176	Cl	0.112722	0.296857	0.598773
H177	H	-0.242684	-0.179502	0.079324
H178	H	0.257316	0.320498	0.579324
H179	H	-0.906326	-0.006709	-0.814742
H180	H	-0.406326	0.493291	-0.314742
Cl181	Cl	0.004125	-0.230900	-0.000303
Cl182	Cl	0.504125	0.269100	0.499697
Cl183	Cl	-0.713103	-0.199184	-0.832206
Cl184	Cl	-0.213103	0.300816	-0.332206
H185	H	-0.707679	0.234401	-0.000192
H186	H	-0.207679	0.734401	0.499808
Cl187	Cl	-0.677352	-0.113138	-0.411266
Cl188	Cl	-0.177352	0.386862	0.088734
H189	H	-0.147101	-0.205028	-0.000274
H190	H	0.352899	0.294972	0.499726
Cl191	Cl	-0.644557	0.045924	-0.000140
Cl192	Cl	-0.144557	0.545924	0.499860
H193	H	-0.177866	0.024674	-0.000244
H194	H	0.322134	0.524674	0.499756
Cl195	Cl	-0.034151	0.054873	-0.000262
Cl196	Cl	0.465849	0.554873	0.499738
Cl197	Cl	-0.928473	0.503899	-0.099266
Cl198	Cl	-0.428473	1.003899	0.400734
H199	H	-0.709599	0.102967	-0.000188
H200	H	-0.209599	0.602967	0.499812
Cl201	Cl	-0.967575	0.121448	-0.000240
Cl202	Cl	-0.467575	0.621448	0.499760
H203	H	-0.932751	0.580622	-0.000258
H204	H	-0.432751	1.080622	0.499742
Cl205	Cl	-0.965174	0.284963	-0.000241
Cl206	Cl	-0.465174	0.784963	0.499759
H207	H	-0.906306	-0.006727	-0.185696
H208	H	-0.406306	0.493273	0.314304
