data_functionalizedCrystal
_audit_creation_method	'MofGen! by Chris Wilmer'
_symmetry_space_group_name_H-M	'P1'
_symmetry_Int_Tables_number	1
_symmetry_cell_setting	triclinic
loop_
_symmetry_equiv_pos_as_xyz
  x,y,z
_cell_length_a	6.817900
_cell_length_b	10.943624
_cell_length_c	17.253796
_cell_angle_alpha	97.445653
_cell_angle_beta	102.657420
_cell_angle_gamma	108.838799
loop_
_atom_site_label
_atom_site_type_symbol
_atom_site_fract_x
_atom_site_fract_y
_atom_site_fract_z
V1	V	-4.090998	-0.414806	-0.111273
O2	O	-4.074386	-0.394297	0.005369
O3	O	-4.044867	-0.424100	-0.220656
O4	O	-4.069339	-0.590183	-0.109552
O5	O	-4.049744	-0.227064	-0.106505
V6	V	-4.570867	-0.390877	-0.097322
O7	O	-4.360272	-0.467296	-0.141874
O8	O	-4.751790	-0.338387	-0.066721
O9	O	-4.393791	-0.381583	0.012061
O10	O	-4.704875	-0.411386	-0.213964
O11	O	-4.729517	-0.578619	-0.102090
O12	O	-4.369319	-0.215500	-0.099043
C13	C	-3.889554	-0.420686	-0.247322
C14	C	-3.933302	-0.429454	-0.336744
C15	C	-4.185958	-0.491616	-0.841330
C16	C	-4.144843	-0.483379	-0.757308
C17	C	-4.065692	-0.359758	-0.703814
C18	C	-4.027676	-0.244368	-0.734346
C19	C	-4.068805	-0.252607	-0.818366
C20	C	-3.936415	-0.322303	-0.451296
C21	C	-3.895281	-0.314072	-0.367270
C22	C	-4.012455	-0.553084	-0.390239
C23	C	-4.053568	-0.561312	-0.474260
C24	C	-4.015559	-0.445922	-0.504784
N25	N	-4.023658	-0.351335	-0.617930
N26	N	-4.057607	-0.454347	-0.590667
C27	C	-3.920770	-0.632540	-0.105596
C28	C	-3.984361	-0.775991	-0.104912
C29	C	-3.830204	-0.852632	-0.100310
C30	C	-4.004523	-0.966145	-0.168623
C31	C	-3.923373	-0.918085	-0.035390
C32	C	-4.157876	-0.887635	-0.173289
C33	C	-4.076660	-0.839545	-0.039996
C34	C	-4.251111	-0.953031	-0.108328
C35	C	-4.212445	-0.384994	0.038722
C36	C	-4.147937	-0.376235	0.128144
C37	C	-4.181229	-0.173137	-0.103002
C38	C	-4.096877	-0.029684	-0.103681
H39	H	-3.905458	-0.228345	-0.476139
C40	C	-4.054265	-0.680000	-0.356659
H41	H	-4.018448	-0.657394	-0.298959
H42	H	-3.967883	-0.726045	-0.372534
H43	H	-4.202287	-0.734858	-0.377760
C44	C	-4.116837	-0.765267	0.033466
H45	H	-4.032814	-0.774937	0.082401
H46	H	-4.265382	-0.800898	0.031130
H47	H	-4.077041	-0.674120	0.032200
H48	H	-4.037842	-0.158651	-0.843219
C49	C	-4.291005	-0.868580	-0.252108
H50	H	-4.387311	-0.952391	-0.284543
H51	H	-4.196742	-0.825440	-0.281514
H52	H	-4.371126	-0.816165	-0.238889
H53	H	-3.963240	-0.143714	-0.690784
C54	C	-3.589106	-0.793427	-0.095849
H55	H	-3.515726	-0.725170	-0.048240
H56	H	-3.573548	-0.757945	-0.142522
H57	H	-3.529296	-0.860645	-0.094022
H58	H	-3.974689	-1.021083	-0.223002
H59	H	-3.830811	-0.213400	-0.323716
C60	C	-4.492329	-1.011973	-0.112928
H61	H	-4.575751	-1.002096	-0.161927
H62	H	-4.518622	-0.966985	-0.067695
H63	H	-4.531435	-1.103224	-0.112020
H64	H	-4.250392	-0.592281	-0.884879
C65	C	-4.186652	-0.610298	-0.723732
H66	H	-4.239654	-0.685100	-0.767624
H67	H	-4.290243	-0.616468	-0.694048
H68	H	-4.055829	-0.607638	-0.688818
C69	C	-3.790282	-0.937387	0.043349
H70	H	-3.641348	-0.902843	0.046099
H71	H	-3.832855	-1.029003	0.043472
H72	H	-3.814501	-0.892191	0.089055
H73	H	-4.118020	-0.661977	-0.517810
