data_functionalizedCrystal
_audit_creation_method	'MofGen! by Chris Wilmer'
_symmetry_space_group_name_H-M	'P1'
_symmetry_Int_Tables_number	1
_symmetry_cell_setting	triclinic
loop_
_symmetry_equiv_pos_as_xyz
  x,y,z
_cell_length_a	16.625546
_cell_length_b	15.298073
_cell_length_c	15.296721
_cell_angle_alpha	91.646799
_cell_angle_beta	99.642565
_cell_angle_gamma	80.320008
loop_
_atom_site_label
_atom_site_type_symbol
_atom_site_fract_x
_atom_site_fract_y
_atom_site_fract_z
Zn1	Zn	-0.239905	-1.253374	-0.727392
Zn2	Zn	-0.348194	-1.278637	-0.580918
Zn3	Zn	-0.232066	-1.132255	-0.555555
Zn4	Zn	-0.393390	-1.106867	-0.701934
O5	O	-0.303389	-1.192783	-0.641450
O6	O	-0.238636	-1.379301	-0.729231
O7	O	-0.310594	-1.280416	-0.454994
O8	O	-0.120271	-1.148374	-0.578390
O9	O	-0.318195	-1.397861	-0.621617
O10	O	-0.126031	-1.237360	-0.704637
O11	O	-0.225275	-1.172869	-0.436360
O12	O	-0.269100	-1.006312	-0.553704
O13	O	-0.395225	-1.105105	-0.827870
O14	O	-0.387624	-0.987660	-0.661247
O15	O	-0.282460	-1.212743	-0.846575
O16	O	-0.467024	-1.255799	-0.596931
O17	O	-0.500229	-1.129601	-0.685841
C18	C	-0.332416	-0.965203	-0.601961
C19	C	-0.344858	-0.867840	-0.585089
C20	C	-0.214625	-0.554677	-0.761999
C21	C	-0.202939	-0.646154	-0.777857
C22	C	-0.238418	-0.701580	-0.729666
C23	C	-0.285585	-0.665520	-0.665615
C24	C	-0.297277	-0.574034	-0.649761
C25	C	-0.321070	-0.720937	-0.617428
C26	C	-0.368237	-0.684877	-0.553377
C27	C	-0.379927	-0.593399	-0.537525
C28	C	-0.344448	-0.537973	-0.585716
C29	C	-0.309377	-0.812423	-0.633282
C30	C	-0.392029	-0.831780	-0.521044
C31	C	-0.403715	-0.740303	-0.505186
C32	C	-0.512884	-1.192707	-0.641399
C33	C	-0.602501	-1.192749	-0.641420
C34	C	-0.930674	-1.192886	-0.641538
C35	C	-0.839367	-1.192845	-0.641507
C36	C	-0.766591	-1.192817	-0.641478
C37	C	-0.675278	-1.192777	-0.641449
C38	C	-0.093076	-1.192881	-0.641524
C39	C	-0.003454	-1.192922	-0.641556
C40	C	-0.344759	-1.153274	-0.869889
C41	C	-0.362388	-1.136438	-0.967237
C42	C	-0.274240	-0.421253	-0.681085
C43	C	-0.261796	-0.518617	-0.697954
C44	C	-0.429381	-1.072483	-1.003229
C45	C	-0.445949	-1.056665	-1.094692
C46	C	-0.395523	-1.104796	-1.150171
C47	C	-0.328525	-1.168748	-1.114178
C48	C	-0.311959	-1.184572	-1.022707
C49	C	-0.278100	-1.216885	-1.169649
C50	C	-0.211103	-1.280837	-1.133656
C51	C	-0.194539	-1.296658	-1.042193
C52	C	-0.244966	-1.248527	-0.986715
C53	C	-0.294666	-1.201061	-1.261120
C54	C	-0.177244	-1.313150	-1.280598
C55	C	-0.160676	-1.328968	-1.189135
C56	C	-0.262115	-1.232189	-0.413907
C57	C	-0.244237	-1.249195	-0.316590
H58	H	-0.228897	-0.776065	-0.742578
C59	C	-0.372206	-1.127043	-1.392676
C60	C	-0.368307	-1.130769	-1.300678
H61	H	-0.417675	-1.083648	-1.417096
H62	H	-0.322388	-1.111651	-1.405458
H63	H	-0.379214	-1.183301	-1.417868
H64	H	-0.361293	-1.074512	-1.275486
H65	H	-0.418137	-1.146155	-1.287889
C66	C	-0.560344	-0.947458	-1.066244
C67	C	-0.519584	-0.986367	-1.134252
H68	H	-0.605802	-0.904052	-1.090669
H69	H	-0.579860	-0.991776	-1.037184
H70	H	-0.523014	-0.920145	-1.024766
H71	H	-0.556913	-1.013686	-1.175728
H72	H	-0.500069	-0.942042	-1.163327
H73	H	-0.353967	-0.463483	-0.572814
C74	C	-0.456114	-1.046981	-0.854366
C75	C	-0.484804	-1.019583	-0.942247
H76	H	-0.490332	-1.014316	-0.816719
H77	H	-0.457699	-1.108413	-0.849595
H78	H	-0.400857	-1.036778	-0.837181
H79	H	-0.540060	-1.029792	-0.959435
H80	H	-0.483228	-0.958136	-0.947022
H81	H	-0.164539	-0.675507	-0.830010
H82	H	-0.185750	-0.509541	-0.801234
H83	H	-0.418340	-0.564042	-0.485377
C84	C	-0.536017	-0.719512	-0.457361
C85	C	-0.455567	-0.700660	-0.434788
H86	H	-0.568025	-0.695042	-0.413897
H87	H	-0.560462	-0.694355	-0.513580
H88	H	-0.534123	-0.781928	-0.459901
H89	H	-0.457460	-0.638244	-0.432254
H90	H	-0.431116	-0.725814	-0.378554
C91	C	-0.080132	-1.405860	-1.070635
C92	C	-0.120898	-1.366957	-1.002629
H93	H	-0.034666	-1.449255	-1.046208
H94	H	-0.117450	-1.433177	-1.112110
H95	H	-0.060620	-1.361530	-1.099698
H96	H	-0.140415	-1.411286	-0.973570
H97	H	-0.083573	-1.339641	-0.961139
H98	H	-0.231475	-1.261397	-0.912236
H99	H	-0.420923	-0.876907	-0.481807
H100	H	-0.106126	-1.381038	-1.159816
H101	H	-0.409016	-1.091913	-1.224644
C102	C	-0.085845	-1.307577	-1.385593
C103	C	-0.121801	-1.366058	-1.341566
H104	H	-0.051615	-1.340240	-1.423230
H105	H	-0.128111	-1.267234	-1.420118
H106	H	-0.053410	-1.275606	-1.343287
H107	H	-0.154241	-1.398024	-1.383873
H108	H	-0.079529	-1.406416	-1.307039
C109	C	-0.293586	-0.814956	-0.786549
C110	C	-0.257529	-0.852053	-0.703680
H111	H	-0.261570	-0.839419	-0.830009
H112	H	-0.348157	-0.827747	-0.801850
H113	H	-0.295470	-0.752541	-0.783989
H114	H	-0.255651	-0.914467	-0.706238
H115	H	-0.202943	-0.839268	-0.688376
