data_functionalizedCrystal
_audit_creation_method	'MofGen! by Chris Wilmer'
_symmetry_space_group_name_H-M	'P1'
_symmetry_Int_Tables_number	1
_symmetry_cell_setting	triclinic
loop_
_symmetry_equiv_pos_as_xyz
  x,y,z
_cell_length_a	9.065218
_cell_length_b	10.654550
_cell_length_c	9.730223
_cell_angle_alpha	90.004253
_cell_angle_beta	89.995544
_cell_angle_gamma	95.249592
loop_
_atom_site_label
_atom_site_type_symbol
_atom_site_fract_x
_atom_site_fract_y
_atom_site_fract_z
O1	O	1.959392	-0.184159	-0.114328
O2	O	1.530025	-0.199265	-0.114322
O3	O	1.754581	-0.009012	-0.114317
O4	O	1.734837	-0.374412	-0.114334
O5	O	1.754566	-0.009006	0.114263
O6	O	1.530010	-0.199259	0.114258
O7	O	1.959378	-0.184154	0.114252
Zn8	Zn	1.744692	-0.191706	0.150547
Zn9	Zn	1.744711	-0.191713	-0.150617
O10	O	1.734822	-0.374407	0.114246
C11	C	1.475039	-0.197810	-0.000032
C12	C	1.311220	-0.193469	-0.000029
C13	C	1.753124	0.037795	-0.000027
C14	C	1.748786	0.177255	-0.000030
C15	C	2.014364	-0.185608	-0.000042
C16	C	2.178183	-0.189949	-0.000053
C17	C	1.736279	-0.421213	-0.000046
C18	C	1.740616	-0.560673	-0.000053
N19	N	1.744689	-0.191700	0.356083
C20	C	1.881001	0.256217	-0.000032
C21	C	1.876917	0.387254	-0.000049
C22	C	1.608391	0.360354	-0.000055
C23	C	1.612477	0.229320	-0.000048
N24	N	1.744725	-0.191708	-0.356154
C25	C	1.844157	-0.107492	0.428011
C26	C	1.844172	-0.107493	0.571894
C27	C	1.645247	-0.275920	0.571908
C28	C	1.645226	-0.275912	0.428028
H29	H	1.984580	0.451541	-0.000053
H30	H	1.991993	0.213831	-0.000020
C31	C	1.458464	0.417631	-0.000056
H32	H	1.474964	0.506980	-0.000045
H33	H	1.403969	0.390625	-0.079764
H34	H	1.403969	0.390635	0.079668
H35	H	1.925144	-0.038920	0.369438
H36	H	1.564221	-0.344485	0.369459
H37	H	1.925165	-0.038922	0.630455
H38	H	1.564268	-0.344486	0.630499
H39	H	1.504805	0.165025	-0.000050
