data_functionalizedCrystal
_audit_creation_method	'MofGen! by Chris Wilmer'
_symmetry_space_group_name_H-M	'P1'
_symmetry_Int_Tables_number	1
_symmetry_cell_setting	triclinic
loop_
_symmetry_equiv_pos_as_xyz
  x,y,z
_cell_length_a	21.295420
_cell_length_b	21.295417
_cell_length_c	18.101389
_cell_angle_alpha	89.978482
_cell_angle_beta	89.980845
_cell_angle_gamma	90.027953
loop_
_atom_site_label
_atom_site_type_symbol
_atom_site_fract_x
_atom_site_fract_y
_atom_site_fract_z
Zn1	Zn	0.962324	-0.250705	-0.418721
Zn2	Zn	0.962239	-0.355958	-0.294872
Zn3	Zn	0.857058	-0.250704	-0.294893
Zn4	Zn	0.857019	-0.355937	-0.418672
O5	O	0.909660	-0.303326	-0.356789
O6	O	1.050402	-0.264676	-0.402304
O7	O	0.948267	-0.342004	-0.191242
O8	O	0.871074	-0.162614	-0.311348
O9	O	1.050339	-0.342005	-0.311313
O10	O	0.948413	-0.162615	-0.402323
O11	O	0.870991	-0.264674	-0.191257
O12	O	0.768963	-0.264654	-0.311301
O13	O	0.871007	-0.341969	-0.522311
O14	O	0.768934	-0.341968	-0.402241
O15	O	0.948375	-0.264655	-0.522347
O16	O	0.948228	-0.444045	-0.311266
O17	O	0.870924	-0.444029	-0.402221
C18	C	0.746108	-0.303309	-0.356768
C19	C	0.676140	-0.303317	-0.356777
C20	C	0.176684	-0.343657	-0.404096
C21	C	0.242426	-0.343658	-0.404088
C22	C	0.275301	-0.303340	-0.356813
C23	C	0.242427	-0.263031	-0.309528
C24	C	0.176686	-0.263036	-0.309532
N25	N	0.378541	-0.248223	-0.351244
N26	N	0.440993	-0.248219	-0.351245
C27	C	0.473375	-0.303322	-0.356797
N28	N	0.440948	-0.358430	-0.362363
N29	N	0.378490	-0.358433	-0.362367
C30	C	0.346586	-0.303330	-0.356803
C31	C	0.577526	-0.343633	-0.404067
C32	C	0.643270	-0.343634	-0.404054
C33	C	0.643270	-0.263001	-0.309497
C34	C	0.577528	-0.263006	-0.309506
C35	C	0.544660	-0.303320	-0.356795
C36	C	0.909580	-0.466877	-0.356752
C37	C	0.909603	-0.536845	-0.356761
C38	C	0.949850	-0.569655	-0.404166
C39	C	0.949872	-0.635398	-0.404184
C40	C	0.909654	-0.668328	-0.356784
C41	C	0.869399	-0.635510	-0.309376
C42	C	0.869373	-0.569769	-0.309364
N43	N	0.904900	-0.771581	-0.291972
N44	N	0.904928	-0.834032	-0.291985
C45	C	0.909727	-0.866403	-0.356817
N46	N	0.914511	-0.833962	-0.421637
N47	N	0.914486	-0.771505	-0.421623
C48	C	0.909677	-0.739613	-0.356792
C49	C	0.950001	-0.970498	-0.404246
C50	C	0.950019	-1.036242	-0.404266
C51	C	0.869548	-1.036353	-0.309451
C52	C	0.869527	-0.970610	-0.309438
C53	C	0.909757	-0.937687	-0.356835
C54	C	1.073850	-0.303343	-0.356811
C55	C	1.143818	-0.303351	-0.356821
C56	C	0.909696	-0.303310	-0.549951
C57	C	0.909712	-0.303303	-0.632266
C58	C	0.909758	-0.139135	-0.356843
C59	C	0.909799	-0.069167	-0.356866
C60	C	0.909748	-0.303185	-0.931357
C61	C	0.860903	-0.351674	-0.900009
C62	C	0.861035	-0.351899	-0.814391
C63	C	0.909730	-0.303244	-0.782974
C64	C	0.976053	-0.321252	-0.814072
C65	C	0.975781	-0.321571	-0.899717
C66	C	0.892847	-0.236580	-0.899787
C67	C	0.891372	-0.236964	-0.814136
C68	C	0.909723	-0.303276	-0.699115
C69	C	0.909759	-0.303155	-1.015216
C70	C	0.909660	-0.303296	-0.164379
C71	C	0.909766	-0.303126	-0.082065
H72	H	0.550764	-0.376460	-0.442571
H73	H	0.990628	-0.369424	-0.792625
O74	O	0.830190	-0.537963	-0.263346
C75	C	0.767447	-0.554059	-0.279479
H76	H	0.766144	-0.601780	-0.307956
H77	H	0.739248	-0.556356	-0.226002
H78	H	0.746214	-0.517059	-0.317523
H79	H	0.149927	-0.376487	-0.442600
H80	H	0.670036	-0.230176	-0.271002
H81	H	1.013424	-0.287045	-0.793724
O82	O	0.545696	-0.223786	-0.263565
C83	C	0.588806	-0.188211	-0.221822
H84	H	0.635680	-0.186065	-0.252156
H85	H	0.569829	-0.138606	-0.214029
H86	H	0.595769	-0.211194	-0.165528
H87	H	0.845325	-0.220172	-0.921379
O88	O	0.989089	-0.938609	-0.450365
C89	C	1.024623	-0.981669	-0.492206
H90	H	0.998856	-1.028554	-0.494746
H91	H	1.031294	-0.962643	-0.550560
H92	H	1.072452	-0.988631	-0.465148
O93	O	0.935247	-0.193402	-0.923881
C94	C	0.919631	-0.133854	-0.895255
H95	H	0.890126	-0.139867	-0.843168
H96	H	0.964460	-0.107113	-0.881258
H97	H	0.891679	-0.106431	-0.938191
H98	H	0.269190	-0.376480	-0.442588
O99	O	0.274429	-0.223953	-0.263569
C100	C	0.312416	-0.259734	-0.215651
H101	H	0.322253	-0.307469	-0.241672
H102	H	0.358653	-0.234078	-0.205779
H103	H	0.287061	-0.266588	-0.160756
O104	O	0.830417	-0.938833	-0.263311
C105	C	0.794911	-0.981992	-0.221490
H106	H	0.820713	-1.028834	-0.218964
H107	H	0.788221	-0.963030	-0.163130
H108	H	0.747091	-0.989012	-0.248557
O109	O	0.675100	-0.382811	-0.450048
C110	C	0.631990	-0.418403	-0.491771
H111	H	0.585139	-0.392624	-0.494392
H112	H	0.651003	-0.425183	-0.550104
H113	H	0.624966	-0.466181	-0.464556
O114	O	0.802036	-0.338480	-0.924601
C115	C	0.778693	-0.390086	-0.964924
H116	H	0.804389	-0.434572	-0.947259
H117	H	0.726314	-0.395669	-0.953657
H118	H	0.786498	-0.381747	-1.026463
O119	O	0.989148	-1.068186	-0.450214
C120	C	1.029845	-1.106188	-0.408097
H121	H	1.007670	-1.116080	-0.351955
H122	H	1.038284	-1.152397	-0.438278
H123	H	1.076490	-1.080818	-0.400000
H124	H	0.982641	-0.662117	-0.442795
H125	H	0.836651	-0.662326	-0.270784
H126	H	0.149927	-0.230212	-0.271034
H127	H	0.982606	-0.542851	-0.442760
O128	O	0.830445	-1.068400	-0.263512
C129	C	0.789769	-1.106428	-0.305643
H130	H	0.811950	-1.116234	-0.361789
H131	H	0.781359	-1.152678	-0.275478
H132	H	0.743109	-1.081124	-0.313729
O133	O	0.802328	-0.338558	-0.789340
C134	C	0.759855	-0.384225	-0.815503
H135	H	0.786492	-0.429123	-0.829366
H136	H	0.723324	-0.394553	-0.771074
H137	H	0.735402	-0.365926	-0.867221
H138	H	0.871951	-0.400743	-0.921530
O139	O	0.874267	-0.410805	-0.789914
C140	C	0.823899	-0.433110	-0.746656
H141	H	0.779176	-0.406849	-0.762202
H142	H	0.817117	-0.485466	-0.757084
H143	H	0.834675	-0.425053	-0.685704
H144	H	1.013408	-0.287787	-0.920455
O145	O	0.992959	-0.379657	-0.923464
C146	C	1.053661	-0.393717	-0.897169
H147	H	1.063956	-0.364205	-0.846055
H148	H	1.056412	-0.445663	-0.882278
H149	H	1.089701	-0.382655	-0.941910
H150	H	0.842564	-0.223384	-0.793810
O151	O	0.930792	-0.191655	-0.788590
C152	C	0.976029	-0.219017	-0.741725
H153	H	0.980955	-0.271022	-0.755457
H154	H	1.023144	-0.194578	-0.750057
H155	H	0.960568	-0.213577	-0.681765
