data_functionalizedCrystal
_audit_creation_method	'MofGen! by Chris Wilmer'
_symmetry_space_group_name_H-M	'P1'
_symmetry_Int_Tables_number	1
_symmetry_cell_setting	triclinic
loop_
_symmetry_equiv_pos_as_xyz
  x,y,z
_cell_length_a	16.109301
_cell_length_b	14.971486
_cell_length_c	14.048226
_cell_angle_alpha	89.993360
_cell_angle_beta	89.996259
_cell_angle_gamma	83.537805
loop_
_atom_site_label
_atom_site_type_symbol
_atom_site_fract_x
_atom_site_fract_y
_atom_site_fract_z
O1	O	1.103277	0.114973	-0.079101
O2	O	1.603277	0.614973	0.420899
O3	O	0.861233	0.129281	-0.079116
O4	O	1.361233	0.629281	0.420884
O5	O	0.988743	-0.008082	-0.079101
O6	O	1.488743	0.491918	0.420899
O7	O	0.975768	0.252337	-0.079116
O8	O	1.475768	0.752337	0.420884
O9	O	0.988727	-0.008090	0.079220
O10	O	1.488727	0.491910	0.579220
O11	O	0.861218	0.129273	0.079205
O12	O	1.361218	0.629273	0.579205
O13	O	1.103262	0.114965	0.079220
O14	O	1.603262	0.614965	0.579220
Zn15	Zn	0.982237	0.122118	0.104350
Zn16	Zn	1.482237	0.622118	0.604350
Zn17	Zn	0.982258	0.122129	-0.104245
Zn18	Zn	1.482258	0.622129	0.395755
O19	O	0.975752	0.252329	0.079206
O20	O	1.475752	0.752329	0.579206
C21	C	0.988155	-0.041410	0.000059
C22	C	1.488155	0.458590	0.500059
C23	C	0.986416	-0.140705	0.000058
C24	C	1.486416	0.359295	0.500058
C25	C	0.830250	0.128698	0.000043
C26	C	1.330250	0.628698	0.500043
C27	C	0.737952	0.126960	0.000037
C28	C	1.237952	0.626960	0.500037
C29	C	1.061324	-0.198038	0.000063
C30	C	1.561324	0.301962	0.500063
C31	C	1.059685	-0.291335	0.000054
C32	C	1.559685	0.208665	0.500054
C33	C	0.983137	-0.327297	0.000046
C34	C	1.483137	0.172703	0.500046
C35	C	0.908223	-0.269956	0.000037
C36	C	1.408223	0.230044	0.500037
C37	C	0.909863	-0.176661	0.000040
C38	C	1.409863	0.323339	0.500040
C39	C	0.904811	-0.464414	0.000034
C40	C	1.404811	0.035586	0.500034
C41	C	0.903171	-0.557716	0.000033
C42	C	1.403171	-0.057716	0.500033
C43	C	1.054633	-0.579088	0.000047
C44	C	1.554633	-0.079088	0.500047
C45	C	1.056273	-0.485793	0.000050
C46	C	1.556273	0.014207	0.500050
C47	C	0.981359	-0.428458	0.000044
C48	C	1.481359	0.071542	0.500044
C49	C	0.515777	0.204428	0.000044
C50	C	1.015777	0.704428	0.500044
C51	C	0.429054	0.202789	0.000050
C52	C	0.929054	0.702789	0.500050
C53	C	0.448725	0.039812	0.000055
C54	C	0.948725	0.539812	0.500055
C55	C	0.535446	0.041452	0.000056
C56	C	1.035446	0.541452	0.500056
C57	C	0.568969	0.123763	0.000045
C58	C	1.068969	0.623763	0.500045
C59	C	0.395526	0.120483	0.000051
C60	C	0.895526	0.620483	0.500051
C61	C	0.301498	0.118705	0.000058
C62	C	0.801498	0.618705	0.500058
C63	C	0.663003	0.125542	0.000040
C64	C	1.163003	0.625542	0.500040
C65	C	1.134245	0.115549	0.000060
C66	C	1.634245	0.615549	0.500060
C67	C	1.226543	0.117286	0.000059
C68	C	1.726543	0.617286	0.500059
C69	C	0.976340	0.285657	0.000043
C70	C	1.476340	0.785657	0.500043
C71	C	0.978079	0.384951	0.000038
C72	C	1.478079	0.884951	0.500038
N73	N	0.982230	0.122110	0.246710
N74	N	1.482230	0.622110	0.746710
N75	N	0.982272	0.122129	-0.246606
N76	N	1.482272	0.622129	0.253394
C77	C	1.038709	0.061311	0.296535
C78	C	1.538709	0.561311	0.796535
C79	C	1.038714	0.061310	0.396193
C80	C	1.538714	0.561310	0.896193
C81	C	0.982244	0.122114	0.446024
C82	C	1.482244	0.622114	0.946024
C83	C	0.925759	0.182916	0.396192
C84	C	1.425759	0.682916	0.896192
C85	C	0.925750	0.182912	0.296537
C86	C	1.425750	0.682912	0.796537
C87	C	0.925783	0.182923	0.603907
C88	C	1.425783	0.682923	1.103907
C89	C	0.925793	0.182929	0.703569
C90	C	1.425793	0.682929	1.203569
C91	C	1.038747	0.061321	0.703563
C92	C	1.538747	0.561321	1.203563
C93	C	1.038738	0.061317	0.603907
C94	C	1.538738	0.561317	1.103907
C95	C	0.982254	0.122120	0.554082
C96	C	1.482254	0.622120	1.054082
H97	H	1.123658	-0.168766	0.000076
H98	H	1.623658	0.331234	0.500076
H99	H	0.421420	-0.027203	0.000069
H100	H	0.921420	0.472797	0.500069
Cl101	Cl	1.153861	-0.363408	0.000063
Cl102	Cl	1.653861	0.136592	0.500063
Cl103	Cl	0.602322	-0.059964	0.000065
Cl104	Cl	1.102322	0.440036	0.500065
Cl105	Cl	1.109734	-0.015117	0.541260
Cl106	Cl	1.609734	0.484883	1.041260
Cl107	Cl	0.854742	0.259346	0.233901
Cl108	Cl	1.354742	0.759346	0.733901
H109	H	0.385748	0.268475	0.000051
H110	H	0.885748	0.768475	0.500051
H111	H	1.115632	-0.625774	0.000050
H112	H	1.615632	-0.125774	0.500050
Cl113	Cl	0.806938	-0.602924	0.000023
Cl114	Cl	1.306938	-0.102924	0.500023
H115	H	1.118605	-0.456516	0.000064
H116	H	1.618605	0.043484	0.500064
H117	H	1.084738	0.011813	0.744136
H118	H	1.584738	0.511813	1.244136
Cl119	Cl	1.109708	-0.015129	0.233901
Cl120	Cl	1.609708	0.484871	0.733901
Cl121	Cl	0.557917	0.307905	0.000037
Cl122	Cl	1.057917	0.807905	0.500037
Cl123	Cl	1.109717	-0.015126	0.458831
Cl124	Cl	1.609717	0.484874	0.958831
H125	H	0.843807	-0.417734	0.000026
H126	H	1.343807	0.082266	0.500026
H127	H	0.879785	0.232433	0.563343
H128	H	1.379785	0.732433	1.063343
Cl129	Cl	0.854797	0.259370	0.766207
Cl130	Cl	1.354797	0.759370	1.266207
Cl131	Cl	0.815688	-0.104584	0.000030
Cl132	Cl	1.315688	0.395416	0.500030
Cl133	Cl	0.854763	0.259353	0.458835
Cl134	Cl	1.354763	0.759353	0.958835
H135	H	0.845896	-0.299244	0.000025
H136	H	1.345896	0.200756	0.500025
