data_functionalizedCrystal
_audit_creation_method	'MofGen! by Chris Wilmer'
_symmetry_space_group_name_H-M	'P1'
_symmetry_Int_Tables_number	1
_symmetry_cell_setting	triclinic
loop_
_symmetry_equiv_pos_as_xyz
  x,y,z
_cell_length_a	16.109301
_cell_length_b	13.330367
_cell_length_c	16.109304
_cell_angle_alpha	90.001834
_cell_angle_beta	83.462059
_cell_angle_gamma	90.004834
loop_
_atom_site_label
_atom_site_type_symbol
_atom_site_fract_x
_atom_site_fract_y
_atom_site_fract_z
O1	O	1.103137	0.083354	0.106866
O2	O	0.861075	0.083369	0.120166
O3	O	0.988754	0.083361	-0.007515
O4	O	0.975457	0.083361	0.234547
O5	O	0.988736	-0.083486	-0.007518
O6	O	0.861056	-0.083478	0.120163
O7	O	1.103118	-0.083493	0.106864
Cu8	Cu	0.982086	-0.098720	0.113513
Cu9	Cu	0.982107	0.098596	0.113516
O10	O	0.975439	-0.083486	0.234544
C11	C	0.830091	-0.000053	0.119626
C12	C	0.737795	-0.000047	0.118010
N13	N	0.982076	-0.237502	0.113510
C14	C	0.515524	-0.000058	0.190018
C15	C	0.428803	-0.000065	0.188494
C16	C	0.448676	-0.000060	0.037005
C17	C	0.535395	-0.000061	0.038530
C18	C	0.568816	-0.000055	0.115039
C19	C	0.395377	-0.000061	0.111990
C20	C	0.301351	-0.000068	0.110337
C21	C	0.662848	-0.000050	0.116693
C22	C	0.925569	-0.710121	0.170031
C23	C	1.038669	-0.710096	0.056995
C24	C	1.038659	-0.605078	0.056993
C25	C	0.982105	-0.552576	0.113511
C26	C	0.925559	-0.605093	0.170032
C27	C	1.095209	-0.552553	0.000478
C28	C	1.095203	-0.447528	0.000474
C29	C	1.038643	-0.395025	0.056989
C30	C	0.982095	-0.447548	0.113512
C31	C	0.925540	-0.395047	0.170030
C32	C	0.868987	-0.447568	0.226550
C33	C	0.869000	-0.552590	0.226547
C34	C	1.038631	-0.290003	0.056992
C35	C	0.925531	-0.290019	0.170031
C36	C	1.134102	-0.000070	0.107404
C37	C	1.226398	-0.000069	0.109019
C38	C	0.988206	-0.000060	-0.038491
C39	C	0.986590	-0.000053	-0.130786
N40	N	0.982123	0.237377	0.113513
C41	C	0.982866	0.090892	-0.343122
C42	C	0.981340	0.090891	-0.429842
C43	C	0.981324	-0.091015	-0.429842
C44	C	0.982844	-0.091013	-0.343123
C45	C	0.983620	-0.000056	-0.299766
C46	C	0.980573	-0.000059	-0.473205
C47	C	0.978919	-0.000061	-0.567231
C48	C	0.985273	-0.000055	-0.205734
C49	C	0.975987	-0.000062	0.265520
C50	C	0.977603	-0.000063	0.357816
H51	H	0.542732	-0.000061	0.252316
H52	H	0.980695	-0.165068	-0.465155
H53	H	0.983453	-0.165079	-0.307821
Cl54	Cl	0.602396	-0.000065	-0.055737
H55	H	0.980725	0.164951	-0.465139
H56	H	0.385416	-0.000069	0.249550
H57	H	0.421454	-0.000071	-0.025285
Cl58	Cl	0.983836	0.205237	-0.288618
Cl59	Cl	0.854425	-0.224026	0.241083
H60	H	0.822957	-0.595360	0.272564
Cl61	Cl	0.854473	-0.776143	0.241078
Cl62	Cl	0.797898	-0.381556	0.297604
H63	H	1.084718	-0.752846	0.010983
H64	H	1.141259	-0.595303	-0.045533
Cl65	Cl	1.166293	-0.381508	-0.070579
Cl66	Cl	1.109726	-0.223983	-0.014051
