data_functionalizedCrystal
_audit_creation_method	'MofGen! by Chris Wilmer'
_symmetry_space_group_name_H-M	'P1'
_symmetry_Int_Tables_number	1
_symmetry_cell_setting	triclinic
loop_
_symmetry_equiv_pos_as_xyz
  x,y,z
_cell_length_a	10.654559
_cell_length_b	10.654550
_cell_length_c	9.130313
_cell_angle_alpha	89.994910
_cell_angle_beta	89.999893
_cell_angle_gamma	95.513215
loop_
_atom_site_label
_atom_site_type_symbol
_atom_site_fract_x
_atom_site_fract_y
_atom_site_fract_z
O1	O	1.667827	-0.176455	0.121780
O2	O	1.302350	-0.193249	0.121787
O3	O	1.493492	-0.002113	0.121774
O4	O	1.476686	-0.367591	0.121793
O5	O	1.493490	-0.002104	-0.121825
O6	O	1.302348	-0.193240	-0.121812
O7	O	1.667825	-0.176446	-0.121819
Cu8	Cu	1.485087	-0.184842	-0.144058
Cu9	Cu	1.485089	-0.184853	0.144026
O10	O	1.476684	-0.367582	-0.121806
C11	C	1.255551	-0.192009	-0.000012
C12	C	1.116109	-0.188312	-0.000009
C13	C	1.714624	-0.177686	-0.000017
C14	C	1.854067	-0.181382	-0.000010
C15	C	1.492257	0.044690	-0.000025
C16	C	1.488565	0.184133	-0.000022
C17	C	1.477919	-0.414384	-0.000004
C18	C	1.481611	-0.553828	0.000003
C19	C	1.919571	-0.183124	0.132777
C20	C	2.050594	-0.186585	0.132778
C21	C	2.050596	-0.186566	-0.132807
C22	C	1.919576	-0.183097	-0.132806
N23	N	1.485091	-0.184851	0.346648
C24	C	1.601106	0.263615	-0.000024
C25	C	1.597629	0.394636	-0.000006
C26	C	1.369061	0.366680	0.000009
C27	C	1.372539	0.235662	0.000001
N28	N	1.485094	-0.184833	-0.346681
C29	C	1.569889	-0.100384	0.423295
C30	C	1.569894	-0.100378	0.576631
C31	C	1.400292	-0.269309	0.576662
C32	C	1.400294	-0.269321	0.423328
H33	H	1.866237	-0.181727	0.240908
H34	H	1.695582	0.221665	-0.000040
H35	H	1.638937	-0.031606	0.360865
O36	O	2.114393	-0.188080	-0.261703
C37	C	2.203435	-0.081494	-0.269670
H38	H	2.227487	-0.045820	-0.154379
H39	H	2.162240	-0.004122	-0.335205
C40	C	2.294317	-0.161590	-0.487188
C41	C	2.323866	-0.117781	-0.345584
H42	H	2.368603	-0.183969	-0.534021
H43	H	2.234325	-0.233396	-0.481825
H44	H	2.259985	-0.097106	-0.541782
H45	H	2.358182	-0.182269	-0.290987
H46	H	2.383867	-0.045985	-0.350940
O47	O	1.707070	0.471664	-0.000077
C48	C	1.810216	0.398082	-0.000060
H49	H	1.779186	0.300597	-0.046186
H50	H	1.845732	0.388427	0.116802
C51	C	1.954937	0.582165	-0.038943
C52	C	1.916828	0.462436	-0.095607
H53	H	2.020703	0.621863	-0.097875
H54	H	1.885447	0.631740	-0.038949
H55	H	1.984525	0.574103	0.058441
H56	H	1.887226	0.470501	-0.192982
H57	H	1.986316	0.412863	-0.095620
H58	H	2.103922	-0.188002	0.240907
O59	O	1.856124	-0.181466	-0.261935
C60	C	1.942039	-0.183703	-0.379145
H61	H	2.030582	-0.225872	-0.340223
H62	H	1.968269	-0.083490	-0.419975
C63	C	1.772095	-0.212760	-0.552403
C64	C	1.880842	-0.264563	-0.504602
H65	H	1.734347	-0.262632	-0.629795
H66	H	1.714212	-0.211248	-0.473438
H67	H	1.793969	-0.129250	-0.586418
H68	H	1.858965	-0.348064	-0.470571
H69	H	1.938721	-0.266090	-0.583564
O70	O	1.263091	0.158624	-0.000063
C71	C	1.159938	0.232196	-0.000016
H72	H	1.190954	0.329694	-0.046135
H73	H	1.124435	0.241820	0.116854
C74	C	1.015228	0.048110	-0.038894
C75	C	1.053319	0.167856	-0.095550
H76	H	0.949457	0.008421	-0.097818
H77	H	1.084723	-0.001458	-0.038921
H78	H	0.985650	0.056147	0.058496
H79	H	1.082911	0.159817	-0.192932
H80	H	0.983826	0.217421	-0.095542
O81	O	1.652310	-0.018203	0.650858
C82	C	1.727172	0.056321	0.550291
H83	H	1.675680	0.058307	0.440991
H84	H	1.820724	0.014491	0.533989
C85	C	1.815371	0.189111	0.744352
C86	C	1.752123	0.191559	0.610111
H87	H	1.830769	0.272530	0.781253
H88	H	1.764940	0.138900	0.812107
H89	H	1.893325	0.154246	0.730748
H90	H	1.674165	0.226408	0.623720
H91	H	1.802543	0.241778	0.542359
O92	O	1.318089	-0.351404	0.651315
C93	C	1.385853	-0.429668	0.740006
H94	H	1.483766	-0.380738	0.762969
H95	H	1.395012	-0.522612	0.680936
C96	C	1.194980	-0.515802	0.857457
C97	C	1.315235	-0.455700	0.885671
H98	H	1.151419	-0.531866	0.947308
H99	H	1.149325	-0.463077	0.797701
H100	H	1.202629	-0.593248	0.808229
H101	H	1.307584	-0.378249	0.934881
H102	H	1.360888	-0.508413	0.945439
H103	H	1.274596	0.408651	0.000026
H104	H	1.331241	-0.338110	0.360919
