data_functionalizedCrystal
_audit_creation_method	'MofGen! by Chris Wilmer'
_symmetry_space_group_name_H-M	'P1'
_symmetry_Int_Tables_number	1
_symmetry_cell_setting	triclinic
loop_
_symmetry_equiv_pos_as_xyz
  x,y,z
_cell_length_a	19.377372
_cell_length_b	19.377369
_cell_length_c	19.377372
_cell_angle_alpha	62.058157
_cell_angle_beta	93.588494
_cell_angle_gamma	62.069167
loop_
_atom_site_label
_atom_site_type_symbol
_atom_site_fract_x
_atom_site_fract_y
_atom_site_fract_z
Zr1	Zr	0.435549	0.939463	-0.001256
O2	O	0.306590	1.070589	-0.082286
O3	O	0.485587	0.808337	0.000849
O4	O	0.437727	0.987395	-0.130266
O5	O	0.380253	0.853721	0.178116
O6	O	0.529222	1.025205	-0.142252
O7	O	0.354449	0.891531	0.048829
O8	O	0.614833	0.704902	0.092289
O9	O	0.294641	1.174023	-0.056425
O10	O	0.562517	0.890487	0.020269
O11	O	0.513493	0.834053	0.125699
O12	O	0.457145	1.044871	-0.028672
O13	O	0.408120	0.988437	0.076759
Zr14	Zr	0.622626	0.939461	0.185824
Zr15	Zr	0.581473	0.999764	-0.020373
Zr16	Zr	0.476703	0.879160	0.204941
Zr17	Zr	0.416492	1.104428	0.039989
Zr18	Zr	0.641683	0.774496	0.144579
O19	O	0.572589	1.070587	0.183718
O20	O	0.514074	1.156330	-0.109468
O21	O	0.365105	0.984846	0.210900
O22	O	0.751585	0.808335	0.266854
O23	O	0.693071	0.894078	-0.026333
O24	O	0.544101	0.722594	0.294036
O25	O	0.677923	1.025203	0.006452
O26	O	0.620448	0.891529	0.314834
O27	O	0.528953	0.853719	0.326820
O28	O	0.703726	0.987393	0.135738
O29	O	0.410631	1.221955	-0.071621
O30	O	0.647545	0.656969	0.256188
O31	O	0.763534	0.704901	0.240993
O32	O	0.730823	0.752834	0.077093
O33	O	0.327352	1.126090	0.107474
O34	O	0.443342	1.174022	0.092279
O35	O	0.601031	0.834053	0.213239
O36	O	0.650055	0.890487	0.107809
O37	O	0.544683	1.044871	0.058868
O38	O	0.495658	0.988437	0.164299
C39	C	0.552925	0.733115	0.040692
C40	C	0.561015	0.663083	0.023183
C41	C	0.460015	0.285198	0.240999
C42	C	0.467724	0.219319	0.224603
C43	C	0.518902	0.278242	0.114541
C44	C	0.511202	0.344123	0.130931
C45	C	0.481757	0.347595	0.194161
C46	C	0.532943	0.406521	0.084093
C47	C	0.525238	0.472400	0.100479
C48	C	0.495793	0.475881	0.163703
C49	C	0.474052	0.413474	0.210547
C50	C	0.562382	0.403052	0.020860
C51	C	0.584123	0.465450	-0.025979
C52	C	0.576424	0.531326	-0.009589
C53	C	0.546979	0.534807	0.053635
C54	C	0.598165	0.593732	-0.056433
C55	C	0.590460	0.659611	-0.040047
C56	C	0.539274	0.600686	0.070021
C57	C	0.346560	0.864034	0.116196
C58	C	0.284612	0.838434	0.124312
C59	C	-0.194140	1.157167	0.023268
C60	C	-0.252335	1.133091	0.030902
C61	C	-0.142325	0.971926	0.081992
C62	C	-0.084118	0.995988	0.074366
C63	C	-0.110033	1.088610	0.045003
C64	C	-0.000011	0.927430	0.096101
C65	C	0.058189	0.951492	0.088472
C66	C	0.032282	1.044110	0.059108
C67	C	-0.051833	1.112671	0.037374
C68	C	0.025901	0.834810	0.125459
C69	C	0.110008	0.766253	0.147194
C70	C	0.168211	0.790312	0.139570
C71	C	0.142304	0.882930	0.110206
C72	C	0.252326	0.721751	0.161305
C73	C	0.310526	0.745812	0.153675
C74	C	0.200505	0.906992	0.102577
C75	C	0.711615	1.014890	0.068371
C76	C	0.773564	1.040490	0.060256
C77	C	0.477611	1.014892	-0.165638
C78	C	0.460141	1.040492	-0.253174
C79	C	0.505250	1.145808	0.143875
C80	C	0.497160	1.215840	0.161385
C81	C	0.677675	0.721756	-0.413338
C82	C	0.661241	0.745831	-0.495598
C83	C	0.551240	0.906996	-0.546679
C84	C	0.567667	0.882935	-0.464422
C85	C	0.630885	0.790313	-0.397757
C86	C	0.520878	0.951493	-0.448841
C87	C	0.537301	0.927433	-0.366591
C88	C	0.600514	0.834815	-0.299922
C89	C	0.647309	0.766253	-0.315507
C90	C	0.457656	1.044113	-0.515507
C91	C	0.410867	1.112671	-0.499925
C92	C	0.427294	1.088613	-0.417675
C93	C	0.490507	0.995994	-0.351006
C94	C	0.380499	1.157174	-0.402089
C95	C	0.396923	1.133114	-0.319839
C96	C	0.506930	0.971934	-0.268755
C97	C	0.580564	0.864032	0.350206
C98	C	0.598035	0.838432	0.437742
C99	C	0.735453	0.808543	0.016780
C100	C	0.805491	0.764111	-0.008845
C101	C	0.604402	0.657686	0.298614
C102	C	0.629962	0.562053	0.368641
C103	C	0.786929	0.733114	0.274702
C104	C	0.874438	0.663081	0.336613
C105	C	0.271246	1.145810	-0.090134
C106	C	0.183737	1.215843	-0.152045
C107	C	0.322722	1.070380	0.167788
C108	C	0.252684	1.114813	0.193413
C109	C	0.453774	1.221238	-0.114046
C110	C	0.428213	1.316871	-0.184073
C111	C	0.792686	0.743248	-0.066583
C112	C	0.858485	0.701511	-0.090677
C113	C	0.937089	0.680632	-0.057028
C114	C	0.949892	0.701501	0.000713
C115	C	0.884093	0.743243	0.024801
C116	C	0.687662	0.517141	0.447230
C117	C	0.711677	0.427290	0.513038
C118	C	0.677996	0.382350	0.500253
C119	C	0.620290	0.427271	0.421657
C120	C	0.596271	0.517123	0.355852
C121	C	0.941130	0.659653	0.310652
C122	C	1.023357	0.593864	0.368818
C123	C	1.038891	0.531499	0.452942
C124	C	0.972192	0.534930	0.478903
C125	C	0.889966	0.600723	0.420739
C126	C	0.117044	1.219279	-0.126082
C127	C	0.034815	1.285088	-0.184243
C128	C	0.019280	1.347457	-0.268366
C129	C	0.085980	1.344021	-0.294329
C130	C	0.168208	1.278217	-0.236168
C131	C	0.265486	1.135685	0.251144
C132	C	0.199682	1.177447	0.275220
C133	C	0.121077	1.198329	0.241568
C134	C	0.108275	1.177456	0.183831
C135	C	0.174077	1.135702	0.159751
C136	C	0.461909	1.361783	-0.171264
C137	C	0.437908	1.451634	-0.237058
C138	C	0.380206	1.496574	-0.315658
C139	C	0.346509	1.451654	-0.328466
C140	C	0.370515	1.361802	-0.262675
H141	H	0.489516	0.529528	0.177041
O142	O	-0.079855	1.212618	0.005603
H143	H	-0.066604	1.242956	-0.052366
H144	H	0.984853	0.484144	0.547405
H145	H	0.465351	1.488196	-0.226612
H146	H	0.592872	0.390668	0.411260
H147	H	-0.019484	1.287871	-0.163089
O148	O	1.095282	0.590203	0.340808
H149	H	1.155071	0.533998	0.395384
H150	H	-0.047678	1.401035	-0.315717
H151	H	0.343069	1.325243	-0.273115
H152	H	0.729157	0.646335	-0.359055
O153	O	0.240141	1.274502	-0.264177
H154	H	0.215517	1.328921	-0.332447
H155	H	0.715094	0.553719	0.457655
H156	H	0.379015	0.689981	0.171390
H157	H	1.013899	0.684496	0.028104
O158	O	0.844669	0.679003	-0.152951
H159	H	0.825692	0.628821	-0.127623
O160	O	0.354305	1.593494	-0.386613
H161	H	0.387426	1.617173	-0.364490
O162	O	1.008058	0.635608	-0.083009
H163	H	1.021230	0.566417	-0.066475
O164	O	0.703925	0.285428	0.571231
H165	H	0.687384	0.288767	0.623902
O166	O	0.534161	0.565484	0.271043
H167	H	0.514830	0.519101	0.273199
O168	O	0.284265	1.500135	-0.413240
H169	H	0.273231	1.570164	-0.456826
O170	O	0.095048	1.070075	0.050872
H171	H	0.144767	1.026066	0.113145
O172	O	0.172482	1.006939	0.070806
H173	H	0.185734	1.037276	0.012837
O174	O	0.924394	0.726918	0.219924
H175	H	0.893092	0.715698	0.180126
H176	H	1.105849	0.477930	0.500294
O177	O	0.715543	0.666358	-0.243627
H178	H	0.763338	0.667160	-0.209914
O179	O	0.818035	0.604411	0.448741
H180	H	0.784277	0.590369	0.414219
O181	O	0.615874	0.461702	-0.094178
H182	H	0.679900	0.445921	-0.079747
H183	H	0.210122	1.194433	0.322235
H184	H	0.329022	1.232584	-0.456378
H185	H	0.699345	0.689995	-0.508277
H186	H	0.894531	0.760222	0.071820
O187	O	0.133789	1.152019	-0.035350
H188	H	0.073589	1.165484	-0.027078
O189	O	0.350259	1.113185	0.287431
H190	H	0.348089	1.134735	0.331608
O191	O	0.069222	1.411290	-0.385064
H192	H	0.037906	1.400062	-0.424841
O193	O	0.507582	0.604381	0.138268
H194	H	0.505906	0.660653	0.141809
O195	O	-0.222080	1.257067	-0.008401
H196	H	-0.290346	1.300703	-0.022237
H197	H	0.067503	1.232328	0.261182
H198	H	0.044266	1.194465	0.156437
H199	H	0.163643	1.118706	0.112745
H200	H	0.508893	1.325205	-0.107269
H201	H	0.450076	0.416300	0.262035
O202	O	0.618183	0.808868	-0.211209
H203	H	0.636454	0.852878	-0.205458
O204	O	0.428281	0.288960	0.309206
H205	H	0.364247	0.304756	0.294795
O206	O	0.444275	0.152012	0.275124
H207	H	0.483763	0.107965	0.342339
O208	O	0.550653	0.274500	0.046341
H209	H	0.552360	0.218207	0.042815
H210	H	0.568648	0.349412	0.007516
H211	H	0.758666	0.390727	0.577028
O212	O	0.629906	0.589994	-0.124638
H213	H	0.687875	0.518835	-0.097066
O214	O	0.613907	0.726920	-0.090560
H215	H	0.680894	0.685852	-0.082409
O216	O	-0.343056	1.207037	0.007465
H217	H	-0.351292	1.275480	-0.014228
H218	H	-0.121236	0.896514	0.105897
H219	H	-0.021494	0.815225	0.131663
O220	O	0.137956	0.666357	0.178859
H221	H	0.124705	0.635962	0.236817
O222	O	0.280270	0.621857	0.192963
H223	H	0.267019	0.591458	0.250919
O224	O	0.575126	0.872052	-0.196822
H225	H	0.560689	0.822416	-0.195378
H226	H	0.444286	1.063699	-0.582478
O227	O	0.483068	1.006897	-0.618583
H228	H	0.479513	1.012115	-0.678396
H229	H	0.359393	1.188082	-0.554214
H230	H	0.358819	1.188939	-0.307154
O231	O	0.707907	0.765775	-0.102890
H232	H	0.710067	0.744262	-0.147094
