data_functionalizedCrystal
_audit_creation_method	'MofGen! by Chris Wilmer'
_symmetry_space_group_name_H-M	'P1'
_symmetry_Int_Tables_number	1
_symmetry_cell_setting	triclinic
loop_
_symmetry_equiv_pos_as_xyz
  x,y,z
_cell_length_a	19.188930
_cell_length_b	19.188924
_cell_length_c	9.565339
_cell_angle_alpha	89.998167
_cell_angle_beta	89.982583
_cell_angle_gamma	83.143372
loop_
_atom_site_label
_atom_site_type_symbol
_atom_site_fract_x
_atom_site_fract_y
_atom_site_fract_z
O1	O	0.926142	0.087163	-0.116716
O2	O	1.426142	0.587163	0.383284
O3	O	0.722831	0.098897	-0.116621
O4	O	1.222831	0.598897	0.383379
O5	O	0.830356	-0.008626	-0.116654
O6	O	1.330356	0.491374	0.383346
O7	O	0.818617	0.194686	-0.116682
O8	O	1.318617	0.694686	0.383318
O9	O	0.830348	-0.008619	0.115866
O10	O	1.330348	0.491381	0.615866
O11	O	0.722822	0.098904	0.115899
O12	O	1.222822	0.598904	0.615899
O13	O	0.926134	0.087170	0.115804
O14	O	1.426134	0.587170	0.615804
Zn15	Zn	0.824477	0.093038	0.152770
Zn16	Zn	1.324477	0.593038	0.652770
Zn17	Zn	0.824488	0.093029	-0.153586
Zn18	Zn	1.324488	0.593029	0.346414
O19	O	0.818608	0.194693	0.115838
O20	O	1.318608	0.694693	0.615838
C21	C	0.696815	0.098521	-0.000348
C22	C	1.196815	0.598521	0.499652
C23	C	0.619311	0.097380	-0.000311
C24	C	1.119311	0.597380	0.499689
C25	C	0.574385	0.160471	-0.000342
C26	C	1.074385	0.660471	0.499658
C27	C	0.501562	0.159399	-0.000357
C28	C	1.001562	0.659399	0.499643
C29	C	0.473667	0.095233	-0.000370
C30	C	0.973667	0.595233	0.499630
C31	C	0.518602	0.032134	-0.000332
C32	C	1.018602	0.532134	0.499668
C33	C	0.591424	0.033207	-0.000302
C34	C	1.091424	0.533207	0.499698
N35	N	0.365691	0.046183	-0.079556
N36	N	0.865691	0.546183	0.420444
N37	N	0.296512	0.045168	-0.079587
N38	N	0.796512	0.545168	0.420413
C39	C	0.254258	0.091995	-0.000455
C40	C	0.754258	0.591995	0.499545
N41	N	0.283795	0.139886	0.078691
N42	N	0.783795	0.639886	0.578691
N43	N	0.352979	0.140903	0.078716
N44	N	0.852979	0.640903	0.578716
C45	C	0.394704	0.094062	-0.000401
C46	C	0.894704	0.594062	0.499599
C47	C	0.130368	0.153928	-0.000500
C48	C	0.630368	0.653928	0.499500
C49	C	0.057543	0.152854	-0.000507
C50	C	0.557543	0.652854	0.499493
C51	C	0.074585	0.025586	-0.000495
C52	C	0.574585	0.525586	0.499505
C53	C	0.147409	0.026663	-0.000474
C54	C	0.647409	0.526663	0.499526
C55	C	0.175295	0.090835	-0.000484
C56	C	0.675295	0.590835	0.499516
C57	C	0.829973	-0.034634	-0.000393
C58	C	1.329973	0.465366	0.499607
C59	C	0.828834	-0.112138	-0.000389
C60	C	1.328834	0.387862	0.499611
C61	C	0.828307	-0.148541	-0.127135
C62	C	1.328307	0.351459	0.372865
C63	C	0.827227	-0.221364	-0.127146
C64	C	1.327227	0.278636	0.372854
C65	C	0.826688	-0.257783	-0.000402
C66	C	1.326688	0.242217	0.499598
C67	C	0.827211	-0.221371	0.126362
C68	C	1.327211	0.278629	0.626362
C69	C	0.828284	-0.148549	0.126368
C70	C	1.328284	0.351451	0.626368
N71	N	0.864732	-0.377443	0.093913
N72	N	1.364732	0.122557	0.593913
N73	N	0.863715	-0.446622	0.093898
N74	N	1.363715	0.053378	0.593898
C75	C	0.823454	-0.477192	-0.000414
C76	C	1.323454	0.022808	0.499586
N77	N	0.784258	-0.435972	-0.094731
N78	N	1.284258	0.064028	0.405269
N79	N	0.785279	-0.366788	-0.094720
N80	N	1.285279	0.133212	0.405280
C81	C	0.825524	-0.336746	-0.000395
C82	C	1.325524	0.163254	0.499605
C83	C	0.821755	-0.592557	-0.127180
C84	C	1.321755	-0.092557	0.372820
C85	C	0.820671	-0.665381	-0.127185
C86	C	1.320671	-0.165381	0.372815
C87	C	0.820662	-0.665388	0.126326
C88	C	1.320662	-0.165388	0.626326
C89	C	0.821739	-0.592565	0.126327
C90	C	1.321739	-0.092565	0.626327
C91	C	0.822289	-0.556154	-0.000430
C92	C	1.322289	-0.056154	0.499570
C93	C	0.952149	0.087546	-0.000471
C94	C	1.452149	0.587546	0.499529
C95	C	1.029654	0.088687	-0.000517
C96	C	1.529654	0.588687	0.499483
C97	C	0.818992	0.220700	-0.000426
C98	C	1.318992	0.720700	0.499574
C99	C	0.820131	0.298205	-0.000440
C100	C	1.320131	0.798205	0.499560
N101	N	0.824474	0.093043	0.361849
N102	N	1.324474	0.593043	0.861849
N103	N	0.824496	0.093018	-0.362665
N104	N	1.324496	0.593018	0.137335
C105	C	0.774732	0.142753	0.453068
C106	C	1.274732	0.642753	0.953068
C107	C	0.837784	0.156108	0.546214
C108	C	1.337784	0.656108	1.046214
C109	C	0.761450	0.079693	0.546257
C110	C	1.261450	0.579693	1.046257
C111	C	0.887557	0.106430	0.452944
C112	C	1.387557	0.606430	0.952944
C113	C	0.811182	0.029988	0.452979
C114	C	1.311182	0.529988	0.952979
C115	C	0.874279	0.043316	0.546083
C116	C	1.374279	0.543316	1.046083
H117	H	0.464976	0.210777	-0.000378
H118	H	0.964976	0.710777	0.499622
H119	H	0.916399	0.001265	0.586669
H120	H	1.416399	0.501265	1.086669
Br121	Br	0.826509	-0.270778	-0.299171
Br122	Br	1.326509	0.229222	0.200829
Br123	Br	-0.003430	0.238485	-0.000535
Br124	Br	0.496570	0.738485	0.499465
H125	H	0.940876	0.117774	0.412129
H126	H	1.440876	0.617774	0.912129
H127	H	0.495885	-0.020111	-0.000361
H128	H	0.995885	0.479889	0.499639
Br129	Br	0.822451	-0.543157	0.298351
Br130	Br	1.322451	-0.043157	0.798351
H131	H	0.732705	0.184829	0.412226
H132	H	1.232705	0.684829	0.912226
H133	H	0.820238	-0.695018	-0.230402
H134	H	1.320238	-0.195018	0.269598
H135	H	0.708142	0.068413	0.587248
H136	H	1.208142	0.568413	1.087248
Br137	Br	0.828996	-0.099141	0.298396
Br138	Br	1.328996	0.400859	0.798396
Br139	Br	0.036736	-0.061498	-0.000489
Br140	Br	0.536736	0.438502	0.499511
H141	H	0.849041	0.209422	0.587168
H142	H	1.349041	0.709422	1.087168
H143	H	0.826770	-0.251028	0.229558
H144	H	1.326770	0.248972	0.729558
H145	H	0.628003	-0.018171	-0.000278
H146	H	1.128003	0.481829	0.499722
Br147	Br	0.612229	0.247562	-0.000352
Br148	Br	1.112229	0.747562	0.499648
H149	H	0.799905	-0.023308	0.411993
H150	H	1.299905	0.476692	0.911993
Br151	Br	0.208383	-0.058966	-0.000437
Br152	Br	0.708383	0.441034	0.499563
H153	H	0.153075	0.206181	-0.000487
H154	H	0.653075	0.706181	0.499513
H155	H	0.820218	-0.695039	0.229523
H156	H	1.320218	-0.195039	0.729523
H157	H	0.828753	-0.118900	-0.230351
H158	H	1.328753	0.381100	0.269649
Br159	Br	0.822498	-0.543138	-0.299202
Br160	Br	1.322498	-0.043138	0.200798
