data_functionalizedCrystal
_audit_creation_method	'MofGen! by Chris Wilmer'
_symmetry_space_group_name_H-M	'P1'
_symmetry_Int_Tables_number	1
_symmetry_cell_setting	triclinic
loop_
_symmetry_equiv_pos_as_xyz
  x,y,z
_cell_length_a	18.101398
_cell_length_b	18.101395
_cell_length_c	18.101389
_cell_angle_alpha	89.983159
_cell_angle_beta	89.975673
_cell_angle_gamma	90.026371
loop_
_atom_site_label
_atom_site_type_symbol
_atom_site_fract_x
_atom_site_fract_y
_atom_site_fract_z
Zn1	Zn	1.132121	-0.295001	-0.418847
Zn2	Zn	1.132017	-0.418826	-0.295009
Zn3	Zn	1.008280	-0.294993	-0.295008
Zn4	Zn	1.008231	-0.418795	-0.418797
O5	O	1.070162	-0.356904	-0.356915
O6	O	1.235740	-0.311443	-0.402440
O7	O	1.115580	-0.402410	-0.191376
O8	O	1.024772	-0.191361	-0.311456
O9	O	1.235664	-0.402417	-0.311457
O10	O	1.115757	-0.191367	-0.402440
O11	O	1.024671	-0.311430	-0.191375
O12	O	0.904641	-0.311399	-0.311408
O13	O	1.024688	-0.402363	-0.522437
O14	O	0.904604	-0.402356	-0.402355
O15	O	1.115710	-0.311412	-0.522473
O16	O	1.115532	-0.522455	-0.311409
O17	O	1.024587	-0.522432	-0.402356
C18	C	0.877752	-0.356874	-0.356877
C19	C	0.795437	-0.356879	-0.356878
C20	C	0.496347	-0.356925	-0.356940
C21	C	0.527670	-0.299412	-0.299997
C22	C	0.613288	-0.299566	-0.299754
C23	C	0.644729	-0.356901	-0.356909
C24	C	0.613611	-0.434909	-0.335587
C25	C	0.527966	-0.434590	-0.335191
C26	C	0.527961	-0.337109	-0.435339
C27	C	0.613612	-0.335371	-0.434911
C28	C	0.728589	-0.356893	-0.356893
C29	C	0.412487	-0.356939	-0.356954
C30	C	1.070063	-0.549314	-0.356893
C31	C	1.070088	-0.631628	-0.356909
C32	C	1.070251	-0.930719	-0.356949
C33	C	1.013163	-0.899410	-0.414312
C34	C	1.012892	-0.813792	-0.414133
C35	C	1.070170	-0.782337	-0.356930
C36	C	1.049041	-0.813472	-0.278878
C37	C	1.048673	-0.899117	-0.279221
C38	C	1.148593	-0.899073	-0.376950
C39	C	1.148132	-0.813422	-0.378661
C40	C	1.070126	-0.698477	-0.356914
C41	C	1.070293	-1.014579	-0.356959
C42	C	1.263324	-0.356934	-0.356954
C43	C	1.345638	-0.356948	-0.356971
C44	C	1.070205	-0.356885	-0.550077
C45	C	1.070223	-0.356877	-0.632391
C46	C	1.070282	-0.163742	-0.356953
C47	C	1.070333	-0.081428	-0.356970
C48	C	1.070266	-0.356738	-0.931482
C49	C	1.012801	-0.413780	-0.900134
C50	C	1.012956	-0.414045	-0.814516
C51	C	1.070244	-0.356807	-0.783100
C52	C	1.148270	-0.377998	-0.814206
C53	C	1.147949	-0.378372	-0.899851
C54	C	1.050385	-0.278379	-0.899905
C55	C	1.048649	-0.278832	-0.814254
C56	C	1.070237	-0.356845	-0.699240
C57	C	1.070279	-0.356702	-1.015342
C58	C	1.070162	-0.356869	-0.164505
C59	C	1.070287	-0.356668	-0.082191
H60	H	0.506120	-0.312363	-0.242242
O61	O	0.936708	-0.927988	-0.396991
H62	H	0.899363	-0.880708	-0.385661
O63	O	1.030344	-0.490999	-0.787434
H64	H	1.081405	-0.489631	-0.753532
H65	H	1.026252	-0.919970	-0.472374
H66	H	1.164804	-0.435654	-0.919836
H67	H	1.026111	-0.792740	-0.472007
H68	H	0.506389	-0.281216	-0.454725
O69	O	1.102384	-0.786486	-0.220717
H70	H	1.086233	-0.809271	-0.166112
H71	H	0.991406	-0.919153	-0.262279
H72	H	1.167856	-0.920633	-0.432895
H73	H	0.633956	-0.277966	-0.450989
O74	O	0.935974	-0.786726	-0.396581
H75	H	0.935510	-0.725410	-0.396399
H76	H	1.192217	-0.338629	-0.920590
H77	H	0.955097	-0.400784	-0.793483
H78	H	1.192915	-0.792007	-0.339927
O79	O	0.640371	-0.316909	-0.222797
H80	H	0.674274	-0.367969	-0.224138
O81	O	1.101351	-0.926571	-0.220676
H82	H	1.083369	-0.905983	-0.165790
O83	O	0.973985	-0.785146	-0.256028
H84	H	0.951611	-0.748903	-0.300131
O85	O	1.169255	-0.786456	-0.454742
H86	H	1.124421	-0.751057	-0.476990
H87	H	1.192236	-0.337757	-0.793859
H88	H	1.191125	-0.919319	-0.335170
H89	H	1.165415	-0.434671	-0.792765
O90	O	0.501448	-0.456841	-0.259273
H91	H	0.549796	-0.467725	-0.223186
H92	H	1.092240	-0.235880	-0.920179
H93	H	0.954768	-0.400655	-0.920720
O94	O	1.029981	-0.490244	-0.928677
H95	H	1.079276	-0.487800	-0.965086
H96	H	0.507244	-0.478892	-0.374857
O97	O	0.640583	-0.493200	-0.388797
H98	H	0.676543	-0.467127	-0.431103
O99	O	0.976322	-0.252808	-0.928478
H100	H	0.952855	-0.295669	-0.965510
H101	H	0.635026	-0.452008	-0.278892
O102	O	0.972597	-0.257648	-0.787312
H103	H	0.950266	-0.302461	-0.751878
H104	H	1.087450	-0.234076	-0.792868
O105	O	0.641946	-0.386836	-0.494115
H106	H	0.703168	-0.383947	-0.496067
H107	H	0.634329	-0.241719	-0.313119
O108	O	0.501123	-0.392586	-0.491546
H109	H	0.520156	-0.448638	-0.475575
O110	O	0.500377	-0.222557	-0.317460
H111	H	0.464196	-0.224526	-0.366912
