data_functionalizedCrystal
_audit_creation_method	'MofGen! by Chris Wilmer'
_symmetry_space_group_name_H-M	'P1'
_symmetry_Int_Tables_number	1
_symmetry_cell_setting	triclinic
loop_
_symmetry_equiv_pos_as_xyz
  x,y,z
_cell_length_a	19.121274
_cell_length_b	12.759399
_cell_length_c	12.759393
_cell_angle_alpha	90.026169
_cell_angle_beta	87.583430
_cell_angle_gamma	87.573446
loop_
_atom_site_label
_atom_site_type_symbol
_atom_site_fract_x
_atom_site_fract_y
_atom_site_fract_z
Zn1	Zn	-1.073761	0.486782	-0.525593
Zn2	Zn	-1.073690	0.662491	-0.349929
Zn3	Zn	-0.956309	0.479332	-0.357416
Zn4	Zn	-0.956303	0.654920	-0.533050
O5	O	-1.015016	0.570881	-0.441497
O6	O	-1.172033	0.516376	-0.496037
O7	O	-1.058092	0.638245	-0.203903
O8	O	-0.971921	0.333301	-0.379738
O9	O	-1.171980	0.645469	-0.366978
O10	O	-1.058213	0.338774	-0.503297
O11	O	-0.971852	0.503679	-0.209404
O12	O	-0.858027	0.496337	-0.386968
O13	O	-0.971911	0.632565	-0.679080
O14	O	-0.858023	0.625341	-0.516006
O15	O	-1.058207	0.509035	-0.673602
O16	O	-1.058086	0.808505	-0.374208
O17	O	-0.971843	0.802943	-0.508746
C18	C	-0.832542	0.559210	-0.453109
C19	C	-0.754478	0.554242	-0.458102
C20	C	-1.014975	0.843846	-0.441495
C21	C	-1.015022	0.960625	-0.441526
C22	C	-0.717774	0.619011	-0.393153
C23	C	-0.644425	0.614343	-0.397858
C24	C	-0.607782	0.544902	-0.467507
C25	C	-0.644492	0.480130	-0.532463
C26	C	-0.717839	0.484804	-0.527763
C27	C	-0.386322	0.527439	-0.485071
C28	C	-0.312970	0.522768	-0.489764
C29	C	-0.312908	0.656983	-0.355160
C30	C	-0.386257	0.661646	-0.350461
C31	C	-0.422960	0.596879	-0.415421
C32	C	-0.532808	0.540127	-0.472316
C33	C	-0.497933	0.601659	-0.410617
C34	C	-1.015067	0.570786	-0.715527
C35	C	-1.015088	0.570746	-0.832303
C36	C	-0.198202	0.582585	-0.429826
C37	C	-0.276265	0.587537	-0.424816
C38	C	-1.059981	1.018352	-0.371549
C39	C	-1.060027	1.128079	-0.371589
C40	C	-0.970150	1.122342	-0.511586
C41	C	-0.970108	1.012618	-0.511550
C42	C	-1.015078	1.296852	-0.441539
C43	C	-1.015111	1.180077	-0.441602
C44	C	-1.060012	0.640738	-0.994035
C45	C	-1.059995	0.640786	-0.884312
C46	C	-0.970191	0.500660	-0.890023
C47	C	-0.970205	0.500617	-0.999744
C48	C	-1.015005	0.570902	-0.168531
C49	C	-1.015120	0.570655	-0.051747
H50	H	-0.747603	0.675554	-0.336433
H51	H	-0.614544	0.667085	-0.344970
H52	H	-0.416087	0.718192	-0.293744
H53	H	-1.096638	1.175076	-0.314608
C54	C	-0.426686	0.456179	-0.556516
N55	N	-0.457091	0.402498	-0.610328
C56	C	-0.920661	0.949115	-0.588555
N57	N	-0.883426	0.901286	-0.646562
C58	C	-0.920739	1.179544	-0.588598
N59	N	-0.883518	1.222627	-0.646601
C60	C	-1.109413	0.717790	-1.051235
N61	N	-1.146621	0.775831	-1.094314
H62	H	-0.283017	0.709715	-0.302275
C63	C	-0.604182	0.403729	-0.609065
N64	N	-0.573821	0.346174	-0.666754
H65	H	-0.747723	0.432061	-0.580651
H66	H	-1.096551	0.697855	-0.837327
H67	H	-0.933624	0.443636	-0.847669
H68	H	-0.283137	0.466211	-0.546478
C69	C	-0.538243	0.678039	-0.334001
N70	N	-0.568610	0.735564	-0.276289
H71	H	-1.096555	0.976023	-0.314532
H72	H	-0.502965	0.483586	-0.529023
C73	C	-0.920820	0.423513	-1.063231
N74	N	-0.883624	0.365441	-1.111050
