data_functionalizedCrystal
_audit_creation_method	'MofGen! by Chris Wilmer'
_symmetry_space_group_name_H-M	'P1'
_symmetry_Int_Tables_number	1
_symmetry_cell_setting	triclinic
loop_
_symmetry_equiv_pos_as_xyz
  x,y,z
_cell_length_a	10.540539
_cell_length_b	10.540539
_cell_length_c	9.616153
_cell_angle_alpha	89.995612
_cell_angle_beta	89.999862
_cell_angle_gamma	84.525492
loop_
_atom_site_label
_atom_site_type_symbol
_atom_site_fract_x
_atom_site_fract_y
_atom_site_fract_z
O1	O	1.685883	0.178904	-0.115573
O2	O	1.316470	0.195760	-0.115589
O3	O	1.509604	0.002626	-0.115579
O4	O	1.492748	0.372039	-0.115583
O5	O	1.509596	0.002612	0.115712
O6	O	1.316462	0.195746	0.115702
O7	O	1.685875	0.178891	0.115718
Zn8	Zn	1.501167	0.187316	0.152433
Zn9	Zn	1.501177	0.187334	-0.152304
O10	O	1.492741	0.372025	0.115708
C11	C	1.269163	0.194489	0.000054
C12	C	1.128215	0.190707	0.000048
C13	C	0.944788	0.045790	0.000589
C14	C	1.091406	0.049624	0.000054
C15	C	1.066547	0.258610	-0.132027
C16	C	0.920002	0.253795	-0.132123
C17	C	0.919505	0.256650	0.130899
C18	C	1.066487	0.257949	0.132630
C19	C	1.508336	-0.044684	0.000064
C20	C	1.504554	-0.185632	0.000056
C21	C	1.359637	-0.369059	-0.000469
C22	C	1.363471	-0.222441	0.000052
C23	C	1.572445	-0.247298	0.132138
C24	C	1.567630	-0.393842	0.132249
C25	C	1.570509	-0.394345	-0.130772
C26	C	1.571808	-0.247363	-0.132518
C27	C	1.733182	0.180161	0.000072
C28	C	1.874130	0.183943	0.000069
C29	C	1.494008	0.419335	0.000062
C30	C	1.497790	0.560283	0.000060
N31	N	1.501170	0.187303	0.360407
N32	N	1.501185	0.187337	-0.360278
C33	C	1.604870	0.084346	0.580739
C34	C	1.604590	0.083953	0.419572
C35	C	1.368465	0.157173	0.418932
C36	C	1.369081	0.156451	0.580150
C37	C	1.529013	0.320752	0.580281
C38	C	1.532007	0.319880	0.419053
H39	H	0.872278	0.358553	0.131790
H40	H	1.461472	0.400200	0.378776
O41	O	0.877729	0.196168	0.263517
H42	H	0.962857	0.163308	0.326446
H43	H	1.672413	-0.441571	-0.131656
O44	O	1.285816	-0.406951	-0.125928
H45	H	1.256826	-0.321114	-0.189425
H46	H	1.674669	-0.223141	-0.140490
H47	H	1.629636	0.342716	0.380803
O48	O	1.120733	0.192254	0.262068
H49	H	1.191369	0.112047	0.232114
O50	O	1.098576	0.394198	0.143214
H51	H	1.159282	0.416218	0.053735
O52	O	1.580865	-0.047165	0.368495
H53	H	1.580595	-0.047908	0.253074
H54	H	1.517449	-0.422048	0.230979
O55	O	0.904770	-0.027737	-0.124157
H56	H	0.929451	0.022062	-0.220752
H57	H	1.304129	-0.399272	0.093714
H58	H	1.289546	0.228550	0.619169
H59	H	1.310050	-0.179832	-0.094630
O60	O	1.510038	-0.436194	-0.263357
H61	H	1.581119	-0.498400	-0.323490
H62	H	0.916199	-0.009951	0.095307
H63	H	1.133155	-0.004170	-0.094786
H64	H	0.891795	0.203620	-0.230849
O65	O	1.292235	-0.167122	0.125685
H66	H	1.254919	-0.245111	0.186313
H67	H	1.453417	0.397410	0.618432
H68	H	1.344738	0.059116	0.617767
O69	O	1.147864	-0.021130	0.125469
H70	H	1.070449	-0.058408	0.187045
O71	O	1.509980	-0.190880	0.262337
H72	H	1.408108	-0.209512	0.263641
H73	H	0.872033	0.355261	-0.138119
H74	H	1.109138	0.211452	-0.230318
O75	O	1.735207	0.107931	0.367138
H76	H	1.799145	0.119910	0.456932
H77	H	1.343553	0.060934	0.378569
O78	O	1.096144	0.395854	-0.138564
H79	H	1.200944	0.399547	-0.143211
O80	O	1.709684	-0.217684	0.138661
H81	H	1.755462	-0.262332	0.232891
O82	O	1.654543	0.358732	0.634115
H83	H	1.719242	0.371616	0.545214
O84	O	1.702023	-0.457399	0.140226
H85	H	1.770161	-0.383425	0.143999
O86	O	1.506112	-0.193134	-0.261962
H87	H	1.425898	-0.122502	-0.232018
O88	O	1.735933	0.107976	0.632075
H89	H	1.728579	0.193371	0.700186
H90	H	1.587220	-0.014075	0.621270
O91	O	1.263719	0.253813	0.368187
H92	H	1.305233	0.324509	0.300545
