data_functionalizedCrystal
_audit_creation_method	'MofGen! by Chris Wilmer'
_symmetry_space_group_name_H-M	'P1'
_symmetry_Int_Tables_number	1
_symmetry_cell_setting	triclinic
loop_
_symmetry_equiv_pos_as_xyz
  x,y,z
_cell_length_a	10.723023
_cell_length_b	11.792254
_cell_length_c	9.798715
_cell_angle_alpha	89.996677
_cell_angle_beta	89.996770
_cell_angle_gamma	84.333073
loop_
_atom_site_label
_atom_site_type_symbol
_atom_site_fract_x
_atom_site_fract_y
_atom_site_fract_z
O1	O	1.656775	0.159187	-0.113478
O2	O	1.293583	0.174426	-0.113484
O3	O	1.483984	0.001656	-0.113471
O4	O	1.466373	0.331957	-0.113491
O5	O	1.483970	0.001656	0.113511
O6	O	1.293568	0.174425	0.113499
O7	O	1.656760	0.159187	0.113504
Zn8	Zn	1.475162	0.166806	0.149540
Zn9	Zn	1.475181	0.166806	-0.149519
O10	O	1.466359	0.331956	0.113492
C11	C	1.247079	0.173317	0.000007
C12	C	1.108533	0.169999	0.000005
C13	C	1.046757	0.168520	0.117587
C14	C	0.903563	0.165091	0.117588
C15	C	1.482868	-0.040637	0.000020
C16	C	1.479547	-0.166658	0.000018
C17	C	1.476849	-0.269000	0.000014
C18	C	1.473476	-0.397394	0.000001
C19	C	1.703264	0.160296	0.000011
C20	C	1.841810	0.163613	0.000004
C21	C	1.467475	0.374250	-0.000002
C22	C	1.470796	0.500270	-0.000010
N23	N	1.475158	0.166805	0.353639
N24	N	1.475194	0.166799	-0.353619
C25	C	1.555104	0.093944	0.421422
C26	C	1.555124	0.093940	0.578584
H27	H	1.623529	0.031563	0.363104
H28	H	1.099881	0.169786	0.218253
H29	H	1.406751	0.229185	0.588100
C30	C	1.036782	0.168281	-0.135998
C31	C	1.041068	0.267095	-0.238108
C32	C	0.969320	0.265377	-0.374116
C33	C	0.893287	0.164846	-0.408014
C34	C	0.888998	0.066025	-0.305902
C35	C	0.960746	0.067743	-0.169894
H36	H	1.097354	0.341520	-0.213016
H37	H	0.972495	0.338531	-0.449705
H38	H	0.840175	0.163574	-0.508695
H39	H	0.832711	-0.008401	-0.330993
H40	H	0.957571	-0.005411	-0.094304
C41	C	1.382709	0.251076	0.432413
C42	C	1.432432	0.338057	0.530664
C43	C	1.339979	0.422332	0.609433
C44	C	1.197803	0.419626	0.589950
C45	C	1.148072	0.332642	0.491694
C46	C	1.240525	0.248367	0.412925
H47	H	1.537686	0.340063	0.545091
H48	H	1.376794	0.486723	0.682169
H49	H	1.129363	0.482011	0.648260
H50	H	1.042818	0.330635	0.477268
H51	H	1.203710	0.183976	0.340189
C52	C	1.647594	0.009664	0.657319
C53	C	1.647522	0.009817	0.814476
C54	C	1.739995	-0.074462	0.893213
C55	C	1.832540	-0.158893	0.814795
C56	C	1.832616	-0.159049	0.657630
C57	C	1.740142	-0.074770	0.578892
H58	H	1.579011	0.072320	0.872534
H59	H	1.739939	-0.074347	1.009558
H60	H	1.900994	-0.221281	0.873081
H61	H	1.901126	-0.221553	0.599572
H62	H	1.740199	-0.074886	0.462547
C63	C	0.831806	0.163373	0.253592
C64	C	0.728773	0.259617	0.287491
C65	C	0.657013	0.257898	0.423500
C66	C	0.688285	0.159937	0.525609
C67	C	0.791322	0.063686	0.491712
C68	C	0.863083	0.065404	0.355704
H69	H	0.705620	0.332140	0.211902
H70	H	0.580738	0.329150	0.448592
H71	H	0.635164	0.158665	0.626291
H72	H	0.814476	-0.008838	0.567302
H73	H	0.939358	-0.005847	0.330611
H74	H	0.894926	0.164892	-0.100668
