data_functionalizedCrystal
_audit_creation_method	'MofGen! by Chris Wilmer'
_symmetry_space_group_name_H-M	'P1'
_symmetry_Int_Tables_number	1
_symmetry_cell_setting	triclinic
loop_
_symmetry_equiv_pos_as_xyz
  x,y,z
_cell_length_a	10.489741
_cell_length_b	10.489741
_cell_length_c	16.176319
_cell_angle_alpha	89.993511
_cell_angle_beta	89.995299
_cell_angle_gamma	84.539174
loop_
_atom_site_label
_atom_site_type_symbol
_atom_site_fract_x
_atom_site_fract_y
_atom_site_fract_z
O1	O	1.694059	0.179971	-0.068695
O2	O	1.322863	0.196864	-0.068708
O3	O	1.516907	0.002820	-0.068696
O4	O	1.500015	0.374015	-0.068707
O5	O	1.516880	0.002807	0.068797
O6	O	1.322836	0.196851	0.068785
O7	O	1.694032	0.179958	0.068798
Cu8	Cu	1.508431	0.188404	0.081346
Cu9	Cu	1.508463	0.188419	-0.081256
O10	O	1.499987	0.374003	0.068787
C11	C	1.275318	0.195582	0.000037
C12	C	1.133688	0.191765	0.000032
C13	C	1.065548	0.068300	0.000044
C14	C	0.973435	0.126630	-0.067748
C15	C	0.973442	0.126647	0.067810
C16	C	1.043440	0.250145	-0.067815
C17	C	1.043457	0.250145	0.067804
C18	C	0.951371	0.308564	-0.000004
C19	C	1.515618	-0.044718	0.000050
C20	C	1.511801	-0.186348	0.000048
C21	C	1.388336	-0.254488	0.000038
C22	C	1.446646	-0.346617	0.067831
C23	C	1.446702	-0.346579	-0.067726
C24	C	1.570162	-0.276611	0.067898
C25	C	1.570201	-0.276564	-0.067721
C26	C	1.628600	-0.368665	0.000089
C27	C	1.741577	0.181241	0.000051
C28	C	1.883206	0.185058	0.000051
C29	C	1.501277	0.421541	0.000039
C30	C	1.505094	0.563170	0.000035
N31	N	1.508418	0.188392	0.195711
N32	N	1.508487	0.188420	-0.195621
C33	C	1.594367	0.102505	0.238981
C34	C	1.594374	0.102504	0.325528
C35	C	1.508436	0.188397	0.368804
C36	C	1.422478	0.274288	0.325528
C37	C	1.422466	0.274282	0.238983
C38	C	1.422522	0.274313	0.674557
C39	C	1.422543	0.274314	0.761108
C40	C	1.594429	0.102534	0.761101
C41	C	1.594418	0.102528	0.674556
C42	C	1.508455	0.188414	0.631288
C43	C	1.508448	0.188413	0.537444
C44	C	1.508449	0.188405	0.462646
H45	H	1.074492	0.302337	0.125117
Cl46	Cl	1.702461	-0.005451	0.620155
H47	H	1.394394	-0.377633	0.125142
Cl48	Cl	0.925600	0.045953	0.156298
H49	H	1.286824	-0.204837	0.000103
H50	H	1.622346	-0.245784	0.125276
Cl51	Cl	1.314434	0.382264	0.379931
Cl52	Cl	1.650806	-0.228619	-0.156210
H53	H	1.730204	-0.418089	0.000130
Cl54	Cl	1.366031	-0.394409	-0.156210
H55	H	1.115238	-0.033196	-0.000038
H56	H	0.901947	0.410168	-0.000044
H57	H	1.352557	0.344261	0.796342
Cl58	Cl	0.925570	0.045988	-0.156233
H59	H	1.074280	0.302350	-0.125192
Cl60	Cl	1.702416	-0.005476	0.184585
H61	H	1.352476	0.344219	0.203754
Cl62	Cl	1.702425	-0.005471	0.379925
H63	H	1.664421	0.032597	0.796339
Cl64	Cl	1.314463	0.382285	0.620169
