data_functionalizedCrystal
_audit_creation_method	'MofGen! by Chris Wilmer'
_symmetry_space_group_name_H-M	'P1'
_symmetry_Int_Tables_number	1
_symmetry_cell_setting	triclinic
loop_
_symmetry_equiv_pos_as_xyz
  x,y,z
_cell_length_a	23.532355
_cell_length_b	22.010155
_cell_length_c	16.109301
_cell_angle_alpha	89.997171
_cell_angle_beta	83.144490
_cell_angle_gamma	90.002586
loop_
_atom_site_label
_atom_site_type_symbol
_atom_site_fract_x
_atom_site_fract_y
_atom_site_fract_z
O1	O	0.755654	0.050444	0.100709
O2	O	1.255654	0.550444	0.600709
O3	O	0.589841	0.050464	0.115357
O4	O	1.089841	0.550464	0.615357
O5	O	0.677303	0.050448	-0.013035
O6	O	1.177303	0.550448	0.486965
O7	O	0.668193	0.050461	0.229101
O8	O	1.168193	0.550461	0.729101
O9	O	0.677287	-0.050603	-0.013016
O10	O	1.177287	0.449397	0.486984
O11	O	0.589825	-0.050586	0.115376
O12	O	1.089825	0.449414	0.615376
O13	O	0.755639	-0.050606	0.100728
O14	O	1.255639	0.449394	0.600728
Cu15	Cu	0.672730	-0.059823	0.108054
Cu16	Cu	1.172730	0.440177	0.608054
Cu17	Cu	0.672749	0.059681	0.108031
Cu18	Cu	1.172749	0.559681	0.608031
O19	O	0.668177	-0.050589	0.229120
O20	O	1.168177	0.449411	0.729120
C21	C	0.568615	-0.000059	0.115000
C22	C	1.068615	0.499941	0.615000
C23	C	0.505392	-0.000051	0.113899
C24	C	1.005392	0.499949	0.613899
C25	C	0.113344	-0.055160	0.106993
C26	C	0.613344	0.444840	0.606993
C27	C	0.053941	-0.055162	0.105946
C28	C	0.553941	0.444838	0.605946
O29	O	0.023213	-0.102007	0.105385
O30	O	0.523213	0.397993	0.605385
N31	N	0.024239	-0.000080	0.105416
N32	N	0.524239	0.499920	0.605416
C33	C	0.053945	0.055008	0.105925
C34	C	0.553945	0.555008	0.605925
O35	O	0.023227	0.101860	0.105377
O36	O	0.523227	0.601860	0.605377
C37	C	0.113347	0.055010	0.106966
C38	C	0.613347	0.555010	0.606966
C39	C	0.143045	-0.000076	0.107505
C40	C	0.643045	0.499924	0.607505
C41	C	0.143042	-0.110241	0.107530
C42	C	0.643042	0.389759	0.607530
C43	C	0.202441	-0.110239	0.108579
C44	C	0.702441	0.389761	0.608579
C45	C	0.232142	-0.055155	0.109091
C46	C	0.732142	0.444845	0.609091
C47	C	0.202444	-0.000073	0.108553
C48	C	0.702444	0.499927	0.608553
C49	C	0.143052	0.110098	0.107469
C50	C	0.643052	0.610098	0.607469
C51	C	0.202459	0.110095	0.108510
C52	C	0.702459	0.610095	0.608510
C53	C	0.232157	0.055009	0.109048
C54	C	0.732157	0.555009	0.609048
C55	C	0.291544	0.055014	0.110114
C56	C	0.791544	0.555014	0.610114
N57	N	0.321246	-0.000069	0.110644
N58	N	0.821246	0.499931	0.610644
C59	C	0.291545	-0.055153	0.110132
C60	C	0.791545	0.444847	0.610132
C61	C	-0.070805	0.055001	0.103736
C62	C	0.429195	0.555001	0.603736
C63	C	-0.130207	0.054999	0.102701
C64	C	0.369793	0.554999	0.602701
C65	C	-0.130206	-0.055171	0.102720
C66	C	0.369794	0.444829	0.602720
C67	C	-0.070804	-0.055170	0.103762
C68	C	0.429196	0.444830	0.603762
C69	C	-0.041103	-0.000082	0.104266
C70	C	0.458897	0.499918	0.604266
C71	C	0.416287	-0.055143	0.112335
C72	C	0.916287	0.444857	0.612335
C73	C	0.475691	-0.055135	0.113388
C74	C	0.975691	0.444865	0.613388
C75	C	0.475686	0.055035	0.113364
C76	C	0.975686	0.555035	0.613364
C77	C	0.416287	0.055028	0.112316
C78	C	0.916287	0.555028	0.612316
C79	C	0.386589	-0.000066	0.111799
C80	C	0.886589	0.499934	0.611799
O81	O	0.322311	0.101835	0.110672
O82	O	0.822311	0.601835	0.610672
O83	O	0.322272	-0.101996	0.110669
O84	O	0.822272	0.398004	0.610669
N85	N	0.672721	-0.143875	0.108069
N86	N	1.172721	0.356125	0.608069
C87	C	0.711480	-0.563662	0.051187
C88	C	1.211480	-0.063662	0.551187
C89	C	0.711482	-0.627270	0.051181
C90	C	1.211482	-0.127270	0.551181
O91	O	0.744413	-0.660167	0.002829
O92	O	1.244413	-0.160167	0.502829
N93	N	0.672749	-0.659082	0.108013
N94	N	1.172749	-0.159082	0.608013
C95	C	0.634006	-0.627284	0.164850
C96	C	1.134006	-0.127284	0.664850
O97	O	0.601061	-0.660184	0.213189
O98	O	1.101061	-0.160184	0.713189
C99	C	0.634002	-0.563678	0.164851
C100	C	1.134002	-0.063678	0.664851
C101	C	0.672741	-0.531868	0.108020
C102	C	1.172741	-0.031868	0.608020
C103	C	0.750216	-0.531852	-0.005640
C104	C	1.250216	-0.031852	0.494360
C105	C	0.750214	-0.468249	-0.005633
C106	C	1.250214	0.031751	0.494367
C107	C	0.711475	-0.436456	0.051201
C108	C	1.211475	0.063544	0.551201
C109	C	0.672739	-0.468265	0.108027
C110	C	1.172739	0.031735	0.608027
C111	C	0.595257	-0.531881	0.221682
C112	C	1.095257	-0.031881	0.721682
C113	C	0.595255	-0.468270	0.221678
C114	C	1.095255	0.031730	0.721678
C115	C	0.633995	-0.436461	0.164848
C116	C	1.133995	0.063539	0.664848
C117	C	0.633999	-0.372868	0.164868
C118	C	1.133999	0.127132	0.664868
N119	N	0.672732	-0.341055	0.108035
N120	N	1.172732	0.158945	0.608035
C121	C	0.711470	-0.372849	0.051202
C122	C	1.211470	0.127151	0.551202
C123	C	0.634019	-0.760862	0.164842
C124	C	1.134019	-0.260862	0.664842
C125	C	0.634026	-0.824467	0.164846
C126	C	1.134026	-0.324467	0.664846
C127	C	0.711501	-0.824448	0.051176
C128	C	1.211501	-0.324448	0.551176
C129	C	0.711496	-0.760842	0.051177
C130	C	1.211496	-0.260842	0.551177
C131	C	0.672752	-0.729049	0.108010
C132	C	1.172752	-0.229049	0.608010
C133	C	0.711463	-0.239278	0.051221
C134	C	1.211463	0.260722	0.551221
C135	C	0.711460	-0.175669	0.051236
C136	C	1.211460	0.324331	0.551236
C137	C	0.633983	-0.175694	0.164902
C138	C	1.133983	0.324306	0.664902
C139	C	0.633988	-0.239297	0.164891
C140	C	1.133988	0.260703	0.664891
C141	C	0.672731	-0.271087	0.108044
C142	C	1.172731	0.228913	0.608044
O143	O	0.601083	-0.339930	0.213193
O144	O	1.101083	0.160070	0.713193
O145	O	0.744406	-0.339941	0.002863
O146	O	1.244406	0.160059	0.502863
C147	C	0.776864	-0.000082	0.101084
C148	C	1.276864	0.499918	0.601084
C149	C	0.840087	-0.000085	0.102185
C150	C	1.340087	0.499915	0.602185
C151	C	0.676926	-0.000078	-0.043998
C152	C	1.176926	0.499922	0.456002
C153	C	0.675819	-0.000079	-0.136284
C154	C	1.175819	0.499921	0.363716
N155	N	0.672763	0.143733	0.108009
N156	N	1.172763	0.643733	0.608009
C157	C	0.725145	-0.000075	-0.358958
C158	C	1.225145	0.499925	0.141042
C159	C	0.724101	-0.000070	-0.445670
C160	C	1.224101	0.499930	0.054330
C161	C	0.620331	-0.000060	-0.424951
C162	C	1.120331	0.499940	0.075049
C163	C	0.621375	-0.000061	-0.338241
C164	C	1.121375	0.499939	0.161759
C165	C	0.673784	-0.000071	-0.305247
C166	C	1.173784	0.499929	0.194753
C167	C	0.671695	-0.000065	-0.478669
C168	C	1.171695	0.499935	0.021331
C169	C	0.670563	-0.000060	-0.572686
C170	C	1.170563	0.499940	-0.072686
C171	C	0.674917	-0.000076	-0.211224
C172	C	1.174917	0.499924	0.288776
C173	C	0.668554	-0.000063	0.260082
C174	C	1.168554	0.499937	0.760082
C175	C	0.669660	-0.000058	0.352368
C176	C	1.169660	0.499942	0.852368
H177	H	-0.046628	-0.100026	0.104201
H178	H	0.453372	0.399974	0.604201
H179	H	0.743041	-0.734946	0.004900
H180	H	1.243041	-0.234946	0.504900
H181	H	0.226638	0.154955	0.108921
H182	H	0.726638	0.654955	0.608921
Br183	Br	0.551666	-0.000047	-0.265341
Br184	Br	1.051666	0.499953	0.234659
H185	H	0.602487	-0.850362	0.211131
H186	H	1.102487	-0.350362	0.711131
Br187	Br	-0.170506	0.129762	0.101991
Br188	Br	0.329494	0.629762	0.601991
Br189	Br	0.764040	-0.132502	-0.025893
Br190	Br	1.264040	0.367498	0.474107
H191	H	0.563711	-0.557771	0.267958
H192	H	1.063711	-0.057771	0.767958
Br193	Br	0.515992	-0.129900	0.114124
Br194	Br	1.015992	0.370100	0.614124
H195	H	0.577661	-0.000052	-0.451826
H196	H	1.077661	0.499948	0.048174
Br197	Br	0.542668	-0.425128	0.298810
Br198	Br	1.042668	0.074872	0.798810
Br199	Br	-0.170526	-0.129929	0.102025
Br200	Br	0.329474	0.370071	0.602025
H201	H	-0.046627	0.099862	0.104155
H202	H	0.453373	0.599862	0.604155
Br203	Br	0.581436	-0.717721	0.241985
Br204	Br	1.081436	-0.217721	0.741985
H205	H	0.118883	0.154955	0.107030
H206	H	0.618883	0.654955	0.607030
Br207	Br	0.375980	0.129788	0.111603
Br208	Br	0.875980	0.629788	0.611603
H209	H	0.226617	-0.155095	0.109012
H210	H	0.726617	0.344905	0.609012
Br211	Br	0.375993	-0.129914	0.111631
Br212	Br	0.875993	0.370086	0.611631
H213	H	0.602444	-0.149797	0.211178
H214	H	1.102444	0.350203	0.711178
H215	H	0.602448	-0.265197	0.211176
H216	H	1.102448	0.234803	0.711176
Br217	Br	0.802795	-0.574990	-0.082782
Br218	Br	1.302795	-0.074990	0.417218
Br219	Br	0.516006	0.129788	0.114055
Br220	Br	1.016006	0.629788	0.614055
Br221	Br	0.102745	-0.185009	0.106839
Br222	Br	0.602745	0.314991	0.606839
Br223	Br	0.764043	-0.282412	-0.025930
Br224	Br	1.264043	0.217588	0.474070
Br225	Br	0.793808	-0.000071	-0.518561
Br226	Br	1.293808	0.499929	-0.018561
H227	H	0.781757	-0.442354	-0.051911
H228	H	1.281757	0.057646	0.448089
H229	H	0.743043	-0.850346	0.004898
H230	H	1.243043	-0.350346	0.504898
Br231	Br	0.796271	-0.000090	-0.314182
Br232	Br	1.296271	0.499910	0.185818
