data_functionalizedCrystal
_audit_creation_method	'MofGen! by Chris Wilmer'
_symmetry_space_group_name_H-M	'P1'
_symmetry_Int_Tables_number	1
_symmetry_cell_setting	triclinic
loop_
_symmetry_equiv_pos_as_xyz
  x,y,z
_cell_length_a	9.065215
_cell_length_b	9.065218
_cell_length_c	7.540329
_cell_angle_alpha	90.002098
_cell_angle_beta	89.997574
_cell_angle_gamma	94.984709
loop_
_atom_site_label
_atom_site_type_symbol
_atom_site_fract_x
_atom_site_fract_y
_atom_site_fract_z
O1	O	-1.960401	0.216334	0.147455
O2	O	-1.460401	0.716334	0.647455
O3	O	-1.531116	0.234085	0.147463
O4	O	-1.031116	0.734085	0.647463
O5	O	-1.754631	0.010567	0.147454
O6	O	-1.254631	0.510567	0.647454
O7	O	-1.736885	0.439852	0.147464
O8	O	-1.236885	0.939852	0.647464
O9	O	-1.754618	0.010564	-0.147511
O10	O	-1.254618	0.510564	0.352489
O11	O	-1.531102	0.234082	-0.147502
O12	O	-1.031102	0.734082	0.352498
O13	O	-1.960387	0.216331	-0.147510
O14	O	-1.460387	0.716331	0.352490
Cu15	Cu	-1.745743	0.225207	-0.174439
Cu16	Cu	-1.245743	0.725207	0.325561
Cu17	Cu	-1.745759	0.225210	0.174392
Cu18	Cu	-1.245759	0.725210	0.674392
O19	O	-1.736871	0.439849	-0.147501
O20	O	-1.236871	0.939849	0.352499
C21	C	-1.476122	0.232379	-0.000019
C22	C	-0.976122	0.732379	0.499981
C23	C	-1.312279	0.227281	-0.000016
C24	C	-0.812279	0.727281	0.499984
C25	C	-1.752919	-0.044421	-0.000026
C26	C	-1.252919	0.455579	0.499974
C27	C	-1.747819	-0.208264	-0.000019
C28	C	-1.247819	0.291736	0.499981
C29	C	-1.738584	0.494837	-0.000017
C30	C	-1.238584	0.994837	0.499983
C31	C	-1.743683	0.658680	-0.000012
C32	C	-1.243683	1.158680	0.499988
C33	C	-2.015381	0.218038	-0.000024
C34	C	-1.515381	0.718038	0.499976
C35	C	-2.179224	0.223136	-0.000015
C36	C	-1.679224	0.723136	0.499985
N37	N	-1.745743	0.225203	-0.419787
N38	N	-1.245743	0.725203	0.080213
N39	N	-1.745771	0.225202	0.419740
N40	N	-1.245771	0.725202	0.919740
