data_functionalizedCrystal
_audit_creation_method	'MofGen! by Chris Wilmer'
_symmetry_space_group_name_H-M	'P1'
_symmetry_Int_Tables_number	1
_symmetry_cell_setting	triclinic
loop_
_symmetry_equiv_pos_as_xyz
  x,y,z
_cell_length_a	10.489741
_cell_length_b	11.026607
_cell_length_c	10.065875
_cell_angle_alpha	100.697662
_cell_angle_beta	98.879541
_cell_angle_gamma	83.437405
loop_
_atom_site_label
_atom_site_type_symbol
_atom_site_fract_x
_atom_site_fract_y
_atom_site_fract_z
O1	O	0.520484	-1.632468	-0.113500
O2	O	0.459543	-1.278630	-0.113501
O3	O	0.306188	-1.463599	-0.113492
O4	O	0.673839	-1.447499	-0.113509
O5	O	0.335581	-1.428329	0.113495
O6	O	0.488935	-1.243360	0.113486
O7	O	0.549877	-1.597198	0.113487
Zn8	Zn	0.524073	-1.414679	0.149526
Zn9	Zn	0.485347	-1.461149	-0.149540
O10	O	0.703232	-1.412229	0.113478
C11	C	0.273085	-1.444748	0.000000
C12	C	0.130655	-1.441110	-0.000002
C13	C	0.462996	-1.215686	-0.000008
C14	C	0.429482	-1.080679	-0.000008
C15	C	0.546423	-1.660143	-0.000009
C16	C	0.579937	-1.795151	-0.000018
C17	C	0.036624	-1.323420	-0.000012
C18	C	-0.028776	-1.361626	0.111904
C19	C	-0.057724	-1.396427	-0.111887
C20	C	0.067142	-1.479350	0.112007
C21	C	0.038187	-1.514151	-0.111885
C22	C	-0.027164	-1.552438	0.000059
C23	C	0.736334	-1.431080	-0.000017
C24	C	0.878763	-1.434720	-0.000024
N25	N	0.550504	-1.382974	0.353630
C26	C	0.522021	-1.007682	-0.000013
C27	C	0.487384	-0.868146	-0.000013
N28	N	0.458908	-1.492864	-0.353644
C29	C	0.494533	-1.450110	0.421412
C30	C	0.514887	-1.425718	0.578578
H31	H	0.065005	-1.226637	0.000100
N32	N	0.134905	-1.523288	0.230856
N33	N	0.073074	-1.551839	0.315494
H34	H	0.120932	-1.582865	0.399434
N35	N	0.415346	-1.544746	0.348280
N36	N	0.362601	-1.607788	0.411926
H37	H	0.306607	-1.674576	0.360281
H38	H	0.324609	-1.039875	-0.000038
N39	N	0.593894	-1.330946	0.651746
N40	N	0.610311	-1.311262	0.779314
H41	H	0.666107	-1.244330	0.830993
H42	H	0.613486	-1.307434	0.411952
N43	N	0.711509	-0.846306	-0.000040
N44	N	0.798525	-0.777747	-0.000053
H45	H	0.891448	-0.813874	-0.000071
N46	N	0.379900	-1.587661	0.573257
N47	N	0.263403	-1.582247	0.589122
H48	H	0.207614	-1.649209	0.537506
N49	N	-0.066048	-1.280704	0.230595
N50	N	-0.046310	-1.168685	0.250536
H51	H	-0.072631	-1.111525	0.334357
N52	N	-0.062437	-1.673918	0.000160
N53	N	-0.116438	-1.693814	0.095411
H54	H	-0.141351	-1.779607	0.095492
N55	N	0.075481	-1.595009	-0.230596
N56	N	0.029560	-1.572950	-0.346719
H57	H	0.055896	-1.630050	-0.430571
H58	H	-0.111898	-1.361318	-0.206513
N59	N	0.653577	-1.058881	-0.000003
N60	N	0.681528	-1.172158	0.000003
H61	H	0.774443	-1.208316	0.000011
N62	N	0.355820	-0.816968	0.000023
N63	N	0.325493	-0.734285	0.095713
H64	H	0.232577	-0.698139	0.095742
