data_functionalizedCrystal
_audit_creation_method	'MofGen! by Chris Wilmer'
_symmetry_space_group_name_H-M	'P1'
_symmetry_Int_Tables_number	1
_symmetry_cell_setting	triclinic
loop_
_symmetry_equiv_pos_as_xyz
  x,y,z
_cell_length_a	11.026607
_cell_length_b	10.654550
_cell_length_c	9.130313
_cell_angle_alpha	89.995631
_cell_angle_beta	89.997173
_cell_angle_gamma	96.535473
loop_
_atom_site_label
_atom_site_type_symbol
_atom_site_fract_x
_atom_site_fract_y
_atom_site_fract_z
O1	O	-1.614596	-0.526879	0.121808
O2	O	-1.114596	-0.026879	0.621808
O3	O	-1.260785	-0.466883	0.121809
O4	O	-0.760785	0.033117	0.621809
O5	O	-1.445825	-0.315907	0.121799
O6	O	-0.945825	0.184093	0.621799
O7	O	-1.429556	-0.677854	0.121817
O8	O	-0.929556	-0.177854	0.621817
O9	O	-1.445812	-0.315899	-0.121800
O10	O	-0.945812	0.184101	0.378200
O11	O	-1.260772	-0.466875	-0.121790
O12	O	-0.760772	0.033125	0.378210
O13	O	-1.614583	-0.526870	-0.121791
O14	O	-1.114583	-0.026870	0.378209
Cu15	Cu	-1.437676	-0.496872	-0.144033
Cu16	Cu	-0.937676	0.003128	0.355967
Cu17	Cu	-1.437692	-0.496882	0.144051
Cu18	Cu	-0.937692	0.003118	0.644051
O19	O	-1.429543	-0.677846	-0.121781
O20	O	-0.929543	-0.177846	0.378219
C21	C	-1.215474	-0.455811	0.000009
C22	C	-0.715474	0.044189	0.500009
C23	C	-1.080483	-0.422816	0.000009
C24	C	-0.580483	0.077184	0.500009
C25	C	-1.444624	-0.268846	0.000000
C26	C	-0.944624	0.231154	0.500000
C27	C	-1.441050	-0.128627	0.000003
C28	C	-0.941050	0.371373	0.500003
C29	C	-1.659894	-0.537943	0.000011
C30	C	-1.159894	-0.037943	0.500011
C31	C	-1.794885	-0.570937	0.000021
C32	C	-1.294885	-0.070937	0.500021
C33	C	-1.007444	-0.513920	0.000015
C34	C	-0.507444	-0.013920	0.500015
C35	C	-0.867923	-0.479820	0.000015
C36	C	-0.367923	0.020180	0.500015
C37	C	-1.430744	-0.724907	0.000020
C38	C	-0.930744	-0.224907	0.500020
C39	C	-1.434318	-0.865126	0.000028
C40	C	-0.934318	-0.365126	0.500028
N41	N	-1.437675	-0.496866	-0.346656
N42	N	-0.937675	0.003134	0.153344
C43	C	-1.549999	-0.072791	0.000003
C44	C	-1.049999	0.427209	0.500003
C45	C	-1.546633	0.058961	0.000021
C46	C	-1.046633	0.558961	0.500021
C47	C	-1.325361	0.079029	0.000032
C48	C	-0.825361	0.579029	0.500032
C49	C	-1.328728	-0.052720	0.000025
C50	C	-0.828728	0.447280	0.500025
C51	C	-1.519639	-0.430056	-0.423312
C52	C	-1.019639	0.069944	0.076688
C53	C	-1.519650	-0.430059	-0.576649
C54	C	-1.019650	0.069941	-0.076649
C55	C	-1.355730	-0.563692	-0.576660
C56	C	-0.855730	-0.063692	-0.076660
C57	C	-1.355714	-0.563681	-0.423326
C58	C	-0.855714	-0.063681	0.076674
N59	N	-1.437703	-0.496880	0.346673
N60	N	-0.937703	0.003120	0.846673
H61	H	-1.048204	-0.617161	0.000012
H62	H	-0.548204	-0.117161	0.500012
H63	H	-1.233911	0.140848	0.000047
H64	H	-0.733911	0.640848	0.500047
Cl65	Cl	-1.252660	-0.647670	-0.326949
Cl66	Cl	-0.752660	-0.147670	0.173051
Cl67	Cl	-0.857796	-0.730347	0.000008
Cl68	Cl	-0.357796	-0.230347	0.500008
H69	H	-1.586391	-0.375654	-0.639058
H70	H	-1.086391	0.124346	-0.139058
Cl71	Cl	-1.252703	-0.647690	-0.673052
Cl72	Cl	-0.752703	-0.147690	-0.173052
Cl73	Cl	-1.683605	0.129149	0.000024
Cl74	Cl	-1.183605	0.629149	0.500024
Cl75	Cl	-1.191752	-0.122919	0.000037
Cl76	Cl	-0.691752	0.377081	0.500037
H77	H	-0.827168	-0.376572	0.000047
H78	H	-0.327168	0.123428	0.500047
Cl79	Cl	-1.017563	-0.263414	-0.000009
Cl80	Cl	-0.517563	0.236586	0.499991
Cl81	Cl	-1.691204	-0.168212	-0.000021
Cl82	Cl	-1.191204	0.331788	0.499979
Cl83	Cl	-1.622670	-0.346054	-0.326933
Cl84	Cl	-1.122670	0.153946	0.173067
