data_functionalizedCrystal
_audit_creation_method	'MofGen! by Chris Wilmer'
_symmetry_space_group_name_H-M	'P1'
_symmetry_Int_Tables_number	1
_symmetry_cell_setting	triclinic
loop_
_symmetry_equiv_pos_as_xyz
  x,y,z
_cell_length_a	25.639239
_cell_length_b	25.639243
_cell_length_c	25.639234
_cell_angle_alpha	90.020836
_cell_angle_beta	89.975416
_cell_angle_gamma	89.958634
loop_
_atom_site_label
_atom_site_type_symbol
_atom_site_fract_x
_atom_site_fract_y
_atom_site_fract_z
Zn1	Zn	-0.208147	-0.799250	-0.295656
Zn2	Zn	0.125186	-0.465917	0.037677
Zn3	Zn	0.458520	-0.132583	0.371010
Zn4	Zn	-0.295575	-0.799166	-0.208221
Zn5	Zn	0.037759	-0.465833	0.125113
Zn6	Zn	0.371092	-0.132499	0.458446
Zn7	Zn	-0.208159	-0.711819	-0.208230
Zn8	Zn	0.125174	-0.378486	0.125103
Zn9	Zn	0.458508	-0.045152	0.458437
Zn10	Zn	-0.295557	-0.711771	-0.295620
Zn11	Zn	0.037776	-0.378438	0.037713
Zn12	Zn	0.371109	-0.045105	0.371047
O13	O	-0.251859	-0.755502	-0.251932
O14	O	0.081474	-0.422168	0.081402
O15	O	0.414807	-0.088835	0.414735
O16	O	-0.219747	-0.872404	-0.284069
O17	O	0.113587	-0.539071	0.049264
O18	O	0.446920	-0.205737	0.382597
O19	O	-0.283991	-0.787564	-0.135057
O20	O	0.049342	-0.454231	0.198277
O21	O	0.382676	-0.120897	0.531610
O22	O	-0.134992	-0.723472	-0.219846
O23	O	0.198341	-0.390139	0.113487
O24	O	0.531674	-0.056805	0.446820
O25	O	-0.283979	-0.872342	-0.219831
O26	O	0.049354	-0.539009	0.113503
O27	O	0.382687	-0.205676	0.446836
O28	O	-0.134983	-0.787707	-0.284078
O29	O	0.198350	-0.454374	0.049255
O30	O	0.531683	-0.121040	0.382589
O31	O	-0.219767	-0.723391	-0.135063
O32	O	0.113566	-0.390057	0.198270
O33	O	0.446899	-0.056724	0.531603
O34	O	-0.219750	-0.638647	-0.219811
O35	O	0.113583	-0.305314	0.113522
O36	O	0.446916	0.028019	0.446856
O37	O	-0.283950	-0.723391	-0.368790
O38	O	0.049384	-0.390058	-0.035457
O39	O	0.382717	-0.056724	0.297877
O40	O	-0.283961	-0.638613	-0.284016
O41	O	0.049372	-0.305279	0.049317
O42	O	0.382705	0.028054	0.382651
O43	O	-0.219730	-0.787661	-0.368817
O44	O	0.113604	-0.454328	-0.035483
O45	O	0.446937	-0.120994	0.297850
O46	O	-0.368738	-0.787518	-0.219795
O47	O	-0.035404	-0.454185	0.113538
O48	O	0.297929	-0.120851	0.446871
O49	O	-0.368725	-0.723310	-0.284007
O50	O	-0.035391	-0.389976	0.049326
O51	O	0.297942	-0.056643	0.382659
C52	C	-0.251856	-0.619659	-0.251911
C53	C	0.081478	-0.286326	0.081422
C54	C	0.414811	0.047008	0.414756
C55	C	-0.251867	-0.561545	-0.251914
C56	C	0.081467	-0.228212	0.081419
C57	C	0.414800	0.105122	0.414752
C58	C	-0.218466	-0.201208	-0.285436
C59	C	0.114868	0.132125	0.047897
C60	C	0.448201	0.465458	0.381231
C61	C	-0.218465	-0.146604	-0.285439
C62	C	0.114868	0.186729	0.047894
C63	C	0.448202	0.520063	0.381227
O64	O	-0.190057	-0.118390	-0.313915
O65	O	0.143277	0.214943	0.019418
O66	O	0.476610	0.548277	0.352752
N67	N	-0.251857	-0.119263	-0.251946
N68	N	0.081476	0.214071	0.081388
N69	N	0.414809	0.547404	0.414721
C70	C	-0.285249	-0.146528	-0.218443
C71	C	0.048085	0.186805	0.114891
C72	C	0.381418	0.520139	0.448224
O73	O	-0.313651	-0.118258	-0.189954
O74	O	0.019682	0.215075	0.143380
O75	O	0.353016	0.548409	0.476713
C76	C	-0.285246	-0.201131	-0.218437
C77	C	0.048087	0.132202	0.114896
C78	C	0.381421	0.465535	0.448229
C79	C	-0.251855	-0.228470	-0.251937
C80	C	0.081478	0.104863	0.081396
C81	C	0.414811	0.438196	0.414730
C82	C	-0.185077	-0.228547	-0.318933
C83	C	0.148256	0.104786	0.014401
C84	C	0.481590	0.438119	0.347734
C85	C	-0.185078	-0.283148	-0.318930
C86	C	0.148255	0.050186	0.014403
C87	C	0.481588	0.383519	0.347737
C88	C	-0.218468	-0.310410	-0.285431
C89	C	0.114865	0.022924	0.047903
C90	C	0.448198	0.356257	0.381236
C91	C	-0.251857	-0.283071	-0.251934
C92	C	0.081477	0.050263	0.081399
C93	C	0.414810	0.383596	0.414732
C94	C	-0.318634	-0.228396	-0.184932
C95	C	0.014699	0.104937	0.148401
C96	C	0.348032	0.438271	0.481734
C97	C	-0.318629	-0.283003	-0.184929
C98	C	0.014705	0.050330	0.148404
C99	C	0.348038	0.383664	0.481737
C100	C	-0.285238	-0.310342	-0.218429
C101	C	0.048095	0.022992	0.114904
C102	C	0.381429	0.356325	0.448238
C103	C	-0.285248	-0.364933	-0.218433
C104	C	0.048086	-0.031600	0.114901
C105	C	0.381419	0.301734	0.448234
N106	N	-0.251855	-0.392275	-0.251926
N107	N	0.081478	-0.058941	0.081407
N108	N	0.414811	0.274392	0.414740
C109	C	-0.218466	-0.365013	-0.285425
C110	C	0.114868	-0.031680	0.047908
C111	C	0.448201	0.301654	0.381241
C112	C	-0.285251	-0.031857	-0.218456
C113	C	0.048082	0.301476	0.114877
C114	C	0.381416	0.634809	0.448211
C115	C	-0.285256	0.022745	-0.218464
C116	C	0.048077	0.356078	0.114870
C117	C	0.381410	0.689412	0.448203
C118	C	-0.218472	0.022665	-0.285460
C119	C	0.114861	0.355998	0.047874
C120	C	0.448195	0.689332	0.381207
C121	C	-0.218469	-0.031938	-0.285454
C122	C	0.114864	0.301395	0.047879
C123	C	0.448197	0.634728	0.381212
C124	C	-0.251858	-0.059199	-0.251950
C125	C	0.081475	0.274134	0.081384
C126	C	0.414808	0.607468	0.414717
C127	C	-0.218471	-0.479678	-0.285418
C128	C	0.114862	-0.146345	0.047916
C129	C	0.448195	0.186989	0.381249
C130	C	-0.218477	-0.534283	-0.285414
C131	C	0.114856	-0.200950	0.047920
C132	C	0.448190	0.132383	0.381253
C133	C	-0.285259	-0.534199	-0.218416
C134	C	0.048074	-0.200865	0.114917
C135	C	0.381407	0.132468	0.448251
C136	C	-0.285256	-0.479598	-0.218422
C137	C	0.048078	-0.146265	0.114912
C138	C	0.381411	0.187069	0.448245
C139	C	-0.251857	-0.452339	-0.251924
C140	C	0.081476	-0.119006	0.081409
C141	C	0.414809	0.214328	0.414742
O142	O	-0.313640	-0.393182	-0.189970
O143	O	0.019693	-0.059849	0.143364
O144	O	0.353026	0.273485	0.476697
O145	O	-0.190063	-0.393290	-0.313905
O146	O	0.143270	-0.059956	0.019429
O147	O	0.476604	0.273377	0.352762
C148	C	-0.387702	-0.755414	-0.251908
C149	C	-0.054369	-0.422080	0.081426
C150	C	0.278965	-0.088747	0.414759
C151	C	-0.445816	-0.755424	-0.251915
C152	C	-0.112483	-0.422091	0.081418
C153	C	0.220851	-0.088757	0.414752
C154	C	-0.806173	-0.789022	-0.218554
C155	C	-0.472840	-0.455689	0.114780
C156	C	-0.139506	-0.122356	0.448113
C157	C	-0.860777	-0.789042	-0.218561
C158	C	-0.527444	-0.455709	0.114773
C159	C	-0.194111	-0.122376	0.448106
O160	O	-0.889009	-0.817518	-0.190169
O161	O	-0.555676	-0.484184	0.143164
O162	O	-0.222342	-0.150851	0.476497
N163	N	-0.888098	-0.755594	-0.251966
N164	N	-0.554765	-0.422260	0.081367
N165	N	-0.221432	-0.088927	0.414700
C166	C	-0.860812	-0.722126	-0.285371
C167	C	-0.527479	-0.388792	0.047962
C168	C	-0.194146	-0.055459	0.381296
O169	O	-0.889065	-0.693677	-0.313786
O170	O	-0.555732	-0.360344	0.019547
O171	O	-0.222398	-0.027010	0.352880
C172	C	-0.806209	-0.722109	-0.285366
C173	C	-0.472876	-0.388775	0.047967
C174	C	-0.139542	-0.055442	0.381300
C175	C	-0.778891	-0.755556	-0.251955
C176	C	-0.445558	-0.422223	0.081379
C177	C	-0.112224	-0.088889	0.414712
C178	C	-0.778855	-0.822467	-0.185145
C179	C	-0.445522	-0.489134	0.148188
C180	C	-0.112188	-0.155801	0.481522
C181	C	-0.724254	-0.822446	-0.185137
C182	C	-0.390921	-0.489113	0.148196
C183	C	-0.057588	-0.155780	0.481529
C184	C	-0.696972	-0.788980	-0.218538
C185	C	-0.363639	-0.455647	0.114795
C186	C	-0.030305	-0.122313	0.448128
C187	C	-0.724290	-0.755535	-0.251947
C188	C	-0.390957	-0.422202	0.081386
C189	C	-0.057624	-0.088868	0.414720
C190	C	-0.778924	-0.688644	-0.318773
C191	C	-0.445591	-0.355311	0.014560
C192	C	-0.112257	-0.021977	0.347893
C193	C	-0.724317	-0.688630	-0.318766
C194	C	-0.390984	-0.355297	0.014567
C195	C	-0.057650	-0.021963	0.347901
C196	C	-0.696999	-0.722077	-0.285354
C197	C	-0.363665	-0.388744	0.047979
C198	C	-0.030332	-0.055411	0.381312
C199	C	-0.642407	-0.722048	-0.285341
C200	C	-0.309074	-0.388714	0.047993
C201	C	0.024259	-0.055381	0.381326
N202	N	-0.615086	-0.755497	-0.251935
N203	N	-0.281753	-0.422163	0.081399
N204	N	0.051580	-0.088830	0.414732
C205	C	-0.642369	-0.788963	-0.218534
C206	C	-0.309035	-0.455629	0.114800
C207	C	0.024298	-0.122296	0.448133
C208	C	-0.975483	-0.722165	-0.285379
C209	C	-0.642150	-0.388832	0.047954
C210	C	-0.308816	-0.055499	0.381287
C211	C	-1.030085	-0.722179	-0.285382
C212	C	-0.696752	-0.388846	0.047952
C213	C	-0.363419	-0.055513	0.381285
C214	C	-1.030047	-0.789097	-0.218572
C215	C	-0.696713	-0.455764	0.114762
C216	C	-0.363380	-0.122430	0.448095
C217	C	-0.975443	-0.789080	-0.218567
C218	C	-0.642110	-0.455746	0.114766
C219	C	-0.308777	-0.122413	0.448100
C220	C	-0.948162	-0.755614	-0.251973
C221	C	-0.614829	-0.422281	0.081360
C222	C	-0.281495	-0.088948	0.414693
C223	C	-0.527704	-0.788916	-0.218520
C224	C	-0.194370	-0.455582	0.114813
C225	C	0.138963	-0.122249	0.448147
C226	C	-0.473098	-0.788890	-0.218514
C227	C	-0.139765	-0.455557	0.114819
C228	C	0.193568	-0.122223	0.448153
C229	C	-0.473142	-0.721975	-0.285326
C230	C	-0.139808	-0.388641	0.048008
C231	C	0.193525	-0.055308	0.381341
C232	C	-0.527742	-0.721998	-0.285330
C233	C	-0.194409	-0.388665	0.048003
C234	C	0.138924	-0.055332	0.381337
C235	C	-0.555022	-0.755473	-0.251926
C236	C	-0.221689	-0.422140	0.081408
C237	C	0.111645	-0.088806	0.414741
O238	O	-0.614141	-0.693588	-0.313719
O239	O	-0.280808	-0.360255	0.019614
O240	O	0.052526	-0.026922	0.352948
O241	O	-0.614109	-0.817412	-0.190128
O242	O	-0.280776	-0.484078	0.143205
O243	O	0.052557	-0.150745	0.476539
C244	C	-0.115486	-0.755604	-0.251967
C245	C	0.217847	-0.422271	0.081366
C246	C	0.551180	-0.088937	0.414699
C247	C	-0.057372	-0.755648	-0.251982
C248	C	0.275961	-0.422314	0.081351
C249	C	0.609294	-0.088981	0.414684
C250	C	-0.251836	-0.755530	-0.388305
C251	C	0.081497	-0.422197	-0.054971
C252	C	0.414830	-0.088863	0.278362
C253	C	-0.251827	-0.755542	-0.446419
C254	C	0.081507	-0.422209	-0.113086
C255	C	0.414840	-0.088875	0.220248
C256	C	-0.251863	0.108125	-0.251953
C257	C	0.081470	0.441459	0.081381
C258	C	0.414803	0.774792	0.414714
C259	C	-0.251864	0.050011	-0.251961
C260	C	0.081469	0.383345	0.081372
C261	C	0.414802	0.716678	0.414705
C262	C	-0.285225	-0.788971	-0.697601
C263	C	0.048108	-0.455638	-0.364268
C264	C	0.381442	-0.122304	-0.030935
C265	C	-0.285236	-0.788966	-0.642997
C266	C	0.048097	-0.455632	-0.309664
C267	C	0.381431	-0.122299	0.023670
O268	O	-0.313690	-0.817364	-0.614751
O269	O	0.019643	-0.484030	-0.281418
O270	O	0.352977	-0.150697	0.051916
N271	N	-0.251801	-0.755553	-0.615693
N272	N	0.081532	-0.422220	-0.282359
N273	N	0.414865	-0.088887	0.050974
C274	C	-0.218357	-0.722141	-0.642996
C275	C	0.114976	-0.388808	-0.309662
C276	C	0.448310	-0.055474	0.023671
O277	O	-0.189920	-0.693720	-0.614757
O278	O	0.143414	-0.360387	-0.281424
O279	O	0.476747	-0.027054	0.051909
C280	C	-0.218349	-0.722144	-0.697599
C281	C	0.114984	-0.388811	-0.364266
C282	C	0.448317	-0.055478	-0.030932
C283	C	-0.251782	-0.755562	-0.724900
C284	C	0.081551	-0.422229	-0.391567
C285	C	0.414884	-0.088896	-0.058234
C286	C	-0.318656	-0.822386	-0.724903
C287	C	0.014678	-0.489053	-0.391569
C288	C	0.348011	-0.155719	-0.058236
C289	C	-0.318644	-0.822392	-0.779503
C290	C	0.014689	-0.489059	-0.446170
C291	C	0.348023	-0.155725	-0.112837
C292	C	-0.285201	-0.788983	-0.806802
C293	C	0.048132	-0.455650	-0.473469
C294	C	0.381465	-0.122316	-0.140136
C295	C	-0.251771	-0.755568	-0.779501
C296	C	0.081563	-0.422235	-0.446168
C297	C	0.414896	-0.088902	-0.112834
C298	C	-0.184908	-0.688729	-0.724901
C299	C	0.148425	-0.355396	-0.391568
C300	C	0.481758	-0.022063	-0.058234
C301	C	-0.184904	-0.688735	-0.779508
C302	C	0.148430	-0.355402	-0.446175
C303	C	0.481763	-0.022069	-0.112841
C304	C	-0.218337	-0.722153	-0.806810
C305	C	0.114997	-0.388820	-0.473476
C306	C	0.448330	-0.055487	-0.140143
C307	C	-0.218316	-0.722165	-0.861401
C308	C	0.115017	-0.388832	-0.528067
C309	C	0.448350	-0.055499	-0.194734
N310	N	-0.251751	-0.755578	-0.888705
N311	N	0.081582	-0.422244	-0.555372
N312	N	0.414916	-0.088911	-0.222038
C313	C	-0.285194	-0.788986	-0.861406
C314	C	0.048140	-0.455653	-0.528072
C315	C	0.381473	-0.122320	-0.194739
C316	C	-0.218377	-0.722136	-0.528325
C317	C	0.114956	-0.388803	-0.194992
C318	C	0.448290	-0.055469	0.138342
C319	C	-0.218382	-0.722135	-0.473723
C320	C	0.114952	-0.388802	-0.140389
C321	C	0.448285	-0.055468	0.192944
C322	C	-0.285261	-0.788959	-0.473728
C323	C	0.048072	-0.455626	-0.140394
C324	C	0.381405	-0.122292	0.192939
C325	C	-0.285253	-0.788962	-0.528331
C326	C	0.048080	-0.455629	-0.194998
C327	C	0.381413	-0.122296	0.138336
C328	C	-0.251812	-0.755548	-0.555629
C329	C	0.081522	-0.422215	-0.222296
C330	C	0.414855	-0.088881	0.111037
C331	C	-0.285166	-0.788997	-0.976071
C332	C	0.048167	-0.455664	-0.642738
C333	C	0.381501	-0.122330	-0.309404
C334	C	-0.285150	-0.789002	-1.030676
C335	C	0.048184	-0.455668	-0.697343
C336	C	0.381517	-0.122335	-0.364010
C337	C	-0.218272	-0.722176	-1.030667
C338	C	0.115061	-0.388842	-0.697333
C339	C	0.448394	-0.055509	-0.364000
C340	C	-0.218287	-0.722173	-0.976066
C341	C	0.115047	-0.388840	-0.642733
C342	C	0.448380	-0.055506	-0.309399
C343	C	-0.251738	-0.755585	-0.948769
C344	C	0.081596	-0.422252	-0.615436
C345	C	0.414929	-0.088919	-0.282103
O346	O	-0.189878	-0.693780	-0.889681
O347	O	0.143455	-0.360447	-0.556348
O348	O	0.476789	-0.027114	-0.223015
O349	O	-0.313631	-0.817397	-0.889651
O350	O	0.019702	-0.484064	-0.556317
O351	O	0.353036	-0.150731	-0.222984
C352	C	-0.251845	-0.755503	-0.116089
C353	C	0.081489	-0.422170	0.217244
C354	C	0.414822	-0.088837	0.550577
C355	C	-0.251707	-0.755593	-0.057975
C356	C	0.081626	-0.422259	0.275358
C357	C	0.414959	-0.088926	0.608691
H358	H	-0.312451	-0.457338	-0.191150
H359	H	0.020882	-0.124004	0.142184
H360	H	0.354215	0.209329	0.475517
H361	H	-0.702015	-0.849683	-0.157932
H362	H	-0.368682	-0.516350	0.175401
H363	H	-0.035348	-0.183017	0.508734
Cl364	Cl	-0.327233	-0.066123	-0.176335
Cl365	Cl	0.006100	0.267211	0.156999
Cl366	Cl	0.339434	0.600544	0.490332
Cl367	Cl	-0.561990	-0.830998	-0.176524
Cl368	Cl	-0.228656	-0.497664	0.156809
Cl369	Cl	0.104677	-0.164331	0.490142
H370	H	-0.312375	-0.816217	-1.052903
H371	H	0.020958	-0.482883	-0.719569
H372	H	0.354291	-0.149550	-0.386236
Cl373	Cl	-0.176498	-0.568649	-0.327532
Cl374	Cl	0.156835	-0.235315	0.005802
Cl375	Cl	0.490169	0.098018	0.339135
Cl376	Cl	-1.064421	-0.680123	-0.327381
Cl377	Cl	-0.731088	-0.346790	0.005953
Cl378	Cl	-0.397755	-0.013457	0.339286
Cl379	Cl	-0.813143	-0.864545	-0.143149
Cl380	Cl	-0.479809	-0.531212	0.190184
Cl381	Cl	-0.146476	-0.197879	0.523517
Cl382	Cl	-0.176232	-0.680179	-1.064996
Cl383	Cl	0.157101	-0.346845	-0.731662
Cl384	Cl	0.490434	-0.013512	-0.398329
Cl385	Cl	-0.941106	-0.831130	-0.176563
Cl386	Cl	-0.607773	-0.497797	0.156770
Cl387	Cl	-0.274439	-0.164463	0.490104
H388	H	-0.157887	-0.305402	-0.346208
H389	H	0.175446	0.027931	-0.012875
H390	H	0.508779	0.361264	0.320459
Cl391	Cl	-1.064355	-0.831168	-0.176581
Cl392	Cl	-0.731021	-0.497835	0.156753
Cl393	Cl	-0.397688	-0.164502	0.490086
Cl394	Cl	-0.438834	-0.679908	-0.327316
Cl395	Cl	-0.105501	-0.346575	0.006017
Cl396	Cl	0.227833	-0.013241	0.339351
Cl397	Cl	-0.176490	-0.066301	-0.327568
Cl398	Cl	0.156844	0.267032	0.005765
Cl399	Cl	0.490177	0.600365	0.339098
H400	H	-0.191274	-0.457490	-0.312697
H401	H	0.142060	-0.124157	0.020636
H402	H	0.475393	0.209177	0.353970
Cl403	Cl	-0.327286	-0.830974	-0.562647
Cl404	Cl	0.006047	-0.497641	-0.229314
Cl405	Cl	0.339381	-0.164307	0.104020
H406	H	-0.312402	-0.816208	-0.953853
H407	H	0.020932	-0.482874	-0.620519
H408	H	0.354265	-0.149541	-0.287186
Cl409	Cl	-0.941192	-0.680086	-0.327376
Cl410	Cl	-0.607859	-0.346752	0.005957
Cl411	Cl	-0.274525	-0.013419	0.339291
H412	H	-0.801157	-0.661405	-0.345978
H413	H	-0.467824	-0.328072	-0.012645
H414	H	-0.134490	0.005262	0.320688
H415	H	-0.702107	-0.661379	-0.345971
H416	H	-0.368774	-0.328045	-0.012638
H417	H	-0.035440	0.005288	0.320695
H418	H	-0.157684	-0.661516	-0.702682
H419	H	0.175649	-0.328183	-0.369348
H420	H	0.508982	0.005151	-0.036015
Cl421	Cl	-0.360683	-0.864399	-0.813817
Cl422	Cl	-0.027350	-0.531066	-0.480484
Cl423	Cl	0.305984	-0.197732	-0.147150
Cl424	Cl	-0.142856	-0.646729	-0.813822
Cl425	Cl	0.190477	-0.313396	-0.480489
Cl426	Cl	0.523810	0.019937	-0.147156
Cl427	Cl	-0.143096	-0.194285	-0.361052
Cl428	Cl	0.190237	0.139048	-0.027719
Cl429	Cl	0.523570	0.472381	0.305614
Cl430	Cl	-0.438759	-0.830942	-0.176508
Cl431	Cl	-0.105426	-0.497608	0.156826
Cl432	Cl	0.227908	-0.164275	0.490159
H433	H	-0.191283	0.044871	-0.312735
H434	H	0.142050	0.378205	0.020598
H435	H	0.475384	0.711538	0.353931
Cl436	Cl	-0.327240	0.057107	-0.176353
Cl437	Cl	0.006093	0.390440	0.156980
Cl438	Cl	0.339426	0.723774	0.490314
Cl439	Cl	-0.360604	-0.194041	-0.142805
Cl440	Cl	-0.027270	0.139293	0.190528
Cl441	Cl	0.306063	0.472626	0.523862
H442	H	-0.549986	-0.694764	-0.312538
H443	H	-0.216653	-0.361431	0.020795
H444	H	0.116681	-0.028098	0.354128
H445	H	-0.345818	-0.305196	-0.157645
H446	H	-0.012485	0.028137	0.175689
H447	H	0.320849	0.361471	0.509022
H448	H	-0.312445	-0.556405	-0.191143
H449	H	0.020888	-0.223072	0.142191
H450	H	0.354221	0.110262	0.475524
Cl451	Cl	-0.360703	-0.864392	-0.690594
Cl452	Cl	-0.027370	-0.531059	-0.357260
Cl453	Cl	0.305964	-0.197725	-0.023927
Cl454	Cl	-0.176250	-0.680167	-0.941743
Cl455	Cl	0.157083	-0.346834	-0.608410
Cl456	Cl	0.490416	-0.013500	-0.275077
Cl457	Cl	-0.327306	-0.830957	-0.439399
Cl458	Cl	0.006027	-0.497623	-0.106065
Cl459	Cl	0.339360	-0.164290	0.227268
H460	H	-0.191151	-0.694929	-0.451499
H461	H	0.142182	-0.361595	-0.118165
H462	H	0.475515	-0.028262	0.215168
H463	H	-0.191139	-0.694928	-0.550548
H464	H	0.142194	-0.361595	-0.217215
H465	H	0.475527	-0.028261	0.116119
