data_functionalizedCrystal
_audit_creation_method	'MofGen! by Chris Wilmer'
_symmetry_space_group_name_H-M	'P1'
_symmetry_Int_Tables_number	1
_symmetry_cell_setting	triclinic
loop_
_symmetry_equiv_pos_as_xyz
  x,y,z
_cell_length_a	31.640172
_cell_length_b	31.640171
_cell_length_c	31.640172
_cell_angle_alpha	59.987848
_cell_angle_beta	89.994287
_cell_angle_gamma	59.984077
loop_
_atom_site_label
_atom_site_type_symbol
_atom_site_fract_x
_atom_site_fract_y
_atom_site_fract_z
Zr1	Zr	0.407057	0.462731	-0.055724
O2	O	0.339542	0.550938	-0.123239
O3	O	0.427770	0.374525	-0.034998
O4	O	0.427745	0.462720	-0.123207
O5	O	0.339568	0.462752	0.034519
O6	O	0.497302	0.462711	-0.123215
O7	O	0.339567	0.462743	-0.035030
O8	O	0.497347	0.304946	0.034575
O9	O	0.339523	0.620516	-0.123272
O10	O	0.488494	0.410799	-0.026199
O11	O	0.436585	0.410812	0.025710
O12	O	0.436555	0.514650	-0.078145
O13	O	0.384646	0.514664	-0.026236
Zr14	Zr	0.517994	0.462731	0.055186
Zr15	Zr	0.517993	0.462717	-0.055736
Zr16	Zr	0.407058	0.462745	0.055198
Zr17	Zr	0.407027	0.573701	-0.055776
Zr18	Zr	0.518024	0.351761	0.055238
O19	O	0.497281	0.550937	0.034460
O20	O	0.497278	0.550917	-0.123256
O21	O	0.339544	0.550958	0.034477
O22	O	0.585509	0.374524	0.122701
O23	O	0.585507	0.374504	-0.035015
O24	O	0.427773	0.374545	0.122718
O25	O	0.585483	0.462710	-0.035057
O26	O	0.497306	0.462742	0.122669
O27	O	0.427749	0.462751	0.122677
O28	O	0.585484	0.462719	0.034491
O29	O	0.427702	0.620505	-0.123281
O30	O	0.497349	0.304957	0.122743
O31	O	0.585528	0.304946	0.122734
O32	O	0.585527	0.304935	0.034566
O33	O	0.339524	0.620528	-0.035104
O34	O	0.427703	0.620516	-0.035114
O35	O	0.488496	0.410812	0.077607
O36	O	0.540405	0.410798	0.025698
O37	O	0.488466	0.514650	-0.026248
O38	O	0.436557	0.514663	0.025661
C39	C	0.462563	0.323925	-0.000204
C40	C	0.462576	0.276815	-0.000182
C41	C	0.435429	-0.059400	0.026831
C42	C	0.435457	0.117553	0.026877
O43	O	0.412434	0.140421	0.049943
N44	N	0.462557	0.139675	-0.000214
C45	C	0.489654	0.117553	-0.027315
O46	O	0.512709	0.140424	-0.050352
C47	C	0.489630	-0.059403	-0.027357
C48	C	0.462524	-0.081518	-0.000269
C49	C	0.408326	-0.081516	0.053918
C50	C	0.408317	-0.125749	0.053904
C51	C	0.435412	-0.147867	0.026803
C52	C	0.462515	-0.125752	-0.000283
C53	C	0.516730	-0.081528	-0.054455
C54	C	0.516722	-0.125770	-0.054462
C55	C	0.489616	-0.147885	-0.027374
C56	C	0.489600	-0.192103	-0.027397
N57	N	0.462500	-0.214225	-0.000307
C58	C	0.435406	-0.192107	0.026794
C59	C	0.489665	0.210458	-0.027292
C60	C	0.489670	0.254698	-0.027282
C61	C	0.435473	0.254694	0.026911
C62	C	0.435465	0.210457	0.026898
C63	C	0.462565	0.188336	-0.000201
C64	C	0.435389	-0.285000	0.026762
C65	C	0.435381	-0.329235	0.026744
C66	C	0.489579	-0.329231	-0.027447
C67	C	0.489586	-0.284997	-0.027431
C68	C	0.462489	-0.262884	-0.000323
O69	O	0.512616	-0.215003	-0.050447
O70	O	0.412364	-0.214995	0.049837
C71	C	0.435438	-0.015167	0.026845
C72	C	0.462542	0.006949	-0.000241
C73	C	0.489636	-0.015169	-0.027342
C74	C	0.462547	0.051188	-0.000231
C75	C	0.435453	0.073306	0.026869
C76	C	0.408353	0.051185	0.053960
C77	C	0.408344	0.006951	0.053946
C78	C	0.516736	0.006952	-0.054432
C79	C	0.516742	0.051186	-0.054417
C80	C	0.489648	0.073304	-0.027316
C81	C	0.323762	0.462749	-0.000254
C82	C	0.276667	0.462756	-0.000249
C83	C	-0.059606	0.462724	0.038055
C84	C	0.117375	0.462741	0.038063
O85	O	0.140268	0.462724	0.070661
N86	N	0.139509	0.462739	-0.000252
C87	C	0.117396	0.462728	-0.038570
O88	O	0.140286	0.462720	-0.071156
C89	C	-0.059582	0.462707	-0.038575
C90	C	-0.081717	0.462715	-0.000261
C91	C	-0.081740	0.462732	0.076366
C92	C	-0.125985	0.462731	0.076362
C93	C	-0.148095	0.462722	0.038047
C94	C	-0.125961	0.462714	-0.000265
C95	C	-0.081692	0.462691	-0.076890
C96	C	-0.125939	0.462685	-0.076887
C97	C	-0.148073	0.462693	-0.038573
C98	C	-0.192316	0.462704	-0.038584
N99	N	-0.214449	0.462707	-0.000269
C100	C	-0.192339	0.462716	0.038046
C101	C	0.210312	0.462740	-0.038565
C102	C	0.254556	0.462747	-0.038564
C103	C	0.254533	0.462759	0.038069
C104	C	0.210286	0.462757	0.038066
C105	C	0.188179	0.462743	-0.000250
C106	C	-0.285256	0.462714	0.038035
C107	C	-0.329505	0.462715	0.038026
C108	C	-0.329476	0.462700	-0.038605
C109	C	-0.285232	0.462702	-0.038599
C110	C	-0.263122	0.462707	-0.000274
O111	O	-0.215232	0.462715	-0.071162
O112	O	-0.215230	0.462710	0.070634
C113	C	-0.015362	0.462725	0.038059
C114	C	0.006772	0.462717	-0.000253
C115	C	-0.015338	0.462708	-0.038568
C116	C	0.051016	0.462724	-0.000252
C117	C	0.073126	0.462733	0.038063
C118	C	0.050993	0.462735	0.076378
C119	C	0.006749	0.462734	0.076374
C120	C	0.006795	0.462706	-0.076883
C121	C	0.051039	0.462707	-0.076876
C122	C	0.073150	0.462716	-0.038561
C123	C	0.601289	0.462713	-0.000284
C124	C	0.648384	0.462706	-0.000290
C125	C	0.462523	0.462714	-0.139015
C126	C	0.462523	0.462708	-0.186104
C127	C	0.462488	0.601537	-0.000334
C128	C	0.462475	0.648647	-0.000357
C129	C	0.435419	0.516946	-0.505254
C130	C	0.435419	0.516957	-0.682250
O131	O	0.412381	0.563060	-0.728197
N132	N	0.462530	0.462748	-0.677265
C133	C	0.489645	0.408532	-0.628026
O134	O	0.512708	0.362424	-0.627847
C135	C	0.489647	0.408522	-0.451032
C136	C	0.462530	0.462735	-0.456021
C137	C	0.408305	0.571154	-0.510242
C138	C	0.408303	0.571151	-0.465995
C139	C	0.435414	0.516940	-0.416762
C140	C	0.462528	0.462732	-0.411774
C141	C	0.516765	0.354307	-0.401794
C142	C	0.516764	0.354310	-0.357545
C143	C	0.489647	0.408522	-0.362534
C144	C	0.489638	0.408517	-0.318294
N145	N	0.462527	0.462726	-0.323280
C146	C	0.435416	0.516938	-0.372513
C147	C	0.489641	0.408541	-0.720952
C148	C	0.489640	0.408543	-0.765201
C149	C	0.435415	0.516968	-0.819422
C150	C	0.435413	0.516965	-0.775172
C151	C	0.462530	0.462750	-0.725938
C152	C	0.435413	0.516927	-0.279590
C153	C	0.435411	0.516919	-0.235338
C154	C	0.489638	0.408495	-0.181120
C155	C	0.489638	0.408502	-0.225369
C156	C	0.462524	0.462723	-0.274606
O157	O	0.512669	0.362438	-0.272332
O158	O	0.412365	0.563039	-0.372681
C159	C	0.435421	0.516949	-0.549501
C160	C	0.462535	0.462741	-0.544514
C161	C	0.489646	0.408530	-0.495280
C162	C	0.462534	0.462743	-0.588762
C163	C	0.435422	0.516955	-0.637996
C164	C	0.408311	0.571164	-0.642981
C165	C	0.408309	0.571161	-0.598735
C166	C	0.516757	0.354321	-0.490295
C167	C	0.516756	0.354328	-0.534544
C168	C	0.489645	0.408540	-0.583777
C169	C	0.462527	0.462749	0.138477
C170	C	0.462528	0.462755	0.185566
C171	C	0.601327	0.323907	-0.000219
C172	C	0.648435	0.276791	-0.000202
C173	C	0.462565	0.323942	0.138542
C174	C	0.462579	0.276839	0.185653
C175	C	0.601329	0.323924	0.138527
C176	C	0.648438	0.276814	0.185633
C177	C	0.323722	0.601538	-0.139065
C178	C	0.276613	0.648648	-0.186171
C179	C	0.323724	0.601556	-0.000319
C180	C	0.276616	0.648671	-0.000336
C181	C	0.462486	0.601520	-0.139080
C182	C	0.462472	0.648623	-0.186192
C183	C	0.643461	0.254665	-0.027289
C184	C	0.687719	0.210401	-0.027283
C185	C	0.736952	0.188260	-0.000188
C186	C	0.741925	0.210391	0.026900
C187	C	0.697667	0.254657	0.026891
C188	C	0.489682	0.254718	0.234872
C189	C	0.489692	0.210466	0.279142
C190	C	0.462603	0.188331	0.274193
C191	C	0.435496	0.210456	0.224969
C192	C	0.435483	0.254711	0.180700
C193	C	0.697661	0.254684	0.180658
C194	C	0.741929	0.210425	0.224915
C195	C	0.736972	0.188295	0.274146
C196	C	0.687743	0.210430	0.279119
C197	C	0.643477	0.254690	0.234863
C198	C	0.227390	0.670784	-0.181197
C199	C	0.183122	0.715056	-0.225453
C200	C	0.188079	0.737189	-0.274684
C201	C	0.237307	0.715051	-0.279658
C202	C	0.281574	0.670783	-0.235401
C203	C	0.281590	0.670802	0.026746
C204	C	0.237332	0.715078	0.026728
C205	C	0.188099	0.737220	-0.000369
C206	C	0.183126	0.715088	-0.027454
C207	C	0.227384	0.670815	-0.027439
C208	C	0.489567	0.670744	-0.181226
C209	C	0.489565	0.714997	-0.225487
C210	C	0.462464	0.737131	-0.274715
C211	C	0.435368	0.715007	-0.279680
C212	C	0.435374	0.670752	-0.235418
H213	H	0.413306	-0.347238	0.048802
Br214	Br	0.553504	-0.023052	-0.091221
H215	H	-0.267258	0.462717	0.069242
H216	H	0.462463	0.773167	-0.310751
H217	H	0.386290	0.069203	0.076024
Br218	Br	0.371533	-0.155759	0.090672
Br219	Br	0.526435	0.334956	-0.654136
Br220	Br	0.553528	0.081199	-0.091187
H221	H	0.413414	0.272716	0.140626
H222	H	0.782009	0.192408	0.220857
H223	H	0.321674	0.652777	0.048815
Br224	Br	0.526432	0.334966	-0.758422
Br225	Br	0.681025	0.180389	0.345937
Br226	Br	0.553567	0.280728	-0.395009
H227	H	0.462618	0.152296	0.310244
Br228	Br	0.526483	0.180448	0.345939
Br229	Br	0.398586	0.745058	-0.346492
Br230	Br	0.180314	0.462723	-0.090570
Br231	Br	-0.051661	0.462679	-0.128890
H232	H	0.701707	0.272696	0.140576
Br233	Br	0.398594	0.640741	-0.242167
Br234	Br	0.526438	0.180452	-0.064081
H235	H	0.241391	0.733091	0.048786
H236	H	0.603399	0.272703	0.238921
Br237	Br	0.797054	0.128226	0.334204
H238	H	-0.011270	0.462741	0.107573
H239	H	0.272570	0.462749	-0.069768
Br240	Br	0.220649	0.640754	-0.114389
H241	H	-0.347526	0.462724	0.069226
H242	H	0.152030	0.773235	-0.310716
Br243	Br	0.398615	-0.254996	0.063551
H244	H	-0.063741	0.462737	0.107570
H245	H	0.386263	-0.063513	0.075989
H246	H	0.511636	0.652728	-0.141146
Br247	Br	0.116319	0.745089	-0.218692
H248	H	0.241337	0.733077	-0.319747
H249	H	0.321653	0.652760	-0.239458
Br250	Br	0.576650	0.284704	-0.064067
Br251	Br	0.371555	-0.023055	0.090710
H252	H	0.152065	0.773270	-0.000377
H253	H	0.143035	0.733123	-0.049516
H254	H	0.223327	0.652798	-0.049491
Br255	Br	0.398734	0.180410	0.218261
H256	H	0.386233	0.615305	-0.683076
Br257	Br	0.526338	0.745016	-0.218737
Br258	Br	0.553574	0.280728	-0.290727
H259	H	0.413393	0.192454	0.048956
H260	H	0.413411	0.272712	0.048976
H261	H	-0.144003	0.462736	0.107562
Br262	Br	0.398602	0.590498	-0.242114
H263	H	0.511736	0.272707	-0.049346
H264	H	0.538802	-0.063528	-0.076512
H265	H	0.272542	0.462767	0.069267
Br266	Br	0.553508	-0.155794	-0.091236
H267	H	0.511652	-0.266984	-0.049495
H268	H	0.511638	-0.347244	-0.049513
H269	H	0.192267	0.462763	0.069265
H270	H	-0.143935	0.462671	-0.108088
H271	H	-0.267214	0.462703	-0.069802
H272	H	-0.347487	0.462695	-0.069803
H273	H	0.069056	0.462705	-0.108081
Br274	Br	0.081006	0.462752	0.128375
Br275	Br	0.398616	0.590513	-0.346404
H276	H	-0.011203	0.462697	-0.108084
H277	H	0.386224	0.615297	-0.470064
H278	H	0.701724	0.272666	0.048951
H279	H	0.386227	0.615302	-0.550327
Br280	Br	0.371501	0.644739	-0.605515
H281	H	0.413332	0.561110	-0.779240
Br282	Br	0.553557	0.280747	-0.527763
H283	H	0.413337	0.561109	-0.859516
H284	H	0.511710	0.364357	-0.141027
Br285	Br	0.680957	0.180375	-0.064046
Br286	Br	0.797012	0.128184	-0.000181
Br287	Br	0.526432	0.334928	-0.218599
Br288	Br	0.808745	0.180335	0.063672
H289	H	0.538836	0.310174	-0.450210
Br290	Br	0.526453	0.284745	0.241603
