data_functionalizedCrystal
_audit_creation_method	'MofGen! by Chris Wilmer'
_symmetry_space_group_name_H-M	'P1'
_symmetry_Int_Tables_number	1
_symmetry_cell_setting	triclinic
loop_
_symmetry_equiv_pos_as_xyz
  x,y,z
_cell_length_a	12.759395
_cell_length_b	29.839131
_cell_length_c	12.759387
_cell_angle_alpha	89.955090
_cell_angle_beta	89.980569
_cell_angle_gamma	90.035074
loop_
_atom_site_label
_atom_site_type_symbol
_atom_site_fract_x
_atom_site_fract_y
_atom_site_fract_z
Zn1	Zn	1.606119	-0.178832	-0.593872
Zn2	Zn	1.605946	-0.253969	-0.418149
Zn3	Zn	1.430417	-0.178854	-0.418212
Zn4	Zn	1.430346	-0.253935	-0.593791
O5	O	1.518207	-0.216397	-0.506006
O6	O	1.753117	-0.188804	-0.570569
O7	O	1.582619	-0.244029	-0.271136
O8	O	1.453826	-0.115984	-0.441574
O9	O	1.752990	-0.244007	-0.441466
O10	O	1.582913	-0.115967	-0.570630
O11	O	1.453659	-0.188842	-0.271182
O12	O	1.283387	-0.188809	-0.441496
O13	O	1.453706	-0.243949	-0.740823
O14	O	1.283335	-0.243970	-0.570493
O15	O	1.582845	-0.188771	-0.740882
O16	O	1.582551	-0.316832	-0.441388
O17	O	1.453538	-0.316807	-0.570432
C18	C	1.245240	-0.216388	-0.505993
C19	C	1.128463	-0.216395	-0.506012
C20	C	1.128575	-0.159005	-0.640664
C21	C	1.073771	-0.130315	-0.707999
C22	C	0.964049	-0.130323	-0.708012
C23	C	0.909130	-0.159023	-0.640681
C24	C	0.963934	-0.187713	-0.573347
C25	C	1.073658	-0.187703	-0.573343
C26	C	0.963822	-0.245100	-0.438691
C27	C	1.073543	-0.245095	-0.438682
C28	C	0.908902	-0.273800	-0.371360
C29	C	0.963707	-0.302493	-0.304030
C30	C	1.073435	-0.302484	-0.304020
C31	C	1.128348	-0.273785	-0.371347
C32	C	1.518047	-0.333120	-0.505917
C33	C	1.518074	-0.383054	-0.505915
C34	C	1.585408	-0.692654	-0.573302
C35	C	1.585522	-0.880327	-0.573365
O36	O	1.642615	-0.904555	-0.630594
N37	N	1.518386	-0.903839	-0.506123
C38	C	1.451211	-0.880430	-0.438865
O39	O	1.394102	-0.904735	-0.381680
C40	C	1.451092	-0.692758	-0.438808
C41	C	1.518241	-0.669249	-0.506047
C42	C	1.652551	-0.669145	-0.640536
C43	C	1.652526	-0.622229	-0.640515
C44	C	1.585358	-0.598823	-0.573261
C45	C	1.518216	-0.622333	-0.506026
C46	C	1.383913	-0.669350	-0.371556
C47	C	1.383887	-0.622429	-0.371550
C48	C	1.451036	-0.598919	-0.438789
C49	C	1.451023	-0.552012	-0.438751
N50	N	1.518160	-0.528500	-0.505993
C51	C	1.585327	-0.551906	-0.573248
C52	C	1.451279	-0.978961	-0.438898
C53	C	1.451310	-1.025879	-0.438911
C54	C	1.585620	-1.025773	-0.573412
C55	C	1.585594	-0.978854	-0.573393
C56	C	1.518416	-0.955449	-0.506140
C57	C	1.585270	-0.453380	-0.573199
C58	C	1.585242	-0.406460	-0.573169
C59	C	1.450928	-0.406571	-0.438672
C60	C	1.450959	-0.453486	-0.438698
C61	C	1.518134	-0.476889	-0.505969
O62	O	1.393952	-0.527755	-0.381560
O63	O	1.642411	-0.527593	-0.630440
C64	C	1.585433	-0.739570	-0.573322
C65	C	1.518291	-0.763079	-0.506088
C66	C	1.451124	-0.739674	-0.438833
C67	C	1.518322	-0.809997	-0.506100
C68	C	1.585489	-0.833403	-0.573355
C69	C	1.652626	-0.809891	-0.640597
C70	C	1.652601	-0.762976	-0.640577
C71	C	1.383987	-0.763186	-0.371591
C72	C	1.384018	-0.810101	-0.371616
C73	C	1.451186	-0.833507	-0.438871
C74	C	1.792240	-0.216407	-0.506020
C75	C	1.909017	-0.216411	-0.506025
C76	C	1.518287	-0.216353	-0.780040
C77	C	1.518320	-0.216335	-0.896816
C78	C	1.518397	-0.099219	-0.506118
C79	C	1.518477	-0.049285	-0.506166
C80	C	1.652802	-0.158881	-0.896898
C81	C	1.720058	-0.130148	-0.951799
C82	C	1.720083	-0.130132	-1.061521
C83	C	1.652844	-0.158851	-1.116344
C84	C	1.585588	-0.187584	-1.061442
C85	C	1.585572	-0.187598	-0.951718
C86	C	1.451103	-0.245034	-1.061361
C87	C	1.451081	-0.245054	-0.951639
C88	C	1.383863	-0.273754	-1.116184
C89	C	1.316611	-0.302490	-1.061282
C90	C	1.316590	-0.302505	-0.951554
C91	C	1.383825	-0.273787	-0.896738
C92	C	1.518189	-0.216409	-0.233039
C93	C	1.518358	-0.216301	-0.116262
H94	H	0.918983	-0.325856	-0.249210
H95	H	1.652798	-0.158896	-0.807557
O96	O	1.725008	-0.694382	-0.713082
H97	H	1.677983	-0.715752	-0.766517
O98	O	1.132542	-0.333426	-0.231385
H99	H	1.182535	-0.356304	-0.278285
H100	H	1.396573	-0.959908	-0.384130
H101	H	1.217689	-0.273773	-0.371341
H102	H	1.639926	-0.387320	-0.627923
O103	O	1.657728	-0.478614	-0.645756
H104	H	1.610697	-0.499982	-0.699192
H105	H	0.819561	-0.273803	-0.371373
H106	H	1.329339	-0.829239	-0.316852
O107	O	1.724947	-0.596878	-0.713048
H108	H	1.713660	-0.560320	-0.701744
O109	O	1.133006	-0.099359	-0.780612
H110	H	1.111969	-0.107108	-0.863034
O111	O	0.904928	-0.099381	-0.780635
H112	H	0.961544	-0.079425	-0.827456
H113	H	0.819789	-0.159024	-0.640689
H114	H	1.652862	-0.158831	-1.205685
H115	H	1.383885	-0.273736	-1.205525
H116	H	1.329289	-0.744132	-0.316825
H117	H	1.261865	-0.325868	-1.105927
O118	O	1.658021	-0.953497	-0.645910
H119	H	1.704728	-0.977660	-0.692674
H120	H	1.640312	-1.044838	-0.628173
O121	O	1.378893	-1.051234	-0.366383
H122	H	1.332178	-1.027072	-0.319627
O123	O	1.311428	-0.597188	-0.299005
H124	H	1.322679	-0.560612	-0.310287
O125	O	1.383797	-0.273809	-0.778395
H126	H	1.362614	-0.239928	-0.749493
O127	O	1.244028	-0.333488	-0.892338
H128	H	1.197279	-0.353452	-0.948897
O129	O	1.792587	-0.099178	-0.892666
H130	H	1.745602	-0.076327	-0.842684
H131	H	1.329233	-0.688483	-0.316803
O132	O	1.246918	-0.158997	-0.640647
H133	H	1.275900	-0.134220	-0.698770
H134	H	1.396290	-0.472629	-0.383938
H135	H	1.707279	-0.743837	-0.695329
O136	O	1.378481	-0.381322	-0.366137
H137	H	1.389742	-0.344748	-0.377435
H138	H	1.707320	-0.828956	-0.695355
O139	O	1.792623	-0.099143	-1.120747
H140	H	1.839379	-0.079178	-1.064198
