data_functionalizedCrystal
_audit_creation_method	'MofGen! by Chris Wilmer'
_symmetry_space_group_name_H-M	'P1'
_symmetry_Int_Tables_number	1
_symmetry_cell_setting	triclinic
loop_
_symmetry_equiv_pos_as_xyz
  x,y,z
_cell_length_a	10.723023
_cell_length_b	10.654559
_cell_length_c	9.798715
_cell_angle_alpha	89.999452
_cell_angle_beta	89.996770
_cell_angle_gamma	84.478116
loop_
_atom_site_label
_atom_site_type_symbol
_atom_site_fract_x
_atom_site_fract_y
_atom_site_fract_z
O1	O	1.657220	0.176141	-0.113469
O2	O	1.294070	0.193003	-0.113474
O3	O	1.483989	0.001832	-0.113471
O4	O	1.467302	0.367312	-0.113471
O5	O	1.483974	0.001832	0.113511
O6	O	1.294056	0.193003	0.113509
O7	O	1.657206	0.176141	0.113514
Zn8	Zn	1.475629	0.184572	0.149549
Zn9	Zn	1.475647	0.184572	-0.149509
O10	O	1.467287	0.367311	0.113511
C11	C	1.247563	0.191776	0.000017
C12	C	1.109008	0.188105	0.000015
C13	C	1.047229	0.186469	0.117597
C14	C	0.904025	0.182675	0.117598
C15	C	1.482754	-0.044965	0.000017
C16	C	1.479081	-0.184408	0.000009
C17	C	1.363808	-0.235930	0.000004
C18	C	1.360364	-0.366951	0.000014
C19	C	1.587477	-0.394918	0.000029
C20	C	1.590919	-0.263899	0.000028
C21	C	1.251969	-0.156438	-0.000016
C22	C	1.136687	-0.207959	-0.000022
C23	C	1.133243	-0.338981	-0.000012
C24	C	1.245082	-0.418482	0.000005
C25	C	1.703713	0.177368	0.000020
C26	C	1.842268	0.181039	0.000014
C27	C	1.468522	0.414109	0.000020
C28	C	1.472195	0.553551	0.000019
N29	N	1.475625	0.184570	0.353649
N30	N	1.475661	0.184564	-0.353609
C31	C	1.555366	0.103949	0.421427
C32	C	1.555386	0.103945	0.578590
H33	H	0.850895	0.181274	0.218264
H34	H	1.039375	-0.380925	-0.000003
H35	H	1.407392	0.253595	0.588114
Br36	Br	1.361845	0.299604	0.450847
H37	H	1.254760	-0.049752	-0.000027
H38	H	0.895388	0.182454	-0.100658
H39	H	1.100356	0.187869	0.218263
Br40	Br	1.020477	0.185745	-0.167780
Br41	Br	1.668817	-0.011412	0.324230
Br42	Br	0.984914	-0.100072	-0.000022
Br43	Br	1.739248	-0.502810	0.000051
Br44	Br	1.240406	-0.596298	0.000042
Br45	Br	1.747364	-0.193968	0.000069
Br46	Br	1.669191	-0.011094	0.675730
