data_functionalizedCrystal
_audit_creation_method	'MofGen! by Chris Wilmer'
_symmetry_space_group_name_H-M	'P1'
_symmetry_Int_Tables_number	1
_symmetry_cell_setting	triclinic
loop_
_symmetry_equiv_pos_as_xyz
  x,y,z
_cell_length_a	25.639242
_cell_length_b	25.639240
_cell_length_c	18.215399
_cell_angle_alpha	89.972573
_cell_angle_beta	89.974553
_cell_angle_gamma	90.027587
loop_
_atom_site_label
_atom_site_type_symbol
_atom_site_fract_x
_atom_site_fract_y
_atom_site_fract_z
Zn1	Zn	0.799266	-0.208206	-0.416300
Zn2	Zn	1.299266	0.291794	0.083700
Zn3	Zn	0.799195	-0.295646	-0.293240
Zn4	Zn	1.299195	0.204354	0.206760
Zn5	Zn	0.711837	-0.208219	-0.293229
Zn6	Zn	1.211837	0.291781	0.206771
Zn7	Zn	0.711798	-0.295605	-0.416247
Zn8	Zn	1.211798	0.204395	0.083753
O9	O	0.755524	-0.251919	-0.354754
O10	O	1.255524	0.248081	0.145246
O11	O	0.872422	-0.219816	-0.400003
O12	O	1.372422	0.280184	0.099997
O13	O	0.787593	-0.284071	-0.190254
O14	O	1.287593	0.215929	0.309746
O15	O	0.723482	-0.135052	-0.309572
O16	O	1.223482	0.364948	0.190428
O17	O	0.872369	-0.284058	-0.309591
O18	O	1.372369	0.215942	0.190409
O19	O	0.787715	-0.135043	-0.399992
O20	O	1.287715	0.364957	0.100008
O21	O	0.723412	-0.219839	-0.190246
O22	O	1.223412	0.280161	0.309754
O23	O	0.638667	-0.219800	-0.309520
O24	O	1.138667	0.280200	0.190480
O25	O	0.723414	-0.283989	-0.519238
O26	O	1.223414	0.216011	-0.019238
O27	O	0.638638	-0.284002	-0.399901
O28	O	1.138638	0.215998	0.100099
O29	O	0.787676	-0.219777	-0.519277
O30	O	1.287676	0.280223	-0.019277
O31	O	0.787555	-0.368806	-0.309539
O32	O	1.287555	0.131194	0.190461
O33	O	0.723345	-0.368776	-0.399912
O34	O	1.223345	0.131224	0.100088
C35	C	0.755452	-0.387762	-0.354737
C36	C	1.255452	0.112238	0.145263
C37	C	0.755469	-0.445876	-0.354754
C38	C	1.255469	0.054124	0.145246
C39	C	0.619681	-0.251899	-0.354704
C40	C	1.119681	0.248101	0.145296
C41	C	0.561567	-0.251902	-0.354700
C42	C	1.061567	0.248098	0.145300
C43	C	0.788967	-0.697013	-0.401884
C44	C	1.288967	-0.197013	0.098116
C45	C	0.788952	-0.642408	-0.401878
C46	C	1.288952	-0.142408	0.098122
O47	O	0.817373	-0.614124	-0.441925
O48	O	1.317373	-0.114124	0.058075
N49	N	0.755526	-0.615150	-0.354764
N50	N	1.255526	-0.115150	0.145236
C51	C	0.722117	-0.642498	-0.307646
C52	C	1.222117	-0.142498	0.192354
O53	O	0.693685	-0.614298	-0.267571
O54	O	1.193685	-0.114298	0.232429
C55	C	0.722136	-0.697101	-0.307649
C56	C	1.222136	-0.197101	0.192351
C57	C	0.755560	-0.724357	-0.354772
C58	C	1.255560	-0.224357	0.145228
C59	C	0.822389	-0.724269	-0.449002
C60	C	1.322389	-0.224269	0.050998
C61	C	0.822404	-0.778869	-0.449008
C62	C	1.322404	-0.278869	0.050992
C63	C	0.788997	-0.806214	-0.401896
C64	C	1.288997	-0.306214	0.098104
C65	C	0.755575	-0.778958	-0.354778
C66	C	1.255575	-0.278958	0.145222
C67	C	0.688731	-0.724448	-0.260528
C68	C	1.188731	-0.224448	0.239472
C69	C	0.688753	-0.779055	-0.260534
C70	C	1.188753	-0.279055	0.239466
C71	C	0.722177	-0.806311	-0.307657
C72	C	1.222177	-0.306311	0.192343
C73	C	0.722183	-0.860903	-0.307672
C74	C	1.222183	-0.360903	0.192328
N75	N	0.755609	-0.888162	-0.354787
N76	N	1.255609	-0.388162	0.145213
C77	C	0.789016	-0.860817	-0.401899
C78	C	1.289016	-0.360817	0.098101
C79	C	0.722081	-0.527827	-0.307644
C80	C	1.222081	-0.027827	0.192356
C81	C	0.722059	-0.473225	-0.307645
C82	C	1.222059	0.026775	0.192355
C83	C	0.788895	-0.473139	-0.401876
C84	C	1.288895	0.026861	0.098124
C85	C	0.788913	-0.527743	-0.401878
C86	C	1.288913	-0.027743	0.098122
C87	C	0.755507	-0.555086	-0.354758
C88	C	1.255507	-0.055086	0.145242
C89	C	0.789044	-0.975482	-0.401909
C90	C	1.289044	-0.475482	0.098091
C91	C	0.789055	-1.030088	-0.401913
C92	C	1.289055	-0.530088	0.098087
C93	C	0.722222	-1.030168	-0.307680
C94	C	1.222222	-0.530168	0.192320
C95	C	0.722209	-0.975568	-0.307678
C96	C	1.222209	-0.475568	0.192322
C97	C	0.755625	-0.948226	-0.354795
C98	C	1.255625	-0.448226	0.145205
O99	O	0.693778	-0.889222	-0.267644
O100	O	1.193778	-0.389222	0.232356
O101	O	0.817448	-0.889024	-0.441961
O102	O	1.317448	-0.389024	0.058039
C103	C	0.201198	-0.285405	-0.401770
C104	C	0.701198	0.214595	0.098230
C105	C	0.146594	-0.285408	-0.401782
C106	C	0.646594	0.214592	0.098218
O107	O	0.118352	-0.313868	-0.441761
O108	O	0.618352	0.186132	0.058239
N109	N	0.119285	-0.251934	-0.354802
N110	N	0.619285	0.248066	0.145198
C111	C	0.146583	-0.218450	-0.307812
C112	C	0.646583	0.281550	0.192188
O113	O	0.118341	-0.189977	-0.267854
O114	O	0.618341	0.310023	0.232146
C115	C	0.201187	-0.218444	-0.307805
C116	C	0.701187	0.281556	0.192195
C117	C	0.228493	-0.251925	-0.354783
C118	C	0.728493	0.248075	0.145217
C119	C	0.228504	-0.318883	-0.448745
C120	C	0.728504	0.181117	0.051255
C121	C	0.283105	-0.318880	-0.448732
C122	C	0.783105	0.181120	0.051268
C123	C	0.310399	-0.285400	-0.401745
C124	C	0.810399	0.214600	0.098255
C125	C	0.283093	-0.251922	-0.354770
C126	C	0.783093	0.248078	0.145230
C127	C	0.228484	-0.184958	-0.260820
C128	C	0.728484	0.315042	0.239180
C129	C	0.283091	-0.184955	-0.260817
C130	C	0.783091	0.315045	0.239183
C131	C	0.310397	-0.218436	-0.307795
C132	C	0.810397	0.281564	0.192205
C133	C	0.364988	-0.218439	-0.307770
C134	C	0.864988	0.281561	0.192230
N135	N	0.392297	-0.251914	-0.354750
N136	N	0.892297	0.248086	0.145250
C137	C	0.365002	-0.285394	-0.401738
C138	C	0.865002	0.214606	0.098262
C139	C	0.031913	-0.218463	-0.307832
C140	C	0.531913	0.281537	0.192168
C141	C	-0.022690	-0.218471	-0.307835
C142	C	0.477310	0.281529	0.192165
C143	C	-0.022676	-0.285429	-0.401806
C144	C	0.477324	0.214571	0.098194
C145	C	0.031928	-0.285423	-0.401799
C146	C	0.531928	0.214577	0.098201
C147	C	0.059221	-0.251938	-0.354812
C148	C	0.559221	0.248062	0.145188
C149	C	0.479667	-0.285387	-0.401707
C150	C	0.979667	0.214613	0.098293
C151	C	0.534273	-0.285383	-0.401688
C152	C	1.034273	0.214617	0.098312
C153	C	0.534254	-0.218423	-0.307720
C154	C	1.034254	0.281577	0.192280
C155	C	0.479653	-0.218428	-0.307736
C156	C	0.979653	0.281572	0.192264
C157	C	0.452361	-0.251912	-0.354735
C158	C	0.952361	0.248088	0.145265
O159	O	0.393265	-0.189993	-0.267814
O160	O	0.893265	0.310007	0.232186
O161	O	0.393251	-0.313858	-0.441696
O162	O	0.893251	0.186142	0.058304
C163	C	0.891897	-0.251940	-0.354804
C164	C	1.391897	0.248060	0.145196
C165	C	0.950011	-0.251949	-0.354826
C166	C	1.450011	0.248051	0.145174
C167	C	0.755549	-0.251877	-0.546707
C168	C	1.255549	0.248123	-0.046707
C169	C	0.755559	-0.251860	-0.628506
C170	C	1.255559	0.248140	-0.128506
C171	C	0.755611	-0.115546	-0.354787
C172	C	1.255611	0.384454	0.145213
C173	C	0.755648	-0.057432	-0.354801
C174	C	1.255648	0.442568	0.145199
C175	C	0.722168	-0.218391	-0.816697
C176	C	1.222168	0.281609	-0.316697
C177	C	0.722177	-0.218381	-0.893555
C178	C	1.222177	0.281619	-0.393555
C179	C	0.789013	-0.285265	-0.893553
C180	C	1.289013	0.214735	-0.393553
C181	C	0.789000	-0.285278	-0.816696
C182	C	1.289000	0.214722	-0.316696
C183	C	0.755579	-0.251838	-0.778269
C184	C	1.255579	0.248162	-0.278269
C185	C	0.755600	-0.251815	-0.931986
C186	C	1.255600	0.248185	-0.431986
C187	C	0.755610	-0.251804	-1.015319
C188	C	1.255610	0.248196	-0.515319
C189	C	0.755568	-0.251850	-0.694930
C190	C	1.255568	0.248150	-0.194930
C191	C	0.755529	-0.251923	-0.163548
C192	C	1.255529	0.248077	0.336452
C193	C	0.755620	-0.251794	-0.081749
C194	C	1.255620	0.248206	0.418251
H195	H	0.816255	-0.953227	-0.440275
H196	H	1.316255	-0.453227	0.059725
H197	H	0.695021	-1.052442	-0.269324
H198	H	1.195021	-0.552442	0.230676
C199	C	0.825385	-0.321535	-0.935182
C200	C	1.325385	0.178465	-0.435182
C201	C	0.877119	-0.310168	-0.916491
C202	C	1.377119	0.189832	-0.416491
C203	C	0.910641	-0.343573	-0.954816
C204	C	1.410641	0.156427	-0.454816
H205	H	0.820680	-0.316770	-0.986471
H206	H	1.320680	0.183230	-0.486471
H207	H	0.817742	-0.356675	-0.922558
H208	H	1.317742	0.143325	-0.422558
H209	H	0.884760	-0.275037	-0.929120
H210	H	1.384760	0.224963	-0.429120
H211	H	0.881841	-0.314937	-0.865209
H212	H	1.381841	0.185063	-0.365209
H213	H	0.902998	-0.378713	-0.942192
H214	H	1.402998	0.121287	-0.442192
H215	H	0.905931	-0.338805	-1.006103
H216	H	1.405931	0.161195	-0.506103
H217	H	0.945746	-0.335869	-0.942135
H218	H	1.445746	0.164131	-0.442135
H219	H	0.305311	-0.157683	-0.222558
H220	H	0.805311	0.342317	0.277442
H221	H	0.816128	-0.549931	-0.440253
H222	H	1.316128	-0.049931	0.059747
H223	H	0.816209	-0.312516	-0.785408
H224	H	1.316209	0.187484	-0.285408
H225	H	0.206287	-0.346146	-0.487012
H226	H	0.706287	0.153854	0.012988
C227	C	0.825085	-0.443378	-0.453066
C228	C	1.325085	0.056622	0.046934
C229	C	0.795451	-0.412024	-0.500174
C230	C	1.295451	0.087976	-0.000174
C231	C	0.828769	-0.384595	-0.547331
C232	C	1.328769	0.115405	-0.047331
H233	H	0.845009	-0.467369	-0.481200
H234	H	1.345009	0.032631	0.018800
H235	H	0.847861	-0.422040	-0.424961
H236	H	1.347861	0.077960	0.075039
H237	H	0.772684	-0.433360	-0.528276
H238	H	1.272684	0.066640	-0.028276
H239	H	0.775529	-0.388024	-0.472060
H240	H	1.275529	0.111976	0.027940
H241	H	0.851545	-0.363257	-0.519226
H242	H	1.351545	0.136743	-0.019226
H243	H	0.848691	-0.408589	-0.575460
H244	H	1.348691	0.091411	-0.075460
H245	H	0.808668	-0.363314	-0.579294
H246	H	1.308668	0.136686	-0.079294
C247	C	0.825403	-1.059585	-0.453106
C248	C	1.325403	-0.559585	0.046894
C249	C	0.854665	-1.023946	-0.494347
C250	C	1.354665	-0.523946	0.005653
C251	C	0.888158	-1.051098	-0.541504
C252	C	1.388158	-0.551098	-0.041504
H253	H	0.805453	-1.080889	-0.485210
H254	H	1.305453	-0.580889	0.014790
H255	H	0.848232	-1.080869	-0.425010
H256	H	1.348232	-0.580869	0.074990
H257	H	0.831840	-1.002671	-0.522441
H258	H	1.331840	-0.502671	-0.022441
H259	H	0.874626	-1.002641	-0.462262
H260	H	1.374626	-0.502641	0.037738
H261	H	0.910987	-1.072381	-0.513408
H262	H	1.410987	-0.572381	-0.013408
H263	H	0.868204	-1.072401	-0.573603
H264	H	1.368204	-0.572401	-0.073603
H265	H	0.908020	-1.026921	-0.569487
H266	H	1.408020	-0.526921	-0.069487
H267	H	0.694971	-0.191146	-0.924839
H268	H	1.194971	0.308854	-0.424839
H269	H	0.849625	-0.801057	-0.487375
H270	H	1.349625	-0.301057	0.012625
C271	C	0.685936	-0.182111	-0.774843
C272	C	1.185936	0.317889	-0.274843
C273	C	0.693085	-0.189269	-0.699309
C274	C	1.193085	0.310731	-0.199309
C275	C	0.659720	-0.155852	-0.660733
C276	C	1.159720	0.344148	-0.160733
H277	H	0.650783	-0.189725	-0.787337
H278	H	1.150783	0.310275	-0.287337
H279	H	0.693615	-0.146968	-0.787412
H280	H	1.193615	0.353032	-0.287412
H281	H	0.685402	-0.224403	-0.686745
H282	H	1.185402	0.275597	-0.186745
H283	H	0.728231	-0.181651	-0.686793
H284	H	1.228231	0.318349	-0.186793
H285	H	0.667398	-0.120710	-0.673302
H286	H	1.167398	0.379290	-0.173302
H287	H	0.624569	-0.163469	-0.673233
H288	H	1.124569	0.336531	-0.173233
H289	H	0.664569	-0.160701	-0.609480
H290	H	1.164569	0.339299	-0.109480
H291	H	0.849596	-0.702010	-0.487366
H292	H	1.349596	-0.202010	0.012634
H293	H	0.457453	-0.312651	-0.439980
H294	H	0.957453	0.187349	0.060020
C295	C	0.652426	-0.694960	-0.209276
C296	C	1.152426	-0.194960	0.290724
C297	C	0.623192	-0.730605	-0.168006
C298	C	1.123192	-0.230605	0.331994
C299	C	0.589748	-0.703460	-0.120772
C300	C	1.089748	-0.203460	0.379228
H301	H	0.629573	-0.673662	-0.237296
H302	H	1.129573	-0.173662	0.262704
H303	H	0.672426	-0.673670	-0.177199
H304	H	1.172426	-0.173670	0.322801
H305	H	0.603193	-0.751885	-0.200079
H306	H	1.103193	-0.251885	0.299921
H307	H	0.646031	-0.751904	-0.139971
H308	H	1.146031	-0.251904	0.360029
H309	H	0.609748	-0.682171	-0.088695
H310	H	1.109748	-0.182171	0.411305
H311	H	0.566899	-0.682163	-0.148797
H312	H	1.066899	-0.182163	0.351203
H313	H	0.569912	-0.727641	-0.092760
H314	H	1.069912	-0.227641	0.407240
H315	H	0.694873	-0.550087	-0.269275
H316	H	1.194873	-0.050087	0.230725
H317	H	0.305332	-0.346142	-0.486988
H318	H	0.805332	0.153858	0.013012
C319	C	0.685745	-0.443730	-0.256408
C320	C	1.185745	0.056270	0.243592
C321	C	0.656504	-0.479372	-0.215142
C322	C	1.156504	0.020628	0.284858
C323	C	0.623052	-0.452223	-0.167924
C324	C	1.123052	0.047777	0.332076
H325	H	0.662898	-0.422434	-0.284439
H326	H	1.162898	0.077566	0.215561
H327	H	0.705740	-0.422439	-0.224328
H328	H	1.205740	0.077561	0.275672
H329	H	0.636510	-0.500654	-0.247219
H330	H	1.136510	-0.000654	0.252781
H331	H	0.679337	-0.500669	-0.187097
H332	H	1.179337	-0.000669	0.312903
H333	H	0.643047	-0.430931	-0.135844
H334	H	1.143047	0.069069	0.364156
H335	H	0.600208	-0.430927	-0.195961
H336	H	1.100208	0.069073	0.304039
H337	H	0.603211	-0.476401	-0.139915
H338	H	1.103211	0.023599	0.360085
H339	H	0.661549	-0.801316	-0.222162
H340	H	1.161549	-0.301316	0.277838
H341	H	0.054132	-0.191195	-0.269565
H342	H	0.554132	0.308805	0.230435
H343	H	0.694987	-0.953376	-0.269314
H344	H	1.194987	-0.453376	0.230686
H345	H	0.556503	-0.312648	-0.439943
H346	H	1.056503	0.187352	0.060057
C347	C	0.563800	-0.182057	-0.256623
C348	C	1.063800	0.317943	0.243377
C349	C	0.528204	-0.152745	-0.215466
C350	C	1.028204	0.347255	0.284534
C351	C	0.555404	-0.119243	-0.168383
C352	C	1.055404	0.380757	0.331617
H353	H	0.585126	-0.159255	-0.284746
H354	H	1.085126	0.340745	0.215254
H355	H	0.585067	-0.202019	-0.224468
H356	H	1.085067	0.297981	0.275532
H357	H	0.506946	-0.132785	-0.247617
H358	H	1.006946	0.367215	0.252383
H359	H	0.506878	-0.175533	-0.187328
H360	H	1.006878	0.324467	0.312672
H361	H	0.576671	-0.139205	-0.136227
H362	H	1.076671	0.360795	0.363773
H363	H	0.576729	-0.096445	-0.196511
H364	H	1.076729	0.403555	0.303489
H365	H	0.531257	-0.099355	-0.140448
H366	H	1.031257	0.400645	0.359552
H367	H	0.054157	-0.312686	-0.440054
H368	H	0.554157	0.187314	0.059946
H369	H	-0.044909	-0.312689	-0.440068
H370	H	0.455091	0.187311	0.059932
H371	H	-0.044918	-0.191212	-0.269574
H372	H	0.455082	0.308788	0.230426
H373	H	0.206261	-0.157696	-0.222563
H374	H	0.706261	0.342304	0.277437
C375	C	0.449970	-0.182163	-0.256652
C376	C	0.949970	0.317837	0.243348
C377	C	0.418588	-0.211716	-0.209405
C378	C	0.918588	0.288284	0.290595
C379	C	0.391243	-0.178319	-0.162342
C380	C	0.891243	0.321681	0.337658
H381	H	0.428655	-0.159401	-0.284795
H382	H	0.928655	0.340599	0.215205
H383	H	0.474027	-0.162228	-0.228621
H384	H	0.974027	0.337772	0.271379
H385	H	0.394534	-0.231642	-0.237433
H386	H	0.894534	0.268358	0.262567
H387	H	0.439890	-0.234476	-0.181246
H388	H	0.939890	0.265524	0.318754
H389	H	0.415300	-0.158385	-0.134311
H390	H	0.915300	0.341615	0.365689
H391	H	0.369932	-0.155560	-0.190491
H392	H	0.869932	0.344440	0.309509
H393	H	0.369951	-0.198366	-0.130275
H394	H	0.869951	0.301634	0.369725
