data_functionalizedCrystal
_audit_creation_method	'MofGen! by Chris Wilmer'
_symmetry_space_group_name_H-M	'P1'
_symmetry_Int_Tables_number	1
_symmetry_cell_setting	triclinic
loop_
_symmetry_equiv_pos_as_xyz
  x,y,z
_cell_length_a	15.625691
_cell_length_b	15.625110
_cell_length_c	16.053802
_cell_angle_alpha	105.475393
_cell_angle_beta	69.377132
_cell_angle_gamma	101.328936
loop_
_atom_site_label
_atom_site_type_symbol
_atom_site_fract_x
_atom_site_fract_y
_atom_site_fract_z
O1	O	-0.135643	1.178385	0.328453
O2	O	-0.145553	0.920044	0.253224
O3	O	-0.007326	1.058280	0.253245
O4	O	-0.273869	1.040149	0.328432
O5	O	-0.014903	1.050672	0.392094
O6	O	-0.153129	0.912435	0.392073
O7	O	-0.143220	1.170777	0.467301
Zn8	Zn	-0.149377	1.040398	0.451732
Zn9	Zn	-0.139395	1.050422	0.268794
O10	O	-0.281446	1.032540	0.467280
C11	C	-0.148139	0.883218	0.312286
C12	C	-0.144548	0.784825	0.281404
C13	C	-0.135358	0.650290	0.162197
C14	C	-0.138733	0.742745	0.191224
C15	C	-0.146996	0.734458	0.342594
C16	C	-0.143627	0.642000	0.313582
C17	C	-0.137807	0.599924	0.223382
C18	C	-0.146076	0.591634	0.374766
C19	C	-0.142702	0.499184	0.345754
C20	C	-0.136880	0.457101	0.255557
C21	C	-0.134433	0.507474	0.194370
C22	C	-0.151890	0.633713	0.464964
C23	C	-0.154338	0.583347	0.526148
C24	C	-0.150971	0.490895	0.497138
C25	C	-0.145148	0.448812	0.406942
C26	C	-0.153417	0.440522	0.558326
C27	C	-0.150044	0.348073	0.529314
C28	C	-0.141775	0.356362	0.377930
C29	C	-0.311809	1.036413	0.408214
C30	C	-0.413570	1.036629	0.439080
C31	C	-0.727662	1.058049	0.162228
C32	C	-0.823285	1.058240	0.191261
C33	C	-0.831509	1.049945	0.342617
C34	C	-0.735886	1.049749	0.313595
C35	C	-0.683970	1.053802	0.223400
C36	C	-0.692193	1.045503	0.374768
C37	C	-0.596578	1.045312	0.345749
C38	C	-0.544655	1.049367	0.255559
C39	C	-0.588354	1.053611	0.194382
C40	C	-0.744111	1.041456	0.464964
C41	C	-0.700418	1.037210	0.526137
C42	C	-0.604801	1.037012	0.497117
C43	C	-0.552878	1.041067	0.406926
C44	C	-0.561102	1.032768	0.558294
C45	C	-0.465486	1.032577	0.529275
C46	C	-0.457263	1.040876	0.377908
C47	C	0.023037	1.054407	0.312310
C48	C	0.124798	1.054191	0.281438
C49	C	-0.140633	1.207602	0.408238
C50	C	-0.144224	1.305996	0.439114
N51	N	-0.156189	1.033563	0.576585
N52	N	-0.132576	1.057265	0.143941
C53	C	-0.097396	1.092404	0.620300
C54	C	-0.102170	1.087631	0.707707
C55	C	-0.165743	1.024021	0.751399
C56	C	-0.224539	0.965174	0.707676
C57	C	-0.219760	0.969943	0.620268
C58	C	-0.186593	1.003187	1.012811
C59	C	-0.191369	0.998424	1.100225
C60	C	-0.068998	1.120880	1.100250
C61	C	-0.064229	1.125648	1.012843
C62	C	-0.123022	1.066798	0.969125
N63	N	-0.170626	1.019142	0.840743
N64	N	-0.118133	1.071673	0.879780
H65	H	-0.129705	0.473211	0.120923
H66	H	-0.154637	0.708992	0.488583
O67	O	-0.152530	0.775454	0.430157
C68	C	-0.075585	0.839900	0.430926
H69	H	-0.046113	0.861093	0.362704
H70	H	-0.020917	0.810092	0.442715
C71	C	-0.141390	0.895908	0.591789
C72	C	-0.105197	0.921943	0.508000
H73	H	-0.159654	0.946514	0.639334
H74	H	-0.193228	0.852487	0.591272
H75	H	-0.095827	0.871066	0.601600
H76	H	-0.150763	0.946773	0.498185
H77	H	-0.053366	0.965370	0.508517
H78	H	-0.152055	0.307061	0.579141
H79	H	-0.045632	1.144205	0.584734
O80	O	-0.253001	0.936587	1.142714
C81	C	-0.205653	0.879877	1.161775
H82	H	-0.135323	0.915564	1.164378
H83	H	-0.196357	0.816284	1.106042
C84	C	-0.347877	0.811796	1.251167
C85	C	-0.261499	0.855631	1.254373
H86	H	-0.382326	0.796836	1.308284
H87	H	-0.379777	0.850000	1.238323
H88	H	-0.340118	0.758807	1.204720
H89	H	-0.269259	0.908625	1.300812
H90	H	-0.229601	0.817435	1.267227
H91	H	-0.159074	0.617619	0.599589
H92	H	-0.685390	1.061334	0.088778
O93	O	-0.158944	0.481520	0.645886
C94	C	-0.081992	0.545962	0.646643
H95	H	-0.052527	0.567150	0.578419
H96	H	-0.027322	0.516151	0.658427
C97	C	-0.147778	0.601980	0.807506
C98	C	-0.111592	0.628009	0.723715
H99	H	-0.166034	0.652590	0.855050
H100	H	-0.199620	0.558563	0.806998
H101	H	-0.102214	0.577137	0.817313
H102	H	-0.157160	0.652841	0.713904
H103	H	-0.059758	0.671433	0.724224
O104	O	-0.611475	1.028980	0.645956
C105	C	-0.581616	1.103281	0.705482
H106	H	-0.546655	1.159407	0.667607
H107	H	-0.530705	1.083192	0.731168
C108	C	-0.707941	1.066830	0.833488
C109	C	-0.665007	1.135767	0.786972
H110	H	-0.759379	1.086868	0.883758
H111	H	-0.728056	1.016770	0.793386
H112	H	-0.665506	1.050095	0.854885
H113	H	-0.707439	1.152493	0.765566
H114	H	-0.644901	1.185831	0.827072
H115	H	-0.466798	1.049214	0.231934
O116	O	-0.406922	1.044658	0.290230
C117	C	-0.436753	0.970301	0.230739
H118	H	-0.510352	0.943658	0.266472
H119	H	-0.389820	0.915765	0.210552
C120	C	-0.342922	1.031461	0.100869
C121	C	-0.433320	0.998742	0.144754
H122	H	-0.340801	1.049002	0.047827
H123	H	-0.322822	1.081555	0.140948
H124	H	-0.303822	0.986008	0.084054
H125	H	-0.472417	1.044198	0.161578
H126	H	-0.453428	0.948656	0.104676
H127	H	-0.134134	0.381823	0.231938
O128	O	-0.129873	0.609341	0.074630
C129	C	-0.206796	0.544860	0.073880
H130	H	-0.265464	0.562523	0.139938
H131	H	-0.187457	0.476224	0.067591
C132	C	-0.165638	0.521587	-0.088811
C133	C	-0.237698	0.543285	-0.007681
H134	H	-0.184699	0.520612	-0.139123
H135	H	-0.113812	0.565027	-0.088307
H136	H	-0.149529	0.464392	-0.094039
H137	H	-0.253798	0.600483	-0.002448
H138	H	-0.289529	0.499855	-0.008186
H139	H	-0.267635	0.922028	0.584675
H140	H	-0.821966	1.041616	0.488589
H141	H	-0.054295	1.135543	0.743299
H142	H	-0.137046	0.322100	0.304483
H143	H	-0.012462	1.177444	0.977271
H144	H	-0.136744	0.783750	0.141395
O145	O	-0.865588	1.062327	0.131703
C146	C	-0.799254	1.065887	0.045882
H147	H	-0.735584	1.036426	0.039866
H148	H	-0.779504	1.138370	0.038579
C149	C	-0.917685	1.047845	-0.022482
C150	C	-0.839486	1.011654	-0.029874
H151	H	-0.942502	1.014395	-0.069213
H152	H	-0.962375	1.045450	0.035338
H153	H	-0.901215	1.108246	-0.028565
H154	H	-0.855958	0.951258	-0.023779
H155	H	-0.794799	1.014038	-0.087695
O156	O	-0.538013	1.057393	0.106704
C157	C	-0.567844	0.983036	0.047213
H158	H	-0.641443	0.956393	0.082946
H159	H	-0.520911	0.928500	0.027026
C160	C	-0.474013	1.044196	-0.082657
C161	C	-0.564412	1.011477	-0.038772
H162	H	-0.471892	1.061737	-0.135699
H163	H	-0.453913	1.094290	-0.042578
H164	H	-0.434913	0.998743	-0.099472
H165	H	-0.603508	1.056933	-0.021948
H166	H	-0.584519	0.961391	-0.078851
H167	H	-0.021131	1.168792	1.135852
O168	O	-0.243802	0.945985	0.970499
C169	C	-0.300922	0.888810	1.027802
H170	H	-0.306042	0.921747	1.101620
H171	H	-0.270442	0.822896	1.007934
C172	C	-0.391286	0.830447	0.926853
C173	C	-0.397581	0.870904	1.017519
H174	H	-0.450909	0.819398	0.920508
H175	H	-0.352802	0.868964	0.888245
H176	H	-0.365883	0.775523	0.910307
H177	H	-0.422973	0.925832	1.034059
H178	H	-0.436072	0.832396	1.056129
O179	O	-0.286195	0.903262	0.750013
C180	C	-0.268498	0.816895	0.697153
H181	H	-0.193807	0.818885	0.651127
H182	H	-0.316030	0.792852	0.653526
C183	C	-0.377589	0.749897	0.817045
C184	C	-0.285850	0.752340	0.760521
H185	H	-0.388296	0.710075	0.856133
H186	H	-0.389515	0.808084	0.852658
H187	H	-0.417188	0.729864	0.780680
H188	H	-0.246253	0.772384	0.796886
H189	H	-0.273917	0.694155	0.724916
O190	O	-0.882010	1.045846	0.430174
C191	C	-0.946556	0.968828	0.430904
H192	H	-0.921676	0.917388	0.364833
H193	H	-1.015884	0.987474	0.437207
C194	C	-0.987580	0.992175	0.593590
C195	C	-0.957018	0.928993	0.512442
H196	H	-0.994037	0.967605	0.643888
H197	H	-0.944096	1.044066	0.593099
H198	H	-1.045350	1.007708	0.598830
H199	H	-0.899244	0.913470	0.507198
H200	H	-1.000492	0.877099	0.512934
H201	H	-0.742701	1.033913	0.599575
H202	H	-0.429912	1.029116	0.579088
