data_functionalizedCrystal
_audit_creation_method	'MofGen! by Chris Wilmer'
_symmetry_space_group_name_H-M	'P1'
_symmetry_Int_Tables_number	1
_symmetry_cell_setting	triclinic
loop_
_symmetry_equiv_pos_as_xyz
  x,y,z
_cell_length_a	10.654543
_cell_length_b	10.654554
_cell_length_c	9.130313
_cell_angle_alpha	89.997706
_cell_angle_beta	90.003580
_cell_angle_gamma	95.515718
loop_
_atom_site_label
_atom_site_type_symbol
_atom_site_fract_x
_atom_site_fract_y
_atom_site_fract_z
O1	O	-1.667848	0.176353	-0.121793
O2	O	-1.302368	0.193168	-0.121796
O3	O	-1.493509	0.002022	-0.121787
O4	O	-1.476708	0.367500	-0.121802
O5	O	-1.493494	0.002022	0.121812
O6	O	-1.302354	0.193169	0.121803
O7	O	-1.667833	0.176353	0.121806
Cu8	Cu	-1.485092	0.184761	0.144047
Cu9	Cu	-1.485109	0.184761	-0.144037
O10	O	-1.476693	0.367500	0.121797
C11	C	-1.255563	0.191936	0.000003
C12	C	-1.116119	0.188247	0.000001
C13	C	-1.492267	-0.044776	0.000011
C14	C	-1.488573	-0.184219	0.000007
C15	C	-0.905605	0.297316	0.000007
C16	C	-1.036627	0.300791	-0.000005
C17	C	-1.064585	0.072221	0.000004
C18	C	-0.933566	0.068747	0.000004
C19	C	-0.714638	0.177592	0.000008
C20	C	-0.854079	0.181298	0.000013
C21	C	-1.477935	0.414298	-0.000004
C22	C	-1.481629	0.553741	-0.000010
N23	N	-1.485089	0.184760	0.346670
C24	C	-1.486846	0.750285	-0.132784
C25	C	-1.483369	0.619265	-0.132793
C26	C	-1.483352	0.619246	0.132791
C27	C	-1.486820	0.750265	0.132799
N28	N	-1.485122	0.184752	-0.346660
C29	C	-1.561922	0.261640	0.423314
C30	C	-1.561942	0.261633	0.576650
C31	C	-1.408287	0.107863	0.576685
C32	C	-1.408274	0.107864	0.423351
H33	H	-0.840890	0.388962	0.000013
N34	N	-1.644800	0.344567	0.659313
H35	H	-1.633159	0.332900	0.768086
H36	H	-1.735921	0.320609	0.632491
H37	H	-1.129319	-0.019414	-0.000000
H38	H	-0.891615	-0.025733	0.000005
N39	N	-1.325438	0.024929	0.659393
H40	H	-1.337101	0.036595	0.768160
H41	H	-1.234313	0.048893	0.632604
H42	H	-1.078572	0.395263	-0.000011
H43	H	-1.488270	0.803625	-0.240912
N44	N	-1.481587	0.548612	-0.276017
H45	H	-1.483251	0.609997	-0.360133
H46	H	-1.557894	0.484775	-0.281735
H47	H	-1.481927	0.565887	0.240906
H48	H	-1.345707	0.045253	0.360946
N49	N	-1.488678	0.820919	0.276030
H50	H	-1.487052	0.759535	0.360153
H51	H	-1.567835	0.865778	0.281814
H52	H	-1.624470	0.324254	0.360884
