data_functionalizedCrystal
_audit_creation_method	'MofGen! by Chris Wilmer'
_symmetry_space_group_name_H-M	'P1'
_symmetry_Int_Tables_number	1
_symmetry_cell_setting	triclinic
loop_
_symmetry_equiv_pos_as_xyz
  x,y,z
_cell_length_a	17.640112
_cell_length_b	18.101395
_cell_length_c	17.640968
_cell_angle_alpha	101.229078
_cell_angle_beta	87.860920
_cell_angle_gamma	101.255692
loop_
_atom_site_label
_atom_site_type_symbol
_atom_site_fract_x
_atom_site_fract_y
_atom_site_fract_z
Zn1	Zn	1.247775	-0.021279	0.195081
Zn2	Zn	1.747775	0.478721	0.695081
Zn3	Zn	1.221983	-0.174071	0.068105
Zn4	Zn	1.721983	0.325929	0.568105
Zn5	Zn	1.095100	-0.069453	0.093729
Zn6	Zn	1.595100	0.430547	0.593729
Zn7	Zn	1.120725	-0.164323	0.220687
Zn8	Zn	1.620725	0.335677	0.720687
O9	O	1.171396	-0.107282	0.144400
O10	O	1.671396	0.392718	0.644400
O11	O	1.350625	-0.025466	0.156797
O12	O	1.850625	0.474534	0.656797
O13	O	1.183633	-0.184434	-0.034768
O14	O	1.683633	0.315566	0.465232
O15	O	1.115423	0.040585	0.107181
O16	O	1.615423	0.540585	0.607181
O17	O	1.331676	-0.137722	0.063509
O18	O	1.831676	0.362278	0.563509
O19	O	1.227592	0.075978	0.181644
O20	O	1.727592	0.575978	0.681644
O21	O	1.090413	-0.107572	-0.015942
O22	O	1.590413	0.392428	0.484058
O23	O	0.992228	-0.098119	0.132010
O24	O	1.492228	0.401881	0.632010
O25	O	1.159097	-0.121107	0.323562
O26	O	1.659097	0.378893	0.823562
O27	O	1.011054	-0.167820	0.225285
O28	O	1.511054	0.332180	0.725285
O29	O	1.252440	-0.016013	0.304750
O30	O	1.752440	0.483987	0.804750
O31	O	1.208481	-0.276426	0.088338
O32	O	1.708481	0.223574	0.588338
O33	O	1.134087	-0.269264	0.200439
O34	O	1.634087	0.230736	0.700439
C35	C	0.974086	-0.137139	0.184207
C36	C	1.474086	0.362861	0.684207
C37	C	0.889679	-0.149927	0.201255
C38	C	1.389679	0.350073	0.701255
C39	C	0.563038	-0.010125	0.014899
C40	C	1.063038	0.489875	0.514899
C41	C	0.483727	-0.022153	0.030928
C42	C	0.983727	0.477847	0.530928
C43	C	0.503352	-0.094901	0.127887
C44	C	1.003352	0.405099	0.627887
C45	C	0.582666	-0.082876	0.111869
C46	C	1.082666	0.417124	0.611869
C47	C	0.612502	-0.040488	0.055373
C48	C	1.112502	0.459512	0.555373
C49	C	0.632131	-0.113239	0.152344
C50	C	1.132131	0.386761	0.652344
C51	C	0.711437	-0.101218	0.136324
C52	C	1.211437	0.398782	0.636324
C53	C	0.741280	-0.058834	0.079829
C54	C	1.241280	0.441166	0.579829
C55	C	0.691809	-0.028467	0.039353
C56	C	1.191809	0.471533	0.539353
C57	C	0.602292	-0.155631	0.208836
C58	C	1.102292	0.344369	0.708836
C59	C	0.651757	-0.185994	0.249311
C60	C	1.151757	0.314006	0.749311
C61	C	0.731066	-0.173968	0.233295
C62	C	1.231066	0.326032	0.733295
C63	C	0.760908	-0.131585	0.176800
C64	C	1.260908	0.368415	0.676800
C65	C	0.780536	-0.204335	0.273771
C66	C	1.280536	0.295665	0.773771
C67	C	0.859843	-0.192314	0.257751
C68	C	1.359843	0.307686	0.757751
C69	C	0.840215	-0.119564	0.160780
C70	C	1.340215	0.380436	0.660780
C71	C	1.171290	-0.299713	0.144399
C72	C	1.671290	0.200287	0.644399
C73	C	1.171319	-0.382019	0.144409
C74	C	1.671319	0.117981	0.644409
C75	C	1.171494	-0.681075	0.144416
C76	C	1.671494	-0.181075	0.644416
C77	C	1.124853	-0.645221	0.215066
C78	C	1.624853	-0.145221	0.715066
C79	C	1.124537	-0.559687	0.214938
C80	C	1.624537	-0.059687	0.714938
C81	C	1.171407	-0.532710	0.144413
C82	C	1.671407	-0.032710	0.644413
C83	C	1.133552	-0.585373	0.068746
C84	C	1.633552	-0.085373	0.568746
C85	C	1.133246	-0.670995	0.069175
C86	C	1.633246	-0.170995	0.569175
C87	C	1.255975	-0.632588	0.148704
C88	C	1.755975	-0.132588	0.648704
C89	C	1.255858	-0.546609	0.150555
C90	C	1.755858	-0.046609	0.650555
C91	C	1.171358	-0.448861	0.144407
C92	C	1.671358	0.051139	0.644407
C93	C	1.171539	-0.764926	0.144418
C94	C	1.671539	-0.264926	0.644418
C95	C	1.369476	-0.077307	0.104439
C96	C	1.869476	0.422693	0.604439
C97	C	1.453886	-0.064534	0.087409
C98	C	1.953886	0.435466	0.587409
C99	C	1.211504	-0.062099	0.342481
C100	C	1.711504	0.437901	0.842481
C101	C	1.228596	-0.042845	0.426892
C102	C	1.728596	0.457155	0.926892
C103	C	1.171526	0.085908	0.144415
C104	C	1.671526	0.585908	0.644415
C105	C	1.171582	0.168234	0.144421
C106	C	1.671582	0.668234	0.644421
C107	C	1.131487	-0.152228	-0.052919
C108	C	1.631487	0.347772	0.447081
C109	C	1.114543	-0.171252	-0.137358
C110	C	1.614543	0.328748	0.362642
C111	C	1.041843	-0.253106	0.753474
C112	C	1.541843	0.246894	1.253474
C113	C	1.057920	-0.235002	0.832787
C114	C	1.557920	0.264998	1.332787
C115	C	1.155109	-0.125577	0.813189
C116	C	1.655109	0.374423	1.313189
C117	C	1.139039	-0.143670	0.733873
C118	C	1.639039	0.356330	1.233873
C119	C	1.082405	-0.207436	0.704022
C120	C	1.582405	0.292564	1.204022
C121	C	1.179601	-0.097999	0.684421
C122	C	1.679601	0.402001	1.184421
C123	C	1.163534	-0.116093	0.605112
C124	C	1.663534	0.383907	1.105112
C125	C	1.106905	-0.179858	0.575254
C126	C	1.606905	0.320142	1.075254
C127	C	1.066339	-0.225530	0.624712
C128	C	1.566339	0.274470	1.124712
C129	C	1.236238	-0.034237	0.714273
C130	C	1.736238	0.465763	1.214273
C131	C	1.276800	0.011433	0.664821
C132	C	1.776800	0.511433	1.164821
C133	C	1.260729	-0.006657	0.585511
C134	C	1.760729	0.493343	1.085511
C135	C	1.204100	-0.070421	0.555653
C136	C	1.704100	0.429579	1.055653
C137	C	1.301296	0.039015	0.536052
C138	C	1.801296	0.539015	1.036052
C139	C	1.285229	0.020921	0.456743
C140	C	1.785229	0.520921	0.956743
C141	C	1.188033	-0.088515	0.476344
C142	C	1.688033	0.411485	0.976344
H143	H	0.479047	-0.129416	0.173884
H144	H	0.979047	0.370584	0.673884
F145	F	1.051898	-0.713985	0.061967
F146	F	1.551898	-0.213985	0.561967
H147	H	1.201222	-0.073661	0.837504
H148	H	1.701222	0.426339	1.337504
H149	H	1.347412	0.090929	0.560368
H150	H	1.847412	0.590929	1.060368
F151	F	1.337073	0.079294	0.696599
F152	F	1.837073	0.579294	1.196599
H153	H	1.249319	-0.019509	0.778852
H154	H	1.749319	0.480491	1.278852
F155	F	1.328402	0.069527	0.404109
F156	F	1.828402	0.569527	0.904109
F157	F	1.174568	-0.703504	-0.000838
F158	F	1.674568	-0.203504	0.499162
H159	H	0.864511	-0.085034	0.114787
H160	H	1.364511	0.414966	0.614787
F161	F	1.043954	-0.689149	0.213165
F162	F	1.543954	-0.189149	0.713165
H163	H	0.716105	0.006063	-0.006640
H164	H	1.216105	0.506063	0.493360
F165	F	0.594796	0.034995	-0.045226
F166	F	1.094796	0.534995	0.454774
F167	F	0.825685	-0.046044	0.062775
F168	F	1.325685	0.453956	0.562775
H169	H	0.443455	0.002582	-0.002031
H170	H	0.943455	0.502582	0.497969
H171	H	0.627452	-0.220508	0.295307
H172	H	1.127452	0.279492	0.795307
H173	H	0.537715	-0.165417	0.221877
H174	H	1.037715	0.334583	0.721877
F175	F	1.052932	-0.574186	0.060967
F176	F	1.552932	-0.074186	0.560967
F177	F	0.748769	-0.249460	0.333883
F178	F	1.248769	0.250540	0.833883
F179	F	1.043116	-0.548814	0.212900
F180	F	1.543116	-0.048814	0.712900
H181	H	0.900119	-0.217038	0.290710
H182	H	1.400119	0.282962	0.790710
F183	F	1.127751	-0.156377	0.444571
F184	F	1.627751	0.343623	0.944571
F185	F	1.158132	-0.651697	0.289352
F186	F	1.658132	-0.151697	0.789352
F187	F	1.175623	-0.563986	-0.001009
F188	F	1.675623	-0.063986	0.498991
F189	F	1.157943	-0.511801	0.288936
F190	F	1.657943	-0.011801	0.788936
H191	H	1.287333	-0.638077	0.202087
H192	H	1.787333	-0.138077	0.702087
H193	H	1.284111	-0.510354	0.206162
H194	H	1.784111	-0.010354	0.706162
F195	F	1.301660	-0.663193	0.081198
F196	F	1.801660	-0.163193	0.581198
F197	F	1.305384	-0.521357	0.086516
F198	F	1.805384	-0.021357	0.586516
F199	F	1.089808	-0.199118	0.490844
F200	F	1.589808	0.300882	0.990844
H201	H	1.020204	-0.277439	0.600410
H202	H	1.520204	0.222561	1.100410
H203	H	0.995709	-0.305016	0.729171
H204	H	1.495709	0.194984	1.229171
H205	H	1.024885	-0.272198	0.873049
H206	H	1.524885	0.227802	1.373049
