data_functionalizedCrystal
_audit_creation_method	'MofGen! by Chris Wilmer'
_symmetry_space_group_name_H-M	'P1'
_symmetry_Int_Tables_number	1
_symmetry_cell_setting	triclinic
loop_
_symmetry_equiv_pos_as_xyz
  x,y,z
_cell_length_a	29.839131
_cell_length_b	29.839135
_cell_length_c	29.839125
_cell_angle_alpha	90.015751
_cell_angle_beta	89.982291
_cell_angle_gamma	89.956753
loop_
_atom_site_label
_atom_site_type_symbol
_atom_site_fract_x
_atom_site_fract_y
_atom_site_fract_z
Zn1	Zn	-0.178894	-0.686720	-0.254050
Zn2	Zn	0.321106	-0.186720	0.245950
Zn3	Zn	-0.254006	-0.686652	-0.178920
Zn4	Zn	0.245994	-0.186652	0.321080
Zn5	Zn	-0.178894	-0.611602	-0.178928
Zn6	Zn	0.321106	-0.111602	0.321072
Zn7	Zn	-0.254001	-0.611550	-0.254017
Zn8	Zn	0.245999	-0.111550	0.245983
O9	O	-0.216449	-0.649131	-0.216479
O10	O	0.283551	-0.149131	0.283521
O11	O	-0.188861	-0.749578	-0.244095
O12	O	0.311139	-0.249578	0.255905
O13	O	-0.244045	-0.676690	-0.116054
O14	O	0.255955	-0.176690	0.383946
O15	O	-0.116027	-0.621617	-0.188911
O16	O	0.383973	-0.121617	0.311089
O17	O	-0.244045	-0.749528	-0.188897
O18	O	0.255955	-0.249528	0.311103
O19	O	-0.116027	-0.676805	-0.244103
O20	O	0.383973	-0.176805	0.255897
O21	O	-0.188860	-0.621551	-0.116060
O22	O	0.311140	-0.121551	0.383940
O23	O	-0.188854	-0.548728	-0.188878
O24	O	0.311146	-0.048728	0.311122
O25	O	-0.244035	-0.621528	-0.316888
O26	O	0.255965	-0.121528	0.183112
O27	O	-0.244035	-0.548690	-0.244045
O28	O	0.255965	-0.048690	0.255955
O29	O	-0.188855	-0.676755	-0.316913
O30	O	0.311145	-0.176755	0.183087
O31	O	-0.316873	-0.676639	-0.188865
O32	O	0.183127	-0.176639	0.311135
O33	O	-0.316868	-0.621462	-0.244038
O34	O	0.183132	-0.121462	0.255962
C35	C	-0.216444	-0.532408	-0.216459
C36	C	0.283556	-0.032408	0.283541
C37	C	-0.216453	-0.482474	-0.216461
C38	C	0.283547	0.017526	0.283539
C39	C	-0.187752	-0.172854	-0.245261
C40	C	0.312248	0.327146	0.254739
C41	C	-0.187753	0.014819	-0.245272
C42	C	0.312247	0.514819	0.254728
O43	O	-0.163343	0.039065	-0.269738
O44	O	0.336657	0.539065	0.230262
N45	N	-0.216441	0.038311	-0.216492
N46	N	0.283559	0.538311	0.283508
C47	C	-0.245129	0.014882	-0.187705
C48	C	0.254871	0.514882	0.312295
O49	O	-0.269526	0.039169	-0.163223
O50	O	0.230474	0.539169	0.336777
C51	C	-0.245125	-0.172791	-0.187691
C52	C	0.254875	0.327209	0.312309
C53	C	-0.216439	-0.196280	-0.216476
C54	C	0.283561	0.303720	0.283524
C55	C	-0.159067	-0.196343	-0.274043
C56	C	0.340933	0.303657	0.225957
C57	C	-0.159069	-0.243258	-0.274042
C58	C	0.340931	0.256742	0.225958
C59	C	-0.187756	-0.266684	-0.245257
C60	C	0.312244	0.233316	0.254743
C61	C	-0.216440	-0.243195	-0.216475
C62	C	0.283560	0.256805	0.283525
C63	C	-0.273811	-0.196219	-0.158902
C64	C	0.226189	0.303781	0.341098
C65	C	-0.273806	-0.243140	-0.158900
C66	C	0.226194	0.256860	0.341100
C67	C	-0.245120	-0.266630	-0.187685
C68	C	0.254880	0.233370	0.312315
C69	C	-0.245129	-0.313537	-0.187689
C70	C	0.254871	0.186463	0.312311
N71	N	-0.216441	-0.337029	-0.216469
N72	N	0.283559	0.162971	0.283531
C73	C	-0.187754	-0.313602	-0.245254
C74	C	0.312246	0.186398	0.254746
C75	C	-0.245129	0.113412	-0.187715
C76	C	0.254871	0.613412	0.312285
C77	C	-0.245131	0.160330	-0.187719
C78	C	0.254869	0.660330	0.312281
C79	C	-0.187754	0.160265	-0.245286
C80	C	0.312246	0.660265	0.254714
C81	C	-0.187755	0.113346	-0.245284
C82	C	0.312245	0.613346	0.254716
C83	C	-0.216441	0.089921	-0.216495
C84	C	0.283559	0.589921	0.283505
C85	C	-0.187760	-0.412128	-0.245248
C86	C	0.312240	0.087872	0.254752
C87	C	-0.187766	-0.459048	-0.245246
C88	C	0.312234	0.040952	0.254754
C89	C	-0.245141	-0.458978	-0.187677
C90	C	0.254859	0.041022	0.312323
C91	C	-0.245137	-0.412063	-0.187681
C92	C	0.254863	0.087937	0.312319
C93	C	-0.216443	-0.388639	-0.216468
C94	C	0.283557	0.111361	0.283532
O95	O	-0.269522	-0.337811	-0.163233
O96	O	0.230478	0.162189	0.336767
O97	O	-0.163353	-0.337898	-0.269725
O98	O	0.336647	0.162102	0.230275
C99	C	-0.187750	-0.125938	-0.245262
C100	C	0.312250	0.374062	0.254738
C101	C	-0.216435	-0.102449	-0.216479
C102	C	0.283565	0.397551	0.283521
C103	C	-0.245121	-0.125875	-0.187695
C104	C	0.254879	0.374125	0.312305
C105	C	-0.216436	-0.055531	-0.216483
C106	C	0.283564	0.444469	0.283517
C107	C	-0.187750	-0.032105	-0.245268
C108	C	0.312250	0.467895	0.254732
C109	C	-0.159062	-0.055596	-0.274048
C110	C	0.340938	0.444404	0.225952
C111	C	-0.159063	-0.102512	-0.274046
C112	C	0.340937	0.397488	0.225954
C113	C	-0.273810	-0.102384	-0.158915
C114	C	0.226190	0.397616	0.341085
C115	C	-0.273806	-0.055468	-0.158919
C116	C	0.226194	0.444532	0.341081
C117	C	-0.245119	-0.032042	-0.187704
C118	C	0.254881	0.467958	0.312296
C119	C	-0.333171	-0.649050	-0.216457
C120	C	0.166829	-0.149050	0.283543
C121	C	-0.383106	-0.649056	-0.216462
C122	C	0.116894	-0.149056	0.283538
C123	C	-0.692739	-0.677914	-0.187792
C124	C	-0.192739	-0.177914	0.312208
C125	C	-0.880412	-0.677969	-0.187810
C126	C	-0.380412	-0.177969	0.312190
O127	O	-0.904668	-0.702441	-0.163416
O128	O	-0.404668	-0.202441	0.336584
N129	N	-0.903891	-0.649224	-0.216513
N130	N	-0.403891	-0.149224	0.283487
C131	C	-0.880449	-0.620465	-0.245216
C132	C	-0.380449	-0.120465	0.254784
O133	O	-0.904725	-0.596020	-0.269633
O134	O	-0.404725	-0.096020	0.230367
C135	C	-0.692776	-0.620412	-0.245200
C136	C	-0.192776	-0.120412	0.254800
C137	C	-0.669300	-0.649156	-0.216492
C138	C	-0.169300	-0.149156	0.283508
C139	C	-0.669262	-0.706656	-0.159087
C140	C	-0.169262	-0.206656	0.340913
C141	C	-0.622347	-0.706640	-0.159081
C142	C	-0.122347	-0.206640	0.340919
C143	C	-0.598908	-0.677882	-0.187781
C144	C	-0.098908	-0.177882	0.312219
C145	C	-0.622384	-0.649140	-0.216486
C146	C	-0.122384	-0.149140	0.283514
C147	C	-0.669335	-0.591656	-0.273905
C148	C	-0.169335	-0.091656	0.226095
C149	C	-0.622414	-0.591646	-0.273899
C150	C	-0.122414	-0.091646	0.226101
C151	C	-0.598938	-0.620390	-0.245191
C152	C	-0.098938	-0.120390	0.254809
C153	C	-0.552030	-0.620367	-0.245180
C154	C	-0.052030	-0.120367	0.254820
N155	N	-0.528551	-0.649112	-0.216477
N156	N	-0.028551	-0.149112	0.283523
C157	C	-0.551990	-0.677869	-0.187777
C158	C	-0.051990	-0.177869	0.312223
C159	C	-0.978979	-0.620494	-0.245221
C160	C	-0.478979	-0.120494	0.254779
C161	C	-1.025897	-0.620507	-0.245225
C162	C	-0.525897	-0.120507	0.254775
C163	C	-1.025857	-0.678012	-0.187819
C164	C	-0.525857	-0.178012	0.312181
C165	C	-0.978938	-0.677997	-0.187814
C166	C	-0.478938	-0.177997	0.312186
C167	C	-0.955500	-0.649239	-0.216518
C168	C	-0.455500	-0.149239	0.283482
C169	C	-0.453464	-0.677834	-0.187767
C170	C	0.046536	-0.177834	0.312233
C171	C	-0.406545	-0.677814	-0.187762
C172	C	0.093455	-0.177814	0.312238
C173	C	-0.406589	-0.620311	-0.245169
C174	C	0.093411	-0.120311	0.254831
C175	C	-0.453504	-0.620329	-0.245173
C176	C	0.046496	-0.120329	0.254827
C177	C	-0.476941	-0.649094	-0.216470
C178	C	0.023059	-0.149094	0.283530
O179	O	-0.527745	-0.595912	-0.269564
O180	O	-0.027745	-0.095912	0.230436
O181	O	-0.527705	-0.702318	-0.163371
O182	O	-0.027705	-0.202318	0.336629
C183	C	-0.739654	-0.677930	-0.187798
C184	C	-0.239654	-0.177930	0.312202
C185	C	-0.763131	-0.649188	-0.216504
C186	C	-0.263131	-0.149188	0.283496
C187	C	-0.739692	-0.620430	-0.245203
C188	C	-0.239692	-0.120430	0.254797
C189	C	-0.810049	-0.649200	-0.216507
C190	C	-0.310049	-0.149200	0.283493
C191	C	-0.833487	-0.677958	-0.187807
C192	C	-0.333487	-0.177958	0.312193
C193	C	-0.810009	-0.706703	-0.159104
C194	C	-0.310009	-0.206703	0.340896
C195	C	-0.763093	-0.706687	-0.159098
C196	C	-0.263093	-0.206687	0.340902
C197	C	-0.763171	-0.591685	-0.273906
C198	C	-0.263171	-0.091685	0.226094
C199	C	-0.810086	-0.591703	-0.273910
C200	C	-0.310086	-0.091703	0.226090
C201	C	-0.833525	-0.620461	-0.245210
C202	C	-0.333525	-0.120461	0.254790
C203	C	-0.099270	-0.649225	-0.216511
C204	C	0.400730	-0.149225	0.283489
C205	C	-0.049336	-0.649265	-0.216525
C206	C	0.450664	-0.149265	0.283475
C207	C	-0.216445	-0.649143	-0.333657
C208	C	0.283555	-0.149143	0.166343
C209	C	-0.216443	-0.649148	-0.383592
C210	C	0.283557	-0.149148	0.116408
C211	C	-0.216451	0.233691	-0.216498
C212	C	0.283549	0.733691	0.283502
C213	C	-0.216444	0.183756	-0.216503
C214	C	0.283556	0.683756	0.283497
C215	C	-0.187635	-0.677935	-0.693251
C216	C	0.312365	-0.177935	-0.193251
C217	C	-0.187597	-0.677957	-0.880924
C218	C	0.312403	-0.177957	-0.380924
O219	O	-0.163147	-0.702400	-0.905203
O220	O	0.336853	-0.202400	-0.405203
N221	N	-0.216323	-0.649208	-0.904377
N222	N	0.283677	-0.149208	-0.404377
C223	C	-0.245058	-0.620449	-0.880909
C224	C	0.254942	-0.120449	-0.380909
O225	O	-0.269486	-0.595993	-0.905163
O226	O	0.230514	-0.095993	-0.405163
C227	C	-0.245093	-0.620425	-0.693236
C228	C	0.254907	-0.120425	-0.193236
C229	C	-0.216369	-0.649179	-0.669786
C230	C	0.283631	-0.149179	-0.169786
C231	C	-0.158913	-0.706687	-0.669801
C232	C	0.341087	-0.206687	-0.169801
C233	C	-0.158925	-0.706683	-0.622885
C234	C	0.341075	-0.206683	-0.122885
C235	C	-0.187659	-0.677927	-0.599420
C236	C	0.312341	-0.177927	-0.099420
C237	C	-0.216381	-0.649175	-0.622871
C238	C	0.283619	-0.149175	-0.122871
C239	C	-0.273826	-0.591663	-0.669769
C240	C	0.226174	-0.091663	-0.169769
C241	C	-0.273832	-0.591659	-0.622848
C242	C	0.226168	-0.091659	-0.122848
C243	C	-0.245107	-0.620414	-0.599398
C244	C	0.254893	-0.120414	-0.099398
C245	C	-0.245126	-0.620415	-0.552490
C246	C	0.254874	-0.120415	-0.052490
N247	N	-0.216401	-0.649164	-0.529037
N248	N	0.283599	-0.149164	-0.029037
C249	C	-0.187667	-0.677920	-0.552502
C250	C	0.312333	-0.177920	-0.052502
C251	C	-0.245038	-0.620464	-0.979439
C252	C	0.254962	-0.120464	-0.479439
C253	C	-0.245029	-0.620471	-1.026357
C254	C	0.254971	-0.120471	-0.526357
C255	C	-0.187568	-0.677979	-1.026370
C256	C	0.312432	-0.177979	-0.526370
C257	C	-0.187579	-0.677974	-0.979451
C258	C	0.312421	-0.177974	-0.479451
C259	C	-0.216312	-0.649214	-0.955987
C260	C	0.283688	-0.149214	-0.455987
C261	C	-0.187694	-0.677910	-0.453976
C262	C	0.312306	-0.177910	0.046024
C263	C	-0.187709	-0.677904	-0.407057
C264	C	0.312291	-0.177904	0.092943
C265	C	-0.245169	-0.620395	-0.407049
C266	C	0.254831	-0.120395	0.092951
C267	C	-0.245155	-0.620402	-0.453964
C268	C	0.254845	-0.120402	0.046036
C269	C	-0.216414	-0.649161	-0.477427
C270	C	0.283586	-0.149161	0.022573
O271	O	-0.269561	-0.595982	-0.528183
O272	O	0.230439	-0.095982	-0.028183
O273	O	-0.163235	-0.702366	-0.528240
O274	O	0.336765	-0.202366	-0.028240
C275	C	-0.187624	-0.677939	-0.740167
C276	C	0.312376	-0.177939	-0.240167
C277	C	-0.216346	-0.649187	-0.763617
C278	C	0.283654	-0.149187	-0.263617
C279	C	-0.245080	-0.620431	-0.740152
C280	C	0.254920	-0.120431	-0.240152
C281	C	-0.216338	-0.649194	-0.810535
C282	C	0.283662	-0.149194	-0.310535
C283	C	-0.187604	-0.677950	-0.834000
C284	C	0.312396	-0.177950	-0.334000
C285	C	-0.158878	-0.706699	-0.810547
C286	C	0.341122	-0.206699	-0.310547
C287	C	-0.158890	-0.706695	-0.763632
C288	C	0.341110	-0.206695	-0.263632
C289	C	-0.273805	-0.591682	-0.763605
C290	C	0.226195	-0.091682	-0.263605
C291	C	-0.273792	-0.591689	-0.810520
C292	C	0.226208	-0.091689	-0.310520
C293	C	-0.245058	-0.620445	-0.833985
C294	C	0.254942	-0.120445	-0.333985
C295	C	-0.216420	-0.649145	-0.099756
C296	C	0.283580	-0.149145	0.400244
C297	C	-0.216296	-0.649227	-0.049822
C298	C	0.283704	-0.149227	0.450178
H299	H	-0.297170	-0.036347	-0.135480
H300	H	0.202830	0.463653	0.364520
H301	H	-0.297170	-0.177102	-0.135461
H302	H	0.202830	0.322898	0.364539
Cl303	Cl	-1.055405	-0.584365	-0.281311
Cl304	Cl	-0.555405	-0.084365	0.218689
H305	H	-0.268564	-0.596984	-0.387935
H306	H	0.231436	-0.096984	0.112065
Cl307	Cl	-0.151689	0.083822	-0.281471
Cl308	Cl	0.348311	0.583822	0.218529
Cl309	Cl	-0.377114	-0.584163	-0.281249
Cl310	Cl	0.122886	-0.084163	0.218751
Cl311	Cl	-0.592840	-0.742784	-0.122995
Cl312	Cl	-0.092840	-0.242784	0.377005
H313	H	-0.135705	-0.177274	-0.297483
H314	H	0.364295	0.322726	0.202517
H315	H	-0.164405	-0.478171	-0.268688
H316	H	0.335595	0.021829	0.231312
H317	H	-0.829101	-0.730118	-0.135735
H318	H	-0.329101	-0.230118	0.364265
H319	H	-0.472620	-0.596925	-0.268550
H320	H	0.027380	-0.096925	0.231450
Cl321	Cl	-0.281164	-0.584305	-0.949948
Cl322	Cl	0.218836	-0.084305	-0.449948
H323	H	-0.743982	-0.730093	-0.135722
H324	H	-0.243982	-0.230093	0.364278
Cl325	Cl	-0.281268	-0.584255	-0.483445
Cl326	Cl	0.218732	-0.084255	0.016555
H327	H	-0.164396	0.179346	-0.268723
H328	H	0.335604	0.679346	0.231277
H329	H	-0.268424	-0.597061	-1.045447
H330	H	0.231576	-0.097061	-0.545447
Cl331	Cl	-0.698720	-0.742813	-0.123002
Cl332	Cl	-0.198720	-0.242813	0.376998
H333	H	-0.135709	-0.262379	-0.297481
H334	H	0.364291	0.237621	0.202519
Cl335	Cl	-0.281200	0.189853	-0.151534
Cl336	Cl	0.218800	0.689853	0.348466
H337	H	-0.164172	-0.701393	-1.045483
H338	H	0.335828	-0.201393	-0.545483
H339	H	-0.164318	-0.701321	-0.387966
H340	H	0.335682	-0.201321	0.112034
H341	H	-0.135500	-0.730110	-0.744542
H342	H	0.364500	-0.230110	-0.244542
H343	H	-0.268490	0.094343	-0.164270
H344	H	0.231510	0.594343	0.335730
Cl345	Cl	-0.698837	-0.555524	-0.310003
Cl346	Cl	-0.198837	-0.055524	0.189997
Cl347	Cl	-0.839594	-0.555564	-0.310003
Cl348	Cl	-0.339594	-0.055564	0.189997
Cl349	Cl	-0.309872	-0.272586	-0.122707
Cl350	Cl	0.190128	0.227414	0.377293
Cl351	Cl	-0.733712	-0.555529	-0.309990
Cl352	Cl	-0.233712	-0.055529	0.190010
H353	H	-0.164289	-0.701327	-0.473074
H354	H	0.335711	-0.201327	0.026926
H355	H	-0.135512	-0.730104	-0.688901
H356	H	0.364488	-0.230104	-0.188901
Cl357	Cl	-0.281214	-0.382533	-0.151507
Cl358	Cl	0.218786	0.117467	0.348493
H359	H	-0.268498	-0.478060	-0.164243
H360	H	0.231502	0.021940	0.335757
Cl361	Cl	-0.309909	-0.555539	-0.839995
Cl362	Cl	0.190091	-0.055539	-0.339995
Cl363	Cl	-0.309932	-0.555527	-0.734113
Cl364	Cl	0.190068	-0.055527	-0.234113
Cl365	Cl	-0.122809	-0.742830	-0.593412
Cl366	Cl	0.377191	-0.242830	-0.093412
Cl367	Cl	-0.122998	-0.132034	-0.310235
Cl368	Cl	0.377002	0.367966	0.189765
Cl369	Cl	-0.309940	-0.555514	-0.699238
Cl370	Cl	0.190060	-0.055514	-0.199238
H371	H	-0.164188	-0.701388	-0.960361
H372	H	0.335812	-0.201388	-0.460361
Cl373	Cl	-0.309955	-0.555500	-0.593353
Cl374	Cl	0.190045	-0.055500	-0.093353
Cl375	Cl	-0.122758	-0.742851	-0.840055
Cl376	Cl	0.377242	-0.242851	-0.340055
H377	H	-0.297170	-0.121452	-0.135474
H378	H	0.202830	0.378548	0.364526
H379	H	-0.387431	-0.701220	-0.164383
H380	H	0.112569	-0.201220	0.335617
H381	H	-0.164394	-0.393062	-0.268688
H382	H	0.335606	0.106938	0.231312
H383	H	-0.959899	-0.597076	-0.268596
H384	H	-0.459899	-0.097076	0.231404
Cl385	Cl	-0.123000	-0.026137	-0.310235
Cl386	Cl	0.377000	0.473863	0.189765
Cl387	Cl	-0.482920	-0.713995	-0.151682
Cl388	Cl	0.017080	-0.213995	0.348318
Cl389	Cl	-0.949430	-0.714133	-0.151723
Cl390	Cl	-0.449430	-0.214133	0.348277
H391	H	-0.603333	-0.568229	-0.297275
H392	H	-0.103333	-0.068229	0.202725
Cl393	Cl	-1.055332	-0.714163	-0.151739
Cl394	Cl	-0.555332	-0.214163	0.348261
