data_functionalizedCrystal
_audit_creation_method	'MofGen! by Chris Wilmer'
_symmetry_space_group_name_H-M	'P1'
_symmetry_Int_Tables_number	1
_symmetry_cell_setting	triclinic
loop_
_symmetry_equiv_pos_as_xyz
  x,y,z
_cell_length_a	12.759401
_cell_length_b	10.686285
_cell_length_c	12.759387
_cell_angle_alpha	85.570858
_cell_angle_beta	89.958684
_cell_angle_gamma	85.633237
loop_
_atom_site_label
_atom_site_type_symbol
_atom_site_fract_x
_atom_site_fract_y
_atom_site_fract_z
Zn1	Zn	1.638577	-0.501875	-0.562029
Zn2	Zn	2.138577	-0.001875	-0.062029
Zn3	Zn	1.651912	-0.713036	-0.372889
Zn4	Zn	2.151912	-0.213036	0.127111
Zn5	Zn	1.462825	-0.502055	-0.386353
Zn6	Zn	1.962825	-0.002055	0.113647
Zn7	Zn	1.476361	-0.712835	-0.548539
Zn8	Zn	1.976361	-0.212835	-0.048539
O9	O	1.557419	-0.607450	-0.467453
O10	O	2.057419	-0.107450	0.032547
O11	O	1.787368	-0.529895	-0.536950
O12	O	2.287368	-0.029895	-0.036950
O13	O	1.626745	-0.685208	-0.227644
O14	O	2.126745	-0.185208	0.272356
O15	O	1.474894	-0.325448	-0.420937
O16	O	1.974894	0.174552	0.079063
O17	O	1.797164	-0.685034	-0.397990
O18	O	2.297164	-0.185034	0.102010
O19	O	1.604018	-0.325316	-0.550006
O20	O	2.104018	0.174684	-0.050006
O21	O	1.487823	-0.530202	-0.237535
O22	O	1.987823	-0.030202	0.262465
O23	O	1.317599	-0.530007	-0.407856
O24	O	1.817599	-0.030007	0.092144
O25	O	1.497963	-0.684691	-0.697360
O26	O	1.997963	-0.184691	-0.197360
O27	O	1.327544	-0.684866	-0.527014
O28	O	1.827544	-0.184866	-0.027014
O29	O	1.617143	-0.529700	-0.707271
O30	O	2.117143	-0.029700	-0.207271
O31	O	1.639870	-0.889593	-0.384909
O32	O	2.139870	-0.389593	0.115091
O33	O	1.510893	-0.889445	-0.513959
O34	O	2.010893	-0.389445	-0.013959
C35	C	1.284450	-0.607435	-0.467433
C36	C	1.784450	-0.107435	0.032567
C37	C	1.167675	-0.607459	-0.467447
C38	C	1.667675	-0.107459	0.032553
C39	C	1.578326	-0.935305	-0.446532
C40	C	2.078326	-0.435305	0.053468
C41	C	1.587366	-1.075562	-0.437617
C42	C	2.087366	-0.575562	0.062383
C43	C	1.118027	-0.688217	-0.529379
C44	C	1.618027	-0.188217	-0.029379
C45	C	1.008303	-0.688221	-0.529400
C46	C	1.508303	-0.188221	-0.029400
C47	C	0.997886	-0.526707	-0.405548
C48	C	1.497886	-0.026707	0.094452
C49	C	1.107607	-0.526697	-0.405533
C50	C	1.607607	-0.026697	0.094467
C51	C	1.831453	-0.607467	-0.467473
C52	C	2.331453	-0.107467	0.032527
C53	C	1.948230	-0.607474	-0.467482
C54	C	2.448230	-0.107474	0.032518
C55	C	1.557576	-0.607153	-0.741505
C56	C	2.057576	-0.107153	-0.241505
C57	C	1.557643	-0.607026	-0.858290
C58	C	2.057643	-0.107026	-0.358290
C59	C	1.536459	-0.278316	-0.488478
C60	C	2.036459	0.221684	0.011522
C61	C	1.527527	-0.138058	-0.497438
C62	C	2.027527	0.361942	0.002562
C63	C	1.557317	-0.607655	-0.194472
C64	C	2.057317	-0.107655	0.305528
C65	C	1.557431	-0.607427	-0.077710
C66	C	2.057431	-0.107427	0.422290
C67	C	1.484814	-0.527011	0.081701
C68	C	1.984814	-0.027011	0.581701
C69	C	1.484705	-0.527214	-0.028009
C70	C	1.984705	-0.027214	0.471991
C71	C	1.630263	-0.687451	-0.017693
C72	C	2.130263	-0.187451	0.482307
C73	C	1.630367	-0.687253	0.092016
C74	C	2.130367	-0.187253	0.592016
H75	H	1.166931	-0.753975	-0.579796
H76	H	1.666931	-0.253975	-0.079796
Br77	Br	1.430607	-1.048399	-0.594171
Br78	Br	1.930607	-0.548399	-0.094171
Br79	Br	0.916359	-0.417107	-0.321526
Br80	Br	1.416359	0.082893	0.178474
H81	H	1.645508	-1.129365	-0.379570
H82	H	2.145508	-0.629365	0.120430
Br83	Br	1.386116	-0.418136	0.149141
Br84	Br	1.886116	0.081864	0.649141
H85	H	0.967884	-0.753981	-0.579832
H86	H	1.467884	-0.253981	-0.079832
H87	H	1.689473	-0.752767	-0.058168
H88	H	2.189473	-0.252767	0.441832
Br89	Br	1.385844	-0.418639	-0.109445
Br90	Br	1.885844	0.081361	0.390555
Br91	Br	1.729206	-0.795863	0.173464
Br92	Br	2.229206	-0.295863	0.673464
Br93	Br	1.174993	-0.417076	-0.321488
Br94	Br	1.674993	0.082924	0.178512
