data_functionalizedCrystal
_audit_creation_method	'MofGen! by Chris Wilmer'
_symmetry_space_group_name_H-M	'P1'
_symmetry_Int_Tables_number	1
_symmetry_cell_setting	triclinic
loop_
_symmetry_equiv_pos_as_xyz
  x,y,z
_cell_length_a	14.971482
_cell_length_b	10.489716
_cell_length_c	14.048226
_cell_angle_alpha	89.997629
_cell_angle_beta	89.994098
_cell_angle_gamma	84.070872
loop_
_atom_site_label
_atom_site_type_symbol
_atom_site_fract_x
_atom_site_fract_y
_atom_site_fract_z
O1	O	1.187885	0.166201	-0.079140
O2	O	0.927596	0.186112	-0.079143
O3	O	1.063675	-0.009512	-0.079145
O4	O	1.051806	0.361825	-0.079138
O5	O	1.063658	-0.009524	0.079177
O6	O	0.927580	0.186100	0.079178
O7	O	1.187868	0.166190	0.079182
Zn8	Zn	1.057721	0.176143	0.104317
Zn9	Zn	1.057743	0.176158	-0.104278
O10	O	1.051790	0.361814	0.079183
C11	C	0.894258	0.185217	0.000017
C12	C	0.794946	0.182551	0.000015
C13	C	0.748285	0.181289	0.086317
C14	C	0.654972	0.178764	0.086318
C15	C	0.608321	0.177510	0.000016
C16	C	0.654989	0.178768	-0.086293
C17	C	0.748301	0.181284	-0.086293
C18	C	0.460498	0.173527	-0.086286
C19	C	0.367179	0.171013	-0.086287
C20	C	0.367169	0.171007	0.086324
C21	C	0.460481	0.173523	0.086324
C22	C	0.507142	0.174783	0.000015
C23	C	1.062775	-0.057040	0.000013
C24	C	1.060107	-0.198640	0.000004
C25	C	1.143554	-0.297281	0.000014
C26	C	1.099467	-0.374125	-0.078045
C27	C	1.099431	-0.374100	0.078048
C28	C	1.016054	-0.273618	-0.078119
C29	C	1.016031	-0.273588	0.078044
C30	C	0.971882	-0.350382	-0.000034
C31	C	1.221206	0.167085	0.000020
C32	C	1.320518	0.169751	0.000015
C33	C	1.052690	0.409341	0.000023
C34	C	1.055358	0.550941	0.000026
N35	N	1.057713	0.176132	0.246678
N36	N	1.057758	0.176160	-0.246639
C37	C	1.117988	0.089546	0.296495
C38	C	1.117994	0.089545	0.396153
C39	C	1.057729	0.176138	0.445991
C40	C	0.997447	0.262728	0.396167
C41	C	0.997438	0.262722	0.296511
C42	C	0.997473	0.262738	0.603881
C43	C	0.997484	0.262746	0.703544
C44	C	1.118029	0.089561	0.703523
C45	C	1.118020	0.089554	0.603867
C46	C	1.057739	0.176147	0.554049
H47	H	0.498461	0.174552	0.156599
H48	H	0.616987	0.177715	0.156594
H49	H	0.786261	0.182321	0.156594
O50	O	0.321833	0.169536	0.170145
C51	C	0.277281	0.057703	0.175299
H52	H	0.311999	-0.018678	0.126316
H53	H	0.279393	0.020612	0.251628
H54	H	0.204428	0.080744	0.152123
H55	H	0.616999	0.177737	-0.156561
O56	O	0.973924	-0.221508	-0.156873
C57	C	0.883729	-0.249090	-0.157071
H58	H	0.862084	-0.269441	-0.081242
H59	H	0.839215	-0.163451	-0.186604
H60	H	0.876951	-0.336680	-0.203526
O61	O	0.939041	0.346907	0.555381
C62	C	0.987438	0.425725	0.497738
H63	H	1.057103	0.375083	0.482799
H64	H	0.950229	0.445812	0.427666
H65	H	0.994118	0.520013	0.536136
H66	H	0.498486	0.174553	-0.156568
H67	H	1.167096	0.019050	0.563289
O68	O	0.793715	0.182689	-0.170065
C69	C	0.838242	0.294542	-0.175238
H70	H	0.849068	0.331716	-0.100305
H71	H	0.905985	0.271485	-0.211762
H72	H	0.795682	0.370870	-0.217829
H73	H	1.134668	-0.417986	0.144039
O74	O	0.939025	0.346807	0.752106
C75	C	0.951952	0.328222	0.850746
H76	H	1.022765	0.280727	0.864338
H77	H	0.942612	0.424796	0.888619
H78	H	0.900931	0.264119	0.879046
H79	H	0.329198	0.169993	-0.156562
H80	H	0.899242	-0.373971	-0.000077
H81	H	1.216139	-0.273446	-0.000064
H82	H	1.134700	-0.418023	-0.144038
H83	H	0.980828	-0.229667	0.144039
H84	H	1.167066	0.019037	0.255923
O85	O	1.176641	0.005401	0.444397
C86	C	1.229823	-0.071037	0.379039
H87	H	1.231145	-0.018744	0.307995
H88	H	1.301135	-0.090302	0.407814
H89	H	1.200196	-0.165875	0.368458
O90	O	1.176497	0.005485	0.752057
C91	C	1.163597	0.024070	0.850703
H92	H	1.092789	0.071572	0.864327
H93	H	1.172942	-0.072504	0.888579
H94	H	1.214628	0.088168	0.878971
O95	O	0.938867	0.346668	0.444684
C96	C	0.883248	0.278229	0.502331
H97	H	0.918242	0.178502	0.517258
H98	H	0.869446	0.331440	0.572409
H99	H	0.817084	0.269405	0.463943
H100	H	0.948355	0.333228	0.255950
