data_functionalizedCrystal
_audit_creation_method	'MofGen! by Chris Wilmer'
_symmetry_space_group_name_H-M	'P1'
_symmetry_Int_Tables_number	1
_symmetry_cell_setting	triclinic
loop_
_symmetry_equiv_pos_as_xyz
  x,y,z
_cell_length_a	21.295418
_cell_length_b	21.295417
_cell_length_c	16.120297
_cell_angle_alpha	92.867002
_cell_angle_beta	92.858291
_cell_angle_gamma	90.046319
loop_
_atom_site_label
_atom_site_type_symbol
_atom_site_fract_x
_atom_site_fract_y
_atom_site_fract_z
Zn1	Zn	0.944261	-0.268427	-0.471775
Zn2	Zn	1.444261	0.231573	0.028225
Zn3	Zn	0.949511	-0.368356	-0.332355
Zn4	Zn	1.449511	0.131644	0.167645
Zn5	Zn	0.844332	-0.263133	-0.332334
Zn6	Zn	1.344332	0.236867	0.167666
Zn7	Zn	0.838957	-0.373687	-0.471671
Zn8	Zn	1.338957	0.126313	0.028329
O9	O	0.894265	-0.318401	-0.402034
O10	O	1.394265	0.181599	0.097966
O11	O	1.033045	-0.281667	-0.453332
O12	O	1.533045	0.218333	0.046668
O13	O	0.940005	-0.349951	-0.215692
O14	O	1.440005	0.150049	0.284308
O15	O	0.857640	-0.175747	-0.350866
O16	O	1.357640	0.324253	0.149134
O17	O	1.036902	-0.355085	-0.350901
O18	O	1.536902	0.144915	0.149099
O19	O	0.931057	-0.179637	-0.453312
O20	O	1.431057	0.320363	0.046688
O21	O	0.862731	-0.272644	-0.215677
O22	O	1.362731	0.227356	0.284323
O23	O	0.755532	-0.277814	-0.350766
O24	O	1.255532	0.222186	0.149234
O25	O	0.848480	-0.364171	-0.588345
O26	O	1.348480	0.135829	-0.088345
O27	O	0.751583	-0.359038	-0.453136
O28	O	1.251583	0.140962	0.046864
O29	O	0.925846	-0.286837	-0.588421
O30	O	1.425846	0.213163	-0.088421
O31	O	0.934793	-0.457151	-0.350801
O32	O	1.434793	0.042849	0.149199
O33	O	0.853570	-0.461068	-0.453156
O34	O	1.353570	0.038932	0.046844
C35	C	0.730717	-0.318430	-0.401938
C36	C	1.230717	0.181570	0.098062
C37	C	0.660750	-0.318459	-0.401917
C38	C	1.160750	0.181541	0.098083
C39	C	0.625847	-0.360802	-0.455141
C40	C	1.125847	0.139198	0.044859
C41	C	0.560103	-0.360788	-0.455178
C42	C	1.060103	0.139212	0.044822
C43	C	0.529265	-0.318437	-0.401977
C44	C	1.029265	0.181563	0.098023
C45	C	0.564177	-0.276085	-0.348748
C46	C	1.064177	0.223915	0.151252
C47	C	0.629919	-0.276096	-0.348718
C48	C	1.129919	0.223904	0.151282
N49	N	0.428786	-0.310726	-0.329062
N50	N	0.928786	0.189274	0.170938
N51	N	0.366333	-0.310719	-0.329092
N52	N	0.866333	0.189281	0.170908
C53	C	0.331187	-0.318400	-0.402065
C54	C	0.831187	0.181600	0.097935
N55	N	0.360853	-0.326100	-0.475007
N56	N	0.860853	0.173900	0.024993
N57	N	0.423311	-0.326110	-0.474975
N58	N	0.923311	0.173890	0.025025
C59	C	0.457979	-0.318420	-0.402004
C60	C	0.957979	0.181580	0.097996
C61	C	0.224997	-0.360731	-0.455334
C62	C	0.724997	0.139269	0.044666
C63	C	0.159251	-0.360712	-0.455373
C64	C	0.659251	0.139288	0.044627
C65	C	0.163327	-0.276012	-0.348936
C66	C	0.663327	0.223988	0.151064
C67	C	0.229071	-0.276027	-0.348905
C68	C	0.729071	0.223973	0.151095
C69	C	0.259902	-0.318390	-0.402103
C70	C	0.759902	0.181610	0.097897
C71	C	0.894185	-0.481951	-0.401988
C72	C	1.394185	0.018049	0.098012
C73	C	0.894207	-0.551919	-0.401996
C74	C	1.394207	-0.051919	0.098004
C75	C	0.936533	-0.582727	-0.348754
C76	C	1.436533	-0.082727	0.151246
C77	C	0.936562	-0.648471	-0.348773
C78	C	1.436562	-0.148471	0.151227
C79	C	0.894253	-0.683403	-0.402025
C80	C	1.394253	-0.183403	0.097975
C81	C	0.851923	-0.652587	-0.455276
C82	C	1.351923	-0.152587	0.044724
C83	C	0.851900	-0.586845	-0.455262
C84	C	1.351900	-0.086845	0.044738
N85	N	0.838944	-0.786926	-0.408348
N86	N	1.338944	-0.286926	0.091652
N87	N	0.838968	-0.849378	-0.408356
N88	N	1.338968	-0.349378	0.091644
C89	C	0.894322	-0.881479	-0.402072
C90	C	1.394322	-0.381479	0.097928
N91	N	0.949653	-0.848769	-0.395763
N92	N	1.449653	-0.348769	0.104237
N93	N	0.949628	-0.786311	-0.395750
N94	N	1.449628	-0.286311	0.104250
C95	C	0.894274	-0.754689	-0.402046
C96	C	1.394274	-0.254689	0.097954
C97	C	0.936683	-0.983574	-0.348848
C98	C	1.436683	-0.483574	0.151152
C99	C	0.936713	-1.049318	-0.348873
C100	C	1.436713	-0.549318	0.151127
C101	C	0.852069	-1.053433	-0.455372
C102	C	1.352069	-0.553433	0.044628
C103	C	0.852045	-0.987690	-0.455352
C104	C	1.352045	-0.487690	0.044648
C105	C	0.894351	-0.952764	-0.402085
C106	C	1.394351	-0.452764	0.097915
C107	C	1.058452	-0.318372	-0.402131
C108	C	1.558452	0.181628	0.097869
C109	C	1.128418	-0.318359	-0.402172
C110	C	1.628418	0.181641	0.097828
C111	C	0.885978	-0.326689	-0.619478
C112	C	1.385978	0.173311	-0.119478
C113	C	0.882446	-0.330221	-0.712139
C114	C	1.382446	0.169779	-0.212139
C115	C	0.894363	-0.154213	-0.402098
C116	C	1.394363	0.345787	0.097902
C117	C	0.894404	-0.084246	-0.402126
C118	C	1.394404	0.415754	0.097874
C119	C	0.875975	-0.336656	-0.881793
C120	C	1.375975	0.163344	-0.381793
C121	C	0.912680	-0.299957	-0.923126
C122	C	1.412680	0.200043	-0.423126
C123	C	0.909080	-0.303537	-1.017528
C124	C	1.409080	0.196463	-0.517528
C125	C	0.879574	-0.333077	-0.787383
C126	C	1.379574	0.166923	-0.287383
C127	C	0.902557	-0.310099	-0.185436
C128	C	1.402557	0.189901	0.314564
C129	C	0.906211	-0.306390	-0.092775
C130	C	1.406211	0.193610	0.407225
H131	H	0.257489	-0.241550	-0.305559
H132	H	0.757489	0.258450	0.194441
F133	F	0.257811	-0.405813	-0.511955
F134	F	0.757811	0.094187	-0.011955
F135	F	0.807044	-1.090606	-0.512052
F136	F	1.307044	-0.590606	-0.012052
F137	F	0.831370	-0.381236	-0.928206
F138	F	1.331370	0.118764	-0.428206
H139	H	0.946808	-0.265849	-0.887615
H140	H	1.446808	0.234151	-0.387615
F141	F	0.522949	-0.405858	-0.511830
F142	F	1.022949	0.094142	-0.011830
F143	F	0.658655	-0.405887	-0.511762
F144	F	1.158655	0.094113	-0.011762
H145	H	0.130834	-0.395192	-0.498720
H146	H	0.630834	0.104808	0.001280
H147	H	0.138220	-0.241526	-0.305622
H148	H	0.638220	0.258474	0.194378
H149	H	0.658337	-0.241613	-0.305377
H150	H	1.158337	0.258387	0.194623
F151	F	0.531356	-0.231009	-0.292131
F152	F	1.031356	0.268991	0.207869
F153	F	0.981566	-0.545561	-0.292072
F154	F	1.481566	-0.045561	0.207928
F155	F	0.981613	-0.681266	-0.292103
F156	F	1.481613	-0.181266	0.207897
F157	F	0.981769	-1.082107	-0.292208
F158	F	1.481769	-0.582107	0.207792
H159	H	0.817576	-0.962604	-0.498703
H160	H	1.317576	-0.462604	0.001297
H161	H	0.817477	-0.681033	-0.498636
H162	H	1.317477	-0.181033	0.001364
H163	H	0.971134	-0.955136	-0.305478
H164	H	1.471134	-0.455136	0.194522
F165	F	0.806848	-0.554056	-0.511931
F166	F	1.306848	-0.054056	-0.011931
