data_functionalizedCrystal
_audit_creation_method	'MofGen! by Chris Wilmer'
_symmetry_space_group_name_H-M	'P1'
_symmetry_Int_Tables_number	1
_symmetry_cell_setting	triclinic
loop_
_symmetry_equiv_pos_as_xyz
  x,y,z
_cell_length_a	13.635800
_cell_length_b	10.992668
_cell_length_c	11.102291
_cell_angle_alpha	88.109270
_cell_angle_beta	108.605752
_cell_angle_gamma	71.230658
loop_
_atom_site_label
_atom_site_type_symbol
_atom_site_fract_x
_atom_site_fract_y
_atom_site_fract_z
V1	V	2.056200	-0.177780	0.396254
O2	O	2.035265	0.008526	0.388716
O3	O	2.045011	-0.352491	0.393538
O4	O	2.044586	-0.175052	0.569076
O5	O	2.035694	-0.170141	0.211963
V6	V	2.294697	-0.155494	0.374212
O7	O	2.193990	-0.226664	0.444605
O8	O	2.382006	-0.106610	0.325861
O9	O	2.194282	0.019217	0.376927
O10	O	2.374330	-0.341800	0.381749
O11	O	2.373902	-0.163133	0.558502
O12	O	2.194708	-0.158222	0.201389
V13	V	2.556200	-0.177780	0.396254
O14	O	2.535265	0.008526	0.388716
O15	O	2.545011	-0.352491	0.393538
O16	O	2.544586	-0.175052	0.569076
O17	O	2.535694	-0.170141	0.211963
V18	V	2.794697	-0.155494	0.374212
O19	O	2.693990	-0.226664	0.444605
O20	O	2.882006	-0.106610	0.325861
O21	O	2.694282	0.019217	0.376927
O22	O	2.874330	-0.341800	0.381749
O23	O	2.873902	-0.163133	0.558502
O24	O	2.694708	-0.158222	0.201389
C25	C	1.970270	-0.395082	0.387286
C26	C	2.001849	-0.537911	0.386218
C27	C	2.125072	-0.600219	0.393467
C28	C	2.157825	-0.748705	0.391853
C29	C	1.959761	-0.718277	0.259150
C30	C	1.927625	-0.569708	0.260231
C31	C	1.988825	-0.607746	0.502933
C32	C	2.024155	-0.756760	0.503542
C33	C	1.969726	-0.168739	0.611200
C34	C	2.000958	-0.167665	0.752483
C35	C	2.100695	0.061801	0.383176
C36	C	2.058735	0.204629	0.384252
C37	C	2.101238	-0.164539	0.159259
C38	C	2.059625	-0.165606	0.017974
C39	C	2.470270	-0.395082	0.387286
C40	C	2.501849	-0.537911	0.386218
C41	C	2.469726	-0.168739	0.611200
C42	C	2.500958	-0.167665	0.752483
C43	C	2.107649	-0.173569	0.825331
C44	C	2.136983	-0.172535	0.958077
C45	C	1.952923	-0.159698	0.945116
C46	C	1.923589	-0.160723	0.812371
C47	C	2.213916	-0.180985	0.832816
C48	C	2.243250	-0.179951	0.965562
C49	C	2.600695	0.061801	0.383176
C50	C	2.558735	0.204629	0.384252
C51	C	2.601238	-0.164539	0.159259
C52	C	2.559625	-0.165606	0.017974
C53	C	2.608704	-0.611556	0.392056
C54	C	2.638373	-0.745761	0.391063
C55	C	2.454319	-0.732660	0.378389
C56	C	2.424654	-0.598460	0.379391
C57	C	2.714966	-0.619120	0.399368
C58	C	2.744635	-0.753324	0.398375
C59	C	2.607649	-0.173569	0.825331
C60	C	2.636983	-0.172535	0.958077
C61	C	2.452923	-0.159698	0.945116
C62	C	2.423589	-0.160723	0.812371
C63	C	2.713916	-0.180985	0.832816
C64	C	2.743250	-0.179951	0.965562
H65	H	2.232027	-0.802038	0.481789
N66	N	2.767132	-0.059138	1.004150
H67	H	2.714615	-0.010522	1.047463
H68	H	2.757113	-0.001608	0.925106
H69	H	2.183656	-0.581380	0.484011
H70	H	2.770853	-0.599693	0.491798
H71	H	1.953202	-0.789307	0.505383
H72	H	2.137467	-0.552212	0.309598
N73	N	2.119005	-0.826070	0.626139
H74	H	2.184106	-0.882254	0.604512
H75	H	2.095496	-0.882339	0.676703
H76	H	2.261260	-0.088726	0.994666
N77	N	2.714521	-0.547780	0.280506
H78	H	2.736173	-0.612024	0.222365
H79	H	2.768949	-0.500803	0.306135
N80	N	2.838717	-0.303003	1.035565
H81	H	2.816107	-0.352623	1.093636
H82	H	2.903806	-0.280061	1.088829
N83	N	2.195589	-0.781576	0.279238
H84	H	2.190992	-0.699552	0.230447
H85	H	2.146567	-0.823122	0.220361
H86	H	2.810682	-0.811828	0.492528
N87	N	1.937344	-0.508313	0.142887
H88	H	1.962474	-0.577831	0.090979
H89	H	1.992882	-0.463015	0.170491
H90	H	1.836729	-0.527098	0.249699
H91	H	1.836714	-0.155918	0.753063
H92	H	2.261846	-0.276801	0.808349
N93	N	2.056981	-0.580775	0.628789
H94	H	2.112686	-0.665408	0.682833
H95	H	2.006863	-0.535806	0.676332
H96	H	2.315323	-0.272851	1.018406
N97	N	2.726508	-0.065462	0.770421
H98	H	2.705355	-0.066157	0.674649
H99	H	2.805837	-0.070265	0.807494
N100	N	1.870424	-0.553678	0.497376
H101	H	1.825408	-0.484292	0.419679
H102	H	1.867622	-0.514769	0.577894
N103	N	2.226530	-0.065479	0.770420
H104	H	2.253311	-0.013189	0.838322
H105	H	2.152812	-0.009236	0.705562
H106	H	1.889936	-0.154044	0.993893
H107	H	2.337648	-0.538504	0.374652
H108	H	2.391474	-0.781976	0.372832
H109	H	2.770349	-0.778563	0.311559
H110	H	1.884663	-0.747099	0.249063
H111	H	2.336714	-0.155918	0.753063
H112	H	2.389936	-0.154044	0.993893
N113	N	2.777402	-0.307893	0.800390
H114	H	2.829653	-0.368458	0.882360
H115	H	2.820983	-0.291002	0.747435
H116	H	1.982560	-0.743874	0.170592
