data_functionalizedCrystal
_audit_creation_method	'MofGen! by Chris Wilmer'
_symmetry_space_group_name_H-M	'P1'
_symmetry_Int_Tables_number	1
_symmetry_cell_setting	triclinic
loop_
_symmetry_equiv_pos_as_xyz
  x,y,z
_cell_length_a	16.120530
_cell_length_b	29.839131
_cell_length_c	16.120297
_cell_angle_alpha	92.867727
_cell_angle_beta	90.128140
_cell_angle_gamma	87.136742
loop_
_atom_site_label
_atom_site_type_symbol
_atom_site_fract_x
_atom_site_fract_y
_atom_site_fract_z
Zn1	Zn	1.247310	-0.227600	-0.534529
Zn2	Zn	1.747310	0.272400	-0.034529
Zn3	Zn	1.254220	-0.299116	-0.395460
Zn4	Zn	1.754220	0.200884	0.104540
Zn5	Zn	1.115305	-0.220008	-0.388448
Zn6	Zn	1.615305	0.279992	0.111552
Zn7	Zn	1.108176	-0.298702	-0.527429
Zn8	Zn	1.608176	0.201298	-0.027429
O9	O	1.181253	-0.261356	-0.461466
O10	O	1.681253	0.238644	0.038534
O11	O	1.364591	-0.240437	-0.521987
O12	O	1.864591	0.259563	-0.021987
O13	O	1.241667	-0.285618	-0.278165
O14	O	1.741667	0.214382	0.221835
O15	O	1.132907	-0.158152	-0.407863
O16	O	1.632907	0.341848	0.092137
O17	O	1.369668	-0.292979	-0.419813
O18	O	1.869668	0.207021	0.080187
O19	O	1.229891	-0.163729	-0.515187
O20	O	1.729891	0.336271	-0.015187
O21	O	1.139607	-0.227498	-0.273013
O22	O	1.639607	0.272502	0.226987
O23	O	0.997995	-0.227097	-0.400978
O24	O	1.497995	0.272903	0.099022
O25	O	1.120758	-0.292274	-0.644736
O26	O	1.620758	0.207726	-0.144736
O27	O	0.992758	-0.284913	-0.503087
O28	O	1.492758	0.215087	-0.003087
O29	O	1.222979	-0.240035	-0.649952
O30	O	1.722979	0.259965	-0.149952
O31	O	1.234755	-0.361925	-0.412929
O32	O	1.734755	0.138075	0.087071
O33	O	1.127458	-0.361621	-0.509886
O34	O	1.627458	0.138379	-0.009886
C35	C	0.965204	-0.255137	-0.450502
C36	C	1.465204	0.244863	0.049498
C37	C	0.872777	-0.252487	-0.445831
C38	C	1.372777	0.247513	0.054169
C39	C	0.703550	-0.247640	-0.437311
C40	C	1.203550	0.252360	0.062689
C41	C	0.659793	-0.275108	-0.485683
C42	C	1.159793	0.224892	0.014317
C43	C	0.565629	-0.272411	-0.480942
C44	C	1.065629	0.227589	0.019058
C45	C	0.797722	-0.250336	-0.442050
C46	C	1.297722	0.249664	0.057950
C47	C	1.181105	-0.378074	-0.461418
C48	C	1.681105	0.121926	0.038582
C49	C	1.181116	-0.428009	-0.461428
C50	C	1.681116	0.071991	0.038572
C51	C	1.237215	-0.737807	-0.411063
C52	C	1.737215	-0.237807	0.088937
C53	C	1.237316	-0.925484	-0.411101
C54	C	1.737316	-0.425484	0.088899
O55	O	1.284896	-0.949877	-0.368241
O56	O	1.784896	-0.449877	0.131759
N57	N	1.181422	-0.948805	-0.461538
N58	N	1.681422	-0.448805	0.038462
C59	C	1.125502	-0.925204	-0.511973
C60	C	1.625502	-0.425204	-0.011973
O61	O	1.077969	-0.949347	-0.554880
O62	O	1.577969	-0.449347	-0.054880
C63	C	1.125406	-0.737528	-0.511940
C64	C	1.625406	-0.237528	-0.011940
C65	C	1.181298	-0.714210	-0.461493
C66	C	1.681298	-0.214210	0.038507
C67	C	1.293104	-0.714488	-0.360622
C68	C	1.793104	-0.214488	0.139378
C69	C	1.293075	-0.667572	-0.360609
C70	C	1.793075	-0.167572	0.139391
C71	C	1.237158	-0.643974	-0.411039
C72	C	1.737158	-0.143974	0.088961
C73	C	1.181269	-0.667293	-0.461481
C74	C	1.681269	-0.167293	0.038519
C75	C	1.069491	-0.713929	-0.562379
C76	C	1.569491	-0.213929	-0.062379
C77	C	1.069473	-0.667007	-0.562367
C78	C	1.569473	-0.167007	-0.062367
C79	C	1.125365	-0.643688	-0.511921
C80	C	1.625365	-0.143688	-0.011921
C81	C	1.125323	-0.596779	-0.511898
C82	C	1.625323	-0.096779	-0.011898
N83	N	1.181217	-0.573458	-0.461461
N84	N	1.681217	-0.073458	0.038539
C85	C	1.237135	-0.597055	-0.411031
C86	C	1.737135	-0.097055	0.088969
C87	C	1.125556	-1.023737	-0.511986
C88	C	1.625556	-0.523737	-0.011986
C89	C	1.125579	-1.070655	-0.511994
C90	C	1.625579	-0.570655	-0.011994
C91	C	1.237394	-1.070932	-0.411122
C92	C	1.737394	-0.570932	0.088878
C93	C	1.237366	-1.024012	-0.411111
C94	C	1.737366	-0.524012	0.088889
C95	C	1.181450	-1.000416	-0.461549
C96	C	1.681450	-0.500416	0.038451
C97	C	1.237069	-0.498527	-0.411009
C98	C	1.737069	0.001473	0.088991
C99	C	1.237033	-0.451606	-0.410999
C100	C	1.737033	0.048394	0.089001
C101	C	1.125221	-0.451334	-0.511873
C102	C	1.625221	0.048666	-0.011873
C103	C	1.125254	-0.498251	-0.511880
C104	C	1.625254	0.001749	-0.011880
C105	C	1.181185	-0.521846	-0.461446
C106	C	1.681185	-0.021846	0.038554
O107	O	1.077774	-0.572358	-0.554742
O108	O	1.577774	-0.072358	-0.054742
O109	O	1.284673	-0.572905	-0.368145
O110	O	1.784673	-0.072905	0.131855
C111	C	1.237244	-0.784724	-0.411076
C112	C	1.737244	-0.284724	0.088924
C113	C	1.181356	-0.808043	-0.461517
C114	C	1.681356	-0.308043	0.038483
C115	C	1.125439	-0.784445	-0.511947
C116	C	1.625439	-0.284445	-0.011947
C117	C	1.181379	-0.854961	-0.461525
C118	C	1.681379	-0.354961	0.038475
C119	C	1.237296	-0.878559	-0.411095
C120	C	1.737296	-0.378559	0.088905
C121	C	1.293190	-0.855238	-0.360658
C122	C	1.793190	-0.355238	0.139342
C123	C	1.293161	-0.808322	-0.360646
C124	C	1.793161	-0.308322	0.139354
C125	C	1.069544	-0.807766	-0.562384
C126	C	1.569544	-0.307766	-0.062384
C127	C	1.069577	-0.854683	-0.562391
C128	C	1.569577	-0.354683	-0.062391
C129	C	1.125494	-0.878280	-0.511962
C130	C	1.625494	-0.378280	-0.011962
C131	C	1.398145	-0.267601	-0.472474
C132	C	1.898145	0.232399	0.027526
C133	C	1.490571	-0.270262	-0.477165
C134	C	1.990571	0.229738	0.022835
C135	C	1.170302	-0.266955	-0.678360
C136	C	1.670302	0.233045	-0.178360
C137	C	1.165636	-0.269341	-0.770787
C138	C	1.665636	0.230659	-0.270787
C139	C	1.181423	-0.144185	-0.461535
C140	C	1.681423	0.355815	0.038465
C141	C	1.181496	-0.094253	-0.461564
C142	C	1.681496	0.405747	0.038436
C143	C	1.157086	-0.273687	-0.940011
C144	C	1.657086	0.226313	-0.440011
C145	C	1.205584	-0.248896	-0.983782
C146	C	1.705584	0.251104	-0.483782
C147	C	1.200826	-0.251314	-1.077944
C148	C	1.700826	0.248686	-0.577944
C149	C	1.161842	-0.271269	-0.845840
C150	C	1.661842	0.228731	-0.345840
C151	C	1.192208	-0.255748	-0.245419
C152	C	1.692208	0.244252	0.254581
C153	C	1.197036	-0.253240	-0.153001
C154	C	1.697036	0.246760	0.346999
H155	H	1.282547	-0.432622	-0.369916
H156	H	1.782547	0.067378	0.130084
O157	O	1.291851	-1.093801	-0.362187
O158	O	1.791851	-0.593801	0.137813
C159	C	1.373769	-1.085134	-0.384682
C160	C	1.873769	-0.585134	0.115318
H161	H	1.373796	-1.051936	-0.416738
H162	H	1.873796	-0.551936	0.083262
H163	H	1.414156	-1.083033	-0.326611
H164	H	1.914156	-0.583033	0.173389
H165	H	1.399597	-1.113422	-0.428887
H166	H	1.899597	-0.613422	0.071113
H167	H	1.111997	-0.296725	-0.973252
H168	H	1.611997	0.203275	-0.473252
H169	H	1.338718	-0.874459	-0.319594
H170	H	1.838718	-0.374459	0.180406
H171	H	0.670294	-0.222100	-0.392340
H172	H	1.170294	0.277900	0.107660
H173	H	1.250676	-0.225857	-0.950538
H174	H	1.750676	0.274143	-0.450538
H175	H	1.282615	-0.517733	-0.369942
H176	H	1.782615	-0.017733	0.130058
H177	H	1.338589	-0.648588	-0.319534
H178	H	1.838589	-0.148588	0.180466
O179	O	1.015334	-0.784833	-0.611466
O180	O	1.515334	-0.284833	-0.111466
C181	C	1.059889	-0.760392	-0.667601
C182	C	1.559889	-0.260392	-0.167601
H183	H	1.125127	-0.776504	-0.676122
H184	H	1.625127	-0.276504	-0.176122
H185	H	1.026525	-0.760654	-0.730039
H186	H	1.526525	-0.260654	-0.230039
H187	H	1.064042	-0.724254	-0.642036
H188	H	1.564042	-0.224254	-0.142036
H189	H	1.080058	-1.089637	-0.553064
H190	H	1.580058	-0.589637	-0.053064
H191	H	1.338643	-0.733697	-0.319556
H192	H	1.838643	-0.233697	0.180444
O193	O	0.699595	-0.305569	-0.539264
O194	O	1.199595	0.194431	-0.039264
C195	C	0.786114	-0.301511	-0.532138
C196	C	1.286114	0.198489	-0.032138
H197	H	0.801111	-0.285417	-0.468597
H198	H	1.301111	0.214583	0.031403
H199	H	0.818878	-0.336237	-0.539291
H200	H	1.318878	0.163763	-0.039291
H201	H	0.808315	-0.279599	-0.582764
H202	H	1.308315	0.220401	-0.082764
O203	O	1.291628	-1.001407	-0.361994
O204	O	1.791628	-0.501407	0.138006
C205	C	1.277695	-1.010230	-0.278184
C206	C	1.777695	-0.510230	0.221816
H207	H	1.245829	-1.043347	-0.274821
H208	H	1.745829	-0.543347	0.225179
H209	H	1.339619	-1.012579	-0.243992
H210	H	1.839619	-0.512579	0.256008
H211	H	1.236373	-0.981898	-0.247967
H212	H	1.736373	-0.481898	0.252033
O213	O	1.071148	-1.000886	-0.561001
O214	O	1.571148	-0.500886	-0.061001
C215	C	1.021838	-1.031537	-0.605526
C216	C	1.521838	-0.531537	-0.105526
H217	H	1.020737	-1.064027	-0.571318
H218	H	1.520737	-0.564027	-0.071318
H219	H	0.955858	-1.016364	-0.611010
H220	H	1.455858	-0.516364	-0.111010
H221	H	1.049045	-1.039004	-0.670251
H222	H	1.549045	-0.539004	-0.170251
H223	H	1.079744	-0.517238	-0.552961
H224	H	1.579744	-0.017238	-0.052961
O225	O	1.015168	-0.736505	-0.611464
O226	O	1.515168	-0.236505	-0.111464
C227	C	0.965808	-0.705606	-0.655954
C228	C	1.465808	-0.205606	-0.155954
H229	H	0.999709	-0.673198	-0.660567
H230	H	1.499709	-0.173198	-0.160567
H231	H	0.953589	-0.720582	-0.721019
H232	H	1.453589	-0.220582	-0.221019
H233	H	0.904212	-0.698054	-0.622252
H234	H	1.404212	-0.198054	-0.122252
O235	O	1.015247	-0.877264	-0.611475
O236	O	1.515247	-0.377264	-0.111475
C237	C	0.965879	-0.846368	-0.655965
C238	C	1.465879	-0.346368	-0.155965
H239	H	0.999773	-0.813957	-0.660580
H240	H	1.499773	-0.313957	-0.160580
H241	H	0.953662	-0.861345	-0.721030
H242	H	1.453662	-0.361345	-0.221030
H243	H	0.904283	-0.838819	-0.622262
H244	H	1.404283	-0.338819	-0.122262
H245	H	1.079691	-0.432113	-0.552930
H246	H	1.579691	0.067887	-0.052930
O247	O	1.015268	-0.644070	-0.611458
O248	O	1.515268	-0.144070	-0.111458
C249	C	1.059839	-0.619631	-0.667583
C250	C	1.559839	-0.119631	-0.167583
H251	H	1.125075	-0.635748	-0.676095
H252	H	1.625075	-0.135748	-0.176095
H253	H	1.026486	-0.619889	-0.730026
H254	H	1.526486	-0.119889	-0.230026
H255	H	1.063998	-0.583495	-0.642014
H256	H	1.563998	-0.083495	-0.142014
O257	O	1.347539	-0.785744	-0.311623
O258	O	1.847539	-0.285744	0.188377
C259	C	1.396878	-0.816640	-0.267106
C260	C	1.896878	-0.316640	0.232894
H261	H	1.398019	-0.851037	-0.301327
H262	H	1.898019	-0.351037	0.198673
H263	H	1.462844	-0.804711	-0.261610
H264	H	1.962844	-0.304711	0.238390
H265	H	1.369671	-0.819157	-0.202386
H266	H	1.869671	-0.319157	0.297614
