data_functionalizedCrystal
_audit_creation_method	'MofGen! by Chris Wilmer'
_symmetry_space_group_name_H-M	'P1'
_symmetry_Int_Tables_number	1
_symmetry_cell_setting	triclinic
loop_
_symmetry_equiv_pos_as_xyz
  x,y,z
_cell_length_a	14.971491
_cell_length_b	11.792254
_cell_length_c	13.448316
_cell_angle_alpha	89.993237
_cell_angle_beta	89.991393
_cell_angle_gamma	83.907416
loop_
_atom_site_label
_atom_site_type_symbol
_atom_site_fract_x
_atom_site_fract_y
_atom_site_fract_z
O1	O	1.187543	0.147936	-0.082735
O2	O	0.927215	0.165643	-0.082728
O3	O	1.063690	-0.008421	-0.082724
O4	O	1.051067	0.322000	-0.082738
O5	O	1.063673	-0.008431	0.082659
O6	O	0.927197	0.165632	0.082656
O7	O	1.187525	0.147926	0.082649
Cu8	Cu	1.057360	0.156778	0.097753
Cu9	Cu	1.057380	0.156790	-0.097832
O10	O	1.051050	0.321989	0.082646
C11	C	0.893878	0.164844	-0.000035
C12	C	0.794572	0.162468	-0.000032
C13	C	0.366834	0.152221	-0.090205
C14	C	0.460143	0.154450	-0.090201
C15	C	0.506784	0.155566	-0.000047
C16	C	0.460112	0.154442	0.090109
C17	C	0.366805	0.152205	0.090104
C18	C	0.654593	0.159108	0.090113
C19	C	0.747906	0.161347	0.090118
C20	C	0.747931	0.161353	-0.090193
C21	C	0.654624	0.159116	-0.090198
C22	C	0.607958	0.157994	-0.000041
C23	C	1.062886	-0.050712	-0.000033
C24	C	1.060506	-0.176709	-0.000034
C25	C	1.058572	-0.279033	-0.000037
C26	C	1.056154	-0.407405	-0.000046
C27	C	1.220862	0.148724	-0.000046
C28	C	1.320168	0.151100	-0.000056
C29	C	1.051854	0.364280	-0.000048
C30	C	1.054234	0.490278	-0.000054
N31	N	1.057352	0.156768	0.235318
N32	N	1.057395	0.156791	-0.235396
C33	C	1.117802	0.079725	0.287359
C34	C	1.117808	0.079724	0.391463
C35	C	1.057367	0.156773	0.443522
C36	C	0.996910	0.233820	0.391473
C37	C	0.996901	0.233814	0.287372
C38	C	0.996935	0.233827	0.608453
C39	C	0.996945	0.233835	0.712562
C40	C	1.117842	0.079737	0.712544
C41	C	1.117833	0.079731	0.608443
C42	C	1.057377	0.156780	0.556401
H43	H	0.616651	0.158215	-0.163609
C44	C	1.184317	-0.005019	0.551172
C45	C	1.252923	0.039479	0.479577
C46	C	1.319406	-0.045274	0.422304
C47	C	1.317283	-0.174525	0.436627
C48	C	1.248674	-0.219030	0.508225
C49	C	1.182191	-0.134277	0.565498
H50	H	1.254497	0.135164	0.468971
H51	H	1.370194	-0.012329	0.369302
H52	H	1.366497	-0.237265	0.394230
H53	H	1.247100	-0.314715	0.518831
H54	H	1.131403	-0.167223	0.618500
C55	C	0.799235	0.162583	0.189272
C56	C	0.853697	0.262612	0.214027
C57	C	0.905036	0.263856	0.313175
C58	C	0.901914	0.165070	0.387568
C59	C	0.847450	0.065033	0.362815
C60	C	0.796111	0.063790	0.263667
H61	H	0.856010	0.335746	0.158955
H62	H	0.945354	0.337911	0.331498
H63	H	0.939919	0.165991	0.460963
H64	H	0.845137	-0.008101	0.417887
H65	H	0.755793	-0.010265	0.245343
H66	H	1.167030	0.016988	0.433835
C67	C	0.315470	0.150975	0.189271
C68	C	0.261001	0.050954	0.214071
C69	C	0.209668	0.049718	0.313241
C70	C	0.212803	0.148503	0.387611
C71	C	0.267273	0.248532	0.362813
C72	C	0.318607	0.249768	0.263643
H73	H	0.258679	-0.022180	0.159017
H74	H	0.169345	-0.024331	0.331598
H75	H	0.174803	0.147588	0.461022
H76	H	0.269596	0.321665	0.417867
H77	H	0.358930	0.323816	0.245286
H78	H	1.167024	0.016987	0.244979
C79	C	0.511470	0.155687	-0.189372
C80	C	0.508317	0.056908	-0.263744
C81	C	0.559640	0.058142	-0.362921
C82	C	0.614116	0.158155	-0.387725
C83	C	0.617270	0.256942	-0.313351
C84	C	0.565947	0.255708	-0.214174
H85	H	0.467989	-0.017135	-0.245384
H86	H	0.557305	-0.014987	-0.417978
H87	H	0.652108	0.159069	-0.461142
H88	H	0.657598	0.330985	-0.331710
H89	H	0.568283	0.328837	-0.159117
C90	C	0.603255	0.157880	0.189284
C91	C	0.606391	0.256674	0.263644
C92	C	0.555052	0.255456	0.362811
C93	C	0.500576	0.155443	0.387618
C94	C	0.497438	0.056642	0.313255
C95	C	0.548778	0.057860	0.214088
H96	H	0.646719	0.330716	0.245282
H97	H	0.557375	0.328596	0.417859
H98	H	0.462571	0.154541	0.461027
H99	H	0.457110	-0.017401	0.331617
H100	H	0.546455	-0.015280	0.159040
H101	H	0.328865	0.151320	-0.163619
C102	C	1.184340	-0.005022	0.769788
C103	C	1.184348	-0.005024	0.884296
C104	C	1.250847	-0.089774	0.941546
C105	C	1.317338	-0.174521	0.884290
C106	C	1.317333	-0.174523	0.769776
C107	C	1.250834	-0.089773	0.712525
H108	H	1.135125	0.057715	0.926686
H109	H	1.250850	-0.089772	1.026317
H110	H	1.366564	-0.237258	0.926670
H111	H	1.366556	-0.237261	0.727385
H112	H	1.250831	-0.089774	0.627754
H113	H	0.498095	0.155343	0.163514
C114	C	0.930452	0.318583	0.769824
C115	C	0.863948	0.403319	0.712577
C116	C	0.797453	0.488069	0.769838
C117	C	0.797462	0.488082	0.884345
C118	C	0.863969	0.403343	0.941599
C119	C	0.930464	0.318593	0.884338
H120	H	0.863938	0.403312	0.627807
H121	H	0.748220	0.550798	0.727454
H122	H	0.748239	0.550819	0.926733
H123	H	0.863979	0.403350	1.026370
H124	H	0.979697	0.255864	0.926722
C125	C	0.799256	0.162573	-0.189371
C126	C	0.873075	0.065622	-0.214161
C127	C	0.924402	0.066843	-0.313335
C128	C	0.901911	0.165016	-0.387720
C129	C	0.828088	0.261974	-0.362933
C130	C	0.776761	0.260753	-0.263758
H131	H	0.889727	-0.007058	-0.159095
H132	H	0.979050	-0.004932	-0.331685
H133	H	0.939906	0.165921	-0.461136
H134	H	0.811436	0.334654	-0.417998
H135	H	0.722113	0.332528	-0.245409
H136	H	0.947702	0.296565	0.566084
H137	H	0.947693	0.296551	0.433866
H138	H	0.947675	0.296550	0.245000
