data_functionalizedCrystal
_audit_creation_method	'MofGen! by Chris Wilmer'
_symmetry_space_group_name_H-M	'P1'
_symmetry_Int_Tables_number	1
_symmetry_cell_setting	triclinic
loop_
_symmetry_equiv_pos_as_xyz
  x,y,z
_cell_length_a	19.188930
_cell_length_b	14.519709
_cell_length_c	12.996460
_cell_angle_alpha	89.998766
_cell_angle_beta	89.979925
_cell_angle_gamma	83.412462
loop_
_atom_site_label
_atom_site_type_symbol
_atom_site_fract_x
_atom_site_fract_y
_atom_site_fract_z
O1	O	-0.926557	-0.115129	0.085900
O2	O	-0.676557	0.134871	0.335900
O3	O	-0.426557	0.384871	0.585900
O4	O	-0.176557	0.634871	0.835900
O5	O	-0.723301	-0.130628	0.085830
O6	O	-0.473301	0.119372	0.335830
O7	O	-0.223301	0.369372	0.585830
O8	O	0.026699	0.619372	0.835830
O9	O	-0.830318	0.011393	0.085857
O10	O	-0.580318	0.261393	0.335857
O11	O	-0.330318	0.511393	0.585857
O12	O	-0.080318	0.761393	0.835857
O13	O	-0.819540	-0.257151	0.085872
O14	O	-0.569540	-0.007151	0.335872
O15	O	-0.319540	0.242849	0.585872
O16	O	-0.069540	0.492849	0.835872
O17	O	-0.830304	0.011385	-0.085276
O18	O	-0.580304	0.261385	0.164724
O19	O	-0.330304	0.511385	0.414724
O20	O	-0.080304	0.761385	0.664724
O21	O	-0.723287	-0.130637	-0.085304
O22	O	-0.473287	0.119363	0.164696
O23	O	-0.223287	0.369363	0.414696
O24	O	0.026713	0.619363	0.664696
O25	O	-0.926543	-0.115137	-0.085234
O26	O	-0.676543	0.134863	0.164766
O27	O	-0.426543	0.384863	0.414766
O28	O	-0.176543	0.634863	0.664766
Cu29	Cu	-0.824914	-0.122888	-0.100895
Cu30	Cu	-0.574914	0.127112	0.149105
Cu31	Cu	-0.324914	0.377112	0.399105
Cu32	Cu	-0.074914	0.627112	0.649105
Cu33	Cu	-0.824930	-0.122878	0.101491
Cu34	Cu	-0.574930	0.127122	0.351491
Cu35	Cu	-0.324930	0.377122	0.601491
Cu36	Cu	-0.074930	0.627122	0.851491
O37	O	-0.819526	-0.257159	-0.085262
O38	O	-0.569526	-0.007159	0.164738
O39	O	-0.319526	0.242841	0.414738
O40	O	-0.069526	0.492841	0.664738
C41	C	-0.697281	-0.130130	0.000254
C42	C	-0.447281	0.119870	0.250254
C43	C	-0.197281	0.369870	0.500254
C44	C	0.052719	0.619870	0.750254
C45	C	-0.619771	-0.128624	0.000227
C46	C	-0.369771	0.121376	0.250227
C47	C	-0.119771	0.371376	0.500227
C48	C	0.130229	0.621376	0.750227
C49	C	-0.829809	0.045746	0.000290
C50	C	-0.579809	0.295746	0.250290
C51	C	-0.329809	0.545746	0.500290
C52	C	-0.079809	0.795746	0.750290
C53	C	-0.828304	0.148118	0.000289
C54	C	-0.578304	0.398118	0.250289
C55	C	-0.328304	0.648118	0.500289
C56	C	-0.078304	0.898118	0.750289
C57	C	-0.952563	-0.115635	0.000344
C58	C	-0.702563	0.134365	0.250344
C59	C	-0.452563	0.384365	0.500344
C60	C	-0.202563	0.634365	0.750344
C61	C	-1.030073	-0.117142	0.000378
C62	C	-0.780073	0.132858	0.250378
C63	C	-0.530073	0.382858	0.500378
C64	C	-0.280073	0.632858	0.750378
C65	C	-0.575144	-0.211957	0.000247
C66	C	-0.325144	0.038043	0.250247
C67	C	-0.075144	0.288043	0.500247
C68	C	0.174856	0.538043	0.750247
C69	C	-0.502315	-0.210542	0.000259
C70	C	-0.252315	0.039458	0.250259
C71	C	-0.002315	0.289458	0.500259
C72	C	0.247685	0.539458	0.750259
C73	C	-0.474117	-0.125788	0.000270
C74	C	-0.224117	0.124212	0.250270
C75	C	0.025883	0.374212	0.500270
C76	C	0.275883	0.624212	0.750270
C77	C	-0.518754	-0.042443	0.000243
C78	C	-0.268754	0.207557	0.250243
C79	C	-0.018754	0.457557	0.500243
C80	C	0.231246	0.707557	0.750243
C81	C	-0.591581	-0.043861	0.000222
C82	C	-0.341581	0.206139	0.250222
C83	C	-0.091581	0.456139	0.500222
C84	C	0.158419	0.706139	0.750222
N85	N	-0.365911	-0.061001	0.058552
N86	N	-0.115911	0.188999	0.308552
N87	N	0.134089	0.438999	0.558552
N88	N	0.384089	0.688999	0.808552
N89	N	-0.296727	-0.059660	0.058575
N90	N	-0.046727	0.190340	0.308575
N91	N	0.203273	0.440340	0.558575
N92	N	0.453273	0.690340	0.808575
C93	C	-0.254693	-0.121511	0.000332
C94	C	-0.004693	0.128489	0.250332
C95	C	0.245307	0.378489	0.500332
C96	C	0.495307	0.628489	0.750332
N97	N	-0.284454	-0.184768	-0.057920
N98	N	-0.034454	0.065232	0.192080
N99	N	0.215546	0.315232	0.442080
N100	N	0.465546	0.565232	0.692080
N101	N	-0.353644	-0.186112	-0.057938
N102	N	-0.103644	0.063888	0.192062
N103	N	0.146356	0.313888	0.442062
N104	N	0.396356	0.563888	0.692062
C105	C	-0.395149	-0.124241	0.000292
C106	C	-0.145149	0.125759	0.250292
C107	C	0.104851	0.375759	0.500292
C108	C	0.354851	0.625759	0.750292
C109	C	-0.131096	-0.203315	0.000364
C110	C	0.118904	0.046685	0.250364
C111	C	0.368904	0.296685	0.500364
C112	C	0.618904	0.546685	0.750364
C113	C	-0.058266	-0.201896	0.000369
C114	C	0.191734	0.048104	0.250369
C115	C	0.441734	0.298104	0.500369
C116	C	0.691734	0.548104	0.750369
C117	C	-0.074706	-0.033796	0.000364
C118	C	0.175294	0.216204	0.250364
C119	C	0.425294	0.466204	0.500364
C120	C	0.675294	0.716204	0.750364
C121	C	-0.147535	-0.035217	0.000348
C122	C	0.102465	0.214783	0.250348
C123	C	0.352465	0.464783	0.500348
C124	C	0.602465	0.714783	0.750348
C125	C	-0.175725	-0.119979	0.000353
C126	C	0.074275	0.130021	0.250353
C127	C	0.324275	0.380021	0.500353
C128	C	0.574275	0.630021	0.750353
C129	C	-0.820035	-0.291511	0.000308
C130	C	-0.570035	-0.041511	0.250308
C131	C	-0.320035	0.208489	0.500308
C132	C	-0.070035	0.458489	0.750308
C133	C	-0.821541	-0.393883	0.000316
C134	C	-0.571541	-0.143883	0.250316
C135	C	-0.321541	0.106117	0.500316
C136	C	-0.071541	0.356117	0.750316
N137	N	-0.824908	-0.122894	-0.243242
N138	N	-0.574908	0.127106	0.006758
N139	N	-0.324908	0.377106	0.256758
N140	N	-0.074908	0.627106	0.506758
C141	C	-0.822762	0.522979	0.000314
C142	C	-0.572762	0.772979	0.250314
C143	C	-0.322762	1.022979	0.500314
C144	C	-0.072762	1.272979	0.750314
C145	C	-0.824301	0.418681	0.000307
C146	C	-0.574301	0.668681	0.250307
C147	C	-0.324301	0.918681	0.500307
C148	C	-0.074301	1.168681	0.750307
C149	C	-0.825533	0.335552	0.000300
C150	C	-0.575533	0.585552	0.250300
C151	C	-0.325533	0.835552	0.500300
C152	C	-0.075533	1.085552	0.750300
C153	C	-0.827072	0.231247	0.000295
C154	C	-0.577072	0.481247	0.250295
C155	C	-0.327072	0.731247	0.500295
C156	C	-0.077072	0.981247	0.750295
C157	C	-0.824911	-0.122896	-0.336348
C158	C	-0.574911	0.127104	-0.086348
C159	C	-0.324911	0.377104	0.163652
C160	C	-0.074911	0.627104	0.413652
C161	C	-0.824917	-0.122890	-0.453153
C162	C	-0.574917	0.127110	-0.203153
C163	C	-0.324917	0.377110	0.046847
C164	C	-0.074917	0.627110	0.296847
C165	C	-0.824926	-0.122880	-0.546251
C166	C	-0.574926	0.127120	-0.296251
C167	C	-0.324926	0.377120	-0.046251
C168	C	-0.074926	0.627120	0.203749
C169	C	-0.824933	-0.122875	-0.663064
C170	C	-0.574933	0.127125	-0.413064
C171	C	-0.324933	0.377125	-0.163064
C172	C	-0.074933	0.627125	0.086936
N173	N	-0.824942	-0.122864	0.243838
N174	N	-0.574942	0.127136	0.493838
N175	N	-0.324942	0.377136	0.743838
N176	N	-0.074942	0.627136	0.993838
H177	H	-0.598091	-0.280977	0.000253
H178	H	-0.348091	-0.030977	0.250253
H179	H	-0.098091	0.219023	0.500253
H180	H	0.151909	0.469023	0.750253
H181	H	-0.183871	0.032642	0.000337
H182	H	0.066129	0.282642	0.250337
H183	H	0.316129	0.532642	0.500337
H184	H	0.566129	0.782642	0.750337
H185	H	-0.021931	-0.269760	0.000380
H186	H	0.228069	-0.019760	0.250380
H187	H	0.478069	0.230240	0.500380
H188	H	0.728069	0.480240	0.750380
F189	F	-0.161101	-0.293526	0.000361
F190	F	0.088899	-0.043526	0.250361
F191	F	0.338899	0.206474	0.500361
F192	F	0.588899	0.456474	0.750361
F193	F	-0.044701	0.056407	0.000366
F194	F	0.205299	0.306407	0.250366
F195	F	0.455299	0.556407	0.500366
F196	F	0.705299	0.806407	0.750366
H197	H	-0.465973	-0.278404	0.000273
H198	H	-0.215973	-0.028404	0.250273
H199	H	0.034027	0.221596	0.500273
H200	H	0.284027	0.471596	0.750273
H201	H	-0.627917	0.024001	0.000205
H202	H	-0.377917	0.274001	0.250205
H203	H	-0.127917	0.524001	0.500205
H204	H	0.122083	0.774001	0.750205
F205	F	-0.488742	0.047758	0.000250
F206	F	-0.238742	0.297758	0.250250
F207	F	0.011258	0.547758	0.500250
F208	F	0.261258	0.797758	0.750250
