data_functionalizedCrystal
_audit_creation_method	'MofGen! by Chris Wilmer'
_symmetry_space_group_name_H-M	'P1'
_symmetry_Int_Tables_number	1
_symmetry_cell_setting	triclinic
loop_
_symmetry_equiv_pos_as_xyz
  x,y,z
_cell_length_a	15.297475
_cell_length_b	21.295417
_cell_length_c	15.296720
_cell_angle_alpha	80.360665
_cell_angle_beta	88.382886
_cell_angle_gamma	80.331503
loop_
_atom_site_label
_atom_site_type_symbol
_atom_site_fract_x
_atom_site_fract_y
_atom_site_fract_z
Zn1	Zn	1.253322	-0.489899	0.726527
Zn2	Zn	1.753322	0.010101	1.226527
Zn3	Zn	1.278570	-0.580539	0.580029
Zn4	Zn	1.778570	-0.080539	1.080029
Zn5	Zn	1.132206	-0.454537	0.554773
Zn6	Zn	1.632206	0.045463	1.054773
Zn7	Zn	1.106797	-0.574351	0.701159
Zn8	Zn	1.606797	-0.074351	1.201159
O9	O	1.192724	-0.524831	0.640622
O10	O	1.692724	-0.024831	1.140622
O11	O	1.379247	-0.519311	0.728280
O12	O	1.879247	-0.019311	1.228280
O13	O	1.280354	-0.551615	0.454106
O14	O	1.780354	-0.051615	0.954106
O15	O	1.148339	-0.371152	0.577603
O16	O	1.648339	0.128848	1.077603
O17	O	1.397796	-0.585904	0.620649
O18	O	1.897796	-0.085904	1.120649
O19	O	1.237323	-0.397133	0.703790
O20	O	1.737323	0.102867	1.203790
O21	O	1.172821	-0.459042	0.435550
O22	O	1.672821	0.040958	0.935550
O23	O	1.006260	-0.453042	0.553004
O24	O	1.506260	0.046958	1.053004
O25	O	1.105034	-0.575358	0.827097
O26	O	1.605034	-0.075358	1.327097
O27	O	0.987593	-0.541069	0.660554
O28	O	1.487593	-0.041069	1.160554
O29	O	1.212686	-0.513312	0.845734
O30	O	1.712686	-0.013312	1.345734
O31	O	1.255717	-0.667793	0.596050
O32	O	1.755717	-0.167793	1.096050
O33	O	1.129516	-0.663248	0.685044
O34	O	1.629516	-0.163248	1.185044
C35	C	0.965144	-0.492547	0.601286
C36	C	1.465144	0.007453	1.101286
C37	C	0.867781	-0.478753	0.584479
C38	C	1.367781	0.021247	1.084479
C39	C	0.554611	-0.623425	0.760748
C40	C	1.054611	-0.123425	1.260748
C41	C	0.646089	-0.636390	0.776537
C42	C	1.146089	-0.136390	1.276537
C43	C	0.701516	-0.596982	0.728524
C44	C	1.201516	-0.096982	1.228524
C45	C	0.665457	-0.544607	0.664719
C46	C	1.165457	-0.044607	1.164719
C47	C	0.573971	-0.531644	0.648924
C48	C	1.073971	-0.031644	1.148924
C49	C	0.720876	-0.505200	0.616700
C50	C	1.220876	-0.005200	1.116700
C51	C	0.684816	-0.452825	0.552895
C52	C	1.184816	0.047175	1.052895
C53	C	0.593339	-0.439865	0.537103
C54	C	1.093339	0.060135	1.037103
C55	C	0.537912	-0.479273	0.585116
C56	C	1.037912	0.020727	1.085116
C57	C	0.812362	-0.518163	0.632495
C58	C	1.312362	-0.018163	1.132495
C59	C	0.831721	-0.426382	0.520671
C60	C	1.331721	0.073618	1.020671
C61	C	0.740243	-0.413417	0.504882
C62	C	1.240243	0.086583	1.004882
C63	C	1.192620	-0.688363	0.640558
C64	C	1.692620	-0.188363	1.140558
C65	C	1.192651	-0.758337	0.640574
C66	C	1.692651	-0.258337	1.140574
C67	C	1.238945	-0.804673	0.706314
C68	C	1.738945	-0.304673	1.206314
C69	C	1.238973	-0.870423	0.706341
C70	C	1.738973	-0.370423	1.206341
C71	C	1.192717	-0.889832	0.640614
C72	C	1.692717	-0.389832	1.140614
C73	C	1.146412	-0.843485	0.574868
C74	C	1.646412	-0.343485	1.074868
C75	C	1.146379	-0.777737	0.574848
C76	C	1.646379	-0.277737	1.074848
N77	N	1.199377	-0.984508	0.562817
N78	N	1.699377	-0.484508	1.062817
N79	N	1.199413	-1.046967	0.562840
N80	N	1.699413	-0.546967	1.062840
C81	C	1.192812	-1.087925	0.640671
C82	C	1.692812	-0.587925	1.140671
N83	N	1.186191	-1.064068	0.718484
N84	N	1.686191	-0.564068	1.218484
N85	N	1.186159	-1.001604	0.718462
N86	N	1.686159	-0.501604	1.218462
C87	C	1.192747	-0.961123	0.640629
C88	C	1.692747	-0.461123	1.140629
C89	C	1.239139	-1.205555	0.706446
C90	C	1.739139	-0.705555	1.206446
C91	C	1.239159	-1.271305	0.706473
C92	C	1.739159	-0.771305	1.206473
C93	C	1.146605	-1.244366	0.574993
C94	C	1.646605	-0.744366	1.074993
C95	C	1.146578	-1.178618	0.574973
C96	C	1.646578	-0.678618	1.074973
C97	C	1.192850	-1.159217	0.640699
C98	C	1.692850	-0.659217	1.140699
C99	C	1.421192	-0.557242	0.680112
C100	C	1.921192	-0.057242	1.180112
C101	C	1.518552	-0.571054	0.696940
C102	C	2.018552	-0.071054	1.196940
C103	C	1.153209	-0.547589	0.869086
C104	C	1.653209	-0.047589	1.369086
C105	C	1.136371	-0.557287	0.966444
C106	C	1.636371	-0.057287	1.466444
C107	C	1.192849	-0.360667	0.640709
C108	C	1.692849	0.139333	1.140709
C109	C	1.192902	-0.290710	0.640746
C110	C	1.692902	0.209290	1.140746
C111	C	1.232135	-0.502124	0.413055
C112	C	1.732135	-0.002124	0.913055
C113	C	1.249143	-0.492273	0.315727
C114	C	1.749143	0.007727	0.815727
C115	C	1.313105	-0.455413	1.279696
C116	C	1.813105	0.044587	1.779696
C117	C	1.328932	-0.446303	1.188224
C118	C	1.828932	0.053697	1.688224
C119	C	1.280793	-0.474048	1.132775
C120	C	1.780793	0.025952	1.632775
C121	C	1.216825	-0.510905	1.168805
C122	C	1.716825	-0.010905	1.668805
C123	C	1.201002	-0.520020	1.260287
C124	C	1.701002	-0.020020	1.760287
C125	C	1.168689	-0.538655	1.113366
C126	C	1.668689	-0.038655	1.613366
C127	C	1.104721	-0.575512	1.149396
C128	C	1.604721	-0.075512	1.649396
C129	C	1.088901	-0.584625	1.240869
C130	C	1.588901	-0.084625	1.740869
C131	C	1.137040	-0.556880	1.296318
C132	C	1.637040	-0.056880	1.796318
C133	C	1.184512	-0.529540	1.021884
C134	C	1.684512	-0.029540	1.521884
C135	C	1.072409	-0.594147	1.002475
C136	C	1.572409	-0.094147	1.502475
C137	C	1.056583	-0.603257	1.093947
C138	C	1.556583	-0.103257	1.593947
H139	H	0.675443	-0.679034	0.828485
H140	H	1.175443	-0.179034	1.328485
H141	H	0.509476	-0.655509	0.799828
H142	H	1.009476	-0.155509	1.299828
O143	O	1.025779	-0.621139	0.948545
O144	O	1.525779	-0.121139	1.448545
C145	C	1.084769	-0.663604	0.904244
C146	C	1.584769	-0.163604	1.404244
H147	H	1.153537	-0.649458	0.902030
H148	H	1.653537	-0.149458	1.402030
H149	H	1.060212	-0.660566	0.833745
H150	H	1.560212	-0.160566	1.333745
H151	H	1.088260	-0.715124	0.941132
H152	H	1.588260	-0.215124	1.441132
H153	H	0.463421	-0.468719	0.572266
H154	H	0.963421	0.031281	1.072266
O155	O	1.283873	-0.915384	0.770319
O156	O	1.783873	-0.415384	1.270319
C157	C	1.249540	-0.905288	0.854277
C158	C	1.749540	-0.405288	1.354277
H159	H	1.215544	-0.852973	0.850237
H160	H	1.715544	-0.352973	1.350237
H161	H	1.305919	-0.915874	0.904528
H162	H	1.805919	-0.415874	1.404528
H163	H	1.199395	-0.938851	0.875956
H164	H	1.699395	-0.438851	1.375956
H165	H	1.276813	-1.189759	0.759966
H166	H	1.776813	-0.689759	1.259966
O167	O	1.283998	-0.785799	0.770054
O168	O	1.783998	-0.285799	1.270054
C169	C	1.349194	-0.750795	0.730006
C170	C	1.849194	-0.250795	1.230006
H171	H	1.366605	-0.764529	0.661974
H172	H	1.866605	-0.264529	1.161974
H173	H	1.411088	-0.762710	0.773388
H174	H	1.911088	-0.262710	1.273388
H175	H	1.322611	-0.696842	0.722272
H176	H	1.822611	-0.196842	1.222272
O177	O	1.391033	-0.410521	1.153081
O178	O	1.891033	0.089479	1.653081
C179	C	1.394649	-0.408402	1.060448
C180	C	1.894649	0.091598	1.560448
H181	H	1.368118	-0.451672	1.042965
H182	H	1.868118	0.048328	1.542965
H183	H	1.466268	-0.409946	1.037012
H184	H	1.966268	0.090054	1.537012
H185	H	1.352487	-0.361877	1.026462
H186	H	1.852487	0.138123	1.526462
O187	O	1.284214	-1.316237	0.770377
O188	O	1.784214	-0.816237	1.270377
C189	C	1.325029	-1.285009	0.828390
C190	C	1.825029	-0.785009	1.328390
H191	H	1.334267	-1.235011	0.793028
H192	H	1.834267	-0.735011	1.293028
H193	H	1.392422	-1.314680	0.849712
H194	H	1.892422	-0.814680	1.349712
H195	H	1.281404	-1.280086	0.889339
H196	H	1.781404	-0.780086	1.389339
O197	O	1.101601	-1.263285	0.511261
O198	O	1.601601	-0.763285	1.011261
C199	C	1.036371	-1.298254	0.551314
C200	C	1.536371	-0.798254	1.051314
H201	H	1.055735	-1.319053	0.623050
H202	H	1.555735	-0.819053	1.123050
H203	H	1.030847	-1.339289	0.513616
H204	H	1.530847	-0.839289	1.013616
H205	H	0.969786	-1.264698	0.549662
H206	H	1.469786	-0.764698	1.049662
H207	H	1.004499	-0.633266	1.123296
H208	H	1.504499	-0.133266	1.623296
H209	H	1.236595	-0.499530	0.992557
H210	H	1.736595	0.000470	1.492557
O211	O	0.847323	-0.568973	0.694594
O212	O	1.347323	-0.068973	1.194594
C213	C	0.809868	-0.560856	0.778067
C214	C	1.309868	-0.060856	1.278067
H215	H	0.783963	-0.507466	0.778280
H216	H	1.283963	-0.007466	1.278280
H217	H	0.862549	-0.579163	0.831717
H218	H	1.362549	-0.079163	1.331717
H219	H	0.752805	-0.589376	0.791702
H220	H	1.252805	-0.089376	1.291702
H221	H	0.563984	-0.397223	0.485140
H222	H	1.063984	0.102777	0.985140
H223	H	1.293682	-0.466628	1.058295
H224	H	1.793682	0.033372	1.558295
O225	O	1.101403	-0.862224	0.510977
O226	O	1.601403	-0.362224	1.010977
C227	C	1.060552	-0.807224	0.452933
C228	C	1.560552	-0.307224	0.952933
H229	H	1.051260	-0.763487	0.488265
H230	H	1.551260	-0.263487	0.988265
H231	H	0.993181	-0.815548	0.431612
H232	H	1.493181	-0.315548	0.931612
H233	H	1.104178	-0.798161	0.391986
H234	H	1.604178	-0.298161	0.891986
H235	H	0.876851	-0.394293	0.481574
H236	H	1.376851	0.105707	0.981574
H237	H	1.124158	-0.564295	1.370803
H238	H	1.624158	-0.064295	1.870803
O239	O	1.359760	-0.428491	1.333679
O240	O	1.859760	0.071509	1.833679
C241	C	1.332096	-0.444458	1.422146
C242	C	1.832096	0.055542	1.922146
H243	H	1.262318	-0.456720	1.422940
H244	H	1.762318	0.043280	1.922940
H245	H	1.332066	-0.401626	1.457975
H246	H	1.832066	0.098374	1.957975
H247	H	1.379532	-0.487937	1.457060
H248	H	1.879532	0.012063	1.957060
O249	O	1.026829	-0.620518	1.275777
O250	O	1.526829	-0.120518	1.775777
C251	C	1.049806	-0.683738	1.256709
C252	C	1.549806	-0.183738	1.756709
H253	H	1.094967	-0.683198	1.196113
H254	H	1.594967	-0.183198	1.696113
H255	H	0.987111	-0.702680	1.242629
H256	H	1.487111	-0.202680	1.742629
H257	H	1.085917	-0.716458	1.315964
H258	H	1.585917	-0.216458	1.815964
H259	H	0.710870	-0.370773	0.452931
H260	H	1.210870	0.129227	0.952931
H261	H	1.108885	-1.140887	0.521438
H262	H	1.608885	-0.640887	1.021438
O263	O	0.790378	-0.609686	0.743858
O264	O	1.290378	-0.109686	1.243858
C265	C	0.824830	-0.672052	0.726453
C266	C	1.324830	-0.172052	1.226453
H267	H	0.769524	-0.702339	0.732215
H268	H	1.269524	-0.202339	1.232215
H269	H	0.879204	-0.695891	0.776500
H270	H	1.379204	-0.195891	1.276500
H271	H	0.853619	-0.668358	0.656572
H272	H	1.353619	-0.168358	1.156572
O273	O	1.101295	-0.732693	0.511091
O274	O	1.601295	-0.232693	1.011091
C275	C	1.036062	-0.691605	0.551118
C276	C	1.536062	-0.191605	1.051118
H277	H	1.018673	-0.717496	0.619162
H278	H	1.518673	-0.217496	1.119162
H279	H	0.974166	-0.678194	0.507737
H280	H	1.474166	-0.178194	1.007737
H281	H	1.062597	-0.645902	0.558822
H282	H	1.562597	-0.145902	1.058822
