data_functionalizedCrystal
_audit_creation_method	'MofGen! by Chris Wilmer'
_symmetry_space_group_name_H-M	'P1'
_symmetry_Int_Tables_number	1
_symmetry_cell_setting	triclinic
loop_
_symmetry_equiv_pos_as_xyz
  x,y,z
_cell_length_a	15.995300
_cell_length_b	10.489741
_cell_length_c	14.472310
_cell_angle_alpha	89.999301
_cell_angle_beta	89.985388
_cell_angle_gamma	84.005490
loop_
_atom_site_label
_atom_site_type_symbol
_atom_site_fract_x
_atom_site_fract_y
_atom_site_fract_z
O1	O	1.112012	0.164093	-0.076874
O2	O	0.868354	0.184463	-0.076869
O3	O	0.995727	-0.011399	-0.076866
O4	O	0.984639	0.359955	-0.076877
O5	O	0.995694	-0.011388	0.076816
O6	O	0.868321	0.184474	0.076813
O7	O	1.111979	0.164105	0.076808
Cu8	Cu	0.990147	0.174290	0.090843
Cu9	Cu	0.990186	0.174277	-0.090904
O10	O	0.984606	0.359966	0.076805
C11	C	0.837137	0.183638	-0.000027
C12	C	0.744169	0.181147	-0.000025
C13	C	0.573959	0.176547	-0.000032
C14	C	0.527334	0.316005	-0.000034
C15	C	0.430631	0.313461	-0.000385
C16	C	0.406375	0.172020	-0.000037
C17	C	0.447109	0.102824	-0.087622
C18	C	0.543764	0.106353	-0.087694
C19	C	0.543993	0.104301	0.087078
C20	C	0.447048	0.104314	0.088227
C21	C	0.311664	0.169454	-0.000044
C22	C	0.668670	0.179109	-0.000032
C23	C	0.994873	-0.058913	-0.000026
C24	C	0.992368	-0.200507	-0.000027
C25	C	0.911324	-0.267490	-0.000032
C26	C	0.949592	-0.360154	0.075740
C27	C	0.949644	-0.360140	-0.075778
C28	C	1.030669	-0.291305	0.075808
C29	C	1.030710	-0.291281	-0.075779
C30	C	1.069037	-0.383918	0.000012
C31	C	1.143196	0.164930	-0.000036
C32	C	1.236164	0.167421	-0.000044
C33	C	0.985460	0.407480	-0.000037
C34	C	0.987965	0.549074	-0.000042
N35	N	0.990126	0.174299	0.218674
N36	N	0.990214	0.174258	-0.218735
C37	C	0.990185	0.174272	0.592765
C38	C	0.921797	0.278722	0.553598
C39	C	0.921959	0.279103	0.446510
C40	C	0.990155	0.174285	0.407174
C41	C	1.077697	0.203329	0.446008
C42	C	1.077313	0.204072	0.553130
C43	C	0.971809	0.040468	0.553299
C44	C	0.969810	0.041361	0.446171
C45	C	0.990143	0.174290	0.302286
C46	C	0.990202	0.174269	0.697653
H47	H	0.562397	0.156213	-0.153416
H48	H	1.135731	-0.434293	0.000052
O49	O	0.904159	-0.400574	0.160603
H50	H	0.848899	-0.449269	0.139266
H51	H	0.419999	0.154845	0.153023
O52	O	1.076116	-0.250879	-0.160658
H53	H	1.141186	-0.299427	-0.161224
H54	H	0.933777	0.378397	0.420872
O55	O	0.553749	0.389122	-0.083120
H56	H	0.622640	0.394580	-0.080674
H57	H	1.129835	0.130994	0.579036
O58	O	1.031420	-0.066424	0.410708
H59	H	1.015255	-0.158789	0.439542
H60	H	1.064917	-0.260957	0.139939
O61	O	0.904231	-0.400536	-0.160637
H62	H	0.838784	-0.353435	-0.160468
H63	H	0.419024	0.150254	-0.153051
H64	H	0.856913	0.261802	0.420256
O65	O	0.394171	0.385273	-0.083983
H66	H	0.445624	0.421929	-0.124330
H67	H	0.856543	0.261706	0.579388
O68	O	1.098603	0.333324	0.586218
H69	H	1.051091	0.409204	0.559719
O70	O	1.146769	0.105247	0.412260
H71	H	1.119371	0.034594	0.367338
O72	O	0.425854	-0.032250	0.095631
H73	H	0.385835	-0.054104	0.036242
H74	H	0.546149	0.372054	0.062764
H75	H	0.575154	0.001481	0.087923
O76	O	1.099470	0.331120	0.410473
H77	H	1.048085	0.374142	0.365165
O78	O	0.889012	0.003482	0.589114
H79	H	0.860032	0.080066	0.635450
O80	O	0.937234	0.409514	0.589233
H81	H	0.948015	0.473072	0.530042
O82	O	0.884499	0.012157	0.412571
H83	H	0.856699	0.091967	0.368274
O84	O	1.037845	-0.062505	0.586853
H85	H	1.083538	-0.018681	0.631422
O86	O	0.585711	-0.029284	-0.092644
H87	H	0.566066	-0.075432	-0.156982
O88	O	0.393333	0.385485	0.082755
H89	H	0.444362	0.422456	0.123573
H90	H	0.432383	-0.001104	-0.090631
H91	H	0.564756	0.150219	0.153484
H92	H	0.844690	-0.216889	0.000046
