data_functionalizedCrystal
_audit_creation_method	'MofGen! by Chris Wilmer'
_symmetry_space_group_name_H-M	'P1'
_symmetry_Int_Tables_number	1
_symmetry_cell_setting	triclinic
loop_
_symmetry_equiv_pos_as_xyz
  x,y,z
_cell_length_a	9.616153
_cell_length_b	14.044220
_cell_length_c	14.044220
_cell_angle_alpha	86.811122
_cell_angle_beta	90.002961
_cell_angle_gamma	89.997882
loop_
_atom_site_label
_atom_site_type_symbol
_atom_site_fract_x
_atom_site_fract_y
_atom_site_fract_z
O1	O	0.115503	-1.277171	0.230164
O2	O	0.615503	-0.777171	0.730164
O3	O	0.115538	-1.000500	0.221858
O4	O	0.615538	-0.500500	0.721858
O5	O	0.115508	-1.134683	0.087675
O6	O	0.615508	-0.634683	0.587675
O7	O	0.115534	-1.142988	0.364347
O8	O	0.615534	-0.642988	0.864347
O9	O	-0.115784	-1.134663	0.087677
O10	O	0.384216	-0.634663	0.587677
O11	O	-0.115753	-1.000480	0.221860
O12	O	0.384247	-0.500480	0.721860
O13	O	-0.115788	-1.277152	0.230165
O14	O	0.384212	-0.777152	0.730165
Zn15	Zn	-0.152493	-1.138813	0.226013
Zn16	Zn	0.347507	-0.638813	0.726013
Zn17	Zn	0.152243	-1.138839	0.226011
Zn18	Zn	0.652243	-0.638839	0.726011
O19	O	-0.115757	-1.142969	0.364348
O20	O	0.384243	-0.642969	0.864348
C21	C	-0.000103	-0.964868	0.218223
C22	C	0.499897	-0.464868	0.718223
C23	C	-0.000090	-0.858725	0.207379
C24	C	0.499910	-0.358725	0.707379
N25	N	-0.360468	-1.138802	0.226014
N26	N	0.139532	-0.638802	0.726014
C27	C	-0.000138	-1.131037	0.052054
C28	C	0.499862	-0.631037	0.552054
C29	C	-0.000139	-1.120193	-0.054088
C30	C	0.499861	-0.620193	0.445912
C31	C	-0.580821	-1.066766	0.297515
C32	C	-0.080821	-0.566766	0.797515
C33	C	-0.419654	-1.066959	0.297818
C34	C	0.080346	-0.566959	0.797818
C35	C	-0.418927	-1.240260	0.256196
C36	C	0.081073	-0.740260	0.756196
C37	C	-0.580145	-1.239877	0.256712
C38	C	-0.080145	-0.739877	0.756712
C39	C	-0.580386	-1.110354	0.124153
C40	C	-0.080386	-0.610354	0.624153
C41	C	-0.419159	-1.108113	0.124630
C42	C	0.080841	-0.608113	0.624630
N43	N	0.360218	-1.138857	0.226003
N44	N	0.860218	-0.638857	0.726003
C45	C	-0.000144	-1.312783	0.233800
C46	C	0.499856	-0.812783	0.733800
C47	C	-0.000148	-1.418926	0.244645
C48	C	0.499852	-0.918926	0.744645
C49	C	-0.000120	-0.664388	0.187553
C50	C	0.499880	-0.164388	0.687553
C51	C	-0.000118	-0.613258	0.264467
C52	C	0.499882	-0.113258	0.764467
C53	C	-0.000135	-0.505122	0.253435
C54	C	0.499865	-0.005122	0.753435
C55	C	-0.000103	-0.772534	0.198583
C56	C	0.499897	-0.272534	0.698583
C57	C	-0.000116	-1.100366	-0.248426
C58	C	0.499884	-0.600366	0.251574
C59	C	-0.000122	-1.177281	-0.299556
C60	C	0.499878	-0.677281	0.200444
C61	C	-0.000109	-1.166249	-0.407692
C62	C	0.499891	-0.666249	0.092308
C63	C	-0.000129	-1.111397	-0.140280
C64	C	0.499871	-0.611397	0.359720
C65	C	-0.000109	-1.146614	0.399969
C66	C	0.499891	-0.646614	0.899969
C67	C	-0.000099	-1.157459	0.506112
C68	C	0.499901	-0.657459	1.006112
H69	H	-0.380131	-0.991816	0.278592
H70	H	0.119869	-0.491816	0.778592
N71	N	-0.000099	-0.662840	0.362668
N72	N	0.499901	-0.162840	0.862668
H73	H	-0.000087	-0.734181	0.356734
H74	H	0.499913	-0.234181	0.856734
H75	H	0.085649	-0.643702	0.398472
H76	H	0.585649	-0.143702	0.898472
N77	N	-0.000141	-1.275482	-0.249974
N78	N	0.499859	-0.775482	0.250026
H79	H	-0.000150	-1.269548	-0.178633
H80	H	0.499850	-0.769548	0.321367
H81	H	-0.085891	-1.311280	-0.269116
H82	H	0.414109	-0.811280	0.230884
H83	H	-0.381069	-1.086031	0.373224
H84	H	0.118931	-0.586031	0.873224
N85	N	-0.365818	-1.172284	0.049970
N86	N	0.134182	-0.672284	0.549970
H87	H	-0.446857	-1.204366	0.019092
H88	H	0.053143	-0.704366	0.519092
H89	H	-0.312277	-1.133040	-0.000087
H90	H	0.187723	-0.633040	0.499913
N91	N	-0.000145	-0.614806	0.089358
N92	N	0.499855	-0.114806	0.589358
H93	H	-0.000155	-0.543466	0.095299
H94	H	0.499845	-0.043466	0.595299
H95	H	0.085597	-0.633931	0.053544
H96	H	0.585597	-0.133931	0.553544
N97	N	-0.368538	-1.009203	0.094538
N98	N	0.131462	-0.509203	0.594538
H99	H	-0.406618	-0.989859	0.029281
H100	H	0.093382	-0.489859	0.529281
H101	H	-0.401524	-0.962685	0.141992
H102	H	0.098476	-0.462685	0.641992
H103	H	-0.000103	-1.026239	-0.285863
H104	H	0.499897	-0.526239	0.214137
H105	H	-0.621315	-1.085632	0.372487
H106	H	-0.121315	-0.585632	0.872487
N107	N	-0.632217	-0.966940	0.272314
N108	N	-0.132217	-0.466940	0.772314
H109	H	-0.694225	-0.967473	0.214299
H110	H	-0.194225	-0.467473	0.714299
H111	H	-0.686552	-0.943041	0.327710
H112	H	-0.186552	-0.443041	0.827710
N113	N	-0.629956	-1.271433	0.355438
N114	N	-0.129956	-0.771433	0.855438
H115	H	-0.594545	-1.337862	0.372733
H116	H	-0.094545	-0.837862	0.872733
H117	H	-0.593710	-1.226020	0.402907
H118	H	-0.093710	-0.726020	0.902907
N119	N	-0.631821	-1.313609	0.190892
N120	N	-0.131821	-0.813609	0.690892
H121	H	-0.549869	-1.346223	0.161678
H122	H	-0.049869	-0.846223	0.661678
H123	H	-0.690041	-1.362450	0.228309
H124	H	-0.190041	-0.862450	0.728309
H125	H	-0.380587	-1.295530	0.205850
H126	H	0.119413	-0.795530	0.705850
N127	N	-0.365425	-1.272294	0.353870
N128	N	0.134575	-0.772294	0.853870
H129	H	-0.303334	-1.221243	0.378711
H130	H	0.196666	-0.721243	0.878711
H131	H	-0.446536	-1.283848	0.398713
H132	H	0.053464	-0.783848	0.898713
N133	N	-0.634288	-1.013869	0.088496
N134	N	-0.134288	-0.513869	0.588496
H135	H	-0.553520	-0.968859	0.076314
H136	H	-0.053520	-0.468859	0.576314
H137	H	-0.687712	-1.020526	0.027308
H138	H	-0.187712	-0.520526	0.527308
H139	H	-0.618514	-1.162827	0.070837
H140	H	-0.118514	-0.662827	0.570837
