data_functionalizedCrystal
_audit_creation_method	'MofGen! by Chris Wilmer'
_symmetry_space_group_name_H-M	'P1'
_symmetry_Int_Tables_number	1
_symmetry_cell_setting	triclinic
loop_
_symmetry_equiv_pos_as_xyz
  x,y,z
_cell_length_a	13.339070
_cell_length_b	19.288864
_cell_length_c	18.366186
_cell_angle_alpha	89.971967
_cell_angle_beta	89.991197
_cell_angle_gamma	99.382770
loop_
_atom_site_label
_atom_site_type_symbol
_atom_site_fract_x
_atom_site_fract_y
_atom_site_fract_z
O1	O	1.340704	0.347912	-0.060715
O2	O	1.840704	0.847912	0.439285
O3	O	1.046385	0.302246	-0.060692
O4	O	1.546385	0.802246	0.439308
O5	O	1.202049	0.225606	-0.060659
O6	O	1.702049	0.725606	0.439341
O7	O	1.185040	0.424552	-0.060748
O8	O	1.685040	0.924552	0.439252
O9	O	1.202022	0.225596	0.060440
O10	O	1.702022	0.725596	0.560440
O11	O	1.046358	0.302236	0.060407
O12	O	1.546358	0.802236	0.560407
O13	O	1.340677	0.347901	0.060384
O14	O	1.840677	0.847901	0.560384
Zn15	Zn	1.193514	0.325067	0.079623
Zn16	Zn	1.693514	0.825067	0.579623
Zn17	Zn	1.193548	0.325081	-0.079931
Zn18	Zn	1.693548	0.825081	0.420069
O19	O	1.185014	0.424542	0.060351
O20	O	1.685014	0.924542	0.560351
C21	C	1.008718	0.294528	-0.000139
C22	C	1.508718	0.794528	0.499861
C23	C	0.896521	0.271535	-0.000128
C24	C	1.396521	0.771535	0.499872
C25	C	1.185574	0.450530	-0.000210
C26	C	1.685574	0.950530	0.499790
C27	C	1.187217	0.527954	-0.000245
C28	C	1.687217	1.027954	0.499755
C29	C	1.201488	0.199618	-0.000100
C30	C	1.701488	0.699618	0.499900
C31	C	1.199845	0.122194	-0.000070
C32	C	1.699845	0.622194	0.499930
C33	C	0.530913	0.450315	-0.000219
C34	C	1.030913	0.950315	0.499781
C35	C	0.636327	0.471920	-0.000232
C36	C	1.136327	0.971920	0.499768
C37	C	0.701381	0.421825	-0.000206
C38	C	1.201381	0.921825	0.499794
C39	C	0.661010	0.350122	-0.000167
C40	C	1.161010	0.850122	0.499833
C41	C	0.555585	0.328515	-0.000161
C42	C	1.055585	0.828515	0.499839
C43	C	0.726053	0.300026	-0.000147
C44	C	1.226053	0.800026	0.499853
C45	C	0.685682	0.228322	-0.000109
C46	C	1.185682	0.728322	0.499891
C47	C	0.580267	0.206719	-0.000101
C48	C	1.080267	0.706719	0.499899
C49	C	0.515214	0.256813	-0.000127
C50	C	1.015214	0.756813	0.499873
C51	C	0.831477	0.321633	-0.000154
C52	C	1.331477	0.821633	0.499846
C53	C	0.856149	0.199833	-0.000095
C54	C	1.356149	0.699833	0.499905
C55	C	0.750735	0.178228	-0.000082
C56	C	1.250735	0.678228	0.499918
C57	C	1.378345	0.355620	-0.000171
C58	C	1.878345	0.855620	0.499829
C59	C	1.490542	0.378613	-0.000186
C60	C	1.990542	0.878613	0.499814
N61	N	1.193497	0.325059	0.188514
N62	N	1.693497	0.825059	0.688514
C63	C	1.095880	0.554851	-0.000223
C64	C	1.595880	1.054851	0.499777
C65	C	1.097424	0.627599	-0.000207
C66	C	1.597424	1.127599	0.499793
C67	C	1.190309	0.673447	-0.000197
C68	C	1.690309	1.173447	0.499803
C69	C	1.281658	0.646542	-0.000223
C70	C	1.781658	1.146542	0.499777
C71	C	1.280111	0.573795	-0.000247
C72	C	1.780111	1.073795	0.499753
C73	C	1.263318	0.795923	0.042262
C74	C	1.763318	1.295923	0.542262
C75	C	1.264860	0.868668	0.042290
C76	C	1.764860	1.368668	0.542290
C77	C	1.195081	0.897823	-0.000128
C78	C	1.695081	1.397823	0.499872
C79	C	1.123743	0.854222	-0.042564
C80	C	1.623743	1.354222	0.457436
C81	C	1.122197	0.781476	-0.042588
C82	C	1.622197	1.281476	0.457412
C83	C	1.191996	0.752330	-0.000172
C84	C	1.691996	1.252330	0.499828
C85	C	1.105412	1.003601	-0.000089
C86	C	1.605412	1.503601	0.499911
C87	C	1.106959	1.076351	-0.000078
C88	C	1.606959	1.576351	0.499922
C89	C	1.291196	1.095293	-0.000087
C90	C	1.791196	1.595293	0.499913
C91	C	1.289646	1.022544	-0.000106
C92	C	1.789646	1.522544	0.499894
C93	C	1.196751	0.976703	-0.000104
C94	C	1.696751	1.476703	0.499896
N95	N	1.193573	0.325085	-0.188822
N96	N	1.693573	0.825085	0.311178
C97	C	1.262448	0.291150	0.226629
C98	C	1.762448	0.791150	0.726629
C99	C	1.262454	0.291148	0.302857
C100	C	1.762454	0.791148	0.802857
C101	C	1.193520	0.325069	0.340967
C102	C	1.693520	0.825069	0.840967
C103	C	1.124556	0.358979	0.302843
C104	C	1.624556	0.858979	0.802843
C105	C	1.124545	0.358974	0.226616
C106	C	1.624545	0.858974	0.726616
C107	C	1.179990	0.385720	0.461700
C108	C	1.679990	0.885720	0.961700
C109	C	1.180008	0.385727	0.537925
C110	C	1.680008	0.885727	1.037925
C111	C	1.193549	0.325083	0.576074
C112	C	1.693549	0.825083	1.076074
C113	C	1.207092	0.264433	0.537989
C114	C	1.707092	0.764433	1.037989
C115	C	1.207081	0.264428	0.461763
C116	C	1.707081	0.764428	0.961763
C117	C	1.193524	0.325078	0.423621
C118	C	1.693524	0.825078	0.923621
C119	C	1.262510	0.291169	0.696844
C120	C	1.762510	0.791169	1.196844
C121	C	1.262509	0.291165	0.773073
C122	C	1.762509	0.791165	1.273073
C123	C	1.124616	0.359003	0.773058
C124	C	1.624616	0.859003	1.273058
C125	C	1.124612	0.359000	0.696830
C126	C	1.624612	0.859000	1.196830
C127	C	1.193564	0.325085	0.658728
C128	C	1.693564	0.825085	1.158728
H129	H	0.787213	0.439421	-0.000218
H130	H	1.287213	0.939421	0.499782
N131	N	1.381839	0.695991	-0.000207
N132	N	1.881839	1.195991	0.499793
H133	H	1.421829	0.687431	0.044678
H134	H	1.921829	1.187431	0.544678
H135	H	1.421772	0.687486	-0.045135
H136	H	1.921772	1.187486	0.454865
H137	H	1.068427	0.386596	0.333875
H138	H	1.568427	0.886596	0.833875
N139	N	0.926310	0.145802	-0.000061
N140	N	1.426310	0.645802	0.499939
H141	H	0.913345	0.115414	0.044844
H142	H	1.413345	0.615414	0.544844
H143	H	0.913346	0.115469	-0.044968
H144	H	1.413346	0.615469	0.455032
N145	N	1.005226	0.954152	-0.000091
N146	N	1.505226	1.454152	0.499909
H147	H	0.947596	0.982233	-0.000081
H148	H	1.447596	1.482233	0.499919
H149	H	1.000583	0.923589	-0.044991
H150	H	1.500583	1.423589	0.455009
H151	H	1.354491	0.551897	-0.000265
H152	H	1.854491	1.051897	0.499735
N153	N	0.679856	0.549253	-0.000280
N154	N	1.179856	1.049253	0.499720
H155	H	0.656104	0.572116	0.044599
H156	H	1.156104	1.072116	0.544599
H157	H	0.756502	0.555286	-0.000312
H158	H	1.256502	1.055286	0.499688
H159	H	1.068485	0.386618	0.804086
H160	H	1.568485	0.886618	1.304086
H161	H	1.168986	0.435113	0.568928
H162	H	1.668986	0.935113	1.068928
H163	H	1.068396	0.386587	0.195582
H164	H	1.568396	0.886587	0.695582
N165	N	0.875006	0.398965	-0.000197
N166	N	1.375006	0.898965	0.499803
H167	H	0.851251	0.421826	0.044683
H168	H	1.351251	0.921826	0.544683
H169	H	0.951652	0.404999	-0.000226
H170	H	1.451652	0.904999	0.499774
N171	N	0.460753	0.504339	-0.000257
N172	N	0.960753	1.004339	0.499743
H173	H	0.387846	0.479770	-0.000249
H174	H	0.887846	0.979770	0.499751
H175	H	0.473771	0.534708	0.044621
H176	H	0.973771	1.034708	0.544621
H177	H	0.429376	0.239226	-0.000117
H178	H	0.929376	0.739226	0.499883
N179	N	1.341795	0.915683	0.088067
N180	N	1.841795	1.415683	0.588067
H181	H	1.412642	0.910348	0.072215
H182	H	1.912642	1.410348	0.572215
H183	H	1.332099	0.966170	0.081637
H184	H	1.832099	1.466170	0.581637
N185	N	0.536720	0.129384	-0.000069
N186	N	1.036720	0.629384	0.499931
H187	H	0.593924	0.100926	-0.000052
H188	H	1.093924	0.600926	0.499948
H189	H	0.493506	0.117765	0.044828
H190	H	0.993506	0.617765	0.544828
N191	N	0.707177	0.100895	-0.000039
N192	N	1.207177	0.600895	0.499961
H193	H	0.663998	0.089219	-0.044925
H194	H	1.163998	0.589219	0.455075
H195	H	0.764429	0.072482	0.000006
H196	H	1.264429	0.572482	0.500006
H197	H	1.020238	0.517531	-0.000228
H198	H	1.520238	1.017531	0.499772
N199	N	1.338567	0.764481	0.088032
N200	N	1.838567	1.264481	0.588032
H201	H	1.326762	0.711781	0.081581
H202	H	1.826762	1.211781	0.581581
H203	H	1.409929	0.784513	0.072183
H204	H	1.909929	1.284513	0.572183
H205	H	1.318590	0.263532	0.195608
H206	H	1.818590	0.763532	0.695608
N207	N	1.336822	0.254572	0.343979
N208	N	1.836822	0.754572	0.843979
H209	H	1.380499	0.233085	0.308275
H210	H	1.880499	0.733085	0.808275
H211	H	1.381378	0.289775	0.375577
H212	H	1.881378	0.789775	0.875577
N213	N	1.388164	0.993533	-0.000116
N214	N	1.888164	1.493533	0.499884
H215	H	1.391614	0.963738	0.044766
H216	H	1.891614	1.463738	0.544766
H217	H	1.391584	0.963842	-0.045047
H218	H	1.891584	1.463842	0.454953
N219	N	0.998908	0.656622	-0.000185
N220	N	1.498908	1.156622	0.499815
H221	H	0.939826	0.616543	-0.000188
H222	H	1.439826	1.116543	0.499812
H223	H	0.995536	0.686357	0.044720
H224	H	1.495536	1.186357	0.544720
N225	N	1.008436	1.105359	-0.000054
N226	N	1.508436	1.605359	0.499946
H227	H	1.004968	1.135087	0.044846
H228	H	1.504968	1.635087	0.544846
H229	H	1.005032	1.135117	-0.044967
H230	H	1.505032	1.635117	0.455033
H231	H	1.064113	0.745979	-0.077142
H232	H	1.564113	1.245979	0.422858
H233	H	1.066918	0.877958	-0.077101
H234	H	1.566918	1.377958	0.422899
N235	N	1.391385	1.144729	-0.000080
N236	N	1.891385	1.644729	0.499920
H237	H	1.396144	1.175368	-0.044963
H238	H	1.896144	1.675368	0.455037
H239	H	1.396067	1.175253	0.044850
H240	H	1.896067	1.675253	0.544850
N241	N	1.221685	0.199018	0.420684
N242	N	1.721685	0.699018	0.920684
H243	H	1.230266	0.160598	0.456412
H244	H	1.730266	0.660598	0.956412
H245	H	1.160299	0.183109	0.389078
H246	H	1.660299	0.683109	0.889078
H247	H	1.218118	0.215050	0.569049
H248	H	1.718118	0.715050	1.069049
H249	H	1.318652	0.263551	0.665820
H250	H	1.818652	0.763551	1.165820
H251	H	1.318654	0.263548	0.804107
H252	H	1.818654	0.763548	1.304107
H253	H	1.168946	0.435104	0.430645
H254	H	1.668946	0.935104	0.930645
H255	H	1.068470	0.386615	0.665795
H256	H	1.568470	0.886615	1.165795
