data_functionalizedCrystal
_audit_creation_method	'MofGen! by Chris Wilmer'
_symmetry_space_group_name_H-M	'P1'
_symmetry_Int_Tables_number	1
_symmetry_cell_setting	triclinic
loop_
_symmetry_equiv_pos_as_xyz
  x,y,z
_cell_length_a	6.817900
_cell_length_b	11.102288
_cell_length_c	10.943624
_cell_angle_alpha	91.861856
_cell_angle_beta	108.838799
_cell_angle_gamma	108.605689
loop_
_atom_site_label
_atom_site_type_symbol
_atom_site_fract_x
_atom_site_fract_y
_atom_site_fract_z
V1	V	-4.114282	-0.175806	-0.402551
O2	O	-4.073263	0.008482	-0.394888
O3	O	-4.091041	-0.348626	-0.399798
O4	O	-4.092264	-0.173087	-0.578118
O5	O	-4.072031	-0.168273	-0.215334
V6	V	-4.591232	-0.153765	-0.380159
O7	O	-4.389960	-0.224155	-0.451671
O8	O	-4.765752	-0.105415	-0.331038
O9	O	-4.391267	0.019056	-0.382912
O10	O	-4.749649	-0.338053	-0.387822
O11	O	-4.750880	-0.161298	-0.567376
O12	O	-4.390044	-0.156484	-0.204592
C13	C	-3.941308	-0.390757	-0.393448
C14	C	-4.003768	-0.532040	-0.392367
C15	C	-4.217163	-0.604887	-0.398301
C16	C	-4.275844	-0.737639	-0.397296
C17	C	-3.907710	-0.724682	-0.384417
C18	C	-3.849037	-0.591934	-0.385432
C19	C	-3.942867	-0.166837	-0.620910
C20	C	-4.006314	-0.165757	-0.764437
C21	C	-3.851194	-0.158485	-0.841584
C22	C	-4.039808	-0.266416	-0.947575
C23	C	-3.930779	-0.055914	-0.914188
C24	C	-4.194138	-0.273789	-0.868550
C25	C	-4.085029	-0.063191	-0.835140
C26	C	-4.273779	-0.171153	-0.941100
C27	C	-4.204342	0.061180	-0.389258
C28	C	-4.121122	0.202461	-0.390347
C29	C	-4.202783	-0.162738	-0.161793
C30	C	-4.118573	-0.163811	-0.018265
H31	H	-3.672030	-0.153274	-0.798136
O32	O	-3.641704	-0.521000	-0.379493
C33	C	-3.303811	-0.346412	-0.260746
C34	C	-3.538572	-0.426621	-0.267324
H35	H	-3.220344	-0.270106	-0.170050
H36	H	-3.313858	-0.297768	-0.351611
H37	H	-3.203374	-0.412056	-0.255668
H38	H	-3.639142	-0.361066	-0.272360
H39	H	-3.528361	-0.475280	-0.176460
O40	O	-4.017402	-0.368805	-1.005897
C41	C	-3.770232	-0.477971	-1.021021
C42	C	-3.795306	-0.361947	-0.954900
H43	H	-3.590688	-0.472479	-0.979797
H44	H	-3.820597	-0.476673	-1.130817
H45	H	-3.880911	-0.570715	-1.001336
H46	H	-3.684637	-0.269143	-0.974483
H47	H	-3.745019	-0.363359	-0.845125
O48	O	-4.326004	-0.383723	-0.843826
C49	C	-4.413830	-0.508063	-0.679970
C50	C	-4.264321	-0.383523	-0.707790
H51	H	-4.364045	-0.507931	-0.569986
H52	H	-4.394831	-0.594631	-0.727344
H53	H	-4.593427	-0.513788	-0.721999
H54	H	-4.084666	-0.377674	-0.665762
H55	H	-4.283510	-0.297016	-0.660441
H56	H	-4.453057	-0.176535	-0.984345
H57	H	-4.103399	0.022729	-0.786156
H58	H	-3.820065	0.036144	-0.934950
O59	O	-4.482974	-0.808504	-0.402864
C60	C	-4.704895	-0.948578	-0.296761
C61	C	-4.470190	-0.868405	-0.290307
H62	H	-4.694641	-0.997008	-0.205757
H63	H	-4.788454	-1.025056	-0.387320
H64	H	-4.805369	-0.882940	-0.301950
H65	H	-4.369536	-0.933941	-0.285069
H66	H	-4.386803	-0.791915	-0.199762
H67	H	-4.343158	-0.556125	-0.403946
H68	H	-3.781741	-0.773464	-0.378768
