data_functionalizedCrystal
_audit_creation_method	'MofGen! by Chris Wilmer'
_symmetry_space_group_name_H-M	'P1'
_symmetry_Int_Tables_number	1
_symmetry_cell_setting	triclinic
loop_
_symmetry_equiv_pos_as_xyz
  x,y,z
_cell_length_a	19.188930
_cell_length_b	19.188930
_cell_length_c	18.266242
_cell_angle_alpha	90.011475
_cell_angle_beta	89.977082
_cell_angle_gamma	96.855221
loop_
_atom_site_label
_atom_site_type_symbol
_atom_site_fract_x
_atom_site_fract_y
_atom_site_fract_z
O1	O	0.926149	-0.087169	-0.061124
O2	O	0.722838	-0.098903	-0.061075
O3	O	0.830361	0.008620	-0.061087
O4	O	0.818627	-0.194691	-0.061113
O5	O	0.830343	0.008625	0.060675
O6	O	0.722820	-0.098897	0.060687
O7	O	0.926131	-0.087163	0.060638
Zn8	Zn	0.824473	-0.093029	0.079994
Zn9	Zn	0.824497	-0.093037	-0.080432
O10	O	0.818608	-0.194686	0.060649
C11	C	0.696818	-0.098520	-0.000188
C12	C	0.619313	-0.097380	-0.000169
C13	C	0.574389	-0.160470	-0.000188
C14	C	0.501566	-0.159399	-0.000196
C15	C	0.473669	-0.095233	-0.000199
C16	C	0.518603	-0.032133	-0.000175
C17	C	0.591425	-0.033207	-0.000160
N18	N	0.365695	-0.046188	-0.041663
N19	N	0.296516	-0.045172	-0.041679
C20	C	0.254260	-0.091994	-0.000243
N21	N	0.283795	-0.139881	0.041200
N22	N	0.352980	-0.140899	0.041213
C23	C	0.394707	-0.094062	-0.000215
C24	C	0.130372	-0.153928	-0.000270
C25	C	0.057547	-0.152853	-0.000274
C26	C	0.074586	-0.025586	-0.000261
C27	C	0.147409	-0.026662	-0.000250
C28	C	0.175298	-0.090835	-0.000258
C29	C	0.829972	0.034634	-0.000204
C30	C	0.828831	0.112138	-0.000197
C31	C	0.952151	-0.087546	-0.000252
C32	C	1.029656	-0.088687	-0.000276
C33	C	0.818997	-0.220700	-0.000236
C34	C	0.820138	-0.298204	-0.000247
N35	N	0.824461	-0.093024	0.189481
C36	C	0.891922	0.157062	-0.000209
C37	C	0.890850	0.229886	-0.000220
C38	C	0.826684	0.257782	-0.000206
C39	C	0.763585	0.212849	-0.000198
C40	C	0.764658	0.140026	-0.000194
N41	N	0.777631	0.365789	0.041244
N42	N	0.776615	0.434968	0.041242
C43	C	0.823446	0.477191	-0.000220
N44	N	0.871341	0.447624	-0.041669
N45	N	0.872359	0.378439	-0.041664
C46	C	0.825513	0.336745	-0.000210
C47	C	0.885379	0.601079	-0.000245
C48	C	0.884305	0.673904	-0.000261
C49	C	0.757038	0.656865	-0.000231
C50	C	0.758114	0.584042	-0.000222
C51	C	0.822287	0.556154	-0.000226
N52	N	0.824513	-0.093037	-0.189919
C53	C	0.872088	-0.045436	0.227785
C54	C	0.872092	-0.045433	0.304430
C55	C	0.824477	-0.093030	0.342768
C56	C	0.776841	-0.140621	0.304455
C57	C	0.776834	-0.140618	0.227812
N58	N	0.815401	-0.154837	0.463094
N59	N	0.815413	-0.154838	0.535902
C60	C	0.824496	-0.093040	0.573691
N61	N	0.833582	-0.031239	0.535920
N62	N	0.833574	-0.031240	0.463106
C63	C	0.824480	-0.093038	0.425875
C64	C	0.872131	-0.045444	0.695101
C65	C	0.872130	-0.045440	0.771748
C66	C	0.776882	-0.140634	0.771772
C67	C	0.776879	-0.140632	0.695127
C68	C	0.824507	-0.093038	0.656796
H69	H	0.020970	-0.204232	-0.000285
Br70	Br	0.440585	-0.245028	-0.000218
H71	H	0.738071	-0.179374	0.335674
H72	H	0.738110	-0.179386	0.802986
Br73	Br	0.036735	0.061498	-0.000253
Br74	Br	0.208382	0.058966	-0.000225
Br75	Br	0.652398	0.052423	-0.000132
Br76	Br	0.612235	-0.247561	-0.000198
Br77	Br	0.480745	0.054950	-0.000172
Br78	Br	0.669953	0.694717	-0.000218
Br79	Br	0.979013	0.119216	-0.000234
Br80	Br	0.672486	0.523070	-0.000205
Br81	Br	0.712192	-0.205206	0.175824
Br82	Br	0.936765	0.019149	0.643080
Br83	Br	0.972468	0.563226	-0.000242
Br84	Br	0.936765	0.019154	0.823736
Br85	Br	0.168225	-0.241017	-0.000276
H86	H	0.942228	0.266470	-0.000233
Br87	Br	0.712243	-0.205221	0.643137
H88	H	0.711340	0.235567	-0.000187
H89	H	0.713281	0.103448	-0.000184
H90	H	0.935683	0.710481	-0.000274
Br91	Br	0.936721	0.019156	0.175764
H92	H	0.910877	-0.006680	0.335623
