data_functionalizedCrystal
_audit_creation_method	'MofGen! by Chris Wilmer'
_symmetry_space_group_name_H-M	'P1'
_symmetry_Int_Tables_number	1
_symmetry_cell_setting	triclinic
loop_
_symmetry_equiv_pos_as_xyz
  x,y,z
_cell_length_a	16.959455
_cell_length_b	16.625546
_cell_length_c	16.959447
_cell_angle_alpha	89.967702
_cell_angle_beta	89.977004
_cell_angle_gamma	90.019488
loop_
_atom_site_label
_atom_site_type_symbol
_atom_site_fract_x
_atom_site_fract_y
_atom_site_fract_z
Zn1	Zn	1.208391	-0.321049	-0.447026
Zn2	Zn	1.708391	0.178951	0.052974
Zn3	Zn	1.208302	-0.455897	-0.314843
Zn4	Zn	1.708302	0.044103	0.185157
Zn5	Zn	1.076214	-0.321075	-0.314849
Zn6	Zn	1.576214	0.178925	0.185151
Zn7	Zn	1.076179	-0.455836	-0.446968
Zn8	Zn	1.576179	0.044164	0.053032
O9	O	1.142271	-0.388464	-0.380921
O10	O	1.642271	0.111536	0.119079
O11	O	1.318990	-0.338951	-0.429513
O12	O	1.818990	0.161049	0.070487
O13	O	1.190758	-0.438048	-0.204233
O14	O	1.690758	0.061952	0.295767
O15	O	1.093799	-0.208239	-0.332410
O16	O	1.593799	0.291761	0.167590
O17	O	1.318925	-0.438023	-0.332399
O18	O	1.818925	0.061977	0.167601
O19	O	1.190909	-0.208220	-0.429520
O20	O	1.690909	0.291780	0.070480
O21	O	1.093713	-0.338995	-0.204238
O22	O	1.593713	0.161005	0.295762
O23	O	0.965598	-0.338937	-0.332354
O24	O	1.465598	0.161063	0.167646
O25	O	1.093740	-0.437921	-0.557586
O26	O	1.593740	0.062079	-0.057586
O27	O	0.965572	-0.437946	-0.429420
O28	O	1.465572	0.062054	0.070580
O29	O	1.190876	-0.338893	-0.557629
O30	O	1.690876	0.161107	-0.057629
O31	O	1.190724	-0.568721	-0.332342
O32	O	1.690724	-0.068721	0.167658
O33	O	1.093653	-0.568677	-0.429414
O34	O	1.593653	-0.068677	0.070586
C35	C	0.936905	-0.388438	-0.380882
C36	C	1.436905	0.111562	0.119118
C37	C	0.849048	-0.388446	-0.380883
C38	C	1.349048	0.111554	0.119117
C39	C	0.477528	-0.440000	-0.330328
C40	C	0.977528	0.060000	0.169672
C41	C	0.477618	-0.336996	-0.431611
C42	C	0.977618	0.163004	0.068389
C43	C	0.560164	-0.336982	-0.431592
C44	C	1.060164	0.163018	0.068408
C45	C	0.601396	-0.388479	-0.380941
C46	C	1.101396	0.111521	0.119059
C47	C	0.560082	-0.439990	-0.330309
C48	C	1.060082	0.060010	0.169691
C49	C	0.601484	-0.285479	-0.482228
C50	C	1.101484	0.214521	0.017772
C51	C	0.684034	-0.285464	-0.482211
C52	C	1.184034	0.214536	0.017789
C53	C	0.725268	-0.336958	-0.431556
C54	C	1.225268	0.163042	0.068444
C55	C	0.683949	-0.388469	-0.380922
C56	C	1.183949	0.111531	0.119078
C57	C	0.725181	-0.439967	-0.330271
C58	C	1.225181	0.060033	0.169729
C59	C	0.683864	-0.491475	-0.279632
C60	C	1.183864	0.008525	0.220368
C61	C	0.601315	-0.491484	-0.279654
C62	C	1.101315	0.008516	0.220346
C63	C	0.807816	-0.336949	-0.431534
C64	C	1.307816	0.163051	0.068466
C65	C	0.807735	-0.439957	-0.330252
C66	C	1.307735	0.060043	0.169748
C67	C	1.142197	-0.597955	-0.380888
C68	C	1.642197	-0.097955	0.119112
C69	C	1.142237	-0.687576	-0.380901
C70	C	1.642237	-0.187576	0.119099
C71	C	1.142375	-1.015752	-0.380983
C72	C	1.642375	-0.515752	0.119017
C73	C	1.142334	-0.924443	-0.380962
C74	C	1.642334	-0.424443	0.119038
C75	C	1.142305	-0.851667	-0.380941
C76	C	1.642305	-0.351667	0.119059
C77	C	1.142266	-0.760353	-0.380922
C78	C	1.642266	-0.260353	0.119078
C79	C	1.348440	-0.388491	-0.380962
C80	C	1.848440	0.111509	0.119038
C81	C	1.436296	-0.388503	-0.380979
C82	C	1.936296	0.111497	0.119021
C83	C	1.142314	-0.388397	-0.587090
C84	C	1.642314	0.111603	-0.087090
C85	C	1.142332	-0.388369	-0.674946
C86	C	1.642332	0.111631	-0.174946
C87	C	1.142368	-0.178155	-0.380972
C88	C	1.642368	0.321845	0.119028
C89	C	1.142409	-0.088534	-0.380994
C90	C	1.642409	0.411466	0.119006
C91	C	1.091875	-0.336711	-1.046431
C92	C	1.591875	0.163289	-0.546431
C93	C	1.192928	-0.439856	-1.046414
C94	C	1.692928	0.060144	-0.546414
C95	C	1.192914	-0.439875	-0.963868
C96	C	1.692914	0.060125	-0.463868
C97	C	1.142379	-0.388312	-0.922600
C98	C	1.642379	0.111688	-0.422600
C99	C	1.091858	-0.336730	-0.963877
C100	C	1.591858	0.163270	-0.463877
C101	C	1.243429	-0.491462	-0.922584
C102	C	1.743429	0.008538	-0.422584
C103	C	1.243417	-0.491483	-0.840033
C104	C	1.743417	0.008517	-0.340033
C105	C	1.192885	-0.439915	-0.798763
C106	C	1.692885	0.060085	-0.298763
C107	C	1.142362	-0.388331	-0.840046
C108	C	1.642362	0.111669	-0.340046
C109	C	1.091827	-0.336768	-0.798778
C110	C	1.591827	0.163232	-0.298778
C111	C	1.041308	-0.285179	-0.840059
C112	C	1.541308	0.214821	-0.340059
C113	C	1.041326	-0.285162	-0.922608
C114	C	1.541326	0.214838	-0.422608
C115	C	1.192867	-0.439932	-0.716215
C116	C	1.692867	0.060068	-0.216215
C117	C	1.091810	-0.336787	-0.716224
C118	C	1.591810	0.163213	-0.216224
C119	C	1.142275	-0.388473	-0.175555
C120	C	1.642275	0.111527	0.324445
C121	C	1.142410	-0.388274	-0.087699
C122	C	1.642410	0.111726	0.412301
H123	H	0.717668	-0.243522	-0.523444
H124	H	1.217668	0.256478	-0.023444
Br125	Br	0.863887	-0.267057	-0.500258
Br126	Br	1.363887	0.232943	-0.000258
Br127	Br	0.972769	-0.215157	-0.978637
Br128	Br	1.472769	0.284843	-0.478637
H129	H	1.050661	-0.294794	-0.682630
H130	H	1.550661	0.205206	-0.182630
Br131	Br	0.421459	-0.509895	-0.261602
Br132	Br	0.921459	-0.009895	0.238398
H133	H	0.567906	-0.243557	-0.523470
H134	H	1.067906	0.256443	-0.023470
Br135	Br	0.972726	-0.215204	-0.784043
Br136	Br	1.472726	0.284796	-0.284043
Br137	Br	1.023321	-0.266695	-1.102452
Br138	Br	1.523321	0.233305	-0.602452
H139	H	0.717446	-0.533408	-0.238396
H140	H	1.217446	-0.033408	0.261604
Br141	Br	1.261415	-0.509948	-0.660193
Br142	Br	1.761415	-0.009948	-0.160193
H143	H	1.234066	-0.481843	-1.080019
H144	H	1.734066	0.018157	-0.580019
H145	H	0.841300	-0.481890	-0.289002
H146	H	1.341300	0.018110	0.210998
H147	H	1.284563	-0.533451	-0.956190
H148	H	1.784563	-0.033451	-0.456190
Br149	Br	0.421660	-0.267121	-0.500359
Br150	Br	0.921660	0.232879	-0.000359
H151	H	0.567667	-0.533419	-0.238426
H152	H	1.067667	-0.033419	0.261574
Br153	Br	1.311980	-0.561493	-0.784015
Br154	Br	1.811980	-0.061493	-0.284015
