data_functionalizedCrystal
_audit_creation_method	'MofGen! by Chris Wilmer'
_symmetry_space_group_name_H-M	'P1'
_symmetry_Int_Tables_number	1
_symmetry_cell_setting	triclinic
loop_
_symmetry_equiv_pos_as_xyz
  x,y,z
_cell_length_a	23.532355
_cell_length_b	16.109301
_cell_length_c	14.586319
_cell_angle_alpha	89.998390
_cell_angle_beta	90.000005
_cell_angle_gamma	96.855510
loop_
_atom_site_label
_atom_site_type_symbol
_atom_site_fract_x
_atom_site_fract_y
_atom_site_fract_z
O1	O	0.755652	-0.100714	0.076119
O2	O	1.088985	0.232619	0.409452
O3	O	1.422319	0.565952	0.742785
O4	O	0.589838	-0.115362	0.076148
O5	O	0.923172	0.217971	0.409482
O6	O	1.256505	0.551304	0.742815
O7	O	0.677300	0.013030	0.076123
O8	O	1.010633	0.346363	0.409457
O9	O	1.343967	0.679696	0.742790
O10	O	0.668190	-0.229106	0.076144
O11	O	1.001523	0.104227	0.409477
O12	O	1.334857	0.437560	0.742810
O13	O	0.677289	0.013022	-0.076358
O14	O	1.010623	0.346355	0.256976
O15	O	1.343956	0.679689	0.590309
O16	O	0.589828	-0.115370	-0.076333
O17	O	0.923161	0.217963	0.257001
O18	O	1.256494	0.551297	0.590334
O19	O	0.755641	-0.100722	-0.076362
O20	O	1.088975	0.232611	0.256971
O21	O	1.422308	0.565945	0.590304
Cu22	Cu	0.672733	-0.108047	-0.090270
Cu23	Cu	1.006067	0.225287	0.243063
Cu24	Cu	1.339400	0.558620	0.576397
Cu25	Cu	0.672746	-0.108038	0.090056
Cu26	Cu	1.006079	0.225296	0.423389
Cu27	Cu	1.339413	0.558629	0.756723
O28	O	0.668179	-0.229114	-0.076337
O29	O	1.001513	0.104219	0.256996
O30	O	1.334846	0.437553	0.590329
C31	C	0.568615	-0.115000	-0.000089
C32	C	0.901948	0.218333	0.333245
C33	C	1.235282	0.551666	0.666578
C34	C	0.505392	-0.113899	-0.000078
C35	C	0.838726	0.219434	0.333256
C36	C	1.172059	0.552767	0.666589
C37	C	0.113347	-0.106987	-0.083234
C38	C	0.446681	0.226347	0.250099
C39	C	0.780014	0.559680	0.583433
C40	C	0.053944	-0.105939	-0.083237
C41	C	0.387277	0.227394	0.250096
C42	C	0.720611	0.560727	0.583429
O43	O	0.023218	-0.105373	-0.153925
O44	O	0.356552	0.227960	0.179409
O45	O	0.689885	0.561294	0.512742
N46	N	0.024239	-0.105416	-0.000121
N47	N	0.357573	0.227918	0.333213
N48	N	0.690906	0.561251	0.666546
C49	C	0.053942	-0.105931	0.083005
C50	C	0.387275	0.227402	0.416339
C51	C	0.720609	0.560735	0.749672
O52	O	0.023221	-0.105389	0.153703
O53	O	0.356555	0.227944	0.487036
O54	O	0.689888	0.561278	0.820369
C55	C	0.113345	-0.106973	0.083008
C56	C	0.446678	0.226361	0.416341
C57	C	0.780011	0.559694	0.749675
C58	C	0.143045	-0.107505	-0.000114
C59	C	0.476379	0.225829	0.333219
C60	C	0.809712	0.559162	0.666552
C61	C	0.143048	-0.107518	-0.166349
C62	C	0.476381	0.225816	0.166984
C63	C	0.809715	0.559149	0.500317
C64	C	0.202447	-0.108566	-0.166345
C65	C	0.535780	0.224767	0.166988
C66	C	0.869114	0.558100	0.500321
C67	C	0.232145	-0.109084	-0.083226
C68	C	0.565479	0.224249	0.250107
C69	C	0.898812	0.557582	0.583441
C70	C	0.202444	-0.108553	-0.000110
C71	C	0.535778	0.224780	0.333223
C72	C	0.869111	0.558113	0.666556
C73	C	0.143047	-0.107482	0.166133
C74	C	0.476380	0.225851	0.499467
C75	C	0.809713	0.559185	0.832800
C76	C	0.202453	-0.108523	0.166129
C77	C	0.535787	0.224811	0.499462
C78	C	0.869120	0.558144	0.832795
C79	C	0.232154	-0.109055	0.083006
C80	C	0.565488	0.224279	0.416340
C81	C	0.898821	0.557612	0.749673
C82	C	0.291542	-0.110120	0.083013
C83	C	0.624875	0.223213	0.416347
C84	C	0.958208	0.556547	0.749680
N85	N	0.321246	-0.110644	-0.000104
N86	N	0.654580	0.222690	0.333230
N87	N	0.987913	0.556023	0.666563
C88	C	0.291548	-0.110126	-0.083223
C89	C	0.624881	0.223208	0.250110
C90	C	0.958215	0.556541	0.583443
C91	C	-0.070808	-0.103743	0.082993
C92	C	0.262526	0.229591	0.416327
C93	C	0.595859	0.562924	0.749660
C94	C	-0.130210	-0.102707	0.082992
C95	C	0.203123	0.230626	0.416325
C96	C	0.536457	0.563959	0.749658
C97	C	-0.130204	-0.102714	-0.083251
C98	C	0.203130	0.230619	0.250082
C99	C	0.536463	0.563953	0.583415
C100	C	-0.070801	-0.103755	-0.083249
C101	C	0.262532	0.229578	0.250084
C102	C	0.595866	0.562911	0.583418
C103	C	-0.041103	-0.104266	-0.000123
C104	C	0.292230	0.229067	0.333210
C105	C	0.625564	0.562400	0.666543
C106	C	0.416290	-0.112329	-0.083209
C107	C	0.749624	0.221004	0.250125
C108	C	1.082957	0.554338	0.583458
C109	C	0.475694	-0.113382	-0.083197
C110	C	0.809028	0.219952	0.250136
C111	C	1.142361	0.553285	0.583469
C112	C	0.475683	-0.113370	0.083045
C113	C	0.809016	0.219963	0.416379
C114	C	1.142350	0.553296	0.749712
C115	C	0.416284	-0.112323	0.083035
C116	C	0.749617	0.221011	0.416368
C117	C	1.082951	0.554344	0.749701
C118	C	0.386589	-0.111799	-0.000100
C119	C	0.719923	0.221534	0.333234
C120	C	1.053256	0.554868	0.666567
O121	O	0.322305	-0.110684	0.153664
O122	O	0.655639	0.222650	0.486998
O123	O	0.988972	0.555983	0.820331
O124	O	0.322277	-0.110657	-0.153908
O125	O	0.655610	0.222676	0.179425
O126	O	0.988944	0.556010	0.512758
C127	C	0.676926	0.043998	-0.000118
C128	C	1.010259	0.377331	0.333216
C129	C	1.343592	0.710664	0.666549
C130	C	0.675819	0.136284	-0.000119
C131	C	1.009153	0.469617	0.333215
C132	C	1.342486	0.802951	0.666548
C133	C	0.776864	-0.101084	-0.000123
C134	C	1.110198	0.232249	0.333210
C135	C	1.443531	0.565582	0.666543
C136	C	0.840087	-0.102185	-0.000128
C137	C	1.173420	0.231148	0.333205
C138	C	1.506754	0.564482	0.666538
N139	N	0.672729	-0.108053	-0.217102
N140	N	1.006062	0.225281	0.116231
N141	N	1.339395	0.558614	0.449565
C142	C	0.668554	-0.260082	-0.000094
C143	C	1.001887	0.073251	0.333239
C144	C	1.335220	0.406585	0.666572
C145	C	0.669660	-0.352368	-0.000087
C146	C	1.002993	-0.019035	0.333246
C147	C	1.336327	0.314298	0.666579
C148	C	0.725145	0.358958	-0.000113
C149	C	1.058478	0.692291	0.333220
C150	C	1.391812	1.025624	0.666554
C151	C	0.724101	0.445670	-0.000105
C152	C	1.057434	0.779003	0.333228
C153	C	1.390768	1.112336	0.666561
C154	C	0.620331	0.424951	-0.000090
C155	C	0.953664	0.758284	0.333243
C156	C	1.286997	1.091618	0.666576
C157	C	0.621375	0.338241	-0.000091
C158	C	0.954708	0.671574	0.333242
C159	C	1.288042	1.004907	0.666575
C160	C	0.673784	0.305247	-0.000107
C161	C	1.007117	0.638580	0.333226
C162	C	1.340451	0.971913	0.666559
C163	C	0.671695	0.478669	-0.000099
C164	C	1.005029	0.812002	0.333235
C165	C	1.338362	1.145335	0.666568
C166	C	0.670563	0.572686	-0.000090
C167	C	1.003896	0.906019	0.333243
C168	C	1.337230	1.239352	0.666576
C169	C	0.674917	0.211224	-0.000114
C170	C	1.008250	0.544557	0.333219
C171	C	1.341583	0.877891	0.666553
C172	C	0.707269	-0.158200	-0.452110
C173	C	1.040602	0.175133	-0.118777
C174	C	1.373935	0.508466	0.214556
C175	C	0.707275	-0.158194	-0.548092
C176	C	1.040608	0.175139	-0.214758
C177	C	1.373941	0.508472	0.118575
C178	C	0.638214	-0.057872	-0.548097
C179	C	0.971547	0.275461	-0.214764
C180	C	1.304881	0.608795	0.118570
C181	C	0.638212	-0.057874	-0.452118
C182	C	0.971545	0.275460	-0.118784
C183	C	1.304878	0.608793	0.214549
C184	C	0.672738	-0.108043	-0.404127
C185	C	1.006071	0.225291	-0.070793
C186	C	1.339404	0.558624	0.262540
C187	C	0.672746	-0.108035	-0.596087
C188	C	1.006080	0.225298	-0.262754
C189	C	1.339413	0.558632	0.070579
C190	C	0.672752	-0.108028	-0.700155
C191	C	1.006086	0.225305	-0.366821
C192	C	1.339419	0.558638	-0.033488
C193	C	0.672733	-0.108048	-0.300053
C194	C	1.006066	0.225285	0.033280
C195	C	1.339399	0.558618	0.366614
N196	N	0.672755	-0.108025	0.216888
N197	N	1.006089	0.225308	0.550221
N198	N	1.339422	0.558641	0.883554
H199	H	0.226625	-0.108995	-0.234032
H200	H	0.559958	0.224339	0.099301
H201	H	0.893291	0.557672	0.432634
Cl202	Cl	0.513028	-0.114053	-0.187702
Cl203	Cl	0.846362	0.219281	0.145632
Cl204	Cl	1.179695	0.552614	0.478965
Cl205	Cl	0.239784	-0.109163	0.270636
Cl206	Cl	0.573117	0.224170	0.603970
Cl207	Cl	0.906451	0.557503	0.937303
H208	H	0.610092	-0.017025	-0.413048
H209	H	0.943425	0.316308	-0.079715
H210	H	1.276759	0.649641	0.253618
Cl211	Cl	0.105724	-0.106872	-0.270857
Cl212	Cl	0.439057	0.226462	0.062476
Cl213	Cl	0.772390	0.559795	0.395809
H214	H	0.735394	-0.199037	-0.587156
H215	H	1.068727	0.134297	-0.253822
H216	H	1.402060	0.467630	0.079511
Cl217	Cl	0.594808	0.005187	-0.608435
Cl218	Cl	0.928141	0.338521	-0.275102
Cl219	Cl	1.261474	0.671854	0.058232
Cl220	Cl	0.378969	-0.111671	-0.187722
Cl221	Cl	0.712302	0.221662	0.145611
Cl222	Cl	1.045636	0.554996	0.478945
H223	H	0.577661	0.451826	-0.000079
H224	H	0.910994	0.785159	0.333254
H225	H	1.244328	1.118492	0.666588
Cl226	Cl	-0.167549	-0.102059	-0.187746
Cl227	Cl	0.165784	0.231274	0.145587
Cl228	Cl	0.499117	0.564607	0.478921
Cl229	Cl	-0.033469	-0.104421	-0.187749
Cl230	Cl	0.299865	0.228912	0.145584
Cl231	Cl	0.633198	0.562246	0.478918
Cl232	Cl	-0.033480	-0.104395	0.187505
Cl233	Cl	0.299853	0.228938	0.520838
Cl234	Cl	0.633186	0.562272	0.854172
Cl235	Cl	-0.167542	-0.102055	0.187493
Cl236	Cl	0.165791	0.231278	0.520826
Cl237	Cl	0.499125	0.564611	0.854160
H238	H	0.579548	0.294507	-0.000084
H239	H	0.912882	0.627840	0.333249
H240	H	1.246215	0.961173	0.666582
Cl241	Cl	0.105723	-0.106810	0.270637
Cl242	Cl	0.439057	0.226523	0.603970
Cl243	Cl	0.772390	0.559857	0.937304
H244	H	0.392099	-0.111903	0.150720
H245	H	0.725432	0.221430	0.484053
H246	H	1.058766	0.554764	0.817386
H247	H	0.767820	0.332097	-0.000124
H248	H	1.101153	0.665430	0.333209
H249	H	1.434486	0.998764	0.666543
Cl250	Cl	0.513030	-0.114016	0.187533
Cl251	Cl	0.846363	0.219317	0.520866
Cl252	Cl	1.179696	0.552650	0.854200
Cl253	Cl	0.750678	-0.221263	-0.391782
Cl254	Cl	1.084011	0.112071	-0.058449
Cl255	Cl	1.417344	0.445404	0.274885
H256	H	0.765924	0.489398	-0.000108
H257	H	1.099258	0.822732	0.333226
H258	H	1.432591	1.156065	0.666559
