data_functionalizedCrystal
_audit_creation_method	'MofGen! by Chris Wilmer'
_symmetry_space_group_name_H-M	'P1'
_symmetry_Int_Tables_number	1
_symmetry_cell_setting	triclinic
loop_
_symmetry_equiv_pos_as_xyz
  x,y,z
_cell_length_a	16.974829
_cell_length_b	10.540510
_cell_length_c	16.053802
_cell_angle_alpha	92.593693
_cell_angle_beta	83.771117
_cell_angle_gamma	83.954751
loop_
_atom_site_label
_atom_site_type_symbol
_atom_site_fract_x
_atom_site_fract_y
_atom_site_fract_z
O1	O	1.056754	0.150981	-0.140825
O2	O	0.825920	0.172779	-0.125230
O3	O	0.946616	-0.022942	-0.133384
O4	O	0.936059	0.346702	-0.132671
O5	O	0.939972	-0.012213	0.005924
O6	O	0.819277	0.183508	0.014078
O7	O	1.050110	0.161710	-0.001517
Zn8	Zn	0.933639	0.174313	0.028399
Zn9	Zn	0.942392	0.160177	-0.155145
O10	O	0.929415	0.357431	0.006637
C11	C	0.793041	0.177513	-0.053579
C12	C	0.704968	0.175616	-0.047629
C13	C	0.208817	0.165612	-0.005984
C14	C	0.291571	0.167394	-0.011577
C15	C	0.336571	0.162426	-0.090311
C16	C	0.298811	0.155690	-0.163457
C17	C	0.216058	0.153918	-0.157864
C18	C	0.584455	0.167108	-0.115182
C19	C	0.667214	0.168877	-0.120770
C20	C	0.659968	0.180583	0.031112
C21	C	0.577214	0.178802	0.036698
C22	C	0.539461	0.172073	-0.036448
N23	N	0.421159	0.164243	-0.096029
N24	N	0.454874	0.170265	-0.030729
C25	C	0.942507	-0.064864	-0.063678
C26	C	0.940154	-0.205764	-0.063524
C27	C	1.023985	-0.424990	-0.068870
C28	C	1.026511	-0.278473	-0.069358
C29	C	0.899741	-0.255703	-0.140087
C30	C	0.897845	-0.402428	-0.140021
C31	C	0.888491	-0.389997	0.018519
C32	C	0.892537	-0.243663	0.019289
C33	C	1.082990	0.156977	-0.073170
C34	C	1.171063	0.158873	-0.079125
C35	C	0.933523	0.399353	-0.063070
C36	C	0.935877	0.540253	-0.063230
N37	N	0.927671	0.183959	0.153662
N38	N	0.948366	0.150520	-0.280409
C39	C	0.979046	0.100709	0.193885
C40	C	0.974878	0.107469	0.281574
C41	C	0.919339	0.197486	0.329037
C42	C	0.867959	0.280739	0.288808
C43	C	0.872123	0.273973	0.201122
C44	C	0.901150	0.227008	0.591675
C45	C	0.896991	0.233771	0.679368
C46	C	1.003911	0.060497	0.672127
C47	C	1.008073	0.053744	0.584439
C48	C	0.956689	0.136993	0.544218
N49	N	0.915080	0.204400	0.418668
N50	N	0.960945	0.130072	0.454588
H51	H	0.690715	0.186064	0.090663
N52	N	0.160288	0.170958	0.078938
H53	H	0.196832	0.174615	0.124415
H54	H	0.120175	0.249628	0.085197
N55	N	1.038935	0.003606	0.142688
H56	H	1.076056	0.049084	0.103898
H57	H	1.070792	-0.048093	0.181527
H58	H	0.335456	0.151654	-0.227565
H59	H	0.930892	-0.447870	-0.201527
H60	H	0.185320	0.148433	-0.217424
N61	N	1.067979	-0.043346	0.533252
H62	H	1.123629	-0.027878	0.544696
H63	H	1.057550	-0.132162	0.549196
N64	N	0.812522	-0.431440	-0.139036
H65	H	0.776307	-0.348947	-0.138649
H66	H	0.807205	-0.486901	-0.190651
N67	N	1.071877	-0.489326	-0.147011
H68	H	1.128395	-0.466496	-0.150155
H69	H	1.072187	-0.585010	-0.145039
H70	H	0.322307	0.172878	0.047983
H71	H	0.823628	-0.410718	0.023435
H72	H	1.016712	0.039679	0.314323
H73	H	0.851762	0.307079	0.718009
N74	N	0.815720	-0.191420	-0.138330
H75	H	0.790898	-0.224964	-0.188110
H76	H	0.783173	-0.210182	-0.084731
N77	N	0.920842	-0.440821	0.095947
H78	H	0.889594	-0.394756	0.147662
H79	H	0.915768	-0.535333	0.097333
N80	N	1.068702	-0.234748	0.003093
H81	H	1.085826	-0.310699	0.035634
H82	H	1.117158	-0.193398	-0.019165
N83	N	1.076202	-0.247645	-0.148134
H84	H	1.096544	-0.329291	-0.182680
H85	H	1.042423	-0.189678	-0.181922
N86	N	0.944142	-0.221753	-0.221258
H87	H	0.990434	-0.174049	-0.208616
H88	H	0.964746	-0.302527	-0.256624
N89	N	0.931417	-0.200668	0.094371
H90	H	0.979673	-0.156820	0.074832
H91	H	0.892120	-0.139119	0.132203
H92	H	0.829261	-0.192877	0.028353
N93	N	1.059328	-0.029290	0.715508
H94	H	1.048265	-0.011348	0.778259
H95	H	1.050391	-0.120465	0.700842
N96	N	0.845727	0.316787	0.548300
H97	H	0.809914	0.374837	0.591676
H98	H	0.878127	0.369919	0.509829
N99	N	0.808056	0.377839	0.339992
H100	H	0.752402	0.362377	0.328557
H101	H	0.813283	0.369454	0.401626
H102	H	0.830286	0.341762	0.168373
H103	H	0.540583	0.182819	0.100812
H104	H	1.054909	-0.463272	-0.014094
H105	H	0.703850	0.164842	-0.184888
H106	H	0.553727	0.161624	-0.174743
