data_functionalizedCrystal
_audit_creation_method	'MofGen! by Chris Wilmer'
_symmetry_space_group_name_H-M	'P1'
_symmetry_Int_Tables_number	1
_symmetry_cell_setting	triclinic
loop_
_symmetry_equiv_pos_as_xyz
  x,y,z
_cell_length_a	27.732064
_cell_length_b	27.732048
_cell_length_c	7.681481
_cell_angle_alpha	84.300807
_cell_angle_beta	95.683562
_cell_angle_gamma	82.646040
loop_
_atom_site_label
_atom_site_type_symbol
_atom_site_fract_x
_atom_site_fract_y
_atom_site_fract_z
O1	O	0.636326	0.062156	-0.146138
O2	O	0.969660	0.395490	0.187195
O3	O	1.302993	0.728823	0.520529
O4	O	0.495532	0.070896	-0.146213
O5	O	0.828865	0.404229	0.187120
O6	O	1.162198	0.737562	0.520454
O7	O	0.570303	-0.003872	-0.146140
O8	O	0.903636	0.329462	0.187194
O9	O	1.236970	0.662795	0.520527
O10	O	0.561555	0.136924	-0.146211
O11	O	0.894889	0.470257	0.187122
O12	O	1.228222	0.803590	0.520455
O13	O	0.579506	-0.013095	0.146727
O14	O	0.912839	0.320239	0.480061
O15	O	1.246173	0.653572	0.813394
O16	O	0.504735	0.061673	0.146654
O17	O	0.838068	0.395006	0.479987
O18	O	1.171402	0.728339	0.813320
O19	O	0.645530	0.052933	0.146729
O20	O	0.978863	0.386266	0.480062
O21	O	1.312196	0.719600	0.813396
Zn22	Zn	0.576593	0.055838	0.193190
Zn23	Zn	0.909927	0.389172	0.526524
Zn24	Zn	1.243260	0.722505	0.859857
Zn25	Zn	0.564468	0.067990	-0.192674
Zn26	Zn	0.897801	0.401324	0.140659
Zn27	Zn	1.231134	0.734657	0.473992
O28	O	0.570758	0.127700	0.146655
O29	O	0.904092	0.461034	0.479989
O30	O	1.237425	0.794367	0.813322
C31	C	0.482126	0.066100	0.000211
C32	C	0.815460	0.399433	0.333545
C33	C	1.148793	0.732766	0.666878
C34	C	0.428471	0.065545	0.000184
C35	C	0.761804	0.398878	0.333517
C36	C	1.095138	0.732211	0.666851
C37	C	0.051402	0.017574	0.000309
C38	C	0.384735	0.350907	0.333642
C39	C	0.718069	0.684240	0.666975
C40	C	0.253061	0.019621	0.000262
C41	C	0.586394	0.352955	0.333595
C42	C	0.919728	0.686288	0.666929
O43	O	0.284316	-0.017602	0.000347
O44	O	0.617650	0.315731	0.333680
O45	O	0.950983	0.649064	0.667013
N46	N	0.272187	0.063957	0.000232
N47	N	0.605521	0.397290	0.333565
N48	N	0.938854	0.730623	0.666898
C49	C	0.240896	0.107783	0.000224
C50	C	0.574229	0.441116	0.333558
C51	C	0.907563	0.774449	0.666891
O52	O	0.261792	0.145539	0.000216
O53	O	0.595125	0.478872	0.333549
O54	O	0.928459	0.812206	0.666882
C55	C	0.039239	0.105734	0.000284
C56	C	0.372572	0.439067	0.333617
C57	C	0.705905	0.772401	0.666951
C58	C	0.020115	0.061396	0.000296
C59	C	0.353448	0.394730	0.333630
C60	C	0.686781	0.728063	0.666963
C61	C	0.032278	-0.026760	0.000323
C62	C	0.365611	0.306573	0.333657
C63	C	0.698944	0.639906	0.666990
C64	C	-0.018134	-0.027272	0.000325
C65	C	0.315199	0.306062	0.333659
C66	C	0.648532	0.639395	0.666992
C67	C	-0.049422	0.016551	0.000313
C68	C	0.283911	0.349885	0.333646
C69	C	0.617245	0.683218	0.666980
C70	C	-0.030297	0.060885	0.000299
C71	C	0.303036	0.394219	0.333632
C72	C	0.636369	0.727552	0.666965
C73	C	0.007949	0.149559	0.000289
C74	C	0.341282	0.482893	0.333623
C75	C	0.674615	0.816226	0.666956
C76	C	-0.042468	0.149043	0.000309
C77	C	0.290865	0.482376	0.333642
C78	C	0.624199	0.815710	0.666975
C79	C	-0.061592	0.104705	0.000321
C80	C	0.271741	0.438039	0.333655
C81	C	0.605074	0.771372	0.666988
C82	C	-0.111997	0.104197	0.000288
C83	C	0.221336	0.437530	0.333622
C84	C	0.554670	0.770864	0.666955
N85	N	-0.131123	0.059862	0.000319
N86	N	0.202210	0.393195	0.333652
N87	N	0.535543	0.726528	0.666985
C88	C	-0.099836	0.016039	0.000331
C89	C	0.233497	0.349372	0.333664
C90	C	0.566831	0.682706	0.666998
C91	C	0.346769	0.108855	0.000190
C92	C	0.680103	0.442189	0.333523
C93	C	1.013436	0.775522	0.666856
C94	C	0.397183	0.109368	0.000172
C95	C	0.730517	0.442701	0.333505
C96	C	1.063850	0.776034	0.666838
C97	C	0.409345	0.021206	0.000213
C98	C	0.742678	0.354539	0.333546
C99	C	1.076012	0.687873	0.666879
C100	C	0.358930	0.020694	0.000218
C101	C	0.692263	0.354028	0.333551
C102	C	1.025596	0.687361	0.666885
C103	C	0.327643	0.064520	0.000220
C104	C	0.660976	0.397853	0.333553
C105	C	0.994310	0.731187	0.666887
C106	C	-0.205705	0.014969	0.000334
C107	C	0.127628	0.348302	0.333667
C108	C	0.460961	0.681636	0.667001
C109	C	-0.256123	0.014462	0.000329
C110	C	0.077211	0.347795	0.333662
C111	C	0.410544	0.681128	0.666995
C112	C	-0.268279	0.102623	0.000297
C113	C	0.065054	0.435956	0.333631
C114	C	0.398387	0.769290	0.666964
C115	C	-0.217867	0.103131	0.000293
C116	C	0.115466	0.436464	0.333626
C117	C	0.448800	0.769797	0.666960
C118	C	-0.186580	0.059299	0.000317
C119	C	0.146753	0.392633	0.333651
C120	C	0.480086	0.725966	0.666984
O121	O	-0.143280	0.141400	0.000223
O122	O	0.190053	0.474734	0.333557
O123	O	0.523387	0.808067	0.666890
O124	O	-0.120740	-0.021713	0.000379
O125	O	0.212593	0.311620	0.333712
O126	O	0.545926	0.644954	0.667046
C127	C	0.101814	0.018085	0.000307
C128	C	0.435147	0.351418	0.333640
C129	C	0.768481	0.684751	0.666973
C130	C	0.120939	0.062419	0.000292
C131	C	0.454272	0.395752	0.333626
C132	C	0.787605	0.729085	0.666959
C133	C	0.089651	0.106242	0.000280
C134	C	0.422985	0.439575	0.333613
C135	C	0.756318	0.772908	0.666946
C136	C	0.171353	0.062931	0.000274
C137	C	0.504686	0.396265	0.333607
C138	C	0.838019	0.729598	0.666941
C139	C	0.202640	0.019108	0.000287
C140	C	0.535974	0.352442	0.333620
C141	C	0.869307	0.685775	0.666953
C142	C	0.183514	-0.025227	0.000317
C143	C	0.516847	0.308106	0.333650
C144	C	0.850180	0.641440	0.666984
C145	C	0.133102	-0.025738	0.000319
C146	C	0.466435	0.307595	0.333652
C147	C	0.799768	0.640929	0.666986
C148	C	0.108778	0.150577	0.000249
C149	C	0.442111	0.483910	0.333583
C150	C	0.775444	0.817244	0.666916
C151	C	0.159190	0.151085	0.000245
C152	C	0.492524	0.484418	0.333579
C153	C	0.825857	0.817751	0.666912
C154	C	0.190478	0.107262	0.000258
C155	C	0.523811	0.440595	0.333591
C156	C	0.857144	0.773928	0.666924
C157	C	0.574721	-0.026490	0.000299
C158	C	0.908054	0.306843	0.333632
C159	C	1.241388	0.640176	0.666965
C160	C	0.574169	-0.080146	0.000313
C161	C	0.907502	0.253188	0.333646
C162	C	1.240835	0.586521	0.666979
C163	C	0.614870	-0.418956	0.000244
C164	C	0.948203	-0.085623	0.333577
C165	C	1.281537	0.247711	0.666911
C166	C	0.612818	-0.620615	0.000218
C167	C	0.946152	-0.287282	0.333552
C168	C	1.279485	0.046052	0.666885
O169	O	0.650037	-0.651867	0.000161
O170	O	0.983370	-0.318533	0.333495
O171	O	1.316703	0.014800	0.666828
N172	N	0.568483	-0.639741	0.000196
N173	N	0.901816	-0.306407	0.333530
N174	N	1.235149	0.026926	0.666863
C175	C	0.524657	-0.608448	0.000169
C176	C	0.857990	-0.275114	0.333503
C177	C	1.191323	0.058219	0.666836
O178	O	0.486899	-0.629342	0.000132
O179	O	0.820232	-0.296009	0.333465
O180	O	1.153566	0.037325	0.666799
C181	C	0.526708	-0.406789	0.000182
C182	C	0.860042	-0.073456	0.333516
C183	C	1.193375	0.259877	0.666849
C184	C	0.571047	-0.387667	0.000222
C185	C	0.904381	-0.054334	0.333556
C186	C	1.237714	0.278999	0.666889
C187	C	0.659205	-0.399833	0.000282
C188	C	0.992539	-0.066500	0.333615
C189	C	1.325872	0.266833	0.666949
C190	C	0.659718	-0.349422	0.000298
C191	C	0.993051	-0.016089	0.333631
C192	C	1.326385	0.317245	0.666965
C193	C	0.615896	-0.318133	0.000276
C194	C	0.949229	0.015200	0.333609
C195	C	1.282562	0.348534	0.666943
C196	C	0.571560	-0.337256	0.000238
C197	C	0.904894	-0.003923	0.333572
C198	C	1.238227	0.329411	0.666905
C199	C	0.482883	-0.375497	0.000143
C200	C	0.816216	-0.042164	0.333476
C201	C	1.149549	0.291170	0.666809
C202	C	0.483399	-0.325080	0.000141
C203	C	0.816733	0.008254	0.333475
C204	C	1.150066	0.341587	0.666808
C205	C	0.527738	-0.305958	0.000181
C206	C	0.861072	0.027376	0.333515
C207	C	1.194405	0.360709	0.666848
C208	C	0.528250	-0.255556	0.000232
C209	C	0.861584	0.077778	0.333566
C210	C	1.194917	0.411111	0.666899
N211	N	0.572586	-0.236430	0.000254
N212	N	0.905919	0.096903	0.333588
N213	N	1.239253	0.430237	0.666921
C214	C	0.616409	-0.267719	0.000276
C215	C	0.949742	0.065615	0.333610
C216	C	1.283075	0.398948	0.666943
C217	C	0.523583	-0.714322	0.000166
C218	C	0.856916	-0.380989	0.333499
C219	C	1.190249	-0.047655	0.666833
C220	C	0.523070	-0.764736	0.000166
C221	C	0.856403	-0.431403	0.333499
C222	C	1.189736	-0.098070	0.666832
C223	C	0.611231	-0.776900	0.000212
C224	C	0.944565	-0.443567	0.333545
C225	C	1.277898	-0.110233	0.666878
C226	C	0.611744	-0.726485	0.000224
C227	C	0.945077	-0.393152	0.333558
C228	C	1.278411	-0.059818	0.666891
C229	C	0.567918	-0.695196	0.000188
C230	C	0.901251	-0.361863	0.333521
C231	C	1.234585	-0.028529	0.666855
C232	C	0.617482	-0.161851	0.000311
C233	C	0.950815	0.171483	0.333645
C234	C	1.284149	0.504816	0.666978
C235	C	0.617991	-0.111434	0.000335
C236	C	0.951325	0.221899	0.333668
C237	C	1.284658	0.555232	0.667001
C238	C	0.529830	-0.099275	0.000280
C239	C	0.863163	0.234059	0.333613
C240	C	1.196496	0.567392	0.666946
C241	C	0.529320	-0.149687	0.000265
C242	C	0.862654	0.183646	0.333599
C243	C	1.195987	0.516980	0.666932
C244	C	0.573150	-0.180974	0.000275
C245	C	0.906484	0.152359	0.333609
C246	C	1.239817	0.485693	0.666942
O247	O	0.491051	-0.224275	0.000270
O248	O	0.824385	0.109058	0.333603
O249	O	1.157718	0.442392	0.666936
O250	O	0.654160	-0.246814	0.000275
O251	O	0.987493	0.086520	0.333608
O252	O	1.320826	0.419853	0.666941
C253	C	0.614357	-0.469368	0.000228
C254	C	0.947691	-0.136034	0.333561
C255	C	1.281024	0.197299	0.666895
C256	C	0.570022	-0.488490	0.000190
C257	C	0.903355	-0.155157	0.333524
C258	C	1.236689	0.178176	0.666857
C259	C	0.526199	-0.457202	0.000168
C260	C	0.859533	-0.123868	0.333502
C261	C	1.192866	0.209465	0.666835
C262	C	0.569509	-0.538905	0.000190
C263	C	0.902842	-0.205571	0.333523
C264	C	1.236176	0.127762	0.666857
C265	C	0.613331	-0.570193	0.000212
C266	C	0.946665	-0.236860	0.333545
C267	C	1.279998	0.096473	0.666879
C268	C	0.657667	-0.551068	0.000234
C269	C	0.991000	-0.217734	0.333567
C270	C	1.324334	0.115599	0.666901
C271	C	0.658180	-0.500656	0.000250
C272	C	0.991513	-0.167323	0.333583
C273	C	1.324846	0.166010	0.666917
C274	C	0.481864	-0.476327	0.000146
C275	C	0.815197	-0.142994	0.333480
C276	C	1.148531	0.190339	0.666813
C277	C	0.481355	-0.526739	0.000132
C278	C	0.814688	-0.193406	0.333466
C279	C	1.148021	0.139927	0.666799
C280	C	0.525177	-0.558028	0.000154
C281	C	0.858511	-0.224695	0.333487
C282	C	1.191844	0.108639	0.666821
C283	C	0.658935	0.057729	0.000301
C284	C	0.992268	0.391063	0.333634
C285	C	1.325602	0.724396	0.666967
C286	C	0.712590	0.058285	0.000316
C287	C	1.045923	0.391618	0.333650
C288	C	1.379256	0.724951	0.666983
C289	C	0.566340	0.150319	0.000213
C290	C	0.899673	0.483653	0.333547
C291	C	1.233007	0.816986	0.666880
C292	C	0.566892	0.203975	0.000188
C293	C	0.900225	0.537308	0.333521
C294	C	1.233559	0.870642	0.666854
N295	N	0.584872	0.047545	0.456533
N296	N	0.918206	0.380878	0.789866
N297	N	1.251539	0.714211	1.123199
N298	N	0.556193	0.076280	-0.456017
N299	N	0.889526	0.409614	-0.122683
N300	N	1.222859	0.742947	0.210650
H301	H	-0.180237	-0.020723	0.000353
H302	H	0.153096	0.312611	0.333687
H303	H	0.486429	0.645944	0.667020
O304	O	0.475249	-0.785361	0.000156
O305	O	0.808582	-0.452027	0.333489
O306	O	1.141915	-0.118694	0.666823
H307	H	0.450461	-0.769005	-0.119230
H308	H	0.783794	-0.435672	0.214103
H309	H	1.117127	-0.102339	0.547437
H310	H	0.695823	-0.333857	0.000323
H311	H	1.029156	-0.000524	0.333657
H312	H	1.362490	0.332809	0.666990
H313	H	0.646913	-0.802384	0.000230
H314	H	0.980247	-0.469051	0.333564
H315	H	1.313580	-0.135717	0.666897
H316	H	0.526916	0.105611	0.468758
H317	H	0.860250	0.438944	0.802091
H318	H	1.193583	0.772278	1.135424
H319	H	0.614154	0.018216	0.531767
H320	H	0.947487	0.351549	0.865101
H321	H	1.280821	0.684882	1.198434
H322	H	-0.271690	-0.021644	0.000334
H323	H	0.061643	0.311689	0.333668
H324	H	0.394976	0.645022	0.667001
H325	H	0.057748	-0.062448	0.000339
H326	H	0.391081	0.270885	0.333673
H327	H	0.724414	0.604218	0.667006
O328	O	-0.038753	-0.075096	0.000385
O329	O	0.294580	0.258237	0.333718
O330	O	0.627913	0.591570	0.667051
H331	H	-0.029912	-0.092381	-0.118959
H332	H	0.303421	0.240953	0.214375
H333	H	0.636754	0.574286	0.547708
O334	O	0.338304	-0.027127	0.000262
O335	O	0.671637	0.306207	0.333595
O336	O	1.004971	0.639540	0.666928
H337	H	0.368535	-0.057511	0.000280
H338	H	0.701868	0.275822	0.333614
H339	H	1.035202	0.609156	0.666947
H340	H	0.434828	-0.014476	0.000216
H341	H	0.768161	0.318857	0.333550
H342	H	1.101494	0.652191	0.666883
O343	O	0.704932	-0.584823	0.000257
O344	O	1.038266	-0.251489	0.333590
O345	O	1.371599	0.081844	0.666923
H346	H	0.729919	-0.581836	0.119646
H347	H	1.063253	-0.248503	0.452979
H348	H	1.396586	0.084831	0.786312
H349	H	0.412749	0.145472	0.000137
H350	H	0.746082	0.478806	0.333470
H351	H	1.079415	0.812139	0.666804
O352	O	0.476309	-0.680581	0.000165
O353	O	0.809643	-0.347248	0.333499
O354	O	1.142976	-0.013914	0.666832
H355	H	0.451318	-0.683582	-0.119197
H356	H	0.784652	-0.350249	0.214136
H357	H	1.117985	-0.016915	0.547470
O358	O	0.313026	0.156127	0.000179
O359	O	0.646359	0.489461	0.333512
O360	O	0.979693	0.822794	0.666846
H361	H	0.334800	0.187038	0.000138
H362	H	0.668134	0.520372	0.333472
H363	H	1.001467	0.853705	0.666805
O364	O	0.435059	-0.396115	0.000093
O365	O	0.768393	-0.062781	0.333427
O366	O	1.101726	0.270552	0.666760
H367	H	0.404677	-0.365880	0.000056
H368	H	0.738011	-0.032547	0.333390
H369	H	1.071344	0.300787	0.666723
H370	H	0.023510	0.185664	0.000271
H371	H	0.356843	0.518997	0.333604
H372	H	0.690177	0.852330	0.666938
H373	H	0.174755	0.187193	0.000222
H374	H	0.508089	0.520526	0.333556
H375	H	0.841422	0.853859	0.666889
O376	O	-0.076215	0.196313	0.000301
O377	O	0.257119	0.529646	0.333635
O378	O	0.590452	0.862980	0.666968
H379	H	-0.054443	0.227226	0.000276
H380	H	0.278890	0.560560	0.333610
H381	H	0.612224	0.893893	0.666943
H382	H	0.446177	-0.450856	0.000125
H383	H	0.779511	-0.117523	0.333458
H384	H	1.112844	0.215811	0.666791
O385	O	-0.197235	0.150950	0.000273
O386	O	0.136098	0.484283	0.333607
O387	O	0.469432	0.817616	0.666940
H388	H	-0.227463	0.181336	0.000273
H389	H	0.105870	0.514669	0.333606
H390	H	0.439204	0.848003	0.666940
O391	O	0.659566	-0.705861	0.000256
O392	O	0.992899	-0.372528	0.333589
O393	O	1.326233	-0.039195	0.666923
H394	H	0.658157	-0.679419	-0.119108
H395	H	0.991490	-0.346086	0.214225
H396	H	1.324824	-0.012752	0.547559
H397	H	0.117536	-0.061842	0.000330
H398	H	0.450869	0.271491	0.333663
H399	H	0.784203	0.604824	0.666997
O400	O	-0.302028	0.149887	0.000312
O401	O	0.031305	0.483221	0.333645
O402	O	0.364639	0.816554	0.666979
H403	H	-0.340295	0.142078	0.000346
H404	H	-0.006962	0.475411	0.333679
H405	H	0.326372	0.808745	0.667013
O406	O	0.706005	-0.480039	0.000269
O407	O	1.039338	-0.146706	0.333602
O408	O	1.372671	0.186627	0.666936
H409	H	0.712108	-0.461130	0.119646
H410	H	1.045442	-0.127797	0.452979
H411	H	1.378775	0.205536	0.786313
H412	H	0.208997	-0.060909	0.000317
H413	H	0.542330	0.272425	0.333650
H414	H	0.875663	0.605758	0.666983
O415	O	0.075034	0.197845	0.000228
O416	O	0.408367	0.531179	0.333561
O417	O	0.741701	0.864512	0.666895
H418	H	0.096808	0.228757	0.000195
H419	H	0.430141	0.562090	0.333528
H420	H	0.763475	0.895423	0.666862
O421	O	0.665815	-0.090808	0.000350
O422	O	0.999148	0.242526	0.333684
O423	O	1.332481	0.575859	0.667017
H424	H	0.696199	-0.121037	0.000336
H425	H	1.029532	0.212297	0.333670
H426	H	1.362865	0.545630	0.667003
O427	O	0.664755	-0.195593	0.000348
O428	O	0.998088	0.137740	0.333681
O429	O	1.331422	0.471073	0.667015
H430	H	0.695667	-0.173820	0.000398
H431	H	1.029000	0.159513	0.333731
H432	H	1.362334	0.492847	0.667065
H433	H	0.694893	-0.425304	0.000293
H434	H	1.028226	-0.091971	0.333627
H435	H	1.361559	0.241363	0.666960
O436	O	0.436130	-0.291332	0.000123
O437	O	0.769463	0.042001	0.333456
O438	O	1.102796	0.375335	0.666790
H439	H	0.405216	-0.313103	0.000113
H440	H	0.738549	0.020230	0.333446
H441	H	1.071883	0.353564	0.666779
O442	O	0.481502	-0.170320	0.000243
O443	O	0.814835	0.163014	0.333577
O444	O	1.148168	0.496347	0.666910
H445	H	0.456713	-0.153962	-0.119139
H446	H	0.790047	0.179371	0.214194
H447	H	1.123380	0.512705	0.547528
H448	H	0.494151	-0.073791	0.000268
H449	H	0.827484	0.259543	0.333601
H450	H	1.160817	0.592876	0.666935
H451	H	0.445246	-0.542304	0.000115
H452	H	0.778580	-0.208970	0.333449
H453	H	1.111913	0.124363	0.666782
