data_functionalizedCrystal
_audit_creation_method	'MofGen! by Chris Wilmer'
_symmetry_space_group_name_H-M	'P1'
_symmetry_Int_Tables_number	1
_symmetry_cell_setting	triclinic
loop_
_symmetry_equiv_pos_as_xyz
  x,y,z
_cell_length_a	12.759394
_cell_length_b	17.077404
_cell_length_c	17.077396
_cell_angle_alpha	89.980301
_cell_angle_beta	90.026316
_cell_angle_gamma	89.988094
loop_
_atom_site_label
_atom_site_type_symbol
_atom_site_fract_x
_atom_site_fract_y
_atom_site_fract_z
Zn1	Zn	-0.418349	-1.200099	0.443859
Zn2	Zn	0.081651	-0.700099	0.943859
Zn3	Zn	-0.594049	-1.200024	0.312598
Zn4	Zn	-0.094049	-0.700024	0.812598
Zn5	Zn	-0.418376	-1.068830	0.312606
Zn6	Zn	0.081624	-0.568830	0.812606
Zn7	Zn	-0.593977	-1.068817	0.443821
Zn8	Zn	-0.093977	-0.568817	0.943821
O9	O	-0.506188	-1.134442	0.378221
O10	O	-0.006188	-0.634442	0.878221
O11	O	-0.441674	-1.309936	0.426459
O12	O	0.058326	-0.809936	0.926459
O13	O	-0.570787	-1.182595	0.202752
O14	O	-0.070787	-0.682595	0.702752
O15	O	-0.271351	-1.086280	0.330037
O16	O	0.228649	-0.586280	0.830037
O17	O	-0.570761	-1.309881	0.330022
O18	O	-0.070761	-0.809881	0.830022
O19	O	-0.271331	-1.182722	0.426467
O20	O	0.228669	-0.682722	0.926467
O21	O	-0.441721	-1.086208	0.202758
O22	O	0.058279	-0.586208	0.702758
O23	O	-0.441651	-0.958982	0.330000
O24	O	0.058349	-0.458982	0.830000
O25	O	-0.570638	-1.086257	0.553673
O26	O	-0.070638	-0.586257	1.053673
O27	O	-0.570665	-0.958972	0.426403
O28	O	-0.070665	-0.458972	0.926403
O29	O	-0.441605	-1.182709	0.553701
O30	O	0.058395	-0.682709	1.053701
O31	O	-0.741061	-1.182582	0.329985
O32	O	-0.241061	-0.682582	0.829985
O33	O	-0.741008	-1.086185	0.426394
O34	O	-0.241008	-0.586185	0.926394
C35	C	-0.506154	-0.930495	0.378198
C36	C	-0.006154	-0.430495	0.878198
C37	C	-0.506164	-0.843245	0.378207
C38	C	-0.006164	-0.343245	0.878207
C39	C	-0.439068	-0.802284	0.428498
C40	C	0.060932	-0.302284	0.928498
C41	C	-0.439073	-0.720303	0.428500
C42	C	0.060927	-0.220303	0.928500
C43	C	-0.506181	-0.679285	0.378214
C44	C	-0.006181	-0.179285	0.878214
C45	C	-0.573280	-0.720252	0.327918
C46	C	-0.073280	-0.220252	0.827918
C47	C	-0.573269	-0.802231	0.327913
C48	C	-0.073269	-0.302231	0.827913
C49	C	-0.573300	-0.549382	0.327934
C50	C	-0.073300	-0.049382	0.827934
C51	C	-0.573313	-0.467397	0.327940
C52	C	-0.073313	0.032603	0.827940
C53	C	-0.439104	-0.467454	0.428520
C54	C	0.060896	0.032546	0.928520
C55	C	-0.439093	-0.549433	0.428515
C56	C	0.060907	-0.049433	0.928515
C57	C	-0.506194	-0.590394	0.378220
C58	C	-0.006194	-0.090394	0.878220
C59	C	-0.779155	-1.134395	0.378202
C60	C	-0.279155	-0.634395	0.878202
C61	C	-0.895932	-1.134447	0.378220
C62	C	-0.395932	-0.634447	0.878220
C63	C	-0.895934	-1.234901	0.277904
C64	C	-0.395934	-0.734901	0.777904
C65	C	-0.950795	-1.285148	0.227756
C66	C	-0.450795	-0.785148	0.727756
C67	C	-1.060517	-1.285194	0.227777
C68	C	-0.560517	-0.785194	0.727777
C69	C	-1.115379	-1.234989	0.277954
C70	C	-0.615379	-0.734989	0.777954
C71	C	-1.060518	-1.184742	0.328103
C72	C	-0.560518	-0.684742	0.828103
C73	C	-0.950794	-1.184700	0.328074
C74	C	-0.450794	-0.684700	0.828074
C75	C	-1.060516	-1.084293	0.428421
C76	C	-0.560516	-0.584293	0.928421
C77	C	-0.950794	-1.084242	0.428397
C78	C	-0.450794	-0.584242	0.928397
C79	C	-1.115378	-1.034088	0.478598
C80	C	-0.615378	-0.534088	0.978598
C81	C	-1.060517	-0.983835	0.528744
C82	C	-0.560517	-0.483835	1.028744
C83	C	-0.950788	-0.983791	0.528720
C84	C	-0.450788	-0.483791	1.028720
C85	C	-0.895933	-1.033994	0.478545
C86	C	-0.395933	-0.533994	0.978545
C87	C	-0.232154	-1.134511	0.378257
C88	C	0.267846	-0.634511	0.878257
C89	C	-0.115378	-1.134540	0.378272
C90	C	0.384622	-0.634540	0.878272
C91	C	-0.506110	-1.134490	0.582965
C92	C	-0.006110	-0.634490	1.082965
C93	C	-0.506077	-1.134510	0.670215
C94	C	-0.006077	-0.634510	1.170215
C95	C	-0.506217	-0.339187	0.378238
C96	C	-0.006217	0.160813	0.878238
C97	C	-0.506217	-0.426436	0.378230
C98	C	-0.006217	0.073564	0.878230
C99	C	-0.506189	-1.134440	0.174273
C100	C	-0.006189	-0.634440	0.674273
C101	C	-0.505926	-1.134572	0.087024
C102	C	-0.005926	-0.634572	0.587024
C103	C	-0.438884	-1.184735	0.711221
C104	C	0.061116	-0.684735	1.211221
C105	C	-0.438849	-1.184744	0.793201
C106	C	0.061151	-0.684744	1.293201
C107	C	-0.506014	-1.134532	0.834175
C108	C	-0.006014	-0.634532	1.334175
C109	C	-0.573210	-1.084302	0.793163
C110	C	-0.073210	-0.584302	1.293163
C111	C	-0.573239	-1.084290	0.711184
C112	C	-0.073239	-0.584290	1.211184
C113	C	-0.573147	-1.084334	0.964033
C114	C	-0.073147	-0.584334	1.464033
C115	C	-0.573119	-1.084348	1.046018
C116	C	-0.073119	-0.584348	1.546018
C117	C	-0.438757	-1.184788	1.046051
C118	C	0.061243	-0.684788	1.546051
C119	C	-0.438786	-1.184776	0.964072
C120	C	0.061214	-0.684776	1.464072
C121	C	-0.505984	-1.134546	0.923066
C122	C	-0.005984	-0.634546	1.423066
H123	H	-0.627915	-0.686849	0.286971
H124	H	-0.127915	-0.186849	0.786971
H125	H	-0.384194	-1.225625	0.677867
H126	H	0.115806	-0.725625	1.177867
H127	H	-0.627905	-0.835580	0.286961
H128	H	-0.127905	-0.335580	0.786961
O129	O	-0.638368	-1.035420	0.671318
O130	O	-0.138368	-0.535420	1.171318
C131	C	-0.578569	-0.984736	0.623882
C132	C	-0.078569	-0.484736	1.123882
H133	H	-0.495810	-0.979912	0.648594
H134	H	0.004190	-0.479912	1.148594
H135	H	-0.616560	-0.924318	0.622941
H136	H	-0.116560	-0.424318	1.122941
H137	H	-0.574981	-1.008994	0.561755
H138	H	-0.074981	-0.508994	1.061755
H139	H	-0.806593	-1.234858	0.277872
H140	H	-0.306593	-0.734858	0.777872
O141	O	-0.374030	-0.842161	0.477430
O142	O	0.125970	-0.342161	0.977430
C143	C	-0.433923	-0.889611	0.528037
C144	C	0.066077	-0.389611	1.028037
H145	H	-0.516681	-0.864901	0.532781
H146	H	-0.016681	-0.364901	1.032781
H147	H	-0.396025	-0.890568	0.588496
H148	H	0.103975	-0.390568	1.088496
H149	H	-0.437492	-0.951732	0.503759
H150	H	0.062508	-0.451732	1.003759
O151	O	-0.638583	-1.035638	0.924227
O152	O	-0.138583	-0.535638	1.424227
C153	C	-0.743283	-1.052774	0.944265
C154	C	-0.243283	-0.552774	1.444265
H155	H	-0.748569	-1.115482	0.966825
H156	H	-0.248569	-0.615482	1.466825
H157	H	-0.795208	-1.046013	0.890342
H158	H	-0.295208	-0.546013	1.390342
H159	H	-0.770737	-1.010685	0.991829
H160	H	-0.270737	-0.510685	1.491829
O161	O	-1.221961	-1.034204	0.478748
O162	O	-0.721961	-0.534204	0.978748
C163	C	-1.258521	-1.054325	0.554010
C164	C	-0.758521	-0.554325	1.054010
H165	H	-1.195222	-1.088505	0.586474
H166	H	-0.695222	-0.588505	1.086474
H167	H	-1.331893	-1.091999	0.548437
H168	H	-0.831893	-0.591999	1.048437
H169	H	-1.278013	-0.998744	0.587977
H170	H	-0.778013	-0.498744	1.087977
H171	H	-1.105185	-1.326114	0.186946
H172	H	-0.605185	-0.826114	0.686946
H173	H	-0.384136	-1.225644	0.826585
H174	H	0.115864	-0.725644	1.326585
H175	H	-1.105194	-0.942966	0.569597
H176	H	-0.605194	-0.442966	1.069597
H177	H	-0.906117	-1.326027	0.186904
H178	H	-0.406117	-0.826027	0.686904
H179	H	-0.384101	-1.225667	0.930713
H180	H	0.115899	-0.725667	1.430713
H181	H	-1.204720	-1.235038	0.277974
H182	H	-0.704720	-0.735038	0.777974
H183	H	-0.906126	-0.942876	0.569560
H184	H	-0.406126	-0.442876	1.069560
O185	O	-0.373587	-1.233688	1.085848
O186	O	0.126413	-0.733688	1.585848
C187	C	-0.396553	-1.311915	1.065820
C188	C	0.103447	-0.811915	1.565820
H189	H	-0.480494	-1.315855	1.043274
H190	H	0.019506	-0.815855	1.543274
H191	H	-0.387491	-1.350702	1.119746
H192	H	0.112509	-0.850702	1.619746
H193	H	-0.340247	-1.332446	1.018249
H194	H	0.159753	-0.832446	1.518249
O195	O	-0.638456	-1.035676	1.085861
O196	O	-0.138456	-0.535676	1.585861
C197	C	-0.706292	-1.080346	1.133299
C198	C	-0.206292	-0.580346	1.633299
H199	H	-0.712833	-1.142161	1.108600
H200	H	-0.212833	-0.642161	1.608600
H201	H	-0.787129	-1.051918	1.134227
H202	H	-0.287129	-0.551918	1.634227
H203	H	-0.673772	-1.083081	1.195430
H204	H	-0.173772	-0.583081	1.695430
H205	H	-0.806592	-1.033958	0.478516
H206	H	-0.306592	-0.533958	0.978516
O207	O	-0.638489	-1.035453	0.832840
O208	O	-0.138489	-0.535453	1.332840
C209	C	-0.697820	-0.991134	0.779065
C210	C	-0.197820	-0.491134	1.279065
H211	H	-0.654805	-0.988415	0.720634
H212	H	-0.154805	-0.488415	1.220634
H213	H	-0.709011	-0.929289	0.802739
H214	H	-0.209011	-0.429289	1.302739
H215	H	-0.777620	-1.019859	0.770337
H216	H	-0.277620	-0.519859	1.270337
H217	H	-0.627959	-0.434003	0.286994
H218	H	-0.127959	0.065997	0.786994
O219	O	-0.373862	-0.680636	0.477426
O220	O	0.126138	-0.180636	0.977426
C221	C	-0.314615	-0.734418	0.521797
C222	C	0.185385	-0.234418	1.021797
H223	H	-0.357650	-0.792851	0.524456
H224	H	0.142350	-0.292851	1.024456
H225	H	-0.303516	-0.710757	0.583660
H226	H	0.196484	-0.210757	1.083660
H227	H	-0.234772	-0.743136	0.493156
H228	H	0.265228	-0.243136	0.993156
H229	H	-0.384454	-0.582828	0.469466
H230	H	0.115546	-0.082828	0.969466
H231	H	-0.384466	-0.434100	0.469471
H232	H	0.115534	0.065900	0.969471
H233	H	-0.627939	-0.582730	0.286976
H234	H	-0.127939	-0.082730	0.786976
