data_functionalizedCrystal
_audit_creation_method	'MofGen! by Chris Wilmer'
_symmetry_space_group_name_H-M	'P1'
_symmetry_Int_Tables_number	1
_symmetry_cell_setting	triclinic
loop_
_symmetry_equiv_pos_as_xyz
  x,y,z
_cell_length_a	21.295411
_cell_length_b	13.897449
_cell_length_c	13.897448
_cell_angle_alpha	90.018972
_cell_angle_beta	90.015821
_cell_angle_gamma	90.023385
loop_
_atom_site_label
_atom_site_type_symbol
_atom_site_fract_x
_atom_site_fract_y
_atom_site_fract_z
Zn1	Zn	-0.355917	-1.474728	0.384092
Zn2	Zn	-0.250653	-1.474614	0.545372
Zn3	Zn	-0.250664	-1.313409	0.384096
Zn4	Zn	-0.355887	-1.313399	0.545350
O5	O	-0.303280	-1.394038	0.464728
O6	O	-0.341962	-1.609694	0.405493
O7	O	-0.162565	-1.453187	0.523989
O8	O	-0.264644	-1.334861	0.249114
O9	O	-0.264625	-1.609611	0.523985
O10	O	-0.341972	-1.453381	0.249111
O11	O	-0.162573	-1.334751	0.405501
O12	O	-0.264614	-1.178426	0.405480
O13	O	-0.443981	-1.334842	0.523948
O14	O	-0.341921	-1.178418	0.523952
O15	O	-0.444003	-1.453370	0.405472
O16	O	-0.264596	-1.453177	0.680351
O17	O	-0.341910	-1.334732	0.680335
C18	C	-0.303266	-1.143423	0.464715
C19	C	-0.303275	-1.036209	0.464732
C20	C	-0.303262	-1.393967	0.715342
C21	C	-0.303276	-1.394025	0.822556
C22	C	-0.467471	-1.394118	0.464707
C23	C	-0.537439	-1.394152	0.464698
C24	C	-0.570318	-1.455867	0.403005
C25	C	-0.636061	-1.455865	0.402964
C26	C	-0.668922	-1.394159	0.464632
C27	C	-0.636034	-1.332432	0.526330
C28	C	-0.570293	-1.332429	0.526363
N29	N	-0.772143	-1.386736	0.549014
N30	N	-0.834594	-1.386745	0.548980
C31	C	-0.866996	-1.394165	0.464534
N32	N	-0.834588	-1.401595	0.380123
N33	N	-0.772131	-1.401590	0.380158
C34	C	-0.740207	-1.394156	0.464603
C35	C	-0.971161	-1.455882	0.402791
C36	C	-1.036905	-1.455874	0.402747
C37	C	-1.036877	-1.332446	0.526122
C38	C	-0.971135	-1.332449	0.526157
C39	C	-0.938281	-1.394172	0.464492
C40	C	-0.139729	-1.394013	0.464678
C41	C	-0.069761	-1.394166	0.464415
C42	C	-0.303295	-1.645631	0.464741
C43	C	-0.303302	-1.752844	0.464747
C44	C	-0.303291	-0.839914	0.464736
C45	C	-0.303281	-0.949147	0.464731
C46	C	-0.303313	-1.394135	0.213135
C47	C	-0.303326	-1.394176	0.105921
C48	C	-0.303315	-1.394127	1.018851
C49	C	-0.303295	-1.394068	0.909618
H50	H	-0.543572	-1.506125	0.352792
H51	H	-0.662836	-1.506119	0.352720
N52	N	-0.671475	-1.265886	0.592851
H53	H	-0.640667	-1.226788	0.631940
H54	H	-0.698741	-1.221266	0.553572
N55	N	-0.534826	-1.265849	0.592892
H56	H	-0.565616	-1.226749	0.631948
H57	H	-0.507557	-1.305082	0.637553
H58	H	-0.944410	-1.506135	0.352575
N59	N	-1.072371	-1.522423	0.336186
H60	H	-1.041580	-1.561518	0.297128
H61	H	-1.099667	-1.567047	0.375429
N62	N	-1.072310	-1.265882	0.592630
H63	H	-1.118947	-1.275245	0.583246
H64	H	-1.060827	-1.280865	0.661527
H65	H	-0.944364	-1.282200	0.576400
