data_functionalizedCrystal
_audit_creation_method	'MofGen! by Chris Wilmer'
_symmetry_space_group_name_H-M	'P1'
_symmetry_Int_Tables_number	1
_symmetry_cell_setting	triclinic
loop_
_symmetry_equiv_pos_as_xyz
  x,y,z
_cell_length_a	16.625546
_cell_length_b	18.215407
_cell_length_c	16.625539
_cell_angle_alpha	89.984837
_cell_angle_beta	90.028532
_cell_angle_gamma	89.981912
loop_
_atom_site_label
_atom_site_type_symbol
_atom_site_fract_x
_atom_site_fract_y
_atom_site_fract_z
Zn1	Zn	-0.321109	-1.125065	0.455857
Zn2	Zn	0.178891	-0.625065	0.955857
Zn3	Zn	-0.455948	-1.124984	0.321019
Zn4	Zn	0.044052	-0.624984	0.821019
Zn5	Zn	-0.321123	-1.002003	0.321042
Zn6	Zn	0.178877	-0.502003	0.821042
Zn7	Zn	-0.455893	-1.001969	0.455813
Zn8	Zn	0.044107	-0.501969	0.955813
O9	O	-0.388518	-1.063506	0.388433
O10	O	0.111482	-0.563506	0.888433
O11	O	-0.339013	-1.228039	0.437979
O12	O	0.160987	-0.728039	0.937979
O13	O	-0.438092	-1.108651	0.208190
O14	O	0.061908	-0.608651	0.708190
O15	O	-0.208289	-1.018376	0.338953
O16	O	0.291711	-0.518376	0.838953
O17	O	-0.438079	-1.227979	0.338914
O18	O	0.061921	-0.727979	0.838914
O19	O	-0.208279	-1.108789	0.438001
O20	O	0.291721	-0.608789	0.938001
O21	O	-0.339036	-1.018298	0.208206
O22	O	0.160964	-0.518298	0.708206
O23	O	-0.338983	-0.899015	0.338911
O24	O	0.161017	-0.399015	0.838911
O25	O	-0.437985	-1.018317	0.568652
O26	O	0.062015	-0.518317	1.068652
O27	O	-0.437998	-0.898989	0.437927
O28	O	0.062002	-0.398989	0.937927
O29	O	-0.338960	-1.108756	0.568684
O30	O	0.161040	-0.608756	1.068684
O31	O	-0.568773	-1.108618	0.338872
O32	O	-0.068773	-0.608618	0.838872
O33	O	-0.568733	-1.018239	0.437905
O34	O	-0.068733	-0.518239	0.937905
C35	C	-0.598009	-1.063436	0.388399
C36	C	-0.098009	-0.563436	0.888399
C37	C	-0.687630	-1.063473	0.388412
C38	C	-0.187630	-0.563473	0.888412
C39	C	-0.388487	-0.872299	0.388417
C40	C	0.111513	-0.372299	0.888417
C41	C	-0.388493	-0.790500	0.388430
C42	C	0.111507	-0.290500	0.888430
C43	C	-0.388465	-1.063542	0.598742
C44	C	0.111535	-0.563542	1.098742
C45	C	-0.388442	-1.063557	0.688363
C46	C	0.111558	-0.563557	1.188363
C47	C	-1.015806	-1.063602	0.388496
C48	C	-0.515806	-0.563602	0.888496
C49	C	-0.924497	-1.063564	0.388474
C50	C	-0.424497	-0.563564	0.888474
C51	C	-0.851721	-1.063537	0.388453
C52	C	-0.351721	-0.563537	0.888453
C53	C	-0.760407	-1.063500	0.388433
C54	C	-0.260407	-0.563500	0.888433
C55	C	-0.178209	-1.063596	0.388484
C56	C	0.321791	-0.563596	0.888484
C57	C	-0.088588	-1.063634	0.388506
C58	C	0.411412	-0.563634	0.888506
C59	C	-0.337009	-0.602336	0.440093
C60	C	0.162991	-0.102336	0.940093
C61	C	-0.337013	-0.525478	0.440095
C62	C	0.162987	-0.025478	0.940095
C63	C	-0.440015	-0.525427	0.336779
C64	C	0.059985	-0.025427	0.836779
C65	C	-0.440006	-0.602284	0.336774
C66	C	0.059994	-0.102284	0.836774
C67	C	-0.388505	-0.640737	0.388435
C68	C	0.111495	-0.140737	0.888435
C69	C	-0.388518	-0.487021	0.388443
C70	C	0.111482	0.012979	0.888443
C71	C	-0.388523	-0.403687	0.388445
C72	C	0.111477	0.096313	0.888445
C73	C	-0.388498	-0.724076	0.388432
C74	C	0.111502	-0.224076	0.888432
C75	C	-0.388542	-0.255458	0.388447
C76	C	0.111458	0.244542	0.888447
C77	C	-0.388529	-0.337257	0.388448
C78	C	0.111471	0.162743	0.888448
C79	C	-0.388513	-1.063512	0.178942
C80	C	0.111487	-0.563512	0.678942
C81	C	-0.388309	-1.063639	0.089321
C82	C	0.111691	-0.563639	0.589321
C83	C	-0.388425	-1.063569	0.761145
C84	C	0.111575	-0.563569	1.261145
C85	C	-0.388395	-1.063586	0.852454
C86	C	0.111605	-0.563586	1.352454
C87	C	-0.388366	-1.063603	0.925231
C88	C	0.111634	-0.563603	1.425231
C89	C	-0.388337	-1.063622	1.016545
C90	C	0.111663	-0.563622	1.516545
H91	H	-0.295070	-0.633642	0.482156
H92	H	0.204930	-0.133642	0.982156
H93	H	-0.295079	-0.494215	0.482158
H94	H	0.204921	0.005785	0.982158
Cl95	Cl	-0.504760	-0.477081	0.271841
Cl96	Cl	-0.004760	0.022919	0.771841
Cl97	Cl	-0.504741	-0.650563	0.271819
Cl98	Cl	-0.004741	-0.150563	0.771819
