data_functionalizedCrystal
_audit_creation_method	'MofGen! by Chris Wilmer'
_symmetry_space_group_name_H-M	'P1'
_symmetry_Int_Tables_number	1
_symmetry_cell_setting	triclinic
loop_
_symmetry_equiv_pos_as_xyz
  x,y,z
_cell_length_a	16.704493
_cell_length_b	16.704503
_cell_length_c	21.606444
_cell_angle_alpha	62.458994
_cell_angle_beta	85.833786
_cell_angle_gamma	60.347003
loop_
_atom_site_label
_atom_site_type_symbol
_atom_site_fract_x
_atom_site_fract_y
_atom_site_fract_z
Zr1	Zr	0.832854	0.818950	-0.081993
O2	O	0.716058	0.975039	-0.165500
O3	O	0.860782	0.662860	-0.062027
O4	O	0.872152	0.818946	-0.183022
O5	O	0.704679	0.818956	0.057346
O6	O	1.004242	0.818944	-0.190435
O7	O	0.704687	0.818953	-0.044505
O8	O	0.983903	0.539735	0.026002
O9	O	0.725018	1.098166	-0.159092
O10	O	0.980787	0.727061	-0.052238
O11	O	0.882203	0.727065	0.029305
O12	O	0.895590	0.910836	-0.113151
O13	O	0.797006	0.910840	-0.031608
Zr14	Zr	1.043510	0.818953	0.068624
Zr15	Zr	1.043523	0.818947	-0.093816
Zr16	Zr	0.832841	0.818955	0.080448
Zr17	Zr	0.847145	1.015323	-0.071772
Zr18	Zr	1.029219	0.622579	0.058404
O19	O	1.015582	0.975043	0.048659
O20	O	1.015602	0.975035	-0.182311
O21	O	0.716038	0.975047	0.065470
O22	O	1.160306	0.662864	0.152131
O23	O	1.160326	0.662856	-0.078839
O24	O	0.860762	0.662868	0.168943
O25	O	1.171685	0.818946	-0.070714
O26	O	1.004212	0.818956	0.169653
O27	O	0.872122	0.818958	0.177067
O28	O	1.171677	0.818950	0.031137
O29	O	0.892472	1.098163	-0.168490
O30	O	0.983892	0.539739	0.155121
O31	O	1.151346	0.539737	0.145723
O32	O	1.151357	0.539732	0.016604
O33	O	0.725007	1.098170	-0.029973
O34	O	0.892461	1.098168	-0.039371
O35	O	0.980774	0.727066	0.099783
O36	O	1.079358	0.727062	0.018240
O37	O	0.994161	0.910837	-0.042673
O38	O	0.895577	0.910841	0.038870
C39	C	0.920306	0.573318	-0.019469
C40	C	0.914239	0.489953	-0.023808
C41	C	1.038499	0.197621	0.065051
C42	C	1.032801	0.119289	0.060977
C43	C	0.897141	0.254954	-0.036027
C44	C	0.902839	0.333286	-0.031952
C45	C	0.973521	0.304614	0.018588
C46	C	0.979223	0.382948	0.022658
C47	C	0.843560	0.518612	-0.074342
C48	C	0.837862	0.440279	-0.078416
C49	C	0.674667	0.818955	0.008105
C50	C	0.585233	0.818956	0.013124
C51	C	0.417193	0.818935	-0.089672
C52	C	0.333161	0.818937	-0.084959
C53	C	0.333140	0.818952	0.027266
C54	C	0.417172	0.818951	0.022552
C55	C	0.459194	0.818944	-0.035919
C56	C	0.543224	0.818950	-0.040634
C57	C	0.543205	0.818958	0.071593
C58	C	0.459173	0.818959	0.076306
C59	C	1.201697	0.818948	-0.021474
C60	C	1.291131	0.818946	-0.026493
C61	C	0.938199	0.818944	-0.209873
C62	C	0.938205	0.818942	-0.278833
C63	C	0.956058	1.064584	0.006100
C64	C	0.962125	1.147950	0.010439
C65	C	0.865390	0.818963	-0.698050
C66	C	0.865398	0.818955	-0.633252
C67	C	0.938173	0.818952	-0.604942
C68	C	1.010950	0.818946	-0.641431
C69	C	1.010944	0.818947	-0.706226
C70	C	1.010973	0.818944	-0.380121
C71	C	1.010972	0.818947	-0.315322
C72	C	0.865427	0.818953	-0.307147
C73	C	0.865422	0.818953	-0.371942
C74	C	0.938200	0.818941	-0.408423
C75	C	0.938192	0.818948	-0.478684
C76	C	0.938179	0.818953	-0.534685
C77	C	0.938165	0.818958	0.196504
C78	C	0.938160	0.818960	0.265465
C79	C	1.183821	0.573315	-0.034258
C80	C	1.267188	0.489948	-0.043616
C81	C	0.920289	0.573325	0.183720
C82	C	0.914217	0.489962	0.248341
C83	C	1.183804	0.573322	0.168931
C84	C	1.267166	0.489957	0.228533
C85	C	0.692560	1.064581	-0.182299
C86	C	0.609198	1.147945	-0.241901
C87	C	0.692543	1.064588	0.020889
C88	C	0.609176	1.147955	0.030248
C89	C	0.956075	1.064577	-0.197089
C90	C	0.962147	1.147941	-0.261710
C91	C	1.254885	0.450797	-0.084806
C92	C	1.333211	0.372476	-0.093614
C93	C	1.423838	0.333302	-0.061226
C94	C	1.436139	0.372460	-0.020034
C95	C	1.357815	0.450785	-0.011231
C96	C	0.962818	0.450814	0.315484
C97	C	0.957109	0.372497	0.376210
C98	C	0.902804	0.333323	0.369791
C99	C	0.854197	0.372478	0.302641
C100	C	0.859901	0.450799	0.241918
C101	C	1.357782	0.450806	0.213958
C102	C	1.436118	0.372487	0.269954
C103	C	1.423836	0.333315	0.340525
C104	C	1.333210	0.372474	0.355100
C105	C	1.254876	0.450797	0.299104
C106	C	0.518583	1.187106	-0.227326
C107	C	0.440248	1.265449	-0.283321
C108	C	0.452531	1.304625	-0.353892
C109	C	0.543156	1.265461	-0.368467
C110	C	0.621489	1.187125	-0.312472
C111	C	0.621479	1.187113	0.071432
C112	C	0.543155	1.265456	0.080222
C113	C	0.452529	1.304633	0.047832
C114	C	0.440227	1.265471	0.006643
C115	C	0.518550	1.187135	-0.002151
C116	C	1.016461	1.187090	-0.255269
C117	C	1.022185	1.265408	-0.315983
C118	C	0.973590	1.304581	-0.383137
C119	C	0.919274	1.265424	-0.389577
C120	C	0.913556	1.187102	-0.328864
H121	H	1.096055	0.174274	0.106200
O122	O	0.896672	0.248829	0.435286
H123	H	0.939607	0.228182	0.483049
H124	H	1.367800	0.482688	0.156499
H125	H	0.806125	0.818972	-0.721097
H126	H	0.820326	0.482663	0.187249
H127	H	0.869324	1.155235	-0.334119
H128	H	0.790653	0.605739	-0.112178
H129	H	0.839587	0.278280	-0.077167
H130	H	0.451404	0.818940	-0.137286
O131	O	1.319979	0.330202	0.431219
H132	H	1.283969	0.395937	0.443542
O133	O	0.413846	0.818972	0.139368
H134	H	0.348353	0.818978	0.133614
O135	O	1.080770	1.307632	-0.309027
H136	H	1.053613	1.343329	-0.274046
O137	O	1.157144	0.492997	0.314838
H138	H	1.122667	0.579403	0.294014
O139	O	0.342514	1.307660	-0.267584
H140	H	0.308050	1.394061	-0.288398
H141	H	0.996695	0.340626	0.430879
O142	O	0.719232	1.144875	-0.328183
H143	H	0.725180	1.109187	-0.361980
O144	O	1.021397	0.493053	0.322419
H145	H	0.975739	0.579462	0.302200
H146	H	0.809982	0.340571	0.297426
O147	O	0.556439	1.307666	0.124661
H148	H	0.526934	1.394068	0.091121
H149	H	1.070208	0.818937	-0.618375
O150	O	0.368051	1.389095	0.057343
H151	H	0.391840	1.409720	0.091437
H152	H	0.577410	0.818970	0.115361
O153	O	0.761642	0.471191	-0.132932
H154	H	0.717319	0.438750	-0.105291
O155	O	1.055451	0.352034	0.077169
H156	H	1.099669	0.264472	0.108799
H157	H	0.695265	1.155221	0.097814
O158	O	1.533857	0.330248	0.254227
H159	H	1.529228	0.370634	0.195746
O160	O	1.068894	1.144838	-0.182845
H161	H	1.043961	1.210589	-0.171163
O162	O	1.508327	0.248827	0.400918
H163	H	1.573398	0.228180	0.378919
O164	O	0.342474	1.307737	-0.028289
H165	H	0.329129	1.241993	-0.008304
H166	H	0.806144	0.818957	-0.603545
O167	O	0.786910	0.818998	-0.402492
H168	H	0.736306	0.819005	-0.366236
H169	H	0.508563	1.155213	-0.169868
O170	O	0.287814	0.818952	0.090330
H171	H	0.222325	0.818953	0.084573
H172	H	0.508519	1.155254	-0.035685
O173	O	0.368041	1.389128	-0.414284
H174	H	0.302969	1.409769	-0.392285
O175	O	0.556399	1.307711	-0.444584
H176	H	0.486699	1.368751	-0.481065
O177	O	0.287852	0.818944	-0.142943
H178	H	0.282822	0.747215	-0.119710
O179	O	0.979748	1.389071	-0.448618
H180	H	1.025672	1.409717	-0.432848
H181	H	0.577436	0.818949	-0.088246
O182	O	0.866852	1.307689	-0.462008
H183	H	0.879949	1.368738	-0.503136
H184	H	1.085711	0.032171	0.098814
H185	H	0.806168	0.818957	-0.277435
H186	H	1.070237	0.818943	-0.292274
H187	H	1.070231	0.818937	-0.409820
H188	H	1.181100	0.482692	-0.111191
O189	O	1.089424	0.818958	-0.745587
H190	H	1.140025	0.818969	-0.715021
H191	H	1.323176	0.340603	-0.127155
H192	H	1.487606	0.269523	-0.068399
H193	H	1.367845	0.482651	0.022314
O194	O	1.533888	0.330195	0.014904
H195	H	1.586276	0.269144	0.001867
