data_functionalizedCrystal
_audit_creation_method	'MofGen! by Chris Wilmer'
_symmetry_space_group_name_H-M	'P1'
_symmetry_Int_Tables_number	1
_symmetry_cell_setting	triclinic
loop_
_symmetry_equiv_pos_as_xyz
  x,y,z
_cell_length_a	18.101395
_cell_length_b	13.897449
_cell_length_c	13.897441
_cell_angle_alpha	89.978743
_cell_angle_beta	89.970274
_cell_angle_gamma	90.031931
loop_
_atom_site_label
_atom_site_type_symbol
_atom_site_fract_x
_atom_site_fract_y
_atom_site_fract_z
Zn1	Zn	-0.294797	1.474592	-0.545449
Zn2	Zn	-0.044797	1.724592	-0.295449
Zn3	Zn	0.205203	1.974592	-0.045449
Zn4	Zn	0.455203	2.224592	0.204551
Zn5	Zn	-0.418650	1.474455	-0.384150
Zn6	Zn	-0.168650	1.724455	-0.134150
Zn7	Zn	0.081350	1.974455	0.115850
Zn8	Zn	0.331350	2.224455	0.365850
Zn9	Zn	-0.294829	1.313288	-0.384160
Zn10	Zn	-0.044829	1.563288	-0.134160
Zn11	Zn	0.205171	1.813288	0.115840
Zn12	Zn	0.455171	2.063288	0.365840
Zn13	Zn	-0.418603	1.313226	-0.545395
Zn14	Zn	-0.168603	1.563226	-0.295395
Zn15	Zn	0.081397	1.813226	-0.045395
Zn16	Zn	0.331397	2.063226	0.204605
O17	O	-0.356720	1.393890	-0.464789
O18	O	-0.106720	1.643890	-0.214789
O19	O	0.143280	1.893890	0.035211
O20	O	0.393280	2.143890	0.285211
O21	O	-0.311233	1.609556	-0.524071
O22	O	-0.061233	1.859556	-0.274071
O23	O	0.188767	2.109556	-0.024071
O24	O	0.438767	2.359556	0.225929
O25	O	-0.402258	1.453044	-0.249170
O26	O	-0.152258	1.703044	0.000830
O27	O	0.097742	1.953044	0.250830
O28	O	0.347742	2.203044	0.500830
O29	O	-0.191192	1.334769	-0.405582
O30	O	0.058808	1.584769	-0.155582
O31	O	0.308808	1.834769	0.094418
O32	O	0.558808	2.084769	0.344418
O33	O	-0.402227	1.609455	-0.405565
O34	O	-0.152227	1.859455	-0.155565
O35	O	0.097773	2.109455	0.094435
O36	O	0.347773	2.359455	0.344435
O37	O	-0.191168	1.453279	-0.524080
O38	O	0.058832	1.703279	-0.274080
O39	O	0.308832	1.953279	-0.024080
O40	O	0.558832	2.203279	0.225920
O41	O	-0.311287	1.334635	-0.249177
O42	O	-0.061287	1.584635	0.000823
O43	O	0.188713	1.834635	0.250823
O44	O	0.438713	2.084635	0.500823
O45	O	-0.311241	1.178298	-0.405530
O46	O	-0.061241	1.428298	-0.155530
O47	O	0.188759	1.678298	0.094470
O48	O	0.438759	1.928298	0.344470
O49	O	-0.402146	1.334663	-0.680384
O50	O	-0.152146	1.584663	-0.430384
O51	O	0.097854	1.834663	-0.180384
O52	O	0.347854	2.084663	0.069616
O53	O	-0.402177	1.178252	-0.523989
O54	O	-0.152177	1.428252	-0.273989
O55	O	0.097823	1.678252	-0.023989
O56	O	0.347823	1.928252	0.226011
O57	O	-0.311187	1.453218	-0.680424
O58	O	-0.061187	1.703218	-0.430424
O59	O	0.188813	1.953218	-0.180424
O60	O	0.438813	2.203218	0.069576
O61	O	-0.522277	1.452984	-0.405513
O62	O	-0.272277	1.702984	-0.155513
O63	O	-0.022277	1.952984	0.094487
O64	O	0.227723	2.202984	0.344487
O65	O	-0.522242	1.334529	-0.523979
O66	O	-0.272242	1.584529	-0.273979
O67	O	-0.022242	1.834529	-0.023979
O68	O	0.227758	2.084529	0.226021
C69	C	-0.356708	1.143276	-0.464755
C70	C	-0.106708	1.393276	-0.214755
C71	C	0.143292	1.643276	0.035245
C72	C	0.393292	1.893276	0.285245
C73	C	-0.356721	1.036062	-0.464763
C74	C	-0.106721	1.286062	-0.214763
C75	C	0.143279	1.536062	0.035237
C76	C	0.393279	1.786062	0.285237
C77	C	-0.549130	1.393761	-0.464760
C78	C	-0.299130	1.643761	-0.214760
C79	C	-0.049130	1.893761	0.035240
C80	C	0.200870	2.143761	0.285240
C81	C	-0.631444	1.393794	-0.464780
C82	C	-0.381444	1.643794	-0.214780
C83	C	-0.131444	1.893794	0.035220
C84	C	0.118556	2.143794	0.285220
C85	C	-0.356724	0.948992	-0.464779
C86	C	-0.106724	1.198992	-0.214779
C87	C	0.143276	1.448992	0.035221
C88	C	0.393276	1.698992	0.285221
C89	C	-0.356729	0.839760	-0.464809
C90	C	-0.106729	1.089760	-0.214809
C91	C	0.143271	1.339760	0.035191
C92	C	0.393271	1.589760	0.285191
C93	C	-0.930535	1.394006	-0.464832
C94	C	-0.680535	1.644006	-0.214832
C95	C	-0.430535	1.894006	0.035168
C96	C	-0.180535	2.144006	0.285168
C97	C	-0.899219	1.319650	-0.539553
C98	C	-0.649219	1.569650	-0.289553
C99	C	-0.399219	1.819650	-0.039553
C100	C	-0.149219	2.069650	0.210447
C101	C	-0.813601	1.319297	-0.539319
C102	C	-0.563601	1.569297	-0.289319
C103	C	-0.313601	1.819297	-0.039319
C104	C	-0.063601	2.069297	0.210681
C105	C	-0.782153	1.393901	-0.464807
C106	C	-0.532153	1.643901	-0.214807
C107	C	-0.282153	1.893901	0.035193
C108	C	-0.032153	2.143901	0.285193
C109	C	-0.813308	1.366379	-0.363147
C110	C	-0.563308	1.616379	-0.113147
C111	C	-0.313308	1.866379	0.136853
C112	C	-0.063308	2.116379	0.386853
C113	C	-0.898953	1.365899	-0.363594
C114	C	-0.648953	1.615899	-0.113594
C115	C	-0.398953	1.865899	0.136406
C116	C	-0.148953	2.115899	0.386406
C117	C	-0.898877	1.496046	-0.490877
C118	C	-0.648877	1.746046	-0.240877
C119	C	-0.398877	1.996046	0.009123
C120	C	-0.148877	2.246046	0.259123
C121	C	-0.813226	1.495446	-0.493106
C122	C	-0.563226	1.745446	-0.243106
C123	C	-0.313226	1.995446	0.006894
C124	C	-0.063226	2.245446	0.256894
C125	C	-0.698293	1.393843	-0.464787
C126	C	-0.448293	1.643843	-0.214787
C127	C	-0.198293	1.893843	0.035213
C128	C	0.051707	2.143843	0.285213
C129	C	-1.014395	1.394061	-0.464846
C130	C	-0.764395	1.644061	-0.214846
C131	C	-0.514395	1.894061	0.035154
C132	C	-0.264395	2.144061	0.285154
C133	C	-0.163558	1.394046	-0.464838
C134	C	0.086442	1.644046	-0.214838
C135	C	0.336442	1.894046	0.035162
C136	C	0.586442	2.144046	0.285162
C137	C	-0.081244	1.394112	-0.464859
C138	C	0.168756	1.644112	-0.214859
C139	C	0.418756	1.894112	0.035141
C140	C	0.668756	2.144112	0.285141
C141	C	-0.356658	1.393949	-0.716382
C142	C	-0.106658	1.643949	-0.466382
C143	C	0.143342	1.893949	-0.216382
C144	C	0.393342	2.143949	0.033618
C145	C	-0.356631	1.393974	-0.823596
C146	C	-0.106631	1.643974	-0.573596
C147	C	0.143369	1.893974	-0.323596
C148	C	0.393369	2.143974	-0.073596
C149	C	-0.356732	1.645483	-0.464823
C150	C	-0.106732	1.895483	-0.214823
C151	C	0.143268	2.145483	0.035177
C152	C	0.393268	2.395483	0.285177
C153	C	-0.356737	1.752697	-0.464837
C154	C	-0.106737	2.002697	-0.214837
C155	C	0.143263	2.252697	0.035163
C156	C	0.393263	2.502697	0.285163
C157	C	-0.356610	1.393994	-0.910665
C158	C	-0.106610	1.643994	-0.660665
C159	C	0.143390	1.893994	-0.410665
C160	C	0.393390	2.143994	-0.160665
C161	C	-0.356577	1.394022	-1.019898
C162	C	-0.106577	1.644022	-0.769898
C163	C	0.143423	1.894022	-0.519898
C164	C	0.393423	2.144022	-0.269898
C165	C	-0.356728	1.393887	-0.214174
C166	C	-0.106728	1.643887	0.035826
C167	C	0.143272	1.893887	0.285826
C168	C	0.393272	2.143887	0.535826
C169	C	-0.356546	1.394048	-0.106961
C170	C	-0.106546	1.644048	0.143039
C171	C	0.143454	1.894048	0.393039
C172	C	0.393454	2.144048	0.643039
H173	H	-0.792534	1.336516	-0.614699
H174	H	-0.542534	1.586516	-0.364699
H175	H	-0.292534	1.836516	-0.114699
H176	H	-0.042534	2.086516	0.135301
H177	H	-0.791924	1.292578	-0.340690
H178	H	-0.541924	1.542578	-0.090690
H179	H	-0.291924	1.792578	0.159310
H180	H	-0.041924	2.042578	0.409310
N181	N	-0.786243	1.522939	-0.592205
N182	N	-0.536243	1.772939	-0.342205
N183	N	-0.286243	2.022939	-0.092205
N184	N	-0.036243	2.272939	0.157795
H185	H	-0.730473	1.525211	-0.592460
H186	H	-0.480473	1.775211	-0.342460
H187	H	-0.230473	2.025211	-0.092460
H188	H	0.019527	2.275211	0.157540
H189	H	-0.806454	1.588296	-0.609957
H190	H	-0.556454	1.838296	-0.359957
H191	H	-0.306454	2.088296	-0.109957
H192	H	-0.056454	2.338296	0.140043
H193	H	-0.919671	1.417707	-0.306023
H194	H	-0.669671	1.667707	-0.056023
H195	H	-0.419671	1.917707	0.193977
H196	H	-0.169671	2.167707	0.443977
N197	N	-0.926434	1.342218	-0.639729
N198	N	-0.676434	1.592218	-0.389729
N199	N	-0.426434	1.842218	-0.139729
N200	N	-0.176434	2.092218	0.110271
H201	H	-0.959330	1.400859	-0.637652
H202	H	-0.709330	1.650859	-0.387652
H203	H	-0.459330	1.900859	-0.137652
H204	H	-0.209330	2.150859	0.112348
H205	H	-0.955327	1.285577	-0.665363
H206	H	-0.705327	1.535577	-0.415363
H207	H	-0.455327	1.785577	-0.165363
H208	H	-0.205327	2.035577	0.084637
H209	H	-0.920807	1.244475	-0.522518
H210	H	-0.670807	1.494475	-0.272518
H211	H	-0.420807	1.744475	-0.022518
H212	H	-0.170807	1.994475	0.227482
H213	H	-0.918997	1.291308	-0.341532
H214	H	-0.668997	1.541308	-0.091532
H215	H	-0.418997	1.791308	0.158468
H216	H	-0.168997	2.041308	0.408468
H217	H	-0.793179	1.243662	-0.522067
H218	H	-0.543179	1.493662	-0.272067
H219	H	-0.293179	1.743662	-0.022067
H220	H	-0.043179	1.993662	0.227933
H221	H	-0.792939	1.418832	-0.305956
H222	H	-0.542939	1.668832	-0.055956
H223	H	-0.292939	1.918832	0.194044
H224	H	-0.042939	2.168832	0.444044
N225	N	-0.784862	1.572709	-0.426272
N226	N	-0.534862	1.822709	-0.176272
N227	N	-0.284862	2.072709	0.073728
N228	N	-0.034862	2.322709	0.323728
H229	H	-0.800699	1.557749	-0.358192
H230	H	-0.550699	1.807749	-0.108192
H231	H	-0.300699	2.057749	0.141808
H232	H	-0.050699	2.307749	0.391808
H233	H	-0.805741	1.637049	-0.446285
H234	H	-0.555741	1.887049	-0.196285
H235	H	-0.305741	2.137049	0.053715
H236	H	-0.055741	2.387049	0.303715
N237	N	-0.925699	1.569427	-0.418791
N238	N	-0.675699	1.819427	-0.168791
N239	N	-0.425699	2.069427	0.081209
N240	N	-0.175699	2.319427	0.331209
H241	H	-0.981456	1.571879	-0.419920
H242	H	-0.731456	1.821879	-0.169920
H243	H	-0.481456	2.071879	0.080080
H244	H	-0.231456	2.321879	0.330080
H245	H	-0.905134	1.634798	-0.435927
H246	H	-0.655134	1.884798	-0.185927
H247	H	-0.405134	2.134798	0.064073
H248	H	-0.155134	2.384798	0.314073
H249	H	-0.920422	1.521138	-0.563744
H250	H	-0.670422	1.771138	-0.313744
H251	H	-0.420422	2.021138	-0.063744
H252	H	-0.170422	2.271138	0.186256
