data_functionalizedCrystal
_audit_creation_method	'MofGen! by Chris Wilmer'
_symmetry_space_group_name_H-M	'P1'
_symmetry_Int_Tables_number	1
_symmetry_cell_setting	triclinic
loop_
_symmetry_equiv_pos_as_xyz
  x,y,z
_cell_length_a	6.394989
_cell_length_b	11.026607
_cell_length_c	9.482900
_cell_angle_alpha	78.636152
_cell_angle_beta	80.390180
_cell_angle_gamma	82.458136
loop_
_atom_site_label
_atom_site_type_symbol
_atom_site_fract_x
_atom_site_fract_y
_atom_site_fract_z
O1	O	-0.853991	1.642135	-0.120875
O2	O	-0.753816	1.287297	-0.120879
O3	O	-0.501733	1.469753	-0.120878
O4	O	-1.106074	1.459679	-0.120876
O5	O	-0.553199	1.432696	0.120914
O6	O	-0.805282	1.250240	0.120913
O7	O	-0.905458	1.605078	0.120917
Cu8	Cu	-0.860069	1.424275	0.142993
Cu9	Cu	-0.799204	1.468099	-0.142955
O10	O	-1.157541	1.422622	0.120916
C11	C	-0.761068	1.223275	0.000016
C12	C	-0.705977	1.087719	0.000014
N13	N	-0.902881	1.393461	0.344113
C14	C	-0.858092	1.016240	0.000014
C15	C	-0.801156	0.876135	0.000012
C16	C	-0.448894	1.449233	0.000013
C17	C	-0.210371	1.443147	0.000011
C18	C	-0.898204	1.669100	0.000019
C19	C	-0.953293	1.804658	0.000011
N20	N	-0.756380	1.498923	-0.344074
C21	C	-0.811817	1.459002	0.416312
C22	C	-0.847457	1.433373	0.583730
H23	H	-1.030475	1.058766	0.000023
O24	O	-0.687041	1.548451	0.342238
C25	C	-0.338401	1.621046	0.295329
C26	C	-0.479438	1.519637	0.379297
H27	H	-0.170538	1.597800	0.325283
H28	H	-0.331703	1.625731	0.173502
H29	H	-0.408615	1.714741	0.325115
H30	H	-0.409333	1.425890	0.349633
H31	H	-0.486134	1.515062	0.501103
H32	H	-1.007219	1.318370	0.406242
H33	H	-0.628755	0.833619	-0.000026
O34	O	-0.971665	1.343625	0.657768
C35	C	-1.025794	1.126302	0.704607
C36	C	-0.884921	1.227809	0.620693
H37	H	-0.955741	1.032645	0.674640
H38	H	-1.032319	1.121482	0.826442
H39	H	-1.193721	1.149656	0.674784
H40	H	-0.716927	1.204528	0.650394
H41	H	-0.878576	1.232607	0.498878
O42	O	-0.631405	1.588345	0.582040
C43	C	-0.282590	1.660666	0.535721
C44	C	-0.423971	1.559316	0.619361
H45	H	-0.114863	1.637246	0.565887
H46	H	-0.275584	1.665496	0.413843
H47	H	-0.352720	1.754345	0.565589
H48	H	-0.353949	1.465584	0.589615
H49	H	-0.430975	1.554596	0.741219
H50	H	-1.125689	0.847177	0.000021
H51	H	-0.533588	1.045197	-0.000024
