data_functionalizedCrystal
_audit_creation_method	'MofGen! by Chris Wilmer'
_symmetry_space_group_name_H-M	'P1'
_symmetry_Int_Tables_number	1
_symmetry_cell_setting	triclinic
loop_
_symmetry_equiv_pos_as_xyz
  x,y,z
_cell_length_a	10.908878
_cell_length_b	8.559649
_cell_length_c	7.088929
_cell_angle_alpha	95.344185
_cell_angle_beta	94.657408
_cell_angle_gamma	115.068272
loop_
_atom_site_label
_atom_site_type_symbol
_atom_site_fract_x
_atom_site_fract_y
_atom_site_fract_z
O1	O	1.713650	0.232971	-0.158960
O2	O	1.327148	0.104836	-0.158967
O3	O	1.554450	0.410554	-0.158961
O4	O	1.486348	-0.072747	-0.158966
O5	O	1.584834	0.451486	0.159015
O6	O	1.357532	0.145768	0.159009
O7	O	1.744034	0.273904	0.159016
Cu8	Cu	1.553557	0.213573	0.188046
Cu9	Cu	1.517625	0.165166	-0.187997
O10	O	1.516732	-0.031815	0.159010
C11	C	1.293318	0.113327	0.000020
C12	C	1.147248	0.077665	0.000017
C13	C	1.111072	0.207787	0.000018
C14	C	0.960102	0.170932	0.000015
C15	C	1.574803	0.491921	0.000023
C16	C	1.590164	0.673382	0.000013
C17	C	1.777864	0.265412	0.000025
C18	C	1.923932	0.301072	0.000015
C19	C	1.496379	-0.113182	0.000021
C20	C	1.481016	-0.294644	0.000019
N21	N	1.578840	0.247624	0.452535
N22	N	1.492354	0.131131	-0.452486
H23	H	1.004722	0.439768	0.000003
C24	C	1.698306	0.408818	0.561159
C25	C	1.688043	0.558078	0.512579
C26	C	1.798075	0.706599	0.612587
H27	H	1.696699	0.406739	0.694695
H28	H	1.781522	0.410409	0.528386
H29	H	1.604849	0.556488	0.545365
H30	H	1.689667	0.560215	0.379060
H31	H	1.881291	0.708190	0.579813
H32	H	1.796459	0.704502	0.746118
H33	H	1.791134	0.807889	0.579626
H34	H	1.375817	0.593906	0.000023
C35	C	1.218697	0.392701	-0.000380
C36	C	1.188179	0.456253	-0.163997
C37	C	1.287300	0.626583	-0.164444
H38	H	1.219477	0.464877	0.110374
H39	H	1.305864	0.392949	-0.000485
H40	H	1.101035	0.456017	-0.163874
H41	H	1.187410	0.384126	-0.274778
H42	H	1.374467	0.626831	-0.164550
H43	H	1.288072	0.698744	-0.053683
H44	H	1.266614	0.669719	-0.275464
C45	C	1.730522	0.821973	0.000416
C46	C	1.816326	0.832763	0.164025
C47	C	1.945625	0.969637	0.164472
H48	H	1.767926	0.801158	-0.110344
H49	H	1.722623	0.928333	0.000530
H50	H	1.824230	0.726428	0.163894
H51	H	1.778966	0.853603	0.274811
H52	H	1.937725	1.075996	0.164587
H53	H	1.983015	0.948809	0.053706
H54	H	2.003855	0.976985	0.275488
C55	C	1.372964	-0.030050	0.438759
C56	C	1.383258	-0.179312	0.487269
C57	C	1.273310	-0.327825	0.387091
H58	H	1.289695	-0.031781	0.471406
H59	H	1.374685	-0.027824	0.305234
H60	H	1.381524	-0.181538	0.620764
H61	H	1.466503	-0.177638	0.454616
H62	H	1.275030	-0.325599	0.253566
H63	H	1.190049	-0.329539	0.419747
H64	H	1.280286	-0.429116	0.419978
H65	H	0.879308	0.032234	0.000004
H66	H	1.066452	-0.061023	0.000007
