data_functionalizedCrystal
_audit_creation_method	'MofGen! by Chris Wilmer'
_symmetry_space_group_name_H-M	'P1'
_symmetry_Int_Tables_number	1
_symmetry_cell_setting	triclinic
loop_
_symmetry_equiv_pos_as_xyz
  x,y,z
_cell_length_a	14.044220
_cell_length_b	9.130307
_cell_length_c	10.654541
_cell_angle_alpha	89.996917
_cell_angle_beta	88.836403
_cell_angle_gamma	90.003348
loop_
_atom_site_label
_atom_site_type_symbol
_atom_site_fract_x
_atom_site_fract_y
_atom_site_fract_z
O1	O	1.259693	-0.121643	0.302984
O2	O	0.983652	-0.121680	0.292051
O3	O	1.128020	-0.121651	0.115416
O4	O	1.115324	-0.121671	0.479619
O5	O	1.128015	0.121948	0.115413
O6	O	0.983647	0.121919	0.292048
O7	O	1.259688	0.121956	0.302982
Cu8	Cu	1.121667	0.144180	0.297515
Cu9	Cu	1.121672	-0.143904	0.297518
O10	O	1.115319	0.121928	0.479617
C11	C	0.948303	0.000115	0.287264
C12	C	0.842984	0.000101	0.272988
C13	C	1.127086	0.000147	0.068523
C14	C	1.124298	0.000144	-0.071201
N15	N	1.121670	0.346803	0.297513
C16	C	0.650151	0.000132	0.246889
C17	C	0.593183	0.000132	0.348138
C18	C	0.485884	0.000149	0.333616
C19	C	0.757460	0.000115	0.261409
C20	C	1.295036	0.000158	0.307769
C21	C	1.400356	0.000163	0.322044
N22	N	1.121677	-0.346526	0.297511
C23	C	1.249561	0.346818	0.141158
C24	C	1.313512	0.423493	0.062984
C25	C	1.313522	0.576826	0.062984
C26	C	1.249571	0.653489	0.141164
C27	C	1.185619	0.576814	0.219337
C28	C	1.185619	0.423478	0.219331
C29	C	1.057725	0.576799	0.375684
C30	C	1.057719	0.423466	0.375692
C31	C	0.993774	0.653462	0.453863
C32	C	0.929826	0.576788	0.532045
C33	C	0.929819	0.423445	0.532042
C34	C	0.993767	0.346792	0.453865
C35	C	1.296930	0.000186	-0.081824
C36	C	1.381932	0.000210	-0.152776
C37	C	1.379307	0.000205	-0.284058
C38	C	1.291671	0.000172	-0.344390
C39	C	1.206668	0.000148	-0.273437
C40	C	1.209303	0.000158	-0.142153
C41	C	1.034039	0.000096	-0.262814
C42	C	1.036662	0.000111	-0.131533
C43	C	0.946402	0.000063	-0.323146
C44	C	0.861398	0.000050	-0.252194
C45	C	0.864026	0.000056	-0.120904
C46	C	0.951659	0.000088	-0.060580
C47	C	1.116253	0.000126	0.526510
C48	C	1.119041	0.000120	0.666233
H49	H	0.618341	0.000145	0.149310
O50	O	1.249732	0.197871	0.141177
C51	C	1.339924	0.146649	0.176928
H52	H	1.395644	0.235015	0.157483
H53	H	1.338096	0.119444	0.281381
C54	C	1.297210	-0.100455	0.125033
C55	C	1.365648	0.008074	0.101140
H56	H	1.313077	-0.185938	0.078289
H57	H	1.236445	-0.065947	0.100951
H58	H	1.295694	-0.123108	0.212079
H59	H	1.367155	0.030738	0.014099
H60	H	1.426414	-0.026433	0.125205
O61	O	1.375539	0.349052	-0.013110
C62	C	1.359364	0.386507	-0.139277
H63	H	1.283429	0.428680	-0.148507
H64	H	1.411722	0.475482	-0.170264
C65	C	1.466810	0.198463	-0.211433
C66	C	1.373542	0.250249	-0.222771
H67	H	1.475560	0.114416	-0.262937
H68	H	1.477711	0.173231	-0.126432
H69	H	1.510431	0.272622	-0.237254
H70	H	1.329924	0.176098	-0.196935
H71	H	1.362635	0.275465	-0.307769
H72	H	1.365593	0.639254	-0.000676
H73	H	1.453284	0.000250	-0.103639
H74	H	1.249575	0.778341	0.141148
H75	H	0.944271	0.000050	-0.430043
H76	H	0.624995	0.000120	0.445725
H77	H	0.993781	0.778314	0.453854
H78	H	0.877757	0.639216	0.595687
O79	O	0.867660	0.349195	0.608100
C80	C	0.811207	0.449746	0.677069
H81	H	0.850109	0.559047	0.682877
H82	H	0.740483	0.466055	0.628300
C83	C	0.744743	0.255657	0.803306
C84	C	0.792528	0.389899	0.810449
H85	H	0.733216	0.218740	0.885580
H86	H	0.782774	0.187913	0.756838
H87	H	0.685812	0.269267	0.762660
H88	H	0.851462	0.376285	0.851080
H89	H	0.754506	0.457641	0.856928
O90	O	0.993587	0.197845	0.453852
C91	C	0.903393	0.146618	0.418102
H92	H	0.847676	0.234977	0.437548
H93	H	0.905220	0.119427	0.313650
C94	C	0.946098	-0.100488	0.469996
C95	C	0.877665	0.008031	0.493891
H96	H	0.930229	-0.185979	0.516741
H97	H	1.006865	-0.065978	0.494077
H98	H	0.947614	-0.123130	0.382951
H99	H	0.876159	0.030684	0.580931
H100	H	0.816897	-0.026479	0.469826
O101	O	1.461939	0.000031	-0.352853
C102	C	1.515093	-0.126135	-0.324027
H103	H	1.492469	-0.168200	-0.227192
H104	H	1.501649	-0.214483	-0.397171
C105	C	1.649666	-0.036117	-0.443474
C106	C	1.621884	-0.087775	-0.324535
H107	H	1.715540	-0.012459	-0.443792
H108	H	1.613855	0.048881	-0.462899
H109	H	1.638455	-0.109749	-0.504414
H110	H	1.633084	-0.014137	-0.263599
H111	H	1.657700	-0.172760	-0.305099
H112	H	1.289541	0.000150	-0.451287
O113	O	0.781390	-0.000164	-0.052119
C114	C	0.728264	-0.126367	-0.080936
H115	H	0.750908	-0.168427	-0.177760
H116	H	0.741717	-0.214700	-0.007776
C117	C	0.593660	-0.036425	0.038470
C118	C	0.621466	-0.088077	-0.080455
H119	H	0.527782	-0.012810	0.038772
H120	H	0.629453	0.048598	0.057890
H121	H	0.604879	-0.110045	0.099425
H122	H	0.610258	-0.014452	-0.141405
H123	H	0.585669	-0.173087	-0.099885
H124	H	1.299076	0.000210	0.025072
H125	H	0.790051	0.000013	-0.301327
H126	H	0.953808	0.000102	0.046316
