data_functionalizedCrystal
_audit_creation_method	'MofGen! by Chris Wilmer'
_symmetry_space_group_name_H-M	'P1'
_symmetry_Int_Tables_number	1
_symmetry_cell_setting	triclinic
loop_
_symmetry_equiv_pos_as_xyz
  x,y,z
_cell_length_a	12.594517
_cell_length_b	12.594516
_cell_length_c	16.120297
_cell_angle_alpha	87.123691
_cell_angle_beta	87.122039
_cell_angle_gamma	90.011616
loop_
_atom_site_label
_atom_site_type_symbol
_atom_site_fract_x
_atom_site_fract_y
_atom_site_fract_z
Zn1	Zn	1.596773	-0.454293	0.471414
Zn2	Zn	1.605704	-0.623261	0.332012
Zn3	Zn	1.427803	-0.445296	0.332017
Zn4	Zn	1.418775	-0.632226	0.471377
O5	O	1.512264	-0.538769	0.401705
O6	O	1.746902	-0.476719	0.452936
O7	O	1.589621	-0.592136	0.215349
O8	O	1.450258	-0.297545	0.350526
O9	O	1.753464	-0.600860	0.350517
O10	O	1.574400	-0.304155	0.452940
O11	O	1.458918	-0.461387	0.215353
O12	O	1.277661	-0.470080	0.350490
O13	O	1.434870	-0.616140	0.588045
O14	O	1.271027	-0.607417	0.452877
O15	O	1.565645	-0.485413	0.588073
O16	O	1.580866	-0.773395	0.350481
O17	O	1.443530	-0.779982	0.452872
C18	C	1.235724	-0.538746	0.401680
C19	C	1.117418	-0.538763	0.401690
C20	C	1.051735	-0.463976	0.346107
C21	C	0.982259	-0.559734	0.325602
C22	C	0.976094	-0.443053	0.422209
C23	C	1.049503	-0.634570	0.381145
C24	C	1.043342	-0.517826	0.477787
C25	C	0.973896	-0.613653	0.457311
C26	C	1.512215	-0.815309	0.401691
C27	C	1.512290	-0.933616	0.401712
C28	C	1.587066	-0.999252	0.346081
C29	C	1.608149	-1.074884	0.422174
C30	C	1.491337	-1.068786	0.325667
C31	C	1.533420	-1.007692	0.477845
C32	C	1.416566	-1.001585	0.381287
C33	C	1.437609	-1.077188	0.457433
C34	C	1.789883	-0.538793	0.401730
C35	C	1.908187	-0.538803	0.401741
C36	C	1.498254	-0.552780	0.619154
C37	C	1.492284	-0.558751	0.711818
C38	C	1.512340	-0.261150	0.401738
C39	C	1.512372	-0.142846	0.401752
C40	C	1.526279	-0.524736	0.185102
C41	C	1.532455	-0.518465	0.092438
C42	C	1.481346	-0.569628	0.881476
C43	C	1.543391	-0.507591	0.922786
C44	C	1.537305	-0.513644	1.017189
C45	C	1.487431	-0.563577	0.787064
H46	H	1.650308	-0.965152	0.299078
H47	H	1.473580	-1.095783	0.261341
C48	C	1.353184	-1.122264	0.520190
C49	C	1.253310	-1.083507	0.499286
C50	C	1.175520	-1.125000	0.557086
H51	H	1.353139	-1.197642	0.519590
H52	H	1.368202	-1.101302	0.574183
H53	H	1.238296	-1.104476	0.445307
H54	H	1.253321	-1.008134	0.499892
H55	H	1.190538	-1.104038	0.611079
H56	H	1.175485	-1.200377	0.556482
H57	H	1.107749	-1.098702	0.542915
C58	C	1.620479	-0.430785	0.875511
C59	C	1.724449	-0.455281	0.896649
C60	C	1.795485	-0.384547	0.853117
H61	H	1.614536	-0.436823	0.817427
H62	H	1.604092	-0.360142	0.889742
H63	H	1.740832	-0.525906	0.882413
H64	H	1.730426	-0.449236	0.954725
H65	H	1.779097	-0.313905	0.867347
H66	H	1.789532	-0.390591	0.795035
H67	H	1.866035	-0.401152	0.867458
C68	C	1.079532	-0.493989	0.563465
C69	C	1.142635	-0.402123	0.557466
C70	C	1.176006	-0.380126	0.636373
H71	H	1.019189	-0.483226	0.599797
H72	H	1.119726	-0.552148	0.584723
H73	H	1.102442	-0.343978	0.536220
H74	H	1.202993	-0.412863	0.521150
H75	H	1.216201	-0.438285	0.657631
H76	H	1.115657	-0.369367	0.672699
H77	H	1.218833	-0.317799	0.632312
H78	H	1.423662	-0.627280	0.917006
H79	H	1.085799	-0.400785	0.299045
C80	C	0.946109	-0.583154	0.239823
C81	C	0.885369	-0.498025	0.209408
C82	C	0.852042	-0.519533	0.130390
H83	H	1.006487	-0.592469	0.203210
H84	H	0.904306	-0.646171	0.243471
H85	H	0.927171	-0.435026	0.205755
H86	H	0.824977	-0.488696	0.245998
H87	H	0.810239	-0.582551	0.134038
H88	H	0.912426	-0.528850	0.093784
H89	H	0.810819	-0.461783	0.109747
C90	C	1.092470	-0.742455	0.357903
C91	C	1.203620	-0.741153	0.358094
C92	C	1.243241	-0.840509	0.336676
H93	H	1.065292	-0.795704	0.397124
H94	H	1.071141	-0.757479	0.304012
H95	H	1.224940	-0.726142	0.411978
H96	H	1.230826	-0.687925	0.318873
H97	H	1.221911	-0.855533	0.282784
H98	H	1.216055	-0.893750	0.375899
H99	H	1.318659	-0.839636	0.336795
H100	H	1.689136	-1.107041	0.439472
C101	C	0.928792	-0.698255	0.519905
C102	C	0.966227	-0.798248	0.498063
C103	C	0.924686	-0.876211	0.555694
H104	H	0.950640	-0.684090	0.573813
H105	H	0.853363	-0.697488	0.519894
H106	H	1.041640	-0.799014	0.498082
H107	H	0.944381	-0.812448	0.444164
H108	H	0.849257	-0.875444	0.555683
H109	H	0.946537	-0.862036	0.609598
H110	H	0.950072	-0.944066	0.540878
C111	C	0.933312	-0.335007	0.445215
C112	C	0.972908	-0.257005	0.386799
C113	C	0.933535	-0.157458	0.407963
H114	H	0.857875	-0.335842	0.445551
H115	H	0.955201	-0.319547	0.498861
H116	H	0.951012	-0.272461	0.333166
H117	H	1.048341	-0.256136	0.386454
H118	H	0.955424	-0.141998	0.461610
H119	H	0.858099	-0.158304	0.408299
H120	H	0.960403	-0.104521	0.368336
H121	H	1.551093	-0.980830	0.542227
H122	H	1.335605	-0.969404	0.363966
