data_functionalizedCrystal
_audit_creation_method	'MofGen! by Chris Wilmer'
_symmetry_space_group_name_H-M	'P1'
_symmetry_Int_Tables_number	1
_symmetry_cell_setting	triclinic
loop_
_symmetry_equiv_pos_as_xyz
  x,y,z
_cell_length_a	15.711784
_cell_length_b	8.559649
_cell_length_c	7.681481
_cell_angle_alpha	94.930900
_cell_angle_beta	97.441369
_cell_angle_gamma	85.316267
loop_
_atom_site_label
_atom_site_type_symbol
_atom_site_fract_x
_atom_site_fract_y
_atom_site_fract_z
O1	O	1.082096	-0.853597	-0.146471
O2	O	0.838208	-0.736472	-0.146462
O3	O	0.981638	-0.574992	-0.146466
O4	O	0.938665	-1.015077	-0.146468
O5	O	0.999297	-0.555050	0.146392
O6	O	0.855866	-0.716531	0.146395
O7	O	1.099754	-0.833655	0.146386
Zn8	Zn	0.980614	-0.771927	0.192888
Zn9	Zn	0.957348	-0.798200	-0.192964
O10	O	0.956323	-0.995136	0.146390
C11	C	0.816103	-0.707368	-0.000032
C12	C	0.723931	-0.650339	-0.000029
C13	C	0.613235	-0.435645	-0.000027
C14	C	0.699843	-0.489248	-0.000029
C15	C	0.661412	-0.757892	-0.000037
C16	C	0.574799	-0.704312	-0.000044
C17	C	0.550718	-0.543187	-0.000036
C18	C	0.512282	-0.811853	-0.000053
C19	C	0.425677	-0.758276	-0.000051
C20	C	0.401589	-0.597158	-0.000038
C21	C	0.464113	-0.489610	-0.000034
C22	C	0.536365	-0.972977	-0.000048
C23	C	0.473848	-1.080518	-0.000058
C24	C	0.387240	-1.026943	-0.000068
C25	C	0.363152	-0.865824	-0.000055
C26	C	0.324716	-1.134491	-0.000072
C27	C	0.238111	-1.080914	-0.000069
C28	C	0.276547	-0.812247	-0.000052
C29	C	0.993724	-0.507395	-0.000040
C30	C	1.003417	-0.335682	-0.000050
C31	C	1.121859	-0.862759	-0.000047
C32	C	1.214030	-0.919789	-0.000062
C33	C	0.944237	-1.062732	-0.000039
C34	C	0.934543	-1.234446	-0.000041
N35	N	0.996498	-0.753998	0.456222
N36	N	0.941471	-0.816120	-0.456298
H37	H	0.750744	-0.401663	-0.000027
Br38	Br	0.823897	-0.308932	-0.000026
Br39	Br	1.090137	-0.648339	0.581555
H40	H	1.069805	-0.290980	-0.000039
H41	H	0.885301	-0.879525	0.468507
H42	H	0.256939	-0.681045	-0.000065
Br43	Br	0.284054	-0.524438	-0.000013
H44	H	0.444505	-0.358408	-0.000046
H45	H	0.593627	-0.304443	-0.000040
H46	H	0.681032	-0.889080	-0.000037
H47	H	0.344337	-1.265678	-0.000061
Br48	Br	0.653913	-1.045677	0.000141
H49	H	0.493467	-1.211707	-0.000057
Br50	Br	0.153261	-1.226861	-0.000059
