data_functionalizedCrystal
_audit_creation_method	'MofGen! by Chris Wilmer'
_symmetry_space_group_name_H-M	'P1'
_symmetry_Int_Tables_number	1
_symmetry_cell_setting	triclinic
loop_
_symmetry_equiv_pos_as_xyz
  x,y,z
_cell_length_a	19.077399
_cell_length_b	19.077068
_cell_length_c	12.759393
_cell_angle_alpha	87.737652
_cell_angle_beta	87.727729
_cell_angle_gamma	94.530727
loop_
_atom_site_label
_atom_site_type_symbol
_atom_site_fract_x
_atom_site_fract_y
_atom_site_fract_z
Zn1	Zn	1.066444	-0.237332	0.544444
Zn2	Zn	1.566444	0.262668	1.044444
Zn3	Zn	1.061608	-0.355240	0.376103
Zn4	Zn	1.561608	0.144760	0.876103
Zn5	Zn	0.948550	-0.242102	0.376114
Zn6	Zn	1.448550	0.257898	0.876114
Zn7	Zn	0.943785	-0.359920	0.559065
Zn8	Zn	1.443785	0.140080	1.059065
O9	O	1.005097	-0.298649	0.463931
O10	O	1.505097	0.201351	0.963931
O11	O	1.164451	-0.249018	0.515990
O12	O	1.664451	0.250982	1.015990
O13	O	1.046581	-0.340270	0.229087
O14	O	1.546581	0.159730	0.729087
O15	O	0.968206	-0.142817	0.392328
O16	O	1.468206	0.357183	0.892328
O17	O	1.160898	-0.335645	0.392310
O18	O	1.660898	0.164355	0.892310
O19	O	1.054823	-0.139313	0.516000
O20	O	1.554823	0.360687	1.016000
O21	O	0.963517	-0.257147	0.229095
O22	O	1.463517	0.242853	0.729095
O23	O	0.849269	-0.261686	0.406506
O24	O	1.349269	0.238314	0.906506
O25	O	0.960086	-0.343621	0.704143
O26	O	1.460086	0.156379	1.204143
O27	O	0.845768	-0.348246	0.540920
O28	O	1.345768	0.151754	1.040920
O29	O	1.050203	-0.253557	0.693401
O30	O	1.550203	0.246443	1.193401
O31	O	1.041960	-0.454513	0.406488
O32	O	1.541960	0.045487	0.906488
O33	O	0.955396	-0.457951	0.540910
O34	O	1.455396	0.042049	1.040910
C35	C	0.821940	-0.305992	0.475301
C36	C	1.321940	0.194008	0.975301
C37	C	0.743584	-0.309150	0.480191
C38	C	1.243584	0.190850	0.980191
C39	C	0.708577	-0.265498	0.412613
C40	C	1.208577	0.234502	0.912613
C41	C	0.634954	-0.268472	0.417208
C42	C	1.134954	0.231528	0.917208
C43	C	0.596338	-0.315094	0.489387
C44	C	1.096338	0.184906	0.989387
C45	C	0.631350	-0.358751	0.556969
C46	C	1.131350	0.141249	1.056969
C47	C	0.704973	-0.355780	0.552368
C48	C	1.204973	0.144220	1.052368
C49	C	0.375957	-0.328822	0.510635
C50	C	0.875957	0.171178	1.010635
C51	C	0.302330	-0.331788	0.515233
C52	C	0.802330	0.168212	1.015233
C53	C	0.305938	-0.241510	0.375470
C54	C	0.805938	0.258490	0.875470
C55	C	0.379562	-0.238540	0.370880
C56	C	0.879562	0.261460	0.870880
C57	C	0.414568	-0.282199	0.438458
C58	C	0.914568	0.217801	0.938458
N59	N	0.521083	-0.318134	0.494088
N60	N	1.021083	0.181866	0.994088
N61	N	0.489821	-0.279163	0.433751
N62	N	0.989821	0.220837	0.933751
C63	C	0.997656	-0.481811	0.475306
C64	C	1.497656	0.018189	0.975306
C65	C	0.994537	-0.560166	0.480204
C66	C	1.494537	-0.060166	0.980204
C67	C	1.038176	-0.595162	0.412572
C68	C	1.538176	-0.095162	0.912572
C69	C	1.035247	-0.668785	0.417184
C70	C	1.535247	-0.168785	0.917184
C71	C	0.988675	-0.707410	0.489424
C72	C	1.488675	-0.207410	0.989424
C73	C	0.945034	-0.672409	0.557063
C74	C	1.445034	-0.172409	1.057063
C75	C	0.947967	-0.598787	0.552455
C76	C	1.447967	-0.098787	1.052455
C77	C	0.975069	-0.927790	0.510708
C78	C	1.475069	-0.427790	1.010708
C79	C	0.972138	-1.001416	0.515309
C80	C	1.472138	-0.501416	1.015309
C81	C	1.062352	-0.997787	0.375431
C82	C	1.562352	-0.497787	0.875431
C83	C	1.065278	-0.924165	0.370825
C84	C	1.565278	-0.424165	0.870825
C85	C	1.021640	-0.889170	0.438468
C86	C	1.521640	-0.389170	0.938468
N87	N	0.985678	-0.782664	0.494137
N88	N	1.485678	-0.282664	0.994137
N89	N	1.024641	-0.813916	0.433759
N90	N	1.524641	-0.313916	0.933759
C91	C	1.188968	-0.291278	0.452518
C92	C	1.688968	0.208722	0.952518
C93	C	1.267323	-0.288136	0.447654
C94	C	1.767323	0.211864	0.947654
C95	C	1.005152	-0.298579	0.737957
C96	C	1.505152	0.201421	1.237957
C97	C	1.005176	-0.298549	0.854731
C98	C	1.505176	0.201451	1.354731
C99	C	1.012585	-0.114771	0.452534
C100	C	1.512585	0.385229	0.952534
C101	C	1.015777	-0.036413	0.447677
C102	C	1.515777	0.463587	0.947677
C103	C	1.005084	-0.298666	0.190966
C104	C	1.505084	0.201334	0.690966
C105	C	1.005205	-0.298491	0.074172
C106	C	1.505205	0.201509	0.574172
C107	C	1.052103	-0.251645	0.904000
C108	C	1.552103	0.248355	1.404000
C109	C	1.052116	-0.251614	1.013722
C110	C	1.552116	0.248386	1.513722
C111	C	0.958272	-0.345398	1.024895
C112	C	1.458272	0.154602	1.524895
C113	C	0.958256	-0.345424	0.915176
C114	C	1.458256	0.154576	1.415176
H115	H	0.410998	-0.200581	0.312097
H116	H	0.910998	0.299419	0.812097
H117	H	0.920037	-0.383619	0.875060
H118	H	1.420037	0.116381	1.375060
H119	H	0.277429	-0.205966	0.320451
H120	H	0.777429	0.294034	0.820451
Br121	Br	1.115778	-0.188028	0.821971
Br122	Br	1.615778	0.311972	1.321971
H123	H	1.097881	-1.026288	0.320362
H124	H	1.597881	-0.526288	0.820362
Br125	Br	0.908916	-1.053837	0.613338
Br126	Br	1.408916	-0.553837	1.113338
Br127	Br	0.760977	-0.202217	0.314657
Br128	Br	1.260977	0.297783	0.814657
Br129	Br	0.587447	-0.209225	0.325493
Br130	Br	1.087447	0.290775	0.825493
H131	H	1.070782	-0.697275	0.362110
H132	H	1.570782	-0.197275	0.862110
H133	H	0.270891	-0.369753	0.574016
H134	H	0.770891	0.130247	1.074016
Br135	Br	0.888745	-0.551291	0.644251
Br136	Br	1.388745	-0.051291	1.144251
H137	H	0.404450	-0.364372	0.565662
H138	H	0.904450	0.135628	1.065662
Br139	Br	0.578944	-0.422038	0.654909
Br140	Br	1.078944	0.077962	1.154909
H141	H	1.090328	-0.213419	1.053832
H142	H	1.590328	0.286581	1.553832
H143	H	0.733474	-0.391326	0.607398
H144	H	1.233474	0.108674	1.107398
H145	H	0.920074	-0.383563	1.074123
H146	H	1.420074	0.116437	1.574123
H147	H	1.076097	-0.563718	0.353742
H148	H	1.576097	-0.063718	0.853742
H149	H	0.939536	-0.899302	0.565784
H150	H	1.439536	-0.399302	1.065784
Br151	Br	1.128495	-0.871749	0.272795
Br152	Br	1.628495	-0.371749	0.772795
H153	H	0.907117	-0.703863	0.615886
H154	H	1.407117	-0.203863	1.115886
