data_functionalizedCrystal
_audit_creation_method	'MofGen! by Chris Wilmer'
_symmetry_space_group_name_H-M	'P1'
_symmetry_Int_Tables_number	1
_symmetry_cell_setting	triclinic
loop_
_symmetry_equiv_pos_as_xyz
  x,y,z
_cell_length_a	16.992694
_cell_length_b	16.992700
_cell_length_c	7.540329
_cell_angle_alpha	89.989176
_cell_angle_beta	90.002664
_cell_angle_gamma	90.667698
loop_
_atom_site_label
_atom_site_type_symbol
_atom_site_fract_x
_atom_site_fract_y
_atom_site_fract_z
O1	O	1.050847	0.166915	-0.147307
O2	O	1.550847	0.666915	0.352693
O3	O	0.822447	0.165084	-0.147359
O4	O	1.322447	0.665084	0.352641
O5	O	0.935733	0.051800	-0.147288
O6	O	1.435733	0.551800	0.352712
O7	O	0.937562	0.280200	-0.147378
O8	O	1.437562	0.780200	0.352622
O9	O	0.935726	0.051798	0.147677
O10	O	1.435726	0.551798	0.647677
O11	O	0.822440	0.165082	0.147606
O12	O	1.322440	0.665082	0.647606
O13	O	1.050840	0.166913	0.147658
O14	O	1.550840	0.666913	0.647658
Cu15	Cu	0.936639	0.165998	0.174565
Cu16	Cu	1.436639	0.665998	0.674565
Cu17	Cu	0.936648	0.166000	-0.174266
Cu18	Cu	1.436648	0.666000	0.325734
O19	O	0.937555	0.280198	0.147587
O20	O	1.437555	0.780198	0.647587
C21	C	0.793084	0.162727	0.000118
C22	C	1.293084	0.662727	0.500118
C23	C	0.705599	0.155699	0.000100
C24	C	1.205599	0.655699	0.500100
C25	C	0.659608	0.223517	0.000075
C26	C	1.159608	0.723517	0.500075
C27	C	0.577407	0.216908	0.000102
C28	C	1.077407	0.716908	0.500102
C29	C	0.541199	0.142480	0.000142
C30	C	1.041199	0.642480	0.500142
C31	C	0.587197	0.074657	0.000172
C32	C	1.087197	0.574657	0.500172
C33	C	0.669396	0.081267	0.000158
C34	C	1.169396	0.581267	0.500158
C35	C	0.295885	0.115086	0.000200
C36	C	0.795885	0.615086	0.500200
C37	C	0.213680	0.108481	0.000209
C38	C	0.713680	0.608481	0.500209
C39	C	0.203896	0.250732	0.000142
C40	C	0.703896	0.750732	0.500142
C41	C	0.286097	0.257335	0.000117
C42	C	0.786097	0.757335	0.500117
C43	C	0.332087	0.189512	0.000157
C44	C	0.832087	0.689512	0.500157
N45	N	0.457177	0.135723	0.000164
N46	N	0.957177	0.635723	0.500164
N47	N	0.416108	0.196270	0.000147
N48	N	0.916108	0.696270	0.500147
C49	C	0.933374	0.022439	0.000202
C50	C	1.433374	0.522439	0.500202
C51	C	0.926346	-0.065046	0.000223
C52	C	1.426346	0.434954	0.500223
C53	C	0.879124	-0.556965	0.000051
C54	C	1.379124	-0.056965	0.500051
C55	C	0.885734	-0.474764	0.000070
C56	C	1.385734	0.025236	0.500070
C57	C	0.960162	-0.438557	0.000111
C58	C	1.460162	0.061443	0.500111
C59	C	1.027984	-0.484555	0.000115
C60	C	1.527984	0.015445	0.500115
C61	C	1.021374	-0.566754	0.000083
C62	C	1.521374	-0.066754	0.500083
C63	C	0.987558	-0.193243	0.000196
C64	C	1.487558	0.306757	0.500196
C65	C	0.994163	-0.111038	0.000233
C66	C	1.494163	0.388962	0.500233
C67	C	0.851912	-0.101253	0.000184
C68	C	1.351912	0.398747	0.500184
C69	C	0.845308	-0.183454	0.000163
C70	C	1.345308	0.316546	0.500163
C71	C	0.913131	-0.229445	0.000158
C72	C	1.413131	0.270555	0.500158
N73	N	0.966919	-0.354535	0.000136
N74	N	1.466919	0.145465	0.500136
N75	N	0.906372	-0.313465	0.000121
N76	N	1.406372	0.186535	0.500121
C77	C	1.080204	0.169270	0.000177
C78	C	1.580204	0.669270	0.500177
C79	C	1.167688	0.176299	0.000184
C80	C	1.667688	0.676299	0.500184
C81	C	0.939914	0.309559	0.000094
C82	C	1.439914	0.809559	0.500094
C83	C	0.946942	0.397043	0.000060
C84	C	1.446942	0.897043	0.500060
N85	N	0.936639	0.165996	0.419913
N86	N	1.436639	0.665996	0.919913
N87	N	0.936654	0.165996	-0.419614
N88	N	1.436654	0.665996	0.080386
H89	H	0.166442	0.305950	0.000113
H90	H	0.666442	0.805950	0.500113
H91	H	0.184203	0.047870	0.000239
H92	H	0.684203	0.547870	0.500239
C93	C	0.705362	-0.165521	0.000108
C94	C	1.205362	0.334479	0.500108
C95	C	0.763494	-0.223250	0.000115
C96	C	1.263494	0.276750	0.500115
H97	H	0.654855	-0.190092	0.000075
H98	H	1.154855	0.309908	0.500075
H99	H	0.710894	-0.133680	0.102973
H100	H	1.210894	0.366320	0.602973
H101	H	0.710908	-0.133648	-0.102749
H102	H	1.210908	0.366352	0.397251
H103	H	0.757952	-0.255119	0.102980
H104	H	1.257952	0.244881	0.602980
H105	H	0.757960	-0.255104	-0.102761
H106	H	1.257960	0.244896	0.397239
C107	C	1.134116	-0.128963	0.000212
C108	C	1.634116	0.371037	0.500212
C109	C	1.075981	-0.071238	0.000242
C110	C	1.575981	0.428762	0.500242
H111	H	1.184623	-0.104390	0.000204
H112	H	1.684623	0.395610	0.500204
H113	H	1.128586	-0.160833	0.103057
H114	H	1.628586	0.339167	0.603057
H115	H	1.128572	-0.160807	-0.102666
H116	H	1.628572	0.339193	0.397334
H117	H	1.081521	-0.039397	0.103127
H118	H	1.581521	0.460603	0.603127
H119	H	1.081513	-0.039354	-0.102613
H120	H	1.581513	0.460646	0.397387
H121	H	0.706842	0.026042	0.000177
H122	H	1.206842	0.526042	0.500177
C123	C	0.776831	-0.003118	-0.151455
C124	C	1.276831	0.496882	0.348545
C125	C	0.777364	-0.050699	0.000165
C126	C	1.277364	0.449301	0.500165
H127	H	0.730803	0.028088	-0.151474
H128	H	1.230803	0.528088	0.348526
H129	H	0.822097	0.030207	-0.151407
H130	H	1.322097	0.530207	0.348593
H131	H	0.777220	-0.035382	-0.254312
H132	H	1.277220	0.464618	0.245688
H133	H	0.776982	-0.018434	0.103023
H134	H	1.276982	0.481566	0.603023
H135	H	0.732086	-0.084027	0.000133
H136	H	1.232086	0.415973	0.500133
H137	H	1.042784	-0.230679	0.000203
H138	H	1.542784	0.269321	0.500203
H139	H	0.333321	0.059859	0.000234
H140	H	0.833321	0.559859	0.500234
C141	C	0.465538	0.001362	0.000207
C142	C	0.965538	0.501362	0.500207
C143	C	0.547399	-0.007156	0.000212
C144	C	1.047399	0.492844	0.500212
H145	H	0.440971	-0.049148	0.000217
H146	H	0.940971	0.450852	0.500217
H147	H	0.450063	0.029496	0.103051
H148	H	0.950063	0.529496	0.603051
H149	H	0.450060	0.029504	-0.102672
H150	H	0.950060	0.529504	0.397328
H151	H	0.562877	-0.035293	0.103098
H152	H	1.062877	0.464707	0.603098
H153	H	0.562880	-0.035303	-0.102643
H154	H	1.062880	0.464697	0.397357
C155	C	0.479297	0.292006	0.151696
C156	C	0.979297	0.792006	0.651696
C157	C	0.526850	0.291454	0.000058
C158	C	1.026850	0.791454	0.500058
H159	H	0.448089	0.338033	0.151668
H160	H	0.948089	0.838033	0.651668
H161	H	0.445975	0.246739	0.151720
H162	H	0.945975	0.746739	0.651720
H163	H	0.511581	0.291636	0.254540
H164	H	1.011581	0.791636	0.754540
H165	H	0.494566	0.291818	-0.102788
H166	H	0.994566	0.791818	0.397212
H167	H	0.560175	0.336733	0.000017
H168	H	1.060175	0.836733	0.500017
H169	H	0.315571	0.317942	0.000064
H170	H	0.815571	0.817942	0.500064
H171	H	0.689081	0.284123	0.000041
H172	H	1.189081	0.784123	0.500041
H173	H	0.830509	-0.437320	0.000056
H174	H	1.330509	0.062680	0.500056
C175	C	1.151262	-0.467624	0.151780
C176	C	1.651262	0.032376	0.651780
C177	C	1.109800	-0.444763	0.000150
C178	C	1.609800	0.055237	0.500150
H179	H	1.201775	-0.443063	0.151793
H180	H	1.701775	0.056937	0.651793
H181	H	1.123121	-0.452151	0.254619
H182	H	1.623121	0.047849	0.754619
H183	H	1.157022	-0.523162	0.151742
H184	H	1.657022	-0.023162	0.651742
H185	H	1.104035	-0.389225	0.000195
H186	H	1.604035	0.110775	0.500195
H187	H	1.137949	-0.460231	-0.102716
H188	H	1.637949	0.039769	0.397284
H189	H	1.076598	-0.604200	0.000084
H190	H	1.576598	-0.104200	0.500084
H191	H	0.818517	-0.586438	0.000038
H192	H	1.318517	-0.086438	0.500038
