data_functionalizedCrystal
_audit_creation_method	'MofGen! by Chris Wilmer'
_symmetry_space_group_name_H-M	'P1'
_symmetry_Int_Tables_number	1
_symmetry_cell_setting	triclinic
loop_
_symmetry_equiv_pos_as_xyz
  x,y,z
_cell_length_a	12.759401
_cell_length_b	17.640280
_cell_length_c	12.759393
_cell_angle_alpha	78.768734
_cell_angle_beta	89.980718
_cell_angle_gamma	78.802151
loop_
_atom_site_label
_atom_site_type_symbol
_atom_site_fract_x
_atom_site_fract_y
_atom_site_fract_z
Zn1	Zn	1.690803	-0.314593	-0.509563
Zn2	Zn	1.726229	-0.446788	-0.298394
Zn3	Zn	1.515118	-0.314637	-0.333887
Zn4	Zn	1.550608	-0.446732	-0.474046
O5	O	1.620689	-0.380687	-0.403972
O6	O	1.842524	-0.332135	-0.481561
O7	O	1.698198	-0.429300	-0.156069
O8	O	1.508744	-0.204025	-0.386908
O9	O	1.868552	-0.429258	-0.326416
O10	O	1.637819	-0.203993	-0.515977
O11	O	1.543096	-0.332209	-0.182146
O12	O	1.372803	-0.332154	-0.352469
O13	O	1.569232	-0.429161	-0.625790
O14	O	1.398878	-0.429203	-0.455443
O15	O	1.672232	-0.332080	-0.651884
O16	O	1.732611	-0.557387	-0.291976
O17	O	1.603583	-0.557345	-0.421027
C18	C	1.347719	-0.380678	-0.403954
C19	C	1.230947	-0.380693	-0.403966
C20	C	1.189710	-0.431303	-0.457458
C21	C	1.079987	-0.431306	-0.457479
C22	C	1.052746	-0.330086	-0.350505
C23	C	1.162467	-0.330080	-0.350492
C24	C	0.937709	-0.459667	-0.573725
C25	C	0.896472	-0.510290	-0.627205
C26	C	0.952801	-0.587425	-0.622445
C27	C	1.050370	-0.613953	-0.564185
C28	C	1.091603	-0.563334	-0.510696
C29	C	1.035272	-0.486188	-0.515480
C30	C	1.304748	-0.301727	-0.234242
C31	C	1.345984	-0.251112	-0.180746
C32	C	1.289656	-0.173975	-0.185496
C33	C	1.192085	-0.147450	-0.243736
C34	C	1.150849	-0.198065	-0.297232
C35	C	1.207184	-0.275201	-0.292484
C36	C	1.675821	-0.586045	-0.348819
C37	C	1.699503	-0.673898	-0.325260
C38	C	1.441213	-0.962864	-0.583334
C39	C	1.463468	-1.045415	-0.561163
C40	C	1.597908	-1.045393	-0.426918
C41	C	1.575668	-0.962840	-0.449081
C42	C	1.497319	-0.921582	-0.527290
C43	C	1.631774	-0.921559	-0.393037
C44	C	1.609532	-0.839013	-0.415196
C45	C	1.531184	-0.797749	-0.493398
C46	C	1.475077	-0.839037	-0.549448
C47	C	1.710118	-0.962818	-0.314824
C48	C	1.766223	-0.921536	-0.258780
C49	C	1.743987	-0.838989	-0.280943
C50	C	1.665639	-0.797725	-0.359146
C51	C	1.800094	-0.797701	-0.224893
C52	C	1.777852	-0.715156	-0.247051
C53	C	1.643397	-0.715180	-0.381304
C54	C	1.894725	-0.380698	-0.403991
C55	C	2.011503	-0.380702	-0.403999
C56	C	1.620739	-0.380610	-0.678027
C57	C	1.620760	-0.380576	-0.794812
C58	C	1.565371	-0.174528	-0.459364
C59	C	1.541798	-0.086675	-0.482968
C60	C	1.540043	-0.329984	-0.972993
C61	C	1.540021	-0.330010	-0.863261
C62	C	1.701533	-0.431113	-0.836101
C63	C	1.701558	-0.431082	-0.945831
C64	C	1.477437	-0.236835	-0.738345
C65	C	1.396658	-0.186307	-0.697058
C66	C	1.290895	-0.174157	-0.735930
C67	C	1.265893	-0.212546	-0.816084
C68	C	1.346668	-0.263080	-0.857364
C69	C	1.452442	-0.275215	-0.818497
C70	C	1.764131	-0.524259	-1.070750
C71	C	1.844903	-0.574797	-1.112031
C72	C	1.950670	-0.586955	-1.073158
C73	C	1.975672	-0.548580	-0.992997
C74	C	1.894901	-0.498042	-0.951716
C75	C	1.789134	-0.485882	-0.990596
C76	C	1.620685	-0.380708	-0.130999
C77	C	1.620807	-0.380519	-0.014274
H78	H	1.171041	-0.584933	-0.463262
O79	O	1.673999	-1.085596	-0.351003
C80	C	1.681573	-1.167306	-0.343432
H81	H	1.650167	-1.178571	-0.421461
H82	H	1.631970	-1.190780	-0.274769
C83	C	1.837851	-1.195799	-0.226674
C84	C	1.799286	-1.209636	-0.322514
H85	H	1.910461	-1.221911	-0.213766
H86	H	1.832747	-1.140750	-0.231771
H87	H	1.796505	-1.215361	-0.169465
H88	H	1.840624	-1.190066	-0.379722
H89	H	1.804400	-1.264683	-0.317427
H90	H	1.474293	-0.288809	-1.028717
O91	O	1.322217	-0.300279	-0.935253
C92	C	1.211537	-0.278742	-0.960690
H93	H	1.178373	-0.219783	-0.937313
H94	H	1.169531	-0.325796	-0.915046
C95	C	1.232909	-0.343710	-1.110426
C96	C	1.192179	-0.271293	-1.081721
H97	H	1.220966	-0.339119	-1.185082
H98	H	1.307476	-0.358224	-1.093287
H99	H	1.197900	-0.382915	-1.072380
H100	H	1.227197	-0.232092	-1.119756
H101	H	1.117617	-0.256773	-1.098869
O102	O	1.580226	-0.248555	-0.700754
C103	C	1.645247	-0.224778	-0.785367
H104	H	1.593855	-0.180477	-0.851635
H105	H	1.685645	-0.278409	-0.818112
C106	C	1.794245	-0.240614	-0.662656
C107	C	1.731126	-0.186198	-0.744042
H108	H	1.847223	-0.216820	-0.637165
H109	H	1.750441	-0.256636	-0.605650
H110	H	1.827900	-0.285303	-0.689954
H111	H	1.697462	-0.141516	-0.716740
H112	H	1.774926	-0.170168	-0.801043
O113	O	1.842315	-0.961739	-0.182865
C114	C	1.849889	-1.043449	-0.175294
H115	H	1.818482	-1.054714	-0.253323
H116	H	1.800285	-1.066923	-0.106630
C117	C	2.006167	-1.071942	-0.058536
C118	C	1.967601	-1.085779	-0.154376
H119	H	2.078776	-1.098054	-0.045628
H120	H	2.001062	-1.016893	-0.063633
H121	H	1.964820	-1.091504	-0.001327
H122	H	2.008939	-1.066209	-0.211584
H123	H	1.972715	-1.140826	-0.149288
H124	H	1.824538	-0.606043	-1.177303
H125	H	1.728227	-1.030032	-0.296788
H126	H	1.225124	-0.133015	-0.702307
H127	H	1.417787	-1.079024	-0.606819
H128	H	1.513069	-0.730535	-0.511430
O129	O	1.137333	-0.072502	-0.248551
C130	C	1.125032	-0.032034	-0.355959
H131	H	1.131829	-0.076420	-0.410908
H132	H	1.190115	0.004180	-0.374129
C133	C	1.006147	0.077724	-0.307023
C134	C	1.014486	0.023209	-0.374512
H135	H	0.937960	0.111803	-0.318468
H136	H	1.014437	0.050462	-0.234660
H137	H	1.060389	0.107895	-0.322172
H138	H	0.960253	-0.006968	-0.359353
H139	H	1.006184	0.050467	-0.446874
O140	O	1.056150	-0.172357	-0.353964
C141	C	1.072269	-0.177219	-0.461974
H142	H	1.147764	-0.222700	-0.467702
H143	H	1.081393	-0.117221	-0.509545
C144	C	0.882847	-0.146277	-0.500924
C145	C	0.975566	-0.202143	-0.507958
H146	H	0.823195	-0.161648	-0.529292
H147	H	0.871986	-0.142998	-0.428157
H148	H	0.890465	-0.096283	-0.540566
H149	H	0.967953	-0.252133	-0.468306
H150	H	0.986424	-0.205431	-0.580720
O151	O	1.365052	-0.922901	-0.659322
C152	C	1.320327	-0.977036	-0.704073
H153	H	1.332553	-1.035897	-0.645237
H154	H	1.361125	-0.985762	-0.781548
C155	C	1.184826	-0.872576	-0.800041
C156	C	1.199835	-0.944868	-0.727774
H157	H	1.110502	-0.852733	-0.814666
H158	H	1.214961	-0.836103	-0.769895
H159	H	1.218832	-0.879857	-0.864596
H160	H	1.165841	-0.937584	-0.663216
H161	H	1.169691	-0.981339	-0.757909
O162	O	1.329883	-0.124899	-0.133499
C163	C	1.428060	-0.164856	-0.081038
H164	H	1.464172	-0.215591	-0.121505
H165	H	1.414094	-0.189083	0.006282
C166	C	1.461035	-0.044931	-0.037319
C167	C	1.505393	-0.107239	-0.087028
H168	H	1.508737	-0.009390	-0.041009
H169	H	1.394890	-0.018011	-0.072660
H170	H	1.449398	-0.065129	0.035443
H171	H	1.517017	-0.087041	-0.159792
H172	H	1.571543	-0.134154	-0.051700
O173	O	1.919376	-0.460795	-0.873884
C174	C	2.030046	-0.482377	-0.848400
H175	H	2.073716	-0.503150	-0.918774
H176	H	2.045411	-0.532109	-0.774936
C177	C	2.017551	-0.385199	-0.738304
C178	C	2.071189	-0.410706	-0.824742
H179	H	2.042931	-0.340991	-0.723705
H180	H	1.942990	-0.370660	-0.755469
H181	H	2.030361	-0.426649	-0.677093
H182	H	2.058368	-0.369261	-0.885953
H183	H	2.145749	-0.425237	-0.807586
O184	O	1.359583	-0.376648	-0.229483
C185	C	1.454551	-0.389202	-0.166620
H186	H	1.445092	-0.345714	-0.110238
H187	H	1.523885	-0.380028	-0.220881
C188	C	1.489023	-0.527464	-0.170069
C189	C	1.477402	-0.474056	-0.100812
H190	H	1.503123	-0.579807	-0.129478
H191	H	1.425043	-0.519006	-0.212424
H192	H	1.546800	-0.519809	-0.215281
H193	H	1.419618	-0.481705	-0.055611
H194	H	1.541373	-0.482517	-0.058448
H195	H	1.425433	-0.272716	-0.133321
O196	O	2.029255	-0.636052	-1.113105
C197	C	2.127973	-0.638531	-1.061624
H198	H	2.113191	-0.621073	-0.980634
H199	H	2.172634	-0.595701	-1.113029
C200	C	2.213601	-0.744121	-1.144826
C201	C	2.195446	-0.722685	-1.045348
H202	H	2.255225	-0.796029	-1.134790
H203	H	2.147094	-0.742449	-1.179513
H204	H	2.250814	-0.708422	-1.187653
H205	H	2.158222	-0.758377	-1.002528
H206	H	2.261949	-0.724365	-1.010653
H207	H	1.417025	-0.155051	-0.631795
O208	O	1.163101	-0.200634	-0.853750
C209	C	1.097164	-0.147817	-0.800108
H210	H	1.147580	-0.110545	-0.766831
H211	H	1.057827	-0.182487	-0.731654
C212	C	0.948250	-0.139413	-0.919808
C213	C	1.010171	-0.093631	-0.878945
H214	H	0.894585	-0.105991	-0.968436
H215	H	0.992671	-0.175000	-0.955945
H216	H	0.915480	-0.168302	-0.862754
H217	H	1.042950	-0.064751	-0.935997
H218	H	0.965753	-0.058038	-0.842819
O219	O	1.876314	-0.837701	-0.148995
C220	C	1.975573	-0.817486	-0.177488
H221	H	1.961589	-0.757534	-0.233971
H222	H	2.023429	-0.863904	-0.219072
C223	C	2.055416	-0.887317	-0.006766
C224	C	2.038241	-0.813681	-0.076132
H225	H	2.094076	-0.884974	0.055754
H226	H	1.988545	-0.900940	0.012430
H227	H	2.095293	-0.925992	-0.041432
H228	H	1.998354	-0.775010	-0.041471
H229	H	2.105108	-0.800052	-0.095320
H230	H	1.245464	-0.472514	-0.501004
H231	H	1.096222	-0.676768	-0.560303
O232	O	0.912925	-0.636639	-0.674471
C233	C	0.985919	-0.660674	-0.750255
H234	H	1.069473	-0.654673	-0.726096
H235	H	0.961175	-0.621980	-0.832303
C236	C	0.883587	-0.754675	-0.784512
C237	C	0.986211	-0.747311	-0.754835
H238	H	0.883764	-0.808115	-0.787342
H239	H	0.834407	-0.738480	-0.733458
H240	H	0.862979	-0.722425	-0.852882
H241	H	1.006812	-0.779552	-0.686460
H242	H	1.035395	-0.763513	-0.805878
H243	H	0.817030	-0.488683	-0.674643
H244	H	0.891842	-0.396854	-0.577620
H245	H	0.996977	-0.288880	-0.306967
H246	H	1.579605	-0.681586	-0.444997
H247	H	1.767276	-0.472282	-0.780362
H248	H	1.411285	-0.805443	-0.613141
H249	H	1.823538	-0.681544	-0.201413
H250	H	2.061796	-0.558481	-0.961344
H251	H	1.678009	-0.514356	-1.102416
