data_functionalizedCrystal
_audit_creation_method	'MofGen! by Chris Wilmer'
_symmetry_space_group_name_H-M	'P1'
_symmetry_Int_Tables_number	1
_symmetry_cell_setting	triclinic
loop_
_symmetry_equiv_pos_as_xyz
  x,y,z
_cell_length_a	17.917603
_cell_length_b	12.970454
_cell_length_c	12.970454
_cell_angle_alpha	59.999702
_cell_angle_beta	89.999925
_cell_angle_gamma	57.011801
loop_
_atom_site_label
_atom_site_type_symbol
_atom_site_fract_x
_atom_site_fract_y
_atom_site_fract_z
Zr1	Zr	0.754913	1.033593	-0.087833
O2	O	0.629790	1.264415	-0.260324
O3	O	0.793269	0.813681	-0.034956
O4	O	0.793271	1.028771	-0.250046
O5	O	0.629789	1.049324	0.124434
O6	O	0.922228	1.012556	-0.241938
O7	O	0.629789	1.049325	-0.045234
O8	O	0.922225	0.627799	0.142819
O9	O	0.629792	1.434081	-0.260323
O10	O	0.905868	0.887992	-0.006353
O11	O	0.809628	0.900092	0.114217
O12	O	0.809630	1.153333	-0.139024
O13	O	0.713391	1.165433	-0.018454
Zr14	Zr	0.960584	1.007731	0.195698
Zr15	Zr	0.960585	1.007732	-0.074902
Zr16	Zr	0.754913	1.033591	0.182767
Zr17	Zr	0.754915	1.304190	-0.087832
Zr18	Zr	0.960583	0.737134	0.195697
O19	O	0.922229	1.227643	0.142821
O20	O	0.922229	1.227645	-0.241938
O21	O	0.629790	1.264413	0.124434
O22	O	1.085707	0.776909	0.368188
O23	O	1.085708	0.776911	-0.016570
O24	O	0.793268	0.813679	0.349802
O25	O	1.085709	0.992000	-0.016569
O26	O	0.922227	1.012553	0.357911
O27	O	0.793270	1.028768	0.349803
O28	O	1.085709	0.991999	0.153098
O29	O	0.793273	1.413525	-0.250045
O30	O	0.922224	0.627798	0.357909
O31	O	1.085706	0.607243	0.368188
O32	O	1.085706	0.607244	0.153097
O33	O	0.629791	1.434080	-0.045232
O34	O	0.793273	1.413524	-0.034954
O35	O	0.905867	0.887991	0.246889
O36	O	1.002107	0.875891	0.126318
O37	O	0.905869	1.141231	-0.006352
O38	O	0.809630	1.153332	0.114218
C39	C	0.600485	1.053009	0.037758
C40	C	0.513172	1.063987	0.032268
C41	C	0.857748	1.020660	0.392412
C42	C	0.857748	1.020659	0.507288
C43	C	0.857751	1.359138	0.053934
C44	C	0.857752	1.474014	0.053934
C45	C	0.353328	1.084041	0.022243
C46	C	0.362163	0.957289	0.085619
C47	C	0.273220	0.968447	0.080041
C48	C	0.442277	1.072886	0.027819
C49	C	1.115013	0.988315	0.070107
C50	C	1.202326	0.977336	0.075597
C51	C	0.857747	0.682186	0.053931
C52	C	0.857746	0.567310	0.053931
C53	C	0.857749	1.020664	-0.284547
C54	C	0.857749	1.020664	-0.399424
C55	C	1.115010	0.649838	0.070106
C56	C	1.202323	0.523984	0.075595
C57	C	0.857746	0.682184	0.392410
C58	C	0.857745	0.567308	0.507287
C59	C	1.115010	0.649837	0.408585
C60	C	1.202322	0.523982	0.528951
C61	C	0.600488	1.391487	-0.300721
C62	C	0.513175	1.517342	-0.421086
C63	C	0.600487	1.391485	0.037759
C64	C	0.513175	1.517339	0.032270
C65	C	0.857751	1.359140	-0.284546
C66	C	0.857752	1.474016	-0.399422
C67	C	1.193090	0.471199	0.008908
C68	C	1.275121	0.352961	0.014040
C69	C	1.366384	0.287504	0.085867
C70	C	1.375615	0.340301	0.152555
C71	C	1.293585	0.458544	0.147416
C72	C	1.293569	0.458562	0.522540
C73	C	1.375616	0.340322	0.635627
C74	C	1.366414	0.287497	0.755123
C75	C	1.275157	0.352929	0.761531
C76	C	1.193112	0.471174	0.648445
C77	C	0.421928	1.582775	-0.414676
C78	C	0.339881	1.701048	-0.527762
C79	C	0.349084	1.753879	-0.647259
C80	C	0.440341	1.688440	-0.653666
C81	C	0.522385	1.570176	-0.540581
C82	C	0.522408	1.570136	0.098945
C83	C	0.440377	1.688403	0.093783
C84	C	0.349113	1.753864	0.021953
C85	C	0.339882	1.701062	-0.044731
C86	C	0.421912	1.582805	-0.039576
H87	H	0.278972	1.200927	-0.036201
O88	O	1.302732	0.509573	0.212334
C89	C	1.400876	0.426456	0.276803
H90	H	1.444612	0.311569	0.292607
H91	H	1.425050	0.494205	0.216386
C92	C	1.362633	0.540443	0.388078
C93	C	1.416349	0.399331	0.407499
H94	H	1.372179	0.523717	0.468695
H95	H	1.296512	0.596446	0.344640
H96	H	1.382784	0.596886	0.337726
H97	H	1.396190	0.342899	0.457835
H98	H	1.482468	0.343318	0.450948
O99	O	1.464310	0.276517	0.629561
C100	C	1.514782	0.118929	0.691195
H101	H	1.483468	0.077070	0.762796
H102	H	1.507962	0.099184	0.616558
C103	C	1.659889	0.081417	0.674678
C104	C	1.621433	0.030003	0.762629
H105	H	1.725677	0.026562	0.718738
H106	H	1.625885	0.187588	0.633150
H107	H	1.654197	0.064960	0.612487
H108	H	1.627114	0.046478	0.824808
H109	H	1.655441	-0.076168	0.804169
H110	H	1.118786	0.524492	-0.049596
H111	H	0.596712	1.516847	0.157446
H112	H	1.267586	0.309990	-0.040267
H113	H	1.433171	0.191223	0.090042
O114	O	1.464343	0.276487	0.222316
C115	C	1.534754	0.160828	0.212521
H116	H	1.502760	0.117681	0.186151
H117	H	1.560420	0.209234	0.135004
C118	C	1.659512	0.080378	0.374544
C119	C	1.620219	0.027375	0.342166
H120	H	1.712233	-0.001941	0.454512
H121	H	1.612076	0.158303	0.381140
H122	H	1.680893	0.120716	0.309936
H123	H	1.598829	-0.012945	0.406765
H124	H	1.667654	-0.050561	0.335583
H125	H	0.282270	1.850177	-0.739330
O126	O	0.251276	1.764392	-0.114397
C127	C	0.240743	1.650545	-0.066424
H128	H	0.314589	1.533281	-0.013402
H129	H	0.201558	1.654025	0.002487
C130	C	0.091719	1.823913	-0.243853
C131	C	0.182417	1.679888	-0.178740
H132	H	0.055737	1.842016	-0.313133
H133	H	0.098812	1.900617	-0.276172
H134	H	0.059077	1.826795	-0.186415
H135	H	0.215062	1.677015	-0.236174
H136	H	0.175328	1.603184	-0.146434
H137	H	1.433228	0.191214	0.847195
O138	O	0.449443	1.739473	-0.769644
C139	C	0.547572	1.656258	-0.751073
H140	H	0.591353	1.606449	-0.652096
H141	H	0.571715	1.559345	-0.758194
C142	C	0.509240	1.824731	-0.976434
C143	C	0.563011	1.763566	-0.854873
H144	H	0.518763	1.890920	-1.040465
H145	H	0.443128	1.880792	-0.988948
H146	H	0.529364	1.743958	-0.982350
H147	H	0.542877	1.844337	-0.848953
H148	H	0.629120	1.707521	-0.842361
H149	H	1.267678	0.309901	0.858840
H150	H	0.596681	1.516901	-0.545816
H151	H	0.447912	1.731374	0.148091
O152	O	1.104548	0.534490	0.654912
C153	C	1.114032	0.462520	0.784636
H154	H	1.187250	0.343926	0.846782
H155	H	1.107304	0.534154	0.816017
C156	C	0.944647	0.592998	0.723670
C157	C	1.034571	0.447333	0.799998
H158	H	0.895630	0.583635	0.733147
H159	H	0.938256	0.641491	0.636272
H160	H	0.939054	0.652677	0.749829
H161	H	1.040167	0.387663	0.773827
H162	H	1.040961	0.398830	0.887392
O163	O	0.413107	1.531370	-0.104299
C164	C	0.505071	1.412920	-0.084326
H165	H	0.559467	1.423787	-0.056586
H166	H	0.525961	1.297407	-0.003868
C167	C	0.437017	1.411545	-0.242738
C168	C	0.503826	1.424900	-0.208678
H169	H	0.436250	1.418928	-0.319441
H170	H	0.375059	1.491343	-0.256192
H171	H	0.454434	1.315284	-0.175679
H172	H	0.486402	1.521167	-0.275729
H173	H	0.565781	1.345118	-0.195238
H174	H	0.414417	1.539768	-0.317387
H175	H	0.282327	1.850156	0.017766
H176	H	0.436524	0.840394	0.144066
O177	O	0.251222	1.764822	-0.521586
C178	C	0.200748	1.922413	-0.583233
H179	H	0.253974	1.945275	-0.584873
H180	H	0.152052	1.990284	-0.685851
C181	C	0.074117	1.943912	-0.507721
C182	C	0.139491	1.971990	-0.509726
H183	H	0.036327	1.974497	-0.462384
H184	H	0.108120	1.837742	-0.466193
H185	H	0.033547	2.000473	-0.593241
H186	H	0.180067	1.915415	-0.424209
H187	H	0.105494	2.078153	-0.551239
H188	H	1.301081	0.501554	0.425251
