data_functionalizedCrystal
_audit_creation_method	'MofGen! by Chris Wilmer'
_symmetry_space_group_name_H-M	'P1'
_symmetry_Int_Tables_number	1
_symmetry_cell_setting	triclinic
loop_
_symmetry_equiv_pos_as_xyz
  x,y,z
_cell_length_a	14.971486
_cell_length_b	17.038272
_cell_length_c	13.448316
_cell_angle_alpha	89.993314
_cell_angle_beta	89.998199
_cell_angle_gamma	87.362843
loop_
_atom_site_label
_atom_site_type_symbol
_atom_site_fract_x
_atom_site_fract_y
_atom_site_fract_z
O1	O	1.194577	0.101898	-0.082578
O2	O	1.527910	0.435231	0.250755
O3	O	1.861243	0.768564	0.584089
O4	O	0.935090	0.114100	-0.082605
O5	O	1.268423	0.447433	0.250728
O6	O	1.601757	0.780767	0.584062
O7	O	1.063291	-0.005818	-0.082584
O8	O	1.396624	0.327515	0.250750
O9	O	1.729958	0.660848	0.584083
O10	O	1.066375	0.221816	-0.082599
O11	O	1.399709	0.555149	0.250734
O12	O	1.733042	0.888483	0.584068
O13	O	1.063273	-0.005826	0.082800
O14	O	1.396607	0.327508	0.416133
O15	O	1.729940	0.660841	0.749467
O16	O	0.935072	0.114093	0.082779
O17	O	1.268406	0.447426	0.416112
O18	O	1.601739	0.780759	0.749445
O19	O	1.194559	0.101890	0.082806
O20	O	1.527892	0.435224	0.416139
O21	O	1.861225	0.768557	0.749473
Cu22	Cu	1.064814	0.107991	0.097893
Cu23	Cu	1.398147	0.441324	0.431227
Cu24	Cu	1.731481	0.774657	0.764560
Cu25	Cu	1.064835	0.107999	-0.097692
Cu26	Cu	1.398168	0.441333	0.235641
Cu27	Cu	1.731502	0.774666	0.568974
O28	O	1.066358	0.221809	0.082785
O29	O	1.399691	0.555142	0.416118
O30	O	1.733024	0.888475	0.749451
C31	C	0.901716	0.113551	0.000083
C32	C	1.235049	0.446884	0.333417
C33	C	1.568382	0.780217	0.666750
C34	C	0.802296	0.111915	0.000073
C35	C	1.135629	0.445249	0.333407
C36	C	1.468963	0.778582	0.666740
C37	C	1.060477	-0.034954	0.000108
C38	C	1.393810	0.298380	0.333441
C39	C	1.727144	0.631713	0.666774
C40	C	1.052107	-0.121756	0.000107
C41	C	1.385440	0.211577	0.333440
C42	C	1.718774	0.544910	0.666773
C43	C	0.750345	0.182364	0.000070
C44	C	1.083679	0.515697	0.333403
C45	C	1.417012	0.849031	0.666737
C46	C	0.656930	0.180823	0.000085
C47	C	0.990264	0.514156	0.333418
C48	C	1.323597	0.847489	0.666752
C49	C	0.615468	0.108832	0.000096
C50	C	0.948801	0.442165	0.333429
C51	C	1.282135	0.775499	0.666763
C52	C	0.667426	0.038378	0.000102
C53	C	1.000759	0.371711	0.333436
C54	C	1.334092	0.705044	0.666769
C55	C	0.760839	0.039920	0.000095
C56	C	1.094172	0.373253	0.333428
C57	C	1.427506	0.706586	0.666761
C58	C	0.472723	0.035169	0.000116
C59	C	0.806056	0.368502	0.333450
C60	C	1.139390	0.701835	0.666783
C61	C	0.379303	0.033626	0.000122
C62	C	0.712637	0.366959	0.333456
C63	C	1.045970	0.700293	0.666789
C64	C	0.368815	0.176072	0.000107
C65	C	0.702148	0.509405	0.333440
C66	C	1.035481	0.842738	0.666773
C67	C	0.462228	0.177614	0.000099
C68	C	0.795561	0.510947	0.333432
C69	C	1.128894	0.844280	0.666765
C70	C	0.514179	0.107159	0.000103
C71	C	0.847512	0.440492	0.333437
C72	C	1.180846	0.773826	0.666770
C73	C	1.128951	-0.171781	0.000116
C74	C	1.462284	0.161552	0.333449
C75	C	1.795618	0.494886	0.666782
C76	C	1.121081	-0.253341	0.000105
C77	C	1.454415	0.079993	0.333439
C78	C	1.787748	0.413326	0.666772
C79	C	1.036367	-0.284874	0.000093
C80	C	1.369701	0.048459	0.333427
C81	C	1.703034	0.381793	0.666760
C82	C	0.959518	-0.234843	0.000081
C83	C	1.292851	0.098490	0.333414
C84	C	1.626184	0.431824	0.666748
C85	C	0.967388	-0.153285	0.000084
C86	C	1.300721	0.180049	0.333418
C87	C	1.634055	0.513382	0.666751
C88	C	1.008563	-0.530664	0.000077
C89	C	1.341896	-0.197331	0.333410
C90	C	1.675229	0.136002	0.666743
C91	C	1.000698	-0.612229	0.000077
C92	C	1.334031	-0.278896	0.333410
C93	C	1.667364	0.054438	0.666743
C94	C	1.162262	-0.630721	0.000099
C95	C	1.495596	-0.297388	0.333432
C96	C	1.828929	0.035946	0.666766
C97	C	1.170125	-0.549161	0.000108
C98	C	1.503459	-0.215827	0.333441
C99	C	1.836792	0.117506	0.666775
C100	C	1.093276	-0.499137	0.000091
C101	C	1.426609	-0.165803	0.333424
C102	C	1.759942	0.167530	0.666757
C103	C	1.028321	-0.368241	0.000086
C104	C	1.361655	-0.034908	0.333419
C105	C	1.694988	0.298426	0.666753
C106	C	1.101323	-0.415771	0.000091
C107	C	1.434656	-0.082438	0.333424
C108	C	1.767989	0.250895	0.666758
C109	C	1.227933	0.102440	0.000115
C110	C	1.561267	0.435773	0.333449
C111	C	1.894600	0.769106	0.666782
C112	C	1.327353	0.104075	0.000119
C113	C	1.660686	0.437408	0.333452
C114	C	1.994019	0.770742	0.666786
C115	C	1.069172	0.250944	0.000091
C116	C	1.402505	0.584277	0.333424
C117	C	1.735839	0.917610	0.666758
C118	C	1.077542	0.337746	0.000086
C119	C	1.410875	0.671080	0.333419
C120	C	1.744208	1.004413	0.666752
N121	N	1.064806	0.107984	0.235458
N122	N	1.398139	0.441317	0.568791
N123	N	1.731472	0.774651	0.902124
N124	N	1.064850	0.108000	-0.235257
N125	N	1.398183	0.441333	0.098077
N126	N	1.731517	0.774667	0.431410
C127	C	1.121593	0.054906	0.287507
C128	C	1.454927	0.388239	0.620841
C129	C	1.788260	0.721573	0.954174
C130	C	1.121599	0.054905	0.391611
C131	C	1.454932	0.388239	0.724944
C132	C	1.788266	0.721572	1.058277
C133	C	1.064821	0.107987	0.443662
C134	C	1.398154	0.441320	0.776995
C135	C	1.731487	0.774654	1.110329
C136	C	1.008026	0.161068	0.391605
C137	C	1.341360	0.494401	0.724938
C138	C	1.674693	0.827734	1.058272
C139	C	1.008017	0.161064	0.287504
C140	C	1.341350	0.494397	0.620837
C141	C	1.674683	0.827731	0.954170
C142	C	1.008052	0.161073	0.608585
C143	C	1.341385	0.494406	0.941918
C144	C	1.674718	0.827740	1.275252
C145	C	1.008062	0.161078	0.712694
C146	C	1.341395	0.494411	1.046027
C147	C	1.674729	0.827745	1.379360
C148	C	1.121634	0.054914	0.712692
C149	C	1.454967	0.388248	1.046025
C150	C	1.788300	0.721581	1.379359
C151	C	1.121624	0.054911	0.608591
C152	C	1.454958	0.388244	0.941924
C153	C	1.788291	0.721577	1.275257
C154	C	1.064831	0.107992	0.556541
C155	C	1.398164	0.441326	0.889874
C156	C	1.731498	0.774659	1.223207
H157	H	0.784097	0.240987	0.000060
H158	H	1.117430	0.574321	0.333393
H159	H	1.450763	0.907654	0.666727
H160	H	0.961773	0.204284	0.245126
H161	H	1.295107	0.537618	0.578459
H162	H	1.628440	0.870951	0.911792
H163	H	0.633660	-0.020239	0.000126
H164	H	0.966993	0.313095	0.333459
H165	H	1.300326	0.646428	0.666792
H166	H	0.326511	0.233438	0.000107
H167	H	0.659845	0.566772	0.333441
H168	H	0.993178	0.900105	0.666774
H169	H	1.239108	-0.523493	0.000118
H170	H	1.572442	-0.190159	0.333452
H171	H	1.905775	0.143174	0.666785
H172	H	0.803137	-0.017447	0.000097
H173	H	1.136470	0.315886	0.333430
H174	H	1.469803	0.649220	0.666763
H175	H	0.345548	-0.024995	0.000133
H176	H	0.678881	0.308338	0.333466
H177	H	1.012214	0.641672	0.666799
H178	H	1.167862	0.011692	0.566210
H179	H	1.501195	0.345025	0.899544
H180	H	1.834529	0.678358	1.232877
H181	H	0.614636	0.238189	0.000081
H182	H	0.947969	0.571523	0.333414
H183	H	1.281302	0.904856	0.666748
H184	H	0.495983	0.236235	0.000080
H185	H	0.829317	0.569568	0.333414
H186	H	1.162650	0.902901	0.666747
Cl187	Cl	1.217690	-0.316226	0.000120
Cl188	Cl	1.551024	0.017107	0.333453
Cl189	Cl	1.884357	0.350441	0.666786
H190	H	0.515019	-0.022203	0.000121
H191	H	0.848353	0.311130	0.333455
H192	H	1.181686	0.644463	0.666788
Cl193	Cl	1.235454	-0.132148	0.000141
Cl194	Cl	1.568788	0.201186	0.333475
Cl195	Cl	1.902121	0.534519	0.666808
H196	H	1.224829	-0.671459	0.000111
H197	H	1.558162	-0.338126	0.333444
H198	H	1.891495	-0.004792	0.666778
H199	H	0.961801	0.204295	0.566210
H200	H	1.295134	0.537629	0.899543
H201	H	1.628468	0.870962	1.232876
Cl202	Cl	0.911950	-0.467788	0.000052
Cl203	Cl	1.245284	-0.134454	0.333386
Cl204	Cl	1.578617	0.198879	0.666719
H205	H	0.961791	0.204285	0.433991
H206	H	1.295125	0.537619	0.767325
H207	H	1.628458	0.870952	1.100658
H208	H	1.167833	0.011684	0.245134
H209	H	1.501166	0.345017	0.578467
H210	H	1.834500	0.678351	0.911800
Cl211	Cl	1.193031	-0.011814	0.778129
Cl212	Cl	1.526364	0.321519	1.111463
Cl213	Cl	1.859698	0.654852	1.444796
H214	H	1.167839	0.011685	0.433989
H215	H	1.501173	0.345018	0.767322
H216	H	1.834506	0.678352	1.100656
H217	H	0.931710	-0.637900	0.000083
H218	H	1.265043	-0.304566	0.333416
H219	H	1.598377	0.028767	0.666749
H220	H	0.890541	-0.260524	0.000065
H221	H	1.223875	0.072810	0.333398
H222	H	1.557208	0.406143	0.666732
H223	H	0.904813	-0.112555	0.000077
H224	H	1.238147	0.220779	0.333410
H225	H	1.571480	0.554112	0.666743
Cl226	Cl	0.936677	0.227811	0.778122
Cl227	Cl	1.270011	0.561144	1.111455
Cl228	Cl	1.603344	0.894477	1.444789
H229	H	1.170296	-0.390093	0.000079
H230	H	1.503630	-0.056760	0.333412
H231	H	1.836963	0.276573	0.666746
Cl232	Cl	0.921826	-0.407890	0.000065
Cl233	Cl	1.255160	-0.074557	0.333399
Cl234	Cl	1.588493	0.258777	0.666732
