data_functionalizedCrystal
_audit_creation_method	'MofGen! by Chris Wilmer'
_symmetry_space_group_name_H-M	'P1'
_symmetry_Int_Tables_number	1
_symmetry_cell_setting	triclinic
loop_
_symmetry_equiv_pos_as_xyz
  x,y,z
_cell_length_a	13.339070
_cell_length_b	10.268362
_cell_length_c	13.339070
_cell_angle_alpha	90.001449
_cell_angle_beta	64.370706
_cell_angle_gamma	90.005765
loop_
_atom_site_label
_atom_site_type_symbol
_atom_site_fract_x
_atom_site_fract_y
_atom_site_fract_z
O1	O	1.496806	0.108334	-0.550521
O2	O	1.181997	0.108328	-0.478261
O3	O	1.303272	0.108327	-0.356987
O4	O	1.375532	0.108336	-0.671796
O5	O	1.303257	-0.108274	-0.356988
O6	O	1.181982	-0.108272	-0.478263
O7	O	1.496792	-0.108266	-0.550522
Cu8	Cu	1.339386	-0.128047	-0.514393
Cu9	Cu	1.339403	0.128109	-0.514391
O10	O	1.375517	-0.108265	-0.671797
C11	C	1.140874	0.000027	-0.466056
C12	C	1.018360	0.000025	-0.429672
N13	N	1.339381	-0.308213	-0.514395
C14	C	0.732973	0.000054	-0.712571
C15	C	0.848081	0.000060	-0.746759
C16	C	0.890657	0.000051	-0.667490
C17	C	0.818112	0.000036	-0.554028
C18	C	0.702992	0.000040	-0.519837
C19	C	0.860676	0.000037	-0.474756
C20	C	0.788132	0.000023	-0.361294
C21	C	0.673023	0.000026	-0.327109
C22	C	0.630448	0.000035	-0.406377
C23	C	0.975796	0.000033	-0.508947
C24	C	0.945816	0.000020	-0.316213
C25	C	0.830707	0.000013	-0.282025
C26	C	1.339390	-0.426055	-0.514398
C27	C	1.339401	-0.573893	-0.514392
C28	C	1.537914	0.000038	-0.562728
C29	C	1.660428	0.000049	-0.599111
C30	C	1.291058	0.000028	-0.315872
C31	C	1.254675	0.000033	-0.193358
N32	N	1.339413	0.308275	-0.514382
C33	C	1.387730	0.000037	-0.712912
C34	C	1.424114	0.000041	-0.835426
C35	C	1.537574	0.000037	0.092030
C36	C	1.571761	0.000026	-0.023079
C37	C	1.492492	0.000028	-0.065654
C38	C	1.379030	0.000041	0.006890
C39	C	1.344839	0.000042	0.122010
C40	C	1.299758	0.000033	-0.035674
C41	C	1.186296	0.000046	0.036871
C42	C	1.152111	0.000048	0.151979
C43	C	1.231380	0.000046	0.194555
C44	C	1.333949	0.000031	-0.150794
C45	C	1.141215	0.000036	-0.120813
C46	C	1.107028	0.000048	-0.005705
H47	H	0.984385	0.000059	-0.695333
H48	H	0.536718	0.000029	-0.378547
H49	H	1.034852	0.000040	-0.601328
H50	H	1.602102	0.000025	0.126707
H51	H	0.613959	0.000028	-0.234721
H52	H	0.771625	0.000012	-0.189642
H53	H	1.014645	0.000058	0.053377
H54	H	1.203550	0.000060	0.288284
H55	H	1.520335	0.000018	-0.159382
H56	H	1.059723	0.000049	0.211043
H57	H	0.980479	0.000018	-0.251665
H58	H	1.426331	0.000020	-0.209849
H59	H	0.907140	0.000082	-0.839139
H60	H	1.664142	0.000013	-0.082137
H61	H	0.698296	0.000072	-0.777099
H62	H	1.076667	0.000031	-0.155477
