data_functionalizedCrystal
_audit_creation_method	'MofGen! by Chris Wilmer'
_symmetry_space_group_name_H-M	'P1'
_symmetry_Int_Tables_number	1
_symmetry_cell_setting	triclinic
loop_
_symmetry_equiv_pos_as_xyz
  x,y,z
_cell_length_a	12.759401
_cell_length_b	16.120484
_cell_length_c	12.759393
_cell_angle_alpha	92.864008
_cell_angle_beta	89.979062
_cell_angle_gamma	92.926992
loop_
_atom_site_label
_atom_site_type_symbol
_atom_site_fract_x
_atom_site_fract_y
_atom_site_fract_z
Zn1	Zn	1.584985	-0.331832	-0.615183
Zn2	Zn	1.575933	-0.471268	-0.448395
Zn3	Zn	1.409280	-0.331877	-0.439521
Zn4	Zn	1.400336	-0.471209	-0.624029
O5	O	1.492634	-0.401546	-0.531782
O6	O	1.730804	-0.350334	-0.593070
O7	O	1.553781	-0.452820	-0.300200
O8	O	1.440119	-0.215205	-0.455406
O9	O	1.724154	-0.452777	-0.470532
O10	O	1.569208	-0.215173	-0.584465
O11	O	1.431342	-0.350410	-0.293680
O12	O	1.261073	-0.350354	-0.463984
O13	O	1.424875	-0.452678	-0.769874
O14	O	1.254502	-0.452721	-0.599541
O15	O	1.560535	-0.350278	-0.763375
O16	O	1.545108	-0.587925	-0.479110
O17	O	1.416098	-0.587883	-0.608147
C18	C	1.219667	-0.401536	-0.531760
C19	C	1.102889	-0.401552	-0.531777
C20	C	1.044628	-0.454936	-0.602261
C21	C	0.934904	-0.454939	-0.602282
C22	C	0.941712	-0.348172	-0.461326
C23	C	1.051434	-0.348166	-0.461311
C24	C	1.478679	-0.618154	-0.545574
C25	C	1.472805	-0.710820	-0.551509
C26	C	1.462088	-0.880481	-0.562368
C27	C	1.523367	-0.921772	-0.501213
C28	C	1.517404	-1.016177	-0.507255
C29	C	1.468050	-0.786067	-0.556327
C30	C	1.766666	-0.401557	-0.531804
C31	C	1.883442	-0.401562	-0.531814
C32	C	1.492717	-0.401466	-0.805810
C33	C	1.492753	-0.401432	-0.922585
C34	C	1.506671	-0.184093	-0.517959
C35	C	1.512653	-0.091427	-0.512068
C36	C	1.563397	-0.348104	-0.974064
C37	C	1.563417	-0.348068	-1.083786
C38	C	1.422146	-0.454696	-1.090540
C39	C	1.422122	-0.454727	-0.980820
C40	C	1.492614	-0.401566	-0.258816
C41	C	1.492797	-0.401365	-0.142027
H42	H	1.086519	-0.498404	-0.659642
O43	O	1.353391	-0.506415	-0.930753
C44	C	1.288605	-0.458963	-0.864239
H45	H	1.286362	-0.393292	-0.893134
H46	H	1.321258	-0.456113	-0.780908
C47	C	1.179510	-0.580344	-0.829630
C48	C	1.176748	-0.499688	-0.865124
H49	H	1.110512	-0.605467	-0.830170
H50	H	1.223159	-0.612315	-0.874438
H51	H	1.206726	-0.577959	-0.760190
H52	H	1.149545	-0.502076	-0.934566
H53	H	1.133091	-0.467719	-0.820327
O54	O	1.353644	-0.506440	-1.147273
C55	C	1.368795	-0.494966	-1.255154
H56	H	1.451642	-0.467663	-1.268418
H57	H	1.309353	-0.450556	-1.283459
C58	C	1.251977	-0.612837	-1.300553
C59	C	1.353734	-0.579310	-1.316845
H60	H	1.242682	-0.664863	-1.338608
H61	H	1.241765	-0.620567	-1.227872
H62	H	1.202453	-0.575821	-1.324140
H63	H	1.403255	-0.616321	-1.293245
H64	H	1.363954	-0.571588	-1.389524
H65	H	0.899804	-0.304708	-0.403953
O66	O	0.878466	-0.506876	-0.670787
C67	C	0.947416	-0.553975	-0.732994
H68	H	1.025423	-0.556816	-0.690121
H69	H	0.961091	-0.523523	-0.810910
C70	C	0.803076	-0.639234	-0.806264
C71	C	0.898883	-0.642728	-0.753603
H72	H	0.773138	-0.693980	-0.818981
H73	H	0.756623	-0.607501	-0.764358
H74	H	0.814485	-0.613853	-0.871188
H75	H	0.887471	-0.668099	-0.688674
H76	H	0.945334	-0.674468	-0.795499
O77	O	1.108144	-0.296422	-0.392792
C78	C	1.168508	-0.343821	-0.327830
H79	H	1.180889	-0.407036	-0.368776
H80	H	1.125602	-0.352907	-0.250535
C81	C	1.260475	-0.220285	-0.255684
C82	C	1.275689	-0.297925	-0.305978
H83	H	1.326588	-0.191974	-0.242199
H84	H	1.219805	-0.188351	-0.299447
H85	H	1.224717	-0.227868	-0.191277
H86	H	1.311435	-0.290341	-0.370389
H87	H	1.316368	-0.329857	-0.262225
H88	H	1.580308	-0.886221	-0.444319
H89	H	1.405150	-0.916029	-0.619256
H90	H	1.620907	-0.304706	-0.926651
H91	H	1.620941	-0.304642	-1.125695
