data_functionalizedCrystal
_audit_creation_method	'MofGen! by Chris Wilmer'
_symmetry_space_group_name_H-M	'P1'
_symmetry_Int_Tables_number	1
_symmetry_cell_setting	triclinic
loop_
_symmetry_equiv_pos_as_xyz
  x,y,z
_cell_length_a	19.188928
_cell_length_b	17.666332
_cell_length_c	19.188930
_cell_angle_alpha	90.010342
_cell_angle_beta	96.855705
_cell_angle_gamma	89.974047
loop_
_atom_site_label
_atom_site_type_symbol
_atom_site_fract_x
_atom_site_fract_y
_atom_site_fract_z
O1	O	-0.926151	0.063250	0.087160
O2	O	-0.722839	0.063188	0.098896
O3	O	-0.830362	0.063206	-0.008628
O4	O	-0.818628	0.063232	0.194683
O5	O	-0.830343	-0.062691	-0.008631
O6	O	-0.722820	-0.062709	0.098893
O7	O	-0.926132	-0.062647	0.087157
Cu8	Cu	-0.824474	-0.074173	0.093024
Cu9	Cu	-0.824497	0.074714	0.093028
O10	O	-0.818609	-0.062665	0.194680
C11	C	-0.696819	0.000232	0.098514
C12	C	-0.619314	0.000207	0.097374
N13	N	-0.824464	-0.178893	0.093021
C14	C	-0.574390	0.000225	0.160465
C15	C	-0.501566	0.000229	0.159394
C16	C	-0.473670	0.000231	0.095229
C17	C	-0.518603	0.000209	0.032129
C18	C	-0.591426	0.000197	0.033202
N19	N	-0.365696	0.043098	0.046184
N20	N	-0.296517	0.043110	0.045169
C21	C	-0.254261	0.000265	0.091992
N22	N	-0.283795	-0.042584	0.139880
N23	N	-0.352980	-0.042593	0.140897
C24	C	-0.394707	0.000244	0.094058
C25	C	-0.130372	0.000287	0.153927
C26	C	-0.057547	0.000286	0.152853
C27	C	-0.074586	0.000274	0.025586
C28	C	-0.147409	0.000266	0.026661
C29	C	-0.175298	0.000276	0.090834
C30	C	0.047848	0.000298	0.087540
C31	C	-0.029656	0.000287	0.088686
C32	C	-0.866673	-0.218477	0.135266
C33	C	-0.866684	-0.297724	0.135264
C34	C	-0.824473	-0.337385	0.093025
C35	C	-0.782261	-0.297791	0.050772
C36	C	-0.782257	-0.218545	0.050770
N37	N	-0.763325	-0.461844	0.091306
N38	N	-0.763331	-0.537124	0.091312
C39	C	-0.824486	-0.576149	0.093028
N40	N	-0.885635	-0.537049	0.094751
N41	N	-0.885628	-0.461762	0.094749
C42	C	-0.824474	-0.423314	0.093022
C43	C	-0.866711	-0.701662	0.135273
C44	C	-0.866723	-0.780911	0.135266
C45	C	-0.782294	-0.780977	0.050777
C46	C	-0.782288	-0.701729	0.050780
C47	C	-0.824495	-0.662077	0.093032
C48	C	-0.829973	0.000255	-0.034641
C49	C	-0.828832	0.000248	-0.112145
N50	N	-0.824513	0.179434	0.093025
C51	C	-0.891923	0.000264	-0.157070
C52	C	-0.890851	0.000276	-0.229893
C53	C	-0.826685	0.000257	-0.257789
C54	C	-0.763586	0.000245	-0.212855
C55	C	-0.764659	0.000241	-0.140033
N56	N	-0.777631	-0.042603	-0.365795
N57	N	-0.776616	-0.042601	-0.434974
C58	C	-0.823447	0.000271	-0.477198
N59	N	-0.871342	0.043131	-0.447632
N60	N	-0.872360	0.043125	-0.378447
C61	C	-0.825514	0.000262	-0.336752
C62	C	-0.885380	0.000300	-0.601087
C63	C	-0.884306	0.000317	-0.673912
C64	C	-0.757039	0.000279	-0.656872
C65	C	-0.758115	0.000270	-0.584049
C66	C	-0.822287	0.000277	-0.556161
C67	C	-0.818998	0.000287	0.220693
C68	C	-0.820139	0.000299	0.298197
H69	H	-0.597092	0.000235	0.212720
Cl70	Cl	-0.647905	0.000176	-0.046120
H71	H	-0.020970	0.000296	0.204232
H72	H	-0.153080	0.000284	0.206180
H73	H	-0.713281	0.000228	-0.103455
H74	H	-0.747914	-0.669499	0.016382
H75	H	-0.747894	-0.330088	0.016380
H76	H	-0.495885	0.000221	-0.020115
Cl77	Cl	-0.729185	-0.168780	-0.002339
H78	H	-0.901044	-0.186197	0.169668
Cl79	Cl	-0.972597	0.000294	-0.122014
H80	H	-0.901079	-0.669376	0.169676
Cl81	Cl	-0.919795	-0.830675	0.188375
Cl82	Cl	-0.970172	0.000296	-0.286380
Cl83	Cl	-0.729237	-0.830828	-0.002332
Cl84	Cl	-0.682920	0.000228	-0.247923
H85	H	-0.464982	0.000242	0.210773
Cl86	Cl	-0.966053	0.000305	-0.566024
Cl87	Cl	-0.039523	0.000267	-0.055081
Cl88	Cl	-0.963628	0.000341	-0.730390
Cl89	Cl	-0.919751	-0.347498	0.188376
Cl90	Cl	-0.678796	0.000247	-0.527569
H91	H	-0.704793	0.000267	-0.679584
H92	H	-0.183988	0.000256	-0.024715
