data_functionalizedCrystal
_audit_creation_method	'MofGen! by Chris Wilmer'
_symmetry_space_group_name_H-M	'P1'
_symmetry_Int_Tables_number	1
_symmetry_cell_setting	triclinic
loop_
_symmetry_equiv_pos_as_xyz
  x,y,z
_cell_length_a	10.686220
_cell_length_b	13.897448
_cell_length_c	13.897449
_cell_angle_alpha	90.010270
_cell_angle_beta	85.637603
_cell_angle_gamma	94.399460
loop_
_atom_site_label
_atom_site_type_symbol
_atom_site_fract_x
_atom_site_fract_y
_atom_site_fract_z
Zn1	Zn	1.928957	-0.270874	0.432425
Zn2	Zn	1.928873	-0.432144	0.271131
Zn3	Zn	1.717992	-0.283251	0.283497
Zn4	Zn	1.717914	-0.444525	0.444737
O5	O	1.823434	-0.357699	0.357948
O6	O	2.105523	-0.281906	0.400701
O7	O	1.900897	-0.412391	0.137790
O8	O	1.746045	-0.146624	0.303275
O9	O	2.105461	-0.400390	0.282200
O10	O	1.901040	-0.137531	0.412692
O11	O	1.745963	-0.303000	0.146875
O12	O	1.541405	-0.315006	0.315214
O13	O	1.745912	-0.421492	0.578085
O14	O	1.541347	-0.433493	0.433676
O15	O	1.900964	-0.293912	0.569040
O16	O	1.900821	-0.568772	0.294138
O17	O	1.745830	-0.577869	0.421686
C18	C	1.495591	-0.376937	0.377124
C19	C	1.355339	-0.385191	0.385350
C20	C	1.823342	-0.608318	0.357925
C21	C	1.823418	-0.715528	0.357941
C22	C	1.823550	-0.911815	0.357994
C23	C	1.823473	-0.802587	0.357968
C24	C	2.152557	-0.338386	0.338698
C25	C	2.292809	-0.330156	0.330494
C26	C	1.823439	-0.357702	0.609540
C27	C	1.823441	-0.357704	0.716754
C28	C	1.823561	-0.106098	0.357989
C29	C	1.823615	0.001119	0.358007
C30	C	1.823409	-0.357710	0.913051
C31	C	1.823423	-0.357710	0.803818
C32	C	1.823417	-0.357715	1.107334
C33	C	1.823407	-0.357708	1.000121
H34	H	1.346573	-0.276725	0.277236
Br35	Br	1.265730	-0.474268	0.474112
