data_functionalizedCrystal
_audit_creation_method	'MofGen! by Chris Wilmer'
_symmetry_space_group_name_H-M	'P1'
_symmetry_Int_Tables_number	1
_symmetry_cell_setting	triclinic
loop_
_symmetry_equiv_pos_as_xyz
  x,y,z
_cell_length_a	26.374263
_cell_length_b	26.373608
_cell_length_c	26.370205
_cell_angle_alpha	60.005297
_cell_angle_beta	60.010839
_cell_angle_gamma	59.993700
loop_
_atom_site_label
_atom_site_type_symbol
_atom_site_fract_x
_atom_site_fract_y
_atom_site_fract_z
O1	O	0.070152	-0.740800	0.619517
O2	O	0.570152	-0.240800	1.119517
O3	O	0.026377	-0.576764	0.499159
O4	O	0.526377	-0.076764	0.999159
O5	O	0.130245	-0.680560	0.499088
O6	O	0.630245	-0.180560	0.999088
O7	O	-0.033715	-0.637003	0.619589
O8	O	0.466285	-0.137003	1.119589
O9	O	0.164701	-0.646107	0.533470
O10	O	0.664701	-0.146107	1.033470
O11	O	0.060833	-0.542310	0.533541
O12	O	0.560833	-0.042310	1.033541
O13	O	0.104608	-0.706346	0.653899
O14	O	0.604608	-0.206346	1.153899
Cu15	Cu	0.085867	-0.621182	0.596859
Cu16	Cu	0.585867	-0.121182	1.096859
Cu17	Cu	0.045119	-0.661927	0.556199
Cu18	Cu	0.545119	-0.161927	1.056199
O19	O	0.000741	-0.602549	0.653971
O20	O	0.500741	-0.102549	1.153971
N21	N	0.114528	-0.592529	0.625461
N22	N	0.614528	-0.092529	1.125461
N23	N	0.016463	-0.690587	0.527598
N24	N	0.516463	-0.190587	1.027598
C25	C	0.181428	-0.355400	0.692330
C26	C	0.681428	0.144600	1.192330
C27	C	0.181530	-0.525690	0.862573
C28	C	0.681530	-0.025690	1.362573
C29	C	0.181440	-0.525667	0.692313
C30	C	0.681440	-0.025667	1.192313
C31	C	0.351736	-0.525673	0.692271
C32	C	0.851736	-0.025673	1.192271
C33	C	0.200174	-0.411588	0.711047
C34	C	0.700174	0.088412	1.211047
C35	C	0.200232	-0.506954	0.806384
C36	C	0.700232	-0.006954	1.306384
C37	C	0.295546	-0.506943	0.711016
C38	C	0.795546	-0.006943	1.211016
C39	C	0.200182	-0.506940	0.711037
C40	C	0.700182	-0.006940	1.211037
C41	C	0.157567	-0.283881	0.668507
C42	C	0.657567	0.216119	1.168507
C43	C	0.157587	-0.549500	0.668479
C44	C	0.657587	-0.049500	1.168479
C45	C	0.224035	-0.483107	0.734871
C46	C	0.724035	0.016893	1.234871
C47	C	0.455739	-0.507754	0.637520
C48	C	0.955739	-0.007754	1.137520
C49	C	0.520749	-0.529425	0.615835
C50	C	1.020749	-0.029425	1.115835
C51	C	0.520768	-0.634611	0.655947
C52	C	1.020768	-0.134611	1.155947
C53	C	0.455759	-0.612939	0.677633
C54	C	0.955759	-0.112939	1.177633
C55	C	0.173240	-0.251367	0.604595
C56	C	0.673240	0.248633	1.104595
C57	C	0.151546	-0.186351	0.582941
C58	C	0.651546	0.313649	1.082941
C59	C	0.098512	-0.186369	0.689113
C60	C	0.598512	0.313631	1.189113
C61	C	0.120206	-0.251385	0.710768
C62	C	0.620206	0.248615	1.210768
C63	C	0.093669	-0.533798	0.684205
C64	C	0.593669	-0.033798	1.184205
C65	C	0.071992	-0.555464	0.662532
C66	C	0.571992	-0.055464	1.162532
C67	C	0.178144	-0.608536	0.609422
C68	C	0.678144	-0.108536	1.109422
C69	C	0.199825	-0.586869	0.631088
C70	C	0.699825	-0.086869	1.131088
C71	C	0.093821	-0.533842	0.966616
C72	C	0.593821	-0.033842	1.466616
C73	C	0.072187	-0.555526	1.031630
C74	C	0.572187	-0.055526	1.531630
C75	C	0.178370	-0.608608	1.031591
C76	C	0.678370	-0.108608	1.531591
C77	C	0.200004	-0.586926	0.966576
C78	C	0.700004	-0.086926	1.466576
C79	C	0.157728	-0.549541	0.934090
C80	C	0.657728	-0.049541	1.434090
C81	C	0.423247	-0.549509	0.668416
C82	C	0.923247	-0.049509	1.168416
C83	C	-0.097522	-0.709158	0.508557
C84	C	0.402478	-0.209158	1.008557
C85	C	-0.002050	-0.709295	0.413344
C86	C	0.497950	-0.209295	0.913344
C87	C	-0.002241	-0.804604	0.508735
C88	C	0.497759	-0.304604	1.008735
C89	C	-0.002225	-0.709288	0.508793
C90	C	0.497775	-0.209288	1.008793
C91	C	-0.026009	-0.733087	0.484858
C92	C	0.473991	-0.233087	0.984858
N93	N	0.552340	-0.592538	0.625346
N94	N	1.052340	-0.092538	1.125346
O95	O	0.750867	-0.598274	0.477076
O96	O	1.250867	-0.098274	0.977076
O97	O	0.751048	-0.718989	0.640960
O98	O	1.251048	-0.218989	1.140960
O99	O	0.750981	-0.718715	0.537020
O100	O	1.250981	-0.218715	1.037020
O101	O	0.750934	-0.598547	0.581017
O102	O	1.250934	-0.098547	1.081017
O103	O	0.647701	-0.684348	0.571512
O104	O	1.147701	-0.184348	1.071512
O105	O	0.647768	-0.684622	0.675452
O106	O	1.147768	-0.184622	1.175452
O107	O	0.647587	-0.563907	0.511569
O108	O	1.147587	-0.063907	1.011569
Cu109	Cu	0.638247	-0.621127	0.596660
Cu110	Cu	1.138247	-0.121127	1.096660
Cu111	Cu	0.760388	-0.661769	0.555869
Cu112	Cu	1.260388	-0.161769	1.055869
O113	O	0.647654	-0.564181	0.615509
O114	O	1.147654	-0.064181	1.115509
N115	N	0.846295	-0.690358	0.527176
N116	N	1.346295	-0.190358	1.027176
N117	N	0.114503	-0.154778	0.625499
N118	N	0.614503	0.345222	1.125499
O119	O	-0.033701	0.043855	0.619632
O120	O	0.466299	0.543855	1.119632
O121	O	0.130190	0.043858	0.498933
O122	O	0.630190	0.543858	0.998933
O123	O	0.026233	0.043841	0.499224
O124	O	0.526233	0.543841	0.999224
O125	O	0.070257	0.043872	0.619341
O126	O	0.570257	0.543872	1.119341
O127	O	0.060690	-0.059448	0.533654
O128	O	0.560690	0.440552	1.033654
O129	O	0.164647	-0.059431	0.533363
O130	O	0.664647	0.440569	1.033363
O131	O	0.000756	-0.059434	0.654062
O132	O	0.500756	0.440566	1.154062
Cu133	Cu	0.085848	-0.068863	0.596857
Cu134	Cu	0.585848	0.431137	1.096857
Cu135	Cu	0.045099	0.053287	0.556138
Cu136	Cu	0.545099	0.553287	1.056138
O137	O	0.104714	-0.059417	0.653771
O138	O	0.604714	0.440583	1.153771
N139	N	0.016435	0.139202	0.527497
N140	N	0.516435	0.639202	1.027497
N141	N	0.114760	-0.592585	1.063190
N142	N	0.614760	-0.092585	1.563190
O143	O	0.108896	-0.740779	1.261808
O144	O	0.608896	-0.240779	1.761808
O145	O	-0.011787	-0.576838	1.261822
O146	O	0.488213	-0.076838	1.761822
O147	O	-0.011509	-0.680779	1.261780
O148	O	0.488491	-0.180779	1.761780
O149	O	0.108618	-0.636838	1.261850
O150	O	0.608618	-0.136838	1.761850
O151	O	0.022916	-0.646341	1.158496
O152	O	0.522916	-0.146341	1.658496
O153	O	0.022638	-0.542399	1.158538
O154	O	0.522638	-0.042399	1.658538
O155	O	0.143321	-0.706341	1.158524
O156	O	0.643321	-0.206341	1.658524
Cu157	Cu	0.086123	-0.621225	1.149100
Cu158	Cu	0.586123	-0.121225	1.649100
Cu159	Cu	0.045411	-0.661953	1.271246
Cu160	Cu	0.545411	-0.161953	1.771246
O161	O	0.143044	-0.602399	1.158566
O162	O	0.643044	-0.102399	1.658566
N163	N	0.016774	-0.690600	1.357156
N164	N	0.516774	-0.190600	1.857156
C165	C	0.039504	-0.538867	0.499769
C166	C	0.539504	-0.038867	0.999769
C167	C	0.168130	-0.667407	0.499680
C168	C	0.668130	-0.167407	0.999680
C169	C	0.091482	-0.744243	0.653289
C170	C	0.591482	-0.244243	1.153289
C171	C	-0.037145	-0.615703	0.653378
C172	C	0.462855	-0.115703	1.153378
C173	C	0.699429	-0.718429	0.678853
C174	C	1.199429	-0.218429	1.178853
C175	C	0.699348	-0.718091	0.550135
C176	C	1.199348	-0.218091	1.050135
C177	C	0.699202	-0.564465	0.473677
C178	C	1.199202	-0.064465	0.973677
C179	C	0.699287	-0.564805	0.602393
C180	C	1.199287	-0.064805	1.102393
C181	C	0.168023	-0.007659	0.499484
C182	C	0.668023	0.492341	0.999484
C183	C	0.039327	-0.007807	0.499887
C184	C	0.539327	0.492193	0.999887
C185	C	-0.037119	-0.007789	0.653468
C186	C	0.462881	0.492211	1.153468
C187	C	0.091620	-0.007770	0.653109
C188	C	0.591620	0.492230	1.153109
C189	C	-0.011194	-0.538964	1.210181
C190	C	0.488806	-0.038964	1.710181
C191	C	-0.010843	-0.667676	1.210109
C192	C	0.489157	-0.167676	1.710109
C193	C	0.142729	-0.744214	1.210165
C194	C	0.642729	-0.244214	1.710165
C195	C	0.142386	-0.615494	1.210214
C196	C	0.642386	-0.115494	1.710214
H197	H	0.020147	-0.542732	1.058106
H198	H	0.520147	-0.042732	1.558106
C199	C	0.027120	-0.476009	0.449380
C200	C	0.527120	0.023991	0.949380
C201	C	0.069448	-0.448662	0.432825
C202	C	0.569448	0.051338	0.932825
C203	C	0.058053	-0.390754	0.386415
C204	C	0.558053	0.109246	0.886415
H205	H	0.031775	-0.481315	0.414034
H206	H	0.531775	0.018685	0.914034
H207	H	-0.013979	-0.449965	0.464481
H208	H	0.486021	0.050035	0.964481
H209	H	0.110537	-0.474699	0.417722
H210	H	0.610537	0.025301	0.917722
H211	H	0.064800	-0.443340	0.468157
H212	H	0.564800	0.056660	0.968157
H213	H	0.016955	-0.364710	0.401516
H214	H	0.516955	0.135290	0.901516
H215	H	0.062708	-0.396066	0.351073
H216	H	0.562708	0.103934	0.851073
H217	H	0.086767	-0.372189	0.375181
H218	H	0.586767	0.127811	0.875181
C219	C	0.103147	-0.286573	0.780183
C220	C	0.603147	0.213427	1.280183
C221	C	0.065796	-0.244195	0.812555
C222	C	0.565796	0.255805	1.312555
C223	C	0.050075	-0.276588	0.876503
C224	C	0.550075	0.223412	1.376503
H225	H	0.081064	-0.311939	0.790928
H226	H	0.581064	0.188061	1.290928
H227	H	0.139908	-0.311921	0.790860
H228	H	0.639908	0.188079	1.290860
H229	H	0.029041	-0.218857	0.801883
H230	H	0.529041	0.281143	1.301883
H231	H	0.087867	-0.218827	0.801828
H232	H	0.587867	0.281173	1.301828
H233	H	0.086836	-0.301937	0.887180
H234	H	0.586836	0.198063	1.387180
H235	H	0.027993	-0.301954	0.887242
H236	H	0.527993	0.198046	1.387242
H237	H	0.024735	-0.247840	0.898475
H238	H	0.524735	0.252160	1.398475
C239	C	0.230971	-0.679892	0.449309
C240	C	0.730971	-0.179892	0.949309
C241	C	0.269247	-0.740496	0.471667
C242	C	0.769247	-0.240496	0.971667
C243	C	0.327143	-0.752017	0.425286
C244	C	0.827143	-0.252017	0.925286
H245	H	0.225637	-0.675272	0.413993
H246	H	0.725637	-0.175272	0.913993
H247	H	0.249621	-0.651221	0.438003
H248	H	0.749621	-0.151221	0.938003
H249	H	0.250602	-0.769159	0.482965
H250	H	0.750602	-0.269159	0.982965
H251	H	0.274600	-0.745131	0.506977
H252	H	0.774600	-0.245131	1.006977
H253	H	0.345793	-0.723345	0.413980
H254	H	0.845793	-0.223345	0.913980
H255	H	0.321802	-0.747393	0.389974
H256	H	0.821802	-0.247393	0.889974
H257	H	0.353122	-0.793134	0.440452
H258	H	0.853122	-0.293134	0.940452
H259	H	0.429307	-0.646943	0.702793
H260	H	0.929307	-0.146943	1.202793
H261	H	-0.084239	-0.606419	0.691217
H262	H	0.415761	-0.106419	1.191217
H263	H	0.699474	-0.756325	0.725922
H264	H	1.199474	-0.256325	1.225922
H265	H	0.100832	-0.791364	0.691090
H266	H	0.600832	-0.291364	1.191090
C267	C	0.699337	-0.768339	0.537477
C268	C	1.199337	-0.268339	1.037477
C269	C	0.699268	-0.745813	0.476861
C270	C	1.199268	-0.245813	0.976861
C271	C	0.699249	-0.792080	0.465181
C272	C	1.199249	-0.292080	0.965181
H273	H	0.735367	-0.803670	0.542033
H274	H	1.235367	-0.303670	1.042033
H275	H	0.663330	-0.779665	0.566112
H276	H	1.163330	-0.279665	1.066112
H277	H	0.735271	-0.734495	0.448233
H278	H	1.235271	-0.234495	0.948233
H279	H	0.663240	-0.710487	0.472290
H280	H	1.163240	-0.210487	0.972290
H281	H	0.663242	-0.803407	0.493817
H282	H	1.163242	-0.303407	0.993817
H283	H	0.735280	-0.827409	0.469740
H284	H	1.235280	-0.327409	0.969740
H285	H	0.699197	-0.776801	0.424055
H286	H	1.199197	-0.276801	0.924055
C287	C	0.699155	-0.514016	0.410872
C288	C	1.199155	-0.014016	0.910872
C289	C	0.699157	-0.536280	0.372534
C290	C	1.199157	-0.036280	0.872534
C291	C	0.699120	-0.489825	0.314672
C292	C	1.199120	0.010175	0.814672
H293	H	0.663129	-0.478713	0.416253
H294	H	1.163129	0.021287	0.916253
H295	H	0.735166	-0.502710	0.392241
H296	H	1.235166	-0.002710	0.892241
H297	H	0.663150	-0.547576	0.391161
H298	H	1.163150	-0.047576	0.891161
H299	H	0.735180	-0.571576	0.367135
H300	H	1.235180	-0.071576	0.867135
H301	H	0.735131	-0.478520	0.296041
H302	H	1.235131	0.021480	0.796041
H303	H	0.663093	-0.454526	0.320060
H304	H	1.163093	0.045474	0.820060
H305	H	0.699127	-0.504926	0.288651
H306	H	1.199127	-0.004926	0.788651
C307	C	0.026894	-0.007920	0.449539
C308	C	0.526894	0.492080	0.949539
C309	C	0.069210	-0.061057	0.432986
C310	C	0.569210	0.438943	0.932986
C311	C	0.057786	-0.061180	0.386600
C312	C	0.557786	0.438820	0.886600
H313	H	-0.014197	-0.007956	0.464644
H314	H	0.485803	0.492044	0.964644
H315	H	0.031543	0.028077	0.414190
H316	H	0.531543	0.528077	0.914190
H317	H	0.064556	-0.097044	0.468328
H318	H	0.564556	0.402956	0.968328
H319	H	0.110305	-0.061031	0.417870
H320	H	0.610305	0.438969	0.917870
H321	H	0.062435	-0.025183	0.351251
H322	H	0.562435	0.474817	0.851251
H323	H	0.016694	-0.061215	0.401710
H324	H	0.516694	0.438785	0.901710
H325	H	0.086499	-0.097229	0.375359
H326	H	0.586499	0.402771	0.875359
C327	C	0.699237	-0.514537	0.615072
C328	C	1.199237	-0.014537	1.115072
C329	C	0.699276	-0.537053	0.675698
C330	C	1.199276	-0.037053	1.175698
C331	C	0.699221	-0.490761	0.687402
C332	C	1.199221	0.009239	1.187402
H333	H	0.735218	-0.503170	0.586466
H334	H	1.235218	-0.003170	1.086466
H335	H	0.663181	-0.479229	0.610504
H336	H	1.163181	0.020771	1.110504
H337	H	0.735328	-0.572350	0.680261
H338	H	1.235328	-0.072350	1.180261
H339	H	0.663297	-0.548416	0.704317
H340	H	1.163297	-0.048416	1.204317
H341	H	0.663165	-0.455453	0.682834
H342	H	1.163165	0.044547	1.182834
H343	H	0.735203	-0.479397	0.658792
H344	H	1.235203	0.020603	1.158792
H345	H	0.699242	-0.506030	0.728539
H346	H	1.199242	-0.006030	1.228539
H347	H	0.214995	-0.007372	0.461496
H348	H	0.714995	0.492628	0.961496
C349	C	-0.061807	-0.476245	1.210279
C350	C	0.438193	0.023755	1.710279
C351	C	-0.113745	-0.484428	1.263397
C352	C	0.386255	0.015572	1.763397
C353	C	-0.160384	-0.426666	1.263504
C354	C	0.339616	0.073334	1.763504
H355	H	-0.046901	-0.450105	1.210327
H356	H	0.453099	0.049895	1.710327
H357	H	-0.073127	-0.457656	1.174273
H358	H	0.426873	0.042344	1.674273
H359	H	-0.102425	-0.503008	1.299394
H360	H	0.397575	-0.003008	1.799394
H361	H	-0.128669	-0.510557	1.263360
H362	H	0.371331	-0.010557	1.763360
H363	H	-0.171704	-0.408076	1.227497
H364	H	0.328296	0.091924	1.727497
H365	H	-0.145472	-0.400530	1.263550
H366	H	0.354528	0.099470	1.763550
H367	H	-0.195631	-0.432210	1.299540
H368	H	0.304369	0.067790	1.799540
C369	C	0.192781	-0.603095	1.210262
C370	C	0.692781	-0.103095	1.710262
C371	C	0.245964	-0.656097	1.210275
C372	C	0.745964	-0.156097	1.710275
C373	C	0.292398	-0.644700	1.210327
C374	C	0.792398	-0.144700	1.710327
H375	H	0.202518	-0.569249	1.174260
H376	H	0.702518	-0.069249	1.674260
H377	H	0.178468	-0.593267	1.246300
H378	H	0.678468	-0.093267	1.746300
H379	H	0.260275	-0.665917	1.174241
H380	H	0.760275	-0.165917	1.674241
H381	H	0.236247	-0.689949	1.246274
H382	H	0.736247	-0.189949	1.746274
H383	H	0.278085	-0.634872	1.246365
H384	H	0.778085	-0.134872	1.746365
H385	H	0.302129	-0.610853	1.174325
H386	H	0.802129	-0.110853	1.674325
H387	H	0.328486	-0.680661	1.210342
H388	H	0.828486	-0.180661	1.710342
C389	C	-0.099933	-0.007744	0.703904
C390	C	0.400067	0.492256	1.203904
C391	C	-0.138284	-0.007734	0.681651
C392	C	0.361716	0.492266	1.181651
C393	C	-0.196157	-0.007679	0.728090
C394	C	0.303843	0.492321	1.228090
H395	H	-0.094576	-0.043745	0.739229
H396	H	0.405424	0.456255	1.239229
H397	H	-0.118538	0.028297	0.715167
H398	H	0.381462	0.528297	1.215167
H399	H	-0.119683	-0.043772	0.670397
H400	H	0.380317	0.456228	1.170397
H401	H	-0.143659	0.028264	0.646332
H402	H	0.356341	0.528264	1.146332
H403	H	-0.214762	0.028363	0.739353
H404	H	0.285238	0.528363	1.239353
H405	H	-0.190794	-0.043680	0.763412
H406	H	0.309206	0.456320	1.263412
H407	H	-0.222187	-0.007666	0.712997
H408	H	0.277813	0.492334	1.212997
H409	H	0.101045	-0.007760	0.690842
H410	H	0.601045	0.492240	1.190842
H411	H	0.059274	-0.503369	0.714648
H412	H	0.559274	-0.003369	1.214648
C413	C	-0.061055	-0.680292	1.209990
C414	C	0.438945	-0.180292	1.709990
C415	C	-0.038529	-0.740913	1.209943
C416	C	0.461471	-0.240913	1.709943
C417	C	-0.084763	-0.752554	1.209825
C418	C	0.415237	-0.252554	1.709825
H419	H	-0.096417	-0.675707	1.245981
H420	H	0.403583	-0.175707	1.745981
H421	H	-0.072330	-0.651655	1.173942
H422	H	0.427670	-0.151655	1.673942
H423	H	-0.027263	-0.769542	1.245987
H424	H	0.472737	-0.269542	1.745987
H425	H	-0.003173	-0.745513	1.173954
H426	H	0.496827	-0.245513	1.673954
H427	H	-0.096038	-0.723917	1.173776
H428	H	0.403962	-0.223917	1.673776
H429	H	-0.120122	-0.747966	1.245816
H430	H	0.379878	-0.247966	1.745816
H431	H	-0.069484	-0.793684	1.209787
H432	H	0.430516	-0.293684	1.709787
H433	H	0.180620	-0.791296	1.210154
H434	H	0.680620	-0.291296	1.710154
H435	H	0.212798	-0.639038	1.058038
H436	H	0.712798	-0.139038	1.558038
C437	C	0.047820	-0.493282	0.931461
C438	C	0.547820	0.006718	1.431461
C439	C	-0.012777	-0.484187	0.973864
C440	C	0.487223	0.015813	1.473864
C441	C	-0.055168	-0.446836	0.941502
C442	C	0.444832	0.053164	1.441502
H443	H	0.053969	-0.454278	0.906102
H444	H	0.553969	0.045722	1.406102
H445	H	0.054015	-0.513127	0.906111
H446	H	0.554015	-0.013127	1.406111
H447	H	-0.018970	-0.464341	0.999203
H448	H	0.481030	0.035659	1.499203
H449	H	-0.018946	-0.523179	0.999225
H450	H	0.481054	-0.023179	1.499225
H451	H	-0.048973	-0.466681	0.916151
H452	H	0.451027	0.033319	1.416151
H453	H	-0.049014	-0.407836	0.916143
H454	H	0.450986	0.092164	1.416143
H455	H	-0.096288	-0.440665	0.970266
H456	H	0.403712	0.059335	1.470266
H457	H	0.019945	-0.542665	0.675322
H458	H	0.519945	-0.042665	1.175322
C459	C	0.269410	-0.604098	0.931344
C460	C	0.769410	-0.104098	1.431344
C461	C	0.296185	-0.668771	0.947155
C462	C	0.796185	-0.168771	1.447155
C463	C	0.360120	-0.684613	0.914720
C464	C	0.860120	-0.184613	1.414720
H465	H	0.276329	-0.585898	0.887962
H466	H	0.776329	-0.085898	1.387962
H467	H	0.287700	-0.589183	0.942009
H468	H	0.787700	-0.089183	1.442009
H469	H	0.277900	-0.683680	0.936485
H470	H	0.777900	-0.183680	1.436485
H471	H	0.289282	-0.686987	0.990531
H472	H	0.789282	-0.186987	1.490531
H473	H	0.378411	-0.669697	0.925385
H474	H	0.878411	-0.169697	1.425385
H475	H	0.367033	-0.666408	0.871340
H476	H	0.867033	-0.166408	1.371340
H477	H	0.378296	-0.728494	0.925447
H478	H	0.878296	-0.228494	1.425447
C479	C	0.224040	-0.649003	0.568724
C480	C	0.724040	-0.149003	1.068724
C481	C	0.261298	-0.616339	0.514591
C482	C	0.761298	-0.116339	1.014591
C483	C	0.303578	-0.653591	0.477081
C484	C	0.803578	-0.153591	0.977081
H485	H	0.249480	-0.685777	0.590689
H486	H	0.749480	-0.185777	1.090689
H487	H	0.202002	-0.659648	0.558024
H488	H	0.702002	-0.159648	1.058024
H489	H	0.283334	-0.605703	0.525292
H490	H	0.783334	-0.105703	1.025292
H491	H	0.235876	-0.579568	0.492610
H492	H	0.735876	-0.079568	0.992610
H493	H	0.281540	-0.664236	0.466380
H494	H	0.781540	-0.164236	0.966380
H495	H	0.329013	-0.690363	0.499051
H496	H	0.829013	-0.190363	0.999051
H497	H	0.328858	-0.631432	0.440345
H498	H	0.828858	-0.131432	0.940345
C499	C	0.269214	-0.603787	0.613935
C500	C	0.769214	-0.103787	1.113935
C501	C	0.284731	-0.549501	0.581434
C502	C	0.784731	-0.049501	1.081434
C503	C	0.348646	-0.565060	0.565616
C504	C	0.848646	-0.065060	1.065616
H505	H	0.279969	-0.625826	0.650641
H506	H	0.779969	-0.125826	1.150641
H507	H	0.291292	-0.629120	0.588532
H508	H	0.791292	-0.129120	1.088532
H509	H	0.262660	-0.524178	0.606835
H510	H	0.762660	-0.024178	1.106835
H511	H	0.273992	-0.527455	0.544720
H512	H	0.773992	-0.027455	1.044720
H513	H	0.370724	-0.590393	0.540213
H514	H	0.870724	-0.090393	1.040213
H515	H	0.359395	-0.587100	0.602326
H516	H	0.859395	-0.087100	1.102326
H517	H	0.359184	-0.528231	0.543558
H518	H	0.859184	-0.028231	1.043558
H519	H	0.547206	-0.495421	0.590679
H520	H	1.047206	0.004579	1.090679
C521	C	0.555957	-0.703504	0.666036
C522	C	1.055957	-0.203504	1.166036
C523	C	0.513587	-0.735437	0.697749
C524	C	1.013587	-0.235437	1.197749
C525	C	0.545982	-0.798903	0.707060
C526	C	1.045982	-0.298903	1.207060
H527	H	0.581304	-0.709617	0.627011
H528	H	1.081304	-0.209617	1.127011
H529	H	0.581320	-0.718783	0.689876
H530	H	1.081320	-0.218783	1.189876
H531	H	0.488234	-0.720163	0.673909
H532	H	0.988234	-0.220163	1.173909
H533	H	0.488238	-0.729343	0.736780
H534	H	0.988238	-0.229343	1.236780
H535	H	0.571346	-0.814183	0.730901
H536	H	1.071346	-0.314183	1.230901
H537	H	0.571329	-0.805010	0.668032
H538	H	1.071329	-0.305010	1.168032
H539	H	0.517239	-0.820579	0.728583
H540	H	1.017239	-0.320579	1.228583
H541	H	0.203661	-0.277820	0.570179
H542	H	0.703661	0.222180	1.070179
C543	C	0.420516	-0.438857	0.627389
C544	C	0.920516	0.061143	1.127389
C545	C	0.436317	-0.405598	0.563634
C546	C	0.936317	0.094402	1.063634
C547	C	0.403891	-0.342129	0.554276
C548	C	0.903891	0.157871	1.054276
H549	H	0.377135	-0.431837	0.644670
H550	H	0.877135	0.068163	1.144670
H551	H	0.431195	-0.425380	0.647001
H552	H	0.931195	0.074620	1.147001
H553	H	0.425634	-0.419069	0.544030
H554	H	0.925634	0.080931	1.044030
H555	H	0.479692	-0.412598	0.546340
H556	H	0.979692	0.087402	1.046340
H557	H	0.414569	-0.328652	0.573888
H558	H	0.914569	0.171348	1.073888
H559	H	0.360511	-0.335116	0.571560
H560	H	0.860511	0.164884	1.071560
H561	H	0.414611	-0.319554	0.511019
H562	H	0.914611	0.180446	1.011019
H563	H	0.164306	-0.159876	0.530897
H564	H	0.664306	0.340124	1.030897
H565	H	0.068098	-0.159910	0.723527
H566	H	0.568098	0.340090	1.223527
