data_functionalizedCrystal
_audit_creation_method	'MofGen! by Chris Wilmer'
_symmetry_space_group_name_H-M	'P1'
_symmetry_Int_Tables_number	1
_symmetry_cell_setting	triclinic
loop_
_symmetry_equiv_pos_as_xyz
  x,y,z
_cell_length_a	13.635800
_cell_length_b	14.127525
_cell_length_c	9.170643
_cell_angle_alpha	71.396475
_cell_angle_beta	67.540368
_cell_angle_gamma	36.149638
loop_
_atom_site_label
_atom_site_type_symbol
_atom_site_fract_x
_atom_site_fract_y
_atom_site_fract_z
V1	V	2.244063	-0.469798	0.218416
O2	O	2.350317	-0.492295	-0.007652
O3	O	2.105824	-0.436347	0.430348
O4	O	2.371760	-0.688489	0.216304
O5	O	2.082540	-0.238408	0.207873
V6	V	2.480971	-0.445795	0.191228
O7	O	2.385337	-0.522450	0.278055
O8	O	2.564795	-0.393143	0.131590
O9	O	2.507607	-0.479246	-0.020703
O10	O	2.433415	-0.423298	0.417297
O11	O	2.701192	-0.677185	0.201772
O12	O	2.241671	-0.227105	0.193341
V13	V	2.744063	-0.469798	0.218416
O14	O	2.850317	-0.492295	-0.007652
O15	O	2.605824	-0.436347	0.430348
O16	O	2.871760	-0.688489	0.216304
O17	O	2.582540	-0.238408	0.207873
V18	V	2.980971	-0.445795	0.191228
O19	O	2.885337	-0.522450	0.278055
O20	O	3.064795	-0.393143	0.131590
O21	O	3.007607	-0.479246	-0.020703
O22	O	2.933415	-0.423298	0.417297
O23	O	3.201192	-0.677185	0.201772
O24	O	2.741671	-0.227105	0.193341
C25	C	1.995667	-0.421133	0.481974
C26	C	1.924296	-0.395241	0.655239
C27	C	2.334894	-0.742763	0.208937
C28	C	2.479187	-0.921345	0.208613
C29	C	1.983177	-0.389973	0.744598
C30	C	1.916148	-0.365669	0.907403
C31	C	1.790231	-0.346620	0.980845
C32	C	1.731352	-0.351894	0.891475
C33	C	1.798388	-0.376209	0.728674
C34	C	2.449427	-0.494454	-0.072321
C35	C	2.510423	-0.520357	-0.245584
C36	C	2.610199	-0.172821	0.200712
C37	C	2.455528	0.005762	0.201029
C38	C	2.495667	-0.421133	0.481974
C39	C	2.424296	-0.395241	0.655239
C40	C	2.110199	-0.172821	0.200712
C41	C	1.955528	0.005762	0.201029
C42	C	2.834894	-0.742763	0.208937
C43	C	2.979187	-0.921345	0.208613
C44	C	2.949427	-0.494454	-0.072321
C45	C	3.010423	-0.520357	-0.245584
C46	C	3.124039	-0.525629	-0.334942
C47	C	3.181344	-0.549941	-0.497747
C48	C	3.125041	-0.568993	-0.571188
C49	C	3.011410	-0.563715	-0.481819
C50	C	2.954098	-0.539392	-0.319019
H51	H	2.085696	-0.405470	0.684822
C52	C	2.673096	-0.691859	-0.309947
N53	N	2.795621	-0.821033	-0.358427
C54	C	2.655697	-1.021610	0.217040
N55	N	2.788645	-1.097130	0.223383
H56	H	2.324880	-0.920025	0.194799
H57	H	2.303886	-0.268303	-0.297120
H58	H	2.095415	0.029374	0.187266
H59	H	3.273868	-0.554236	-0.570489
C60	C	1.782225	0.090489	0.209788
N61	N	1.651694	0.154307	0.216383
C62	C	2.949490	-0.584674	-0.562631
N63	N	2.902859	-0.600468	-0.623503
H64	H	3.171721	-0.588797	-0.703752
C65	C	2.829132	-0.533618	-0.220739
N66	N	2.735008	-0.529274	-0.146721
C67	C	1.592817	-0.330910	0.972283
N68	N	1.488458	-0.315086	1.033149
C69	C	1.733580	-0.381975	0.630392
N70	N	1.684754	-0.386312	0.556373
C71	C	3.185987	-0.504663	-0.254190
N72	N	3.232646	-0.488861	-0.193380
C73	C	1.716496	-0.319862	1.159932
N74	N	1.660961	-0.299702	1.294820
H75	H	1.964107	-0.361375	0.980146
