data_functionalizedCrystal
_audit_creation_method	'MofGen! by Chris Wilmer'
_symmetry_space_group_name_H-M	'P1'
_symmetry_Int_Tables_number	1
_symmetry_cell_setting	triclinic
loop_
_symmetry_equiv_pos_as_xyz
  x,y,z
_cell_length_a	18.101398
_cell_length_b	18.101396
_cell_length_c	19.805399
_cell_angle_alpha	90.024487
_cell_angle_beta	89.975573
_cell_angle_gamma	89.965246
loop_
_atom_site_label
_atom_site_type_symbol
_atom_site_fract_x
_atom_site_fract_y
_atom_site_fract_z
Zn1	Zn	1.132088	0.294892	-0.382822
Zn2	Zn	1.131972	0.418735	-0.269640
Zn3	Zn	1.008248	0.294907	-0.269637
Zn4	Zn	1.008185	0.418691	-0.382777
O5	O	1.070123	0.356806	-0.326219
O6	O	1.235705	0.311332	-0.367828
O7	O	1.115537	0.402334	-0.174923
O8	O	1.024750	0.191272	-0.284669
O9	O	1.235620	0.402319	-0.284674
O10	O	1.115735	0.191261	-0.367825
O11	O	1.024638	0.311358	-0.174921
O12	O	0.904606	0.311315	-0.284625
O13	O	1.024643	0.402244	-0.477499
O14	O	0.904560	0.402259	-0.367749
O15	O	1.115674	0.311289	-0.477532
O16	O	1.115476	0.522362	-0.284630
O17	O	1.024530	0.522330	-0.367751
C18	C	0.877712	0.356784	-0.326182
C19	C	0.795398	0.356793	-0.326182
C20	C	0.644690	0.356808	-0.326213
C21	C	0.613340	0.299507	-0.274001
C22	C	0.527722	0.299291	-0.274172
C23	C	0.496307	0.356823	-0.326242
C24	C	0.527449	0.335993	-0.397654
C25	C	0.613094	0.335568	-0.397335
C26	C	0.613078	0.435088	-0.307643
C27	C	0.527427	0.434675	-0.306086
C28	C	0.412448	0.356833	-0.326262
C29	C	0.728549	0.356797	-0.326197
C30	C	1.070004	0.549217	-0.326201
C31	C	1.070021	0.631531	-0.326216
C32	C	1.070152	0.930622	-0.326255
C33	C	1.013068	0.899307	-0.378682
C34	C	1.012805	0.813689	-0.378518
C35	C	1.070087	0.782239	-0.326236
C36	C	1.048955	0.813387	-0.254900
C37	C	1.048578	0.899032	-0.255215
C38	C	1.148497	0.898969	-0.344536
C39	C	1.148045	0.813318	-0.346099
C40	C	1.070052	0.698380	-0.326221
C41	C	1.070186	1.014481	-0.326266
C42	C	1.263285	0.356829	-0.326256
C43	C	1.345599	0.356838	-0.326272
C44	C	1.070237	1.163644	-0.326254
C45	C	1.070219	1.081330	-0.326276
C46	C	1.070165	0.356760	-0.502762
C47	C	1.070182	0.356740	-0.577994
C48	C	1.117583	0.309377	-0.613356
C49	C	1.117591	0.309356	-0.684045
C50	C	1.070201	0.356701	-0.719369
C51	C	1.022794	0.404066	-0.684002
C52	C	1.022784	0.404083	-0.613315
C53	C	1.022836	0.403997	-0.969075
C54	C	1.022852	0.403977	-1.039767
C55	C	1.117643	0.309269	-1.039805
C56	C	1.117633	0.309287	-0.969118
C57	C	1.070224	0.356648	-0.933757
C58	C	1.070215	0.356670	-0.857108
C59	C	1.070212	0.356684	-0.796016
C60	C	1.070124	0.356799	-0.150363
C61	C	1.070250	0.356610	-0.075131
H62	H	0.633104	0.278357	-0.413031
H63	H	1.026026	0.792628	-0.431412
H64	H	0.984177	0.442643	-0.584523
H65	H	0.633881	0.312354	-0.220883
H66	H	0.992297	0.791999	-0.239138
H67	H	1.163981	0.792958	-0.398599
C68	C	0.499267	0.316847	-0.202652
C69	C	0.554474	0.331163	-0.144982
C70	C	0.526024	0.348717	-0.073459
C71	C	0.442367	0.351957	-0.059605
C72	C	0.387154	0.337641	-0.117277
C73	C	0.415605	0.320086	-0.188800
H74	H	0.616407	0.328765	-0.155236
H75	H	0.566896	0.359314	-0.030767
H76	H	0.421306	0.364952	-0.006659
H77	H	0.325222	0.340039	-0.107023
H78	H	0.374733	0.309489	-0.231493
C79	C	1.169789	0.257163	-1.078704
C80	C	1.227913	0.289247	-1.127312
C81	C	1.280058	0.237145	-1.166209
C82	C	1.274079	0.152958	-1.156499
C83	C	1.215953	0.120870	-1.107889
C84	C	1.163808	0.172972	-1.068992
H85	H	1.232340	0.351571	-1.134502
H86	H	1.323087	0.260899	-1.202193
H87	H	1.312681	0.114389	-1.185293
H88	H	1.211525	0.058546	-1.100699
H89	H	1.120779	0.149218	-1.033008
H90	H	1.088353	0.919749	-0.214820
H91	H	0.634894	0.241831	-0.286171
C92	C	0.500079	0.220939	-0.290832
C93	C	0.555934	0.158370	-0.304025
C94	C	0.528292	0.080014	-0.320688
C95	C	0.444794	0.064227	-0.324157
C96	C	0.388934	0.126797	-0.310964
C97	C	0.416576	0.205153	-0.294301
H98	H	0.617749	0.170055	-0.301457
H99	H	0.569644	0.033695	-0.330454
H100	H	0.424332	0.006223	-0.336492
H101	H	0.327119	0.115112	-0.313532
H102	H	0.375224	0.251472	-0.284534
C103	C	0.640466	0.492764	-0.359006
C104	C	0.686766	0.559093	-0.334983
C105	C	0.714157	0.616763	-0.386350
C106	C	0.695248	0.608103	-0.461738
C107	C	0.648946	0.541771	-0.485765
C108	C	0.621556	0.484101	-0.434399
H109	H	0.700765	0.565507	-0.279173
H110	H	0.748432	0.665866	-0.368563
H111	H	0.715524	0.650793	-0.499763
H112	H	0.634947	0.535357	-0.541576
H113	H	0.587280	0.434998	-0.452185
C114	C	1.174521	0.928077	-0.413613
C115	C	1.124958	0.980971	-0.454307
C116	C	1.150972	1.010080	-0.523387
C117	C	1.226549	0.986296	-0.551773
C118	C	1.276117	0.933400	-0.511079
C119	C	1.250102	0.904291	-0.441999
H120	H	1.069007	0.998580	-0.433295
H121	H	1.114279	1.049237	-0.553512
H122	H	1.245806	1.007844	-0.602910
H123	H	1.332067	0.915791	-0.532091
H124	H	1.286796	0.865133	-0.411874
H125	H	1.026153	0.919857	-0.431749
H126	H	0.955350	0.920891	-0.366725
C127	C	0.970664	0.456069	-0.930184
C128	C	0.970620	0.456071	-0.852431
C129	C	0.918432	0.508133	-0.813536
C130	C	0.866289	0.560193	-0.852394
C131	C	0.866331	0.560193	-0.930152
C132	C	0.918519	0.508131	-0.969046
H133	H	1.009222	0.417532	-0.823662
H134	H	0.918402	0.508133	-0.755974
H135	H	0.827656	0.598732	-0.823602
H136	H	0.827729	0.598732	-0.958921
H137	H	0.918549	0.508131	-1.026608
C138	C	1.169735	0.257261	-0.722947
C139	C	1.137697	0.199099	-0.771543
C140	C	1.189842	0.147002	-0.810446
C141	C	1.274025	0.153066	-0.800753
C142	C	1.306067	0.211230	-0.752155
C143	C	1.253922	0.263327	-0.713252
H144	H	1.075376	0.194608	-0.778720
H145	H	1.166122	0.103946	-0.846422
H146	H	1.312626	0.114501	-0.829552
H147	H	1.368388	0.215721	-0.744978
H148	H	1.277642	0.306383	-0.677276
C149	C	1.169715	0.257296	-0.574503
C150	C	1.227829	0.289402	-0.525918
C151	C	1.279960	0.237317	-0.487067
C152	C	1.273977	0.153125	-0.496800
C153	C	1.215860	0.121015	-0.545387
C154	C	1.163729	0.173100	-0.584238
H155	H	1.232260	0.351730	-0.518711
H156	H	1.322982	0.261088	-0.451100
H157	H	1.312568	0.114569	-0.468040
H158	H	1.211429	0.058687	-0.552594
H159	H	1.120707	0.149328	-0.620205
H160	H	0.954739	0.793263	-0.366408
C161	C	1.208543	0.784453	-0.298236
C162	C	1.188124	0.731917	-0.240019
C163	C	1.248614	0.703079	-0.192130
C164	C	1.329523	0.726777	-0.202459
C165	C	1.349946	0.779315	-0.260678
C166	C	1.289456	0.808153	-0.308567
H167	H	1.128227	0.714372	-0.232371
H168	H	1.233496	0.664186	-0.149032
H169	H	1.374302	0.705429	-0.167009
H170	H	1.409843	0.796860	-0.268326
H171	H	1.304574	0.847046	-0.351665
H172	H	0.633836	0.375506	-0.437584
C173	C	0.971211	0.926111	-0.234302
C174	C	0.910201	0.869806	-0.217432
C175	C	0.832832	0.896881	-0.196521
C176	C	0.816472	0.980261	-0.192480
C177	C	0.877484	1.036571	-0.209351
C178	C	0.954854	1.009496	-0.230262
H179	H	0.922310	0.808079	-0.220422
H180	H	0.787667	0.855196	-0.184032
H181	H	0.759199	1.000304	-0.177001
H182	H	0.865376	1.098299	-0.206361
H183	H	1.000019	1.051181	-0.242751
H184	H	1.191028	0.919219	-0.306351
H185	H	1.089229	0.793016	-0.214772
C186	C	0.970714	0.456055	-1.078626
C187	C	0.976681	0.540248	-1.068894
C188	C	0.924546	0.592323	-1.107752
C189	C	0.866444	0.560205	-1.156343
C190	C	0.860474	0.476008	-1.166077
C191	C	0.912609	0.423933	-1.127218
H192	H	1.019694	0.564028	-1.032923
H193	H	0.928965	0.654652	-1.100546
H194	H	0.827850	0.598754	-1.185108
H195	H	0.817461	0.452228	-1.202048
H196	H	0.908190	0.361604	-1.134424
H197	H	0.507104	0.376457	-0.437632
H198	H	0.506034	0.279415	-0.413627
H199	H	0.634638	0.454110	-0.256438
H200	H	1.156225	0.270736	-0.940360
H201	H	0.507070	0.450388	-0.253530
C202	C	0.498545	0.495411	-0.353688
C203	C	0.445963	0.475288	-0.411957
C204	C	0.417083	0.536021	-0.459567
C205	C	0.440785	0.616878	-0.448908
C206	C	0.493369	0.637005	-0.390637
C207	C	0.522249	0.576272	-0.343027
H208	H	0.428416	0.415429	-0.419850
H209	H	0.378157	0.521121	-0.502703
H210	H	0.419406	0.661836	-0.484152
H211	H	0.510917	0.696863	-0.382744
H212	H	0.561175	0.591171	-0.299891
H213	H	0.984206	0.442612	-0.712769
