data_functionalizedCrystal
_audit_creation_method	'MofGen! by Chris Wilmer'
_symmetry_space_group_name_H-M	'P1'
_symmetry_Int_Tables_number	1
_symmetry_cell_setting	triclinic
loop_
_symmetry_equiv_pos_as_xyz
  x,y,z
_cell_length_a	12.759401
_cell_length_b	16.994746
_cell_length_c	12.759393
_cell_angle_alpha	90.005770
_cell_angle_beta	90.019684
_cell_angle_gamma	90.009223
loop_
_atom_site_label
_atom_site_type_symbol
_atom_site_fract_x
_atom_site_fract_y
_atom_site_fract_z
Zn1	Zn	1.606289	-0.314000	0.594203
Zn2	Zn	1.606197	-0.445927	0.418602
Zn3	Zn	1.430591	-0.314039	0.418539
Zn4	Zn	1.430594	-0.445864	0.594240
O5	O	1.518418	-0.379958	0.506396
O6	O	1.753298	-0.331511	0.570920
O7	O	1.582863	-0.428475	0.271573
O8	O	1.453935	-0.203653	0.441799
O9	O	1.753231	-0.428437	0.441907
O10	O	1.583019	-0.203624	0.570859
O11	O	1.453846	-0.331577	0.271526
O12	O	1.283570	-0.331516	0.441835
O13	O	1.453940	-0.428329	0.741256
O14	O	1.283572	-0.428367	0.570922
O15	O	1.583022	-0.331449	0.741229
O16	O	1.582866	-0.556300	0.441943
O17	O	1.453851	-0.556254	0.570983
C18	C	1.245450	-0.379939	0.506376
C19	C	1.128674	-0.379950	0.506392
C20	C	1.518362	-0.584897	0.506471
C21	C	1.518371	-0.674220	0.506480
Zn22	Zn	1.430764	-0.945103	0.418358
Zn23	Zn	1.606361	-0.813166	0.418719
Zn24	Zn	1.606191	-0.945087	0.594293
Zn25	Zn	1.430487	-0.813272	0.594086
O26	O	1.518451	-0.879157	0.506364
O27	O	1.454244	-0.927564	0.271385
O28	O	1.753360	-0.830615	0.442247
O29	O	1.582964	-1.055471	0.570890
O30	O	1.583255	-0.830631	0.271650
O31	O	1.454079	-1.055482	0.441632
O32	O	1.753234	-0.927537	0.571240
O33	O	1.582696	-0.927639	0.741286
O34	O	1.283503	-0.830811	0.570538
O35	O	1.453607	-0.830795	0.741134
O36	O	1.283706	-0.927667	0.441431
O37	O	1.582987	-0.702799	0.442047
O38	O	1.453773	-0.702877	0.570888
C39	C	1.073780	-0.329454	0.439300
C40	C	0.964056	-0.329472	0.439314
C41	C	0.964129	-0.430487	0.573520
C42	C	1.073851	-0.430472	0.573501
C43	C	1.128602	-0.278932	0.372192
C44	C	1.073708	-0.228431	0.305095
C45	C	0.963984	-0.228450	0.305109
C46	C	0.909154	-0.278970	0.372219
C47	C	1.792451	-0.379976	0.506417
C48	C	1.909228	-0.379985	0.506425
C49	C	1.518491	-0.379878	0.780429
C50	C	1.518523	-0.379844	0.897206
C51	C	1.518479	-0.174217	0.506315
C52	C	1.518510	-0.084895	0.506280
C53	C	1.518405	-0.379980	0.233429
C54	C	1.518577	-0.379792	0.116652
C55	C	1.585745	-0.329394	0.952056
C56	C	1.585770	-0.329365	1.061780
C57	C	1.451347	-0.430244	1.061795
C58	C	1.451318	-0.430268	0.952073
C59	C	1.652950	-0.278970	0.897189
C60	C	1.720179	-0.228516	0.952038
C61	C	1.720204	-0.228488	1.061763
C62	C	1.653000	-0.278913	1.116637
C63	C	1.518102	-0.879226	0.779331
C64	C	1.517928	-0.879237	0.896108
C65	C	1.244418	-0.879252	0.505921
C66	C	1.127641	-0.879293	0.505732
C67	C	1.518800	-0.879088	0.232331
C68	C	1.518948	-0.879058	0.115554
C69	C	1.791418	-0.879119	0.506746
C70	C	1.908194	-0.879298	0.506734
C71	C	1.450738	-0.828750	0.950863
C72	C	1.450556	-0.828780	1.060587
C73	C	1.584765	-0.929787	1.060790
C74	C	1.584940	-0.929760	0.951069
C75	C	1.383726	-0.778227	0.895902
C76	C	1.316531	-0.727735	0.950658
C77	C	1.316349	-0.727765	1.060382
C78	C	1.383363	-0.778287	1.115350
C79	C	1.072883	-0.929735	0.438425
C80	C	0.963159	-0.929773	0.438256
C81	C	0.962961	-0.828919	0.572704
C82	C	1.072683	-0.828886	0.572877
C83	C	1.127842	-0.980142	0.371280
C84	C	1.073084	-1.030588	0.303966
C85	C	0.963360	-1.030625	0.303797
C86	C	0.908394	-0.980217	0.370941
H87	H	1.217945	-0.278910	0.372176
C88	C	1.134023	-0.172861	0.231280
N89	N	1.179451	-0.131002	0.175683
H90	H	1.774887	-0.187457	0.907352
H91	H	1.117844	-1.071633	0.249307
C92	C	1.383918	-0.778190	0.775204
N93	N	1.384063	-0.778163	0.684294
C94	C	1.242822	-0.672162	0.890191
N95	N	1.187306	-0.630301	0.844648
H96	H	0.819049	-0.980257	0.370805
H97	H	0.918779	-1.071706	0.248995
C98	C	1.794152	-0.172986	1.122094
N99	N	1.849857	-0.131183	1.167534
H100	H	1.652940	-0.278989	0.807846
C101	C	0.903812	-0.486050	0.647344
N102	N	0.858381	-0.527898	0.702952
C103	C	1.377375	-0.485770	0.891735
N104	N	1.321678	-0.527575	0.846288
H105	H	1.639326	-0.970918	1.105554
C106	C	1.132920	-0.773395	0.646917
N107	N	1.178290	-0.731600	0.702687
H108	H	0.819809	-0.278985	0.372219
C109	C	1.658846	-0.985304	0.890834
N110	N	1.714508	-1.027146	0.845465
C111	C	1.383157	-0.778318	1.236051
N112	N	1.383006	-0.778338	1.326961
C113	C	1.248540	-0.980106	0.371460
N114	N	1.339450	-0.980077	0.371596
H115	H	1.261629	-0.686657	1.104961
C116	C	0.902494	-0.773462	0.646540
N117	N	0.856950	-0.731685	0.702149
H118	H	1.653014	-0.278877	1.205982
H119	H	1.118547	-0.471590	0.628134
C120	C	1.377430	-0.485709	1.122161
N121	N	1.321755	-0.527487	1.167629
H122	H	0.919292	-0.187334	0.250469
