data_functionalizedCrystal
_audit_creation_method	'MofGen! by Chris Wilmer'
_symmetry_space_group_name_H-M	'P1'
_symmetry_Int_Tables_number	1
_symmetry_cell_setting	triclinic
loop_
_symmetry_equiv_pos_as_xyz
  x,y,z
_cell_length_a	19.805407
_cell_length_b	13.031981
_cell_length_c	13.032328
_cell_angle_alpha	90.932769
_cell_angle_beta	82.839302
_cell_angle_gamma	97.193278
loop_
_atom_site_label
_atom_site_type_symbol
_atom_site_fract_x
_atom_site_fract_y
_atom_site_fract_z
Zn1	Zn	0.951485	-0.483273	0.529479
Zn2	Zn	1.451485	0.016727	1.029479
Zn3	Zn	0.955020	-0.633465	0.335651
Zn4	Zn	1.455020	-0.133465	0.835651
Zn5	Zn	0.854239	-0.461486	0.357520
Zn6	Zn	1.354239	0.038514	0.857520
Zn7	Zn	0.825948	-0.655231	0.507564
Zn8	Zn	1.325948	-0.155231	1.007564
O9	O	0.896673	-0.558364	0.432554
O10	O	1.396673	-0.058364	0.932554
O11	O	1.046668	-0.503205	0.503787
O12	O	1.546668	-0.003205	1.003787
O13	O	0.954970	-0.592424	0.194640
O14	O	1.454970	-0.092424	0.694640
O15	O	0.877500	-0.320438	0.398654
O16	O	1.377500	0.179562	0.898654
O17	O	1.049265	-0.613550	0.361383
O18	O	1.549265	-0.113550	0.861383
O19	O	0.948945	-0.336445	0.524992
O20	O	1.448945	0.163555	1.024992
O21	O	0.880927	-0.466072	0.210707
O22	O	1.380927	0.033928	0.710707
O23	O	0.755772	-0.487178	0.377404
O24	O	1.255772	0.012822	0.877404
O25	O	0.829281	-0.650648	0.654383
O26	O	1.329281	-0.150648	1.154383
O27	O	0.734987	-0.629522	0.487641
O28	O	1.234987	-0.129522	0.987641
O29	O	0.921513	-0.524311	0.670484
O30	O	1.421513	-0.024311	1.170484
O31	O	0.927537	-0.780290	0.340132
O32	O	1.427537	-0.280290	0.840132
O33	O	0.832709	-0.796282	0.466436
O34	O	1.332709	-0.296282	0.966436
C35	C	0.720821	-0.558348	0.432518
C36	C	1.220821	-0.058348	0.932518
C37	C	0.645587	-0.558370	0.432524
C38	C	1.145587	-0.058370	0.932524
C39	C	0.182423	-0.501048	0.506829
C40	C	0.682423	-0.001048	1.006829
C41	C	0.253112	-0.501049	0.506821
C42	C	0.753112	-0.001049	1.006821
C43	C	0.289819	-0.558384	0.432585
C44	C	0.789819	-0.058384	0.932585
C45	C	0.255832	-0.615729	0.358358
C46	C	0.755832	-0.115729	0.858358
C47	C	0.185143	-0.615734	0.358371
C48	C	0.685143	-0.115734	0.858371
C49	C	0.540911	-0.615714	0.358305
C50	C	1.040911	-0.115714	0.858305
C51	C	0.611605	-0.615703	0.358295
C52	C	1.111605	-0.115703	0.858295
C53	C	0.608880	-0.501030	0.506754
C54	C	1.108880	-0.001030	1.006754
C55	C	0.538191	-0.501034	0.506767
C56	C	1.038191	-0.001034	1.006767
C57	C	0.504210	-0.558384	0.432544
C58	C	1.004210	-0.058384	0.932544
C59	C	0.427560	-0.558384	0.432555
C60	C	0.927560	-0.058384	0.932555
C61	C	0.366468	-0.558379	0.432569
C62	C	0.866468	-0.058379	0.932569
C63	C	0.877453	-0.825611	0.398555
C64	C	1.377453	-0.325611	0.898555
C65	C	0.869290	-0.939944	0.384045
C66	C	1.369290	-0.439944	0.884045
C67	C	0.900968	-0.998762	0.440147
C68	C	1.400968	-0.498762	0.940147
C69	C	0.892531	-1.116932	0.425152
C70	C	1.392531	-0.616932	0.925152
C71	C	1.073211	-0.558380	0.432590
C72	C	1.573211	-0.058380	0.932590
C73	C	1.148441	-0.558387	0.432606
C74	C	1.648441	-0.058387	0.932606
C75	C	0.871847	-0.592338	0.700791
C76	C	1.371847	-0.092338	1.200791
C77	C	0.861267	-0.606815	0.815098
C78	C	1.361267	-0.106815	1.315098
C79	C	0.915984	-0.290076	0.466707
C80	C	1.415984	0.209924	0.966707
C81	C	0.924213	-0.175748	0.481261
C82	C	1.424213	0.324252	0.981261
C83	C	0.921447	-0.524448	0.165369
C84	C	1.421447	-0.024448	0.665369
C85	C	0.932178	-0.509680	0.051099
C86	C	1.432178	-0.009680	0.551099
C87	C	0.891260	-0.565730	0.992169
C88	C	1.391260	-0.065730	1.492169
C89	C	0.902191	-0.550758	0.874027
C90	C	1.402191	-0.050758	1.374027
H91	H	0.157476	-0.662427	0.297933
H92	H	0.657476	-0.162427	0.797933
H93	H	0.975299	-0.450606	1.014089
H94	H	1.475299	0.049394	1.514089
H95	H	0.152542	-0.454353	0.567275
H96	H	0.652542	0.045647	1.067275
H97	H	0.280776	-0.454362	0.567264
H98	H	0.780776	0.045638	1.067264
H99	H	0.508308	-0.454342	0.567215
H100	H	1.008308	0.045658	1.067215
H101	H	0.934331	-0.961637	0.499284
H102	H	1.434331	-0.461637	0.999284
H103	H	0.636555	-0.454337	0.567193
H104	H	1.136555	0.045663	1.067193
H105	H	0.859158	-1.154057	0.366020
H106	H	1.359158	-0.654057	0.866020
N107	N	0.968414	-1.126580	0.559595
N108	N	1.468414	-0.626580	1.059595
H109	H	1.016938	-1.143151	0.541353
H110	H	1.516938	-0.643151	1.041353
H111	H	0.949685	-1.154536	0.630680
H112	H	1.449685	-0.654536	1.130680
N113	N	0.825094	-0.989119	0.305713
N114	N	1.325094	-0.489119	0.805713
H115	H	0.843767	-0.961183	0.234597
H116	H	1.343767	-0.461183	0.734597
H117	H	0.776582	-0.972536	0.324043
H118	H	1.276582	-0.472536	0.824043
N119	N	0.834121	-0.643954	1.041182
N120	N	1.334121	-0.143954	1.541182
H121	H	0.834405	-0.643552	1.118632
H122	H	1.334405	-0.143552	1.618632
H123	H	0.841074	-0.715069	1.013115
H124	H	1.341074	-0.215069	1.513115
N125	N	0.651199	-0.677543	0.278222
N126	N	1.151199	-0.177543	0.778222
H127	H	0.618946	-0.713877	0.231204
H128	H	1.118946	-0.213877	0.731204
H129	H	0.673242	-0.730493	0.313941
H130	H	1.173242	-0.230493	0.813941
N131	N	0.959324	-0.472514	0.825020
N132	N	1.459324	0.027486	1.325020
H133	H	0.959038	-0.472914	0.747570
H134	H	1.459038	0.027086	1.247570
H135	H	1.004787	-0.490898	0.841715
H136	H	1.504787	0.009102	1.341715
H137	H	0.818134	-0.665880	0.852105
H138	H	1.318134	-0.165880	1.352105
H139	H	0.285724	-0.662417	0.297917
H140	H	0.785724	-0.162417	0.797917
N141	N	0.504266	-0.677559	0.278248
N142	N	1.004266	-0.177559	0.778248
H143	H	0.538248	-0.713872	0.231216
H144	H	1.038248	-0.213872	0.731216
H145	H	0.482345	-0.629596	0.236067
H146	H	0.982345	-0.129596	0.736067
