data_functionalizedCrystal
_audit_creation_method	'MofGen! by Chris Wilmer'
_symmetry_space_group_name_H-M	'P1'
_symmetry_Int_Tables_number	1
_symmetry_cell_setting	triclinic
loop_
_symmetry_equiv_pos_as_xyz
  x,y,z
_cell_length_a	6.817900
_cell_length_b	16.306198
_cell_length_c	16.305550
_cell_angle_alpha	95.373122
_cell_angle_beta	103.455250
_cell_angle_gamma	103.467075
loop_
_atom_site_label
_atom_site_type_symbol
_atom_site_fract_x
_atom_site_fract_y
_atom_site_fract_z
V1	V	-4.026246	-0.117432	-0.263332
O2	O	-4.013841	0.004910	-0.258012
O3	O	-3.977698	-0.232142	-0.261826
O4	O	-3.977652	-0.115947	-0.378045
O5	O	-4.013887	-0.112090	-0.140988
V6	V	-4.509919	-0.102760	-0.248662
O7	O	-4.287177	-0.149615	-0.295509
O8	O	-4.699185	-0.070577	-0.216485
O9	O	-4.335260	0.011951	-0.250168
O10	O	-4.639720	-0.225102	-0.253982
O11	O	-4.639675	-0.108102	-0.371006
O12	O	-4.335306	-0.104245	-0.133949
C13	C	-3.822669	-0.260096	-0.257748
C14	C	-3.864260	-0.353876	-0.257281
C15	C	-4.015214	-0.694623	-0.255576
C16	C	-4.219298	-0.664089	-0.260538
C17	C	-4.176361	-0.566600	-0.261349
C18	C	-3.940325	-0.525574	-0.256421
C19	C	-3.888744	-0.571230	-0.334676
C20	C	-3.933440	-0.668848	-0.334288
C21	C	-3.845294	-0.643281	-0.172946
C22	C	-3.805619	-0.545629	-0.172460
C23	C	-3.897991	-0.430035	-0.256902
C24	C	-4.057544	-0.790162	-0.255101
C25	C	-3.822610	-0.111876	-0.405996
C26	C	-3.864161	-0.111421	-0.499776
C27	C	-4.015248	-0.109658	-0.840517
C28	C	-3.779200	-0.104423	-0.799575
C29	C	-3.736007	-0.105246	-0.702082
C30	C	-3.940291	-0.110532	-0.671472
C31	C	-4.107324	-0.193848	-0.722311
C32	C	-4.149188	-0.193376	-0.819859
C33	C	-4.070003	-0.032243	-0.794476
C34	C	-4.022074	-0.031583	-0.696632
C35	C	-3.897941	-0.111029	-0.575935
C36	C	-4.057607	-0.109167	-0.936055
C37	C	-4.153632	0.039900	-0.254244
C38	C	-4.091278	0.133679	-0.254716
C39	C	-4.153691	-0.108318	-0.105994
C40	C	-4.091377	-0.108769	-0.012212
H41	H	-3.609509	-0.045342	-0.666906
N42	N	-3.746433	-0.694411	-0.334084
N43	N	-3.743874	-0.747871	-0.393736
H44	H	-3.611804	-0.765922	-0.393600
H45	H	-4.242068	-0.035337	-0.821300
H46	H	-4.052604	-0.703043	-0.396498
H47	H	-3.985083	-0.558145	-0.396811
H48	H	-4.051891	-0.252469	-0.705648
N49	N	-3.955334	0.046945	-0.811049
N50	N	-3.831850	0.047285	-0.857002
H51	H	-3.750844	0.103208	-0.868707
H52	H	-4.169362	-0.030547	-0.675281
H53	H	-4.346076	-0.699797	-0.320147
N54	N	-3.654405	-0.667325	-0.167383
N55	N	-3.578434	-0.698986	-0.104507
H56	H	-3.443629	-0.715973	-0.100583
N57	N	-3.722622	-0.174188	-0.839295
N58	N	-3.737981	-0.183179	-0.917704
H59	H	-3.698032	-0.232451	-0.945761
N60	N	-3.870212	0.045720	-0.653303
N61	N	-3.702339	0.042747	-0.604063
H62	H	-3.595083	0.097342	-0.573454
N63	N	-4.309493	-0.551452	-0.336939
N64	N	-4.434434	-0.612935	-0.389263
H65	H	-4.528465	-0.602239	-0.442653
N66	N	-3.646133	-0.028926	-0.814946
N67	N	-3.649295	-0.016948	-0.889794
H68	H	-3.555344	0.036374	-0.900670
H69	H	-4.260480	-0.200729	-0.703416
N70	N	-3.587389	-0.509314	-0.161838
N71	N	-3.501316	-0.530921	-0.217072
H72	H	-3.347188	-0.505276	-0.209585
H73	H	-4.286051	-0.680462	-0.204400
N74	N	-3.652671	-0.175826	-0.681829
N75	N	-3.626282	-0.224634	-0.739740
H76	H	-3.567428	-0.274486	-0.725438
H77	H	-4.113043	-0.251982	-0.850391
N78	N	-3.674727	-0.537918	-0.333881
N79	N	-3.557552	-0.480017	-0.275492
H80	H	-3.406398	-0.456488	-0.274928
N81	N	-3.907404	-0.664050	-0.097861
N82	N	-4.077678	-0.716953	-0.104340
H83	H	-4.121567	-0.731624	-0.051315
H84	H	-4.221391	-0.535490	-0.205421
N85	N	-3.853753	-0.507057	-0.099787
N86	N	-3.986737	-0.464940	-0.109727
H87	H	-4.020740	-0.437695	-0.058403
N88	N	-4.367248	-0.202539	-0.855025
N89	N	-4.426317	-0.145685	-0.892599
H90	H	-4.580321	-0.152164	-0.917436
