data_functionalizedCrystal
_audit_creation_method	'MofGen! by Chris Wilmer'
_symmetry_space_group_name_H-M	'P1'
_symmetry_Int_Tables_number	1
_symmetry_cell_setting	triclinic
loop_
_symmetry_equiv_pos_as_xyz
  x,y,z
_cell_length_a	6.394989
_cell_length_b	17.699083
_cell_length_c	16.176319
_cell_angle_alpha	90.001389
_cell_angle_beta	90.003737
_cell_angle_gamma	84.890363
loop_
_atom_site_label
_atom_site_type_symbol
_atom_site_fract_x
_atom_site_fract_y
_atom_site_fract_z
O1	O	-0.264132	-1.006774	-0.068625
O2	O	-0.298496	-0.786747	-0.068651
O3	O	0.022766	-0.899883	-0.068638
O4	O	-0.585394	-0.893637	-0.068638
O5	O	0.022787	-0.899867	0.068855
O6	O	-0.298475	-0.786730	0.068842
O7	O	-0.264111	-1.006758	0.068868
Cu8	Cu	-0.281291	-0.896743	0.081409
Cu9	Cu	-0.281315	-0.896762	-0.081193
O10	O	-0.585373	-0.893621	0.068855
C11	C	-0.297254	-0.758529	0.000092
C12	C	-0.293560	-0.674473	0.000081
C13	C	-0.265353	-1.034976	0.000123
C14	C	-0.269047	-1.119031	0.000128
N15	N	-0.281273	-0.896735	0.195774
C16	C	0.100592	-0.898640	0.000105
C17	C	0.336808	-0.894866	0.000104
N18	N	-0.281317	-0.896776	-0.195558
C19	C	-0.482134	-0.627777	0.000082
C20	C	-0.478651	-0.548798	0.000092
C21	C	-0.286591	-0.516517	0.000097
C22	C	-0.098003	-0.563220	0.000099
C23	C	-0.101488	-0.642197	0.000094
C24	C	-0.083942	-0.244713	0.000119
C25	C	-0.080470	-0.165730	0.000122
C26	C	-0.461104	-0.151314	0.000118
C27	C	-0.464590	-0.230291	0.000113
C28	C	-0.276002	-0.276987	0.000119
C29	C	-0.279782	-0.362625	0.000109
C30	C	-0.282810	-0.430881	0.000101
C31	C	-0.139076	-0.946848	0.239044
C32	C	-0.139074	-0.946852	0.325591
C33	C	-0.281280	-0.896746	0.368867
C34	C	-0.423484	-0.846627	0.325591
C35	C	-0.423474	-0.846620	0.239045
C36	C	-0.423523	-0.846653	0.674619
C37	C	-0.423526	-0.846666	0.761171
C38	C	-0.139123	-0.946885	0.761165
C39	C	-0.139113	-0.946878	0.674620
C40	C	-0.281308	-0.896757	0.631351
C41	C	-0.281306	-0.896753	0.537507
C42	C	-0.281294	-0.896753	0.462710
H43	H	-0.638531	-0.654053	0.000078
O44	O	0.099305	-0.290032	-0.000027
C45	C	0.215946	-0.275100	-0.071224
H46	H	0.105529	-0.249176	-0.120996
H47	H	0.336623	-0.233746	-0.055124
C48	C	0.465111	-0.381512	-0.042383
C49	C	0.329493	-0.349678	-0.103516
H50	H	0.535162	-0.427513	-0.062301
H51	H	0.386534	-0.391570	0.005586
H52	H	0.565657	-0.347043	-0.028971
H53	H	0.228936	-0.384142	-0.116919
H54	H	0.408057	-0.339627	-0.151488
H55	H	0.058376	-0.536930	0.000114
O56	O	-0.644112	-0.105842	0.000156
C57	C	-0.599869	-0.029212	0.000144
H58	H	-0.435830	-0.024620	0.026180
H59	H	-0.607903	-0.006455	-0.065817
C60	C	-0.963751	0.011911	0.022084
C61	C	-0.762283	0.017552	0.054069
H62	H	-1.063940	0.040759	0.055344
H63	H	-0.993562	-0.039716	0.022090
H64	H	-0.970416	0.030875	-0.032882
H65	H	-0.755613	-0.001420	0.109030
H66	H	-0.732475	0.069177	0.054074
H67	H	0.052069	-0.680217	0.000093
H68	H	0.075937	-0.139450	0.000126
O69	O	-0.001244	-0.995567	0.367719
C70	C	-0.112966	-1.043330	0.417755
H71	H	-0.276508	-1.014739	0.430713
H72	H	-0.126973	-1.099396	0.384397
C73	C	0.205697	-1.093507	0.484056
C74	C	0.004839	-1.058387	0.499977
H75	H	0.278367	-1.102798	0.534772
H76	H	0.280970	-1.061331	0.450343
H77	H	0.193997	-1.140225	0.456255
H78	H	0.016542	-1.011667	0.527767
H79	H	-0.070429	-1.090556	0.533696
H80	H	-0.023284	-0.987653	0.203815
O81	O	-0.561335	-0.797919	0.367719
C82	C	-0.449638	-0.750160	0.417779
H83	H	-0.286095	-0.778748	0.430746
H84	H	-0.435636	-0.694088	0.384435
C85	C	-0.768330	-0.700003	0.484059
C86	C	-0.567469	-0.735118	0.499991
H87	H	-0.841016	-0.690721	0.534770
H88	H	-0.843585	-0.732177	0.450331
H89	H	-0.756633	-0.653280	0.456271
H90	H	-0.579168	-0.781844	0.527770
H91	H	-0.492219	-0.702952	0.533726
H92	H	-0.023333	-0.987694	0.796404
O93	O	-0.561739	-0.797912	0.803082
C94	C	-0.687274	-0.753683	0.746335
H95	H	-0.601642	-0.752008	0.684645
H96	H	-0.842363	-0.779724	0.737121
C97	C	-0.835749	-0.674513	0.855896
C98	C	-0.730567	-0.672450	0.780129
H99	H	-0.862464	-0.624405	0.876743
H100	H	-0.751181	-0.704312	0.894129
H101	H	-0.964979	-0.696217	0.848208
H102	H	-0.601329	-0.650756	0.787821
H103	H	-0.815115	-0.642645	0.741899
O104	O	-0.561812	-0.797916	0.197138
C105	C	-0.687298	-0.753679	0.253890
H106	H	-0.689562	-0.784735	0.315579
H107	H	-0.619669	-0.696815	0.263106
C108	C	-0.909889	-0.702077	0.144337
C109	C	-0.912684	-0.740223	0.220102
H110	H	-1.048916	-0.693773	0.123494
H111	H	-0.825343	-0.731877	0.106101
H112	H	-0.853522	-0.654695	0.152027
H113	H	-0.969025	-0.787608	0.212409
H114	H	-0.997245	-0.710430	0.258336
H115	H	-0.023323	-0.987682	0.639387
H116	H	-0.539307	-0.805845	0.639397
H117	H	-0.620984	-0.256569	0.000106
H118	H	-0.632207	-0.510780	0.000092
