data_functionalizedCrystal
_audit_creation_method	'MofGen! by Chris Wilmer'
_symmetry_space_group_name_H-M	'P1'
_symmetry_Int_Tables_number	1
_symmetry_cell_setting	triclinic
loop_
_symmetry_equiv_pos_as_xyz
  x,y,z
_cell_length_a	15.995350
_cell_length_b	13.339070
_cell_length_c	11.804365
_cell_angle_alpha	74.875130
_cell_angle_beta	78.166997
_cell_angle_gamma	80.439165
loop_
_atom_site_label
_atom_site_type_symbol
_atom_site_fract_x
_atom_site_fract_y
_atom_site_fract_z
O1	O	0.407602	-1.362724	0.099048
O2	O	0.352506	-1.068197	0.099044
O3	O	0.260037	-1.223511	0.099045
O4	O	0.500071	-1.207410	0.099047
O5	O	0.284347	-1.182623	-0.099011
O6	O	0.376816	-1.027308	-0.099012
O7	O	0.431912	-1.321836	-0.099008
Cu8	Cu	0.406583	-1.170839	-0.117094
Cu9	Cu	0.377835	-1.219194	0.117130
O10	O	0.524381	-1.166521	-0.099009
C11	C	0.355354	-1.010063	0.000015
C12	C	0.327613	-0.897761	0.000014
C13	C	0.240842	-1.202402	0.000019
C14	C	0.147427	-1.200408	0.000026
C15	C	0.429063	-1.379970	0.000023
C16	C	0.456804	-1.492274	0.000032
C17	C	-0.191985	-1.193240	0.000022
C18	C	-0.170302	-1.082719	0.000464
C19	C	-0.073093	-1.084623	0.000018
C20	C	-0.023599	-1.196795	0.000025
C21	C	-0.038120	-1.228004	-0.113072
C22	C	-0.135389	-1.225206	-0.113167
C23	C	-0.162861	-1.273989	0.112060
C24	C	-0.066105	-1.274271	0.113555
C25	C	0.071567	-1.198810	0.000022
C26	C	-0.287149	-1.191227	0.000016
C27	C	0.543575	-1.187631	0.000019
C28	C	0.636989	-1.189627	0.000020
N29	N	0.426805	-1.136835	-0.281835
C30	C	0.543314	-0.532972	0.000035
C31	C	0.569380	-0.638486	0.000040
C32	C	0.508941	-0.703310	0.000033
C33	C	0.422430	-0.662610	0.000022
C34	C	0.396360	-0.557088	0.000026
C35	C	0.361987	-0.727425	0.000024
C36	C	0.275476	-0.686725	0.000013
C37	C	0.249410	-0.581213	0.000017
C38	C	0.309850	-0.516389	0.000024
C39	C	0.388057	-0.832947	0.000020
C40	C	0.241103	-0.857062	0.000012
C41	C	0.215036	-0.751549	0.000007
C42	C	0.309033	-1.334859	-0.655782
C43	C	0.293731	-1.360581	-0.531121
C44	C	0.326998	-1.304647	-0.468793
C45	C	0.375570	-1.222986	-0.531140
C46	C	0.390878	-1.197267	-0.655814
C47	C	0.408844	-1.167054	-0.468824
C48	C	0.457415	-1.085394	-0.531171
C49	C	0.472721	-1.059678	-0.655833
C50	C	0.439454	-1.115613	-0.718160
C51	C	0.393535	-1.192774	-0.344150
C52	C	0.475380	-1.055181	-0.344182
C53	C	0.490682	-1.029459	-0.468843
N54	N	0.357608	-1.253205	0.281871
H55	H	-0.209060	-1.055252	0.081568
H56	H	0.144597	-0.718397	0.000007
H57	H	-0.045291	-1.024682	-0.081194
H58	H	0.512278	-0.993193	-0.706596
H59	H	0.254186	-1.427069	-0.480363
O60	O	0.537758	-0.950072	-0.529546
C61	C	0.487232	-0.872783	-0.601652
H62	H	0.433383	-0.909231	-0.620311
H63	H	0.458242	-0.807926	-0.553628
C64	C	0.610078	-0.781968	-0.697166
C65	C	0.543945	-0.826736	-0.720091
H66	H	0.645061	-0.753559	-0.770223
H67	H	0.644119	-0.834036	-0.648584
H68	H	0.585910	-0.727926	-0.657143
H69	H	0.568113	-0.880784	-0.760100
H70	H	0.509909	-0.774675	-0.768683
H71	H	-0.064585	-1.058474	0.081090
H72	H	0.451909	-1.094667	-0.819670
H73	H	0.314538	-1.325593	-0.367288
H74	H	0.502471	-1.009636	-0.293435
H75	H	0.281957	-1.380399	-0.706538
O76	O	0.182502	-0.920154	-0.000048
C77	C	0.224058	-1.022018	-0.000022
H78	H	0.295367	-1.018319	-0.037520
H79	H	0.216313	-1.072153	0.094994
C80	C	0.096007	-1.075104	-0.031639
C81	C	0.183588	-1.070560	-0.077703
H82	H	0.071041	-1.105050	-0.079551
H83	H	0.068008	-1.006478	-0.031651
H84	H	0.089565	-1.116881	0.047541
H85	H	0.190028	-1.028773	-0.156875
H86	H	0.211587	-1.139181	-0.077706
O87	O	-0.155892	-1.157061	-0.214101
C88	C	-0.188431	-1.210444	-0.281047
H89	H	-0.164353	-1.297363	-0.255948
H90	H	-0.261744	-1.199173	-0.261328
C91	C	-0.187038	-1.059816	-0.445542
C92	C	-0.157459	-1.166570	-0.414723
H93	H	-0.167938	-1.032750	-0.528000
H94	H	-0.165120	-1.023848	-0.400439
H95	H	-0.248132	-1.050437	-0.429101
H96	H	-0.096367	-1.175947	-0.431151
H97	H	-0.179367	-1.202539	-0.459833
O98	O	0.002246	-1.325214	-0.118310
C99	C	0.063084	-1.318901	-0.224118
H100	H	0.044514	-1.245028	-0.292691
H101	H	0.129464	-1.316186	-0.204554
C102	C	0.087764	-1.506191	-0.189274
C103	C	0.064952	-1.415464	-0.273499
H104	H	0.088920	-1.565758	-0.219732
H105	H	0.046778	-1.510446	-0.117986
H106	H	0.143078	-1.503915	-0.172978
H107	H	0.009634	-1.417736	-0.289782
H108	H	0.105928	-1.411213	-0.344791
O109	O	0.602021	-0.470090	0.000258
C110	C	0.640512	-0.509732	0.102822
H111	H	0.595889	-0.560608	0.174507
H112	H	0.704309	-0.558663	0.079630
C113	C	0.711462	-0.355727	0.061305
C114	C	0.656652	-0.418206	0.149353
H115	H	0.721422	-0.299271	0.090006
H116	H	0.685533	-0.329020	-0.007797
H117	H	0.764620	-0.396514	0.041987
H118	H	0.603492	-0.377422	0.168659
H119	H	0.682572	-0.444904	0.218460
O120	O	0.346216	-1.271937	-0.283505
C121	C	0.273081	-1.232569	-0.211491
H122	H	0.285756	-1.157300	-0.192786
H123	H	0.215531	-1.215699	-0.259618
C124	C	0.238243	-1.406477	-0.116057
C125	C	0.253813	-1.314035	-0.093075
H126	H	0.226354	-1.456730	-0.043014
H127	H	0.287513	-1.433001	-0.164577
H128	H	0.190286	-1.392404	-0.156165
H129	H	0.301774	-1.328107	-0.052981
H130	H	0.204550	-1.287516	-0.044545
O131	O	0.653374	-0.678104	0.000280
C132	C	0.660241	-0.759603	0.102852
H133	H	0.601874	-0.749450	0.174522
H134	H	0.663122	-0.838031	0.079666
C135	C	0.814382	-0.768871	0.061377
C136	C	0.742698	-0.756396	0.149407
H137	H	0.865247	-0.766897	0.090092
H138	H	0.809757	-0.713966	-0.007731
H139	H	0.816772	-0.834227	0.042063
H140	H	0.740304	-0.691036	0.168708
H141	H	0.747325	-0.811290	0.218519
H142	H	0.178966	-0.548081	0.000021
O143	O	-0.194072	-1.010482	-0.095847
C144	C	-0.230267	-1.059380	-0.163604
H145	H	-0.206113	-1.146469	-0.144364
H146	H	-0.303376	-1.048293	-0.138860
C147	C	-0.233339	-0.903162	-0.320663
C148	C	-0.203667	-1.010125	-0.297040
H149	H	-0.216935	-0.872778	-0.402973
H150	H	-0.208957	-0.870217	-0.275013
H151	H	-0.294261	-0.893938	-0.300035
H152	H	-0.142745	-1.019347	-0.317655
H153	H	-0.228038	-1.043071	-0.342697
O154	O	-0.209880	-1.252135	0.214442
C155	C	-0.182157	-1.325865	0.313037
H156	H	-0.149688	-1.400291	0.284563
H157	H	-0.134437	-1.292031	0.348136
C158	C	-0.300075	-1.260160	0.446760
C159	C	-0.260202	-1.351575	0.411790
H160	H	-0.348215	-1.276017	0.507679
H161	H	-0.318752	-1.210484	0.380336
H162	H	-0.260300	-1.231974	0.476002
H163	H	-0.299974	-1.379752	0.382536
H164	H	-0.241534	-1.401257	0.478212
H165	H	-0.148142	-1.305357	-0.118294
O166	O	-0.002565	-1.161929	-0.213454
C167	C	-0.041182	-1.058708	-0.214752
H168	H	-0.107383	-1.060467	-0.156164
H169	H	0.000824	-1.016898	-0.179271
C170	C	0.030625	-0.997894	-0.415197
C171	C	-0.050687	-1.000056	-0.343247
H172	H	0.024766	-0.961712	-0.494459
H173	H	0.056645	-1.067436	-0.414322
H174	H	0.065622	-0.963055	-0.385616
H175	H	-0.085678	-1.034906	-0.372820
H176	H	-0.076713	-0.930519	-0.344130
H177	H	0.288631	-0.430470	0.000019
H178	H	-0.058393	-1.251655	0.197221
O179	O	0.472093	-0.872386	0.000184
C180	C	0.497821	-0.860466	0.102778
H181	H	0.453797	-0.794348	0.136977
H182	H	0.493494	-0.936356	0.174601
C183	C	0.645306	-0.915449	0.029620
C184	C	0.591240	-0.834236	0.071619
H185	H	0.702932	-0.899274	0.010404
H186	H	0.627973	-0.923484	-0.039497
H187	H	0.641690	-0.978683	0.089481
H188	H	0.594848	-0.771007	0.011754
H189	H	0.608576	-0.826189	0.140727
H190	H	-0.032578	-1.357482	0.120388
H191	H	-0.175769	-1.355701	0.112825
O192	O	0.534175	-0.805788	-0.000127
C193	C	0.515197	-0.826465	-0.102725
H194	H	0.461471	-0.765637	-0.136926
H195	H	0.575088	-0.822732	-0.174546
C196	C	0.552123	-1.010975	-0.029574
C197	C	0.486131	-0.936270	-0.071574
H198	H	0.534198	-1.078709	-0.010362
H199	H	0.564913	-0.997045	0.039547
H200	H	0.602027	-1.007850	-0.089432
H201	H	0.436233	-0.939386	-0.011712
H202	H	0.473333	-0.950203	-0.140685
