data_functionalizedCrystal
_audit_creation_method	'MofGen! by Chris Wilmer'
_symmetry_space_group_name_H-M	'P1'
_symmetry_Int_Tables_number	1
_symmetry_cell_setting	triclinic
loop_
_symmetry_equiv_pos_as_xyz
  x,y,z
_cell_length_a	13.032721
_cell_length_b	19.077142
_cell_length_c	19.076919
_cell_angle_alpha	89.925643
_cell_angle_beta	99.138159
_cell_angle_gamma	84.799210
loop_
_atom_site_label
_atom_site_type_symbol
_atom_site_fract_x
_atom_site_fract_y
_atom_site_fract_z
Zn1	Zn	-0.505384	-1.013394	-0.481868
Zn2	Zn	-0.673341	-1.003120	-0.378125
Zn3	Zn	-0.491387	-0.901855	-0.358511
Zn4	Zn	-0.672708	-0.880998	-0.490822
O5	O	-0.585705	-0.949842	-0.427331
O6	O	-0.533786	-1.109819	-0.472568
O7	O	-0.643612	-0.994116	-0.276734
O8	O	-0.347070	-0.929679	-0.362918
O9	O	-0.657184	-1.102271	-0.396348
O10	O	-0.357353	-1.011626	-0.453548
O11	O	-0.509931	-0.919717	-0.262323
O12	O	-0.509318	-0.801300	-0.371600
O13	O	-0.656105	-0.894132	-0.588423
O14	O	-0.642533	-0.785977	-0.468809
O15	O	-0.533172	-0.991402	-0.581845
O16	O	-0.819431	-0.973892	-0.405030
O17	O	-0.818966	-0.884170	-0.487828
C18	C	-0.574339	-0.768283	-0.419048
C19	C	-0.569502	-0.690608	-0.415523
C20	C	-0.857102	-0.925671	-0.449545
C21	C	-0.973212	-0.915394	-0.459075
C22	C	-0.636685	-0.646151	-0.464416
C23	C	-0.632127	-0.573169	-0.461106
C24	C	-0.560391	-0.544645	-0.408901
C25	C	-0.493201	-0.589107	-0.360006
C26	C	-0.497755	-0.662089	-0.363319
C27	C	-0.539319	-0.327229	-0.393574
C28	C	-0.534773	-0.254241	-0.390263
C29	C	-0.673698	-0.238308	-0.491365
C30	C	-0.678250	-0.311291	-0.494671
C31	C	-0.611056	-0.355748	-0.445778
N32	N	-0.555732	-0.470045	-0.405515
N33	N	-0.615710	-0.430347	-0.449168
C34	C	-1.025178	-0.955241	-0.422391
C35	C	-1.145184	-0.944620	-0.432240
C36	C	-0.313250	-0.974125	-0.405047
C37	C	-0.197146	-0.984473	-0.395550
C38	C	-0.596129	-0.941587	-0.611465
C39	C	-0.600571	-0.938069	-0.689932
C40	C	-0.597111	-0.132110	-0.435638
C41	C	-0.601956	-0.209784	-0.439156
C42	C	-0.538657	-0.987057	-0.723373
C43	C	-0.542826	-0.983744	-0.797100
C44	C	-0.608916	-0.931444	-0.837386
C45	C	-0.670833	-0.882451	-0.803941
C46	C	-0.666658	-0.885762	-0.730214
C47	C	-0.628262	-0.916109	-1.058252
C48	C	-0.632435	-0.912803	-1.131984
C49	C	-0.504426	-1.014095	-1.125138
C50	C	-0.500261	-1.017404	-1.051411
C51	C	-0.562174	-0.968408	-1.017971
N52	N	-0.613182	-0.928058	-0.912748
N53	N	-0.557902	-0.971793	-0.942610
C54	C	-0.575249	-0.958112	-0.243909
C55	C	-0.570521	-0.961791	-0.165425
H56	H	-0.695104	-0.669370	-0.506926
O57	O	-1.198048	-0.894611	-0.478512
C58	C	-1.176316	-0.909002	-0.547404
H59	H	-1.149872	-0.967312	-0.551105
H60	H	-1.249701	-0.895084	-0.587851
H61	H	-1.111806	-0.876250	-0.558965
H62	H	-1.152797	-1.026456	-0.356852
H63	H	-1.017567	-0.873419	-0.497776
O64	O	-0.738913	-0.195199	-0.538959
C65	C	-0.721315	-0.211902	-0.608295
H66	H	-0.684558	-0.268400	-0.608917
H67	H	-0.798714	-0.206269	-0.646163
H68	H	-0.666444	-0.174543	-0.625873
O69	O	-0.464988	-0.226650	-0.339523
C70	C	-0.406674	-0.281536	-0.297069
H71	H	-0.408001	-0.332586	-0.328058
H72	H	-0.322621	-0.268105	-0.281937
H73	H	-0.442243	-0.288300	-0.246881
H74	H	-0.484842	-1.029647	-0.690577
O75	O	-0.688245	-0.868462	-1.025721
C76	C	-0.623525	-0.830559	-0.976139
H77	H	-0.542247	-0.832578	-0.991438
H78	H	-0.657886	-0.773451	-0.975929
H79	H	-0.618107	-0.854998	-0.920956
H80	H	-0.484613	-0.363416	-0.353757
H81	H	-0.686836	-0.536974	-0.500919
O82	O	-0.482651	-1.031407	-0.829475
C83	C	-0.423411	-1.078270	-0.778107
H84	H	-0.463374	-1.079234	-0.729162
H85	H	-0.416928	-1.133364	-0.801014
H86	H	-0.342028	-1.060108	-0.762606
H87	H	-0.446447	-1.059993	-1.018615
H88	H	-0.443042	-0.698286	-0.323509
O89	O	-0.735008	-0.831710	-0.843182
C90	C	-0.725401	-0.839281	-0.915425
H91	H	-0.695141	-0.895807	-0.925161
H92	H	-0.804934	-0.826307	-0.949626
H93	H	-0.668363	-0.801851	-0.929904
O94	O	-0.423566	-0.561476	-0.309204
C95	C	-0.443373	-0.580417	-0.241482
H96	H	-0.486742	-0.629901	-0.245664
H97	H	-0.366278	-0.591039	-0.203847
H98	H	-0.493112	-0.535631	-0.220171
H99	H	-0.454019	-1.053983	-1.152372
H100	H	-0.686256	-0.870212	-1.164784
H101	H	-0.717064	-0.845865	-0.702987
O102	O	-0.747791	-0.339083	-0.545417
C103	C	-0.693638	-0.384530	-0.588147
H104	H	-0.613699	-0.403627	-0.557345
H105	H	-0.739943	-0.431639	-0.603381
H106	H	-0.683482	-0.355077	-0.638267
O107	O	-0.972214	-1.005229	-0.376139
C108	C	-0.904090	-0.973065	-0.323573
H109	H	-0.933422	-0.915327	-0.319348
H110	H	-0.901246	-1.000936	-0.270309
H111	H	-0.822517	-0.976925	-0.338555
