data_functionalizedCrystal
_audit_creation_method	'MofGen! by Chris Wilmer'
_symmetry_space_group_name_H-M	'P1'
_symmetry_Int_Tables_number	1
_symmetry_cell_setting	triclinic
loop_
_symmetry_equiv_pos_as_xyz
  x,y,z
_cell_length_a	19.188905
_cell_length_b	23.532407
_cell_length_c	18.266242
_cell_angle_alpha	89.990464
_cell_angle_beta	89.983628
_cell_angle_gamma	82.991616
loop_
_atom_site_label
_atom_site_type_symbol
_atom_site_fract_x
_atom_site_fract_y
_atom_site_fract_z
O1	O	0.925934	0.071033	-0.061009
O2	O	1.425934	0.571033	0.438991
O3	O	0.722590	0.080619	-0.060985
O4	O	1.222590	0.580619	0.439015
O5	O	0.830394	-0.007093	-0.060984
O6	O	1.330394	0.492907	0.439016
O7	O	0.818130	0.158745	-0.061010
O8	O	1.318130	0.658745	0.438990
O9	O	0.830375	-0.007095	0.060778
O10	O	1.330375	0.492905	0.560778
O11	O	0.722571	0.080617	0.060777
O12	O	1.222571	0.580617	0.560777
O13	O	0.925915	0.071031	0.060753
O14	O	1.425915	0.571031	0.560753
Zn15	Zn	0.824240	0.075824	0.080097
Zn16	Zn	1.324240	0.575824	0.580097
Zn17	Zn	0.824265	0.075826	-0.080329
Zn18	Zn	1.324265	0.575826	0.419671
O19	O	0.818111	0.158743	0.060752
O20	O	1.318111	0.658743	0.560752
C21	C	0.696570	0.080310	-0.000101
C22	C	1.196570	0.580310	0.499899
C23	C	0.619067	0.079385	-0.000091
C24	C	1.119067	0.579385	0.499909
C25	C	0.582687	0.078942	-0.066465
C26	C	1.082687	0.578942	0.433535
C27	C	0.509867	0.078067	-0.066474
C28	C	1.009867	0.578067	0.433526
C29	C	0.473430	0.077623	-0.000105
C30	C	0.973430	0.577623	0.499895
C31	C	0.509819	0.078070	0.066278
C32	C	1.009819	0.578070	0.566278
C33	C	0.582637	0.078951	0.066285
C34	C	1.082637	0.578951	0.566285
N35	N	0.364510	0.043830	0.049292
N36	N	0.864510	0.543830	0.549292
N37	N	0.295336	0.042992	0.049281
N38	N	0.795336	0.542992	0.549281
C39	C	0.254032	0.074970	-0.000122
C40	C	0.754032	0.574970	0.499878
N41	N	0.284517	0.107811	-0.049525
N42	N	0.784517	0.607811	0.450475
N43	N	0.353698	0.108647	-0.049516
N44	N	0.853698	0.608647	0.450484
C45	C	0.394471	0.076668	-0.000105
C46	C	0.894471	0.576668	0.499895
C47	C	0.138691	0.073579	-0.066511
C48	C	0.638691	0.573579	0.433489
C49	C	0.065869	0.072707	-0.066517
C50	C	0.565869	0.572707	0.433483
C51	C	0.065823	0.072704	0.066237
C52	C	0.565823	0.572704	0.566237
C53	C	0.138644	0.073582	0.066241
C54	C	0.638644	0.573582	0.566241
C55	C	0.175074	0.074016	-0.000135
C56	C	0.675074	0.574016	0.499865
C57	C	0.830072	-0.028311	-0.000101
C58	C	1.330072	0.471689	0.499899
C59	C	0.829133	-0.091530	-0.000096
C60	C	1.329133	0.408470	0.499904
C61	C	0.887040	-0.490514	-0.000143
C62	C	1.387040	0.009486	0.499857
C63	C	0.886168	-0.549916	-0.000148
C64	C	1.386168	-0.049916	0.499852
O65	O	0.939848	-0.586551	-0.000181
O66	O	1.439848	-0.086551	0.499819
N67	N	0.822078	-0.572674	-0.000140
N68	N	1.322078	-0.072674	0.499860
C69	C	0.758857	-0.536026	-0.000134
C70	C	1.258857	-0.036026	0.499866
O71	O	0.704264	-0.560837	-0.000128
O72	O	1.204264	-0.060837	0.499872
C73	C	0.759730	-0.476625	-0.000134
C74	C	1.259730	0.023375	0.499866
C75	C	0.823824	-0.453871	-0.000134
C76	C	1.323824	0.046129	0.499866
C77	C	0.951129	-0.467759	-0.000144
C78	C	1.451129	0.032241	0.499856
C79	C	0.952000	-0.408362	-0.000137
C80	C	1.452000	0.091638	0.499863
C81	C	0.888784	-0.371718	-0.000129
C82	C	1.388784	0.128282	0.499871
C83	C	0.824696	-0.394473	-0.000127
C84	C	1.324696	0.105527	0.499873
C85	C	0.696509	-0.439978	-0.000133
C86	C	1.196509	0.060022	0.499867
C87	C	0.697388	-0.380574	-0.000133
C88	C	1.197388	0.119426	0.499867
C89	C	0.761482	-0.357820	-0.000134
C90	C	1.261482	0.142180	0.499866
C91	C	0.762351	-0.298432	-0.000112
C92	C	1.262351	0.201568	0.499888
N93	N	0.826440	-0.275674	-0.000120
N94	N	1.326440	0.224326	0.499880
C95	C	0.889657	-0.312317	-0.000129
C96	C	1.389657	0.187683	0.499871
C97	C	0.757029	-0.660772	-0.000136
C98	C	1.257029	-0.160772	0.499864
C99	C	0.756155	-0.720172	-0.000131
C100	C	1.256155	-0.220172	0.499869
C101	C	0.883466	-0.734058	-0.000146
C102	C	1.383466	-0.234058	0.499854
C103	C	0.884339	-0.674657	-0.000146
C104	C	1.384339	-0.174657	0.499854
C105	C	0.821118	-0.638014	-0.000144
C106	C	1.321118	-0.138014	0.499856
C107	C	0.891483	-0.187577	-0.000114
C108	C	1.391483	0.312423	0.499886
C109	C	0.892350	-0.128173	-0.000104
C110	C	1.392350	0.371827	0.499896
C111	C	0.765039	-0.114292	-0.000092
C112	C	1.265039	0.385708	0.499908
C113	C	0.764172	-0.173691	-0.000098
C114	C	1.264172	0.326309	0.499902
C115	C	0.827400	-0.210332	-0.000111
C116	C	1.327400	0.289668	0.499889
O117	O	0.708699	-0.261762	-0.000082
O118	O	1.208699	0.238238	0.499918
O119	O	0.944241	-0.287498	-0.000144
O120	O	1.444241	0.212502	0.499856
C121	C	0.951935	0.071340	-0.000133
C122	C	1.451935	0.571340	0.499867
C123	C	1.029437	0.072265	-0.000147
C124	C	1.529437	0.572265	0.499853
C125	C	0.818433	0.179961	-0.000132
C126	C	1.318433	0.679961	0.499868
C127	C	0.819372	0.243180	-0.000143
C128	C	1.319372	0.743180	0.499857
N129	N	0.824228	0.075822	0.189584
N130	N	1.324228	0.575822	0.689584
C131	C	0.866327	0.110278	0.227876
C132	C	1.366327	0.610278	0.727876
C133	C	0.866339	0.110276	0.304521
C134	C	1.366339	0.610276	0.804521
C135	C	0.824237	0.075826	0.342871
C136	C	1.324237	0.575826	0.842871
C137	C	0.782135	0.041363	0.304570
C138	C	1.282135	0.541363	0.804570
C139	C	0.782131	0.041361	0.227927
C140	C	1.282131	0.541361	0.727927
N141	N	0.763093	0.074428	0.463232
N142	N	1.263093	0.574428	0.963232
N143	N	0.763099	0.074433	0.536040
N144	N	1.263099	0.574433	1.036040
C145	C	0.824250	0.075829	0.573794
C146	C	1.324250	0.575829	1.073794
N147	N	0.885395	0.077230	0.535989
N148	N	1.385395	0.577230	1.035989
N149	N	0.885388	0.077228	0.463174
N150	N	1.385388	0.577228	0.963174
C151	C	0.824238	0.075824	0.425978
C152	C	1.324238	0.575824	0.925978
C153	C	0.866365	0.110285	0.695193
C154	C	1.366365	0.610285	1.195193
C155	C	0.866378	0.110280	0.771839
C156	C	1.366378	0.610280	1.271839
C157	C	0.782168	0.041369	0.771886
C158	C	1.282168	0.541369	1.271886
C159	C	0.782162	0.041371	0.695242
C160	C	1.282162	0.541371	1.195242
C161	C	0.824259	0.075832	0.656899
C162	C	1.324259	0.575832	1.156899
N163	N	0.824277	0.075828	0.810184
N164	N	1.324277	0.575828	1.310184
H165	H	0.036157	0.072347	0.120276
H166	H	0.536157	0.572347	0.620276
H167	H	0.480148	0.077710	0.120316
H168	H	0.980148	0.577710	0.620316
C169	C	0.575277	0.078858	0.197505
C170	C	1.075277	0.578858	0.697505
C171	C	0.622632	0.079431	0.139249
C172	C	1.122632	0.579431	0.639249
H173	H	0.599971	0.079150	0.242549
H174	H	1.099971	0.579150	0.742549
H175	H	0.541318	0.111718	0.194738
H176	H	1.041318	0.611718	0.694738
H177	H	0.552433	0.045310	0.194740
H178	H	1.052433	0.545310	0.694740
H179	H	0.645471	0.112981	0.142011
H180	H	1.145471	0.612981	0.642011
H181	H	0.656602	0.046568	0.142017
H182	H	1.156602	0.546568	0.642017
H183	H	1.004192	-0.389841	-0.000141
H184	H	1.504192	0.110159	0.499859
H185	H	0.612344	0.079296	-0.120514
H186	H	1.112344	0.579296	0.379486
C187	C	1.077052	-0.475503	-0.000146
C188	C	1.577052	0.024497	0.499854
C189	C	1.020625	-0.508032	-0.000147
C190	C	1.520625	-0.008032	0.499853
H191	H	1.119958	-0.500364	-0.000139
H192	H	1.619958	-0.000364	0.499861
H193	H	1.074750	-0.452044	-0.042607
H194	H	1.574750	0.047956	0.457393
H195	H	1.074721	-0.452046	0.042316
H196	H	1.574721	0.047954	0.542316
H197	H	1.022953	-0.531486	-0.042612
H198	H	1.522953	-0.031486	0.457388
H199	H	1.022928	-0.531500	0.042318
H200	H	1.522928	-0.031500	0.542318
C201	C	0.870206	0.186866	0.858018
C202	C	1.370206	0.686866	1.358018
C203	C	0.912659	0.148153	0.813937
C204	C	1.412659	0.648153	1.313937
H205	H	0.898780	0.210244	0.884011
H206	H	1.398780	0.710244	1.384011
H207	H	0.837915	0.210269	0.828128
H208	H	1.337915	0.710269	1.328128
H209	H	0.845139	0.166337	0.891820
H210	H	1.345139	0.666337	1.391820
H211	H	0.937722	0.168682	0.780131
H212	H	1.437722	0.668682	1.280131
H213	H	0.944962	0.124747	0.843830
H214	H	1.444962	0.624747	1.343830
C215	C	0.949567	0.178390	0.235534
C216	C	1.449567	0.678390	0.735534
C217	C	0.912610	0.148149	0.185731
C218	C	1.412610	0.648149	0.685731
H219	H	0.978144	0.201766	0.209512
H220	H	1.478144	0.701766	0.709512
H221	H	0.917274	0.201795	0.265428
H222	H	1.417274	0.701795	0.765428
H223	H	0.978358	0.152115	0.265428
H224	H	1.478358	0.652115	0.765428
H225	H	0.883815	0.174424	0.155841
H226	H	1.383815	0.674424	0.655841
H227	H	0.944907	0.124742	0.155824
H228	H	1.444907	0.624742	0.655824
H229	H	0.747847	0.013302	0.196750
H230	H	1.247847	0.513302	0.696750
C231	C	0.960218	0.113651	0.390685
C232	C	1.460218	0.613651	0.890685
C233	C	0.912614	0.148155	0.346624
C234	C	1.412614	0.648155	0.846624
H235	H	0.988787	0.137037	0.416672
H236	H	1.488787	0.637037	0.916672
H237	H	0.935145	0.093134	0.424485
H238	H	1.435145	0.593134	0.924485
H239	H	0.989013	0.087386	0.360776
H240	H	1.489013	0.587386	0.860776
H241	H	0.883816	0.174417	0.376534
H242	H	1.383816	0.674417	0.876534
H243	H	0.937689	0.168681	0.312820
H244	H	1.437689	0.668681	0.812820
C245	C	0.517220	0.078147	-0.197695
C246	C	1.017220	0.578147	0.302305
C247	C	0.469867	0.077578	-0.139438
C248	C	0.969867	0.577578	0.360562
H249	H	0.492526	0.077842	-0.242739
H250	H	0.992526	0.577842	0.257261
H251	H	0.540057	0.111693	-0.194942
H252	H	1.040057	0.611693	0.305058
H253	H	0.551186	0.045285	-0.194920
H254	H	1.051186	0.545285	0.305080
H255	H	0.435904	0.110443	-0.142210
H256	H	0.935904	0.610443	0.357790
H257	H	0.447019	0.044029	-0.142193
H258	H	0.947019	0.544029	0.357807
H259	H	0.944544	-0.109650	-0.000103
H260	H	1.444544	0.390350	0.499897
C261	C	0.698920	-0.026735	0.702990
C262	C	1.198920	0.473265	1.202990
C263	C	0.735875	0.003503	0.653146
C264	C	1.235875	0.503503	1.153146
H265	H	0.670342	-0.050112	0.677000
H266	H	1.170342	0.449888	1.177000
H267	H	0.731215	-0.050139	0.732874
H268	H	1.231215	0.449861	1.232874
H269	H	0.670132	-0.000459	0.732890
H270	H	1.170132	0.499541	1.232890
H271	H	0.764667	-0.022774	0.623249
H272	H	1.264667	0.477226	1.123249
H273	H	0.703576	0.026909	0.623249
H274	H	1.203576	0.526909	1.123249
C275	C	0.744703	0.010807	0.422080
C276	C	1.244703	0.510807	0.922080
C277	C	0.735853	0.003495	0.346720
C278	C	1.235853	0.503495	0.846720
H279	H	0.716127	-0.012571	0.448099
H280	H	1.216127	0.487429	0.948099
H281	H	0.792538	0.000144	0.434652
H282	H	1.292538	0.500144	0.934652
H283	H	0.731432	0.049806	0.434599
H284	H	1.231432	0.549806	0.934599
H285	H	0.749128	-0.035503	0.334201
H286	H	1.249128	0.464497	0.834201
H287	H	0.688007	0.014155	0.334143
H288	H	1.188007	0.514155	0.834143
H289	H	0.900644	0.138345	0.663973
H290	H	1.400644	0.638345	1.163973
H291	H	0.747889	0.013318	0.803110
H292	H	1.247889	0.513318	1.303110
C293	C	0.250249	0.074927	0.125194
C294	C	0.750249	0.574927	0.625194
C295	C	0.178640	0.074060	0.139203
C296	C	0.678640	0.574060	0.639203
H297	H	0.274938	0.075226	0.170240
H298	H	0.774938	0.575226	0.670240
H299	H	0.267748	0.041871	0.097931
H300	H	0.767748	0.541871	0.597931
H301	H	0.256623	0.108278	0.097920
H302	H	0.756623	0.608278	0.597920
H303	H	0.172265	0.040706	0.166472
H304	H	0.672265	0.540706	0.666472
H305	H	0.161135	0.107119	0.166477
H306	H	0.661135	0.607119	0.666477
H307	H	0.936530	-0.656135	-0.000147
H308	H	1.436530	-0.156135	0.499853
H309	H	0.168353	0.073939	-0.120558
H310	H	0.668353	0.573939	0.379442
C311	C	1.017413	-0.195320	-0.000118
C312	C	1.517413	0.304680	0.499882
C313	C	0.960984	-0.227847	-0.000122
C314	C	1.460984	0.272153	0.499878
H315	H	1.060318	-0.220182	-0.000115
H316	H	1.560318	0.279818	0.499885
H317	H	1.015111	-0.171858	-0.042575
H318	H	1.515111	0.328142	0.457425
H319	H	1.015085	-0.171867	0.042347
H320	H	1.515085	0.328133	0.542347
H321	H	0.963309	-0.251298	-0.042590
H322	H	1.463309	0.248702	0.457410
H323	H	0.963287	-0.251319	0.042340
H324	H	1.463287	0.248681	0.542340
H325	H	0.934940	-0.763904	-0.000156
H326	H	1.434940	-0.263904	0.499844
H327	H	0.036249	0.072350	-0.120569
H328	H	0.536249	0.572350	0.379431
H329	H	0.705543	-0.630940	-0.000127
H330	H	1.205543	-0.130940	0.499873
C331	C	0.630404	-0.700464	-0.000117
C332	C	1.130404	-0.200464	0.499883
C333	C	0.685701	-0.745179	-0.000124
C334	C	1.185701	-0.245179	0.499876
H335	H	0.586908	-0.715902	-0.000120
H336	H	1.086908	-0.215902	0.499880
H337	H	0.633387	-0.677595	0.042345
H338	H	1.133387	-0.177595	0.542345
H339	H	0.633408	-0.677577	-0.042578
H340	H	1.133408	-0.177577	0.457422
H341	H	0.682700	-0.768064	0.042340
H342	H	1.182700	-0.268064	0.542340
H343	H	0.682716	-0.768058	-0.042589
H344	H	1.182716	-0.268058	0.457411
C345	C	0.587747	-0.446399	-0.062734
C346	C	1.087747	0.053601	0.437266
C347	C	0.626054	-0.464978	-0.000140
C348	C	1.126054	0.035022	0.499860
H349	H	0.544250	-0.461834	-0.062741
H350	H	1.044250	0.038166	0.437259
H351	H	0.579233	-0.405782	-0.062724
H352	H	1.079233	0.094218	0.437276
H353	H	0.613776	-0.458989	-0.105190
H354	H	1.113776	0.041011	0.394810
H355	H	0.600027	-0.452384	0.042316
H356	H	1.100027	0.047616	0.542316
H357	H	0.634566	-0.505603	-0.000143
H358	H	1.134566	-0.005603	0.499857
C359	C	0.624515	-0.305710	-0.062721
C360	C	1.124515	0.194290	0.437279
C361	C	0.627891	-0.340297	-0.000130
C362	C	1.127891	0.159703	0.499870
H363	H	0.581609	-0.280848	-0.062718
H364	H	1.081609	0.219152	0.437282
H365	H	0.662801	-0.283655	-0.062715
H366	H	1.162801	0.216345	0.437285
H367	H	0.626832	-0.329171	-0.105179
H368	H	1.126832	0.170829	0.394821
H369	H	0.625579	-0.316835	0.042328
H370	H	1.125579	0.183165	0.542328
H371	H	0.589594	-0.362353	-0.000130
H372	H	1.089594	0.137647	0.499870
H373	H	0.711982	-0.192218	-0.000077
H374	H	1.211982	0.307782	0.499923
C375	C	0.709862	-0.017065	-0.000089
C376	C	1.209862	0.482935	0.499911
C377	C	0.695553	-0.074006	-0.000088
C378	C	1.195553	0.425994	0.499912
H379	H	0.666963	0.007806	-0.000095
H380	H	1.166963	0.507806	0.499905
H381	H	0.736144	-0.010194	0.042370
H382	H	1.236144	0.489806	0.542370
H383	H	0.736173	-0.010188	-0.042552
H384	H	1.236173	0.489812	0.457448
H385	H	0.669246	-0.080884	0.042379
H386	H	1.169246	0.419116	0.542379
H387	H	0.669260	-0.080879	-0.042551
H388	H	1.169260	0.419121	0.457449
