data_functionalizedCrystal
_audit_creation_method	'MofGen! by Chris Wilmer'
_symmetry_space_group_name_H-M	'P1'
_symmetry_Int_Tables_number	1
_symmetry_cell_setting	triclinic
loop_
_symmetry_equiv_pos_as_xyz
  x,y,z
_cell_length_a	18.215407
_cell_length_b	16.625539
_cell_length_c	18.215405
_cell_angle_alpha	90.031772
_cell_angle_beta	89.980602
_cell_angle_gamma	89.981287
loop_
_atom_site_label
_atom_site_type_symbol
_atom_site_fract_x
_atom_site_fract_y
_atom_site_fract_z
Zn1	Zn	1.125078	-0.455850	0.293091
Zn2	Zn	1.458412	-0.122517	0.626424
Zn3	Zn	1.791745	0.210817	0.959757
Zn4	Zn	1.124985	-0.321009	0.416165
Zn5	Zn	1.458318	0.012324	0.749498
Zn6	Zn	1.791652	0.345658	1.082831
Zn7	Zn	1.002009	-0.321035	0.293105
Zn8	Zn	1.335342	0.012299	0.626438
Zn9	Zn	1.668676	0.345632	0.959771
Zn10	Zn	1.001977	-0.455803	0.416108
Zn11	Zn	1.335310	-0.122470	0.749442
Zn12	Zn	1.668644	0.210863	1.082775
O13	O	1.063512	-0.388424	0.354617
O14	O	1.396846	-0.055091	0.687950
O15	O	1.730179	0.278242	1.021284
O16	O	1.228050	-0.437972	0.309434
O17	O	1.561384	-0.104638	0.642768
O18	O	1.894717	0.228695	0.976101
O19	O	1.108646	-0.208180	0.399870
O20	O	1.441980	0.125153	0.733203
O21	O	1.775313	0.458487	1.066537
O22	O	1.018387	-0.338949	0.190119
O23	O	1.351720	-0.005615	0.523452
O24	O	1.685054	0.327718	0.856785
O25	O	1.227982	-0.338905	0.399856
O26	O	1.561315	-0.005571	0.733190
O27	O	1.894648	0.327762	1.066523
O28	O	1.108806	-0.437997	0.190108
O29	O	1.442139	-0.104663	0.523442
O30	O	1.775472	0.228670	0.856775
O31	O	1.018296	-0.208199	0.309458
O32	O	1.351630	0.125134	0.642792
O33	O	1.684963	0.458468	0.976125
O34	O	0.899021	-0.338903	0.309404
O35	O	1.232354	-0.005570	0.642737
O36	O	1.565687	0.327763	0.976070
O37	O	1.018332	-0.568642	0.399760
O38	O	1.351666	-0.235309	0.733094
O39	O	1.684999	0.098025	1.066427
O40	O	0.898997	-0.437917	0.399774
O41	O	1.232330	-0.104584	0.733107
O42	O	1.565664	0.228749	1.066441
O43	O	1.108774	-0.568676	0.309380
O44	O	1.442108	-0.235343	0.642713
O45	O	1.775441	0.097990	0.976047
O46	O	1.108615	-0.338859	0.519141
O47	O	1.441948	-0.005526	0.852475
O48	O	1.775282	0.327807	1.185808
O49	O	1.018242	-0.437892	0.519100
O50	O	1.351575	-0.104559	0.852433
O51	O	1.684908	0.228775	1.185767
C52	C	0.872306	-0.388408	0.354585
C53	C	1.205639	-0.055075	0.687918
C54	C	1.538973	0.278258	1.021251
C55	C	0.790507	-0.388421	0.354589
C56	C	1.123841	-0.055088	0.687922
C57	C	1.457174	0.278246	1.021255
C58	C	0.525480	-0.440091	0.307625
C59	C	0.858813	-0.106757	0.640958
C60	C	1.192146	0.226576	0.974292
C61	C	0.602338	-0.440088	0.307613
C62	C	0.935672	-0.106755	0.640947
C63	C	1.269005	0.226579	0.974280
C64	C	0.602286	-0.336775	0.401633
C65	C	0.935619	-0.003442	0.734966
C66	C	1.268953	0.329891	1.068300
C67	C	0.525429	-0.336783	0.401648
C68	C	0.858762	-0.003449	0.734981
C69	C	1.192095	0.329884	1.068315
C70	C	0.487028	-0.388439	0.354640
C71	C	0.820361	-0.055106	0.687973
C72	C	1.153694	0.278228	1.021307
C73	C	0.640744	-0.388429	0.354613
C74	C	0.974077	-0.055096	0.687946
C75	C	1.307410	0.278237	1.021280
C76	C	0.724077	-0.388426	0.354600
C77	C	1.057411	-0.055093	0.687934
C78	C	1.390744	0.278241	1.021267
C79	C	0.403689	-0.388443	0.354653
C80	C	0.737022	-0.055110	0.687987
C81	C	1.070355	0.278223	1.021320
C82	C	1.063560	-0.598733	0.354562
C83	C	1.396894	-0.265400	0.687896
C84	C	1.730227	0.067933	1.021229
C85	C	1.063581	-0.688354	0.354539
C86	C	1.396914	-0.355021	0.687872
C87	C	1.730247	-0.021688	1.021206
C88	C	1.063614	-1.016530	0.354456
C89	C	1.396948	-0.683197	0.687790
C90	C	1.730281	-0.349864	1.021123
C91	C	1.063603	-0.925222	0.354482
C92	C	1.396936	-0.591888	0.687815
C93	C	1.730270	-0.258555	1.021148
C94	C	1.063598	-0.852445	0.354498
C95	C	1.396931	-0.519112	0.687832
C96	C	1.730265	-0.185779	1.021165
C97	C	1.063586	-0.761131	0.354522
C98	C	1.396919	-0.427798	0.687856
C99	C	1.730252	-0.094464	1.021189
C100	C	1.255465	-0.388441	0.354650
C101	C	1.588799	-0.055107	0.687983
C102	C	1.922132	0.278226	1.021317
C103	C	1.337264	-0.388447	0.354664
C104	C	1.670597	-0.055114	0.687998
C105	C	2.003931	0.278219	1.021331
C106	C	1.063435	-0.388385	0.545823
C107	C	1.396768	-0.055052	0.879157
C108	C	1.730101	0.278281	1.212490
C109	C	1.063469	-0.388396	0.627622
C110	C	1.396802	-0.055062	0.960956
C111	C	1.730135	0.278271	1.294289
C112	C	1.063507	-0.178933	0.354619
C113	C	1.396840	0.154400	0.687952
C114	C	1.730174	0.487733	1.021285
C115	C	1.063629	-0.089313	0.354435
C116	C	1.396963	0.244021	0.687768
C117	C	1.730296	0.577354	1.021101
C118	C	1.063610	-0.388481	0.162664
C119	C	1.396944	-0.055147	0.495997
C120	C	1.730277	0.278186	0.829331
C121	C	1.063652	-0.388505	0.080865
C122	C	1.396986	-0.055172	0.414199
C123	C	1.730319	0.278162	0.747532
C124	C	1.110637	-0.336924	0.815813
C125	C	1.443970	-0.003591	1.149147
C126	C	1.777303	0.329742	1.482480
C127	C	1.110670	-0.336944	0.892672
C128	C	1.444003	-0.003611	1.226005
C129	C	1.777336	0.329723	1.559339
C130	C	1.016482	-0.439982	0.892669
C131	C	1.349815	-0.106649	1.226002
C132	C	1.683149	0.226685	1.559335
C133	C	1.016453	-0.439966	0.815812
C134	C	1.349787	-0.106633	1.149145
C135	C	1.683120	0.226701	1.482478
C136	C	1.063530	-0.388433	0.777386
C137	C	1.396863	-0.055099	1.110719
C138	C	1.730196	0.278234	1.444052
C139	C	1.063591	-0.388468	0.931102
C140	C	1.396925	-0.055135	1.264435
C141	C	1.730258	0.278199	1.597768
C142	C	1.063627	-0.388490	1.014435
C143	C	1.396960	-0.055156	1.347769
C144	C	1.730293	0.278177	1.681102
C145	C	1.063496	-0.388412	0.694047
C146	C	1.396829	-0.055079	1.027380
C147	C	1.730162	0.278255	1.360713
H148	H	0.633562	-0.294717	0.439904
H149	H	0.966895	0.038616	0.773237
H150	H	1.300228	0.371950	1.106570
H151	H	1.148970	-0.294964	0.784529
H152	H	1.482303	0.038369	1.117862
H153	H	1.815637	0.371703	1.451195
H154	H	0.978153	-0.481938	0.923964
H155	H	1.311487	-0.148604	1.257298
H156	H	1.644820	0.184729	1.590631
H157	H	0.633643	-0.482149	0.269330
H158	H	0.966976	-0.148815	0.602663
H159	H	1.300309	0.184518	0.935996
O160	O	1.161473	-0.281385	0.934122
O161	O	1.494806	0.051949	1.267455
O162	O	1.828140	0.385282	1.600789
H163	H	1.194197	-0.245546	0.894487
H164	H	1.527530	0.087788	1.227820
H165	H	1.860863	0.421121	1.561154
O166	O	0.484065	-0.495811	0.256928
O167	O	0.817398	-0.162477	0.590261
O168	O	1.150732	0.170856	0.923595
H169	H	0.449047	-0.459797	0.219447
H170	H	0.782381	-0.126464	0.552780
H171	H	1.115714	0.206869	0.886113
H172	H	0.978093	-0.481914	0.784522
H173	H	1.311427	-0.148581	1.117855
H174	H	1.644760	0.184753	1.451188
H175	H	0.494120	-0.294721	0.439937
H176	H	0.827454	0.038612	0.773270
H177	H	1.160787	0.371946	1.106604
