data_functionalizedCrystal
_audit_creation_method	'MofGen! by Chris Wilmer'
_symmetry_space_group_name_H-M	'P1'
_symmetry_Int_Tables_number	1
_symmetry_cell_setting	triclinic
loop_
_symmetry_equiv_pos_as_xyz
  x,y,z
_cell_length_a	16.992694
_cell_length_b	13.339070
_cell_length_c	16.053802
_cell_angle_alpha	93.267614
_cell_angle_beta	87.249047
_cell_angle_gamma	103.148759
loop_
_atom_site_label
_atom_site_type_symbol
_atom_site_fract_x
_atom_site_fract_y
_atom_site_fract_z
O1	O	1.090314	0.214289	-0.069315
O2	O	0.861508	0.211892	-0.069340
O3	O	0.949651	0.063704	-0.069328
O4	O	1.002170	0.362477	-0.069327
O5	O	0.944792	0.071825	0.069530
O6	O	0.856649	0.220013	0.069518
O7	O	1.085454	0.222410	0.069543
Zn8	Zn	0.970280	0.222501	0.091577
Zn9	Zn	0.976682	0.211801	-0.091374
O10	O	0.997311	0.370598	0.069531
C11	C	0.829196	0.212871	0.000086
C12	C	0.740151	0.203676	0.000076
C13	C	0.709211	0.292389	0.000077
C14	C	0.625543	0.283745	0.000089
C15	C	0.572817	0.186385	0.000093
C16	C	0.603763	0.097665	0.000095
C17	C	0.687429	0.106311	0.000090
C18	C	0.321423	0.150552	0.000116
C19	C	0.237752	0.141912	0.000119
C20	C	0.259538	0.327993	0.000114
C21	C	0.343205	0.336630	0.000103
C22	C	0.374143	0.247910	0.000109
N23	N	0.487295	0.177547	0.000103
N24	N	0.459663	0.256750	0.000106
C25	C	0.938350	0.029358	0.000099
C26	C	0.911906	-0.085082	0.000093
C27	C	1.117519	-0.433251	0.000116
C28	C	1.142367	-0.325729	0.000126
C29	C	1.084754	-0.265562	0.000118
C30	C	1.002289	-0.312928	0.000099
C31	C	0.977439	-0.420460	0.000095
C32	C	0.944673	-0.252771	0.000097
C33	C	0.862209	-0.300136	0.000078
C34	C	0.837363	-0.407658	0.000074
C35	C	0.894976	-0.467825	0.000082
C36	C	0.969524	-0.145239	0.000101
C37	C	0.829443	-0.132447	0.000080
C38	C	0.804596	-0.239970	0.000070
C39	C	1.117767	0.221431	0.000115
C40	C	1.206811	0.230626	0.000120
C41	C	1.008612	0.404944	0.000102
C42	C	1.035056	0.519384	0.000103
N43	N	0.965916	0.229803	0.216437
N44	N	0.981051	0.204492	-0.216234
C45	C	1.003445	0.166774	0.260136
C46	C	1.000402	0.171892	0.347543
C47	C	0.959834	0.240045	0.391248
C48	C	0.922300	0.303076	0.347543
C49	C	0.925339	0.297952	0.260138
C50	C	0.946555	0.262399	0.652656
C51	C	0.943522	0.267520	0.740067
C52	C	1.021623	0.136334	0.740060
C53	C	1.024662	0.131221	0.652654
C54	C	0.987124	0.194248	0.608956
N55	N	0.956725	0.245281	0.480592
N56	N	0.990229	0.189006	0.519615
H57	H	0.234339	0.400223	0.000111
H58	H	0.712618	0.034071	0.000088
H59	H	0.346602	0.078309	0.000121
H60	H	0.194823	0.062627	0.000122
O61	O	0.552435	0.003167	0.000064
C62	C	0.471953	0.014557	0.000088
H63	H	0.470801	0.091796	-0.026202
H64	H	0.445372	0.011592	0.066706
C65	C	0.422916	-0.168199	-0.022075
C66	C	0.421501	-0.073336	-0.054371
H67	H	0.391793	-0.222418	-0.055664
H68	H	0.477138	-0.175874	-0.022088
H69	H	0.400767	-0.170656	0.033440
H70	H	0.443659	-0.070876	-0.109880
H71	H	0.367281	-0.065663	-0.054369
H72	H	1.036667	-0.106684	0.000116
O73	O	0.724488	-0.285948	-0.000092
C74	C	0.690465	-0.259965	-0.072002
H75	H	0.740038	-0.237080	-0.122259
H76	H	0.660641	-0.192618	-0.055746
C77	C	0.565739	-0.381584	-0.042898
C78	C	0.626623	-0.353483	-0.104627
H79	H	0.526355	-0.439267	-0.063022
H80	H	0.588659	-0.399086	0.005551
H81	H	0.540895	-0.325453	-0.029357
H82	H	0.651473	-0.409609	-0.118160
H83	H	0.603706	-0.335992	-0.153080
O84	O	1.108790	-0.161113	0.000016
C85	C	1.081214	-0.125883	-0.071916
H86	H	1.026842	-0.185515	-0.095906
H87	H	1.131665	-0.113785	-0.122262
C88	C	1.123169	0.050054	-0.020607
C89	C	1.056384	-0.023184	-0.050068
H90	H	1.107856	0.113406	-0.007133
H91	H	1.141750	0.026320	0.027854
H92	H	1.165205	0.060123	-0.062567
H93	H	1.014353	-0.033261	-0.008104
H94	H	1.037795	0.000551	-0.098522
O95	O	0.394306	0.431287	0.000141
C96	C	0.349056	0.507736	0.000123
H97	H	0.285307	0.475837	0.026416
H98	H	0.345828	0.531527	-0.066493
C99	C	0.468400	0.641373	0.022283
C100	C	0.390105	0.602198	0.054583
H101	H	0.493722	0.699644	0.055873
H102	H	0.498887	0.589869	0.022292
H103	H	0.465700	0.661191	-0.033230
H104	H	0.392807	0.582369	0.110091
H105	H	0.359619	0.653701	0.054585
H106	H	0.752136	0.371670	0.000073
H107	H	1.209509	-0.287171	0.000142
O108	O	0.757253	-0.453629	-0.000086
C109	C	0.723232	-0.427644	-0.071996
H110	H	0.772804	-0.404768	-0.122255
H111	H	0.693417	-0.360289	-0.055741
C112	C	0.598498	-0.549244	-0.042885
C113	C	0.659382	-0.521155	-0.104616
H114	H	0.559109	-0.606924	-0.063005
H115	H	0.621417	-0.566748	0.005564
H116	H	0.573660	-0.493107	-0.029345
H117	H	0.684225	-0.577288	-0.118148
H118	H	0.636466	-0.503662	-0.153069
O119	O	1.042858	0.100480	0.217814
C120	C	1.075345	0.045965	0.275131
H121	H	1.040198	0.045786	0.337440
H122	H	1.141592	0.084783	0.284417
C123	C	1.111987	-0.065560	0.164500
C124	C	1.068815	-0.065787	0.241027
H125	H	1.107963	-0.134492	0.143463
H126	H	1.090103	-0.028830	0.125883
H127	H	1.167190	-0.033206	0.172249
H128	H	1.013613	-0.098128	0.233276
H129	H	1.090690	-0.102525	0.279642
O130	O	1.058208	0.075209	0.782469
C131	C	1.141606	0.097115	0.761083
H132	H	1.160772	0.178186	0.737055
H133	H	1.154394	0.038981	0.710345
C134	C	1.165999	-0.009512	0.868231
C135	C	1.189541	0.090064	0.838726
H136	H	1.195569	-0.013865	0.916123
H137	H	1.109812	-0.024274	0.882637
H138	H	1.176657	-0.057946	0.825942
H139	H	1.178874	0.138495	0.881011
H140	H	1.245728	0.104834	0.824329
H141	H	1.164418	-0.482247	0.000129
O142	O	1.036731	0.110560	0.390024
C143	C	0.978417	0.046513	0.440608
H144	H	0.916001	0.038089	0.414281
H145	H	0.978941	0.082275	0.506851
C146	C	1.074984	-0.050029	0.474280
C147	C	0.998325	-0.060383	0.441940
H148	H	1.087265	-0.115966	0.475106
H149	H	1.114273	-0.006877	0.440204
H150	H	1.075411	-0.020224	0.529480
H151	H	0.997901	-0.090175	0.386739
H152	H	0.959036	-0.103542	0.476008
O153	O	1.063822	0.064914	0.609977
C154	C	1.126767	0.120720	0.559124
H155	H	1.145361	0.203534	0.585454
H156	H	1.104981	0.120428	0.493024
C157	C	1.176998	-0.031505	0.524958
C158	C	1.199841	0.070206	0.557301
H159	H	1.222073	-0.062666	0.523830
H160	H	1.134589	-0.069105	0.559216
H161	H	1.158843	-0.031735	0.469877
H162	H	1.217986	0.070433	0.612384
H163	H	1.242255	0.107804	0.523052
H164	H	0.782530	-0.083459	0.000077
O165	O	0.904037	0.333742	0.782395
C166	C	0.871568	0.388287	0.725085
H167	H	0.863655	0.342347	0.662781
H168	H	0.914437	0.466361	0.715782
C169	C	0.798601	0.460882	0.835734
C170	C	0.788876	0.404454	0.759213
H171	H	0.747594	0.470860	0.856786
H172	H	0.820478	0.424137	0.874345
H173	H	0.834328	0.525938	0.827971
H174	H	0.753158	0.339395	0.766978
H175	H	0.766991	0.441188	0.720603
O176	O	0.910226	0.323684	0.610128
C177	C	0.968557	0.387755	0.559578
H178	H	1.022547	0.351061	0.546469
H179	H	0.989374	0.466270	0.593265
C180	C	0.864914	0.446319	0.492664
C181	C	0.931222	0.401246	0.476557
H182	H	0.841884	0.454646	0.441454
H183	H	0.825615	0.403156	0.526722
H184	H	0.882271	0.511743	0.520738
H185	H	0.913863	0.335818	0.448493
H186	H	0.970518	0.444398	0.442492
H187	H	0.874749	-0.555379	0.000071
O188	O	0.888873	0.359286	0.217816
C189	C	0.852398	0.420522	0.275132
H190	H	0.883213	0.428010	0.337432
H191	H	0.785505	0.382792	0.284439
C192	C	0.823445	0.519067	0.164491
C193	C	0.861297	0.528272	0.241008
H194	H	0.828930	0.585531	0.143441
H195	H	0.848016	0.477809	0.125875
H196	H	0.767704	0.487622	0.172258
H197	H	0.917039	0.559705	0.233238
H198	H	0.836736	0.569537	0.279621
H199	H	0.600356	0.355985	0.000088
H200	H	0.889264	0.358564	0.383133
