data_functionalizedCrystal
_audit_creation_method	'MofGen! by Chris Wilmer'
_symmetry_space_group_name_H-M	'P1'
_symmetry_Int_Tables_number	1
_symmetry_cell_setting	triclinic
loop_
_symmetry_equiv_pos_as_xyz
  x,y,z
_cell_length_a	17.699077
_cell_length_b	18.266242
_cell_length_c	17.699083
_cell_angle_alpha	89.992757
_cell_angle_beta	96.718205
_cell_angle_gamma	90.008479
loop_
_atom_site_label
_atom_site_type_symbol
_atom_site_fract_x
_atom_site_fract_y
_atom_site_fract_z
O1	O	1.004083	0.060873	-0.095691
O2	O	1.504083	0.560873	0.404309
O3	O	0.783704	0.060876	-0.108148
O4	O	1.283704	0.560876	0.391852
O5	O	0.900120	0.060868	0.008270
O6	O	1.400120	0.560868	0.508270
O7	O	0.887668	0.060881	-0.212109
O8	O	1.387668	0.560881	0.287891
O9	O	0.900101	-0.060894	0.008276
O10	O	1.400101	0.439106	0.508276
O11	O	0.783685	-0.060886	-0.108142
O12	O	1.283685	0.439114	0.391858
O13	O	1.004064	-0.060889	-0.095685
O14	O	1.504064	0.439111	0.404315
Zn15	Zn	0.893871	-0.080220	-0.101913
Zn16	Zn	1.393871	0.419780	0.398087
Zn17	Zn	0.893897	0.080207	-0.101920
Zn18	Zn	1.393897	0.580207	0.398080
O19	O	0.887648	-0.060881	-0.212103
O20	O	1.387648	0.439119	0.287897
C21	C	0.755498	-0.000004	-0.107700
C22	C	1.255498	0.499996	0.392300
C23	C	0.671479	-0.000003	-0.106363
C24	C	1.171479	0.499997	0.393637
N25	N	0.893859	-0.189707	-0.101907
N26	N	1.393859	0.310293	0.398093
C27	C	0.632001	-0.066376	-0.105730
C28	C	1.132001	0.433624	0.394270
C29	C	0.553059	-0.066377	-0.104461
C30	C	1.053059	0.433623	0.395539
C31	C	0.513595	-0.000004	-0.103832
C32	C	1.013595	0.499996	0.396168
C33	C	0.553079	0.066375	-0.104463
C34	C	1.053079	0.566375	0.395537
C35	C	0.632021	0.066375	-0.105725
C36	C	1.132021	0.566375	0.394275
C37	C	0.234716	0.066376	-0.099369
C38	C	0.734716	0.566376	0.400631
C39	C	0.155768	0.066370	-0.098109
C40	C	0.655768	0.566370	0.401891
C41	C	0.155753	-0.066376	-0.098105
C42	C	0.655753	0.433624	0.401895
C43	C	0.234695	-0.066376	-0.099368
C44	C	0.734695	0.433624	0.400632
C45	C	0.274173	0.000002	-0.099995
C46	C	0.774173	0.500002	0.400005
C47	C	0.359772	0.000002	-0.101369
C48	C	0.859772	0.500002	0.398631
C49	C	0.427997	-0.000003	-0.102464
C50	C	0.927997	0.499997	0.397536
C51	C	0.945425	-0.228019	-0.050382
C52	C	1.445425	0.271981	0.449618
C53	C	0.945430	-0.304664	-0.050379
C54	C	1.445430	0.195336	0.449621
C55	C	0.893876	-0.342994	-0.101913
C56	C	1.393876	0.157006	0.398087
C57	C	0.842300	-0.304672	-0.153441
C58	C	1.342300	0.195328	0.346559
C59	C	0.842292	-0.228028	-0.153438
C60	C	1.342292	0.271972	0.346562
N61	N	0.884119	-0.463322	-0.168902
N62	N	1.384119	0.036678	0.331098
N63	N	0.884132	-0.536130	-0.168902
N64	N	1.384132	-0.036130	0.331098
C65	C	0.893897	-0.573916	-0.101924
C66	C	1.393897	-0.073916	0.398076
N67	N	0.903664	-0.536143	-0.034943
N68	N	1.403664	-0.036143	0.465057
N69	N	0.903656	-0.463329	-0.034943
N70	N	1.403656	0.036671	0.465057
C71	C	0.893879	-0.426101	-0.101921
C72	C	1.393879	0.073899	0.398079
C73	C	0.945471	-0.695336	-0.050391
C74	C	1.445471	-0.195336	0.449609
C75	C	0.945470	-0.771982	-0.050386
C76	C	1.445470	-0.271982	0.449614
C77	C	0.842345	-0.771988	-0.153456
C78	C	1.342345	-0.271988	0.346544
C79	C	0.842342	-0.695343	-0.153454
C80	C	1.342342	-0.195343	0.346546
C81	C	0.893909	-0.657022	-0.101922
C82	C	1.393909	-0.157022	0.398078
C83	C	1.032271	-0.000007	-0.096133
C84	C	1.532271	0.499993	0.403867
C85	C	1.116289	-0.000004	-0.097470
C86	C	1.616289	0.499996	0.402530
C87	C	0.899664	-0.000013	0.036470
C88	C	1.399664	0.499987	0.536470
C89	C	0.898326	-0.000013	0.120488
C90	C	1.398326	0.499987	0.620488
N91	N	0.893915	0.189694	-0.101920
N92	N	1.393915	0.689694	0.398080
C93	C	0.888104	0.000002	-0.240303
C94	C	1.388104	0.500002	0.259697
C95	C	0.889443	0.000007	-0.324321
C96	C	1.389443	0.500007	0.175679
C97	C	0.966659	-0.000016	0.169110
C98	C	1.466659	0.499984	0.669110
C99	C	0.965397	-0.000009	0.248054
C100	C	1.465397	0.499991	0.748054
C101	C	0.895800	-0.000006	0.278373
C102	C	1.395800	0.499994	0.778373
C103	C	0.827461	-0.000001	0.229744
C104	C	1.327461	0.499999	0.729744
C105	C	0.828724	-0.000002	0.150803
C106	C	1.328724	0.499998	0.650803
C107	C	0.822366	0.000005	0.548107
C108	C	1.322366	0.500005	1.048107
C109	C	0.821108	0.000004	0.627055
C110	C	1.321108	0.500004	1.127055
C111	C	0.959039	-0.000002	0.645358
C112	C	1.459039	0.499998	1.145358
C113	C	0.960302	-0.000003	0.566417
C114	C	1.460302	0.499997	1.066417
C115	C	0.891963	0.000005	0.517795
C116	C	1.391963	0.500005	1.017795
C117	C	0.893333	-0.000000	0.432196
C118	C	1.393333	0.500000	0.932196
C119	C	0.894430	-0.000005	0.363971
C120	C	1.394430	0.499995	0.863971
H121	H	0.664126	-0.120425	-0.106248
H122	H	1.164126	0.379575	0.393752
H123	H	0.800323	-0.335883	-0.195400
H124	H	1.300323	0.164117	0.304600
Cl125	Cl	0.777529	-0.820168	-0.218236
Cl126	Cl	1.277529	-0.320168	0.281764
H127	H	0.520921	-0.120425	-0.103933
H128	H	1.020921	0.379575	0.396067
H129	H	0.520942	0.120417	-0.103945
H130	H	1.020942	0.620417	0.396055
H131	H	0.800300	-0.196833	-0.195397
H132	H	1.300300	0.303167	0.304603
Cl133	Cl	0.106157	0.149818	-0.097316
Cl134	Cl	0.606157	0.649818	0.402684
Cl135	Cl	1.010246	-0.179844	0.014403
Cl136	Cl	1.510246	0.320156	0.514403
H137	H	0.987458	-0.664133	-0.008428
H138	H	1.487458	-0.164133	0.491572
Cl139	Cl	1.010297	-0.820150	0.014397
Cl140	Cl	1.510297	-0.320150	0.514397
Cl141	Cl	0.284302	-0.149820	-0.100164
Cl142	Cl	0.784302	0.350180	0.399836
Cl143	Cl	1.044951	-0.000009	0.706488
Cl144	Cl	1.544951	0.499991	1.206488
Cl145	Cl	0.742816	0.000003	0.089676
Cl146	Cl	1.242816	0.500003	0.589676
Cl147	Cl	0.106120	-0.149824	-0.097313
Cl148	Cl	0.606120	0.350176	0.402687
Cl149	Cl	0.777517	-0.647174	-0.218235
Cl150	Cl	1.277517	-0.147174	0.281765
H151	H	0.664163	0.120423	-0.106243
H152	H	1.164163	0.620423	0.393757
H153	H	0.266849	0.120425	-0.099877
H154	H	0.766849	0.620425	0.400123
Cl155	Cl	1.010262	-0.352837	0.014401
Cl156	Cl	1.510262	0.147163	0.514401
Cl157	Cl	1.054157	-0.000027	0.131003
Cl158	Cl	1.554157	0.499973	0.631003
H159	H	1.021041	-0.000012	0.287639
H160	H	1.521041	0.499988	0.787639
H161	H	1.016974	-0.000009	0.541735
H162	H	1.516974	0.499991	1.041735
Cl163	Cl	0.733608	0.000010	0.665169
Cl164	Cl	1.233608	0.500010	1.165169
H165	H	0.766721	0.000011	0.508528
H166	H	1.266721	0.500011	1.008528
H167	H	0.770794	0.000006	0.254436
H168	H	1.270794	0.500006	0.754436
