data_functionalizedCrystal
_audit_creation_method	'MofGen! by Chris Wilmer'
_symmetry_space_group_name_H-M	'P1'
_symmetry_Int_Tables_number	1
_symmetry_cell_setting	triclinic
loop_
_symmetry_equiv_pos_as_xyz
  x,y,z
_cell_length_a	11.026607
_cell_length_b	14.044220
_cell_length_c	9.483335
_cell_angle_alpha	79.824379
_cell_angle_beta	101.374700
_cell_angle_gamma	100.887447
loop_
_atom_site_label
_atom_site_type_symbol
_atom_site_fract_x
_atom_site_fract_y
_atom_site_fract_z
O1	O	1.636260	0.416189	-0.120913
O2	O	2.136260	0.916189	0.379087
O3	O	1.277969	0.370141	-0.120912
O4	O	1.777969	0.870141	0.379088
O5	O	1.451738	0.254262	-0.120898
O6	O	1.951738	0.754262	0.379102
O7	O	1.462490	0.532069	-0.120927
O8	O	1.962490	1.032069	0.379073
O9	O	1.487072	0.230670	0.120880
O10	O	1.987072	0.730670	0.620880
O11	O	1.313302	0.346549	0.120866
O12	O	1.813302	0.846549	0.620866
O13	O	1.671593	0.392597	0.120866
O14	O	2.171593	0.892597	0.620866
Cu15	Cu	1.495674	0.367419	0.142942
Cu16	Cu	1.995674	0.867419	0.642942
Cu17	Cu	1.453888	0.395319	-0.142988
Cu18	Cu	1.953888	0.895319	0.357012
O19	O	1.497823	0.508477	0.120852
O20	O	1.997823	1.008477	0.620852
C21	C	1.249505	0.349850	-0.000022
C22	C	1.749505	0.849850	0.499978
C23	C	1.112050	0.324526	-0.000022
C24	C	1.612050	0.824526	0.499978
C25	C	1.464697	0.206348	-0.000008
C26	C	1.964697	0.706348	0.499992
C27	C	1.450653	0.098725	-0.000006
C28	C	1.950653	0.598725	0.499994
C29	C	1.045812	0.394451	-0.000030
C30	C	1.545812	0.894451	0.499970
C31	C	0.903745	0.368279	-0.000029
C32	C	1.403745	0.868279	0.499971
C33	C	1.424975	-0.098315	-0.000027
C34	C	1.924975	0.401685	0.499973
C35	C	1.524579	-0.138952	-0.000032
C36	C	2.024579	0.361048	0.499968
C37	C	1.510291	-0.248592	-0.000043
C38	C	2.010291	0.251408	0.499957
C39	C	1.439261	0.011335	-0.000015
C40	C	1.939261	0.511335	0.499985
C41	C	1.700056	0.412889	-0.000027
C42	C	2.200056	0.912889	0.499973
C43	C	1.837510	0.438214	-0.000037
C44	C	2.337510	0.938214	0.499963
N45	N	1.525072	0.347797	0.344051
N46	N	2.025072	0.847797	0.844051
C47	C	1.484864	0.556391	-0.000041
C48	C	1.984864	1.056391	0.499959
C49	C	1.498906	0.664014	-0.000053
C50	C	1.998906	1.164014	0.499947
N51	N	1.424498	0.414936	-0.344097
N52	N	1.924498	0.914936	0.155903
C53	C	1.487026	0.373204	0.583679
C54	C	1.987026	0.873204	1.083679
C55	C	1.462535	0.389535	0.416271
C56	C	1.962535	0.889535	0.916271
H57	H	1.094281	0.473691	-0.000030
H58	H	1.594281	0.973691	0.499970
H59	H	1.620568	-0.091390	-0.000129
H60	H	2.120568	0.408610	0.499871
H61	H	0.885972	0.517460	-0.000036
H62	H	1.385972	1.017460	0.499964
N63	N	1.047868	0.219556	0.000007
N64	N	1.547868	0.719556	0.500007
H65	H	0.955478	0.215738	0.000010
H66	H	1.455478	0.715738	0.500010
H67	H	1.059556	0.195102	-0.089618
H68	H	1.559556	0.695102	0.410382
N69	N	1.367599	0.452875	0.334020
N70	N	1.867599	0.952875	0.834020
H71	H	1.282486	0.424214	0.360452
H72	H	1.782486	0.924214	0.860452
H73	H	1.393252	0.521273	0.360447
H74	H	1.893252	1.021273	0.860447
N75	N	1.297813	-0.161292	-0.000029
N76	N	1.797813	0.338708	0.499971
H77	H	1.305505	-0.231821	-0.000032
H78	H	1.805505	0.268179	0.499968
H79	H	1.264542	-0.155800	0.089609
H80	H	1.764542	0.344200	0.589609
H81	H	1.558695	0.325389	0.645778
H82	H	2.058695	0.825389	1.145778
H83	H	1.596746	0.299979	0.406146
H84	H	2.096746	0.799979	0.906146
H85	H	0.855277	0.289036	-0.000058
H86	H	1.355277	0.789036	0.499942
N87	N	1.329575	0.478285	0.573661
N88	N	1.829575	0.978285	1.073661
H89	H	1.325536	0.480973	0.465728
H90	H	1.825536	0.980973	0.965728
H91	H	1.244515	0.449587	0.600207
H92	H	1.744515	0.949587	1.100207
