data_functionalizedCrystal
_audit_creation_method	'MofGen! by Chris Wilmer'
_symmetry_space_group_name_H-M	'P1'
_symmetry_Int_Tables_number	1
_symmetry_cell_setting	triclinic
loop_
_symmetry_equiv_pos_as_xyz
  x,y,z
_cell_length_a	21.395362
_cell_length_b	19.805405
_cell_length_c	21.395355
_cell_angle_alpha	89.982777
_cell_angle_beta	89.956060
_cell_angle_gamma	90.042604
loop_
_atom_site_label
_atom_site_type_symbol
_atom_site_fract_x
_atom_site_fract_y
_atom_site_fract_z
Zn1	Zn	0.957877	-0.269255	-0.354591
Zn2	Zn	1.207877	-0.019255	-0.104591
Zn3	Zn	1.457877	0.230745	0.145409
Zn4	Zn	1.707877	0.480745	0.395409
Zn5	Zn	0.957787	-0.382425	-0.249816
Zn6	Zn	1.207787	-0.132425	0.000184
Zn7	Zn	1.457787	0.117575	0.250184
Zn8	Zn	1.707787	0.367575	0.500184
Zn9	Zn	0.853092	-0.269286	-0.249793
Zn10	Zn	1.103092	-0.019286	0.000207
Zn11	Zn	1.353092	0.230714	0.250207
Zn12	Zn	1.603092	0.480714	0.500207
Zn13	Zn	0.853068	-0.382438	-0.354521
Zn14	Zn	1.103068	-0.132438	-0.104521
Zn15	Zn	1.353068	0.117562	0.145479
Zn16	Zn	1.603068	0.367562	0.395479
O17	O	0.905456	-0.325851	-0.302180
O18	O	1.155456	-0.075851	-0.052180
O19	O	1.405456	0.174149	0.197820
O20	O	1.655456	0.424149	0.447820
O21	O	1.045543	-0.284248	-0.340732
O22	O	1.295543	-0.034248	-0.090732
O23	O	1.545543	0.215752	0.159268
O24	O	1.795543	0.465752	0.409268
O25	O	0.943871	-0.367424	-0.162135
O26	O	1.193871	-0.117424	0.087865
O27	O	1.443871	0.132576	0.337865
O28	O	1.693871	0.382576	0.587865
O29	O	0.867039	-0.174565	-0.263714
O30	O	1.117039	0.075435	-0.013714
O31	O	1.367039	0.325435	0.236286
O32	O	1.617039	0.575435	0.486286
O33	O	1.045476	-0.367393	-0.263754
O34	O	1.295476	-0.117393	-0.013754
O35	O	1.545476	0.132607	0.236246
O36	O	1.795476	0.382607	0.486246
O37	O	0.944024	-0.174542	-0.340709
O38	O	1.194024	0.075458	-0.090709
O39	O	1.444024	0.325458	0.159291
O40	O	1.694024	0.575458	0.409291
O41	O	0.866952	-0.284302	-0.162118
O42	O	1.116952	-0.034302	0.087882
O43	O	1.366952	0.215698	0.337882
O44	O	1.616952	0.465698	0.587882
O45	O	0.765411	-0.284315	-0.263646
O46	O	1.015411	-0.034315	-0.013646
O47	O	1.265411	0.215685	0.236354
O48	O	1.515411	0.465685	0.486354
O49	O	0.866999	-0.367417	-0.442208
O50	O	1.116999	-0.117417	-0.192208
O51	O	1.366999	0.132583	0.057792
O52	O	1.616999	0.382583	0.307792
O53	O	0.765393	-0.367448	-0.340589
O54	O	1.015393	-0.117448	-0.090589
O55	O	1.265393	0.132552	0.159411
O56	O	1.515393	0.382552	0.409411
O57	O	0.944002	-0.284261	-0.442260
O58	O	1.194002	-0.034261	-0.192260
O59	O	1.444002	0.215739	0.057740
O60	O	1.694002	0.465739	0.307740
O61	O	0.943848	-0.477143	-0.263686
O62	O	1.193848	-0.227143	-0.013686
O63	O	1.443848	0.022857	0.236314
O64	O	1.693848	0.272857	0.486314
O65	O	0.866912	-0.477153	-0.340612
O66	O	1.116912	-0.227153	-0.090612
O67	O	1.366912	0.022847	0.159388
O68	O	1.616912	0.272847	0.409388
C69	C	0.742668	-0.325887	-0.302107
C70	C	0.992668	-0.075887	-0.052107
C71	C	1.242668	0.174113	0.197893
C72	C	1.492668	0.424113	0.447893
C73	C	0.673027	-0.325918	-0.302091
C74	C	0.923027	-0.075918	-0.052091
C75	C	1.173027	0.174082	0.197909
C76	C	1.423027	0.424082	0.447909
C77	C	0.640321	-0.369263	-0.342096
C78	C	0.890321	-0.119263	-0.092096
C79	C	1.140321	0.130737	0.157904
C80	C	1.390321	0.380737	0.407904
C81	C	0.574886	-0.369246	-0.342124
C82	C	0.824886	-0.119246	-0.092124
C83	C	1.074886	0.130754	0.157876
C84	C	1.324886	0.380754	0.407876
C85	C	0.542159	-0.325892	-0.302136
C86	C	0.792159	-0.075892	-0.052136
C87	C	1.042159	0.174108	0.197864
C88	C	1.292159	0.424108	0.447864
C89	C	0.574872	-0.282539	-0.262129
C90	C	0.824872	-0.032539	-0.012129
C91	C	1.074872	0.217461	0.237871
C92	C	1.324872	0.467461	0.487871
C93	C	0.640306	-0.282553	-0.262106
C94	C	0.890306	-0.032553	-0.012106
C95	C	1.140306	0.217447	0.237894
C96	C	1.390306	0.467447	0.487894
C97	C	0.438434	-0.320440	-0.245731
C98	C	0.688434	-0.070440	0.004269
C99	C	0.938434	0.179560	0.254269
C100	C	1.188434	0.429560	0.504269
C101	C	0.373001	-0.320431	-0.245752
C102	C	0.623001	-0.070431	0.004248
C103	C	0.873001	0.179569	0.254248
C104	C	1.123001	0.429569	0.504248
C105	C	0.340338	-0.325848	-0.302205
C106	C	0.590338	-0.075848	-0.052205
C107	C	0.840338	0.174152	0.197795
C108	C	1.090338	0.424152	0.447795
C109	C	0.373116	-0.331287	-0.358639
C110	C	0.623116	-0.081287	-0.108639
C111	C	0.873116	0.168713	0.141361
C112	C	1.123116	0.418713	0.391361
C113	C	0.438550	-0.331301	-0.358616
C114	C	0.688550	-0.081301	-0.108616
C115	C	0.938550	0.168699	0.141384
C116	C	1.188550	0.418699	0.391384
C117	C	0.471206	-0.325873	-0.302156
C118	C	0.721206	-0.075873	-0.052156
C119	C	0.971206	0.174127	0.197844
C120	C	1.221206	0.424127	0.447844
C121	C	0.236680	-0.369177	-0.342243
C122	C	0.486680	-0.119177	-0.092243
C123	C	0.736680	0.130823	0.157757
C124	C	0.986680	0.380823	0.407757
C125	C	0.171243	-0.369156	-0.342272
C126	C	0.421243	-0.119156	-0.092272
C127	C	0.671243	0.130844	0.157728
C128	C	0.921243	0.380844	0.407728
C129	C	0.171231	-0.282452	-0.262272
C130	C	0.421231	-0.032452	-0.012272
C131	C	0.671231	0.217548	0.237728
C132	C	0.921231	0.467548	0.487728
C133	C	0.236666	-0.282470	-0.262248
C134	C	0.486666	-0.032470	-0.012248
C135	C	0.736666	0.217530	0.237752
C136	C	0.986666	0.467530	0.487752
C137	C	0.269387	-0.325836	-0.302233
C138	C	0.519387	-0.075836	-0.052233
C139	C	0.769387	0.174164	0.197767
C140	C	1.019387	0.424164	0.447767
C141	C	0.905384	-0.501707	-0.302157
C142	C	1.155384	-0.251707	-0.052157
C143	C	1.405384	-0.001707	0.197843
C144	C	1.655384	0.248293	0.447843
C145	C	0.905411	-0.576939	-0.302169
C146	C	1.155411	-0.326939	-0.052169
C147	C	1.405411	-0.076939	0.197831
C148	C	1.655411	0.173061	0.447831
C149	C	0.945474	-0.612213	-0.342292
C150	C	1.195474	-0.362213	-0.092292
C151	C	1.445474	-0.112213	0.157708
C152	C	1.695474	0.137787	0.407708
C153	C	0.945496	-0.682901	-0.342303
C154	C	1.195496	-0.432901	-0.092303
C155	C	1.445496	-0.182901	0.157697
C156	C	1.695496	0.067099	0.407697
C157	C	0.905459	-0.718315	-0.302188
C158	C	1.155459	-0.468315	-0.052188
C159	C	1.405459	-0.218315	0.197812
C160	C	1.655459	0.031685	0.447812
C161	C	0.865392	-0.683036	-0.262064
C162	C	1.115392	-0.433036	-0.012064
C163	C	1.365392	-0.183036	0.237936
C164	C	1.615392	0.066964	0.487936
C165	C	0.865367	-0.612349	-0.262056
C166	C	1.115367	-0.362349	-0.012056
C167	C	1.365367	-0.112349	0.237944
C168	C	1.615367	0.137651	0.487944
C169	C	0.865493	-0.968109	-0.262096
C170	C	1.115493	-0.718109	-0.012096
C171	C	1.365493	-0.468109	0.237904
C172	C	1.615493	-0.218109	0.487904
C173	C	0.865523	-1.038801	-0.262106
C174	C	1.115523	-0.788801	-0.012106
C175	C	1.365523	-0.538801	0.237894
C176	C	1.615523	-0.288801	0.487894
C177	C	0.945622	-1.038662	-0.342343
C178	C	1.195622	-0.788662	-0.092343
C179	C	1.445622	-0.538662	0.157657
C180	C	1.695622	-0.288662	0.407657
C181	C	0.945597	-0.967975	-0.342335
C182	C	1.195597	-0.717975	-0.092335
C183	C	1.445597	-0.467975	0.157665
C184	C	1.695597	-0.217975	0.407665
C185	C	0.905528	-0.932702	-0.302213
C186	C	1.155528	-0.682702	-0.052213
C187	C	1.405528	-0.432702	0.197787
C188	C	1.655528	-0.182702	0.447787
C189	C	0.905503	-0.856053	-0.302202
C190	C	1.155503	-0.606053	-0.052202
C191	C	1.405503	-0.356053	0.197798
C192	C	1.655503	-0.106053	0.447798
C193	C	0.905487	-0.794962	-0.302196
C194	C	1.155487	-0.544962	-0.052196
C195	C	1.405487	-0.294962	0.197804
C196	C	1.655487	-0.044962	0.447804
C197	C	1.068879	-0.325816	-0.302253
C198	C	1.318879	-0.075816	-0.052253
C199	C	1.568879	0.174184	0.197747
C200	C	1.818879	0.424184	0.447747
C201	C	1.138520	-0.325800	-0.302285
C202	C	1.388520	-0.075800	-0.052285
C203	C	1.638520	0.174200	0.197715
C204	C	1.888520	0.424200	0.447715
C205	C	0.905508	-0.325837	-0.465604
C206	C	1.155508	-0.075837	-0.215604
C207	C	1.405508	0.174163	0.034396
C208	C	1.655508	0.424163	0.284396
C209	C	0.905530	-0.325831	-0.535245
C210	C	1.155530	-0.075831	-0.285245
C211	C	1.405530	0.174169	-0.035245
C212	C	1.655530	0.424169	0.214755
C213	C	0.905545	-0.149308	-0.302217
C214	C	1.155545	0.100692	-0.052217
C215	C	1.405545	0.350692	0.197783
C216	C	1.655545	0.600692	0.447783
C217	C	0.905582	-0.074076	-0.302232
C218	C	1.155582	0.175924	-0.052232
C219	C	1.405582	0.425924	0.197768
C220	C	1.655582	0.675924	0.447768
C221	C	0.945623	-0.282530	-0.567986
C222	C	1.195623	-0.032530	-0.317986
C223	C	1.445623	0.217470	-0.067986
C224	C	1.695623	0.467470	0.182014
C225	C	0.945623	-0.282501	-0.633421
C226	C	1.195623	-0.032501	-0.383421
C227	C	1.445623	0.217499	-0.133421
C228	C	1.695623	0.467499	0.116579
C229	C	0.905535	-0.325785	-0.666113
C230	C	1.155535	-0.075785	-0.416113
C231	C	1.405535	0.174215	-0.166113
C232	C	1.655535	0.424215	0.083887
C233	C	0.865434	-0.369089	-0.633364
C234	C	1.115434	-0.119089	-0.383364
C235	C	1.365434	0.130911	-0.133364
C236	C	1.615434	0.380911	0.116636
C237	C	0.865431	-0.369112	-0.567930
C238	C	1.115431	-0.119112	-0.317930
C239	C	1.365431	0.130888	-0.067930
C240	C	1.615431	0.380888	0.182070
C241	C	0.900563	-0.386731	-0.769778
C242	C	1.150563	-0.136731	-0.519778
C243	C	1.400563	0.113269	-0.269778
C244	C	1.650563	0.363269	-0.019778
C245	C	0.900570	-0.386709	-0.835211
C246	C	1.150570	-0.136709	-0.585211
C247	C	1.400570	0.113291	-0.335211
C248	C	1.650570	0.363291	-0.085211
C249	C	0.905539	-0.325714	-0.867934
C250	C	1.155539	-0.075714	-0.617934
C251	C	1.405539	0.174286	-0.367934
C252	C	1.655539	0.424286	-0.117934
C253	C	0.910514	-0.264738	-0.835216
C254	C	1.160514	-0.014738	-0.585216
C255	C	1.410514	0.235262	-0.335216
C256	C	1.660514	0.485262	-0.085216
C257	C	0.910512	-0.264762	-0.769782
C258	C	1.160512	-0.014762	-0.519782
C259	C	1.410512	0.235238	-0.269782
C260	C	1.660512	0.485238	-0.019782
C261	C	0.905533	-0.325765	-0.737066
C262	C	1.155533	-0.075765	-0.487066
C263	C	1.405533	0.174235	-0.237066
C264	C	1.655533	0.424235	0.012934
C265	C	0.945633	-0.282378	-0.971628
C266	C	1.195633	-0.032378	-0.721628
C267	C	1.445633	0.217622	-0.471628
C268	C	1.695633	0.467622	-0.221628
C269	C	0.945628	-0.282347	-1.037064
C270	C	1.195628	-0.032347	-0.787064
C271	C	1.445628	0.217653	-0.537064
C272	C	1.695628	0.467653	-0.287064
C273	C	0.865443	-0.368941	-1.037006
C274	C	1.115443	-0.118941	-0.787006
C275	C	1.365443	0.131059	-0.537006
C276	C	1.615443	0.381059	-0.287006
C277	C	0.865445	-0.368966	-0.971571
C278	C	1.115445	-0.118966	-0.721571
C279	C	1.365445	0.131034	-0.471571
C280	C	1.615445	0.381034	-0.221571
C281	C	0.905543	-0.325685	-0.938885
C282	C	1.155543	-0.075685	-0.688885
C283	C	1.405543	0.174315	-0.438885
C284	C	1.655543	0.424315	-0.188885
C285	C	0.905440	-0.325816	-0.139393
C286	C	1.155440	-0.075816	0.110607
C287	C	1.405440	0.174184	0.360607
C288	C	1.655440	0.424184	0.610607
C289	C	0.905539	-0.325631	-0.069752
C290	C	1.155539	-0.075631	0.180248
C291	C	1.405539	0.174369	0.430248
C292	C	1.655539	0.424369	0.680248
H293	H	0.666958	-0.404574	-0.374656
H294	H	0.916958	-0.154574	-0.124656
H295	H	1.166958	0.095426	0.125344
H296	H	1.416958	0.345426	0.375344
Br297	Br	1.000002	-1.086535	-0.396797
Br298	Br	1.250002	-0.836535	-0.146797
Br299	Br	1.500002	-0.586535	0.103203
Br300	Br	1.750002	-0.336535	0.353203
Br301	Br	0.811013	-0.427882	-0.523492
Br302	Br	1.061013	-0.177882	-0.273492
Br303	Br	1.311013	0.072118	-0.023492
Br304	Br	1.561013	0.322118	0.226508
H305	H	0.832791	-0.711875	-0.229404
H306	H	1.082791	-0.461875	0.020596
H307	H	1.332791	-0.211875	0.270596
H308	H	1.582791	0.038125	0.520596
H309	H	0.832917	-1.067633	-0.229439
H310	H	1.082917	-0.817633	0.020561
H311	H	1.332917	-0.567633	0.270561
H312	H	1.582917	-0.317633	0.520561
H313	H	0.465022	-0.316026	-0.199756
H314	H	0.715022	-0.066026	0.050244
H315	H	0.965022	0.183974	0.300244
H316	H	1.215022	0.433974	0.550244
H317	H	0.832743	-0.583629	-0.229385
H318	H	1.082743	-0.333629	0.020615
H319	H	1.332743	-0.083629	0.270615
H320	H	1.582743	0.166371	0.520615
Br321	Br	0.530489	-0.428074	-0.396420
Br322	Br	0.780489	-0.178074	-0.146420
Br323	Br	1.030489	0.071926	0.103580
Br324	Br	1.280489	0.321926	0.353580
H325	H	0.346318	-0.316007	-0.199800
H326	H	0.596318	-0.066007	0.050200
H327	H	0.846318	0.183993	0.300200
H328	H	1.096318	0.433993	0.550200
H329	H	0.465236	-0.335727	-0.404567
H330	H	0.715236	-0.085727	-0.154567
H331	H	0.965236	0.164273	0.095433
H332	H	1.215236	0.414273	0.345433
H333	H	0.914561	-0.215070	-0.861857
H334	H	1.164561	0.034930	-0.611857
H335	H	1.414561	0.284930	-0.361857
H336	H	1.664561	0.534930	-0.111857
H337	H	0.978201	-0.939143	-0.374998
H338	H	1.228201	-0.689143	-0.124998
H339	H	1.478201	-0.439143	0.125002
H340	H	1.728201	-0.189143	0.375002
H341	H	0.548222	-0.247239	-0.229572
H342	H	0.798222	0.002761	0.020428
H343	H	1.048222	0.252761	0.270428
H344	H	1.298222	0.502761	0.520428
Br345	Br	0.328797	-0.338637	-0.435260
Br346	Br	0.578797	-0.088637	-0.185260
Br347	Br	0.828797	0.161363	0.064740
Br348	Br	1.078797	0.411363	0.314740
H349	H	0.978079	-0.583384	-0.374955
H350	H	1.228079	-0.333384	-0.124955
H351	H	1.478079	-0.083384	0.125045
H352	H	1.728079	0.166616	0.375045
Br353	Br	0.281056	-0.223642	-0.207953
Br354	Br	0.531056	0.026358	0.042047
Br355	Br	0.781056	0.276358	0.292047
Br356	Br	1.031056	0.526358	0.542047
H357	H	0.263322	-0.404485	-0.374805
H358	H	0.513322	-0.154485	-0.124805
H359	H	0.763322	0.095515	0.125195
H360	H	1.013322	0.345515	0.375195
H361	H	0.832869	-0.939395	-0.229426
H362	H	1.082869	-0.689395	0.020574
H363	H	1.332869	-0.439395	0.270574
H364	H	1.582869	-0.189395	0.520574
Br365	Br	1.000040	-0.223790	-0.523630
Br366	Br	1.250040	0.026210	-0.273630
Br367	Br	1.500040	0.276210	-0.023630
Br368	Br	1.750040	0.526210	0.226370
H369	H	0.978270	-0.247237	-0.660084
H370	H	1.228270	0.002763	-0.410084
H371	H	1.478270	0.252763	-0.160084
H372	H	1.728270	0.502763	0.089916
H373	H	0.144585	-0.247150	-0.229716
H374	H	0.394585	0.002850	0.020284
H375	H	0.644585	0.252850	0.270284
H376	H	0.894585	0.502850	0.520284
H377	H	0.666935	-0.247254	-0.229530
H378	H	0.916935	0.002746	0.020470
H379	H	1.166935	0.252746	0.270470
H380	H	1.416935	0.502746	0.520470
Br381	Br	0.999858	-0.730771	-0.396769
Br382	Br	1.249858	-0.480771	-0.146769
Br383	Br	1.499858	-0.230771	0.103231
Br384	Br	1.749858	0.019229	0.353231
H385	H	0.978281	-0.247132	-0.945014
H386	H	1.228281	0.002868	-0.695014
H387	H	1.478281	0.252868	-0.445014
H388	H	1.728281	0.502868	-0.195014
Br389	Br	0.917261	-0.182014	-0.725380
Br390	Br	1.167261	0.067986	-0.475380
Br391	Br	1.417261	0.317986	-0.225380
Br392	Br	1.667261	0.567986	0.024620
Br393	Br	0.126855	-0.427980	-0.396574
Br394	Br	0.376855	-0.177980	-0.146574
Br395	Br	0.626855	0.072020	0.103426
Br396	Br	0.876855	0.322020	0.353426
H397	H	0.978276	-0.247083	-1.063721
H398	H	1.228276	0.002917	-0.813721
H399	H	1.478276	0.252917	-0.563721
H400	H	1.728276	0.502917	-0.313721
H401	H	0.832796	-0.404177	-1.063623
H402	H	1.082796	-0.154177	-0.813623
H403	H	1.332796	0.095823	-0.563623
H404	H	1.582796	0.345823	-0.313623
H405	H	0.832800	-0.404230	-0.944913
H406	H	1.082800	-0.154230	-0.694913
H407	H	1.332800	0.095770	-0.444913
H408	H	1.582800	0.345770	-0.194913
H409	H	0.896522	-0.436359	-0.861846
H410	H	1.146522	-0.186359	-0.611846
H411	H	1.396522	0.063641	-0.361846
H412	H	1.646522	0.313641	-0.111846
H413	H	0.896349	-0.436388	-0.743141
H414	H	1.146349	-0.186388	-0.493141
H415	H	1.396349	0.063612	-0.243141
H416	H	1.646349	0.313612	0.006859
Br417	Br	0.811024	-0.427828	-0.677730
Br418	Br	1.061024	-0.177828	-0.427730
Br419	Br	1.311024	0.072172	-0.177730
Br420	Br	1.561024	0.322172	0.072270
