data_functionalizedCrystal
_audit_creation_method	'MofGen! by Chris Wilmer'
_symmetry_space_group_name_H-M	'P1'
_symmetry_Int_Tables_number	1
_symmetry_cell_setting	triclinic
loop_
_symmetry_equiv_pos_as_xyz
  x,y,z
_cell_length_a	9.065218
_cell_length_b	15.625429
_cell_length_c	14.750426
_cell_angle_alpha	93.443197
_cell_angle_beta	75.983047
_cell_angle_gamma	84.604571
loop_
_atom_site_label
_atom_site_type_symbol
_atom_site_fract_x
_atom_site_fract_y
_atom_site_fract_z
O1	O	1.915925	0.106276	0.116819
O2	O	1.485169	0.116341	0.120324
O3	O	1.727205	-0.010434	0.076194
O4	O	1.673889	0.233051	0.160950
O5	O	1.780289	0.022441	-0.072021
O6	O	1.538253	0.149216	-0.027890
O7	O	1.969008	0.139151	-0.031395
Zn8	Zn	1.762059	0.149403	-0.053175
Zn9	Zn	1.692119	0.106089	0.142104
O10	O	1.726972	0.265926	0.012736
C11	C	1.456865	0.131811	0.045880
C12	C	1.293445	0.128919	0.044874
C13	C	1.756597	-0.025184	-0.008768
C14	C	1.765071	-0.118115	-0.041111
C15	C	1.648231	-0.513348	0.256443
C16	C	1.656197	-0.600664	0.226024
C17	C	1.714066	-0.564812	0.064452
C18	C	1.706112	-0.477492	0.094856
C19	C	1.673192	-0.451767	0.190853
C20	C	1.731073	-0.415911	0.029267
C21	C	1.723112	-0.328598	0.059670
C22	C	1.690190	-0.302865	0.155662
C23	C	1.665231	-0.364454	0.221256
C24	C	1.763982	-0.441636	-0.066729
C25	C	1.788943	-0.380056	-0.132319
C26	C	1.780993	-0.292741	-0.101917
C27	C	1.748070	-0.267009	-0.005924
C28	C	1.805951	-0.231153	-0.167510
C29	C	1.797990	-0.143840	-0.137107
C30	C	1.740109	-0.179696	0.024479
C31	C	1.997311	0.123680	0.043051
C32	C	2.160729	0.126572	0.044063
C33	C	1.697580	0.280676	0.097699
C34	C	1.689104	0.373605	0.130048
N35	N	1.809802	0.178964	-0.186447
C36	C	1.943121	0.261464	-0.308473
C37	C	1.909664	0.240765	-0.215174
C38	C	1.743362	0.137834	-0.251017
C39	C	1.776810	0.158522	-0.344322
C40	C	1.876689	0.220338	-0.373041
C41	C	1.710379	0.117396	-0.408891
C42	C	1.743819	0.138085	-0.502186
C43	C	1.843690	0.199901	-0.530913
C44	C	1.910129	0.241028	-0.466337
C45	C	1.610492	0.055584	-0.380168
C46	C	1.544060	0.014458	-0.444736
C47	C	1.577508	0.035143	-0.538035
C48	C	1.677380	0.096958	-0.566762
C49	C	1.511069	-0.005984	-0.602611
C50	C	1.544509	0.014706	-0.695906
C51	C	1.710820	0.117648	-0.660057
N52	N	1.644388	0.076522	0.275374
H53	H	1.713316	-0.158751	0.102649
F54	F	1.824563	-0.078298	-0.206915
F55	F	2.016452	0.306810	-0.496910
H56	H	1.832739	-0.252111	-0.245671
H57	H	1.792161	0.167980	-0.683443
H58	H	1.740863	-0.585769	-0.013709
H59	H	1.870913	0.216747	-0.606880
F60	F	1.637061	0.072049	-0.220440
F61	F	1.681720	-0.209938	0.188020
H62	H	1.462734	-0.035871	-0.421339
H63	H	1.638438	-0.343509	0.299426
H64	H	2.024462	0.311796	-0.331859
H65	H	1.963762	0.274263	-0.162601
F66	F	1.823965	-0.407443	-0.234483
F67	F	1.574892	0.033572	-0.280871
H68	H	1.770446	-0.512732	-0.091480
H69	H	1.490410	-0.018782	-0.748480
F70	F	1.613214	-0.485967	0.358614
F71	F	1.629620	-0.666202	0.295842
H72	H	1.429736	-0.056309	-0.579211
