data_functionalizedCrystal
_audit_creation_method	'MofGen! by Chris Wilmer'
_symmetry_space_group_name_H-M	'P1'
_symmetry_Int_Tables_number	1
_symmetry_cell_setting	triclinic
loop_
_symmetry_equiv_pos_as_xyz
  x,y,z
_cell_length_a	19.188930
_cell_length_b	23.532357
_cell_length_c	17.666332
_cell_angle_alpha	89.987974
_cell_angle_beta	89.976766
_cell_angle_gamma	82.986534
loop_
_atom_site_label
_atom_site_type_symbol
_atom_site_fract_x
_atom_site_fract_y
_atom_site_fract_z
O1	O	0.925907	0.071104	-0.063201
O2	O	0.722563	0.080675	-0.063150
O3	O	0.830385	-0.007031	-0.063161
O4	O	0.818085	0.158810	-0.063189
O5	O	0.830366	-0.007036	0.062735
O6	O	0.722544	0.080671	0.062747
O7	O	0.925888	0.071099	0.062696
Cu8	Cu	0.824215	0.075885	0.074217
Cu9	Cu	0.824237	0.075890	-0.074671
O10	O	0.818066	0.158806	0.062707
C11	C	0.696544	0.080363	-0.000195
C12	C	0.619042	0.079433	-0.000175
C13	C	0.573943	0.130896	-0.000196
C14	C	0.501122	0.130022	-0.000204
C15	C	0.473404	0.077681	-0.000206
C16	C	0.518513	0.026211	-0.000182
C17	C	0.591333	0.027087	-0.000166
N18	N	0.365567	0.037675	-0.043078
N19	N	0.296391	0.036847	-0.043095
C20	C	0.254004	0.075040	-0.000252
N21	N	0.283406	0.114101	0.042598
N22	N	0.352587	0.114931	0.042611
C23	C	0.394445	0.076726	-0.000223
C24	C	0.129944	0.125559	-0.000281
C25	C	0.057122	0.124683	-0.000284
C26	C	0.074515	0.020871	-0.000270
C27	C	0.147335	0.021749	-0.000259
C28	C	0.175045	0.074094	-0.000268
C29	C	0.830068	-0.028251	-0.000211
C30	C	0.829143	-0.091471	-0.000203
C31	C	0.823346	-0.483492	-0.068869
C32	C	0.822467	-0.542894	-0.068873
O33	O	0.821997	-0.573609	-0.127237
N34	N	0.822021	-0.572608	-0.000248
C35	C	0.822447	-0.542918	0.068387
O36	O	0.821986	-0.573647	0.126757
C37	C	0.823321	-0.483517	0.068390
C38	C	0.823774	-0.453806	-0.000240
C39	C	0.823799	-0.453781	-0.137493
C40	C	0.824679	-0.394384	-0.137489
C41	C	0.825107	-0.364698	-0.068860
C42	C	0.824655	-0.394409	-0.000236
C43	C	0.823742	-0.453827	0.137023
C44	C	0.824616	-0.394422	0.137021
C45	C	0.825069	-0.364711	0.068391
C46	C	0.825963	-0.305326	0.068397
N47	N	0.826410	-0.275611	-0.000228
C48	C	0.825982	-0.305297	-0.068857
C49	C	0.820609	-0.667663	0.068374
C50	C	0.819740	-0.727063	0.068372
C51	C	0.819759	-0.727035	-0.068888
C52	C	0.820633	-0.667634	-0.068885
C53	C	0.821056	-0.637949	-0.000251
C54	C	0.827831	-0.180559	-0.068842
C55	C	0.828715	-0.121157	-0.068832
C56	C	0.828692	-0.121190	0.068427
C57	C	0.827812	-0.180588	0.068417
C58	C	0.827380	-0.210270	-0.000224
O59	O	0.826431	-0.274573	0.126731
O60	O	0.826433	-0.274560	-0.127218
C61	C	0.951908	0.071411	-0.000261
C62	C	1.029409	0.072342	-0.000286
C63	C	0.818383	0.180025	-0.000245
C64	C	0.819308	0.243246	-0.000257
N65	N	0.824204	0.075880	0.178936
N66	N	0.824253	0.075890	-0.179390
C67	C	0.871963	0.037063	0.218541
C68	C	0.871967	0.037060	0.297789
C69	C	0.824219	0.075885	0.337428
C70	C	0.776451	0.114705	0.297814
C71	C	0.776444	0.114703	0.218568
N72	N	0.814971	0.126301	0.461840
N73	N	0.814982	0.126301	0.537120
C74	C	0.824237	0.075893	0.576192
N75	N	0.833495	0.025482	0.537140
N76	N	0.833487	0.025482	0.461853
C77	C	0.824221	0.075891	0.423357
C78	C	0.872003	0.037069	0.701726
C79	C	0.872002	0.037065	0.780975
C80	C	0.776490	0.114715	0.780999
C81	C	0.776487	0.114714	0.701752
C82	C	0.824248	0.075891	0.662120
H83	H	0.020402	0.166592	-0.000297
O84	O	0.635245	-0.022854	-0.000119
C85	C	0.705460	-0.010857	-0.000130
H86	H	0.707920	0.033868	0.023701
H87	H	0.726565	-0.013065	-0.060526
C88	C	0.747304	-0.110120	0.019982
C89	C	0.750326	-0.055189	0.049258
H90	H	0.774981	-0.137467	0.050444
H91	H	0.700000	-0.118203	0.019987
H92	H	0.764891	-0.111952	-0.030347
H93	H	0.732732	-0.053356	0.099583
H94	H	0.797629	-0.047106	0.049263
O95	O	0.819181	-0.755879	0.135061
C96	C	0.758920	-0.734745	0.176828
H97	H	0.716900	-0.713797	0.136676
H98	H	0.773097	-0.701760	0.219608
C99	C	0.782315	-0.810244	0.268214
C100	C	0.730703	-0.784519	0.218898
H101	H	0.764911	-0.840946	0.294168
H102	H	0.822916	-0.824481	0.240077
H103	H	0.794125	-0.782751	0.303858
H104	H	0.718901	-0.812010	0.183250
H105	H	0.690100	-0.770287	0.247030
O106	O	0.821124	-0.638778	0.135002
C107	C	0.882116	-0.611036	0.139111
H108	H	0.902417	-0.604321	0.079522
H109	H	0.924124	-0.638565	0.172959
C110	C	0.839640	-0.560866	0.251558
C111	C	0.864570	-0.552614	0.178369
H112	H	0.828818	-0.524830	0.275777
H113	H	0.798549	-0.579558	0.248792
H114	H	0.874650	-0.583809	0.279755
H115	H	0.829557	-0.529678	0.150171
H116	H	0.905655	-0.533917	0.181131
O117	O	0.829121	-0.092381	-0.135570
C118	C	0.828569	-0.131327	-0.196142
H119	H	0.805832	-0.171257	-0.176016
H120	H	0.884500	-0.143763	-0.217258
C121	C	0.811055	-0.054090	-0.285689
C122	C	0.783122	-0.103131	-0.260972
H123	H	0.783024	-0.036697	-0.325681
H124	H	0.811429	-0.027851	-0.244881
H125	H	0.857664	-0.064460	-0.303280
H126	H	0.736518	-0.092760	-0.243372
H127	H	0.782739	-0.129367	-0.301778
O128	O	0.918331	-0.000727	0.336192
C129	C	0.907380	-0.057086	0.316872
H130	H	0.880469	-0.056968	0.259346
H131	H	0.872753	-0.074624	0.361496
C132	C	1.011595	-0.095262	0.383853
C133	C	0.978548	-0.095117	0.313195
H134	H	1.055494	-0.118723	0.381588
H135	H	1.018972	-0.057292	0.396872
H136	H	0.982733	-0.109876	0.421032
H137	H	1.007406	-0.080497	0.276019
H138	H	0.971178	-0.133086	0.300170
O139	O	0.191248	-0.028191	-0.000217
C140	C	0.261463	-0.016195	-0.000225
H141	H	0.263923	0.028530	0.023609
H142	H	0.282570	-0.018401	-0.060620
C143	C	0.303304	-0.115459	0.019883
C144	C	0.306327	-0.060529	0.049163
H145	H	0.330980	-0.142807	0.050345
H146	H	0.255999	-0.123541	0.019886
H147	H	0.320892	-0.117289	-0.030446
H148	H	0.288731	-0.058697	0.099487
H149	H	0.353630	-0.052447	0.049170
H150	H	0.910891	0.005455	0.669457
O151	O	0.730134	0.152507	0.819413
C152	C	0.741086	0.208864	0.800041
H153	H	0.767993	0.208740	0.742488
H154	H	0.775714	0.226407	0.844618
C155	C	0.636874	0.247048	0.867092
C156	C	0.669917	0.246896	0.796403
H157	H	0.592974	0.270509	0.864851
H158	H	0.629497	0.209080	0.880147
H159	H	0.665738	0.261666	0.904232
H160	H	0.641057	0.232272	0.759266
H161	H	0.677287	0.284863	0.783342
H162	H	0.824949	-0.370254	0.192912
H163	H	0.737552	0.146313	0.186321
H164	H	0.152506	0.168182	-0.000277
O165	O	0.827348	-0.209362	0.135150
C166	C	0.827937	-0.170421	0.195724
H167	H	0.806466	-0.125659	0.175610
H168	H	0.884050	-0.170233	0.216814
C169	C	0.808158	-0.243584	0.285276
C170	C	0.781781	-0.188607	0.260574
H171	H	0.779689	-0.254803	0.325281
H172	H	0.807764	-0.269820	0.244467
H173	H	0.854918	-0.243420	0.302846
H174	H	0.735025	-0.188774	0.242996
H175	H	0.782166	-0.162372	0.301381
H176	H	0.823374	-0.478007	0.192909
O177	O	0.047631	-0.029987	-0.000138
C178	C	0.070694	-0.061358	0.065063
H179	H	0.085601	-0.030750	0.110636
H180	H	0.118391	-0.093214	0.050334
C181	C	-0.006991	-0.131535	0.038648
C182	C	0.011312	-0.093941	0.094624
H183	H	-0.043619	-0.151635	0.056881
H184	H	-0.022528	-0.110401	-0.005281
H185	H	0.032761	-0.158076	0.026379
H186	H	-0.028437	-0.067396	0.106885
H187	H	0.026841	-0.115071	0.138556
H188	H	0.910891	0.005452	0.813222
O189	O	0.730041	0.152342	0.336401
C190	C	0.687185	0.121927	0.382262
H191	H	0.715317	0.077305	0.394133
H192	H	0.635610	0.118159	0.351754
C193	C	0.637488	0.208875	0.442956
C194	C	0.672043	0.154071	0.457541
H195	H	0.628144	0.228704	0.489390
H196	H	0.666359	0.229366	0.412057
H197	H	0.594513	0.205727	0.417530
H198	H	0.715021	0.157220	0.482958
H199	H	0.643179	0.133581	0.488447
H200	H	0.821002	-0.643448	-0.124769
H201	H	0.829044	-0.097010	0.124303
H202	H	0.596499	0.173520	-0.000204
H203	H	0.464395	0.171931	-0.000218
H204	H	0.910851	0.005450	0.186275
H205	H	0.827476	-0.204720	-0.124737
H206	H	0.495941	-0.016405	-0.000194
H207	H	0.825046	-0.370199	-0.193375
H208	H	0.823448	-0.477945	-0.193382
H209	H	0.819408	-0.751216	-0.124769
H210	H	0.737600	0.146325	0.669504
