data_functionalizedCrystal
_audit_creation_method	'MofGen! by Chris Wilmer'
_symmetry_space_group_name_H-M	'P1'
_symmetry_Int_Tables_number	1
_symmetry_cell_setting	triclinic
loop_
_symmetry_equiv_pos_as_xyz
  x,y,z
_cell_length_a	21.395362
_cell_length_b	12.645330
_cell_length_c	21.395355
_cell_angle_alpha	90.012330
_cell_angle_beta	90.043940
_cell_angle_gamma	90.033572
loop_
_atom_site_label
_atom_site_type_symbol
_atom_site_fract_x
_atom_site_fract_y
_atom_site_fract_z
Zn1	Zn	0.957916	-0.421713	0.354613
Zn2	Zn	0.957842	-0.598962	0.249846
Zn3	Zn	0.853131	-0.421762	0.249814
Zn4	Zn	0.853124	-0.598984	0.354551
O5	O	0.905503	-0.510355	0.302206
O6	O	1.045584	-0.445196	0.340754
O7	O	0.943924	-0.575468	0.162164
O8	O	0.867065	-0.273408	0.263728
O9	O	1.045530	-0.575420	0.263783
O10	O	0.944050	-0.273372	0.340723
O11	O	0.866993	-0.445280	0.162140
O12	O	0.765452	-0.445301	0.263668
O13	O	0.867053	-0.575457	0.442237
O14	O	0.765447	-0.575505	0.340618
O15	O	0.944043	-0.445217	0.442282
O16	O	0.943918	-0.747312	0.263724
O17	O	0.866981	-0.747328	0.340650
C18	C	0.742716	-0.510411	0.302133
C19	C	0.673074	-0.510461	0.302117
C20	C	0.905458	-0.785785	0.302197
C21	C	0.905495	-0.903615	0.302214
C22	C	0.640375	-0.578348	0.342125
C23	C	0.574940	-0.578322	0.342153
C24	C	0.542206	-0.510420	0.302162
C25	C	0.574913	-0.442520	0.262151
C26	C	0.640348	-0.442540	0.262129
C27	C	0.438480	-0.501880	0.245756
C28	C	0.373047	-0.501867	0.245777
C29	C	0.340386	-0.510351	0.302231
C30	C	0.373165	-0.518870	0.358665
C31	C	0.438599	-0.518890	0.358643
C32	C	0.471254	-0.510390	0.302182
C33	C	0.236734	-0.578213	0.342272
C34	C	0.171297	-0.578180	0.342301
C35	C	0.171272	-0.442383	0.262294
C36	C	0.236707	-0.442411	0.262271
C37	C	0.269434	-0.510332	0.302259
C38	C	0.857295	-1.071233	0.350758
C39	C	0.857048	-0.948674	0.350602
C40	C	0.887617	-0.948193	0.236177
C41	C	0.887323	-1.070792	0.236472
C42	C	0.971870	-1.070679	0.319173
C43	C	0.971463	-0.948073	0.320616
C44	C	1.068927	-0.510300	0.302279
C45	C	1.138568	-0.510276	0.302311
C46	C	0.905555	-0.510334	0.465629
C47	C	0.905578	-0.510325	0.535271
C48	C	0.905566	-0.233850	0.302228
C49	C	0.905593	-0.116020	0.302238
C50	C	0.905488	-0.510300	0.139418
C51	C	0.905587	-0.510011	0.069778
C52	C	0.945665	-0.442506	0.568008
C53	C	0.945664	-0.442460	0.633444
C54	C	0.905582	-0.510252	0.666139
C55	C	0.865488	-0.578076	0.633393
C56	C	0.865485	-0.578112	0.567959
C57	C	0.900619	-0.605707	0.769809
C58	C	0.900626	-0.605673	0.835242
C59	C	0.905586	-0.510140	0.867960
C60	C	0.910553	-0.414639	0.835237
C61	C	0.910550	-0.414676	0.769803
C62	C	0.905580	-0.510220	0.737091
C63	C	0.945675	-0.442266	0.971650
C64	C	0.945669	-0.442219	1.037087
C65	C	0.865496	-0.577844	1.037035
C66	C	0.865498	-0.577882	0.971600
C67	C	0.905591	-0.510095	0.938911
H68	H	0.548311	-0.633603	0.374734
H69	H	0.920975	-1.100419	0.199087
N70	N	0.796033	-1.109986	0.336865
N71	N	0.750739	-1.083379	0.370204
H72	H	0.707472	-1.110745	0.360391
N73	N	1.017005	-1.107005	0.274835
N74	N	1.000518	-1.166027	0.230938
H75	H	1.032390	-1.191686	0.199621
N76	N	0.541490	-0.373161	0.221292
N77	N	0.570697	-0.312553	0.185570
H78	H	0.547093	-0.263563	0.156712
H79	H	0.832838	-0.633337	0.541305
H80	H	1.009343	-0.917393	0.287852
H81	H	0.839674	-0.917599	0.221575
H82	H	0.896413	-0.683481	0.743176
H83	H	0.978310	-0.387306	0.541397
H84	H	0.832855	-0.633031	1.063655
N85	N	0.871238	-1.108132	0.412381
N86	N	0.871427	-1.205094	0.423728
H87	H	0.881291	-1.231150	0.467250
H88	H	0.988178	-1.101533	0.366510
H89	H	0.465285	-0.525824	0.404593
N90	N	0.339817	-0.527574	0.416338
N91	N	0.303285	-0.603317	0.425047
H92	H	0.279733	-0.609476	0.465778
N93	N	0.871090	-0.910860	0.412026
N94	N	0.921888	-0.934430	0.437320
H95	H	0.931805	-0.907731	0.480704
H96	H	0.838874	-1.099500	0.222129
N97	N	0.986613	-0.373167	0.666884
N98	N	1.022402	-0.312644	0.637690
H99	H	1.051322	-0.263704	0.661305
H100	H	0.666971	-0.387255	0.229549
H101	H	0.914593	-0.336915	0.743162
H102	H	0.263381	-0.633513	0.374837
N103	N	0.915619	-0.317056	0.868658
N104	N	0.915614	-0.317031	0.927080
H105	H	0.919192	-0.248116	0.950687
N106	N	0.795407	-0.912030	0.336527
N107	N	0.752437	-0.977001	0.326784
H108	H	0.708900	-0.951124	0.316842
N109	N	0.137903	-0.647526	0.383181
N110	N	0.167134	-0.708156	0.418880
H111	H	0.143549	-0.757133	0.447753
N112	N	0.137854	-0.373023	0.221435
N113	N	0.167061	-0.312420	0.185710
H114	H	0.143458	-0.263430	0.156852
N115	N	0.471837	-0.493237	0.188082
N116	N	0.508295	-0.565206	0.171582
H117	H	0.531852	-0.559103	0.130851
H118	H	0.263332	-0.387135	0.229689
N119	N	0.988372	-0.911515	0.381585
N120	N	0.952008	-0.852932	0.411408
H121	H	0.963948	-0.827108	0.454468
N122	N	0.824547	-0.647167	0.938165
N123	N	0.788760	-0.707689	0.967362
H124	H	0.759834	-0.756623	0.943749
H125	H	0.978317	-0.387064	0.945034
H126	H	0.921680	-0.919005	0.199037
H127	H	0.832851	-0.633270	0.660018
H128	H	0.978312	-0.386986	1.063741
N129	N	0.895530	-0.703233	0.868647
N130	N	0.935829	-0.773688	0.861372
H131	H	0.932217	-0.842597	0.884956
N132	N	0.673794	-0.647730	0.382975
N133	N	0.644585	-0.708339	0.418695
H134	H	0.668187	-0.757340	0.447547
H135	H	0.346364	-0.494937	0.199825
