data_functionalizedCrystal
_audit_creation_method	'MofGen! by Chris Wilmer'
_symmetry_space_group_name_H-M	'P1'
_symmetry_Int_Tables_number	1
_symmetry_cell_setting	triclinic
loop_
_symmetry_equiv_pos_as_xyz
  x,y,z
_cell_length_a	6.394989
_cell_length_b	10.723023
_cell_length_c	9.798715
_cell_angle_alpha	89.996770
_cell_angle_beta	89.999935
_cell_angle_gamma	85.482629
loop_
_atom_site_label
_atom_site_type_symbol
_atom_site_fract_x
_atom_site_fract_y
_atom_site_fract_z
O1	O	0.293014	1.660298	-0.113467
O2	O	0.321064	1.297443	-0.113472
O3	O	0.003048	1.484021	-0.113471
O4	O	0.611029	1.473720	-0.113468
O5	O	0.003047	1.484006	0.113511
O6	O	0.321063	1.297429	0.113510
O7	O	0.293013	1.660283	0.113515
Zn8	Zn	0.307038	1.478854	0.149551
Zn9	Zn	0.307039	1.478873	-0.149508
O10	O	0.611028	1.473706	0.113514
C11	C	0.319022	1.250914	0.000018
C12	C	0.312916	1.112295	0.000016
C13	C	0.303883	0.907239	-0.117568
C14	C	0.310194	1.050509	-0.117568
C15	C	0.688879	1.475749	0.000017
C16	C	0.925203	1.481974	0.000013
C17	C	0.295054	1.706812	0.000022
C18	C	0.301161	1.845431	0.000015
N19	N	0.307036	1.478850	0.353651
N20	N	0.307024	1.478886	-0.353608
C21	C	0.172922	1.557183	0.421428
C22	C	0.172914	1.557203	0.578591
H23	H	0.058097	1.624228	0.363106
H24	H	0.301529	0.854089	-0.218234
H25	H	0.312549	1.103662	-0.218235
O26	O	0.309848	1.049059	0.120211
C27	C	0.130590	1.092063	0.195510
H28	H	0.074538	1.190435	0.160457
H29	H	0.171399	1.093845	0.308709
H30	H	0.000884	1.026685	0.178254
H31	H	0.421844	1.411796	0.411975
O32	O	0.035637	1.637153	0.647967
C33	C	-0.171385	1.613267	0.613180
H34	H	-0.171783	1.565229	0.509408
H35	H	-0.273264	1.705317	0.608420
H36	H	-0.236511	1.549943	0.693582
H37	H	0.303492	0.898582	0.100681
H38	H	0.421859	1.411823	0.588116
