data_functionalizedCrystal
_audit_creation_method	'MofGen! by Chris Wilmer'
_symmetry_space_group_name_H-M	'P1'
_symmetry_Int_Tables_number	1
_symmetry_cell_setting	triclinic
loop_
_symmetry_equiv_pos_as_xyz
  x,y,z
_cell_length_a	18.215407
_cell_length_b	17.637651
_cell_length_c	17.639309
_cell_angle_alpha	65.653869
_cell_angle_beta	101.192046
_cell_angle_gamma	101.219162
loop_
_atom_site_label
_atom_site_type_symbol
_atom_site_fract_x
_atom_site_fract_y
_atom_site_fract_z
Zn1	Zn	1.005879	-0.233914	-0.399613
Zn2	Zn	1.505879	0.266086	0.100387
Zn3	Zn	1.005809	-0.399662	-0.233885
Zn4	Zn	1.505809	0.100338	0.266115
Zn5	Zn	0.903501	-0.261822	-0.261794
Zn6	Zn	1.403501	0.238178	0.238206
Zn7	Zn	0.862118	-0.371741	-0.371676
Zn8	Zn	1.362118	0.128259	0.128324
O9	O	0.944327	-0.316785	-0.316742
O10	O	1.444327	0.183215	0.183258
O11	O	1.108851	-0.255906	-0.377640
O12	O	1.608851	0.244094	0.122360
O13	O	1.009528	-0.404742	-0.122243
O14	O	1.509528	0.095258	0.377757
O15	O	0.934430	-0.142752	-0.303448
O16	O	1.434430	0.357248	0.196552
O17	O	1.108800	-0.377680	-0.255880
O18	O	1.608800	0.122320	0.244120
O19	O	1.009647	-0.122248	-0.404702
O20	O	1.509647	0.377752	0.095298
O21	O	0.934362	-0.303472	-0.142748
O22	O	1.434362	0.196528	0.357252
O23	O	0.795030	-0.276398	-0.276359
O24	O	1.295030	0.223602	0.223641
O25	O	0.863898	-0.330093	-0.490726
O26	O	1.363898	0.169907	0.009274
O27	O	0.764626	-0.357155	-0.357089
O28	O	1.264626	0.142845	0.142911
O29	O	0.969519	-0.228832	-0.511251
O30	O	1.469519	0.271168	-0.011251
O31	O	0.969400	-0.511326	-0.228791
O32	O	1.469400	-0.011326	0.271209
O33	O	0.863830	-0.490812	-0.330026
O34	O	1.363830	0.009188	0.169974
C35	C	0.753126	-0.316775	-0.316721
C36	C	1.253126	0.183225	0.183279
C37	C	0.671324	-0.316787	-0.316728
C38	C	1.171324	0.183213	0.183272
C39	C	0.912134	-0.530979	-0.273367
C40	C	1.412134	-0.030979	0.226633
C41	C	0.898425	-0.622607	-0.254838
C42	C	1.398425	-0.122607	0.245162
C43	C	0.467315	-0.358934	-0.358681
C44	C	0.967315	0.141066	0.141319
C45	C	0.390454	-0.358934	-0.358691
C46	C	0.890454	0.141066	0.141309
C47	C	0.422085	-0.274647	-0.274818
C48	C	0.922085	0.225353	0.225182
C49	C	0.498944	-0.274642	-0.274814
C50	C	0.998944	0.225358	0.225186
C51	C	0.521557	-0.316790	-0.316743
C52	C	1.021557	0.183210	0.183257
C53	C	0.367837	-0.316796	-0.316757
C54	C	0.867837	0.183204	0.183243
C55	C	0.284501	-0.316796	-0.316767
C56	C	0.784501	0.183204	0.183233
C57	C	0.604898	-0.316789	-0.316734
C58	C	1.104898	0.183211	0.183266
C59	C	1.048912	-0.870232	-0.457761
C60	C	1.548912	-0.370232	0.042239
C61	C	1.036009	-0.956333	-0.440336
C62	C	1.536009	-0.456333	0.059664
C63	C	0.957763	-0.977812	-0.334798
C64	C	1.457763	-0.477812	0.165202
C65	C	0.970663	-0.891712	-0.352211
C66	C	1.470663	-0.391712	0.147789
C67	C	1.016237	-0.837928	-0.413694
C68	C	1.516237	-0.337928	0.086306
C69	C	0.937988	-0.859407	-0.308144
C70	C	1.437988	-0.359407	0.191856
C71	C	0.950883	-0.773314	-0.325559
C72	C	1.450883	-0.273314	0.174441
C73	C	0.996453	-0.719525	-0.387040
C74	C	1.496453	-0.219525	0.112960
C75	C	1.029132	-0.751834	-0.431109
C76	C	1.529132	-0.251834	0.068891
C77	C	0.892410	-0.913192	-0.246665
C78	C	1.392410	-0.413192	0.253335
C79	C	0.859735	-0.880888	-0.202598
C80	C	1.359735	-0.380888	0.297402
C81	C	0.872634	-0.794794	-0.220008
C82	C	1.372634	-0.294794	0.279992
C83	C	0.918204	-0.741004	-0.281490
C84	C	1.418204	-0.241004	0.218510
C85	C	0.839956	-0.762484	-0.175940
C86	C	1.339956	-0.262484	0.324060
C87	C	0.852851	-0.676390	-0.193355
C88	C	1.352851	-0.176390	0.306645
C89	C	0.931100	-0.654911	-0.298905
C90	C	1.431100	-0.154911	0.201095
C91	C	1.136274	-0.316794	-0.316763
C92	C	1.636274	0.183206	0.183237
C93	C	1.218070	-0.316799	-0.316772
C94	C	1.718070	0.183201	0.183228
C95	C	0.912100	-0.273235	-0.531732
C96	C	1.412100	0.226765	-0.031732
C97	C	0.898367	-0.254676	-0.623348
C98	C	1.398367	0.245324	-0.123348
C99	C	0.976662	-0.101750	-0.360305
C100	C	1.476662	0.398250	0.139695
C101	C	0.990442	-0.010115	-0.378868
C102	C	1.490442	0.489885	0.121132
C103	C	0.839879	-0.175799	-0.763152
C104	C	1.339879	0.324201	-0.263152
C105	C	0.852788	-0.193243	-0.677064
C106	C	1.352788	0.306757	-0.177064
C107	C	0.931052	-0.298693	-0.655705
C108	C	1.431052	0.201307	-0.155705
C109	C	0.918146	-0.281260	-0.741792
C110	C	1.418146	0.218740	-0.241792
C111	C	0.872560	-0.219812	-0.795510
C112	C	1.372560	0.280188	-0.295510
C113	C	0.950827	-0.325274	-0.774150
C114	C	1.450827	0.174726	-0.274150
C115	C	0.937926	-0.307839	-0.860231
C116	C	1.437926	0.192161	-0.360231
C117	C	0.892343	-0.246391	-0.913954
C118	C	1.392343	0.253609	-0.413954
C119	C	0.859659	-0.202377	-0.881590
C120	C	1.359659	0.297623	-0.381590
C121	C	0.996417	-0.386718	-0.720432
C122	C	1.496417	0.113282	-0.220432
C123	C	1.029098	-0.430731	-0.752790
C124	C	1.529098	0.069269	-0.252790
C125	C	1.016193	-0.413301	-0.838871
C126	C	1.516193	0.086699	-0.338871
C127	C	0.970610	-0.351853	-0.892594
C128	C	1.470610	0.148147	-0.392594
C129	C	1.048877	-0.457315	-0.871234
C130	C	1.548877	0.042685	-0.371234
C131	C	1.035976	-0.439880	-0.957315
C132	C	1.535976	0.060120	-0.457315
C133	C	0.957709	-0.334419	-0.978675
C134	C	1.457709	0.165581	-0.478675
C135	C	0.976479	-0.360106	-0.102601
C136	C	1.476479	0.139894	0.397399
C137	C	0.990390	-0.378432	-0.011032
C138	C	1.490390	0.121568	0.488968
H139	H	0.485723	-0.393251	-0.392825
H140	H	0.985723	0.106749	0.107175
H141	H	1.006922	-0.400909	-0.650340
H142	H	1.506922	0.099091	-0.150340
C143	C	1.071924	-0.488300	-0.992910
C144	C	1.571924	0.011700	-0.492910
N145	N	1.099002	-0.524769	-1.019720
N146	N	1.599002	-0.024769	-0.519720
H147	H	0.543112	-0.240319	-0.240664
H148	H	1.043112	0.259681	0.259336
H149	H	0.968217	-0.611118	-0.348965
H150	H	1.468217	-0.111118	0.151035
C151	C	1.099024	-0.524903	-0.812135
C152	C	1.599024	-0.024903	-0.312135
N153	N	1.136795	-0.575811	-0.767621
N154	N	1.636795	-0.075811	-0.267621
C155	C	0.397204	-0.228292	-0.228693
C156	C	0.897204	0.271708	0.271307
N157	N	0.378464	-0.193378	-0.193948
N158	N	0.878464	0.306622	0.306052
H159	H	0.920655	-1.021614	-0.284740
H160	H	1.420655	-0.521614	0.215260
H161	H	1.006952	-0.649422	-0.401218
H162	H	1.506952	-0.149422	0.098782
H163	H	0.802756	-0.125763	-0.806892
H164	H	1.302756	0.374237	-0.306892
C165	C	1.071957	-0.991863	-0.488819
C166	C	1.571957	-0.491863	0.011181
N167	N	1.099032	-1.018624	-0.525337
N168	N	1.599032	-0.518624	-0.025337
H169	H	0.920585	-0.284383	-1.022414
H170	H	1.420585	0.215617	-0.522414
C171	C	0.330791	-0.405304	-0.404817
C172	C	0.830791	0.094696	0.095183
N173	N	0.285852	-0.440235	-0.439558
N174	N	0.785852	0.059765	0.060442
H175	H	0.802843	-0.806286	-0.125887
H176	H	1.302843	-0.306286	0.374113
C177	C	1.079265	-0.692666	-0.498745
C178	C	1.579265	-0.192666	0.001255
N179	N	1.117020	-0.648101	-0.549689
N180	N	1.617020	-0.148101	-0.049689
H181	H	0.881904	-0.983293	-0.232496
H182	H	1.381904	-0.483293	0.267504
H183	H	1.066217	-0.480760	-0.709042
H184	H	1.566217	0.019240	-0.209042
C185	C	1.099045	-0.811064	-0.525397
C186	C	1.599045	-0.311064	-0.025397
N187	N	1.136800	-0.766499	-0.576341
N188	N	1.636800	-0.266499	-0.076341
H189	H	0.822626	-0.924689	-0.152540
H190	H	1.322626	-0.424689	0.347460
C191	C	0.816915	-0.640855	-0.144872
C192	C	1.316915	-0.140855	0.355128
N193	N	0.789847	-0.614091	-0.108352
N194	N	1.289847	-0.114091	0.391648
H195	H	0.881843	-0.232194	-0.984046
H196	H	1.381843	0.267806	-0.484046
C197	C	0.816830	-0.144823	-0.641474
C198	C	1.316830	0.355177	-0.141474
N199	N	0.789746	-0.108353	-0.614668
N200	N	1.289746	0.391647	-0.114668
H201	H	0.968170	-0.348722	-0.611957
H202	H	1.468170	0.151278	-0.111957
C203	C	0.809506	-0.134785	-0.940684
C204	C	1.309506	0.365215	-0.440684
N205	N	0.771733	-0.083877	-0.985193
N206	N	1.271733	0.416123	-0.485193
