data_functionalizedCrystal
_audit_creation_method	'MofGen! by Chris Wilmer'
_symmetry_space_group_name_H-M	'P1'
_symmetry_Int_Tables_number	1
_symmetry_cell_setting	triclinic
loop_
_symmetry_equiv_pos_as_xyz
  x,y,z
_cell_length_a	27.732048
_cell_length_b	13.101039
_cell_length_c	27.732048
_cell_angle_alpha	86.670590
_cell_angle_beta	97.357345
_cell_angle_gamma	86.675896
loop_
_atom_site_label
_atom_site_type_symbol
_atom_site_fract_x
_atom_site_fract_y
_atom_site_fract_z
O1	O	0.643602	-0.085092	-0.054833
O2	O	0.976936	0.248241	0.278500
O3	O	1.310269	0.581574	0.611834
O4	O	0.502810	-0.085125	-0.063577
O5	O	0.836143	0.248208	0.269756
O6	O	1.169477	0.581542	0.603089
O7	O	0.577578	-0.085088	0.011191
O8	O	0.910912	0.248245	0.344524
O9	O	1.244245	0.581578	0.677858
O10	O	0.568834	-0.085129	-0.129601
O11	O	0.902167	0.248204	0.203732
O12	O	1.235501	0.581537	0.537065
O13	O	0.572214	0.085339	0.005818
O14	O	0.905547	0.418672	0.339151
O15	O	1.238880	0.752006	0.672484
O16	O	0.497445	0.085302	-0.068951
O17	O	0.830779	0.418636	0.264383
O18	O	1.164112	0.751969	0.597716
O19	O	0.638238	0.085335	-0.060206
O20	O	0.971571	0.418668	0.273127
O21	O	1.304904	0.752001	0.606460
Zn22	Zn	0.566990	0.112378	-0.065432
Zn23	Zn	0.900323	0.445711	0.267902
Zn24	Zn	1.233657	0.779044	0.601235
Zn25	Zn	0.574058	-0.112168	-0.058352
Zn26	Zn	0.907391	0.221166	0.274981
Zn27	Zn	1.240725	0.554499	0.608315
O28	O	0.563470	0.085298	-0.134975
O29	O	0.896803	0.418631	0.198359
O30	O	1.230136	0.751965	0.531692
C31	C	0.482121	0.000085	-0.066080
C32	C	0.815454	0.333418	0.267253
C33	C	1.148788	0.666751	0.600586
C34	C	0.428466	0.000073	-0.065527
C35	C	0.761800	0.333407	0.267806
C36	C	1.095133	0.666740	0.601139
N37	N	0.562170	0.265624	-0.070263
N38	N	0.895503	0.598957	0.263070
N39	N	1.228836	0.932290	0.596404
N40	N	0.578882	-0.265414	-0.053517
N41	N	0.912215	0.067920	0.279816
N42	N	1.245549	0.401253	0.613150
C43	C	0.089650	0.000106	-0.106232
C44	C	0.422984	0.333439	0.227101
C45	C	0.756317	0.666772	0.560435
C46	C	-0.112010	0.000115	-0.104181
C47	C	0.221324	0.333449	0.229152
C48	C	0.554657	0.666782	0.562485
O49	O	-0.143266	0.000149	-0.141403
O50	O	0.190067	0.333482	0.191930
O51	O	0.523400	0.666816	0.525264
N52	N	-0.131134	0.000127	-0.059847
N53	N	0.202200	0.333460	0.273487
N54	N	0.535533	0.666793	0.606820
C55	C	-0.099840	0.000142	-0.016021
C56	C	0.233494	0.333475	0.317312
C57	C	0.566827	0.666809	0.650645
O58	O	-0.120733	0.000162	0.021735
O59	O	0.212600	0.333496	0.355068
O60	O	0.545933	0.666829	0.688401
C61	C	0.101819	0.000140	-0.018073
C62	C	0.435152	0.333473	0.315260
C63	C	0.768486	0.666806	0.648594
C64	C	0.120941	0.000118	-0.062410
C65	C	0.454274	0.333451	0.270923
C66	C	0.787607	0.666785	0.604256
C67	C	0.108772	0.000085	-0.150566
C68	C	0.442106	0.333419	0.182767
C69	C	0.775439	0.666752	0.516101
C70	C	0.159184	0.000077	-0.151078
C71	C	0.492518	0.333411	0.182255
C72	C	0.825851	0.666744	0.515589
C73	C	0.190475	0.000090	-0.107256
C74	C	0.523808	0.333423	0.226077
C75	C	0.857141	0.666756	0.559411
C76	C	0.171353	0.000110	-0.062922
C77	C	0.504686	0.333443	0.270411
C78	C	0.838019	0.666777	0.603744
C79	C	0.133112	0.000162	0.025751
C80	C	0.466445	0.333496	0.359085
C81	C	0.799779	0.666829	0.692418
C82	C	0.183529	0.000164	0.025235
C83	C	0.516863	0.333498	0.358568
C84	C	0.850196	0.666831	0.691901
C85	C	0.202651	0.000143	-0.019103
C86	C	0.535984	0.333476	0.314231
C87	C	0.869317	0.666809	0.647564
C88	C	0.253055	0.000114	-0.019612
C89	C	0.586389	0.333448	0.313721
C90	C	0.919722	0.666781	0.647054
N91	N	0.272179	0.000103	-0.063947
N92	N	0.605513	0.333437	0.269386
N93	N	0.938846	0.666770	0.602719
C94	C	0.240889	0.000091	-0.107769
C95	C	0.574222	0.333424	0.225564
C96	C	0.907556	0.666758	0.558897
C97	C	-0.205714	0.000141	-0.014947
C98	C	0.127620	0.333475	0.318386
C99	C	0.460953	0.666808	0.651719
C100	C	-0.256128	0.000140	-0.014434
C101	C	0.077205	0.333473	0.318899
C102	C	0.410539	0.666807	0.652232
C103	C	-0.268295	0.000115	-0.102595
C104	C	0.065039	0.333449	0.230739
C105	C	0.398372	0.666782	0.564072
C106	C	-0.217879	0.000109	-0.103107
C107	C	0.115454	0.333443	0.230226
C108	C	0.448788	0.666776	0.563560
C109	C	-0.186590	0.000130	-0.059282
C110	C	0.146744	0.333463	0.274051
C111	C	0.480077	0.666797	0.607384
C112	C	0.346759	0.000073	-0.108841
C113	C	0.680092	0.333406	0.224492
C114	C	1.013425	0.666740	0.557826
C115	C	0.397176	0.000061	-0.109349
C116	C	0.730509	0.333394	0.223984
C117	C	1.063843	0.666728	0.557318
C118	C	0.409338	0.000091	-0.021189
C119	C	0.742672	0.333424	0.312144
C120	C	1.076005	0.666758	0.645477
C121	C	0.358925	0.000098	-0.020681
C122	C	0.692259	0.333431	0.312652
C123	C	1.025592	0.666764	0.645986
C124	C	0.327636	0.000092	-0.064511
C125	C	0.660970	0.333426	0.268823
C126	C	0.994303	0.666759	0.602156
O127	O	0.284340	0.000092	0.017589
O128	O	0.617673	0.333426	0.350922
O129	O	0.951007	0.666759	0.684256
O130	O	0.261792	0.000093	-0.145521
O131	O	0.595125	0.333427	0.187813
O132	O	0.928458	0.666760	0.521146
C133	C	0.039238	0.000114	-0.105720
C134	C	0.372571	0.333447	0.227613
C135	C	0.705905	0.666780	0.560947
C136	C	0.020116	0.000134	-0.061386
C137	C	0.353449	0.333467	0.271947
C138	C	0.686783	0.666801	0.605280
C139	C	0.051406	0.000146	-0.017564
C140	C	0.384740	0.333480	0.315769
C141	C	0.718073	0.666813	0.649102
C142	C	-0.030298	0.000133	-0.060873
C143	C	0.303035	0.333466	0.272460
C144	C	0.636368	0.666800	0.605793
C145	C	-0.061588	0.000121	-0.104695
C146	C	0.271745	0.333454	0.228638
C147	C	0.605078	0.666787	0.561972
C148	C	-0.042464	0.000109	-0.149030
C149	C	0.290869	0.333443	0.184303
C150	C	0.624202	0.666776	0.517637
C151	C	0.007948	0.000101	-0.149542
C152	C	0.341281	0.333435	0.183791
C153	C	0.674614	0.666768	0.517125
C154	C	0.032282	0.000157	0.026770
C155	C	0.365616	0.333491	0.360104
C156	C	0.698949	0.666824	0.693437
C157	C	-0.018130	0.000164	0.027279
C158	C	0.315203	0.333498	0.360612
C159	C	0.648536	0.666831	0.693946
C160	C	-0.049421	0.000152	-0.016543
C161	C	0.283913	0.333485	0.316790
C162	C	0.617246	0.666819	0.650124
C163	C	0.658927	0.000123	-0.057703
C164	C	0.992260	0.333456	0.275630
C165	C	1.325594	0.666789	0.608963
C166	C	0.712582	0.000128	-0.058256
C167	C	1.045915	0.333461	0.275077
C168	C	1.379248	0.666794	0.608410
C169	C	0.574712	0.000128	0.026511
C170	C	0.908046	0.333462	0.359844
C171	C	1.241379	0.666795	0.693178
C172	C	0.574159	0.000137	0.080166
C173	C	0.907493	0.333470	0.413499
C174	C	1.240826	0.666803	0.746832
C175	C	0.555611	0.474663	-0.076841
C176	C	0.888945	0.807996	0.256493
C177	C	1.222278	1.141330	0.589826
C178	C	0.585439	0.525553	-0.046941
C179	C	0.918772	0.858887	0.286392
C180	C	1.252105	1.192220	0.619726
C181	C	0.581790	0.641870	-0.050601
C182	C	0.915123	0.975203	0.282733
C183	C	1.248456	1.308537	0.616066
C184	C	0.559260	0.358336	-0.073181
C185	C	0.892593	0.691669	0.260152
C186	C	1.225926	1.025003	0.593485
C187	C	0.566336	0.000079	-0.150295
C188	C	0.899669	0.333413	0.183039
C189	C	1.233002	0.666746	0.516372
C190	C	0.566889	0.000064	-0.203949
C191	C	0.900222	0.333398	0.129384
C192	C	1.233555	0.666731	0.462718
C193	C	0.614864	0.000093	0.418982
C194	C	0.948198	0.333427	0.752315
C195	C	1.281531	0.666760	1.085649
C196	C	0.612814	0.000079	0.620642
C197	C	0.946147	0.333412	0.953975
C198	C	1.279481	0.666745	1.287309
O199	O	0.650036	0.000042	0.651899
O200	O	0.983369	0.333376	0.985232
O201	O	1.316702	0.666709	1.318566
N202	N	0.568479	0.000069	0.639766
N203	N	0.901812	0.333403	0.973100
N204	N	1.235146	0.666736	1.306433
C205	C	0.524654	0.000057	0.608472
C206	C	0.857987	0.333390	0.941805
C207	C	1.191320	0.666724	1.275139
O208	O	0.486898	0.000038	0.629366
O209	O	0.820231	0.333371	0.962699
O210	O	1.153564	0.666705	1.296032
C211	C	0.526705	0.000064	0.406813
C212	C	0.860038	0.333398	0.740146
C213	C	1.193372	0.666731	1.073480
C214	C	0.571043	0.000084	0.387692
C215	C	0.904376	0.333417	0.721025
C216	C	1.237709	0.666751	1.054358
C217	C	0.659198	0.000112	0.399860
C218	C	0.992532	0.333445	0.733194
C219	C	1.325865	0.666779	1.066527
C220	C	0.659710	0.000121	0.349448
C221	C	0.993044	0.333454	0.682781
C222	C	1.326377	0.666788	1.016115
C223	C	0.615888	0.000112	0.318158
C224	C	0.949222	0.333445	0.651491
C225	C	1.282555	0.666779	0.984824
C226	C	0.571554	0.000093	0.337279
C227	C	0.904888	0.333427	0.670613
C228	C	1.238221	0.666760	1.003946
C229	C	0.482881	0.000045	0.375520
C230	C	0.816214	0.333378	0.708853
C231	C	1.149547	0.666711	1.042187
C232	C	0.483397	0.000044	0.325103
C233	C	0.816731	0.333377	0.658436
C234	C	1.150064	0.666711	0.991769
C235	C	0.527735	0.000064	0.305981
C236	C	0.861068	0.333397	0.639315
C237	C	1.194402	0.666730	0.972648
C238	C	0.528245	0.000093	0.255577
C239	C	0.861578	0.333427	0.588910
C240	C	1.194911	0.666760	0.922244
N241	N	0.572579	0.000103	0.236453
N242	N	0.905913	0.333436	0.569786
N243	N	1.239246	0.666769	0.903119
C244	C	0.616401	0.000112	0.267743
C245	C	0.949735	0.333445	0.601077
C246	C	1.283068	0.666779	0.934410
C247	C	0.523580	0.000055	0.714346
C248	C	0.856913	0.333388	1.047679
C249	C	1.190247	0.666722	1.381013
C250	C	0.523067	0.000055	0.764760
C251	C	0.856400	0.333388	1.098094
C252	C	1.189734	0.666722	1.431427
C253	C	0.611227	0.000075	0.776927
C254	C	0.944561	0.333408	1.110261
C255	C	1.277894	0.666741	1.443594
C256	C	0.611740	0.000082	0.726512
C257	C	0.945073	0.333415	1.059845
C258	C	1.278406	0.666749	1.393178
C259	C	0.567915	0.000064	0.695222
C260	C	0.901248	0.333398	1.028555
C261	C	1.234581	0.666731	1.361889
C262	C	0.617473	0.000132	0.161873
C263	C	0.950807	0.333466	0.495207
C264	C	1.284140	0.666799	0.828540
C265	C	0.617981	0.000146	0.111456
C266	C	0.951315	0.333479	0.444789
C267	C	1.284648	0.666812	0.778123
C268	C	0.529821	0.000121	0.099294
C269	C	0.863155	0.333454	0.432627
C270	C	1.196488	0.666787	0.765960
C271	C	0.529313	0.000113	0.149707
C272	C	0.862646	0.333446	0.483040
C273	C	1.195980	0.666779	0.816373
C274	C	0.573143	0.000115	0.180996
C275	C	0.906476	0.333448	0.514329
C276	C	1.239810	0.666782	0.847662
O277	O	0.491043	0.000118	0.224292
O278	O	0.824376	0.333451	0.557625
O279	O	1.157710	0.666785	0.890959
O280	O	0.654153	0.000108	0.246841
O281	O	0.987486	0.333441	0.580174
O282	O	1.320820	0.666775	0.913507
C283	C	0.614352	0.000084	0.469394
C284	C	0.947686	0.333417	0.802728
C285	C	1.281019	0.666751	1.136061
C286	C	0.570019	0.000066	0.488516
C287	C	0.903352	0.333399	0.821850
C288	C	1.236685	0.666732	1.155183
C289	C	0.526197	0.000056	0.457226
C290	C	0.859530	0.333390	0.790559
C291	C	1.192863	0.666723	1.123892
C292	C	0.569506	0.000065	0.538931
C293	C	0.902839	0.333399	0.872264
C294	C	1.236172	0.666732	1.205597
C295	C	0.613327	0.000075	0.570221
C296	C	0.946661	0.333408	0.903554
C297	C	1.279994	0.666741	1.236888
C298	C	0.657662	0.000084	0.551097
C299	C	0.990996	0.333417	0.884430
C300	C	1.324329	0.666751	1.217764
C301	C	0.658174	0.000093	0.500685
C302	C	0.991508	0.333427	0.834018
C303	C	1.324841	0.666760	1.167351
C304	C	0.481862	0.000047	0.476350
C305	C	0.815195	0.333380	0.809683
C306	C	1.148528	0.666714	1.143016
C307	C	0.481353	0.000039	0.526763
C308	C	0.814687	0.333372	0.860096
C309	C	1.148020	0.666706	1.193429
C310	C	0.525175	0.000048	0.558053
C311	C	0.858509	0.333381	0.891386
C312	C	1.191842	0.666715	1.224720
H313	H	0.321288	0.000072	-0.144532
H314	H	0.654622	0.333405	0.188802
H315	H	0.987955	0.666739	0.522135
H316	H	-0.202315	0.000098	-0.139211
H317	H	0.131019	0.333431	0.194123
H318	H	0.464352	0.666764	0.527456
O319	O	0.518162	0.532652	-0.114393
O320	O	0.851495	0.865985	0.218940
O321	O	1.184828	1.199318	0.552273
H322	H	0.521143	0.616234	-0.111414
H323	H	0.854476	0.949568	0.221919
H324	H	1.187809	1.282901	0.555252
O325	O	0.482559	0.000113	0.065537
O326	O	0.815893	0.333446	0.398871
O327	O	1.149226	0.666779	0.732204
H328	H	0.451640	0.000107	0.087300
H329	H	0.784974	0.333440	0.420633
H330	H	1.118307	0.666774	0.753966
H331	H	0.412742	0.000043	-0.145455
H332	H	0.746075	0.333376	0.187878
H333	H	1.079408	0.666709	0.521211
H334	H	0.613715	0.481765	-0.018595
H335	H	0.947049	0.815098	0.314739
H336	H	1.280382	1.148432	0.648072
O337	O	0.433527	0.000019	0.547380
O338	O	0.766860	0.333353	0.880714
O339	O	1.100194	0.666686	1.214047
H340	H	0.428991	0.069481	0.567872
H341	H	0.762324	0.402814	0.901205
H342	H	1.095657	0.736147	1.234538
H343	H	0.446777	0.000022	0.391080
H344	H	0.780110	0.333356	0.724413
H345	H	1.113443	0.666689	1.057746
O346	O	0.476309	0.000042	0.680600
O347	O	0.809642	0.333376	1.013933
O348	O	1.142975	0.666709	1.347266
H349	H	0.472249	0.069503	0.655152
H350	H	0.805582	0.402836	0.988486
H351	H	1.138915	0.736169	1.321819
O352	O	-0.276748	0.000163	0.033388
O353	O	0.056586	0.333496	0.366721
O354	O	0.389919	0.666829	0.700054
H355	H	-0.261966	-0.069287	0.056619
H356	H	0.071368	0.264047	0.389953
H357	H	0.404701	0.597380	0.723286
H358	H	0.693344	0.000096	0.576582
H359	H	1.026677	0.333429	0.909916
H360	H	1.360010	0.666763	1.243249
O361	O	0.665804	0.000151	0.090832
O362	O	0.999138	0.333484	0.424165
O363	O	1.332471	0.666818	0.757498
H364	H	0.696189	0.000141	0.121063
H365	H	1.029523	0.333474	0.454397
H366	H	1.362856	0.666807	0.787730
H367	H	0.174748	0.000059	-0.187182
H368	H	0.508081	0.333393	0.146151
H369	H	0.841415	0.666726	0.479485
H370	H	0.653164	0.000130	0.187344
H371	H	0.986497	0.333464	0.520677
H372	H	1.319831	0.666797	0.854010
O373	O	0.434594	0.000056	0.442603
O374	O	0.767927	0.333389	0.775936
O375	O	1.101261	0.666722	1.109269
H376	H	0.403683	0.000060	0.464375
H377	H	0.737016	0.333393	0.797708
H378	H	1.070349	0.666726	1.131042
H379	H	-0.067950	0.000095	-0.184711
H380	H	0.265383	0.333429	0.148622
H381	H	0.598717	0.666762	0.481956
H382	H	0.695815	0.000133	0.333885
H383	H	1.029148	0.333466	0.667218
H384	H	1.362481	0.666800	1.000551
H385	H	0.083300	0.000079	-0.186253
H386	H	0.416633	0.333412	0.147080
H387	H	0.749967	0.666746	0.480414
O388	O	0.217277	0.000193	0.072504
O389	O	0.550610	0.333527	0.405837
O390	O	0.883944	0.666860	0.739171
H391	H	0.242723	-0.069266	0.076573
H392	H	0.576056	0.264068	0.409906
H393	H	0.909389	0.597401	0.743239
H394	H	0.694278	0.000109	0.485121
H395	H	1.027612	0.333442	0.818454
H396	H	1.360945	0.666776	1.151788
H397	H	0.694886	0.000116	0.425333
H398	H	1.028219	0.333449	0.758666
H399	H	1.361552	0.666782	1.091999
O400	O	-0.302048	0.000118	-0.149862
O401	O	0.031285	0.333451	0.183471
O402	O	0.364619	0.666784	0.516804
H403	H	-0.340315	0.000132	-0.142053
H404	H	-0.006982	0.333465	0.191281
H405	H	0.326351	0.666798	0.524614
O406	O	0.659562	0.000083	0.705892
O407	O	0.992895	0.333416	1.039225
O408	O	1.326228	0.666749	1.372559
H409	H	0.678417	0.069545	0.716304
H410	H	1.011750	0.402879	1.049637
H411	H	1.345083	0.736212	1.382971
O412	O	-0.171967	0.000159	0.032323
O413	O	0.161366	0.333493	0.365657
O414	O	0.494700	0.666826	0.698990
H415	H	-0.193740	0.000158	0.063234
H416	H	0.139593	0.333492	0.396568
H417	H	0.472927	0.666825	0.729901
H418	H	0.646909	0.000083	0.802413
H419	H	0.980242	0.333416	1.135746
H420	H	1.313575	0.666749	1.469079
H421	H	0.486962	0.000057	0.780324
H422	H	0.820296	0.333390	1.113657
H423	H	1.153629	0.666723	1.446990
H424	H	0.447709	0.000028	0.299628
H425	H	0.781043	0.333361	0.632962
H426	H	1.114376	0.666695	0.966295
H427	H	0.117553	0.000181	0.061856
H428	H	0.450886	0.333514	0.395189
H429	H	0.784219	0.666847	0.728522
H430	H	0.343357	0.000100	0.015423
H431	H	0.676690	0.333434	0.348756
H432	H	1.010023	0.666767	0.682089
H433	H	0.493209	0.000125	0.165275
H434	H	0.826542	0.333458	0.498608
H435	H	1.159876	0.666792	0.831941
H436	H	0.434824	0.000097	0.014489
H437	H	0.768157	0.333430	0.347823
H438	H	1.101490	0.666764	0.681156
H439	H	0.023511	0.000085	-0.185646
H440	H	0.356845	0.333419	0.147687
H441	H	0.690178	0.666752	0.481021
H442	H	0.057755	0.000170	0.062456
H443	H	0.391088	0.333503	0.395790
H444	H	0.724421	0.666837	0.729123
O445	O	-0.038753	0.000197	0.075103
O446	O	0.294581	0.333531	0.408436
O447	O	0.627914	0.666864	0.741769
H448	H	-0.008521	0.000218	0.105485
H449	H	0.324813	0.333552	0.438819
H450	H	0.658146	0.666885	0.772152
