data_functionalizedCrystal
_audit_creation_method	'MofGen! by Chris Wilmer'
_symmetry_space_group_name_H-M	'P1'
_symmetry_Int_Tables_number	1
_symmetry_cell_setting	triclinic
loop_
_symmetry_equiv_pos_as_xyz
  x,y,z
_cell_length_a	19.805407
_cell_length_b	15.298852
_cell_length_c	19.805399
_cell_angle_alpha	99.696252
_cell_angle_beta	90.019573
_cell_angle_gamma	80.332703
loop_
_atom_site_label
_atom_site_type_symbol
_atom_site_fract_x
_atom_site_fract_y
_atom_site_fract_z
Zn1	Zn	1.081433	-0.359161	0.336138
Zn2	Zn	1.100962	-0.510018	0.203384
Zn3	Zn	0.968251	-0.359186	0.222959
Zn4	Zn	0.987819	-0.509971	0.316537
O5	O	1.034616	-0.434584	0.269755
O6	O	1.178741	-0.379182	0.318539
O7	O	1.083341	-0.490041	0.111260
O8	O	0.966902	-0.232945	0.254368
O9	O	1.193089	-0.490017	0.221005
O10	O	1.050057	-0.232926	0.337520
O11	O	0.985839	-0.379225	0.125642
O12	O	0.876129	-0.379178	0.235362
O13	O	1.000254	-0.489935	0.413858
O14	O	0.890506	-0.489959	0.304113
O15	O	1.069031	-0.379136	0.428258
O16	O	1.102316	-0.636250	0.201999
O17	O	1.019190	-0.636215	0.285132
C18	C	0.858758	-0.434567	0.269735
C19	C	0.783528	-0.434581	0.269740
C20	C	0.755699	-0.492351	0.305457
C21	C	0.685010	-0.492353	0.305467
C22	C	0.642153	-0.434588	0.269754
C23	C	0.669987	-0.376811	0.234036
C24	C	0.740673	-0.376806	0.234031
C25	C	0.384916	-0.376831	0.234055
C26	C	0.314225	-0.376843	0.234061
C27	C	0.329253	-0.492378	0.305491
C28	C	0.399940	-0.492373	0.305486
C29	C	0.427767	-0.434593	0.269771
C30	C	0.504415	-0.434591	0.269763
C31	C	0.565507	-0.434594	0.269758
C32	C	1.065014	-0.668965	0.239329
C33	C	1.078080	-0.769234	0.226335
C34	C	0.941674	-1.051928	0.362687
C35	C	0.929399	-0.957720	0.374900
C36	C	0.966568	-0.910594	0.337760
C37	C	1.016014	-0.957685	0.288405
C38	C	1.028294	-1.051902	0.276194
C39	C	1.053188	-0.910568	0.251267
C40	C	1.102634	-0.957659	0.201912
C41	C	1.114911	-1.051866	0.189704
C42	C	1.077742	-1.098993	0.226844
C43	C	1.040908	-0.816351	0.263477
C44	C	1.127529	-0.816325	0.176985
C45	C	1.139803	-0.910532	0.164772
C46	C	1.211161	-0.434602	0.269775
C47	C	1.286394	-0.434610	0.269783
C48	C	1.034647	-0.434527	0.446305
C49	C	1.034660	-0.434503	0.521540
C50	C	1.004118	-0.199288	0.300314
C51	C	0.991122	-0.099019	0.313336
C52	C	1.034616	-0.434576	0.093900
C53	C	1.034701	-0.434346	0.018698
C54	C	1.070473	-0.376807	0.564384
C55	C	1.070477	-0.376781	0.635076
C56	C	1.034671	-0.434456	0.662922
C57	C	0.998853	-0.492154	0.620072
C58	C	0.998846	-0.492175	0.549383
C59	C	0.998880	-0.492070	0.905157
C60	C	0.998892	-0.492047	0.975852
C61	C	1.070511	-0.376676	0.990850
C62	C	1.070504	-0.376697	0.920160
C63	C	1.034684	-0.434392	0.877318
C64	C	1.034679	-0.434418	0.800666
C65	C	1.034679	-0.434435	0.739572
H66	H	0.635086	-0.329774	0.204961
C67	C	0.900794	-1.103766	0.403538
C68	C	0.846402	-1.051976	0.457823
C69	C	0.805519	-1.103815	0.498679
C70	C	0.819028	-1.207444	0.485248
C71	C	0.873422	-1.259240	0.430959
C72	C	0.914305	-1.207402	0.390104
H73	H	0.836399	-0.975259	0.467768
H74	H	0.765252	-1.065472	0.538866
H75	H	0.788763	-1.245819	0.515491
H76	H	0.883424	-1.335958	0.421015
H77	H	0.954571	-1.245745	0.349917
C78	C	0.298642	-0.555932	0.344787
C79	C	0.307463	-0.548710	0.422677
C80	C	0.276855	-0.612264	0.461969
C81	C	0.237425	-0.683039	0.423371
C82	C	0.228602	-0.690263	0.345476
C83	C	0.259211	-0.626710	0.306184
H84	H	0.336653	-0.496316	0.451254
H85	H	0.283386	-0.606916	0.519632
H86	H	0.214767	-0.730085	0.452457
H87	H	0.199412	-0.742658	0.316899
H88	H	0.252679	-0.632058	0.248521
H89	H	1.000649	-0.778018	0.303663
C90	C	1.169305	-1.103672	0.135419
C91	C	1.230857	-1.168353	0.156417
C92	C	1.285250	-1.220158	0.102133
C93	C	1.278093	-1.207282	0.026850
C94	C	1.216539	-1.142598	0.005849
C95	C	1.162145	-1.090792	0.060133
H96	H	1.236158	-1.177888	0.212149
H97	H	1.330817	-1.268042	0.117680
H98	H	1.318358	-1.245631	-0.013334
H99	H	1.211238	-1.133063	-0.049883
H100	H	1.116578	-1.042909	0.044586
H101	H	0.956571	-0.833886	0.347706
C102	C	0.959456	-0.555650	0.502253
C103	C	0.997962	-0.626492	0.444462
C104	C	0.958569	-0.689968	0.397334
C105	C	0.880671	-0.682603	0.407997
C106	C	0.842160	-0.611758	0.465790
C107	C	0.881553	-0.548282	0.512918
H108	H	1.055631	-0.631947	0.436567
H109	H	0.987078	-0.742412	0.354552
H110	H	0.851510	-0.729592	0.373110
H111	H	0.784491	-0.606303	0.473685
H112	H	0.853044	-0.495838	0.555700
C113	C	0.415514	-0.313292	0.194748
C114	C	0.392489	-0.210749	0.213689
C115	C	0.423087	-0.147213	0.174371
C116	C	0.476710	-0.186220	0.116113
C117	C	0.499738	-0.288768	0.097169
C118	C	0.469140	-0.352305	0.136487
H119	H	0.352792	-0.181870	0.256818
H120	H	0.406040	-0.071300	0.188395
H121	H	0.499361	-0.139187	0.087007
H122	H	0.539435	-0.317648	0.054040
H123	H	0.486187	-0.428218	0.122463
C124	C	0.771289	-0.313258	0.194742
C125	C	0.748269	-0.210716	0.213707
C126	C	0.778885	-0.147161	0.174422
C127	C	0.832520	-0.186148	0.116171
C128	C	0.855543	-0.288695	0.097203
C129	C	0.824928	-0.352250	0.136489
H130	H	0.708563	-0.181851	0.256830
H131	H	0.761841	-0.071249	0.188463
H132	H	0.855183	-0.139101	0.087090
H133	H	0.895250	-0.317560	0.054080
H134	H	0.841971	-0.428162	0.122447
H135	H	1.087730	-1.175705	0.216899
C136	C	0.447082	-0.555915	0.344771
C137	C	0.524835	-0.555911	0.344765
C138	C	0.571976	-0.619452	0.384052
C139	C	0.541365	-0.682997	0.423345
C140	C	0.463608	-0.683003	0.423352
C141	C	0.416467	-0.619462	0.384065
H142	H	0.547499	-0.508870	0.315677
H143	H	0.629537	-0.619447	0.384047
H144	H	0.576261	-0.730034	0.452428
H145	H	0.440944	-0.730045	0.452440
H146	H	0.358906	-0.619467	0.384070
H147	H	0.279331	-0.329798	0.204981
C148	C	0.875012	-0.905928	0.429188
C149	C	0.799770	-0.918973	0.421909
C150	C	0.745380	-0.867182	0.476203
C151	C	0.766233	-0.802345	0.537775
C152	C	0.841479	-0.789296	0.545057
C153	C	0.895869	-0.841088	0.490763
H154	H	0.784330	-0.966972	0.376327
H155	H	0.689678	-0.876842	0.470812
H156	H	0.725971	-0.764005	0.577966
H157	H	0.856919	-0.741297	0.590639
H158	H	0.951571	-0.831428	0.496154
H159	H	1.180063	-0.948887	0.124587
H160	H	1.157796	-0.777955	0.146744
C161	C	1.109861	-0.313362	0.533757
C162	C	1.091043	-0.210807	0.556795
C163	C	1.130430	-0.147358	0.526170
C164	C	1.188634	-0.186465	0.472507
C165	C	1.207454	-0.289026	0.449466
C166	C	1.168068	-0.352475	0.480091
H167	H	1.047955	-0.181852	0.596522
H168	H	1.116498	-0.071435	0.543227
H169	H	1.217791	-0.139496	0.449837
H170	H	1.250543	-0.317980	0.409739
H171	H	1.182000	-0.428398	0.463034
C172	C	1.109890	-0.313252	0.889532
C173	C	1.091072	-0.210696	0.912570
C174	C	1.130457	-0.147246	0.881944
C175	C	1.188659	-0.186352	0.828279
C176	C	1.207480	-0.288914	0.805238
C177	C	1.168096	-0.352363	0.835864
H178	H	1.047984	-0.181742	0.952298
H179	H	1.116524	-0.071324	0.899000
H180	H	1.217814	-0.139383	0.805607
H181	H	1.250568	-0.317867	0.765510
H182	H	1.182029	-0.428286	0.818807
H183	H	1.099641	-0.329801	0.669957
H184	H	1.099675	-0.329695	1.025742
H185	H	0.662356	-0.539396	0.334551
H186	H	0.790589	-0.539393	0.334536
H187	H	0.969732	-0.539014	0.998521
H188	H	0.969725	-0.539062	0.870281
C189	C	0.959470	-0.555599	0.650706
C190	C	0.997993	-0.626409	0.690107
C191	C	0.958614	-0.689858	0.720741
C192	C	0.880712	-0.682496	0.711974
C193	C	0.842184	-0.611684	0.672571
C194	C	0.881563	-0.548235	0.641937
H195	H	1.055665	-0.631861	0.696598
H196	H	0.987135	-0.742278	0.749909
H197	H	0.851561	-0.729465	0.734651
H198	H	0.784512	-0.606232	0.666079
H199	H	0.853042	-0.495814	0.612768
