data_functionalizedCrystal
_audit_creation_method	'MofGen! by Chris Wilmer'
_symmetry_space_group_name_H-M	'P1'
_symmetry_Int_Tables_number	1
_symmetry_cell_setting	triclinic
loop_
_symmetry_equiv_pos_as_xyz
  x,y,z
_cell_length_a	19.188930
_cell_length_b	19.188924
_cell_length_c	16.053802
_cell_angle_alpha	87.445328
_cell_angle_beta	92.586369
_cell_angle_gamma	83.143372
loop_
_atom_site_label
_atom_site_type_symbol
_atom_site_fract_x
_atom_site_fract_y
_atom_site_fract_z
O1	O	-0.929109	-0.084208	-0.069702
O2	O	-0.429109	0.415792	0.430298
O3	O	-0.725795	-0.095944	-0.069645
O4	O	-0.225795	0.404056	0.430355
O5	O	-0.833321	0.011580	-0.069666
O6	O	-0.333321	0.511580	0.430334
O7	O	-0.821583	-0.191732	-0.069682
O8	O	-0.321583	0.308268	0.430318
O9	O	-0.827403	0.005686	0.069194
O10	O	-0.327403	0.505686	0.569194
O11	O	-0.719876	-0.101838	0.069215
O12	O	-0.219876	0.398162	0.569215
O13	O	-0.923190	-0.090102	0.069158
O14	O	-0.423190	0.409898	0.569158
Zn15	Zn	-0.820594	-0.096906	0.091233
Zn16	Zn	-0.320594	0.403094	0.591233
Zn17	Zn	-0.828392	-0.089140	-0.091721
Zn18	Zn	-0.328392	0.410860	0.408279
O19	O	-0.815664	-0.197626	0.069178
O20	O	-0.315664	0.302374	0.569178
C21	C	-0.696824	-0.098512	-0.000208
C22	C	-0.196824	0.401488	0.499792
C23	C	-0.619319	-0.097372	-0.000186
C24	C	-0.119319	0.402628	0.499814
C25	C	-0.829983	0.034644	-0.000235
C26	C	-0.329983	0.534644	0.499765
C27	C	-0.828844	0.112148	-0.000232
C28	C	-0.328844	0.612148	0.499768
C29	C	-0.952161	-0.087534	-0.000281
C30	C	-0.452161	0.412466	0.499719
C31	C	-1.029667	-0.088674	-0.000309
C32	C	-0.529667	0.411326	0.499691
C33	C	-0.574394	-0.160462	-0.000204
C34	C	-0.074394	0.339538	0.499796
C35	C	-0.501571	-0.159390	-0.000213
C36	C	-0.001571	0.340610	0.499787
C37	C	-0.473676	-0.095224	-0.000221
C38	C	0.026324	0.404776	0.499779
C39	C	-0.518610	-0.032125	-0.000198
C40	C	-0.018610	0.467875	0.499802
C41	C	-0.591432	-0.033199	-0.000181
C42	C	-0.091432	0.466801	0.499819
N43	N	-0.367713	-0.044169	-0.047511
N44	N	0.132287	0.455831	0.452489
N45	N	-0.298535	-0.043153	-0.047529
N46	N	0.201465	0.456847	0.452471
C47	C	-0.254270	-0.091983	-0.000272
C48	C	0.245730	0.408017	0.499728
N49	N	-0.281795	-0.141878	0.046994
N50	N	0.218205	0.358122	0.546994
N51	N	-0.350979	-0.142897	0.047009
N52	N	0.149021	0.357103	0.547009
C53	C	-0.394714	-0.094052	-0.000239
C54	C	0.105286	0.405948	0.499761
C55	C	-0.130381	-0.153916	-0.000299
C56	C	0.369619	0.346084	0.499701
C57	C	-0.057556	-0.152841	-0.000303
C58	C	0.442444	0.347159	0.499697
C59	C	-0.074598	-0.025574	-0.000296
C60	C	0.425402	0.474426	0.499704
C61	C	-0.147421	-0.026650	-0.000283
C62	C	0.352579	0.473350	0.499717
C63	C	-0.175308	-0.090823	-0.000289
C64	C	0.324692	0.409177	0.499711
C65	C	-0.819003	-0.220690	-0.000255
C66	C	-0.319003	0.279310	0.499745
C67	C	-0.820142	-0.298194	-0.000263
C68	C	-0.320142	0.201806	0.499737
C69	C	-0.831538	0.151760	-0.075925
C70	C	-0.331538	0.651760	0.424075
C71	C	-0.830459	0.224583	-0.075931
C72	C	-0.330459	0.724583	0.424069
C73	C	-0.826698	0.257793	-0.000240
C74	C	-0.326698	0.757793	0.499760
C75	C	-0.823999	0.218172	0.075463
C76	C	-0.323999	0.718172	0.575463
C77	C	-0.825072	0.145349	0.075467
C78	C	-0.325072	0.645349	0.575467
N79	N	-0.862345	0.375066	0.056084
N80	N	-0.362345	0.875066	0.556084
N81	N	-0.861328	0.444244	0.056075
N82	N	-0.361328	0.944244	0.556075
C83	C	-0.823464	0.477203	-0.000247
C84	C	-0.323464	0.977203	0.499753
N85	N	-0.786666	0.438371	-0.056573
N86	N	-0.286666	0.938371	0.443427
N87	N	-0.787687	0.369186	-0.056567
N88	N	-0.287687	0.869186	0.443433
C89	C	-0.825534	0.336756	-0.000236
C90	C	-0.325534	0.836756	0.499764
C91	C	-0.824988	0.595777	-0.075951
C92	C	-0.324988	1.095777	0.424049
C93	C	-0.823903	0.668601	-0.075954
C94	C	-0.323903	1.168601	0.424046
C95	C	-0.817451	0.662189	0.075441
C96	C	-0.317451	1.162189	0.575441
C97	C	-0.818528	0.589366	0.075442
C98	C	-0.318528	1.089366	0.575442
C99	C	-0.822300	0.556165	-0.000257
C100	C	-0.322300	1.056165	0.499743
N101	N	-0.815277	-0.102205	0.216095
N102	N	-0.315277	0.397795	0.716095
N103	N	-0.833714	-0.083835	-0.216582
N104	N	-0.333714	0.416165	0.283418
C105	C	-0.861046	-0.056470	0.259780
C106	C	-0.361046	0.443530	0.759780
C107	C	-0.857334	-0.060184	0.347187
C108	C	-0.357334	0.439816	0.847187
C109	C	-0.807855	-0.109637	0.390908
C110	C	-0.307855	0.390363	0.890908
C111	C	-0.762081	-0.155374	0.347216
C112	C	-0.262081	0.344626	0.847216
C113	C	-0.765790	-0.151657	0.259811
C114	C	-0.265790	0.348343	0.759811
C115	C	-0.791650	-0.125855	0.652321
C116	C	-0.291650	0.374145	1.152321
C117	C	-0.787945	-0.129571	0.739733
C118	C	-0.287945	0.370429	1.239733
C119	C	-0.883197	-0.034379	0.739698
C120	C	-0.383197	0.465621	1.239698
C121	C	-0.886905	-0.030669	0.652290
C122	C	-0.386905	0.469331	1.152290
C123	C	-0.841129	-0.076404	0.608606
C124	C	-0.341129	0.423596	1.108606
N125	N	-0.804060	-0.113435	0.480252
N126	N	-0.304060	0.386565	0.980252
N127	N	-0.844921	-0.072601	0.519263
N128	N	-0.344921	0.427399	1.019263
H129	H	-0.597095	-0.212716	-0.000210
H130	H	-0.097095	0.287284	0.499790
H131	H	-0.464986	-0.210768	-0.000226
H132	H	0.035014	0.289232	0.499774
N133	N	-0.914402	-0.003117	0.212630
N134	N	-0.414402	0.496883	0.712630
H135	H	-0.909806	-0.007698	0.150629
H136	H	-0.409806	0.492302	0.650629
H137	H	-0.963262	-0.011698	0.227873
H138	H	-0.463262	0.488302	0.727873
H139	H	-0.721790	-0.195637	0.382819
H140	H	-0.221790	0.304363	0.882819
H141	H	-0.834607	0.124732	-0.137565
H142	H	-0.334607	0.624732	0.362435
H143	H	-0.826094	0.700852	-0.137595
H144	H	-0.326094	1.200852	0.362405
N145	N	-0.044520	0.043635	-0.000307
N146	N	0.455480	0.543635	0.499693
H147	H	-0.084034	0.083441	-0.000296
H148	H	0.415966	0.583441	0.499704
H149	H	-0.012466	0.044667	0.051164
H150	H	0.487534	0.544667	0.551164
H151	H	-0.628010	0.018178	-0.000166
H152	H	-0.128010	0.518178	0.499834
N153	N	-0.488529	0.037084	-0.000196
N154	N	0.011471	0.537084	0.499804
H155	H	-0.435579	0.028191	-0.000211
H156	H	0.064421	0.528191	0.499789
H157	H	-0.507191	0.066872	-0.051665
H158	H	-0.007191	0.566872	0.448335
H159	H	-0.153087	-0.206169	-0.000291
H160	H	0.346913	0.293831	0.499709
H161	H	-0.894602	-0.022942	0.382756
H162	H	-0.394602	0.477058	0.882756
H163	H	-0.754378	-0.163096	0.616760
H164	H	-0.254378	0.336904	1.116760
N165	N	-0.716422	-0.200981	0.212688
N166	N	-0.216422	0.299019	0.712688
H167	H	-0.684514	-0.232874	0.253647
H168	H	-0.184514	0.267126	0.753647
H169	H	-0.744590	-0.230240	0.176398
H170	H	-0.244590	0.269760	0.676398
H171	H	-0.828055	0.568743	-0.137590
H172	H	-0.328055	1.068743	0.362410
H173	H	-0.814384	0.689227	0.137070
H174	H	-0.314384	1.189227	0.637070
H175	H	-0.927195	0.009600	0.616694
H176	H	-0.427195	0.509600	1.116694
N177	N	-0.009095	-0.220894	-0.000256
N178	N	0.490905	0.279106	0.499744
H179	H	-0.037813	-0.261708	-0.000238
H180	H	0.462187	0.238292	0.499762
H181	H	0.019306	-0.221068	-0.051718
H182	H	0.519306	0.278932	0.448282
N183	N	-0.195881	0.041397	-0.000264
N184	N	0.304119	0.541397	0.499736
H185	H	-0.167162	0.082211	-0.000269
H186	H	0.332838	0.582211	0.499731
H187	H	-0.228681	0.045911	-0.051732
H188	H	0.271319	0.545911	0.448268
H189	H	-0.832649	0.256841	-0.137571
H190	H	-0.332649	0.756841	0.362429
H191	H	-0.920466	0.002857	0.775273
H192	H	-0.420466	0.502857	1.275273
H193	H	-0.820935	0.245216	0.137091
H194	H	-0.320935	0.745216	0.637091
N195	N	-0.822171	0.102617	0.157107
N196	N	-0.322171	0.602617	0.657107
H197	H	-0.777302	0.108091	0.190213
H198	H	-0.277302	0.608091	0.690213
H199	H	-0.863878	0.119706	0.190121
H200	H	-0.363878	0.619706	0.690121
N201	N	-0.815629	0.546637	0.157083
N202	N	-0.315629	1.046637	0.657083
H203	H	-0.813085	0.578724	0.205033
H204	H	-0.313085	1.078724	0.705033
H205	H	-0.859209	0.522079	0.160367
H206	H	-0.359209	1.022079	0.660367
N207	N	-0.734582	-0.182918	0.786892
N208	N	-0.234582	0.317082	1.286892
H209	H	-0.706147	-0.211329	0.745956
H210	H	-0.206147	0.288671	1.245956
H211	H	-0.702264	-0.157811	0.823188
H212	H	-0.202264	0.342189	1.323188
