data_functionalizedCrystal
_audit_creation_method	'MofGen! by Chris Wilmer'
_symmetry_space_group_name_H-M	'P1'
_symmetry_Int_Tables_number	1
_symmetry_cell_setting	triclinic
loop_
_symmetry_equiv_pos_as_xyz
  x,y,z
_cell_length_a	10.654550
_cell_length_b	14.853567
_cell_length_c	9.730223
_cell_angle_alpha	90.002458
_cell_angle_beta	89.996251
_cell_angle_gamma	84.059917
loop_
_atom_site_label
_atom_site_type_symbol
_atom_site_fract_x
_atom_site_fract_y
_atom_site_fract_z
O1	O	1.666519	0.126622	-0.114390
O2	O	1.300915	0.138686	-0.114367
O3	O	1.493482	0.001477	-0.114383
O4	O	1.473951	0.263832	-0.114374
O5	O	1.493480	0.001480	0.114197
O6	O	1.300912	0.138690	0.114213
O7	O	1.666516	0.126625	0.114190
Zn8	Zn	1.483714	0.132658	0.150493
Zn9	Zn	1.483717	0.132654	-0.150671
O10	O	1.473949	0.263835	0.114206
C11	C	1.254125	0.137802	-0.000074
C12	C	1.114709	0.135152	-0.000066
C13	C	1.034384	0.215939	-0.000083
C14	C	0.903389	0.213443	-0.000107
C15	C	0.933057	0.049367	-0.000102
C16	C	1.064050	0.051863	-0.000068
C17	C	1.085044	0.299227	-0.000080
C18	C	1.004717	0.380021	-0.000099
C19	C	0.873722	0.377525	-0.000123
C20	C	0.823054	0.294236	-0.000128
C21	C	1.492596	-0.032115	-0.000097
C22	C	1.489944	-0.132213	-0.000109
C23	C	1.364344	-0.545419	-0.000075
C24	C	1.593119	-0.565475	-0.000090
C25	C	1.595613	-0.471428	-0.000098
C26	C	1.482470	-0.414372	-0.000093
C27	C	1.366834	-0.451363	-0.000079
C28	C	1.711247	-0.434430	-0.000097
C29	C	1.713745	-0.340378	-0.000104
C30	C	1.600601	-0.283320	-0.000109
C31	C	1.484961	-0.320316	-0.000097
C32	C	1.371818	-0.263260	-0.000091
C33	C	1.256176	-0.300254	-0.000089
C34	C	1.253691	-0.394305	-0.000084
C35	C	1.603087	-0.189269	-0.000114
C36	C	1.374308	-0.169204	-0.000096
C37	C	1.713306	0.127510	-0.000106
C38	C	1.852722	0.130160	-0.000123
C39	C	1.474835	0.297427	-0.000083
C40	C	1.477487	0.397525	-0.000080
N41	N	1.483721	0.132661	0.356030
N42	N	1.483720	0.132644	-0.356207
C43	C	1.569012	0.071925	0.427949
C44	C	1.569009	0.071914	0.571832
C45	C	1.398420	0.193382	0.571864
C46	C	1.398418	0.193388	0.427984
C47	C	1.654315	0.011198	0.355994
C48	C	1.739614	-0.049542	0.427913
C49	C	1.739610	-0.049553	0.571796
C50	C	1.654309	0.011176	0.643760
H51	H	1.045981	0.447831	-0.000083
O52	O	0.883988	-0.031589	-0.000304
C53	C	0.869232	-0.172563	-0.118791
C54	C	0.924907	-0.080920	-0.118709
H55	H	0.902271	-0.212465	-0.214525
H56	H	0.902307	-0.212591	-0.023192
H57	H	0.761813	-0.160446	-0.118756
H58	H	1.032328	-0.092954	-0.118793
H59	H	0.891733	-0.040921	-0.214300
O60	O	1.826041	-0.304401	0.000123
C61	C	1.961599	-0.209800	0.118463
C62	C	1.834395	-0.250503	0.118402
H63	H	1.968383	-0.166200	0.214066
H64	H	2.042087	-0.266699	0.118549
H65	H	1.968460	-0.166318	0.022750
H66	H	1.827410	-0.293976	0.214098
H67	H	1.753967	-0.193561	0.118245
O68	O	1.822581	-0.108588	0.641447
C69	C	1.991733	-0.229101	0.626221
C70	C	1.897850	-0.162280	0.547175
H71	H	2.052595	-0.272542	0.550037
H72	H	2.054615	-0.189806	0.693550
H73	H	1.937422	-0.274470	0.693612
H74	H	1.952059	-0.116896	0.479709
H75	H	1.834969	-0.201631	0.479933
O76	O	1.141336	-0.430201	-0.000317
C77	C	0.945010	-0.441812	-0.118677
C78	C	1.072215	-0.401112	-0.118604
H79	H	0.889079	-0.418294	-0.214287
H80	H	0.962598	-0.518837	-0.118756
H81	H	0.889141	-0.418385	-0.022971
H82	H	1.128149	-0.424469	-0.214294
H83	H	1.054538	-0.324092	-0.118453
H84	H	1.654328	0.011203	0.238838
H85	H	1.697240	-0.159152	-0.000107
O86	O	1.315396	0.252283	0.641706
C87	C	1.097132	0.303684	0.685705
C88	C	1.191015	0.236912	0.606550
H89	H	0.996550	0.291292	0.657288
H90	H	1.111678	0.293246	0.800910
H91	H	1.113677	0.375998	0.657444
H92	H	1.174527	0.164571	0.634695
H93	H	1.176446	0.247428	0.491364
H94	H	1.129453	-0.013920	-0.000058
H95	H	1.282173	-0.122754	-0.000097
H96	H	1.809057	-0.098991	0.369313
H97	H	0.808324	0.443311	-0.000124
H98	H	0.716388	0.292210	-0.000126
O99	O	1.315698	0.252513	0.358172
C100	C	1.242319	0.408784	0.314222
C101	C	1.336095	0.341929	0.393346
H102	H	1.258759	0.481091	0.342653
H103	H	1.256971	0.398430	0.199012
H104	H	1.141730	0.396315	0.342497
H105	H	1.436721	0.354357	0.365187
H106	H	1.321333	0.352298	0.508537
H107	H	1.191705	0.301268	-0.000067
H108	H	1.164056	-0.253787	-0.000075
H109	H	1.270191	-0.575545	-0.000079
H110	H	1.685234	-0.611936	-0.000083
H111	H	1.803361	-0.480892	-0.000089
H112	H	1.654305	0.011155	0.760920
