data_functionalizedCrystal
_audit_creation_method	'MofGen! by Chris Wilmer'
_symmetry_space_group_name_H-M	'P1'
_symmetry_Int_Tables_number	1
_symmetry_cell_setting	triclinic
loop_
_symmetry_equiv_pos_as_xyz
  x,y,z
_cell_length_a	19.188925
_cell_length_b	19.188930
_cell_length_c	10.065875
_cell_angle_alpha	98.754308
_cell_angle_beta	81.282196
_cell_angle_gamma	83.143665
loop_
_atom_site_label
_atom_site_type_symbol
_atom_site_fract_x
_atom_site_fract_y
_atom_site_fract_z
O1	O	0.936398	0.076851	-0.113536
O2	O	1.436398	0.576851	0.386464
O3	O	0.733086	0.088590	-0.113535
O4	O	1.233086	0.588590	0.386465
O5	O	0.840607	-0.018933	-0.113509
O6	O	1.340607	0.481067	0.386491
O7	O	0.828877	0.184374	-0.113562
O8	O	1.328877	0.684374	0.386438
O9	O	0.820104	0.001652	0.113475
O10	O	1.320104	0.501652	0.613475
O11	O	0.712583	0.109175	0.113449
O12	O	1.212583	0.609175	0.613449
O13	O	0.915895	0.097436	0.113447
O14	O	1.415895	0.597436	0.613447
Zn15	Zn	0.810984	0.106574	0.149487
Zn16	Zn	1.310984	0.606574	0.649487
Zn17	Zn	0.837997	0.079452	-0.149574
Zn18	Zn	1.337997	0.579452	0.350426
O19	O	0.808374	0.204959	0.113422
O20	O	1.308374	0.704959	0.613422
C21	C	0.696823	0.098503	-0.000042
C22	C	1.196823	0.598503	0.499958
C23	C	0.619319	0.097364	-0.000040
C24	C	1.119319	0.597364	0.499960
C25	C	0.057550	0.152826	-0.000058
C26	C	0.557550	0.652826	0.499942
C27	C	0.130374	0.153902	-0.000066
C28	C	0.630374	0.653902	0.499934
C29	C	0.175307	0.090812	-0.000047
C30	C	0.675307	0.590812	0.499953
C31	C	0.147413	0.026637	-0.000055
C32	C	0.647413	0.526637	0.499945
C33	C	0.074592	0.025562	-0.000061
C34	C	0.574592	0.525562	0.499939
N35	N	0.289003	0.052144	0.077232
N36	N	0.789003	0.552144	0.577232
N37	N	0.358180	0.053170	0.077241
N38	N	0.858180	0.553170	0.577241
C39	C	0.394714	0.094047	-0.000032
C40	C	0.894714	0.594047	0.499968
N41	N	0.359456	0.133872	-0.077296
N42	N	0.859456	0.633872	0.422704
N43	N	0.290272	0.132848	-0.077298
N44	N	0.790272	0.632848	0.422702
C45	C	0.254270	0.091970	-0.000041
C46	C	0.754270	0.591970	0.499959
C47	C	0.501564	0.159383	-0.000041
C48	C	1.001564	0.659383	0.499959
C49	C	0.574391	0.160455	-0.000057
C50	C	1.074391	0.660455	0.499943
C51	C	0.591428	0.033190	-0.000033
C52	C	1.091428	0.533190	0.499967
C53	C	0.518604	0.032118	-0.000031
C54	C	1.018604	0.532118	0.499969
C55	C	0.473676	0.095217	-0.000028
C56	C	0.973676	0.595217	0.499972
C57	C	0.829975	-0.034651	-0.000013
C58	C	1.329975	0.465349	0.499987
C59	C	0.828833	-0.112154	-0.000001
C60	C	1.328833	0.387846	0.499999
C61	C	0.891924	-0.157079	0.000005
C62	C	1.391924	0.342921	0.500005
C63	C	0.890854	-0.229905	-0.000017
C64	C	1.390854	0.270095	0.499983
C65	C	0.826688	-0.257800	-0.000018
C66	C	1.326688	0.242200	0.499982
C67	C	0.763590	-0.212866	-0.000031
C68	C	1.263590	0.287134	0.499969
C69	C	0.764662	-0.140044	-0.000023
C70	C	1.264662	0.359956	0.499977
N71	N	0.770663	-0.358799	0.077230
N72	N	1.270663	0.141201	0.577230
N73	N	0.769648	-0.427978	0.077225
N74	N	1.269648	0.072022	0.577225
C75	C	0.823452	-0.477211	-0.000045
C76	C	1.323452	0.022789	0.499955
N77	N	0.878319	-0.454652	-0.077293
N78	N	1.378319	0.045348	0.422707
N79	N	0.879336	-0.385467	-0.077282
N80	N	1.379336	0.114533	0.422718
C81	C	0.825518	-0.336764	-0.000027
C82	C	1.325518	0.163236	0.499973
C83	C	0.885387	-0.601103	-0.000065
C84	C	1.385387	-0.101103	0.499935
C85	C	0.884316	-0.673930	-0.000095
C86	C	1.384316	-0.173930	0.499905
C87	C	0.757048	-0.656889	-0.000096
C88	C	1.257048	-0.156889	0.499904
C89	C	0.758123	-0.584064	-0.000079
C90	C	1.258123	-0.084064	0.499921
C91	C	0.822294	-0.556175	-0.000057
C92	C	1.322294	-0.056175	0.499943
C93	C	0.952158	0.087523	-0.000048
C94	C	1.452158	0.587523	0.499952
C95	C	1.029664	0.088661	-0.000059
C96	C	1.529664	0.588661	0.499941
C97	C	0.819007	0.220677	-0.000077
C98	C	1.319007	0.720677	0.499923
C99	C	0.820149	0.298179	-0.000098
C100	C	1.320149	0.798179	0.499902
N101	N	0.792553	0.125083	0.353588
N102	N	1.292553	0.625083	0.853588
N103	N	0.856434	0.060937	-0.353675
N104	N	1.356434	0.560937	0.146325
C105	C	0.831580	0.085888	0.421376
C106	C	1.331580	0.585888	0.921376
C107	C	0.817401	0.100138	0.578540
C108	C	1.317401	0.600138	1.078540
H109	H	0.184003	-0.024732	-0.000044
H110	H	0.684003	0.475268	0.499956
C111	C	0.758073	0.159727	0.657312
C112	C	1.258073	0.659727	1.157312
N113	N	0.713388	0.204608	0.716645
N114	N	1.213388	0.704608	1.216645
H115	H	0.875489	0.041778	0.363062
H116	H	1.375489	0.541778	0.863062
H117	H	0.935694	-0.710509	-0.000098
H118	H	1.435694	-0.210509	0.499902
C119	C	0.693006	-0.243552	-0.000022
C120	C	1.193006	0.256448	0.499978
N121	N	0.639840	-0.266664	-0.000016
N122	N	1.139840	0.233336	0.499984
C123	C	0.452143	0.228790	-0.000064
C124	C	0.952143	0.728790	0.499936
N125	N	0.414921	0.281067	-0.000087
N126	N	0.914921	0.781067	0.499913
C127	C	0.915763	0.001349	0.567556
C128	C	1.415763	0.501349	1.067556
N129	N	0.960450	-0.043531	0.508226
N130	N	1.460450	0.456469	1.008226
C131	C	0.733228	0.184669	0.432365
C132	C	1.233228	0.684669	0.932365
N133	N	0.688543	0.229550	0.491698
N134	N	1.188543	0.729550	0.991698
H135	H	0.628012	-0.018181	-0.000028
H136	H	1.128012	0.481819	0.499972
C137	C	0.161055	0.224492	-0.000056
C138	C	0.661055	0.724492	0.499944
N139	N	0.184162	0.277661	-0.000044
N140	N	0.684162	0.777661	0.499956
H141	H	0.020974	0.204206	-0.000063
H142	H	0.520974	0.704206	0.499937
C143	C	0.955978	-0.570424	-0.000062
C144	C	1.455978	-0.070424	0.499938
N145	N	1.009147	-0.547320	-0.000063
N146	N	1.509147	-0.047320	0.499937
C147	C	0.605064	0.231046	-0.000051
C148	C	1.105064	0.731046	0.499949
N149	N	0.628167	0.284217	-0.000040
N150	N	1.128167	0.784217	0.499960
C151	C	0.043915	-0.045026	-0.000045
C152	C	0.543915	0.454974	0.499955
N153	N	0.020808	-0.098193	-0.000026
N154	N	0.520808	0.401807	0.499974
H155	H	0.704804	-0.679601	-0.000103
H156	H	1.204804	-0.179601	0.499897
C157	C	0.960260	-0.279330	-0.000002
C158	C	1.460260	0.220670	0.499998
N159	N	1.012537	-0.316555	0.000013
N160	N	1.512537	0.183445	0.500013
C161	C	0.487925	-0.038467	-0.000002
C162	C	0.987925	0.461533	0.499998
N163	N	0.464819	-0.091635	0.000021
N164	N	0.964819	0.408365	0.500021
H165	H	0.944177	-0.134377	0.000018
H166	H	1.444177	0.365623	0.500018
C167	C	0.688717	-0.534644	-0.000078
C168	C	1.188717	-0.034644	0.499922
N169	N	0.636437	-0.497421	-0.000083
N170	N	1.136437	0.002579	0.499917
H171	H	0.713285	-0.103465	-0.000028
H172	H	1.213285	0.396535	0.499972
