data_functionalizedCrystal
_audit_creation_method	'MofGen! by Chris Wilmer'
_symmetry_space_group_name_H-M	'P1'
_symmetry_Int_Tables_number	1
_symmetry_cell_setting	triclinic
loop_
_symmetry_equiv_pos_as_xyz
  x,y,z
_cell_length_a	21.395362
_cell_length_b	25.639239
_cell_length_c	21.395355
_cell_angle_alpha	90.019334
_cell_angle_beta	90.043940
_cell_angle_gamma	90.054564
loop_
_atom_site_label
_atom_site_type_symbol
_atom_site_fract_x
_atom_site_fract_y
_atom_site_fract_z
Zn1	Zn	0.957825	-0.207990	0.354582
Zn2	Zn	1.457825	0.292010	0.854582
Zn3	Zn	0.957713	-0.295409	0.249803
Zn4	Zn	1.457713	0.204591	0.749803
Zn5	Zn	0.853040	-0.208014	0.249783
Zn6	Zn	1.353040	0.291986	0.749783
Zn7	Zn	0.852994	-0.295420	0.354508
Zn8	Zn	1.352994	0.204580	0.854508
O9	O	0.905393	-0.251708	0.302169
O10	O	1.405393	0.248292	0.802169
O11	O	1.045488	-0.219571	0.340722
O12	O	1.545488	0.280429	0.840722
O13	O	0.943800	-0.283822	0.162122
O14	O	1.443800	0.216178	0.662122
O15	O	0.867006	-0.134846	0.263708
O16	O	1.367006	0.365154	0.763708
O17	O	1.045405	-0.283798	0.263742
O18	O	1.545405	0.216202	0.763742
O19	O	0.943991	-0.134828	0.340703
O20	O	1.443991	0.365172	0.840703
O21	O	0.866897	-0.219613	0.162108
O22	O	1.366897	0.280387	0.662108
O23	O	0.765356	-0.219623	0.263636
O24	O	1.265356	0.280377	0.763636
O25	O	0.866928	-0.283817	0.442196
O26	O	1.366928	0.216183	0.942196
O27	O	0.765322	-0.283840	0.340576
O28	O	1.265322	0.216160	0.840576
O29	O	0.943947	-0.219582	0.442250
O30	O	1.443947	0.280418	0.942250
O31	O	0.943756	-0.368576	0.263669
O32	O	1.443756	0.131424	0.763669
O33	O	0.866820	-0.368584	0.340596
O34	O	1.366820	0.131416	0.840596
C35	C	0.742605	-0.251736	0.302096
C36	C	1.242605	0.248264	0.802096
C37	C	0.672964	-0.251760	0.302080
C38	C	1.172964	0.248240	0.802080
C39	C	0.640250	-0.285243	0.342083
C40	C	1.140250	0.214757	0.842083
C41	C	0.574814	-0.285230	0.342111
C42	C	1.074814	0.214770	0.842111
C43	C	0.542096	-0.251740	0.302125
C44	C	1.042096	0.248260	0.802125
C45	C	0.574818	-0.218252	0.262119
C46	C	1.074818	0.281748	0.762119
C47	C	0.640252	-0.218262	0.262097
C48	C	1.140252	0.281738	0.762097
C49	C	0.438372	-0.247528	0.245720
C50	C	0.938372	0.252472	0.745720
C51	C	0.372939	-0.247522	0.245741
C52	C	0.872939	0.252478	0.745741
C53	C	0.340275	-0.251706	0.302194
C54	C	0.840275	0.248294	0.802194
C55	C	0.373052	-0.255908	0.358627
C56	C	0.873052	0.244092	0.858627
C57	C	0.438486	-0.255918	0.358605
C58	C	0.938486	0.244082	0.858605
C59	C	0.471143	-0.251725	0.302145
C60	C	0.971143	0.248275	0.802145
C61	C	0.236608	-0.285176	0.342231
C62	C	0.736608	0.214824	0.842231
C63	C	0.171172	-0.285160	0.342260
C64	C	0.671172	0.214840	0.842260
C65	C	0.171176	-0.218185	0.262262
C66	C	0.671176	0.281815	0.762262
C67	C	0.236612	-0.218198	0.262239
C68	C	0.736612	0.281802	0.762239
C69	C	0.269324	-0.251697	0.302222
C70	C	0.769324	0.248303	0.802222
C71	C	0.905288	-0.387551	0.302140
C72	C	1.405288	0.112449	0.802140
C73	C	0.905300	-0.445665	0.302149
C74	C	1.405300	0.054335	0.802149
C75	C	0.945558	-0.806011	0.262182
C76	C	1.445558	-0.306011	0.762182
C77	C	0.945582	-0.860616	0.262190
C78	C	1.445582	-0.360616	0.762190
O79	O	0.979702	-0.888838	0.228177
O80	O	1.479702	-0.388838	0.728177
N81	N	0.905503	-0.887947	0.302211
N82	N	1.405503	-0.387947	0.802211
C83	C	0.865401	-0.860672	0.342230
C84	C	1.365401	-0.360672	0.842230
O85	O	0.831313	-0.888934	0.376271
O86	O	1.331313	-0.388934	0.876271
C87	C	0.865381	-0.806069	0.342224
C88	C	1.365381	-0.306069	0.842224
C89	C	0.905458	-0.778740	0.302196
C90	C	1.405458	-0.278740	0.802196
C91	C	0.985633	-0.778682	0.222158
C92	C	1.485633	-0.278682	0.722158
C93	C	0.985608	-0.724082	0.222149
C94	C	1.485608	-0.224082	0.722149
C95	C	0.945508	-0.696810	0.262164
C96	C	1.445508	-0.196810	0.762164
C97	C	0.905433	-0.724139	0.302187
C98	C	1.405433	-0.224139	0.802187
C99	C	0.825282	-0.778794	0.382246
C100	C	1.325282	-0.278794	0.882246
C101	C	0.825266	-0.724187	0.382237
C102	C	1.325266	-0.224187	0.882237
C103	C	0.865343	-0.696858	0.342209
C104	C	1.365343	-0.196858	0.842209
C105	C	0.865308	-0.642267	0.342193
C106	C	1.365308	-0.142267	0.842193
N107	N	0.905387	-0.614935	0.302173
N108	N	1.405387	-0.114935	0.802173
C109	C	0.945487	-0.642207	0.262158
C110	C	1.445487	-0.142207	0.762158
C111	C	0.865448	-0.975343	0.342239
C112	C	1.365448	-0.475343	0.842239
C113	C	0.865465	-1.029945	0.342242
C114	C	1.365465	-0.529945	0.842242
C115	C	0.945648	-1.029885	0.262204
C116	C	1.445648	-0.529885	0.762204
C117	C	0.945627	-0.975281	0.262198
C118	C	1.445627	-0.475281	0.762198
C119	C	0.905528	-0.948011	0.302219
C120	C	1.405528	-0.448011	0.802219
C121	C	0.945430	-0.527542	0.262142
C122	C	1.445430	-0.027542	0.762142
C123	C	0.945400	-0.472937	0.262134
C124	C	1.445400	0.027063	0.762134
C125	C	0.865220	-0.473002	0.342175
C126	C	1.365220	0.026998	0.842175
C127	C	0.865248	-0.527602	0.342180
C128	C	1.365248	-0.027602	0.842180
C129	C	0.905358	-0.554871	0.302162
C130	C	1.405358	-0.054871	0.802162
O131	O	0.831207	-0.614010	0.376190
O132	O	1.331207	-0.114010	0.876190
O133	O	0.979575	-0.613939	0.228128
O134	O	1.479575	-0.113939	0.728128
C135	C	1.068816	-0.251681	0.302242
C136	C	1.568816	0.248319	0.802242
C137	C	1.138458	-0.251669	0.302274
C138	C	1.638458	0.248331	0.802274
C139	C	0.905445	-0.251698	0.465592
C140	C	1.405445	0.248302	0.965592
C141	C	0.905467	-0.251693	0.535234
C142	C	1.405467	0.248307	1.035234
C143	C	0.905516	-0.115335	0.302212
C144	C	1.405516	0.384665	0.802212
C145	C	0.905568	-0.057221	0.302230
C146	C	1.405568	0.442779	0.802230
C147	C	0.905377	-0.251681	0.139381
C148	C	1.405377	0.248319	0.639381
C149	C	0.905476	-0.251538	0.069741
C150	C	1.405476	0.248462	0.569741
C151	C	0.945569	-0.218245	0.567976
C152	C	1.445569	0.281755	1.067976
C153	C	0.945568	-0.218222	0.633412
C154	C	1.445568	0.281778	1.133412
C155	C	0.905472	-0.251658	0.666102
C156	C	1.405472	0.248342	1.166102
C157	C	0.865362	-0.285108	0.633352
C158	C	1.365362	0.214892	1.133352
C159	C	0.865360	-0.285126	0.567917
C160	C	1.365360	0.214874	1.067917
C161	C	0.900488	-0.298736	0.769765
C162	C	1.400488	0.201264	1.269765
C163	C	0.900495	-0.298719	0.835198
C164	C	1.400495	0.201281	1.335198
C165	C	0.905476	-0.251602	0.867923
C166	C	1.405476	0.248398	1.367923
C167	C	0.910463	-0.204501	0.835207
C168	C	1.410463	0.295499	1.335207
C169	C	0.910461	-0.204519	0.769773
C170	C	1.410461	0.295481	1.269773
C171	C	0.905470	-0.251642	0.737054
C172	C	1.405470	0.248358	1.237054
C173	C	0.945579	-0.218127	0.971618
C174	C	1.445579	0.281873	1.471618
C175	C	0.945574	-0.218103	1.037055
C176	C	1.445574	0.281897	1.537055
C177	C	0.865371	-0.284994	1.036993
C178	C	1.365371	0.215006	1.536993
C179	C	0.865373	-0.285013	0.971558
C180	C	1.365373	0.214987	1.471558
C181	C	0.905480	-0.251580	0.938874
C182	C	1.405480	0.248420	1.438874
H183	H	0.464961	-0.244119	0.199746
H184	H	0.964961	0.255881	0.699746
C185	C	1.029747	-0.808672	0.178132
C186	C	1.529747	-0.308672	0.678132
N187	N	1.062972	-0.831257	0.144964
N188	N	1.562972	-0.331257	0.644964
H189	H	0.832616	-0.549855	0.374776
H190	H	1.332616	-0.049855	0.874776
H191	H	0.978036	-0.450687	0.229537
H192	H	1.478036	0.049313	0.729537
H193	H	0.666880	-0.312519	0.374642
H194	H	1.166880	0.187481	0.874642
H195	H	0.548174	-0.190984	0.229563
H196	H	1.048174	0.309016	0.729563
C197	C	0.821265	-0.321774	1.072949
C198	C	1.321265	0.178226	1.572949
N199	N	0.788043	-0.349477	1.100034
N200	N	1.288043	0.150523	1.600034
C201	C	0.272594	-0.322019	0.386220
C202	C	0.772594	0.177981	0.886220
N203	N	0.299696	-0.349768	0.419354
N204	N	0.799696	0.150232	0.919354
C205	C	0.676238	-0.181430	0.218085
C206	C	1.176238	0.318570	0.718085
N207	N	0.703344	-0.153689	0.184933
N208	N	1.203344	0.346311	0.684933
C209	C	0.821371	-1.060001	0.386269
C210	C	1.321371	-0.560001	0.886269
N211	N	0.788160	-1.082637	0.419435
N212	N	1.288160	-0.582637	0.919435
H213	H	0.978093	-0.549738	0.229556
H214	H	1.478093	-0.049738	0.729556
C215	C	0.895009	-0.350531	0.871180
C216	C	1.395009	0.149469	1.371180
N217	N	0.890875	-0.389557	0.898279
N218	N	1.390875	0.110443	1.398279
H219	H	0.144537	-0.312424	0.374839
H220	H	0.644537	0.187576	0.874839
C221	C	0.821244	-0.321925	0.531900
C222	C	1.321244	0.178075	1.031900
N223	N	0.788017	-0.349643	0.504770
N224	N	1.288017	0.150357	1.004770
C225	C	1.029691	-0.694027	0.178110
C226	C	1.529691	-0.194027	0.678110
N227	N	1.062896	-0.671393	0.144936
N228	N	1.562896	-0.171393	0.644936
H229	H	0.792613	-0.701986	0.414829
H230	H	1.292613	-0.201986	0.914829
H231	H	0.832569	-0.450789	0.374753
H232	H	1.332569	0.049211	0.874753
C233	C	0.474539	-0.260539	0.420681
C234	C	0.974539	0.239461	0.920681
N235	N	0.501694	-0.264019	0.467437
N236	N	1.001694	0.235981	0.967437
H237	H	0.914520	-0.166134	0.861850
H238	H	1.414520	0.333866	1.361850
H239	H	0.978262	-0.953033	0.229605
H240	H	1.478262	-0.453033	0.729605
C241	C	0.989764	-1.059894	0.218191
C242	C	1.489764	-0.559894	0.718191
N243	N	1.022991	-1.082498	0.185044
N244	N	1.522991	-0.582498	0.685044
C245	C	0.989691	-0.181345	0.935664
C246	C	1.489691	0.318655	1.435664
N247	N	1.022917	-0.153641	0.908585
N248	N	1.522917	0.346359	1.408585
H249	H	0.978227	-0.191020	0.541369
H250	H	1.478227	0.308980	1.041369
H251	H	0.832790	-0.953142	0.374827
H252	H	1.332790	-0.453142	0.874827
H253	H	0.263248	-0.190936	0.229661
H254	H	0.763248	0.309064	0.729661
H255	H	0.978222	-0.190982	0.660076
H256	H	1.478222	0.309018	1.160076
C257	C	0.781195	-0.808844	0.426282
C258	C	1.281195	-0.308844	0.926282
N259	N	0.747987	-0.831477	0.459453
N260	N	1.247987	-0.331477	0.959453
H261	H	0.978228	-0.190863	1.063713
H262	H	1.478228	0.309137	1.563713
H263	H	0.914520	-0.166167	0.743138
H264	H	1.414520	0.333833	1.243138
H265	H	0.548173	-0.312495	0.374689
H266	H	1.048173	0.187505	0.874689
H267	H	0.346256	-0.244104	0.199789
H268	H	0.846256	0.255896	0.699789
C269	C	0.821260	-0.321812	0.935540
C270	C	1.321260	0.178188	1.435540
N271	N	0.788030	-0.349529	0.908411
N272	N	1.288030	0.150471	1.408411
C273	C	0.821254	-0.321885	0.669312
C274	C	1.321254	0.178115	1.169312
N275	N	0.788027	-0.349584	0.696398
N276	N	1.288027	0.150416	1.196398
C277	C	0.337127	-0.260509	0.420731
C278	C	0.837127	0.239491	0.920731
N279	N	0.310066	-0.263975	0.467506
N280	N	0.810066	0.236025	0.967506
C281	C	0.135189	-0.181345	0.218277
C282	C	0.635189	0.318655	0.718277
N283	N	0.108081	-0.153596	0.185147
N284	N	0.608081	0.346404	0.685147
C285	C	0.895021	-0.350573	0.733774
C286	C	1.395021	0.149427	1.233774
N287	N	0.890907	-0.389615	0.706667
N288	N	1.390907	0.110385	1.206667
