data_functionalizedCrystal
_audit_creation_method	'MofGen! by Chris Wilmer'
_symmetry_space_group_name_H-M	'P1'
_symmetry_Int_Tables_number	1
_symmetry_cell_setting	triclinic
loop_
_symmetry_equiv_pos_as_xyz
  x,y,z
_cell_length_a	16.625548
_cell_length_b	16.625546
_cell_length_c	16.625539
_cell_angle_alpha	89.971468
_cell_angle_beta	89.982945
_cell_angle_gamma	90.023536
loop_
_atom_site_label
_atom_site_type_symbol
_atom_site_fract_x
_atom_site_fract_y
_atom_site_fract_z
Zn1	Zn	1.232652	-0.320992	-0.455898
Zn2	Zn	1.565986	0.012341	-0.122564
Zn3	Zn	1.899319	0.345675	0.210769
Zn4	Zn	1.232564	-0.455831	-0.321060
Zn5	Zn	1.565897	-0.122497	0.012273
Zn6	Zn	1.899231	0.210836	0.345607
Zn7	Zn	1.097823	-0.321018	-0.321078
Zn8	Zn	1.431156	0.012315	0.012255
Zn9	Zn	1.764489	0.345648	0.345589
Zn10	Zn	1.097785	-0.455789	-0.455850
Zn11	Zn	1.431118	-0.122456	-0.122516
Zn12	Zn	1.764451	0.210878	0.210817
O13	O	1.165206	-0.388408	-0.388471
O14	O	1.498539	-0.055074	-0.055138
O15	O	1.831873	0.278259	0.278195
O16	O	1.345473	-0.338885	-0.438024
O17	O	1.678806	-0.005552	-0.104690
O18	O	2.012140	0.327781	0.228643
O19	O	1.214669	-0.437976	-0.208230
O20	O	1.548002	-0.104643	0.125103
O21	O	1.881336	0.228690	0.458437
O22	O	1.115761	-0.208182	-0.338990
O23	O	1.449094	0.125151	-0.005657
O24	O	1.782428	0.458484	0.327677
O25	O	1.345408	-0.437951	-0.338959
O26	O	1.678741	-0.104617	-0.005625
O27	O	2.012075	0.228716	0.327708
O28	O	1.214820	-0.208163	-0.438041
O29	O	1.548153	0.125170	-0.104708
O30	O	1.881487	0.458504	0.228625
O31	O	1.115675	-0.338930	-0.208243
O32	O	1.449008	-0.005597	0.125090
O33	O	1.782342	0.327737	0.458423
O34	O	0.984985	-0.338889	-0.338944
O35	O	1.318319	-0.005556	-0.005610
O36	O	1.651652	0.327777	0.327723
O37	O	1.115696	-0.437879	-0.568689
O38	O	1.449030	-0.104546	-0.235355
O39	O	1.782363	0.228787	0.097978
O40	O	0.984957	-0.437905	-0.437960
O41	O	1.318291	-0.104571	-0.104626
O42	O	1.651624	0.228762	0.228707
O43	O	1.214783	-0.338845	-0.568724
O44	O	1.548117	-0.005511	-0.235390
O45	O	1.881450	0.327822	0.097943
O46	O	1.214632	-0.568658	-0.338912
O47	O	1.547966	-0.235324	-0.005579
O48	O	1.881299	0.098009	0.327754
O49	O	1.115611	-0.568627	-0.437942
O50	O	1.448944	-0.235294	-0.104609
O51	O	1.782277	0.098040	0.228725
C52	C	0.955715	-0.388396	-0.388449
C53	C	1.289048	-0.055063	-0.055116
C54	C	1.622382	0.278271	0.278218
C55	C	0.866094	-0.388410	-0.388458
C56	C	1.199427	-0.055077	-0.055125
C57	C	1.532761	0.278256	0.278208
C58	C	0.537918	-0.388416	-0.388493
C59	C	0.871252	-0.055082	-0.055159
C60	C	1.204585	0.278251	0.278174
C61	C	0.629227	-0.388412	-0.388481
C62	C	0.962560	-0.055079	-0.055147
C63	C	1.295893	0.278255	0.278186
C64	C	0.702003	-0.388414	-0.388475
C65	C	1.035337	-0.055080	-0.055142
C66	C	1.368670	0.278253	0.278192
C67	C	0.793318	-0.388409	-0.388464
C68	C	1.126651	-0.055076	-0.055131
C69	C	1.459984	0.278258	0.278203
C70	C	1.165130	-0.597898	-0.388438
C71	C	1.498463	-0.264565	-0.055104
C72	C	1.831796	0.068768	0.278229
C73	C	1.165171	-0.687519	-0.388450
C74	C	1.498504	-0.354186	-0.055117
C75	C	1.831837	-0.020853	0.278217
C76	C	1.165311	-1.015695	-0.388534
C77	C	1.498645	-0.682362	-0.055201
C78	C	1.831978	-0.349028	0.278133
C79	C	1.165270	-0.924387	-0.388513
C80	C	1.498603	-0.591053	-0.055180
C81	C	1.831936	-0.257720	0.278154
C82	C	1.165240	-0.851610	-0.388492
C83	C	1.498574	-0.518277	-0.055158
C84	C	1.831907	-0.184944	0.278175
C85	C	1.165200	-0.760296	-0.388471
C86	C	1.498533	-0.426963	-0.055138
C87	C	1.831867	-0.093629	0.278195
C88	C	1.375515	-0.388420	-0.388494
C89	C	1.708848	-0.055086	-0.055161
C90	C	2.042181	0.278247	0.278172
C91	C	1.465136	-0.388425	-0.388504
C92	C	1.798469	-0.055092	-0.055171
C93	C	2.131803	0.278242	0.278162
C94	C	1.165245	-0.388354	-0.598780
C95	C	1.498579	-0.055021	-0.265447
C96	C	1.831912	0.278312	0.067886
C97	C	1.165262	-0.388332	-0.688402
C98	C	1.498596	-0.054998	-0.355068
C99	C	1.831929	0.278335	-0.021735
C100	C	1.165305	-0.178099	-0.388523
C101	C	1.498638	0.155235	-0.055190
C102	C	1.831971	0.488568	0.278144
C103	C	1.165347	-0.088477	-0.388545
C104	C	1.498680	0.244856	-0.055212
C105	C	1.832013	0.578189	0.278122
C106	C	1.165275	-0.388314	-0.761184
C107	C	1.498609	-0.054980	-0.427851
C108	C	1.831942	0.278353	-0.094517
C109	C	1.165294	-0.388284	-0.852493
C110	C	1.498628	-0.054950	-0.519159
C111	C	1.831961	0.278383	-0.185826
C112	C	1.165313	-0.388255	-0.925269
C113	C	1.498647	-0.054922	-0.591936
C114	C	1.831980	0.278411	-0.258602
C115	C	1.165333	-0.388226	-1.016583
C116	C	1.498667	-0.054893	-0.683250
C117	C	1.832000	0.278440	-0.349917
C118	C	1.165213	-0.388402	-0.178981
C119	C	1.498546	-0.055069	0.154353
C120	C	1.831880	0.278264	0.487686
C121	C	1.165352	-0.388198	-0.089360
C122	C	1.498686	-0.054865	0.243973
C123	C	1.832019	0.278469	0.577307
