data_functionalizedCrystal
_audit_creation_method	'MofGen! by Chris Wilmer'
_symmetry_space_group_name_H-M	'P1'
_symmetry_Int_Tables_number	1
_symmetry_cell_setting	triclinic
loop_
_symmetry_equiv_pos_as_xyz
  x,y,z
_cell_length_a	10.685661
_cell_length_b	13.897447
_cell_length_c	10.686551
_cell_angle_alpha	85.594025
_cell_angle_beta	80.927378
_cell_angle_gamma	85.640892
loop_
_atom_site_label
_atom_site_type_symbol
_atom_site_fract_x
_atom_site_fract_y
_atom_site_fract_z
Zn1	Zn	1.995671	-0.450229	-0.866167
Zn2	Zn	1.979231	-0.623046	-0.653904
Zn3	Zn	1.767106	-0.450273	-0.637692
Zn4	Zn	1.783364	-0.599984	-0.849867
O5	O	1.881343	-0.530883	-0.751907
O6	O	2.171116	-0.482787	-0.851616
O7	O	1.937408	-0.609797	-0.474125
O8	O	1.797502	-0.315287	-0.668036
O9	O	2.159038	-0.609755	-0.695668
O10	O	1.965428	-0.315255	-0.835895
O11	O	1.781561	-0.482861	-0.462214
O12	O	1.591636	-0.460499	-0.652231
O13	O	1.825211	-0.570448	-1.029658
O14	O	1.603581	-0.570491	-0.808115
O15	O	1.981192	-0.460424	-1.041633
O16	O	1.953172	-0.754966	-0.679863
O17	O	1.809269	-0.738022	-0.823836
C18	C	1.551552	-0.512998	-0.726645
C19	C	1.410468	-0.505368	-0.715868
C20	C	1.881237	-0.781493	-0.751870
C21	C	1.881312	-0.888709	-0.751905
C22	C	1.881375	-0.975781	-0.751939
C23	C	1.881467	-1.085016	-0.751978
C24	C	2.212421	-0.548838	-0.777269
C25	C	2.353507	-0.556490	-0.788076
C26	C	1.906849	-0.512859	-1.082990
C27	C	1.917718	-0.505178	-1.224078
C28	C	1.881485	-0.279294	-0.751975
C29	C	1.881546	-0.172082	-0.752004
C30	C	1.856009	-0.548771	-0.422118
C31	C	1.845386	-0.556193	-0.281050
H32	H	1.351295	-0.455757	-0.645802
C33	C	1.750508	-0.623152	-1.201144
H34	H	1.706598	-0.654137	-1.255803
H35	H	1.691279	-0.586052	-1.145189
H36	H	1.795129	-0.670596	-1.153151
C37	C	2.012622	-0.438233	-1.303992
H38	H	2.056548	-0.407264	-1.249331
H39	H	1.968034	-0.390790	-1.352005
H40	H	2.071852	-0.475356	-1.359928
C41	C	1.433428	-0.623511	-0.882720
H42	H	1.520947	-0.620027	-0.877782
H43	H	1.418363	-0.603706	-0.966409
H44	H	1.410296	-0.688161	-0.862336
