data_functionalizedCrystal
_audit_creation_method	'MofGen! by Chris Wilmer'
_symmetry_space_group_name_H-M	'P1'
_symmetry_Int_Tables_number	1
_symmetry_cell_setting	triclinic
loop_
_symmetry_equiv_pos_as_xyz
  x,y,z
_cell_length_a	16.992694
_cell_length_b	10.654541
_cell_length_c	16.053810
_cell_angle_alpha	87.396977
_cell_angle_beta	92.738518
_cell_angle_gamma	87.576076
loop_
_atom_site_label
_atom_site_type_symbol
_atom_site_fract_x
_atom_site_fract_y
_atom_site_fract_z
O1	O	1.045101	0.261460	0.069324
O2	O	1.545101	0.761460	0.569324
O3	O	0.816801	0.258535	0.069348
O4	O	1.316801	0.758535	0.569348
O5	O	0.936201	0.077712	0.069330
O6	O	1.436201	0.577712	0.569330
O7	O	0.925701	0.442283	0.069342
O8	O	1.425701	0.942283	0.569342
O9	O	0.929656	0.087664	-0.069527
O10	O	1.429656	0.587664	0.430473
O11	O	0.810256	0.268487	-0.069509
O12	O	1.310256	0.768487	0.430491
O13	O	1.038556	0.271412	-0.069534
O14	O	1.538556	0.771412	0.430466
Zn15	Zn	0.923367	0.271530	-0.091568
Zn16	Zn	1.423367	0.771530	0.408432
Zn17	Zn	0.931990	0.258417	0.091383
Zn18	Zn	1.431990	0.758417	0.591383
O19	O	0.919156	0.452235	-0.069516
O20	O	1.419156	0.952235	0.430484
C21	C	0.784296	0.259751	-0.000077
C22	C	1.284296	0.759751	0.499923
C23	C	0.697191	0.248531	-0.000068
C24	C	1.197191	0.748531	0.499932
C25	C	0.647539	0.356781	-0.000065
C26	C	1.147539	0.856781	0.499935
C27	C	0.565694	0.346233	-0.000077
C28	C	1.065694	0.846233	0.499923
C29	C	0.533504	0.227433	-0.000086
C30	C	1.033504	0.727433	0.499914
C31	C	0.583162	0.119174	-0.000091
C32	C	1.083162	0.619174	0.499909
C33	C	0.665005	0.129724	-0.000085
C34	C	1.165005	0.629724	0.499915
C35	C	0.289668	0.183707	-0.000110
C36	C	0.789668	0.683707	0.499890
C37	C	0.207819	0.173165	-0.000113
C38	C	0.707819	0.673165	0.499887
C39	C	0.190356	0.400226	-0.000101
C40	C	0.690356	0.900226	0.499899
C41	C	0.272201	0.410765	-0.000090
C42	C	0.772201	0.910765	0.499910
C43	C	0.321852	0.302506	-0.000099
C44	C	0.821852	0.802506	0.499901
N45	N	0.449846	0.216647	-0.000095
N46	N	0.949846	0.716647	0.499905
N47	N	0.405508	0.313293	-0.000096
N48	N	0.905508	0.813293	0.499904
C49	C	0.932158	0.035823	-0.000098
C50	C	1.432158	0.535823	0.499902
C51	C	0.929852	-0.103819	-0.000096
C52	C	1.429852	0.396181	0.499904
C53	C	1.072627	-0.119450	-0.000122
C54	C	1.572627	0.380550	0.499878
C55	C	1.142928	-0.192868	-0.000137
C56	C	1.642928	0.307132	0.499863
C57	C	1.140757	-0.324074	-0.000134
C58	C	1.640757	0.175926	0.499866
C59	C	1.068278	-0.381864	-0.000114
C60	C	1.568278	0.118136	0.499886
C61	C	0.997977	-0.308446	-0.000100
C62	C	1.497977	0.191554	0.499900
C63	C	1.000155	-0.177238	-0.000105
C64	C	1.500155	0.322762	0.499895
C65	C	0.855204	-0.292816	-0.000068
C66	C	1.355204	0.207184	0.499932
C67	C	0.857373	-0.161610	-0.000076
C68	C	1.357373	0.338390	0.499924
C69	C	0.782725	-0.350606	-0.000048
C70	C	1.282725	0.149394	0.499952
C71	C	0.712422	-0.277188	-0.000039
C72	C	1.212422	0.222812	0.499961
C73	C	0.714596	-0.145974	-0.000043
C74	C	1.214596	0.354026	0.499957
C75	C	0.787072	-0.088192	-0.000062
C76	C	1.287072	0.411808	0.499938
C77	C	1.071061	0.270196	-0.000106
C78	C	1.571061	0.770196	0.499894
C79	C	1.158166	0.281416	-0.000110
C80	C	1.658166	0.781416	0.499890
C81	C	0.923199	0.494124	-0.000086
C82	C	1.423199	0.994124	0.499914
C83	C	0.925505	0.633766	-0.000082
C84	C	1.425505	1.133766	0.499918
N85	N	0.917487	0.280479	-0.216428
N86	N	1.417487	0.780479	0.283572
C87	C	0.887059	0.326379	-0.740055
C88	C	1.387059	0.826379	-0.240055
C89	C	0.891189	0.320144	-0.652649
C90	C	1.391189	0.820144	-0.152649
C91	C	0.946140	0.236996	-0.608948
C92	C	1.446140	0.736996	-0.108948
C93	C	0.996960	0.160068	-0.652657
C94	C	1.496960	0.660068	-0.152657
C95	C	0.992825	0.166297	-0.740061
C96	C	1.492825	0.666297	-0.240061
C97	C	0.964172	0.209780	-0.347541
C98	C	1.464172	0.709780	0.152459
C99	C	0.968305	0.203559	-0.260131
C100	C	1.468305	0.703559	0.239869
C101	C	0.862532	0.363634	-0.260129
C102	C	1.362532	0.863634	0.239871
C103	C	0.858406	0.369861	-0.347535
C104	C	1.358406	0.869861	0.152465
C105	C	0.909222	0.292929	-0.391237
C106	C	1.409222	0.792929	0.108763
N107	N	0.950365	0.230625	-0.519605
N108	N	1.450365	0.730625	-0.019605
N109	N	0.904994	0.299295	-0.480578
N110	N	1.404994	0.799295	0.019422
N111	N	0.937876	0.249459	0.216242
N112	N	1.437876	0.749459	0.716242
H113	H	0.673741	0.453522	-0.000058
H114	H	1.173741	0.953522	0.499942
Br115	Br	0.498311	0.493152	-0.000071
Br116	Br	0.998311	0.993152	0.499929
Br117	Br	1.241289	-0.114435	-0.000155
Br118	Br	1.741289	0.385565	0.499845
Br119	Br	0.164132	0.011926	-0.000142
Br120	Br	0.664132	0.511926	0.499858
H121	H	0.653415	-0.324252	-0.000018
H122	H	1.153415	0.175748	0.499982
H123	H	1.198003	-0.383852	-0.000139
H124	H	1.698003	0.116148	0.499861
Br125	Br	0.790027	0.089875	-0.000076
Br126	Br	1.290027	0.589875	0.499924
H127	H	0.330084	0.095555	-0.000118
H128	H	0.830084	0.595555	0.499882
H129	H	0.657348	-0.086204	-0.000027
H130	H	1.157348	0.413796	0.499973
H131	H	1.066517	-0.488700	-0.000101
H132	H	1.566517	0.011300	0.499899
H133	H	0.780962	-0.457442	-0.000040
H134	H	1.280962	0.042558	0.499960
Br135	Br	0.122969	0.547139	-0.000089
Br136	Br	0.622969	1.047139	0.499911
H137	H	0.842315	0.394092	-0.775631
H138	H	1.342315	0.894092	-0.275631
H139	H	0.849809	0.382777	-0.617067
H140	H	1.349809	0.882777	-0.117067
H141	H	0.705432	0.041574	-0.000087
H142	H	1.205432	0.541574	0.499913
H143	H	0.813660	0.437567	-0.383116
H144	H	1.313660	0.937567	0.116884
Br145	Br	0.793569	0.468035	-0.200818
Br146	Br	1.293569	0.968035	0.299182
H147	H	1.041700	0.092361	-0.617070
H148	H	1.541700	0.592361	-0.117070
Br149	Br	1.042892	0.090711	-0.200826
Br150	Br	1.542892	0.590711	0.299174
H151	H	0.298405	0.507504	-0.000073
H152	H	0.798405	1.007504	0.499927
H153	H	1.005551	0.147140	-0.383116
H154	H	1.505551	0.647140	0.116884
H155	H	0.556946	0.022445	-0.000110
H156	H	1.056946	0.522445	0.499890
H157	H	1.074401	-0.012615	-0.000136
H158	H	1.574401	0.487385	0.499864
Br159	Br	1.061790	0.061893	-0.799372
Br160	Br	1.561790	0.561893	-0.299372
