data_functionalizedCrystal
_audit_creation_method	'MofGen! by Chris Wilmer'
_symmetry_space_group_name_H-M	'P1'
_symmetry_Int_Tables_number	1
_symmetry_cell_setting	triclinic
loop_
_symmetry_equiv_pos_as_xyz
  x,y,z
_cell_length_a	21.395362
_cell_length_b	18.050590
_cell_length_c	21.395355
_cell_angle_alpha	89.981964
_cell_angle_beta	89.956060
_cell_angle_gamma	90.034430
loop_
_atom_site_label
_atom_site_type_symbol
_atom_site_fract_x
_atom_site_fract_y
_atom_site_fract_z
Zn1	Zn	0.957912	-0.295431	-0.354588
Zn2	Zn	1.207912	-0.045431	-0.104588
Zn3	Zn	1.457912	0.204569	0.145412
Zn4	Zn	1.707912	0.454569	0.395412
Zn5	Zn	0.957837	-0.419603	-0.249811
Zn6	Zn	1.207837	-0.169603	0.000189
Zn7	Zn	1.457837	0.080397	0.250189
Zn8	Zn	1.707837	0.330397	0.500189
Zn9	Zn	0.853127	-0.295465	-0.249789
Zn10	Zn	1.103127	-0.045465	0.000211
Zn11	Zn	1.353127	0.204535	0.250211
Zn12	Zn	1.603127	0.454535	0.500211
Zn13	Zn	0.853119	-0.419618	-0.354516
Zn14	Zn	1.103119	-0.169618	-0.104516
Zn15	Zn	1.353119	0.080382	0.145484
Zn16	Zn	1.603119	0.330382	0.395484
O17	O	0.905499	-0.357529	-0.302176
O18	O	1.155499	-0.107529	-0.052176
O19	O	1.405499	0.142471	0.197824
O20	O	1.655499	0.392471	0.447824
O21	O	1.045580	-0.311881	-0.340728
O22	O	1.295580	-0.061881	-0.090728
O23	O	1.545580	0.188119	0.159272
O24	O	1.795580	0.438119	0.409272
O25	O	0.943919	-0.403143	-0.162130
O26	O	1.193919	-0.153143	0.087870
O27	O	1.443919	0.096857	0.337870
O28	O	1.693919	0.346857	0.587870
O29	O	0.867062	-0.191536	-0.263712
O30	O	1.117062	0.058464	-0.013712
O31	O	1.367062	0.308464	0.236288
O32	O	1.617062	0.558464	0.486288
O33	O	1.045525	-0.403110	-0.263749
O34	O	1.295525	-0.153110	-0.013749
O35	O	1.545525	0.096890	0.236251
O36	O	1.795525	0.346890	0.486251
O37	O	0.944048	-0.191511	-0.340707
O38	O	1.194048	0.058489	-0.090707
O39	O	1.444048	0.308489	0.159293
O40	O	1.694048	0.558489	0.409293
O41	O	0.866989	-0.311940	-0.162114
O42	O	1.116989	-0.061940	0.087886
O43	O	1.366989	0.188060	0.337886
O44	O	1.616989	0.438060	0.587886
O45	O	0.765448	-0.311955	-0.263642
O46	O	1.015448	-0.061955	-0.013642
O47	O	1.265448	0.188045	0.236358
O48	O	1.515448	0.438045	0.486358
O49	O	0.867048	-0.403136	-0.442203
O50	O	1.117048	-0.153136	-0.192203
O51	O	1.367048	0.096864	0.057797
O52	O	1.617048	0.346864	0.307797
O53	O	0.765442	-0.403170	-0.340584
O54	O	1.015442	-0.153170	-0.090584
O55	O	1.265442	0.096830	0.159416
O56	O	1.515442	0.346830	0.409416
O57	O	0.944039	-0.311896	-0.442256
O58	O	1.194039	-0.061896	-0.192256
O59	O	1.444039	0.188104	0.057744
O60	O	1.694039	0.438104	0.307744
O61	O	0.943911	-0.523529	-0.263680
O62	O	1.193911	-0.273529	-0.013680
O63	O	1.443911	-0.023529	0.236320
O64	O	1.693911	0.226471	0.486320
O65	O	0.866975	-0.523540	-0.340606
O66	O	1.116975	-0.273540	-0.090606
O67	O	1.366975	-0.023540	0.159394
O68	O	1.616975	0.226460	0.409394
C69	C	0.742711	-0.357568	-0.302103
C70	C	0.992711	-0.107568	-0.052103
C71	C	1.242711	0.142432	0.197897
C72	C	1.492711	0.392432	0.447897
C73	C	0.673070	-0.357603	-0.302087
C74	C	0.923070	-0.107603	-0.052087
C75	C	1.173070	0.142397	0.197913
C76	C	1.423070	0.392397	0.447913
C77	C	0.640370	-0.405161	-0.342091
C78	C	0.890370	-0.155161	-0.092091
C79	C	1.140370	0.094839	0.157909
C80	C	1.390370	0.344839	0.407909
C81	C	0.574935	-0.405143	-0.342119
C82	C	0.824935	-0.155143	-0.092119
C83	C	1.074935	0.094857	0.157881
C84	C	1.324935	0.344857	0.407881
C85	C	0.542202	-0.357574	-0.302132
C86	C	0.792202	-0.107574	-0.052132
C87	C	1.042202	0.142426	0.197868
C88	C	1.292202	0.392426	0.447868
C89	C	0.574910	-0.310007	-0.262125
C90	C	0.824910	-0.060007	-0.012125
C91	C	1.074910	0.189993	0.237875
C92	C	1.324910	0.439993	0.487875
C93	C	0.640344	-0.310021	-0.262103
C94	C	0.890344	-0.060021	-0.012103
C95	C	1.140344	0.189979	0.237897
C96	C	1.390344	0.439979	0.487897
C97	C	0.438476	-0.351592	-0.245726
C98	C	0.688476	-0.101592	0.004274
C99	C	0.938476	0.148408	0.254274
C100	C	1.188476	0.398408	0.504274
C101	C	0.373043	-0.351583	-0.245748
C102	C	0.623043	-0.101583	0.004252
C103	C	0.873043	0.148417	0.254252
C104	C	1.123043	0.398417	0.504252
C105	C	0.340381	-0.357526	-0.302201
C106	C	0.590381	-0.107526	-0.052201
C107	C	0.840381	0.142474	0.197799
C108	C	1.090381	0.392474	0.447799
C109	C	0.373160	-0.363494	-0.358634
C110	C	0.623160	-0.113494	-0.108634
C111	C	0.873160	0.136506	0.141366
C112	C	1.123160	0.386506	0.391366
C113	C	0.438594	-0.363508	-0.358612
C114	C	0.688594	-0.113508	-0.108612
C115	C	0.938594	0.136492	0.141388
C116	C	1.188594	0.386492	0.391388
C117	C	0.471249	-0.357553	-0.302152
C118	C	0.721249	-0.107553	-0.052152
C119	C	0.971249	0.142447	0.197848
C120	C	1.221249	0.392447	0.447848
C121	C	0.236728	-0.405067	-0.342238
C122	C	0.486728	-0.155067	-0.092238
C123	C	0.736728	0.094933	0.157762
C124	C	0.986728	0.344933	0.407762
C125	C	0.171292	-0.405044	-0.342267
C126	C	0.421292	-0.155044	-0.092267
C127	C	0.671292	0.094956	0.157733
C128	C	0.921292	0.344956	0.407733
C129	C	0.171268	-0.309911	-0.262268
C130	C	0.421268	-0.059911	-0.012268
C131	C	0.671268	0.190089	0.237732
C132	C	0.921268	0.440089	0.487732
C133	C	0.236703	-0.309931	-0.262245
C134	C	0.486703	-0.059931	-0.012245
C135	C	0.736703	0.190069	0.237755
C136	C	0.986703	0.440069	0.487755
C137	C	0.269430	-0.357513	-0.302229
C138	C	0.519430	-0.107513	-0.052229
C139	C	0.769430	0.142487	0.197771
C140	C	1.019430	0.392487	0.447771
C141	C	0.905451	-0.550481	-0.302151
C142	C	1.155451	-0.300481	-0.052151
C143	C	1.405451	-0.050481	0.197849
C144	C	1.655451	0.199519	0.447849
C145	C	0.905487	-0.633027	-0.302161
C146	C	1.155487	-0.383027	-0.052161
C147	C	1.405487	-0.133027	0.197839
C148	C	1.655487	0.116973	0.447839
C149	C	0.947412	-0.832444	-0.260387
C150	C	1.197412	-0.582444	-0.010387
C151	C	1.447412	-0.332444	0.239613
C152	C	1.697412	-0.082444	0.489613
C153	C	0.962722	-0.881784	-0.317576
C154	C	1.212722	-0.631784	-0.067576
C155	C	1.462722	-0.381784	0.182424
C156	C	1.712722	-0.131784	0.432424
C157	C	0.905523	-0.784157	-0.302186
C158	C	1.155523	-0.534157	-0.052186
C159	C	1.405523	-0.284157	0.197814
C160	C	1.655523	-0.034157	0.447814
C161	C	0.890277	-0.881899	-0.245023
C162	C	1.140277	-0.631899	0.004977
C163	C	1.390277	-0.381899	0.254977
C164	C	1.640277	-0.131899	0.504977
C165	C	0.905559	-0.930142	-0.302205
C166	C	1.155559	-0.680142	-0.052205
C167	C	1.405559	-0.430142	0.197795
C168	C	1.655559	-0.180142	0.447795
C169	C	0.920862	-0.832410	-0.359405
C170	C	1.170862	-0.582410	-0.109405
C171	C	1.420862	-0.332410	0.140595
C172	C	1.670862	-0.082410	0.390595
C173	C	0.848390	-0.832520	-0.286813
C174	C	1.098390	-0.582520	-0.036813
C175	C	1.348390	-0.332520	0.213187
C176	C	1.598390	-0.082520	0.463187
C177	C	0.863678	-0.881838	-0.344042
C178	C	1.113678	-0.631838	-0.094042
C179	C	1.363678	-0.381838	0.155958
C180	C	1.613678	-0.131838	0.405958
C181	C	0.905504	-0.700059	-0.302174
C182	C	1.155504	-0.450059	-0.052174
C183	C	1.405504	-0.200059	0.197826
C184	C	1.655504	0.049941	0.447826
C185	C	0.905577	-1.014239	-0.302224
C186	C	1.155577	-0.764239	-0.052224
C187	C	1.405577	-0.514239	0.197776
C188	C	1.655577	-0.264239	0.447776
C189	C	1.068922	-0.357490	-0.302249
C190	C	1.318922	-0.107490	-0.052249
C191	C	1.568922	0.142510	0.197751
C192	C	1.818922	0.392510	0.447751
C193	C	1.138563	-0.357474	-0.302281
C194	C	1.388563	-0.107474	-0.052281
C195	C	1.638563	0.142526	0.197719
C196	C	1.888563	0.392526	0.447719
C197	C	0.905551	-0.357514	-0.465599
C198	C	1.155551	-0.107514	-0.215599
C199	C	1.405551	0.142486	0.034401
C200	C	1.655551	0.392486	0.284401
C201	C	0.905573	-0.357508	-0.535241
C202	C	1.155573	-0.107508	-0.285241
C203	C	1.405573	0.142492	-0.035241
C204	C	1.655573	0.392492	0.214759
C205	C	0.905564	-0.163823	-0.302215
C206	C	1.155564	0.086177	-0.052215
C207	C	1.405564	0.336177	0.197785
C208	C	1.655564	0.586177	0.447785
C209	C	0.905592	-0.081278	-0.302231
C210	C	1.155592	0.168722	-0.052231
C211	C	1.405592	0.418722	0.197769
C212	C	1.655592	0.668722	0.447769
C213	C	0.945661	-0.309997	-0.567982
C214	C	1.195661	-0.059997	-0.317982
C215	C	1.445661	0.190003	-0.067982
C216	C	1.695661	0.440003	0.182018
C217	C	0.945660	-0.309965	-0.633418
C218	C	1.195660	-0.059965	-0.383418
C219	C	1.445660	0.190035	-0.133418
C220	C	1.695660	0.440035	0.116582
C221	C	0.905578	-0.357457	-0.666109
C222	C	1.155578	-0.107457	-0.416109
C223	C	1.405578	0.142543	-0.166109
C224	C	1.655578	0.392543	0.083891
C225	C	0.865482	-0.404971	-0.633359
C226	C	1.115482	-0.154971	-0.383359
C227	C	1.365482	0.095029	-0.133359
C228	C	1.615482	0.345029	0.116641
C229	C	0.865480	-0.404996	-0.567925
C230	C	1.115480	-0.154996	-0.317925
C231	C	1.365480	0.095004	-0.067925
C232	C	1.615480	0.345004	0.182075
C233	C	0.900614	-0.424328	-0.769773
C234	C	1.150614	-0.174328	-0.519773
C235	C	1.400614	0.075672	-0.269773
C236	C	1.650614	0.325672	-0.019773
C237	C	0.900621	-0.424304	-0.835206
C238	C	1.150621	-0.174304	-0.585206
C239	C	1.400621	0.075696	-0.335206
C240	C	1.650621	0.325696	-0.085206
C241	C	0.905582	-0.357379	-0.867930
C242	C	1.155582	-0.107379	-0.617930
C243	C	1.405582	0.142621	-0.367930
C244	C	1.655582	0.392621	-0.117930
C245	C	0.910549	-0.290475	-0.835212
C246	C	1.160549	-0.040475	-0.585212
C247	C	1.410549	0.209525	-0.335212
C248	C	1.660549	0.459525	-0.085212
C249	C	0.910547	-0.290501	-0.769778
C250	C	1.160547	-0.040501	-0.519778
C251	C	1.410547	0.209499	-0.269778
C252	C	1.660547	0.459499	-0.019778
C253	C	0.905576	-0.357434	-0.737061
C254	C	1.155576	-0.107434	-0.487061
C255	C	1.405576	0.142566	-0.237061
C256	C	1.655576	0.392566	0.012939
C257	C	0.945671	-0.309829	-0.971624
C258	C	1.195671	-0.059829	-0.721624
C259	C	1.445671	0.190171	-0.471624
C260	C	1.695671	0.440171	-0.221624
C261	C	0.945665	-0.309796	-1.037061
C262	C	1.195665	-0.059796	-0.787061
C263	C	1.445665	0.190204	-0.537061
C264	C	1.695665	0.440204	-0.287061
C265	C	0.865491	-0.404808	-1.037001
C266	C	1.115491	-0.154808	-0.787001
C267	C	1.365491	0.095192	-0.537001
C268	C	1.615491	0.345192	-0.287001
C269	C	0.865493	-0.404835	-0.971566
C270	C	1.115493	-0.154835	-0.721566
C271	C	1.365493	0.095165	-0.471566
C272	C	1.615493	0.345165	-0.221566
C273	C	0.905586	-0.357346	-0.938881
C274	C	1.155586	-0.107346	-0.688881
C275	C	1.405586	0.142654	-0.438881
C276	C	1.655586	0.392654	-0.188881
C277	C	0.905483	-0.357490	-0.139388
C278	C	1.155483	-0.107490	0.110612
C279	C	1.405483	0.142510	0.360612
C280	C	1.655483	0.392510	0.610612
C281	C	0.905582	-0.357288	-0.069747
C282	C	1.155582	-0.107288	0.180253
C283	C	1.405582	0.142712	0.430253
C284	C	1.655582	0.392712	0.680253
H285	H	0.548305	-0.443870	-0.374697
H286	H	0.798305	-0.193870	-0.124697
H287	H	1.048305	0.056130	0.125303
H288	H	1.298305	0.306130	0.375303
Br289	Br	0.126852	-0.245346	-0.208004
Br290	Br	0.376852	0.004654	0.041996
Br291	Br	0.626852	0.254654	0.291996
Br292	Br	0.876852	0.504654	0.541996
Br293	Br	0.942482	-0.796338	-0.440015
Br294	Br	1.192482	-0.546338	-0.190015
Br295	Br	1.442482	-0.296338	0.059985
Br296	Br	1.692482	-0.046338	0.309985
H297	H	0.832833	-0.443684	-0.541267
H298	H	1.082833	-0.193684	-0.291267
H299	H	1.332833	0.056316	-0.041267
H300	H	1.582833	0.306316	0.208733
H301	H	0.263376	-0.443807	-0.374799
H302	H	0.513376	-0.193807	-0.124799
H303	H	0.763376	0.056193	0.125201
H304	H	1.013376	0.306193	0.375201
Br305	Br	0.804659	-0.917761	-0.403036
Br306	Br	1.054659	-0.667761	-0.153036
Br307	Br	1.304659	-0.417761	0.096964
Br308	Br	1.554659	-0.167761	0.346964
H309	H	0.896406	-0.478812	-0.743135
H310	H	1.146406	-0.228812	-0.493135
H311	H	1.396406	0.021188	-0.243135
H312	H	1.646406	0.271188	0.006865
Br313	Br	1.000079	-0.245380	-0.927262
Br314	Br	1.250079	0.004620	-0.677262
Br315	Br	1.500079	0.254620	-0.427262
Br316	Br	1.750079	0.504620	-0.177262
H317	H	0.800073	-0.810862	-0.273781
H318	H	1.050073	-0.560862	-0.023781
H319	H	1.300073	-0.310862	0.226219
H320	H	1.550073	-0.060862	0.476219
H321	H	0.877367	-0.903637	-0.196673
H322	H	1.127367	-0.653637	0.053327
H323	H	1.377367	-0.403637	0.303327
H324	H	1.627367	-0.153637	0.553327
H325	H	0.465064	-0.346749	-0.199752
H326	H	0.715064	-0.096749	0.050248
H327	H	0.965064	0.153251	0.300248
H328	H	1.215064	0.403251	0.550248
Br329	Br	1.000070	-0.245546	-0.523627
Br330	Br	1.250070	0.004454	-0.273627
Br331	Br	1.500070	0.254454	-0.023627
Br332	Br	1.750070	0.504454	0.226373
Br333	Br	0.811086	-0.469319	-0.927127
Br334	Br	1.061086	-0.219319	-0.677127
Br335	Br	1.311086	0.030681	-0.427127
Br336	Br	1.561086	0.280681	-0.177127
Br337	Br	0.811085	-0.469254	-1.081361
Br338	Br	1.061085	-0.219254	-0.831361
Br339	Br	1.311085	0.030746	-0.581361
Br340	Br	1.561085	0.280746	-0.331361
Br341	Br	0.483079	-0.371605	-0.435196
Br342	Br	0.733079	-0.121605	-0.185196
Br343	Br	0.983079	0.128395	0.064804
Br344	Br	1.233079	0.378395	0.314804
Br345	Br	0.328564	-0.343485	-0.169161
Br346	Br	0.578564	-0.093485	0.080839
Br347	Br	0.828564	0.156515	0.330839
Br348	Br	1.078564	0.406515	0.580839
Br349	Br	0.530488	-0.245443	-0.207861
Br350	Br	0.780488	0.004557	0.042139
Br351	Br	1.030488	0.254557	0.292139
Br352	Br	1.280488	0.504557	0.542139
H353	H	0.978303	-0.271272	-0.660081
H354	H	1.228303	-0.021272	-0.410081
H355	H	1.478303	0.228728	-0.160081
H356	H	1.728303	0.478728	0.089919
H357	H	0.667012	-0.443905	-0.374650
H358	H	0.917012	-0.193905	-0.124650
H359	H	1.167012	0.056095	0.125350
H360	H	1.417012	0.306095	0.375350
H361	H	0.914590	-0.236026	-0.743142
H362	H	1.164590	0.013974	-0.493142
H363	H	1.414590	0.263974	-0.243142
H364	H	1.664590	0.513974	0.006858
H365	H	0.982849	-0.810757	-0.225076
H366	H	1.232849	-0.560757	0.024924
H367	H	1.482849	-0.310757	0.274924
H368	H	1.732849	-0.060757	0.524924
H369	H	0.144669	-0.443770	-0.374847
H370	H	0.394669	-0.193770	-0.124847
H371	H	0.644669	0.056230	0.125153
H372	H	0.894669	0.306230	0.375153
H373	H	0.666968	-0.271291	-0.229527
H374	H	0.916968	-0.021291	0.020473
H375	H	1.166968	0.228709	0.270473
H376	H	1.416968	0.478709	0.520473
Br377	Br	0.917288	-0.199642	-0.879614
Br378	Br	1.167288	0.050358	-0.629614
Br379	Br	1.417288	0.300358	-0.379614
Br380	Br	1.667288	0.550358	-0.129614
H381	H	0.896580	-0.478780	-0.861840
H382	H	1.146580	-0.228780	-0.611840
H383	H	1.396580	0.021220	-0.361840
H384	H	1.646580	0.271220	-0.111840
Br385	Br	1.043280	-0.917836	-0.339283
Br386	Br	1.293280	-0.667836	-0.089283
Br387	Br	1.543280	-0.417836	0.160717
Br388	Br	1.793280	-0.167836	0.410717
H389	H	0.978309	-0.271103	-1.063718
H390	H	1.228309	-0.021103	-0.813718
H391	H	1.478309	0.228897	-0.563718
H392	H	1.728309	0.478897	-0.313718
Br393	Br	0.811081	-0.469420	-0.677724
Br394	Br	1.061081	-0.219420	-0.427724
Br395	Br	1.311081	0.030580	-0.177724
Br396	Br	1.561081	0.280580	0.072276
H397	H	0.346568	-0.368332	-0.404604
H398	H	0.596568	-0.118332	-0.154604
H399	H	0.846568	0.131668	0.095396
H400	H	1.096568	0.381668	0.345396
Br401	Br	0.281085	-0.245384	-0.207950
Br402	Br	0.531085	0.004616	0.042050
Br403	Br	0.781085	0.254616	0.292050
Br404	Br	1.031085	0.504616	0.542050
