data_functionalizedCrystal
_audit_creation_method	'MofGen! by Chris Wilmer'
_symmetry_space_group_name_H-M	'P1'
_symmetry_Int_Tables_number	1
_symmetry_cell_setting	triclinic
loop_
_symmetry_equiv_pos_as_xyz
  x,y,z
_cell_length_a	12.759401
_cell_length_b	19.805405
_cell_length_c	12.759393
_cell_angle_alpha	90.034941
_cell_angle_beta	90.018496
_cell_angle_gamma	90.026887
loop_
_atom_site_label
_atom_site_type_symbol
_atom_site_fract_x
_atom_site_fract_y
_atom_site_fract_z
Zn1	Zn	1.606168	-0.269420	0.593957
Zn2	Zn	1.606025	-0.382625	0.418266
Zn3	Zn	1.430470	-0.269456	0.418296
Zn4	Zn	1.430421	-0.382573	0.593908
O5	O	1.518271	-0.326019	0.506107
O6	O	1.753170	-0.284444	0.570659
O7	O	1.582698	-0.367650	0.271249
O8	O	1.453856	-0.174735	0.441631
O9	O	1.753065	-0.367615	0.441580
O10	O	1.582941	-0.174708	0.570688
O11	O	1.453718	-0.284505	0.271271
O12	O	1.283442	-0.284454	0.441583
O13	O	1.453774	-0.367526	0.740936
O14	O	1.283407	-0.367561	0.570605
O15	O	1.582894	-0.284394	0.740971
O16	O	1.582651	-0.477335	0.441533
O17	O	1.453636	-0.477297	0.570576
C18	C	1.245304	-0.326006	0.506093
C19	C	1.128527	-0.326017	0.506111
C20	C	1.073674	-0.369360	0.573182
C21	C	0.963950	-0.369369	0.573193
C22	C	0.963941	-0.282689	0.439055
C23	C	1.073663	-0.282678	0.439050
C24	C	1.073678	-0.419406	0.650622
C25	C	0.963954	-0.419414	0.650633
C26	C	1.518151	-0.501875	0.506069
C27	C	1.518196	-0.577107	0.506088
C28	C	1.585371	-0.612379	0.573340
C29	C	1.585409	-0.683067	0.573360
C30	C	1.518276	-0.718482	0.506121
C31	C	1.451094	-0.683205	0.438865
C32	C	1.451052	-0.612518	0.438851
C33	C	1.451263	-0.968278	0.438919
C34	C	1.451313	-1.038970	0.438935
C35	C	1.585620	-1.038828	0.573427
C36	C	1.585577	-0.968141	0.573414
C37	C	1.518392	-0.932870	0.506162
C38	C	1.518350	-0.856221	0.506143
C39	C	1.518323	-0.795129	0.506134
C40	C	1.792304	-0.326032	0.506122
C41	C	1.909081	-0.326037	0.506128
C42	C	1.518344	-0.325950	0.780140
C43	C	1.518376	-0.325921	0.896917
C44	C	1.518420	-0.149476	0.506168
C45	C	1.518483	-0.074244	0.506194
C46	C	1.518258	-0.326038	0.233139
C47	C	1.518430	-0.325876	0.116363
C48	C	1.585618	-0.282630	0.951799
C49	C	1.585643	-0.282605	1.061524
C50	C	1.451181	-0.369170	1.061473
C51	C	1.451151	-0.369190	0.951751
C52	C	1.663252	-0.232655	0.951829
C53	C	1.663277	-0.232630	1.061553
H54	H	1.107676	-0.469175	0.621333
C55	C	0.918027	-0.394128	0.755127
N56	N	0.883434	-0.375077	0.833827
C57	C	1.133998	-0.234992	0.365276
N58	N	1.179442	-0.199072	0.309707
C59	C	1.767644	-0.258022	0.905841
N60	N	1.846275	-0.277125	0.871202
H61	H	1.396393	-0.404440	0.907070
C62	C	0.923673	-0.490213	0.620989
N63	N	0.893335	-0.543535	0.598660
C64	C	1.659518	-1.077632	0.647414
N65	N	1.715177	-1.106859	0.703138
H66	H	1.640042	-0.583549	0.628090
H67	H	0.919258	-0.247404	0.384456
C68	C	1.659320	-0.721864	0.647329
N69	N	1.714998	-0.751085	0.703042
C70	C	1.113959	-0.400537	0.760605
N71	N	1.144298	-0.386331	0.843445
H72	H	1.640246	-0.939308	0.628162
H73	H	1.641500	-0.180237	0.922078
H74	H	1.396447	-0.404396	1.106132
C75	C	1.377333	-0.929489	0.364964
N76	N	1.321636	-0.900271	0.309267
H77	H	1.396641	-1.067803	0.384179
C78	C	1.377312	-0.722164	0.364837
N79	N	1.321764	-0.751507	0.309052
H80	H	1.396350	-0.583800	0.384089
H81	H	1.634179	-0.182825	1.095606
C82	C	1.773193	-0.251604	1.101786
N83	N	1.855978	-0.265896	1.132088
