data_functionalizedCrystal
_audit_creation_method	'MofGen! by Chris Wilmer'
_symmetry_space_group_name_H-M	'P1'
_symmetry_Int_Tables_number	1
_symmetry_cell_setting	triclinic
loop_
_symmetry_equiv_pos_as_xyz
  x,y,z
_cell_length_a	14.044220
_cell_length_b	15.995350
_cell_length_c	13.101039
_cell_angle_alpha	93.364563
_cell_angle_beta	86.340132
_cell_angle_gamma	88.340626
loop_
_atom_site_label
_atom_site_type_symbol
_atom_site_fract_x
_atom_site_fract_y
_atom_site_fract_z
O1	O	1.262914	0.197637	-0.085096
O2	O	1.762914	0.697637	0.414904
O3	O	0.986946	0.190352	-0.085122
O4	O	1.486946	0.690352	0.414878
O5	O	1.132474	0.072670	-0.085107
O6	O	1.632474	0.572670	0.414893
O7	O	1.117386	0.315319	-0.085111
O8	O	1.617386	0.815319	0.414889
O9	O	1.122032	0.081129	0.085321
O10	O	1.622032	0.581129	0.585321
O11	O	0.976505	0.198810	0.085307
O12	O	1.476505	0.698810	0.585307
O13	O	1.252472	0.206096	0.085333
O14	O	1.752472	0.706096	0.585333
Zn15	Zn	1.112831	0.203796	0.112379
Zn16	Zn	1.612831	0.703796	0.612379
Zn17	Zn	1.126588	0.192651	-0.112168
Zn18	Zn	1.626588	0.692651	0.387832
O19	O	1.106945	0.323777	0.085318
O20	O	1.606945	0.823777	0.585318
C21	C	0.946411	0.191392	0.000089
C22	C	1.446411	0.691392	0.500089
C23	C	0.841186	0.181881	0.000079
C24	C	1.341186	0.681881	0.500079
C25	C	0.648524	0.164494	0.000099
C26	C	1.148524	0.664494	0.500099
C27	C	0.590890	0.231950	0.000102
C28	C	1.090890	0.731950	0.500102
C29	C	0.483686	0.222275	0.000114
C30	C	0.983686	0.722275	0.500114
C31	C	0.755738	0.174167	0.000088
C32	C	1.255738	0.674167	0.500088
C33	C	1.126629	0.045658	0.000105
C34	C	1.626629	0.545658	0.500105
C35	C	1.124760	-0.047432	0.000099
C36	C	1.624760	0.452568	0.500099
C37	C	1.118044	-0.385681	0.000102
C38	C	1.618044	0.114319	0.500102
C39	C	1.014425	-0.346007	-0.000290
C40	C	1.514425	0.153993	0.499710
C41	C	1.016272	-0.249158	0.000094
C42	C	1.516272	0.250842	0.500094
C43	C	1.121375	-0.217872	0.000100
C44	C	1.621375	0.282128	0.500100
C45	C	1.166533	-0.250301	0.097426
C46	C	1.666533	0.249699	0.597426
C47	C	1.163924	-0.347127	0.097507
C48	C	1.663924	0.152873	0.597507
C49	C	1.177939	-0.356944	-0.096302
C50	C	1.677939	0.143056	0.403698
C51	C	1.177993	-0.260065	-0.097588
C52	C	1.677993	0.239935	0.402412
C53	C	1.123263	-0.123033	0.000102
C54	C	1.623263	0.376967	0.500102
C55	C	1.116159	-0.480519	0.000106
C56	C	1.616159	0.019481	0.500106
C57	C	1.293008	0.205055	0.000120
C58	C	1.793008	0.705055	0.500120
C59	C	1.398233	0.214566	0.000123
C60	C	1.898233	0.714566	0.500123
C61	C	1.112789	0.350789	0.000103
C62	C	1.612789	0.850789	0.500103
C63	C	1.114659	0.443879	0.000103
C64	C	1.614659	0.943879	0.500103
N65	N	1.103449	0.211402	0.265626
N66	N	1.603449	0.711402	0.765626
N67	N	1.135977	0.185039	-0.265416
N68	N	1.635977	0.685039	0.234584
C69	C	1.090685	0.221758	0.474668
C70	C	1.590685	0.721758	0.974668
C71	C	1.148739	0.174686	0.525549
C72	C	1.648739	0.674686	1.025549
C73	C	1.141636	0.180448	0.641867
C74	C	1.641636	0.680448	1.141867
C75	C	1.097786	0.215997	0.358340
C76	C	1.597786	0.715997	0.858340
H77	H	0.980363	-0.227200	-0.069674
H78	H	1.480363	0.272800	0.430326
N79	N	1.217815	0.118710	0.470650
N80	N	1.717815	0.618710	0.970650
N81	N	1.215699	0.041803	0.482534
N82	N	1.715699	0.541803	0.982534
H83	H	1.264495	0.002278	0.443766
H84	H	1.764495	0.502278	0.943766
H85	H	1.035653	0.266383	0.518459
H86	H	1.535653	0.766383	1.018459
H87	H	0.622062	0.296967	0.000097
H88	H	1.122062	0.796967	0.500097
H89	H	0.977276	-0.371097	-0.070085
H90	H	1.477276	0.128903	0.429915
N91	N	0.609427	0.082935	0.000118
N92	N	1.109427	0.582935	0.500118
N93	N	0.552346	0.064756	0.071963
N94	N	1.052346	0.564756	0.571963
H95	H	0.524724	0.007155	0.071975
H96	H	1.024724	0.507155	0.571975
N97	N	0.957361	-0.370137	0.086769
N98	N	1.457361	0.129863	0.586769
N99	N	0.992673	-0.416425	0.149103
N100	N	1.492673	0.083575	0.649103
H101	H	0.952374	-0.433468	0.210591
H102	H	1.452374	0.066532	0.710591
H103	H	1.145029	-0.239181	-0.169587
H104	H	1.645029	0.260819	0.330413
H105	H	0.971537	-0.220847	0.069973
H106	H	1.471537	0.279153	0.569973
N107	N	1.111568	-0.369042	0.188772
N108	N	1.611568	0.130958	0.688772
N109	N	1.077204	-0.312858	0.251961
N110	N	1.577204	0.187142	0.751961
H111	H	1.040225	-0.328330	0.316419
H112	H	1.540225	0.171670	0.816419
N113	N	1.259042	-0.380169	0.103066
N114	N	1.759042	0.119831	0.603066
N115	N	1.327137	-0.331709	0.106880
N116	N	1.827137	0.168291	0.606880
H117	H	1.394313	-0.355040	0.110814
H118	H	1.894313	0.144960	0.610814
H119	H	1.243527	-0.230228	0.101050
H120	H	1.743527	0.269772	0.601050
H121	H	1.254999	-0.239269	-0.103460
H122	H	1.754999	0.260731	0.396540
N123	N	1.116420	-0.213512	0.188274
N124	N	1.616420	0.286488	0.688274
N125	N	1.047444	-0.163408	0.181594
N126	N	1.547444	0.336592	0.681594
H127	H	1.012045	-0.137427	0.245753
H128	H	1.512045	0.362573	0.745753
N129	N	1.141099	-0.390491	-0.188836
N130	N	1.641099	0.109509	0.311164
N131	N	1.070244	-0.435992	-0.184852
N132	N	1.570244	0.064008	0.315148
H133	H	1.044218	-0.459687	-0.250199
H134	H	1.544218	0.040313	0.249801
H135	H	1.254394	-0.383030	-0.096952
H136	H	1.754394	0.116970	0.403048
