data_functionalizedCrystal
_audit_creation_method	'MofGen! by Chris Wilmer'
_symmetry_space_group_name_H-M	'P1'
_symmetry_Int_Tables_number	1
_symmetry_cell_setting	triclinic
loop_
_symmetry_equiv_pos_as_xyz
  x,y,z
_cell_length_a	12.759401
_cell_length_b	12.759399
_cell_length_c	18.215399
_cell_angle_alpha	89.976610
_cell_angle_beta	89.982063
_cell_angle_gamma	90.015037
loop_
_atom_site_label
_atom_site_type_symbol
_atom_site_fract_x
_atom_site_fract_y
_atom_site_fract_z
Zn1	Zn	1.606227	-0.418297	-0.416102
Zn2	Zn	2.106227	0.081703	0.083898
Zn3	Zn	1.606124	-0.593994	-0.293045
Zn4	Zn	2.106124	-0.093994	0.206955
Zn5	Zn	1.430535	-0.418328	-0.293053
Zn6	Zn	1.930535	0.081672	0.206947
Zn7	Zn	1.430514	-0.593932	-0.416074
Zn8	Zn	1.930514	-0.093932	0.083926
O9	O	1.518350	-0.506138	-0.354569
O10	O	2.018350	-0.006138	0.145431
O11	O	1.753234	-0.441617	-0.399786
O12	O	2.253234	0.058383	0.100214
O13	O	1.582798	-0.570731	-0.190062
O14	O	2.082798	-0.070731	0.309938
O15	O	1.453893	-0.271303	-0.309391
O16	O	1.953893	0.228697	0.190609
O17	O	1.753159	-0.570701	-0.309377
O18	O	2.253159	-0.070701	0.190623
O19	O	1.582973	-0.271280	-0.399794
O20	O	2.082973	0.228720	0.100206
O21	O	1.453793	-0.441669	-0.190068
O22	O	1.953793	0.058331	0.309932
O23	O	1.283511	-0.441609	-0.309364
O24	O	1.783511	0.058391	0.190636
O25	O	1.453857	-0.570595	-0.519062
O26	O	1.953857	-0.070595	-0.019062
O27	O	1.283496	-0.570625	-0.399747
O28	O	1.783496	-0.070625	0.100253
O29	O	1.582953	-0.441557	-0.519083
O30	O	2.082953	0.058443	-0.019083
O31	O	1.582778	-0.741007	-0.309351
O32	O	2.082778	-0.241007	0.190649
O33	O	1.453758	-0.740962	-0.399740
O34	O	1.953758	-0.240962	0.100260
C35	C	1.245383	-0.506114	-0.354554
C36	C	1.745383	-0.006114	0.145446
C37	C	1.128606	-0.506130	-0.354565
C38	C	1.628606	-0.006130	0.145435
C39	C	1.518283	-0.779105	-0.354557
C40	C	2.018283	-0.279105	0.145443
C41	C	1.518350	-0.895882	-0.354577
C42	C	2.018350	-0.395882	0.145423
C43	C	0.963990	-0.438887	-0.307600
C44	C	1.463990	0.061113	0.192400
C45	C	1.073714	-0.438863	-0.307589
C46	C	1.573714	0.061137	0.192411
C47	C	1.073768	-0.573418	-0.401561
C48	C	1.573768	-0.073418	0.098439
C49	C	0.964046	-0.573436	-0.401575
C50	C	1.464046	-0.073436	0.098425
C51	C	1.223658	-0.314883	-0.281423
C52	C	1.723658	0.185117	0.218577
C53	C	1.278491	-0.247607	-0.234421
C54	C	1.778491	0.252393	0.265579
C55	C	1.242831	-0.231350	-0.162636
C56	C	1.742831	0.268650	0.337364
C57	C	1.152338	-0.282383	-0.137840
C58	C	1.652338	0.217617	0.362160
C59	C	1.097510	-0.349667	-0.184838
C60	C	1.597510	0.150333	0.315162
C61	C	1.133169	-0.365905	-0.256633
C62	C	1.633169	0.134095	0.243367
C63	C	0.814101	-0.697417	-0.427733
C64	C	1.314101	-0.197417	0.072267
C65	C	0.759271	-0.764707	-0.474728
C66	C	1.259271	-0.264707	0.025272
C67	C	0.794929	-0.780975	-0.546514
C68	C	1.294929	-0.280975	-0.046514
C69	C	0.885425	-0.729960	-0.571308
C70	C	1.385425	-0.229960	-0.071308
C71	C	0.940256	-0.662670	-0.524313
C72	C	1.440256	-0.162670	-0.024313
C73	C	0.904590	-0.646400	-0.452528
C74	C	1.404590	-0.146400	0.047472
C75	C	1.451159	-0.950758	-0.401608
C76	C	1.951159	-0.450758	0.098392
C77	C	1.451225	-1.060482	-0.401622
C78	C	1.951225	-0.560482	0.098378
C79	C	1.585681	-1.060444	-0.307572
C80	C	2.085681	-0.560444	0.192428
C81	C	1.585609	-0.950722	-0.307555
C82	C	2.085609	-0.450722	0.192445
C83	C	1.327397	-1.210522	-0.427864
C84	C	1.827397	-0.710522	0.072136
C85	C	1.260215	-1.265402	-0.474907
C86	C	1.760215	-0.765402	0.025093
C87	C	1.244004	-1.229742	-0.546700
C88	C	1.744004	-0.729742	-0.046700
C89	C	1.294989	-1.139203	-0.571465
C90	C	1.794989	-0.639203	-0.071465
C91	C	1.362178	-1.084328	-0.524426
C92	C	1.862178	-0.584328	-0.024426
C93	C	1.378370	-1.119987	-0.452623
C94	C	1.878370	-0.619987	0.047377
C95	C	1.709439	-0.800680	-0.281320
C96	C	2.209439	-0.300680	0.218680
C97	C	1.776635	-0.745803	-0.234285
C98	C	2.276635	-0.245803	0.265715
C99	C	1.792857	-0.781462	-0.162490
C100	C	2.292857	-0.281462	0.337510
C101	C	1.741890	-0.872004	-0.137728
C102	C	2.241890	-0.372004	0.362272
C103	C	1.674695	-0.926881	-0.184764
C104	C	2.174695	-0.426881	0.315236
C105	C	1.658471	-0.891215	-0.256557
C106	C	2.158471	-0.391215	0.243443
C107	C	1.792383	-0.506162	-0.354584
C108	C	2.292383	-0.006162	0.145416
C109	C	1.909160	-0.506173	-0.354591
C110	C	2.409160	-0.006173	0.145409
C111	C	1.518414	-0.506065	-0.546522
C112	C	2.018414	-0.006065	-0.046522
C113	C	1.518441	-0.506035	-0.628321
C114	C	2.018441	-0.006035	-0.128321
C115	C	1.518447	-0.232105	-0.354596
C116	C	2.018447	0.267895	0.145404
C117	C	1.518488	-0.115328	-0.354608
C118	C	2.018488	0.384672	0.145392
C119	C	1.585686	-0.438781	-0.816526
C120	C	2.085686	0.061219	-0.316526
C121	C	1.585698	-0.438751	-0.893385
C122	C	2.085698	0.061249	-0.393385
C123	C	1.451272	-0.573125	-0.893353
C124	C	1.951272	-0.073125	-0.393353
C125	C	1.451255	-0.573150	-0.816496
C126	C	1.951255	-0.073150	-0.316496
C127	C	1.518468	-0.505979	-0.778084
C128	C	2.018468	-0.005979	-0.278084
C129	C	1.518497	-0.505924	-0.931801
C130	C	2.018497	-0.005924	-0.431801
C131	C	1.518510	-0.505892	-1.015134
C132	C	2.018510	-0.005892	-0.515134
C133	C	1.518453	-0.506010	-0.694745
C134	C	2.018453	-0.006010	-0.194745
C135	C	1.518347	-0.506134	-0.163363
C136	C	2.018347	-0.006134	0.336637
C137	C	1.518523	-0.505869	-0.081564
C138	C	2.018523	-0.005869	0.418436
H139	H	0.919305	-0.384112	-0.269345
H140	H	1.419305	0.115888	0.230655
Cl141	Cl	1.107523	-0.261955	-0.047586
Cl142	Cl	1.607523	0.238045	0.452414
Cl143	Cl	1.159549	-1.298738	-0.605838
Cl144	Cl	1.659549	-0.798738	-0.105838
Cl145	Cl	1.196118	-1.379215	-0.443773
Cl146	Cl	1.696118	-0.879215	0.056227
Cl147	Cl	1.366739	-0.657628	-0.768165
Cl148	Cl	1.866739	-0.157628	-0.268165
Cl149	Cl	1.366786	-0.657569	-0.941647
Cl150	Cl	1.866786	-0.157569	-0.441647
H151	H	1.023834	-0.391219	-0.164648
H152	H	1.523834	0.108781	0.335352
Cl153	Cl	1.610625	-1.040712	-0.153635
Cl154	Cl	2.110625	-0.540712	0.346365
Cl155	Cl	1.762288	-0.916842	-0.047471
Cl156	Cl	2.262288	-0.416842	0.452529
H157	H	1.287484	-0.176571	-0.124367
H158	H	1.787484	0.323429	0.375633
Cl159	Cl	1.670214	-0.354278	-0.941709
Cl160	Cl	2.170214	0.145722	-0.441709
H161	H	1.340578	-1.239558	-0.369402
H162	H	1.840578	-0.739558	0.130598
H163	H	1.352171	-0.206056	-0.254617
H164	H	1.852171	0.293944	0.245383
Cl165	Cl	1.670240	-1.129393	-0.248468
Cl166	Cl	2.170240	-0.629393	0.251532
H167	H	1.252695	-0.328105	-0.339878
H168	H	1.752695	0.171895	0.160122
Cl169	Cl	0.930262	-0.750415	-0.661555
Cl170	Cl	1.430262	-0.250415	-0.161555
Cl171	Cl	1.142776	-0.657987	-0.460614
Cl172	Cl	1.642776	-0.157987	0.039386
H173	H	1.013943	-0.621131	-0.544507
H174	H	1.513943	-0.121131	-0.044507
Cl175	Cl	1.840716	-0.631981	-0.265417
Cl176	Cl	2.340716	-0.131981	0.234583
Cl177	Cl	0.645517	-0.828862	-0.443551
Cl178	Cl	1.145517	-0.328862	0.056449
Cl179	Cl	0.726002	-0.865578	-0.605592
Cl180	Cl	1.226002	-0.365578	-0.105592
Cl181	Cl	0.769266	-0.676968	-0.337484
Cl182	Cl	1.269266	-0.176968	0.162516
Cl183	Cl	1.689031	-0.755832	-0.371575
Cl184	Cl	2.189031	-0.255832	0.128425
Cl185	Cl	1.366601	-0.881820	-0.460719
Cl186	Cl	1.866601	-0.381820	0.039281
Cl187	Cl	1.274620	-1.094388	-0.661729
Cl188	Cl	1.774620	-0.594388	-0.161729
Cl189	Cl	1.426271	-0.970515	-0.555552
Cl190	Cl	1.926271	-0.470515	-0.055552
H191	H	1.847576	-0.736772	-0.124195
H192	H	2.347576	-0.236772	0.375805
H193	H	1.640412	-0.384084	-0.785254
H194	H	2.140412	0.115916	-0.285254
