data_functionalizedCrystal
_audit_creation_method	'MofGen! by Chris Wilmer'
_symmetry_space_group_name_H-M	'P1'
_symmetry_Int_Tables_number	1
_symmetry_cell_setting	triclinic
loop_
_symmetry_equiv_pos_as_xyz
  x,y,z
_cell_length_a	18.050591
_cell_length_b	18.050589
_cell_length_c	16.120297
_cell_angle_alpha	87.124470
_cell_angle_beta	92.873600
_cell_angle_gamma	89.968854
loop_
_atom_site_label
_atom_site_type_symbol
_atom_site_fract_x
_atom_site_fract_y
_atom_site_fract_z
Zn1	Zn	1.113992	0.317045	-0.471516
Zn2	Zn	1.447325	0.650379	-0.138182
Zn3	Zn	1.780659	0.983712	0.195151
Zn4	Zn	1.120176	0.434941	-0.332115
Zn5	Zn	1.453510	0.768274	0.001219
Zn6	Zn	1.786843	1.101607	0.334552
Zn7	Zn	0.996099	0.310761	-0.332108
Zn8	Zn	1.329432	0.644094	0.001226
Zn9	Zn	1.662766	0.977428	0.334559
Zn10	Zn	0.989747	0.441188	-0.471468
Zn11	Zn	1.323081	0.774521	-0.138135
Zn12	Zn	1.656414	1.107855	0.195198
O13	O	1.055004	0.375984	-0.401802
O14	O	1.388337	0.709317	-0.068468
O15	O	1.721670	1.042650	0.264865
O16	O	1.218736	0.332700	-0.453046
O17	O	1.552069	0.666033	-0.119713
O18	O	1.885403	0.999366	0.213620
O19	O	1.108963	0.413223	-0.215451
O20	O	1.442297	0.746557	0.117882
O21	O	1.775630	1.079890	0.451216
O22	O	1.011808	0.207671	-0.350617
O23	O	1.345141	0.541004	-0.017284
O24	O	1.678475	0.874337	0.316049
O25	O	1.223279	0.419317	-0.350629
O26	O	1.556613	0.752650	-0.017296
O27	O	1.889946	1.085984	0.316038
O28	O	1.098423	0.212288	-0.453040
O29	O	1.431757	0.545621	-0.119706
O30	O	1.765090	0.878954	0.213627
O31	O	1.017804	0.321989	-0.215446
O32	O	1.351138	0.655323	0.117888
O33	O	1.684471	0.988656	0.451221
O34	O	0.891333	0.328047	-0.350571
O35	O	1.224666	0.661380	-0.017238
O36	O	1.558000	0.994714	0.316095
O37	O	1.000982	0.429965	-0.588137
O38	O	1.334316	0.763298	-0.254804
O39	O	1.667649	1.096632	0.078529
O40	O	0.886666	0.423871	-0.452959
O41	O	1.220000	0.757205	-0.119626
O42	O	1.553333	1.090538	0.213708
O43	O	1.092265	0.338758	-0.588172
O44	O	1.425598	0.672091	-0.254839
O45	O	1.758931	1.005424	0.078495
O46	O	1.102804	0.539693	-0.350583
O47	O	1.436138	0.873027	-0.017250
O48	O	1.769471	1.206360	0.316083
O49	O	1.006979	0.544283	-0.452966
O50	O	1.340312	0.877617	-0.119633
O51	O	1.673646	1.210950	0.213701
C52	C	0.862053	0.375956	-0.401760
C53	C	1.195387	0.709289	-0.068426
C54	C	1.528720	1.042622	0.264907
C55	C	0.779508	0.375963	-0.401762
C56	C	1.112841	0.709296	-0.068428
C57	C	1.446174	1.042629	0.264905
C58	C	0.533192	0.323808	-0.346215
C59	C	0.866526	0.657141	-0.012882
C60	C	1.199859	0.990475	0.320452
C61	C	0.579195	0.309159	-0.422297
C62	C	0.912528	0.642492	-0.088964
C63	C	1.245861	0.975825	0.244370
C64	C	0.482384	0.376004	-0.401830
C65	C	0.815717	0.709337	-0.068497
C66	C	1.149051	1.042670	0.264837
C67	C	0.583465	0.390598	-0.325719
C68	C	0.916798	0.723931	0.007614
C69	C	1.250131	1.057264	0.340948
C70	C	0.628371	0.375981	-0.401792
C71	C	0.961704	0.709315	-0.068459
C72	C	1.295038	1.042648	0.264874
C73	C	0.527298	0.361321	-0.477952
C74	C	0.860631	0.694654	-0.144619
C75	C	1.193964	1.027988	0.188714
C76	C	0.531566	0.442789	-0.381323
C77	C	0.864899	0.776123	-0.047990
C78	C	1.198232	1.109456	0.285344
C79	C	0.577543	0.428168	-0.457457
C80	C	0.910877	0.761502	-0.124124
C81	C	1.244210	1.094835	0.209209
C82	C	0.398285	0.376014	-0.401850
C83	C	0.731618	0.709348	-0.068517
C84	C	1.064952	1.042681	0.264816
C85	C	0.712468	0.375971	-0.401780
C86	C	1.045801	0.709304	-0.068447
C87	C	1.379135	1.042638	0.264886
C88	C	1.054893	0.568935	-0.401788
C89	C	1.388226	0.902269	-0.068455
C90	C	1.721560	1.235602	0.264878
C91	C	1.054912	0.651482	-0.401811
C92	C	1.388245	0.984815	-0.068477
C93	C	1.721579	1.318149	0.264856
C94	C	1.002829	0.853455	-0.457468
C95	C	1.336163	1.186788	-0.124134
C96	C	1.669496	1.520122	0.209199
C97	C	0.988157	0.899456	-0.381393
C98	C	1.321490	1.232790	-0.048059
C99	C	1.654824	1.566123	0.285274
C100	C	1.054967	0.802613	-0.401822
C101	C	1.388301	1.135946	-0.068489
C102	C	1.721634	1.469280	0.264845
C103	C	1.069659	0.903694	-0.477907
C104	C	1.402992	1.237027	-0.144573
C105	C	1.736326	1.570360	0.188760
C106	C	1.055019	0.948599	-0.401840
C107	C	1.388353	1.281932	-0.068507
C108	C	1.721686	1.615266	0.264827
C109	C	1.040262	0.847525	-0.325707
C110	C	1.373595	1.180859	0.007627
C111	C	1.706928	1.514192	0.340960
C112	C	1.121793	0.851761	-0.422272
C113	C	1.455126	1.185094	-0.088939
C114	C	1.788459	1.518427	0.244395
C115	C	1.107149	0.897737	-0.346145
C116	C	1.440482	1.231071	-0.012811
C117	C	1.773815	1.564404	0.320522
C118	C	1.054936	0.718514	-0.401813
C119	C	1.388269	1.051848	-0.068480
C120	C	1.721602	1.385181	0.264854
C121	C	1.055051	1.032695	-0.401840
C122	C	1.388385	1.366029	-0.068507
C123	C	1.721718	1.699362	0.264826
C124	C	1.248707	0.376013	-0.401844
C125	C	1.582041	0.709346	-0.068511
C126	C	1.915374	1.042679	0.264823
C127	C	1.331252	0.376025	-0.401862
C128	C	1.664586	0.709358	-0.068529
C129	C	1.997919	1.042691	0.264805
C130	C	1.045225	0.385759	-0.619250
C131	C	1.378558	0.719092	-0.285916
C132	C	1.711892	1.052426	0.047417
C133	C	1.041058	0.389925	-0.711913
C134	C	1.374391	0.723258	-0.378580
C135	C	1.707725	1.056591	-0.045247
C136	C	1.055106	1.182280	-0.401834
C137	C	1.388439	1.515613	-0.068501
C138	C	1.721773	1.848946	0.264833
C139	C	1.055077	1.099735	-0.401850
C140	C	1.388410	1.433068	-0.068517
C141	C	1.721744	1.766401	0.264816
C142	C	1.033423	0.397514	-0.881571
C143	C	1.366756	0.730847	-0.548237
C144	C	1.700090	1.064180	-0.214904
C145	C	1.076731	0.354231	-0.922884
C146	C	1.410064	0.687565	-0.589551
C147	C	1.743398	1.020898	-0.256217
C148	C	1.072483	0.358454	-1.017287
C149	C	1.405816	0.691787	-0.683954
C150	C	1.739149	1.025121	-0.350621
C151	C	1.037670	0.393292	-0.787159
C152	C	1.371004	0.726625	-0.453826
C153	C	1.704337	1.059959	-0.120492
C154	C	1.064787	0.366193	-0.185199
C155	C	1.398120	0.699526	0.148134
C156	C	1.731454	1.032860	0.481468
C157	C	1.069098	0.361818	-0.092536
C158	C	1.402431	0.695151	0.240797
C159	C	1.735765	1.028485	0.574131
H160	H	0.596960	0.472302	-0.504527
H161	H	0.930293	0.805635	-0.171194
H162	H	1.263626	1.138968	0.162139
F163	F	0.945133	0.827926	-0.518889
F164	F	1.278467	1.161260	-0.185556
F165	F	1.611800	1.494593	0.147778
F166	F	1.023962	0.815544	-0.241590
F167	F	1.357295	1.148878	0.091744
F168	F	1.690629	1.482211	0.425077
H169	H	0.502828	0.348902	-0.542321
H170	H	0.836161	0.682235	-0.208988
H171	H	1.169495	1.015568	0.124345
H172	H	0.993159	0.437737	-0.917098
H173	H	1.326492	0.771071	-0.583765
H174	H	1.659826	1.104404	-0.250431
H175	H	1.151265	0.917125	-0.299040
H176	H	1.484598	1.250458	0.034293
H177	H	1.817932	1.583792	0.367626
F178	F	0.914321	0.926877	-0.358786
F179	F	1.247654	1.260210	-0.025452
F180	F	1.580988	1.593544	0.307881
F181	F	1.129377	0.301665	-0.876447
F182	F	1.462710	0.634998	-0.543114
F183	F	1.796044	0.968332	-0.209780
F184	F	1.195607	0.824319	-0.444907
F185	F	1.528941	1.157652	-0.111573
F186	F	1.862274	1.490985	0.221760
F187	F	0.507625	0.266090	-0.284839
F188	F	0.840959	0.599423	0.048495
F189	F	1.174292	0.932757	0.381828
H190	H	0.608025	0.402951	-0.261368
H191	H	0.941359	0.736284	0.071965
H192	H	1.274692	1.069618	0.405298
F193	F	0.504159	0.516601	-0.358636
F194	F	0.837492	0.849934	-0.025302
F195	F	1.170825	1.183268	0.308031
F196	F	0.606572	0.235324	-0.444960
F197	F	0.939906	0.568657	-0.111627
F198	F	1.273239	0.901991	0.221706
H199	H	1.082065	0.928253	-0.542243
H200	H	1.415399	1.261586	-0.208910
H201	H	1.748732	1.594919	0.124423
