data_functionalizedCrystal
_audit_creation_method	'MofGen! by Chris Wilmer'
_symmetry_space_group_name_H-M	'P1'
_symmetry_Int_Tables_number	1
_symmetry_cell_setting	triclinic
loop_
_symmetry_equiv_pos_as_xyz
  x,y,z
_cell_length_a	14.971486
_cell_length_b	16.109304
_cell_length_c	13.448316
_cell_angle_alpha	89.996206
_cell_angle_beta	89.998199
_cell_angle_gamma	83.538383
loop_
_atom_site_label
_atom_site_type_symbol
_atom_site_fract_x
_atom_site_fract_y
_atom_site_fract_z
O1	O	1.186792	0.108348	-0.082571
O2	O	0.926374	0.121323	-0.082597
O3	O	1.063736	-0.006187	-0.082584
O4	O	1.049430	0.235857	-0.082584
O5	O	1.063718	-0.006195	0.082800
O6	O	0.926356	0.121315	0.082786
O7	O	1.186775	0.108340	0.082813
Cu8	Cu	1.056564	0.114827	0.097900
Cu9	Cu	1.056585	0.114836	-0.097685
O10	O	1.049413	0.235849	0.082799
C11	C	0.893041	0.120738	0.000091
C12	C	0.793746	0.119000	0.000081
C13	C	0.736414	0.193908	0.000082
C14	C	0.643117	0.192269	0.000097
C15	C	0.607154	0.115721	0.000103
C16	C	0.664494	0.040807	0.000105
C17	C	0.757789	0.042447	0.000097
C18	C	0.470036	0.037395	0.000119
C19	C	0.376735	0.035755	0.000124
C20	C	0.355364	0.187217	0.000118
C21	C	0.448659	0.188857	0.000111
C22	C	0.505993	0.113942	0.000110
C23	C	1.063147	-0.037166	0.000105
C24	C	1.061408	-0.129464	0.000099
C25	C	1.057401	-0.341802	-0.090049
C26	C	1.055759	-0.428524	-0.090048
C27	C	1.055745	-0.428529	0.090262
C28	C	1.057380	-0.341808	0.090261
C29	C	1.058213	-0.298447	0.000102
C30	C	1.054936	-0.471891	0.000105
C31	C	1.053156	-0.565919	0.000106
C32	C	1.059991	-0.204413	0.000100
C33	C	1.220108	0.108924	0.000122
C34	C	1.319402	0.110663	0.000126
C35	C	1.050002	0.266829	0.000108
C36	C	1.051740	0.359126	0.000108
N37	N	1.056556	0.114820	0.235465
N38	N	1.056599	0.114836	-0.235249
C39	C	1.117399	0.058382	0.287511
C40	C	1.117405	0.058381	0.391614
C41	C	1.056571	0.114823	0.443669
C42	C	0.995722	0.171263	0.391616
C43	C	0.995713	0.171259	0.287514
C44	C	0.995747	0.171269	0.608596
C45	C	0.995757	0.171274	0.712704
C46	C	1.117439	0.058391	0.712696
C47	C	1.117429	0.058387	0.608594
C48	C	1.056581	0.114828	0.556548
H49	H	0.804469	-0.018551	0.000096
H50	H	1.166983	0.012434	0.755078
H51	H	1.058076	-0.306499	-0.163462
Cl52	Cl	0.283288	0.281395	0.000121
Cl53	Cl	1.058391	-0.287300	0.203603
Cl54	Cl	0.493868	0.285090	0.000092
H55	H	0.946219	0.217234	0.755082
H56	H	1.055096	-0.463819	-0.163458
Cl57	Cl	1.193893	-0.012572	0.457046
Cl58	Cl	1.193911	-0.012564	0.543152
H59	H	1.166940	0.012424	0.245135
Cl60	Cl	0.331525	-0.060478	0.000166
H61	H	0.946194	0.217227	0.566223
Cl62	Cl	0.571045	0.286444	0.000092
H63	H	0.946185	0.217217	0.434005
H64	H	0.946167	0.217216	0.245139
H65	H	0.765687	0.256242	0.000076
H66	H	1.055069	-0.463845	0.163666
Cl67	Cl	0.542112	-0.056785	0.000120
H68	H	0.635206	-0.021520	0.000124
