data_functionalizedCrystal
_audit_creation_method	'MofGen! by Chris Wilmer'
_symmetry_space_group_name_H-M	'P1'
_symmetry_Int_Tables_number	1
_symmetry_cell_setting	triclinic
loop_
_symmetry_equiv_pos_as_xyz
  x,y,z
_cell_length_a	10.654550
_cell_length_b	17.699083
_cell_length_c	9.730223
_cell_angle_alpha	89.994713
_cell_angle_beta	89.999957
_cell_angle_gamma	83.883973
loop_
_atom_site_label
_atom_site_type_symbol
_atom_site_fract_x
_atom_site_fract_y
_atom_site_fract_z
O1	O	1.665978	0.106302	-0.114190
O2	O	1.300323	0.116430	-0.114216
O3	O	1.493481	0.001243	-0.114190
O4	O	1.472820	0.221490	-0.114216
O5	O	1.493469	0.001240	0.114390
O6	O	1.300310	0.116427	0.114364
O7	O	1.665966	0.106299	0.114390
Zn8	Zn	1.483136	0.111363	0.150669
Zn9	Zn	1.483152	0.111367	-0.150495
O10	O	1.472807	0.221487	0.114364
C11	C	1.253531	0.115685	0.000071
C12	C	1.114127	0.113460	0.000061
C13	C	1.033454	0.181281	0.000058
C14	C	0.902470	0.179186	0.000082
C15	C	0.932844	0.041444	0.000108
C16	C	1.063826	0.043539	0.000094
C17	C	1.492735	-0.026960	0.000100
C18	C	1.490514	-0.110993	0.000100
C19	C	1.603894	-0.158893	0.000110
C20	C	1.601799	-0.237849	0.000098
C21	C	1.486323	-0.268904	0.000085
C22	C	1.372935	-0.220998	0.000071
C23	C	1.375030	-0.142043	0.000074
C24	C	1.364481	-0.539415	0.000060
C25	C	1.362394	-0.618376	0.000061
C26	C	1.591249	-0.635221	0.000083
C27	C	1.593345	-0.556266	0.000086
C28	C	1.479957	-0.508367	0.000065
C29	C	1.482229	-0.422753	0.000075
C30	C	1.484050	-0.354516	0.000085
C31	C	1.712757	0.107045	0.000100
C32	C	1.852161	0.109269	0.000100
C33	C	1.473554	0.249690	0.000071
C34	C	1.475775	0.333722	0.000061
N35	N	1.483134	0.111359	0.356205
N36	N	1.483164	0.111364	-0.356032
C37	C	1.568694	0.060376	0.428142
C38	C	1.568706	0.060376	0.572025
C39	C	1.397596	0.162350	0.572021
C40	C	1.397578	0.162345	0.428141
H41	H	1.697927	-0.133614	0.000128
O42	O	0.884125	-0.026519	-0.000059
C43	C	0.925338	-0.067894	-0.118458
H44	H	1.016120	-0.046790	-0.157934
H45	H	0.849511	-0.059524	-0.201351
C46	C	0.838657	-0.178826	-0.034005
C47	C	0.950162	-0.152910	-0.082483
H48	H	0.853964	-0.231268	-0.011818
H49	H	0.810886	-0.150950	0.045760
H50	H	0.775478	-0.171844	-0.103091
H51	H	1.013334	-0.159883	-0.013392
H52	H	0.977944	-0.180789	-0.162237
O53	O	1.651865	0.010935	0.358170
C54	C	1.729185	0.051869	0.274850
H55	H	1.731207	0.111565	0.318189
H56	H	1.689809	0.055629	0.165833
C57	C	1.861624	-0.062456	0.219326
C58	C	1.864116	0.010862	0.272563
H59	H	1.944854	-0.087752	0.217909
H60	H	1.809530	-0.090035	0.275456
H61	H	1.828805	-0.059313	0.128483
H62	H	1.896920	0.007717	0.363409
H63	H	1.916219	0.038440	0.216447
H64	H	1.327900	0.203862	0.369565
O65	O	1.314621	0.211852	0.642115
C66	C	1.332962	0.200914	0.784535
H67	H	1.432890	0.173187	0.804178
H68	H	1.262011	0.162557	0.825391
C69	C	1.191122	0.312291	0.834255
C70	C	1.313859	0.278241	0.858382
H71	H	1.179333	0.359989	0.879809
H72	H	1.178761	0.319659	0.738304
H73	H	1.132011	0.280319	0.868302
H74	H	1.372968	0.310209	0.824319
H75	H	1.326230	0.270880	0.954328
H76	H	1.074405	0.238215	0.000042
H77	H	1.638375	0.018860	0.630593
H78	H	1.683575	-0.674231	0.000094
O79	O	1.711906	-0.284408	-0.000137
C80	C	1.717544	-0.330585	-0.118510
H81	H	1.653241	-0.302005	-0.201255
H82	H	1.685221	-0.388165	-0.091758
C83	C	1.933206	-0.376952	-0.070548
C84	C	1.854236	-0.341847	-0.172181
H85	H	2.017524	-0.383902	-0.103652
H86	H	1.929407	-0.345844	0.009206
H87	H	1.906255	-0.424931	-0.048263
H88	H	1.881178	-0.293864	-0.194451
H89	H	1.858042	-0.372947	-0.251940
H90	H	1.129514	-0.011692	0.000101
H91	H	0.836791	0.234412	0.000081
H92	H	1.687377	-0.530986	0.000103
H93	H	1.268354	-0.643657	0.000054
H94	H	1.272153	-0.500424	0.000043
H95	H	1.278912	-0.246289	0.000053
H96	H	1.282705	-0.103043	0.000066
