data_functionalizedCrystal
_audit_creation_method	'MofGen! by Chris Wilmer'
_symmetry_space_group_name_H-M	'P1'
_symmetry_Int_Tables_number	1
_symmetry_cell_setting	triclinic
loop_
_symmetry_equiv_pos_as_xyz
  x,y,z
_cell_length_a	14.519709
_cell_length_b	23.532409
_cell_length_c	12.996460
_cell_angle_alpha	89.996917
_cell_angle_beta	90.000034
_cell_angle_gamma	83.264852
loop_
_atom_site_label
_atom_site_type_symbol
_atom_site_fract_x
_atom_site_fract_y
_atom_site_fract_z
O1	O	1.222986	0.074654	-0.085426
O2	O	1.722986	0.574654	0.414574
O3	O	0.954406	0.083445	-0.085456
O4	O	1.454406	0.583445	0.414544
O5	O	1.096794	-0.003845	-0.085441
O6	O	1.596794	0.496155	0.414559
O7	O	1.080598	0.161945	-0.085441
O8	O	1.580598	0.661945	0.414559
O9	O	1.096779	-0.003850	0.085692
O10	O	1.596779	0.496150	0.585692
O11	O	0.954391	0.083440	0.085678
O12	O	1.454391	0.583440	0.585678
O13	O	1.222972	0.074649	0.085708
O14	O	1.722972	0.574649	0.585708
Cu15	Cu	1.088680	0.079044	0.101319
Cu16	Cu	1.588680	0.579044	0.601319
Cu17	Cu	1.088697	0.079050	-0.101067
Cu18	Cu	1.588697	0.579050	0.398933
O19	O	1.080583	0.161940	0.085693
O20	O	1.580583	0.661940	0.585693
C21	C	0.920043	0.083033	0.000107
C22	C	1.420043	0.583033	0.500107
C23	C	0.817677	0.081805	0.000095
C24	C	1.317677	0.581805	0.500095
C25	C	0.442834	0.077285	0.000141
C26	C	0.942834	0.577285	0.500141
C27	C	0.547127	0.078541	0.000128
C28	C	1.047127	0.578541	0.500128
C29	C	0.630252	0.079545	0.000117
C30	C	1.130252	0.579545	0.500117
C31	C	0.734552	0.080801	0.000106
C32	C	1.234552	0.580801	0.500106
C33	C	1.096374	-0.025066	0.000123
C34	C	1.596374	0.474934	0.500123
C35	C	1.095133	-0.088288	0.000115
C36	C	1.595133	0.411712	0.500115
C37	C	1.089864	-0.361555	-0.093175
C38	C	1.589864	0.138445	0.406825
C39	C	1.091016	-0.302149	-0.093175
C40	C	1.591016	0.197851	0.406825
O41	O	1.091651	-0.271419	-0.172507
O42	O	1.591651	0.228581	0.327493
N43	N	1.091579	-0.272447	0.000112
N44	N	1.591579	0.227553	0.500112
C45	C	1.090998	-0.302154	0.093405
C46	C	1.590998	0.197846	0.593405
O47	O	1.091583	-0.271436	0.172752
O48	O	1.591583	0.228564	0.672752
C49	C	1.089852	-0.361559	0.093404
C50	C	1.589852	0.138441	0.593404
C51	C	1.089280	-0.391257	0.000111
C52	C	1.589280	0.108743	0.500111
C53	C	1.089293	-0.391253	-0.186460
C54	C	1.589293	0.108747	0.313540
C55	C	1.088139	-0.450654	-0.186460
C56	C	1.588139	0.049346	0.313540
C57	C	1.087556	-0.480357	-0.093174
C58	C	1.587556	0.019643	0.406826
C59	C	1.088126	-0.450659	0.000111
C60	C	1.588126	0.049341	0.500111
C61	C	1.089278	-0.391266	0.186695
C62	C	1.589278	0.108734	0.686695
C63	C	1.088133	-0.450675	0.186686
C64	C	1.588133	0.049325	0.686686
C65	C	1.087561	-0.480373	0.093394
C66	C	1.587561	0.019627	0.593394
C67	C	1.086389	-0.539762	0.093397
C68	C	1.586389	-0.039762	0.593397
N69	N	1.085827	-0.569465	0.000111
N70	N	1.585827	-0.069465	0.500111
C71	C	1.086410	-0.539762	-0.093175
C72	C	1.586410	-0.039762	0.406825
C73	C	1.093406	-0.177400	0.093400
C74	C	1.593406	0.322600	0.593400
C75	C	1.094545	-0.117996	0.093402
C76	C	1.594545	0.382004	0.593402
C77	C	1.094565	-0.117995	-0.093178
C78	C	1.594565	0.382005	0.406822
C79	C	1.093419	-0.177400	-0.093179
C80	C	1.593419	0.322600	0.406821
C81	C	1.092843	-0.207102	0.000113
C82	C	1.592843	0.292898	0.500113
C83	C	1.083986	-0.664508	-0.093167
C84	C	1.583986	-0.164508	0.406833
C85	C	1.082828	-0.723915	-0.093158
C86	C	1.582828	-0.223915	0.406842
C87	C	1.082813	-0.723911	0.093421
C88	C	1.582813	-0.223911	0.593421
C89	C	1.083966	-0.664509	0.093413
C90	C	1.583966	-0.164509	0.593413
C91	C	1.084555	-0.634810	0.000111
C92	C	1.584555	-0.134810	0.500111
O93	O	1.085757	-0.570530	0.172689
O94	O	1.585757	-0.070530	0.672689
O95	O	1.085837	-0.570489	-0.172509
O96	O	1.585837	-0.070489	0.327491
C97	C	1.257334	0.075061	0.000143
C98	C	1.757334	0.575061	0.500143
C99	C	1.359701	0.076289	0.000148
C100	C	1.859701	0.576289	0.500148
C101	C	1.081003	0.183160	0.000127
C102	C	1.581003	0.683160	0.500127
C103	C	1.082244	0.246383	0.000128
C104	C	1.582244	0.746383	0.500128
N105	N	1.088674	0.079040	0.243666
N106	N	1.588674	0.579040	0.743666
N107	N	1.088710	0.079050	-0.243414
N108	N	1.588710	0.579050	0.256586
C109	C	1.088696	0.079051	0.663480
C110	C	1.588696	0.579051	1.163480
C111	C	1.088687	0.079050	0.546675
C112	C	1.588687	0.579050	1.046675
C113	C	1.088686	0.079046	0.453577
C114	C	1.588686	0.579046	0.953577
C115	C	1.088676	0.079044	0.336764
C116	C	1.588676	0.579044	0.836764
H117	H	1.082359	-0.748092	-0.169132
H118	H	1.582359	-0.248092	0.330868
H119	H	1.087680	-0.474830	-0.262428
H120	H	1.587680	0.025170	0.237572
C121	C	1.092815	-0.210065	-0.195800
C122	C	1.592815	0.289935	0.304200
H123	H	1.093336	-0.183862	-0.251352
H124	H	1.593336	0.316138	0.248648
H125	H	1.038591	-0.228964	-0.199703
H126	H	1.538591	0.271036	0.300297
H127	H	1.146167	-0.237514	-0.199664
H128	H	1.646167	0.262486	0.300336
H129	H	1.087665	-0.474855	0.262658
H130	H	1.587665	0.025145	0.762658
H131	H	1.094993	-0.093819	0.169370
H132	H	1.594993	0.406181	0.669370
H133	H	1.089753	-0.367096	0.262664
H134	H	1.589753	0.132904	0.762664
H135	H	1.095037	-0.093800	-0.169137
H136	H	1.595037	0.406200	0.330863
C137	C	1.084584	-0.631839	0.196031
C138	C	1.584584	-0.131839	0.696031
H139	H	1.084073	-0.658040	0.251588
H140	H	1.584073	-0.158040	0.751588
H141	H	1.031253	-0.604379	0.199905
H142	H	1.531253	-0.104379	0.699905
H143	H	1.138829	-0.612954	0.199918
H144	H	1.638829	-0.112954	0.699918
C145	C	1.082171	-0.756589	0.196030
C146	C	1.582171	-0.256589	0.696030
H147	H	1.082669	-0.730396	0.251595
H148	H	1.582669	-0.230396	0.751595
H149	H	1.135506	-0.784046	0.199906
H150	H	1.635506	-0.284046	0.699906
H151	H	1.027930	-0.775479	0.199898
H152	H	1.527930	-0.275479	0.699898
H153	H	1.084467	-0.640334	-0.169142
H154	H	1.584467	-0.140334	0.330858
C155	C	1.092753	-0.210066	0.196027
C156	C	1.592753	0.289934	0.696027
H157	H	1.093243	-0.183864	0.251579
H158	H	1.593243	0.316136	0.751579
H159	H	1.146087	-0.237523	0.199926
H160	H	1.646087	0.262477	0.699926
H161	H	1.038511	-0.228955	0.199898
H162	H	1.538511	0.271045	0.699898
H163	H	1.089771	-0.367075	-0.262429
H164	H	1.589771	0.132925	0.237571
