data_functionalizedCrystal
_audit_creation_method	'MofGen! by Chris Wilmer'
_symmetry_space_group_name_H-M	'P1'
_symmetry_Int_Tables_number	1
_symmetry_cell_setting	triclinic
loop_
_symmetry_equiv_pos_as_xyz
  x,y,z
_cell_length_a	19.121102
_cell_length_b	19.121063
_cell_length_c	19.120904
_cell_angle_alpha	94.741613
_cell_angle_beta	90.088173
_cell_angle_gamma	90.126902
loop_
_atom_site_label
_atom_site_type_symbol
_atom_site_fract_x
_atom_site_fract_y
_atom_site_fract_z
Zn1	Zn	1.039579	-0.343506	-0.456040
Zn2	Zn	1.039493	-0.456149	-0.343386
Zn3	Zn	0.927792	-0.333518	-0.333417
Zn4	Zn	0.917325	-0.455677	-0.455570
O5	O	0.981047	-0.397212	-0.397103
O6	O	1.137479	-0.362826	-0.445465
O7	O	1.029020	-0.435899	-0.243797
O8	O	0.947038	-0.236577	-0.345708
O9	O	1.137415	-0.445584	-0.362699
O10	O	1.029167	-0.243915	-0.435798
O11	O	0.946954	-0.345802	-0.236473
O12	O	0.828493	-0.345345	-0.345252
O13	O	0.929198	-0.444780	-0.553899
O14	O	0.820803	-0.435094	-0.434997
O15	O	1.019018	-0.362368	-0.554244
O16	O	1.018870	-0.554352	-0.362243
O17	O	0.929114	-0.554005	-0.444664
C18	C	0.799261	-0.389085	-0.388992
C19	C	0.721490	-0.385626	-0.385539
C20	C	0.680968	-0.430793	-0.430575
C21	C	0.607894	-0.427534	-0.427334
C22	C	0.575344	-0.379110	-0.379053
C23	C	0.615872	-0.333937	-0.334016
C24	C	0.688944	-0.337194	-0.337261
C25	C	0.354913	-0.366933	-0.366924
C26	C	0.281835	-0.363681	-0.363681
C27	C	0.273863	-0.457277	-0.457000
C28	C	0.346937	-0.460532	-0.460238
C29	C	0.387458	-0.415357	-0.415203
C30	C	0.500651	-0.375778	-0.375738
C31	C	0.462149	-0.418686	-0.418523
C32	C	0.972865	-0.579659	-0.404501
C33	C	0.969428	-0.657714	-0.407691
C34	C	1.014577	-0.694545	-0.366317
C35	C	1.011348	-0.767887	-0.369323
C36	C	0.962966	-0.804396	-0.413699
C37	C	0.917815	-0.767560	-0.455078
C38	C	0.921048	-0.694220	-0.452076
C39	C	0.950869	-1.025828	-0.424912
C40	C	0.947638	-1.099173	-0.427909
C41	C	1.041173	-1.099494	-0.342155
C42	C	1.044399	-1.026153	-0.339154
C43	C	0.999250	-0.989323	-0.380535
C44	C	0.959663	-0.879363	-0.416770
C45	C	1.002557	-0.914358	-0.377467
C46	C	1.163544	-0.405372	-0.405246
C47	C	1.241313	-0.408849	-0.408717
C48	C	0.972950	-0.404635	-0.580263
C49	C	0.969500	-0.407799	-0.658315
C50	C	0.989280	-0.214054	-0.389693
C51	C	0.992788	-0.136003	-0.386535
C52	C	1.014640	-0.366379	-0.695165
C53	C	1.011390	-0.369348	-0.768503
C54	C	0.963001	-0.413741	-0.804990
C55	C	0.917856	-0.455162	-0.768135
C56	C	0.921103	-0.452188	-0.694798
C57	C	0.950853	-0.424862	-1.026410
C58	C	0.947610	-0.427833	-1.099752
C59	C	1.041143	-0.342019	-1.100115
C60	C	1.044390	-0.339052	-1.026777
C61	C	0.999242	-0.380470	-0.989928
C62	C	0.959679	-0.416779	-0.879953
C63	C	1.002561	-0.377429	-0.914966
C64	C	0.989156	-0.389769	-0.214655
C65	C	0.992751	-0.386414	-0.136602
H66	H	0.474141	-0.336353	-0.336426
C67	C	0.894416	-1.139331	-0.476734
N68	N	0.854332	-1.169579	-0.513507
C69	C	0.871446	-0.497754	-0.654264
N70	N	0.834041	-0.532075	-0.623734
H71	H	0.373433	-0.499966	-0.499552
C72	C	1.090795	-0.296453	-1.140654
N73	N	1.128190	-0.262127	-1.171188
C74	C	0.733518	-0.287507	-0.287716
N75	N	0.767091	-0.250080	-0.250399
C76	C	0.864621	-0.503987	-0.808272
N77	N	0.824523	-0.540763	-0.838503
C78	C	1.055774	-0.874196	-0.328653
N79	N	1.095855	-0.843939	-0.291883
H80	H	0.240863	-0.494055	-0.493666
H81	H	0.914106	-0.995847	-0.458605
H82	H	0.488655	-0.458110	-0.457836
C83	C	0.399477	-0.317243	-0.317380
N84	N	0.433045	-0.279815	-0.280059
H85	H	0.574904	-0.464315	-0.464006
C86	C	0.864592	-0.807723	-0.503890
N87	N	0.824500	-0.837972	-0.540653
C88	C	1.067800	-0.654392	-0.317498
N89	N	1.107891	-0.624150	-0.280727
H90	H	0.920269	-0.909097	-0.452900
H91	H	0.255336	-0.324240	-0.324369
H92	H	0.707464	-0.470228	-0.469888
H93	H	0.884283	-0.664233	-0.485768
C94	C	0.580064	-0.280668	-0.280908
N95	N	0.553095	-0.240546	-0.240905
C96	C	1.097606	-0.985997	-0.290318
N97	N	1.137674	-0.955750	-0.253525
C98	C	1.090836	-1.140013	-0.296641
N99	N	1.128245	-1.170531	-0.262359
H100	H	1.048113	-0.797871	-0.335631
H101	H	1.054046	-0.330232	-0.665463
H102	H	1.048150	-0.335622	-0.798503
C103	C	1.097614	-0.290210	-0.986647
N104	N	1.137703	-0.253420	-0.956420
H105	H	0.908204	-0.463985	-1.129457
H106	H	0.914100	-0.458598	-0.996417
C107	C	1.055787	-0.328598	-0.874828
N108	N	1.095879	-0.291821	-0.844591
C109	C	0.906448	-0.465605	-0.920095
N110	N	0.866352	-0.502377	-0.950333
