data_functionalizedCrystal
_audit_creation_method	'MofGen! by Chris Wilmer'
_symmetry_space_group_name_H-M	'P1'
_symmetry_Int_Tables_number	1
_symmetry_cell_setting	triclinic
loop_
_symmetry_equiv_pos_as_xyz
  x,y,z
_cell_length_a	25.639242
_cell_length_b	25.639240
_cell_length_c	25.639233
_cell_angle_alpha	89.974071
_cell_angle_beta	89.978417
_cell_angle_gamma	90.027658
loop_
_atom_site_label
_atom_site_type_symbol
_atom_site_fract_x
_atom_site_fract_y
_atom_site_fract_z
Zn1	Zn	0.799247	-0.208286	-0.295708
Zn2	Zn	1.299247	0.291714	0.204292
Zn3	Zn	0.799179	-0.295704	-0.208261
Zn4	Zn	1.299179	0.204296	0.291739
Zn5	Zn	0.711823	-0.208277	-0.208273
Zn6	Zn	1.211823	0.291723	0.291727
Zn7	Zn	0.711777	-0.295684	-0.295652
Zn8	Zn	1.211777	0.204316	0.204348
O9	O	0.755506	-0.251988	-0.251974
O10	O	1.255506	0.248012	0.248026
O11	O	0.872403	-0.219894	-0.284127
O12	O	1.372403	0.280106	0.215873
O13	O	0.787582	-0.284112	-0.135098
O14	O	1.287582	0.215888	0.364902
O15	O	0.723467	-0.135113	-0.219900
O16	O	1.223467	0.364887	0.280100
O17	O	0.872353	-0.284120	-0.219880
O18	O	1.372353	0.215880	0.280120
O19	O	0.787697	-0.135119	-0.284138
O20	O	1.287697	0.364881	0.215862
O21	O	0.723402	-0.219879	-0.135106
O22	O	1.223402	0.280121	0.364894
O23	O	0.638652	-0.219860	-0.219846
O24	O	1.138652	0.280140	0.280154
O25	O	0.723389	-0.284085	-0.368825
O26	O	1.223389	0.215915	0.131175
O27	O	0.638618	-0.284077	-0.284043
O28	O	1.138618	0.215923	0.215957
O29	O	0.787653	-0.219874	-0.368866
O30	O	1.287653	0.280126	0.131134
O31	O	0.787538	-0.368867	-0.219826
O32	O	1.287538	0.131133	0.280174
O33	O	0.723324	-0.368852	-0.284031
O34	O	1.223324	0.131148	0.215969
C35	C	0.619664	-0.251966	-0.251940
C36	C	1.119664	0.248034	0.248060
C37	C	0.561550	-0.251969	-0.251937
C38	C	1.061550	0.248031	0.248063
C39	C	0.755433	-0.387830	-0.251933
C40	C	1.255433	0.112170	0.248067
C41	C	0.755449	-0.445944	-0.251933
C42	C	1.255449	0.054056	0.248067
C43	C	0.310365	-0.218494	-0.218604
C44	C	0.810365	0.281506	0.281396
C45	C	0.364969	-0.218489	-0.218597
C46	C	0.864969	0.281511	0.281403
O47	O	0.393214	-0.189996	-0.190227
O48	O	0.893214	0.310004	0.309773
N49	N	0.392276	-0.251975	-0.251964
N50	N	0.892276	0.248025	0.248036
C51	C	0.364975	-0.285465	-0.285343
C52	C	0.864975	0.214535	0.214657
O53	O	0.393216	-0.313947	-0.313723
O54	O	0.893216	0.186053	0.186277
C55	C	0.310372	-0.285467	-0.285352
C56	C	0.810372	0.214533	0.214648
C57	C	0.283068	-0.251982	-0.251979
C58	C	0.783068	0.248018	0.248021
C59	C	0.283061	-0.185011	-0.185235
C60	C	0.783061	0.314989	0.314765
C61	C	0.228461	-0.185017	-0.185241
C62	C	0.728461	0.314983	0.314759
C63	C	0.201164	-0.218505	-0.218616
C64	C	0.701164	0.281495	0.281384
C65	C	0.228468	-0.251987	-0.251985
C66	C	0.728468	0.248013	0.248015
C67	C	0.283072	-0.318953	-0.318733
C68	C	0.783072	0.181047	0.181267
C69	C	0.228465	-0.318952	-0.318739
C70	C	0.728465	0.181048	0.181261
C71	C	0.201162	-0.285467	-0.285367
C72	C	0.701162	0.214533	0.214633
C73	C	0.146570	-0.285481	-0.285367
C74	C	0.646570	0.214519	0.214633
N75	N	0.119264	-0.251995	-0.252000
N76	N	0.619264	0.248005	0.248000
C77	C	0.146561	-0.218507	-0.218625
C78	C	0.646561	0.281493	0.281375
C79	C	0.479646	-0.285458	-0.285322
C80	C	0.979646	0.214542	0.214678
C81	C	0.534248	-0.285459	-0.285311
C82	C	1.034248	0.214541	0.214689
C83	C	0.534239	-0.218482	-0.218566
C84	C	1.034239	0.281518	0.281434
C85	C	0.479635	-0.218484	-0.218575
C86	C	0.979635	0.281516	0.281425
C87	C	0.452339	-0.251971	-0.251956
C88	C	0.952339	0.248029	0.248044
C89	C	0.031896	-0.218522	-0.218640
C90	C	0.531896	0.281478	0.281360
C91	C	-0.022710	-0.218532	-0.218648
C92	C	0.477290	0.281468	0.281352
C93	C	-0.022695	-0.285506	-0.285394
C94	C	0.477305	0.214494	0.214606
C95	C	0.031905	-0.285498	-0.285385
C96	C	0.531905	0.214502	0.214615
C97	C	0.059199	-0.252002	-0.252006
C98	C	0.559199	0.247998	0.247994
O99	O	0.118292	-0.313958	-0.313724
O100	O	0.618292	0.186042	0.186276
O101	O	0.118314	-0.190025	-0.190254
O102	O	0.618314	0.309975	0.309746
C103	C	0.788967	-0.806272	-0.285483
C104	C	1.288967	-0.306272	0.214517
C105	C	0.788983	-0.860876	-0.285493
C106	C	1.288983	-0.360876	0.214507
O107	O	0.817394	-0.889083	-0.313977
O108	O	1.317394	-0.389083	0.186023
N109	N	0.755579	-0.888227	-0.252024
N110	N	1.255579	-0.388227	0.247976
C111	C	0.722154	-0.860970	-0.218546
C112	C	1.222154	-0.360970	0.281454
O113	O	0.693742	-0.889247	-0.190079
O114	O	1.193742	-0.389247	0.309921
C115	C	0.722136	-0.806367	-0.218538
C116	C	1.222136	-0.306367	0.281462
C117	C	0.755546	-0.779019	-0.252006
C118	C	1.255546	-0.279019	0.247994
C119	C	0.822374	-0.778925	-0.318948
C120	C	1.322374	-0.278925	0.181052
C121	C	0.822359	-0.724324	-0.318937
C122	C	1.322359	-0.224324	0.181063
C123	C	0.788938	-0.697071	-0.285460
C124	C	1.288938	-0.197071	0.214540
C125	C	0.755531	-0.724419	-0.251995
C126	C	1.255531	-0.224419	0.248005
C127	C	0.688708	-0.779111	-0.185063
C128	C	1.188708	-0.279111	0.314937
C129	C	0.688693	-0.724504	-0.185059
C130	C	1.188693	-0.224504	0.314941
C131	C	0.722103	-0.697156	-0.218526
C132	C	1.222103	-0.197156	0.281474
C133	C	0.722095	-0.642565	-0.218506
C134	C	1.222095	-0.142565	0.281494
N135	N	0.755498	-0.615215	-0.251975
N136	N	1.255498	-0.115215	0.248025
C137	C	0.788920	-0.642468	-0.285452
C138	C	1.288920	-0.142468	0.214548
C139	C	0.722193	-0.975640	-0.218565
C140	C	1.222193	-0.475640	0.281435
C141	C	0.722213	-1.030243	-0.218570
C142	C	1.222213	-0.530243	0.281430
C143	C	0.789041	-1.030146	-0.285518
C144	C	1.289041	-0.530146	0.214482
C145	C	0.789024	-0.975542	-0.285510
C146	C	1.289024	-0.475542	0.214490
C147	C	0.755597	-0.948290	-0.252034
C148	C	1.255597	-0.448290	0.247966
C149	C	0.788887	-0.527803	-0.285425
C150	C	1.288887	-0.027803	0.214575
C151	C	0.788870	-0.473197	-0.285409
C152	C	1.288870	0.026803	0.214591
C153	C	0.722040	-0.473299	-0.218463
C154	C	1.222040	0.026701	0.281537
C155	C	0.722058	-0.527900	-0.218477
C156	C	1.222058	-0.027900	0.281523
C157	C	0.755483	-0.555150	-0.251962
C158	C	1.255483	-0.055150	0.248038
O159	O	0.693697	-0.614323	-0.190039
O160	O	1.193697	-0.114323	0.309961
O161	O	0.817322	-0.614184	-0.313919
O162	O	1.317322	-0.114184	0.186081
C163	C	0.891879	-0.252010	-0.252008
C164	C	1.391879	0.247990	0.247992
C165	C	0.949993	-0.252020	-0.252023
C166	C	1.449993	0.247980	0.247977
C167	C	0.755523	-0.251978	-0.388347
C168	C	1.255523	0.248022	0.111653
C169	C	0.755530	-0.251975	-0.446461
C170	C	1.255530	0.248025	0.053539
C171	C	0.755595	-0.115615	-0.252026
C172	C	1.255595	0.384385	0.247974
C173	C	0.755632	-0.057501	-0.252049
C174	C	1.255632	0.442499	0.247951
C175	C	0.789035	-0.218440	-0.806851
C176	C	1.289035	0.281560	-0.306851
C177	C	0.789041	-0.218426	-0.861455
C178	C	1.289041	0.281574	-0.361455
O179	O	0.817486	-0.189976	-0.889715
O180	O	1.317486	0.310024	-0.389715
N181	N	0.755588	-0.251852	-0.888743
N182	N	1.255588	0.248148	-0.388743
C183	C	0.722122	-0.285291	-0.861424
C184	C	1.222122	0.214709	-0.361424
O185	O	0.693668	-0.313721	-0.889649
O186	O	1.193668	0.186279	-0.389649
C187	C	0.722114	-0.285302	-0.806821
C188	C	1.222114	0.214698	-0.306821
C189	C	0.755573	-0.251878	-0.779536
C190	C	1.255573	0.248122	-0.279536
C191	C	0.822491	-0.185018	-0.779566
C192	C	1.322491	0.314982	-0.279566
C193	C	0.822485	-0.185034	-0.724965
C194	C	1.322485	0.314966	-0.224965
C195	C	0.789023	-0.218471	-0.697650
C196	C	1.289023	0.281529	-0.197650
C197	C	0.755567	-0.251893	-0.724935
C198	C	1.255567	0.248107	-0.224935
C199	C	0.688646	-0.318738	-0.779503
C200	C	1.188646	0.181262	-0.279503
C201	C	0.688640	-0.318747	-0.724896
C202	C	1.188640	0.181253	-0.224896
C203	C	0.722099	-0.285322	-0.697611
C204	C	1.222099	0.214678	-0.197611
C205	C	0.722099	-0.285346	-0.643019
C206	C	1.222099	0.214654	-0.143019
N207	N	0.755552	-0.251920	-0.615731
N208	N	1.255552	0.248080	-0.115731
C209	C	0.789014	-0.218482	-0.643046
C210	C	1.289014	0.281518	-0.143046
C211	C	0.722143	-0.285264	-0.976095
C212	C	1.222143	0.214736	-0.476095
C213	C	0.722154	-0.285255	-1.030697
C214	C	1.222154	0.214745	-0.530697
C215	C	0.789072	-0.218390	-1.030725
C216	C	1.289072	0.281610	-0.530725
C217	C	0.789063	-0.218401	-0.976121
C218	C	1.289063	0.281599	-0.476121
C219	C	0.755596	-0.251838	-0.948807
C220	C	1.255596	0.248162	-0.448807
C221	C	0.789000	-0.218517	-0.528381
C222	C	1.289000	0.281483	-0.028381
C223	C	0.788992	-0.218537	-0.473776
C224	C	1.288992	0.281463	0.026224
C225	C	0.722072	-0.285401	-0.473754
C226	C	1.222072	0.214599	0.026246
C227	C	0.722081	-0.285383	-0.528354
C228	C	1.222081	0.214617	-0.028354
C229	C	0.755547	-0.251937	-0.555667
C230	C	1.255547	0.248063	-0.055667
O231	O	0.693668	-0.313780	-0.614725
O232	O	1.193668	0.186220	-0.114725
O233	O	0.817459	-0.190053	-0.614815
O234	O	1.317459	0.309947	-0.114815
C235	C	0.755520	-0.251959	-0.116131
C236	C	1.255520	0.248041	0.383869
C237	C	0.755614	-0.251816	-0.058017
C238	C	1.255614	0.248184	0.441983
H239	H	-0.044938	-0.191264	-0.191470
H240	H	0.455062	0.308736	0.308530
H241	H	0.206244	-0.346220	-0.345924
H242	H	0.706244	0.153780	0.154076
H243	H	0.457425	-0.312732	-0.312504
H244	H	0.957425	0.187268	0.187496
H245	H	0.305281	-0.157738	-0.158057
H246	H	0.805281	0.342262	0.341943
Br247	Br	0.643237	-0.364106	-0.816519
Br248	Br	1.143237	0.135894	-0.316519
Br249	Br	0.676685	-0.436303	-0.173032
Br250	Br	1.176685	0.063697	0.326968
Br251	Br	0.676753	-0.330629	-1.067721
Br252	Br	1.176753	0.169371	-0.567721
H253	H	0.457408	-0.191216	-0.191402
H254	H	0.957408	0.308784	0.308598
H255	H	0.694830	-0.312626	-0.451504
H256	H	1.194830	0.187374	0.048496
H257	H	0.849730	-0.157815	-0.702754
H258	H	1.349730	0.342185	-0.202754
H259	H	0.849740	-0.157787	-0.801800
H260	H	1.349740	0.342213	-0.301800
Br261	Br	0.834250	-0.564777	-0.330869
Br262	Br	1.334250	-0.064777	0.169131
H263	H	0.556474	-0.191213	-0.191391
H264	H	1.056474	0.308787	0.308609
Br265	Br	0.834473	-0.173038	-0.939097
Br266	Br	1.334473	0.326962	-0.439097
H267	H	0.556474	-0.312731	-0.312480
H268	H	1.056474	0.187269	0.187520
Br269	Br	0.834406	-0.173174	-0.436749
Br270	Br	1.334406	0.326826	0.063251
Br271	Br	0.320113	-0.364400	-0.364027
Br272	Br	0.820113	0.135600	0.135973
H273	H	0.206235	-0.157750	-0.158066
H274	H	0.706235	0.342250	0.341934
Br275	Br	0.676722	-0.330650	-0.939031
Br276	Br	1.176722	0.169350	-0.439031
H277	H	0.054137	-0.312768	-0.312555
H278	H	0.554137	0.187232	0.187445
H279	H	0.816249	-0.191281	-0.550613
H280	H	1.316249	0.308719	-0.050613
H281	H	-0.044930	-0.312773	-0.312565
H282	H	0.455070	0.187227	0.187435
H283	H	0.661503	-0.801368	-0.157810
H284	H	1.161503	-0.301368	0.342190
H285	H	0.661471	-0.702318	-0.157799
H286	H	1.161471	-0.202318	0.342201
H287	H	0.816079	-0.450933	-0.312663
H288	H	1.316079	0.049067	0.187337
H289	H	0.661380	-0.345970	-0.702660
H290	H	1.161380	0.154030	-0.202660
H291	H	0.816228	-0.953279	-0.312763
H292	H	1.316228	-0.453279	0.187237
Br293	Br	0.834485	-0.173009	-1.067806
Br294	Br	1.334485	0.326991	-0.567806
Br295	Br	0.676676	-0.330749	-0.565386
Br296	Br	1.176676	0.169251	-0.065386
Br297	Br	0.867700	-0.687218	-0.364363
Br298	Br	1.367700	-0.187218	0.135637
H299	H	0.816254	-1.052345	-0.312778
H300	H	1.316254	-0.552345	0.187222
H301	H	0.849590	-0.801108	-0.346212
H302	H	1.349590	-0.301108	0.153788
Br303	Br	0.068929	-0.173062	-0.173340
Br304	Br	0.568929	0.326938	0.326660
Br305	Br	0.676826	-0.938661	-0.173126
Br306	Br	1.176826	-0.438661	0.326874
Br307	Br	0.676878	-1.067350	-0.173139
Br308	Br	1.176878	-0.567350	0.326861
Br309	Br	0.676724	-0.565016	-0.173048
Br310	Br	1.176724	-0.065016	0.326952
