data_functionalizedCrystal
_audit_creation_method	'MofGen! by Chris Wilmer'
_symmetry_space_group_name_H-M	'P1'
_symmetry_Int_Tables_number	1
_symmetry_cell_setting	triclinic
loop_
_symmetry_equiv_pos_as_xyz
  x,y,z
_cell_length_a	11.169417
_cell_length_b	10.685194
_cell_length_c	11.169417
_cell_angle_alpha	94.382322
_cell_angle_beta	90.000551
_cell_angle_gamma	94.378522
loop_
_atom_site_label
_atom_site_type_symbol
_atom_site_fract_x
_atom_site_fract_y
_atom_site_fract_z
Zn1	Zn	1.798129	-0.502563	0.641859
Zn2	Zn	2.298129	-0.002563	1.141859
Zn3	Zn	1.782716	-0.713544	0.425780
Zn4	Zn	2.282716	-0.213544	0.925780
Zn5	Zn	1.597482	-0.502550	0.441195
Zn6	Zn	2.097482	-0.002550	0.941195
Zn7	Zn	1.582055	-0.713534	0.626426
Zn8	Zn	2.082055	-0.213534	1.126426
O9	O	1.690096	-0.608048	0.533815
O10	O	2.190096	-0.108048	1.033815
O11	O	1.964033	-0.530560	0.613202
O12	O	2.464033	-0.030560	1.113202
O13	O	1.758151	-0.685555	0.259875
O14	O	2.258151	-0.185555	0.759875
O15	O	1.637005	-0.325958	0.480723
O16	O	2.137005	0.174042	0.980723
O17	O	1.952710	-0.685567	0.454450
O18	O	2.452710	-0.185567	0.954450
O19	O	1.784420	-0.325968	0.628150
O20	O	2.284420	0.174032	1.128150
O21	O	1.622060	-0.530538	0.271201
O22	O	2.122060	-0.030538	0.771201
O23	O	1.427487	-0.530528	0.465759
O24	O	1.927487	-0.030528	0.965759
O25	O	1.610711	-0.685549	0.796423
O26	O	2.110711	-0.185549	1.296423
O27	O	1.416152	-0.685537	0.601848
O28	O	1.916152	-0.185537	1.101848
O29	O	1.769460	-0.530550	0.807761
O30	O	2.269460	-0.030550	1.307761
O31	O	1.743191	-0.890137	0.439486
O32	O	2.243191	-0.390137	0.939486
O33	O	1.595766	-0.890129	0.586900
O34	O	2.095766	-0.390129	1.086900
C35	C	1.378272	-0.608031	0.533802
C36	C	1.878272	-0.108031	1.033802
C37	C	1.244870	-0.608054	0.533823
C38	C	1.744870	-0.108054	1.033823
C39	C	1.666164	-0.935922	0.509872
C40	C	2.166164	-0.435922	1.009872
C41	C	1.656036	-1.076188	0.499669
C42	C	2.156036	-0.576188	0.999669
C43	C	2.003137	-0.608066	0.533828
C44	C	2.503137	-0.108066	1.033828
C45	C	2.136536	-0.608074	0.533834
C46	C	2.636536	-0.108074	1.033834
C47	C	1.690084	-0.608050	0.846857
C48	C	2.190084	-0.108050	1.346857
C49	C	1.690079	-0.608051	0.980257
C50	C	2.190079	-0.108051	1.480257
C51	C	1.714153	-0.278894	0.557878
C52	C	2.214153	0.221106	1.057878
C53	C	1.724405	-0.138628	0.568132
C54	C	2.224405	0.361372	1.068132
C55	C	1.690091	-0.608069	1.221989
C56	C	2.190091	-0.108069	1.721989
C57	C	1.690082	-0.608053	1.088590
C58	C	2.190082	-0.108053	1.588590
H59	H	1.589739	-1.130045	0.433250
H60	H	2.089739	-0.630045	0.933250
H61	H	1.790688	-1.084779	0.634558
H62	H	2.290688	-0.584779	1.134558
