data_functionalizedCrystal
_audit_creation_method	'MofGen! by Chris Wilmer'
_symmetry_space_group_name_H-M	'P1'
_symmetry_Int_Tables_number	1
_symmetry_cell_setting	triclinic
loop_
_symmetry_equiv_pos_as_xyz
  x,y,z
_cell_length_a	21.395362
_cell_length_b	12.594516
_cell_length_c	21.395355
_cell_angle_alpha	90.013083
_cell_angle_beta	90.043940
_cell_angle_gamma	90.027695
loop_
_atom_site_label
_atom_site_type_symbol
_atom_site_fract_x
_atom_site_fract_y
_atom_site_fract_z
Zn1	Zn	0.957942	-0.423414	0.354609
Zn2	Zn	1.457942	0.076586	0.854609
Zn3	Zn	0.957879	-0.601379	0.249842
Zn4	Zn	1.457879	-0.101379	0.749842
Zn5	Zn	0.853157	-0.423464	0.249811
Zn6	Zn	1.353157	0.076536	0.749811
Zn7	Zn	0.853160	-0.601400	0.354546
Zn8	Zn	1.353160	-0.101400	0.854546
O9	O	0.905534	-0.512414	0.302202
O10	O	1.405534	-0.012414	0.802202
O11	O	1.045611	-0.446992	0.340751
O12	O	1.545611	0.053008	0.840751
O13	O	0.943959	-0.577789	0.162160
O14	O	1.443959	-0.077789	0.662160
O15	O	0.867081	-0.274511	0.263726
O16	O	1.367081	0.225489	0.763726
O17	O	1.045565	-0.577741	0.263779
O18	O	1.545565	-0.077741	0.763779
O19	O	0.944067	-0.274475	0.340721
O20	O	1.444067	0.225525	0.840721
O21	O	0.867020	-0.447076	0.162137
O22	O	1.367020	0.052924	0.662137
O23	O	0.765479	-0.447097	0.263665
O24	O	1.265479	0.052903	0.763665
O25	O	0.867088	-0.577779	0.442233
O26	O	1.367088	-0.077779	0.942233
O27	O	0.765482	-0.577827	0.340614
O28	O	1.265482	-0.077827	0.840614
O29	O	0.944070	-0.447013	0.442279
O30	O	1.444070	0.052987	0.942279
O31	O	0.943963	-0.750327	0.263718
O32	O	1.443963	-0.250327	0.763718
O33	O	0.867027	-0.750343	0.340644
O34	O	1.367027	-0.250343	0.840644
C35	C	0.742747	-0.512471	0.302129
C36	C	1.242747	-0.012471	0.802129
C37	C	0.673105	-0.512520	0.302113
C38	C	1.173105	-0.012520	0.802113
C39	C	0.905505	-0.788955	0.302191
C40	C	1.405505	-0.288955	0.802191
C41	C	0.905550	-0.907261	0.302207
C42	C	1.405550	-0.407261	0.802207
C43	C	0.640410	-0.580681	0.342120
C44	C	1.140410	-0.080681	0.842120
C45	C	0.574975	-0.580655	0.342148
C46	C	1.074975	-0.080655	0.842148
C47	C	0.542237	-0.512479	0.302158
C48	C	1.042237	-0.012479	0.802158
C49	C	0.574940	-0.444305	0.262148
C50	C	1.074940	0.055695	0.762148
C51	C	0.640374	-0.444326	0.262125
C52	C	1.140374	0.055674	0.762125
C53	C	0.438511	-0.503905	0.245752
C54	C	0.938511	-0.003905	0.745752
C55	C	0.373078	-0.503892	0.245773
C56	C	0.873078	-0.003892	0.745773
C57	C	0.340416	-0.512410	0.302227
C58	C	0.840416	-0.012410	0.802227
C59	C	0.373196	-0.520963	0.358661
C60	C	0.873196	-0.020963	0.858661
C61	C	0.438630	-0.520984	0.358639
C62	C	0.938630	-0.020984	0.858639
C63	C	0.471285	-0.512449	0.302178
C64	C	0.971285	-0.012449	0.802178
C65	C	0.236769	-0.580546	0.342268
C66	C	0.736769	-0.080546	0.842268
C67	C	0.171332	-0.580513	0.342297
C68	C	0.671332	-0.080513	0.842297
C69	C	0.171299	-0.444168	0.262291
C70	C	0.671299	0.055832	0.762291
C71	C	0.236734	-0.444196	0.262267
C72	C	0.736734	0.055804	0.762267
C73	C	0.269465	-0.512391	0.302255
C74	C	0.769465	-0.012391	0.802255
C75	C	0.947444	-0.976466	0.260412
C76	C	1.447444	-0.476466	0.760412
C77	C	0.962759	-1.047181	0.317605
C78	C	1.462759	-0.547181	0.817605
C79	C	0.890314	-1.047345	0.245051
C80	C	1.390314	-0.547345	0.745051
C81	C	0.920894	-0.976417	0.359430
C82	C	1.420894	-0.476417	0.859430
C83	C	0.848422	-0.976575	0.286838
C84	C	1.348422	-0.476575	0.786838
C85	C	0.863715	-1.047257	0.344070
C86	C	1.363715	-0.547257	0.844070
C87	C	1.068958	-0.512359	0.302275
C88	C	1.568958	-0.012359	0.802275
C89	C	1.138599	-0.512335	0.302307
C90	C	1.638599	-0.012335	0.802307
C91	C	0.905586	-0.512393	0.465625
C92	C	1.405586	-0.012393	0.965625
C93	C	0.905609	-0.512383	0.535267
C94	C	1.405609	-0.012383	1.035267
C95	C	0.905581	-0.234793	0.302227
C96	C	1.405581	0.265207	0.802227
C97	C	0.905600	-0.116488	0.302237
C98	C	1.405600	0.383512	0.802237
C99	C	0.905519	-0.512359	0.139414
C100	C	1.405519	-0.012359	0.639414
C101	C	0.905618	-0.512068	0.069774
C102	C	1.405618	-0.012068	0.569774
C103	C	0.945692	-0.444291	0.568005
C104	C	1.445692	0.055709	1.068005
C105	C	0.945691	-0.444245	0.633440
C106	C	1.445691	0.055755	1.133440
C107	C	0.905613	-0.512311	0.666135
C108	C	1.405613	-0.012311	1.166135
C109	C	0.865523	-0.580408	0.633389
C110	C	1.365523	-0.080408	1.133389
C111	C	0.865520	-0.580445	0.567955
C112	C	1.365520	-0.080445	1.067955
C113	C	0.900656	-0.608151	0.769804
C114	C	1.400656	-0.108151	1.269804
C115	C	0.900663	-0.608116	0.835237
C116	C	1.400663	-0.108116	1.335237
C117	C	0.905617	-0.512198	0.867956
C118	C	1.405617	-0.012198	1.367956
C119	C	0.910578	-0.416312	0.835234
C120	C	1.410578	0.083688	1.335234
C121	C	0.910576	-0.416349	0.769799
C122	C	1.410576	0.083651	1.269799
C123	C	0.905611	-0.512279	0.737087
C124	C	1.405611	-0.012279	1.237087
C125	C	0.945701	-0.444051	0.971647
C126	C	1.445701	0.055949	1.471647
C127	C	0.945696	-0.444003	1.037083
C128	C	1.445696	0.055997	1.537083
C129	C	0.865531	-0.580176	1.037031
C130	C	1.365531	-0.080176	1.537031
C131	C	0.865533	-0.580214	0.971595
C132	C	1.365533	-0.080214	1.471595
C133	C	0.905622	-0.512153	0.938907
C134	C	1.405622	-0.012153	1.438907
H135	H	0.667056	-0.636209	0.374683
H136	H	1.167056	-0.136209	0.874683
Cl137	Cl	0.479564	-0.493200	0.174774
Cl138	Cl	0.979564	0.006800	0.674774
H139	H	0.800103	-0.945534	0.273805
H140	H	1.300103	-0.445534	0.773805
H141	H	1.011093	-1.078198	0.330621
H142	H	1.511093	-0.578198	0.830621
Cl143	Cl	0.996094	-0.358484	0.930550
Cl144	Cl	1.496094	0.141516	1.430550
Cl145	Cl	0.130149	-0.358454	0.212020
Cl146	Cl	0.630149	0.141546	0.712020
Cl147	Cl	0.809050	-1.094951	0.398720
Cl148	Cl	1.309050	-0.594951	0.898720
Cl149	Cl	0.533785	-0.358593	0.211877
Cl150	Cl	1.033785	0.141407	0.711877
Cl151	Cl	0.681479	-0.358631	0.211826
Cl152	Cl	1.181479	0.141369	0.711826
H153	H	0.465317	-0.527945	0.404589
H154	H	0.965317	-0.027945	0.904589
H155	H	0.263420	-0.636069	0.374832
H156	H	0.763420	-0.136069	0.874832
H157	H	0.914613	-0.338207	0.861872
H158	H	1.414613	0.161793	1.361872
Cl159	Cl	1.002149	-0.928472	0.205890
Cl160	Cl	1.502149	-0.428472	0.705890
H161	H	0.263355	-0.388697	0.229686
H162	H	0.763355	0.111303	0.729686
H163	H	0.933754	-0.945394	0.407820
H164	H	1.433754	-0.445394	0.907820
H165	H	0.346605	-0.527898	0.404631
H166	H	0.846605	-0.027898	0.904631
Cl167	Cl	0.870384	-1.095448	0.170406
Cl168	Cl	1.370384	-0.595448	0.670406
H169	H	0.978334	-0.388869	0.541394
H170	H	1.478334	0.111131	1.041394
Cl171	Cl	0.996072	-0.358615	0.674606
Cl172	Cl	1.496072	0.141385	1.174606
Cl173	Cl	0.130229	-0.666203	0.392600
Cl174	Cl	0.630229	-0.166203	0.892600
H175	H	0.914613	-0.338275	0.743159
H176	H	1.414613	0.161725	1.243159
Cl177	Cl	0.996101	-0.358409	1.078241
Cl178	Cl	1.496101	0.141591	1.578241
Cl179	Cl	0.331876	-0.493138	0.174829
Cl180	Cl	0.831876	0.006862	0.674829
Cl181	Cl	0.815142	-0.665736	1.078127
Cl182	Cl	1.315142	-0.165736	1.578127
H183	H	0.832897	-0.635669	0.944940
H184	H	1.332897	-0.135669	1.444940
Cl185	Cl	0.894433	-0.728658	0.876367
Cl186	Cl	1.394433	-0.228658	1.376367
H187	H	0.896454	-0.686239	0.743170
H188	H	1.396454	-0.186239	1.243170
Cl189	Cl	0.815137	-0.665973	0.674490
Cl190	Cl	1.315137	-0.165973	1.174490
H191	H	0.832877	-0.635892	0.541300
H192	H	1.332877	-0.135892	1.041300
H193	H	0.548349	-0.636159	0.374730
H194	H	1.048349	-0.136159	0.874730
