data_functionalizedCrystal
_audit_creation_method	'MofGen! by Chris Wilmer'
_symmetry_space_group_name_H-M	'P1'
_symmetry_Int_Tables_number	1
_symmetry_cell_setting	triclinic
loop_
_symmetry_equiv_pos_as_xyz
  x,y,z
_cell_length_a	16.959455
_cell_length_b	18.101396
_cell_length_c	16.959447
_cell_angle_alpha	90.028837
_cell_angle_beta	89.979626
_cell_angle_gamma	89.965957
loop_
_atom_site_label
_atom_site_type_symbol
_atom_site_fract_x
_atom_site_fract_y
_atom_site_fract_z
Zn1	Zn	1.208291	0.294874	-0.447044
Zn2	Zn	1.208174	0.418727	-0.314869
Zn3	Zn	1.076119	0.294897	-0.314868
Zn4	Zn	1.076045	0.418672	-0.446994
O5	O	1.142157	0.356792	-0.380944
O6	O	1.318886	0.311317	-0.429533
O7	O	1.190639	0.402333	-0.204258
O8	O	1.093732	0.191261	-0.332422
O9	O	1.318800	0.402311	-0.332424
O10	O	1.190838	0.191244	-0.429532
O11	O	1.093619	0.311356	-0.204257
O12	O	0.965498	0.311303	-0.332373
O13	O	1.093605	0.402217	-0.557612
O14	O	0.965444	0.402239	-0.429445
O15	O	1.190766	0.311263	-0.557649
O16	O	1.190567	0.522352	-0.332375
O17	O	1.093492	0.522312	-0.429447
C18	C	0.936791	0.356768	-0.380904
C19	C	0.848934	0.356776	-0.380906
C20	C	0.477403	0.404126	-0.330354
C21	C	0.477514	0.309520	-0.431630
C22	C	0.560060	0.309508	-0.431611
C23	C	0.601281	0.356806	-0.380963
C24	C	0.559957	0.404117	-0.330335
C25	C	0.601390	0.262203	-0.482244
C26	C	0.683941	0.262190	-0.482228
C27	C	0.725164	0.309485	-0.431575
C28	C	0.683835	0.356797	-0.380944
C29	C	0.725056	0.404096	-0.330296
C30	C	0.683728	0.451404	-0.279660
C31	C	0.601180	0.451412	-0.279682
C32	C	0.807713	0.309477	-0.431554
C33	C	0.807610	0.404086	-0.330277
C34	C	1.142030	0.549203	-0.380923
C35	C	1.142048	0.631517	-0.380940
C36	C	1.142189	0.930608	-0.380986
C37	C	1.081257	0.899288	-0.442212
C38	C	1.080977	0.813670	-0.442020
C39	C	1.142119	0.782225	-0.380964
C40	C	1.119569	0.813379	-0.297658
C41	C	1.119167	0.899024	-0.298025
C42	C	1.225808	0.898955	-0.402333
C43	C	1.225325	0.813304	-0.404159
C44	C	1.142081	0.698366	-0.380947
C45	C	1.142225	1.014467	-0.380999
C46	C	1.348325	0.356817	-0.380984
C47	C	1.436182	0.356828	-0.381002
C48	C	1.142190	0.356731	-0.587112
C49	C	1.142204	0.356705	-0.674969
C50	C	1.142278	1.163630	-0.380985
C51	C	1.142259	1.081316	-0.381010
C52	C	1.091712	0.403982	-1.046428
C53	C	1.192886	0.309272	-1.046462
C54	C	1.192865	0.309287	-0.963916
C55	C	1.142267	0.356652	-0.922622
C56	C	1.091691	0.404001	-0.963874
C57	C	1.243446	0.261944	-0.922657
C58	C	1.243427	0.261959	-0.840106
C59	C	1.192825	0.309320	-0.798811
C60	C	1.142246	0.356671	-0.840068
C61	C	1.091649	0.404035	-0.798775
C62	C	1.041065	0.451383	-0.840031
C63	C	1.041088	0.451363	-0.922579
C64	C	1.192802	0.309340	-0.716263
C65	C	1.091628	0.404054	-0.716221
C66	C	1.142170	0.356800	-0.175578
C67	C	1.142309	0.356618	-0.087722
H68	H	0.841167	0.442601	-0.289030
N69	N	0.558976	0.499736	-0.227957
N70	N	0.568151	0.494740	-0.155027
H71	H	0.538342	0.528870	-0.118497
N72	N	0.725851	0.499719	-0.227938
N73	N	0.799555	0.499705	-0.227940
H74	H	0.829309	0.533827	-0.191414
H75	H	1.050525	0.442529	-1.080022
N76	N	1.003980	0.926372	-0.424695
N77	N	0.993586	0.968640	-0.367314
H78	H	0.939009	0.987771	-0.354940
N79	N	1.043697	0.786570	-0.274573
N80	N	0.988948	0.831049	-0.260959
H81	H	0.935360	0.812117	-0.244659
H82	H	1.050417	0.442618	-0.682606
H83	H	0.443751	0.442642	-0.289125
H84	H	1.234084	0.270713	-1.080088
N85	N	0.849939	0.261168	-0.483271
N86	N	0.896021	0.287279	-0.533576
H87	H	0.925844	0.253158	-0.570104
N88	N	0.435398	0.261220	-0.483365
N89	N	0.361695	0.261240	-0.483379
H90	H	0.331946	0.227126	-0.519918
H91	H	1.019001	0.793244	-0.427879
H92	H	1.161622	0.919745	-0.250851
N93	N	1.295090	0.213582	-0.797983
N94	N	1.289899	0.145245	-0.807230
H95	H	1.326385	0.111076	-0.777481
N96	N	0.559273	0.213904	-0.533978
N97	N	0.485569	0.213920	-0.533984
H98	H	0.455819	0.179807	-0.570523
H99	H	0.717584	0.223668	-0.523458
H100	H	1.284645	0.223387	-0.956285
H101	H	1.058042	0.919064	-0.279943
N102	N	1.098677	0.787250	-0.519513
N103	N	1.111322	0.832064	-0.574117
H104	H	1.123820	0.813408	-0.628851
H105	H	1.233988	0.270793	-0.682676
N106	N	1.098820	0.925014	-0.519963
N107	N	1.156444	0.966739	-0.531162
H108	H	1.168865	0.984894	-0.586079
N109	N	1.173503	0.787830	-0.238874
N110	N	1.229295	0.746275	-0.257768
H111	H	1.267388	0.728230	-0.216253
H112	H	1.246362	0.920502	-0.462046
N113	N	1.246652	0.787754	-0.481071
N114	N	1.200785	0.746807	-0.518707
H115	H	1.215843	0.728759	-0.573027
N116	N	0.989382	0.499774	-0.797859
N117	N	0.994571	0.568108	-0.807061
H118	H	0.958071	0.602284	-0.777276
N119	N	1.285298	0.786444	-0.352300
N120	N	1.297625	0.718563	-0.346671
H121	H	1.339978	0.699594	-0.310037
N122	N	1.282750	0.924361	-0.346385
N123	N	1.261946	0.965599	-0.291008
H124	H	1.302155	0.983545	-0.251491
H125	H	0.999908	0.489912	-0.956177
