data_functionalizedCrystal
_audit_creation_method	'MofGen! by Chris Wilmer'
_symmetry_space_group_name_H-M	'P1'
_symmetry_Int_Tables_number	1
_symmetry_cell_setting	triclinic
loop_
_symmetry_equiv_pos_as_xyz
  x,y,z
_cell_length_a	15.944499
_cell_length_b	16.992695
_cell_length_c	14.421503
_cell_angle_alpha	89.997542
_cell_angle_beta	89.989923
_cell_angle_gamma	92.927084
loop_
_atom_site_label
_atom_site_type_symbol
_atom_site_fract_x
_atom_site_fract_y
_atom_site_fract_z
O1	O	1.121325	-0.100924	-0.077169
O2	O	0.877608	-0.113434	-0.077158
O3	O	0.998489	0.006963	-0.077156
O4	O	1.000443	-0.221322	-0.077171
O5	O	0.998470	0.006949	0.077067
O6	O	0.877589	-0.113448	0.077065
O7	O	1.121305	-0.100938	0.077055
Cu8	Cu	0.999445	-0.107194	0.091142
Cu9	Cu	0.999468	-0.107178	-0.091245
O10	O	1.000424	-0.221336	0.077052
C11	C	0.846269	-0.112929	-0.000045
C12	C	0.752918	-0.111394	-0.000041
C13	C	0.466073	-0.181341	-0.000060
C14	C	0.524673	-0.144974	-0.076099
C15	C	0.416907	-0.105815	-0.000062
C16	C	0.524639	-0.144967	0.075953
C17	C	0.582000	-0.108560	-0.000050
C18	C	0.474278	-0.069427	-0.076165
C19	C	0.474238	-0.069430	0.075956
C20	C	0.532817	-0.033008	-0.000102
C21	C	0.321801	-0.104236	-0.000070
C22	C	0.677105	-0.110133	-0.000049
C23	C	0.995966	0.036169	-0.000044
C24	C	0.988466	0.123212	-0.000044
C25	C	1.152644	-0.101443	-0.000060
C26	C	1.245995	-0.102979	-0.000071
C27	C	1.002947	-0.250541	-0.000061
C28	C	1.010447	-0.337584	-0.000067
N29	N	0.999435	-0.107205	0.219423
C30	C	1.060832	0.173461	-0.000046
C31	C	1.053779	0.255247	-0.000055
C32	C	0.974361	0.286782	-0.000055
C33	C	0.901989	0.236526	-0.000055
C34	C	0.909042	0.154742	-0.000054
C35	C	0.945129	0.530376	-0.000066
C36	C	0.938082	0.612167	-0.000065
C37	C	1.089872	0.630882	-0.000067
C38	C	1.096918	0.549095	-0.000059
C39	C	1.024547	0.498847	-0.000065
N40	N	0.967150	0.370380	-0.000061
N41	N	1.031758	0.415250	-0.000066
N42	N	0.999485	-0.107161	-0.219527
C43	C	0.944061	-0.163313	0.530875
C44	C	0.922327	-0.092680	0.469052
C45	C	0.999467	-0.107174	0.591312
C46	C	1.021145	-0.177820	0.469041
C47	C	0.999449	-0.107193	0.408591
C48	C	0.977694	-0.036506	0.530850
C49	C	1.076548	-0.121692	0.530844
C50	C	1.054843	-0.051008	0.469049
C51	C	0.999476	-0.107164	0.696573
C52	C	0.999441	-0.107195	0.303332
H53	H	1.112708	0.296157	-0.000055
N54	N	1.162875	-0.137988	0.566836
H55	H	1.162356	-0.137343	0.636864
H56	H	1.204852	-0.096144	0.543304
H57	H	1.039499	-0.237559	0.441908
N58	N	0.867074	0.476188	-0.000070
H59	H	0.866605	0.441831	0.057097
H60	H	0.866672	0.441896	-0.057282
H61	H	0.451972	-0.037518	0.140247
N62	N	0.427479	-0.264361	-0.000152
H63	H	0.473469	-0.303086	-0.000786
H64	H	0.391140	-0.272528	-0.057040
H65	H	1.161589	0.523426	-0.000059
N66	N	1.146492	0.139454	-0.000038
H67	H	1.178454	0.157778	-0.057210
H68	H	1.139911	0.080025	0.000003
N69	N	0.852418	0.646179	-0.000075
H70	H	0.858935	0.705613	-0.000070
H71	H	0.820497	0.627793	0.057096
N72	N	0.554059	-0.187304	0.161103
H73	H	0.534875	-0.159349	0.218538
H74	H	0.617384	-0.187596	0.160703
H75	H	0.837325	0.262208	-0.000061
H76	H	0.857135	-0.080406	0.441904
H77	H	1.148793	0.671802	-0.000064
H78	H	0.850114	0.113829	-0.000052
N79	N	0.554128	-0.187270	-0.161269
H80	H	0.529699	-0.243292	-0.161221
H81	H	0.617456	-0.187510	-0.160911
N82	N	0.571198	0.050088	-0.000164
H83	H	0.634439	0.048590	0.000378
H84	H	0.551978	0.078801	0.056713
H85	H	0.897176	-0.210726	0.558022
H86	H	1.101690	-0.003490	0.442075
N87	N	0.953298	0.042641	0.566652
H88	H	0.953431	0.042153	0.636683
H89	H	0.895269	0.053684	0.543561
H90	H	0.452167	-0.037506	-0.140522
