data_functionalizedCrystal
_audit_creation_method	'MofGen! by Chris Wilmer'
_symmetry_space_group_name_H-M	'P1'
_symmetry_Int_Tables_number	1
_symmetry_cell_setting	triclinic
loop_
_symmetry_equiv_pos_as_xyz
  x,y,z
_cell_length_a	14.971475
_cell_length_b	14.048226
_cell_length_c	14.971486
_cell_angle_alpha	90.008738
_cell_angle_beta	96.388096
_cell_angle_gamma	90.002917
loop_
_atom_site_label
_atom_site_type_symbol
_atom_site_fract_x
_atom_site_fract_y
_atom_site_fract_z
O1	O	-1.186942	0.079142	0.116522
O2	O	-0.686942	0.579142	0.616522
O3	O	-0.926540	0.079148	0.130491
O4	O	-0.426540	0.579148	0.630491
O5	O	-1.063720	0.079138	-0.006694
O6	O	-0.563720	0.579138	0.493306
O7	O	-1.049761	0.079152	0.253707
O8	O	-0.549761	0.579152	0.753707
O9	O	-1.063727	-0.079184	-0.006710
O10	O	-0.563727	0.420816	0.493290
O11	O	-0.926547	-0.079173	0.130475
O12	O	-0.426547	0.420827	0.630475
O13	O	-1.186948	-0.079180	0.116506
O14	O	-0.686948	0.420820	0.616506
Zn15	Zn	-1.056748	-0.104313	0.123488
Zn16	Zn	-0.556748	0.395687	0.623488
Zn17	Zn	-1.056740	0.104282	0.123509
Zn18	Zn	-0.556740	0.604282	0.623509
O19	O	-1.049768	-0.079170	0.253691
O20	O	-0.549768	0.420830	0.753691
C21	C	-0.893218	-0.000012	0.129860
C22	C	-0.393218	0.499988	0.629860
C23	C	-0.793921	-0.000010	0.127993
C24	C	-0.293921	0.499990	0.627993
C25	C	-0.747280	-0.086312	0.127105
C26	C	-0.247280	0.413688	0.627105
C27	C	-0.653981	-0.086312	0.125337
C28	C	-0.153981	0.413688	0.625337
C29	C	-0.607324	-0.000010	0.124463
C30	C	-0.107324	0.499990	0.624463
C31	C	-0.653972	0.086298	0.125348
C32	C	-0.153972	0.586298	0.625348
C33	C	-0.747270	0.086298	0.127110
C34	C	-0.247270	0.586298	0.627110
C35	C	-0.459510	0.086293	0.121678
C36	C	0.040490	0.586293	0.621678
C37	C	-0.366205	0.086294	0.119918
C38	C	0.133795	0.586294	0.619918
C39	C	-0.366220	-0.086317	0.119905
C40	C	0.133780	0.413683	0.619905
C41	C	-0.459518	-0.086317	0.121667
C42	C	0.040482	0.413683	0.621667
C43	C	-0.506160	-0.000009	0.122554
C44	C	-0.006160	0.499991	0.622554
C45	C	-1.063099	-0.000023	-0.040026
C46	C	-0.563099	0.499977	0.459974
C47	C	-1.061228	-0.000022	-0.139323
C48	C	-0.561228	0.499978	0.360677
C49	C	-0.220269	-0.000016	0.117144
C50	C	0.279731	0.499984	0.617144
C51	C	-0.319564	-0.000008	0.119030
C52	C	0.180436	0.499992	0.619030
N53	N	-1.056735	0.246642	0.123517
N54	N	-0.556735	0.746642	0.623517
N55	N	-1.056761	-0.246674	0.123473
N56	N	-0.556761	0.253326	0.623473
C57	C	-1.110946	0.703510	0.177927
C58	C	-0.610946	1.203510	0.677927
C59	C	-1.110946	0.603852	0.177933
C60	C	-0.610946	1.103852	0.677933
C61	C	-1.056754	0.554012	0.123488
C62	C	-0.556754	1.054012	0.623488
C63	C	-1.002566	0.603835	0.069027
C64	C	-0.502566	1.103835	0.569027
C65	C	-1.002572	0.703491	0.069018
C66	C	-0.502572	1.203491	0.569018
C67	C	-1.002556	0.396121	0.069052
C68	C	-0.502556	0.896121	0.569052
C69	C	-1.002549	0.296458	0.069063
C70	C	-0.502549	0.796458	0.569063
C71	C	-1.110930	0.296482	0.177967
C72	C	-0.610930	0.796482	0.677967
C73	C	-1.110936	0.396138	0.177958
C74	C	-0.610936	0.896138	0.677958
C75	C	-1.056746	0.445954	0.123498
C76	C	-0.556746	0.945954	0.623498
C77	C	-1.141818	-0.000024	-0.196552
C78	C	-0.641818	0.499976	0.303448
C79	C	-1.140055	-0.000015	-0.289851
C80	C	-0.640055	0.499985	0.210149
C81	C	-1.057701	-0.000009	-0.325920
C82	C	-0.557701	0.499991	0.174080
C83	C	-0.977106	-0.000004	-0.268685
C84	C	-0.477106	0.499996	0.231315
C85	C	-0.978870	-0.000007	-0.175387
C86	C	-0.478870	0.499993	0.324613
C87	C	-0.973434	-0.000000	-0.463147
C88	C	-0.473434	0.500000	0.036853
C89	C	-0.971670	0.000001	-0.556451
C90	C	-0.471670	0.500001	-0.056451
C91	C	-1.134620	-0.000008	-0.577611
C92	C	-0.634620	0.499992	-0.077611
C93	C	-1.136384	-0.000011	-0.484314
C94	C	-0.636384	0.499989	0.015686
C95	C	-1.055788	-0.000007	-0.427084
C96	C	-0.555788	0.499993	0.072916
C97	C	-1.050389	-0.000007	0.287024
C98	C	-0.550389	0.499993	0.787024
C99	C	-1.052260	-0.000002	0.386321
C100	C	-0.552260	0.499998	0.886321
H101	H	-0.615978	0.156567	0.124630
H102	H	-0.115978	0.656567	0.624630
H103	H	-0.907804	0.000005	-0.416552
H104	H	-0.407804	0.500005	0.083448
H105	H	-0.328220	0.156569	0.119207
H106	H	0.171780	0.656569	0.619207
H107	H	-0.958448	0.744050	0.024676
H108	H	-0.458448	1.244050	0.524676
H109	H	-0.910052	0.000007	-0.298059
H110	H	-0.410052	0.500007	0.201941
H111	H	-0.913245	-0.000004	-0.128792
H112	H	-0.413245	0.499996	0.371208
H113	H	-1.203443	-0.000022	-0.454950
H114	H	-0.703443	0.499978	0.045050
H115	H	-0.904610	-0.000010	-0.585815
H116	H	-0.404610	0.499990	-0.085815
H117	H	-1.200244	-0.000008	-0.624212
H118	H	-0.700244	0.499992	-0.124212
H119	H	-0.785260	-0.156589	0.127824
H120	H	-0.285260	0.343411	0.627824
H121	H	-0.785244	0.156574	0.127835
H122	H	-0.285244	0.656574	0.627835
H123	H	-0.616012	-0.156588	0.124599
H124	H	-0.116012	0.343412	0.624599
O125	O	-1.221896	0.000015	-0.161667
O126	O	-0.721896	0.500015	0.338333
C127	C	-1.292647	-0.000006	-0.232190
C128	C	-0.792647	0.499994	0.267810
H129	H	-1.267500	0.029967	-0.295588
H130	H	-0.767500	0.529967	0.204412
H131	H	-1.350135	0.045961	-0.212629
H132	H	-0.850135	0.545961	0.287371
H133	H	-1.317517	-0.075960	-0.245379
H134	H	-0.817517	0.424040	0.254621
H135	H	-0.958447	0.563248	0.024693
H136	H	-0.458447	1.063248	0.524693
O137	O	-0.504709	-0.170235	0.122476
O138	O	-0.004709	0.329765	0.622476
C139	C	-0.443535	-0.246413	0.121337
C140	C	0.056465	0.253587	0.621337
H141	H	-0.380701	-0.221121	0.091787
H142	H	0.119299	0.278879	0.591787
H143	H	-0.476136	-0.306775	0.078450
H144	H	0.023864	0.193225	0.578450
H145	H	-0.424304	-0.272944	0.192851
H146	H	0.075696	0.227056	0.692851
O147	O	-0.320905	-0.170137	0.118870
O148	O	0.179095	0.329863	0.618870
C149	C	-0.276983	-0.175298	0.040449
C150	C	0.223017	0.324702	0.540449
H151	H	-0.312123	-0.126319	-0.013113
H152	H	0.187877	0.373681	0.486887
H153	H	-0.279315	-0.251629	0.014434
H154	H	0.220685	0.248371	0.514434
H155	H	-0.203996	-0.152120	0.056609
H156	H	0.296004	0.347880	0.556609
H157	H	-0.497482	0.156575	0.122401
H158	H	0.002518	0.656575	0.622401
H159	H	-1.205679	-0.000019	-0.336444
H160	H	-0.705679	0.499981	0.163556
H161	H	-1.155071	0.563296	0.222273
H162	H	-0.655071	1.063296	0.722273
O163	O	-1.163671	0.751772	0.230841
O164	O	-0.663671	1.251772	0.730841
C165	C	-1.211480	0.686428	0.278921
C166	C	-0.711480	1.186428	0.778921
H167	H	-1.216724	0.615380	0.241908
H168	H	-0.716724	1.115380	0.741908
H169	H	-1.281795	0.715214	0.284711
H170	H	-0.781795	1.215214	0.784711
H171	H	-1.174583	0.675850	0.349019
H172	H	-0.674583	1.175850	0.849019
H173	H	-1.155059	0.436715	0.222296
H174	H	-0.655059	0.936715	0.722296
O175	O	-1.163681	0.248056	0.230731
O176	O	-0.663681	0.748056	0.730731
C177	C	-1.224732	0.190379	0.176398
C178	C	-0.724732	0.690379	0.676398
H179	H	-1.234392	0.220392	0.105238
H180	H	-0.734392	0.720392	0.605238
H181	H	-1.292068	0.189256	0.205223
H182	H	-0.792068	0.689256	0.705223
H183	H	-1.197104	0.114851	0.174798
H184	H	-0.697104	0.614851	0.674798
O185	O	-0.950015	0.248089	0.016036
O186	O	-0.450015	0.748089	0.516036
C187	C	-0.974828	0.272472	-0.074683
C188	C	-0.474828	0.772472	0.425317
H189	H	-1.046940	0.299886	-0.083090
H190	H	-0.546940	0.799886	0.416910
H191	H	-0.969665	0.206936	-0.118729
H192	H	-0.469665	0.706936	0.381271
H193	H	-0.927943	0.330308	-0.095588
H194	H	-0.427943	0.830308	0.404412
O195	O	-0.949782	0.444473	0.016255
O196	O	-0.449782	0.944473	0.516255
C197	C	-0.858997	0.420120	0.040720
C198	C	-0.358997	0.920120	0.540720
H199	H	-0.850292	0.392743	0.112839
H200	H	-0.350292	0.892743	0.612839
H201	H	-0.815012	0.485662	0.035352
H202	H	-0.315012	0.985662	0.535352
H203	H	-0.838273	0.362266	-0.006249
H204	H	-0.338273	0.862266	0.493751
