data_functionalizedCrystal
_audit_creation_method	'MofGen! by Chris Wilmer'
_symmetry_space_group_name_H-M	'P1'
_symmetry_Int_Tables_number	1
_symmetry_cell_setting	triclinic
loop_
_symmetry_equiv_pos_as_xyz
  x,y,z
_cell_length_a	19.188930
_cell_length_b	19.188928
_cell_length_c	15.072220
_cell_angle_alpha	90.008546
_cell_angle_beta	89.973638
_cell_angle_gamma	96.855705
loop_
_atom_site_label
_atom_site_type_symbol
_atom_site_fract_x
_atom_site_fract_y
_atom_site_fract_z
O1	O	0.926153	-0.087163	-0.074082
O2	O	1.259486	0.246170	0.259251
O3	O	1.592819	0.579504	0.592585
O4	O	0.722841	-0.098897	-0.074023
O5	O	1.056175	0.234436	0.259310
O6	O	1.389508	0.567769	0.592644
O7	O	0.830365	0.008626	-0.074032
O8	O	1.163698	0.341959	0.259302
O9	O	1.497032	0.675292	0.592635
O10	O	0.818629	-0.194686	-0.074073
O11	O	1.151962	0.138647	0.259260
O12	O	1.485296	0.471981	0.592593
O13	O	0.830339	0.008620	0.073533
O14	O	1.163672	0.341953	0.406867
O15	O	1.497005	0.675286	0.740200
O16	O	0.722815	-0.098903	0.073542
O17	O	1.056148	0.234430	0.406875
O18	O	1.389482	0.567763	0.740209
O19	O	0.926126	-0.087169	0.073483
O20	O	1.259460	0.246164	0.406816
O21	O	1.592793	0.579498	0.740150
Zn22	Zn	0.824466	-0.093037	0.096942
Zn23	Zn	1.157800	0.240296	0.430275
Zn24	Zn	1.491133	0.573629	0.763608
Zn25	Zn	0.824501	-0.093029	-0.097482
Zn26	Zn	1.157835	0.240304	0.235852
Zn27	Zn	1.491168	0.573637	0.569185
O28	O	0.818603	-0.194692	0.073492
O29	O	1.151936	0.138641	0.406825
O30	O	1.485269	0.471975	0.740158
C31	C	0.696817	-0.098520	-0.000233
C32	C	1.030150	0.234813	0.333101
C33	C	1.363484	0.568146	0.666434
C34	C	0.619313	-0.097380	-0.000209
C35	C	0.952646	0.235954	0.333124
C36	C	1.285979	0.569287	0.666457
C37	C	0.574388	-0.160471	-0.000236
C38	C	0.907721	0.172863	0.333097
C39	C	1.241055	0.506196	0.666431
C40	C	0.501564	-0.159399	-0.000245
C41	C	0.834898	0.173934	0.333088
C42	C	1.168231	0.507268	0.666421
C43	C	0.473668	-0.095233	-0.000246
C44	C	0.807002	0.238101	0.333087
C45	C	1.140335	0.571434	0.666421
C46	C	0.518603	-0.032133	-0.000214
C47	C	0.851936	0.301200	0.333119
C48	C	1.185269	0.634533	0.666452
C49	C	0.591425	-0.033207	-0.000196
C50	C	0.924758	0.300126	0.333138
C51	C	1.258091	0.633460	0.666471
N52	N	0.365698	-0.046184	-0.050495
N53	N	0.699031	0.287150	0.282839
N54	N	1.032364	0.620483	0.616172
N55	N	0.296519	-0.045168	-0.050514
N56	N	0.629852	0.288165	0.282819
N57	N	0.963186	0.621498	0.616153
C58	C	0.254260	-0.091995	-0.000300
C59	C	0.587593	0.241339	0.333034
C60	C	0.920926	0.574672	0.666367
N61	N	0.283791	-0.139885	0.049924
N62	N	0.617124	0.193448	0.383257
N63	N	0.950458	0.526781	0.716590
N64	N	0.352976	-0.140903	0.049939
N65	N	0.686309	0.192430	0.383272
N66	N	1.019642	0.525764	0.716606
C67	C	0.394706	-0.094062	-0.000265
C68	C	0.728039	0.239272	0.333068
C69	C	1.061372	0.572605	0.666401
C70	C	0.130371	-0.153928	-0.000336
C71	C	0.463704	0.179406	0.332998
C72	C	0.797037	0.512739	0.666331
C73	C	0.057546	-0.152853	-0.000340
C74	C	0.390879	0.180480	0.332994
C75	C	0.724213	0.513813	0.666327
C76	C	0.074586	-0.025586	-0.000317
C77	C	0.407919	0.307747	0.333016
C78	C	0.741253	0.641080	0.666349
C79	C	0.147409	-0.026662	-0.000304
C80	C	0.480742	0.306671	0.333029
C81	C	0.814076	0.640004	0.666362
C82	C	0.175297	-0.090835	-0.000318
C83	C	0.508630	0.242498	0.333016
C84	C	0.841964	0.575832	0.666349
C85	C	0.829972	0.034634	-0.000245
C86	C	1.163305	0.367967	0.333088
C87	C	1.496639	0.701300	0.666421
C88	C	0.828832	0.112138	-0.000233
C89	C	1.162165	0.445472	0.333100
C90	C	1.495499	0.778805	0.666433
C91	C	0.891923	0.157062	-0.000245
C92	C	1.225257	0.490396	0.333088
C93	C	1.558590	0.823729	0.666421
C94	C	0.890852	0.229886	-0.000256
C95	C	1.224185	0.563219	0.333078
C96	C	1.557519	0.896553	0.666411
C97	C	0.826686	0.257783	-0.000236
C98	C	1.160020	0.591116	0.333097
C99	C	1.493353	0.924449	0.666431
C100	C	0.763587	0.212849	-0.000229
C101	C	1.096920	0.546182	0.333104
C102	C	1.430253	0.879516	0.666438
C103	C	0.764660	0.140027	-0.000228
C104	C	1.097993	0.473360	0.333106
C105	C	1.431326	0.806693	0.666439
N106	N	0.777631	0.365786	0.050003
N107	N	1.110964	0.699119	0.383336
N108	N	1.444298	1.032452	0.716670
N109	N	0.776616	0.434964	0.050004
N110	N	1.109949	0.768298	0.383337
N111	N	1.443283	1.101631	0.716670
C112	C	0.823450	0.477192	-0.000242
C113	C	1.156783	0.810525	0.333091
C114	C	1.490117	1.143858	0.666425
N115	N	0.871348	0.447628	-0.050477
N116	N	1.204681	0.780961	0.282856
N117	N	1.538015	1.114295	0.616190
N118	N	0.872365	0.378443	-0.050474
N119	N	1.205698	0.711777	0.282860
N120	N	1.539031	1.045110	0.616193
C121	C	0.825516	0.336745	-0.000238
C122	C	1.158849	0.670079	0.333095
C123	C	1.492183	1.003412	0.666429
C124	C	0.885384	0.601080	-0.000266
C125	C	1.218718	0.934413	0.333067
C126	C	1.552051	1.267747	0.666400
C127	C	0.884311	0.673905	-0.000282
C128	C	1.217644	1.007238	0.333051
C129	C	1.550977	1.340572	0.666385
C130	C	0.757043	0.656866	-0.000247
C131	C	1.090377	0.990199	0.333087
C132	C	1.423710	1.323533	0.666420
C133	C	0.758119	0.584043	-0.000240
C134	C	1.091452	0.917376	0.333094
C135	C	1.424786	1.250710	0.666427
C136	C	0.822291	0.556155	-0.000245
C137	C	1.155625	0.889488	0.333088
C138	C	1.488958	1.222821	0.666421
C139	C	0.952151	-0.087546	-0.000309
C140	C	1.285484	0.245787	0.333024
C141	C	1.618817	0.579121	0.666357
C142	C	1.029655	-0.088687	-0.000339
C143	C	1.362988	0.244647	0.332995
C144	C	1.696322	0.577980	0.666328
N145	N	0.824448	-0.093042	0.229631
N146	N	1.157781	0.240291	0.562964
N147	N	1.491114	0.573625	0.896297
C148	C	0.818998	0.779300	-0.000284
C149	C	1.152331	1.112634	0.333049
C150	C	1.485664	1.445967	0.666383
C151	C	0.820144	0.701797	-0.000264
C152	C	1.153477	1.035130	0.333069
C153	C	1.486811	1.368463	0.666403
N154	N	0.824526	-0.093019	-0.230171
N155	N	1.157859	0.240315	0.103163
N156	N	1.491192	0.573648	0.436496
C157	C	0.824500	-0.093026	0.588832
C158	C	1.157833	0.240307	0.922165
C159	C	1.491167	0.573640	1.255499
C160	C	0.766774	-0.150368	0.551230
C161	C	1.100107	0.182965	0.884563
C162	C	1.433441	0.516299	1.217896
C163	C	0.766905	-0.150576	0.448404
C164	C	1.100239	0.182757	0.781737
C165	C	1.433572	0.516090	1.115071
C166	C	0.824473	-0.093034	0.410628
C167	C	1.157807	0.240299	0.743961
C168	C	1.491140	0.573632	1.077295
C169	C	0.897276	-0.108724	0.447894
C170	C	1.230609	0.224610	0.781227
C171	C	1.563942	0.557943	1.114560
C172	C	0.896952	-0.109131	0.550752
C173	C	1.230285	0.224203	0.884085
C174	C	1.563619	0.557536	1.217418
C175	C	0.810073	-0.019824	0.550953
C176	C	1.143407	0.313509	0.884286
C177	C	1.476740	0.646842	1.217620
C178	C	0.808400	-0.020318	0.448090
C179	C	1.141734	0.313015	0.781423
C180	C	1.475067	0.646349	1.114757
C181	C	0.824463	-0.093037	0.309915
C182	C	1.157796	0.240296	0.643248
C183	C	1.491130	0.573629	0.976581
C184	C	0.824515	-0.093025	0.689545
C185	C	1.157848	0.240308	1.022879
C186	C	1.491182	0.573642	1.356212
H187	H	0.464980	-0.210777	-0.000265
H188	H	0.798313	0.122557	0.333068
H189	H	1.131646	0.455890	0.666402
Br190	Br	0.672490	0.523070	-0.000223
Br191	Br	1.005823	0.856404	0.333111
Br192	Br	1.339157	1.189737	0.666444
Br193	Br	0.873961	0.054110	0.405252
Br194	Br	1.207294	0.387443	0.738585
Br195	Br	1.540627	0.720776	1.071918
Br196	Br	0.480746	0.054950	-0.000206
Br197	Br	0.814079	0.388283	0.333127
Br198	Br	1.147413	0.721617	0.666461
H199	H	0.758151	-0.004683	0.576962
H200	H	1.091484	0.328651	0.910296
H201	H	1.424818	0.661984	1.243629
Br202	Br	-0.003426	-0.238485	-0.000368
Br203	Br	0.329908	0.094848	0.332965
Br204	Br	0.663241	0.428182	0.666299
Br205	Br	0.719140	-0.000461	0.407503
Br206	Br	1.052474	0.332872	0.740837
Br207	Br	1.385807	0.666206	1.074170
H208	H	0.937637	0.578372	-0.000275
H209	H	1.270971	0.911706	0.333058
H210	H	1.604304	1.245039	0.666392
Br211	Br	0.676266	-0.135093	0.592504
Br212	Br	1.009599	0.198240	0.925838
Br213	Br	1.342933	0.531573	1.259171
Br214	Br	0.919043	-0.196675	0.404920
Br215	Br	1.252376	0.136658	0.738253
Br216	Br	1.585710	0.469992	1.071586
H217	H	0.183988	0.024713	-0.000287
H218	H	0.517321	0.358046	0.333046
H219	H	0.850655	0.691380	0.666379
Br220	Br	0.976482	0.290866	-0.000276
Br221	Br	1.309815	0.624200	0.333058
Br222	Br	1.643149	0.957533	0.666391
H223	H	0.852173	0.022845	0.575268
H224	H	1.185506	0.356178	0.908601
H225	H	1.518839	0.689512	1.241935
H226	H	0.712783	-0.141262	0.423211
H227	H	1.046116	0.192072	0.756545
H228	H	1.379450	0.525405	1.089878
H229	H	0.935689	0.710482	-0.000297
H230	H	1.269023	1.043816	0.333037
H231	H	1.602356	1.377149	0.666370
H232	H	0.597089	-0.212725	-0.000249
H233	H	0.930423	0.120608	0.333085
H234	H	1.263756	0.453942	0.666418
Br235	Br	0.679029	0.079054	-0.000214
Br236	Br	1.012362	0.412387	0.333119
Br237	Br	1.345696	0.745720	0.666453
Br238	Br	0.168223	-0.241017	-0.000347
Br239	Br	0.501556	0.092317	0.332986
Br240	Br	0.834890	0.425650	0.666319
Br241	Br	0.669959	0.694718	-0.000229
Br242	Br	1.003293	1.028051	0.333104
Br243	Br	1.336626	1.361384	0.666438
H244	H	0.628003	0.018171	-0.000174
H245	H	0.961336	0.351504	0.333159
H246	H	1.294670	0.684838	0.666492
H247	H	0.051874	0.026659	-0.000373
H248	H	0.385207	0.359992	0.332961
H249	H	0.718541	0.693326	0.666294
H250	H	0.775835	-0.204389	0.577053
H251	H	1.109168	0.128944	0.910387
H252	H	1.442502	0.462277	1.243720
H253	H	0.944177	0.134361	-0.000253
H254	H	1.277511	0.467694	0.333080
H255	H	1.610844	0.801027	0.666414
Br256	Br	0.676504	0.250706	-0.000214
Br257	Br	1.009837	0.584040	0.333119
Br258	Br	1.343170	0.917373	0.666453
H259	H	0.941248	-0.068061	0.423420
H260	H	1.274582	0.265273	0.756754
H261	H	1.607915	0.598606	1.090087
Br262	Br	0.782188	-0.241134	0.407346
Br263	Br	1.115521	0.092199	0.740679
Br264	Br	1.448854	0.425532	1.074013
H265	H	0.941237	-0.069001	0.575622
H266	H	1.274570	0.264333	0.908955
H267	H	1.607904	0.597666	1.242289
Br268	Br	0.918198	-0.198098	0.590702
Br269	Br	1.251531	0.135235	0.924035
Br270	Br	1.584864	0.468568	1.257368
