data_functionalizedCrystal
_audit_creation_method	'MofGen! by Chris Wilmer'
_symmetry_space_group_name_H-M	'P1'
_symmetry_Int_Tables_number	1
_symmetry_cell_setting	triclinic
loop_
_symmetry_equiv_pos_as_xyz
  x,y,z
_cell_length_a	6.817900
_cell_length_b	16.255748
_cell_length_c	23.752930
_cell_angle_alpha	96.327744
_cell_angle_beta	100.066047
_cell_angle_gamma	103.490428
loop_
_atom_site_label
_atom_site_type_symbol
_atom_site_fract_x
_atom_site_fract_y
_atom_site_fract_z
V1	V	-3.988795	-0.118208	-0.178590
O2	O	-3.977031	0.004532	-0.174990
O3	O	-3.940571	-0.233282	-0.177563
O4	O	-3.923836	-0.116893	-0.256392
O5	O	-3.993883	-0.112662	-0.095615
V6	V	-4.474546	-0.103467	-0.168642
O7	O	-4.245167	-0.150543	-0.200412
O8	O	-4.668371	-0.071132	-0.146821
O9	O	-4.299563	0.011607	-0.169670
O10	O	-4.603706	-0.226207	-0.172243
O11	O	-4.586855	-0.109013	-0.251618
O12	O	-4.316298	-0.104782	-0.090841
C13	C	-3.786151	-0.261319	-0.174795
C14	C	-3.827899	-0.355397	-0.174473
C15	C	-3.764250	-0.634471	-0.170531
C16	C	-3.860311	-0.591655	-0.219630
C17	C	-3.978312	-0.694035	-0.173340
C18	C	-3.807745	-0.569221	-0.124823
C19	C	-3.904398	-0.527651	-0.173896
C20	C	-4.074947	-0.652468	-0.222473
C21	C	-4.022333	-0.630029	-0.127624
C22	C	-4.118550	-0.587244	-0.176736
C23	C	-4.020887	-0.789885	-0.173020
C24	C	-3.861842	-0.431804	-0.174220
C25	C	-3.764802	-0.112853	-0.275349
C26	C	-3.792976	-0.112539	-0.338953
C27	C	-4.149354	-0.114761	-0.736281
C28	C	-4.175848	-0.114455	-0.796043
O29	O	-4.343884	-0.117876	-0.829433
N30	N	-4.007605	-0.110065	-0.823012
C31	C	-3.812851	-0.105972	-0.790215
O32	O	-3.672179	-0.102209	-0.818641
C33	C	-3.786356	-0.106271	-0.730453
C34	C	-3.954616	-0.110670	-0.703488
C35	C	-4.317599	-0.119158	-0.709316
C36	C	-4.291106	-0.119465	-0.649558
C37	C	-4.096368	-0.115375	-0.616766
C38	C	-3.928123	-0.110977	-0.643731
C39	C	-3.591600	-0.102172	-0.697656
C40	C	-3.565119	-0.102471	-0.637891
C41	C	-3.733379	-0.106870	-0.610926
C42	C	-3.706893	-0.107194	-0.551180
N43	N	-3.875135	-0.111584	-0.524211
C44	C	-4.069873	-0.115674	-0.557004
C45	C	-3.868505	-0.105342	-0.915718
C46	C	-3.895001	-0.105048	-0.975479
C47	C	-4.257996	-0.113530	-0.981303
C48	C	-4.231501	-0.113830	-0.921542
C49	C	-4.036748	-0.109732	-0.888749
C50	C	-4.014223	-0.116320	-0.431508
C51	C	-3.987714	-0.116630	-0.371745
C52	C	-3.624719	-0.108143	-0.365926
C53	C	-3.651227	-0.107838	-0.425684
C54	C	-3.845993	-0.111923	-0.458474
O55	O	-3.538917	-0.103772	-0.517754
O56	O	-4.210510	-0.119425	-0.528568
C57	C	-4.117326	0.039639	-0.172436
C58	C	-4.054815	0.133717	-0.172762
C59	C	-4.138675	-0.108825	-0.071881
C60	C	-4.089740	-0.109134	-0.008276
H61	H	-3.791440	-0.574509	-0.258535
Br62	Br	-3.422881	-0.101882	-0.462282
H63	H	-3.614941	-0.655367	-0.167964
Br64	Br	-4.263759	-0.712502	-0.291322
H65	H	-4.428123	-0.123044	-0.627609
H66	H	-3.757989	-0.101479	-0.997430
H67	H	-4.368517	-0.117411	-0.899591
Br68	Br	-3.604180	-0.099790	-0.871221
H69	H	-4.268097	-0.566521	-0.179377
H70	H	-4.091146	-0.647196	-0.088717
Br71	Br	-3.300793	-0.096900	-0.593389
Br72	Br	-3.360441	-0.102597	-0.321411
H73	H	-3.694335	-0.533090	-0.083566
H74	H	-4.124742	-0.120214	-0.349794
H75	H	-4.416567	-0.116860	-1.008014
Br76	Br	-4.278545	-0.121862	-0.475999
Br77	Br	-4.581916	-0.124713	-0.753810
H78	H	-3.454578	-0.098590	-0.719601
