data_functionalizedCrystal
_audit_creation_method	'MofGen! by Chris Wilmer'
_symmetry_space_group_name_H-M	'P1'
_symmetry_Int_Tables_number	1
_symmetry_cell_setting	triclinic
loop_
_symmetry_equiv_pos_as_xyz
  x,y,z
_cell_length_a	19.188905
_cell_length_b	14.519709
_cell_length_c	13.596369
_cell_angle_alpha	90.006934
_cell_angle_beta	89.987547
_cell_angle_gamma	96.592650
loop_
_atom_site_label
_atom_site_type_symbol
_atom_site_fract_x
_atom_site_fract_y
_atom_site_fract_z
O1	O	0.926566	-0.115027	-0.081956
O2	O	0.723308	-0.130550	-0.081922
O3	O	0.830326	0.011484	-0.081931
O4	O	0.819548	-0.257061	-0.081947
O5	O	0.830315	0.011491	0.081652
O6	O	0.723297	-0.130543	0.081661
O7	O	0.926556	-0.115020	0.081627
Zn8	Zn	0.824925	-0.122780	0.107616
Zn9	Zn	0.824939	-0.122790	-0.107911
O10	O	0.819537	-0.257054	0.081636
C11	C	0.697289	-0.130048	-0.000126
C12	C	0.619779	-0.128550	-0.000113
C13	C	0.583390	-0.127835	-0.089285
C14	C	0.510561	-0.126418	-0.089297
C15	C	0.474126	-0.125697	-0.000133
C16	C	0.510523	-0.126418	0.089051
C17	C	0.583349	-0.127844	0.089060
N18	N	0.364906	-0.070973	0.066227
N19	N	0.295724	-0.069616	0.066212
C20	C	0.254704	-0.121401	-0.000156
N21	N	0.285480	-0.174583	-0.066524
N22	N	0.354668	-0.175936	-0.066511
C23	C	0.395158	-0.124151	-0.000133
C24	C	0.139346	-0.119150	-0.089347
C25	C	0.066515	-0.117739	-0.089356
C26	C	0.066479	-0.117729	0.088995
C27	C	0.139307	-0.119150	0.089001
C28	C	0.175737	-0.119856	-0.000173
C29	C	0.829818	0.045844	-0.000139
C30	C	0.828313	0.148216	-0.000138
C31	C	0.952574	-0.115522	-0.000171
C32	C	1.030085	-0.117020	-0.000190
C33	C	0.820045	-0.291414	-0.000158
C34	C	0.821550	-0.393786	-0.000165
N35	N	0.824920	-0.122773	0.254708
C36	C	0.822772	0.523077	-0.000163
C37	C	0.824311	0.418779	-0.000156
C38	C	0.825542	0.335650	-0.000150
C39	C	0.827081	0.231345	-0.000145
N40	N	0.824949	-0.122790	-0.255003
C41	C	0.824938	-0.122791	0.655999
C42	C	0.824931	-0.122789	0.544348
C43	C	0.824929	-0.122782	0.455357
C44	C	0.824922	-0.122779	0.343699
H45	H	0.168936	-0.119726	0.161614
N46	N	0.620590	-0.128557	-0.180379
N47	N	0.588085	-0.127919	-0.259992
H48	H	0.614358	-0.128430	-0.324330
N49	N	0.473392	-0.125687	-0.180397
N50	N	0.505926	-0.126318	-0.260006
H51	H	0.479678	-0.125800	-0.324346
N52	N	0.473297	-0.125691	0.180122
N53	N	0.408274	-0.124418	0.180102
H54	H	0.381981	-0.123910	0.244423
H55	H	0.169008	-0.119735	-0.161958
H56	H	0.036889	-0.117162	-0.161973
N57	N	0.620511	-0.128581	0.180160
N58	N	0.587975	-0.127949	0.259768
H59	H	0.614221	-0.128470	0.324109
H60	H	0.036813	-0.117148	0.161595
