data_functionalizedCrystal
_audit_creation_method	'MofGen! by Chris Wilmer'
_symmetry_space_group_name_H-M	'P1'
_symmetry_Int_Tables_number	1
_symmetry_cell_setting	triclinic
loop_
_symmetry_equiv_pos_as_xyz
  x,y,z
_cell_length_a	19.288867
_cell_length_b	14.044220
_cell_length_c	17.766277
_cell_angle_alpha	89.993125
_cell_angle_beta	89.992126
_cell_angle_gamma	88.162973
loop_
_atom_site_label
_atom_site_type_symbol
_atom_site_fract_x
_atom_site_fract_y
_atom_site_fract_z
O1	O	0.928948	0.118224	-0.062570
O2	O	1.178948	0.368224	0.187430
O3	O	1.428948	0.618224	0.437430
O4	O	1.678948	0.868224	0.687430
O5	O	0.727712	0.134169	-0.062577
O6	O	0.977712	0.384169	0.187423
O7	O	1.227712	0.634169	0.437423
O8	O	1.477712	0.884169	0.687423
O9	O	0.825310	-0.011776	-0.062566
O10	O	1.075310	0.238224	0.187434
O11	O	1.325310	0.488224	0.437434
O12	O	1.575310	0.738224	0.687434
O13	O	0.831351	0.264168	-0.062581
O14	O	1.081351	0.514168	0.187419
O15	O	1.331351	0.764168	0.437419
O16	O	1.581351	1.014168	0.687419
O17	O	0.825290	-0.011783	0.062622
O18	O	1.075290	0.238217	0.312622
O19	O	1.325290	0.488217	0.562622
O20	O	1.575290	0.738217	0.812622
O21	O	0.727693	0.134161	0.062611
O22	O	0.977693	0.384161	0.312611
O23	O	1.227693	0.634161	0.562611
O24	O	1.477693	0.884161	0.812611
O25	O	0.928929	0.118216	0.062619
O26	O	1.178929	0.368216	0.312619
O27	O	1.428929	0.618216	0.562619
O28	O	1.678929	0.868216	0.812619
Cu29	Cu	0.828309	0.126188	0.074046
Cu30	Cu	1.078309	0.376188	0.324046
Cu31	Cu	1.328309	0.626188	0.574046
Cu32	Cu	1.578309	0.876188	0.824046
Cu33	Cu	0.828332	0.126197	-0.074004
Cu34	Cu	1.078332	0.376197	0.175996
Cu35	Cu	1.328332	0.626197	0.425996
Cu36	Cu	1.578332	0.876197	0.675996
O37	O	0.831332	0.264161	0.062608
O38	O	1.081332	0.514161	0.312608
O39	O	1.331332	0.764161	0.562608
O40	O	1.581332	1.014161	0.812608
C41	C	0.701793	0.133652	0.000016
C42	C	0.951793	0.383652	0.250016
C43	C	1.201793	0.633652	0.500016
C44	C	1.451793	0.883652	0.750016
C45	C	0.624591	0.132110	0.000013
C46	C	0.874591	0.382110	0.250013
C47	C	1.124591	0.632110	0.500013
C48	C	1.374591	0.882110	0.750013
C49	C	0.068323	0.121014	-0.068218
C50	C	0.318323	0.371014	0.181782
C51	C	0.568323	0.621014	0.431782
C52	C	0.818323	0.871014	0.681782
C53	C	0.140863	0.122456	-0.068220
C54	C	0.390863	0.372456	0.181780
C55	C	0.640863	0.622456	0.431780
C56	C	0.890863	0.872456	0.681780
C57	C	0.177128	0.123178	0.000020
C58	C	0.427128	0.373178	0.250020
C59	C	0.677128	0.623178	0.500020
C60	C	0.927128	0.873178	0.750020
C61	C	0.140847	0.122433	0.068268
C62	C	0.390847	0.372433	0.318268
C63	C	0.640847	0.622433	0.568268
C64	C	0.890847	0.872433	0.818268
C65	C	0.068308	0.120981	0.068269
C66	C	0.318308	0.370981	0.318269
C67	C	0.568308	0.620981	0.568269
C68	C	0.818308	0.870981	0.818269
C69	C	0.290161	0.180977	0.052297
C70	C	0.540161	0.430977	0.302297
C71	C	0.790161	0.680977	0.552297
C72	C	1.040161	0.930977	0.802297
C73	C	0.362698	0.182435	0.052294
C74	C	0.612698	0.432435	0.302294
C75	C	0.862698	0.682435	0.552294
C76	C	1.112698	0.932435	0.802294
C77	C	0.400861	0.127652	0.000020
C78	C	0.650861	0.377652	0.250020
C79	C	0.900861	0.627652	0.500020
C80	C	1.150861	0.877652	0.750020
C81	C	0.366477	0.071423	-0.052263
C82	C	0.616477	0.321423	0.197737
C83	C	0.866477	0.571423	0.447737
C84	C	1.116477	0.821423	0.697737
C85	C	0.293939	0.069971	-0.052262
C86	C	0.543939	0.319971	0.197738
C87	C	0.793939	0.569971	0.447738
C88	C	1.043939	0.819971	0.697738
C89	C	0.255783	0.124752	0.000026
C90	C	0.505783	0.374752	0.250026
C91	C	0.755783	0.624752	0.500026
C92	C	1.005783	0.874752	0.750026
C93	C	0.515789	0.129954	-0.068227
C94	C	0.765789	0.379954	0.181773
C95	C	1.015789	0.629954	0.431773
C96	C	1.265789	0.879954	0.681773
C97	C	0.588331	0.131391	-0.068227
C98	C	0.838331	0.381391	0.181773
C99	C	1.088331	0.631391	0.431773
C100	C	1.338331	0.881391	0.681773
C101	C	0.588313	0.131376	0.068263
C102	C	0.838313	0.381376	0.318263
C103	C	1.088313	0.631376	0.568263
C104	C	1.338313	0.881376	0.818263
C105	C	0.515773	0.129930	0.068261
C106	C	0.765773	0.379930	0.318261
C107	C	1.015773	0.629930	0.568261
C108	C	1.265773	0.879930	0.818261
C109	C	0.479515	0.129224	0.000014
C110	C	0.729515	0.379224	0.250014
C111	C	0.979515	0.629224	0.500014
C112	C	1.229515	0.879224	0.750014
C113	C	0.822656	-0.047082	0.000028
C114	C	1.072656	0.202918	0.250028
C115	C	1.322656	0.452918	0.500028
C116	C	1.572656	0.702918	0.750028
C117	C	0.814768	-0.152275	0.000029
C118	C	1.064768	0.097725	0.250029
C119	C	1.314768	0.347725	0.500029
C120	C	1.564768	0.597725	0.750029
C121	C	0.800347	-0.344875	0.000018
C122	C	1.050347	-0.094875	0.250018
C123	C	1.300347	0.155125	0.500018
C124	C	1.550347	0.405125	0.750018
C125	C	0.856291	-0.402746	0.000017
C126	C	1.106291	-0.152746	0.250017
C127	C	1.356291	0.097254	0.500017
C128	C	1.606291	0.347254	0.750017
C129	C	0.848267	-0.509915	0.000011
C130	C	1.098267	-0.259915	0.250011
C131	C	1.348267	-0.009915	0.500011
C132	C	1.598267	0.240085	0.750011
C133	C	0.808370	-0.237695	0.000024
C134	C	1.058370	0.012305	0.250024
C135	C	1.308370	0.262305	0.500024
C136	C	1.558370	0.512305	0.750024
C137	C	0.954848	0.118733	0.000024
C138	C	1.204848	0.368733	0.250024
C139	C	1.454848	0.618733	0.500024
C140	C	1.704848	0.868733	0.750024
C141	C	1.032050	0.120274	0.000021
C142	C	1.282050	0.370274	0.250021
C143	C	1.532050	0.620274	0.500021
C144	C	1.782050	0.870274	0.750021
C145	C	0.833986	0.299467	0.000012
C146	C	1.083986	0.549467	0.250012
C147	C	1.333986	0.799467	0.500012
C148	C	1.583986	1.049467	0.750012
C149	C	0.841873	0.404660	0.000006
C150	C	1.091873	0.654660	0.250006
C151	C	1.341873	0.904660	0.500006
C152	C	1.591873	1.154660	0.750006
N153	N	0.828298	0.126181	0.178176
N154	N	1.078298	0.376181	0.428176
N155	N	1.328298	0.626181	0.678176
N156	N	1.578298	0.876181	0.928176
N157	N	0.828348	0.126196	-0.178135
N158	N	1.078348	0.376196	0.071865
N159	N	1.328348	0.626196	0.321865
N160	N	1.578348	0.876196	0.571865
C161	C	0.871532	0.061589	0.217568
C162	C	1.121532	0.311589	0.467568
C163	C	1.371532	0.561589	0.717568
C164	C	1.621532	0.811589	0.967568
C165	C	0.871535	0.061584	0.296370
C166	C	1.121535	0.311584	0.546370
C167	C	1.371535	0.561584	0.796370
C168	C	1.621535	0.811584	1.046370
C169	C	0.828313	0.126189	0.335777
C170	C	1.078313	0.376189	0.585777
C171	C	1.328313	0.626189	0.835777
C172	C	1.578313	0.876189	1.085777
C173	C	0.785071	0.190786	0.296375
C174	C	1.035071	0.440786	0.546375
C175	C	1.285071	0.690786	0.796375
C176	C	1.535071	0.940786	1.046375
C177	C	0.785064	0.190783	0.217575
C178	C	1.035064	0.440783	0.467575
C179	C	1.285064	0.690783	0.717575
C180	C	1.535064	0.940783	0.967575
C181	C	0.824562	0.212532	0.460610
C182	C	1.074562	0.462532	0.710610
C183	C	1.324562	0.712532	0.960610
C184	C	1.574562	0.962532	1.210610
C185	C	0.824575	0.212537	0.539409
C186	C	1.074575	0.462537	0.789409
C187	C	1.324575	0.712537	1.039409
C188	C	1.574575	0.962537	1.289409
C189	C	0.828333	0.126200	0.578823
C190	C	1.078333	0.376200	0.828823
C191	C	1.328333	0.626200	1.078823
C192	C	1.578333	0.876200	1.328823
C193	C	0.832093	0.039855	0.539429
C194	C	1.082093	0.289855	0.789429
C195	C	1.332093	0.539855	1.039429
C196	C	1.582093	0.789855	1.289429
C197	C	0.832085	0.039851	0.460628
C198	C	1.082085	0.289851	0.710628
C199	C	1.332085	0.539851	0.960628
C200	C	1.582085	0.789851	1.210628
C201	C	0.828316	0.126200	0.421222
C202	C	1.078316	0.376200	0.671222
C203	C	1.328316	0.626200	0.921222
C204	C	1.578316	0.876200	1.171222
C205	C	0.871572	0.061598	0.703661
C206	C	1.121572	0.311598	0.953661
C207	C	1.371572	0.561598	1.203661
C208	C	1.621572	0.811598	1.453661
C209	C	0.871571	0.061592	0.782464
C210	C	1.121571	0.311592	1.032464
C211	C	1.371571	0.561592	1.282464
C212	C	1.621571	0.811592	1.532464
C213	C	0.785111	0.190802	0.782468
C214	C	1.035111	0.440802	1.032468
C215	C	1.285111	0.690802	1.282468
C216	C	1.535111	0.940802	1.532468
C217	C	0.785108	0.190800	0.703666
C218	C	1.035108	0.440800	0.953666
C219	C	1.285108	0.690800	1.203666
C220	C	1.535108	0.940800	1.453666
C221	C	0.828343	0.126198	0.664267
C222	C	1.078343	0.376198	0.914267
C223	C	1.328343	0.626198	1.164267
C224	C	1.578343	0.876198	1.414267
H225	H	0.038806	0.120435	-0.123790
H226	H	0.288806	0.370435	0.126210
H227	H	0.538806	0.620435	0.376210
H228	H	0.788806	0.870435	0.626210
H229	H	0.821518	0.282844	0.571477
H230	H	1.071518	0.532844	0.821477
H231	H	1.321518	0.782844	1.071477
H232	H	1.571518	1.032844	1.321477
H233	H	0.821490	0.282842	0.428525
H234	H	1.071490	0.532842	0.678525
H235	H	1.321490	0.782842	0.928525
H236	H	1.571490	1.032842	1.178525
Br237	Br	0.726434	0.278468	0.650200
Br238	Br	0.976434	0.528468	0.900200
Br239	Br	1.226434	0.778468	1.150200
Br240	Br	1.476434	1.028468	1.400200
H241	H	0.910211	-0.371805	-0.000031
H242	H	1.160211	-0.121805	0.249969
H243	H	1.410211	0.128195	0.499969
H244	H	1.660211	0.378195	0.749969
H245	H	0.617863	0.131986	-0.123798
H246	H	0.867863	0.381986	0.126202
H247	H	1.117863	0.631986	0.376202
H248	H	1.367863	0.881986	0.626202
Br249	Br	0.710481	-0.396443	0.000008
Br250	Br	0.960481	-0.146443	0.250008
Br251	Br	1.210481	0.103557	0.500008
Br252	Br	1.460481	0.353557	0.750008
H253	H	0.486240	0.129331	0.123828
H254	H	0.736240	0.379331	0.373828
H255	H	0.986240	0.629331	0.623828
H256	H	1.236240	0.879331	0.873828
H257	H	0.906734	0.008985	0.185492
H258	H	1.156734	0.258985	0.435492
H259	H	1.406734	0.508985	0.685492
H260	H	1.656734	0.758985	0.935492
Br261	Br	0.837181	-0.077325	0.407167
Br262	Br	1.087181	0.172675	0.657167
Br263	Br	1.337181	0.422675	0.907167
Br264	Br	1.587181	0.672675	1.157167
H265	H	0.170401	0.123064	-0.123791
H266	H	0.420401	0.373064	0.126209
H267	H	0.670401	0.623064	0.376209
H268	H	0.920401	0.873064	0.626209
Br269	Br	0.930213	-0.026086	0.349840
Br270	Br	1.180213	0.223914	0.599840
Br271	Br	1.430213	0.473914	0.849840
Br272	Br	1.680213	0.723914	1.099840
H273	H	0.835152	-0.030449	0.571518
H274	H	1.085152	0.219551	0.821518
H275	H	1.335152	0.469551	1.071518
H276	H	1.585152	0.719551	1.321518
H277	H	0.906774	0.008992	0.671581
H278	H	1.156774	0.258992	0.921581
H279	H	1.406774	0.508992	1.171581
H280	H	1.656774	0.758992	1.421581
H281	H	0.906775	0.008988	0.814537
H282	H	1.156775	0.258988	1.064537
H283	H	1.406775	0.508988	1.314537
H284	H	1.656775	0.758988	1.564537
H285	H	0.390686	0.228242	0.094850
H286	H	0.640686	0.478242	0.344850
H287	H	0.890686	0.728242	0.594850
H288	H	1.140686	0.978242	0.844850
Br289	Br	0.726444	0.278470	0.835942
Br290	Br	0.976444	0.528470	1.085942
Br291	Br	1.226444	0.778470	1.335942
Br292	Br	1.476444	1.028470	1.585942
H293	H	0.259094	0.225583	0.094873
H294	H	0.509094	0.475583	0.344873
H295	H	0.759094	0.725583	0.594873
H296	H	1.009094	0.975583	0.844873
Br297	Br	0.726385	0.278449	0.164110
Br298	Br	0.976385	0.528449	0.414110
Br299	Br	1.226385	0.778449	0.664110
Br300	Br	1.476385	1.028449	0.914110
H301	H	0.749878	0.243387	0.328464
H302	H	0.999878	0.493387	0.578464
H303	H	1.249878	0.743387	0.828464
H304	H	1.499878	0.993387	1.078464
H305	H	0.397548	0.026817	-0.094832
H306	H	0.647548	0.276817	0.155168
H307	H	0.897548	0.526817	0.405168
H308	H	1.147548	0.776817	0.655168
Br309	Br	0.466578	0.128991	-0.160845
Br310	Br	0.716578	0.378991	0.089155
Br311	Br	0.966578	0.628991	0.339155
Br312	Br	1.216578	0.878991	0.589155
Br313	Br	0.637522	0.132335	0.160876
Br314	Br	0.887522	0.382335	0.410876
Br315	Br	1.137522	0.632335	0.660876
Br316	Br	1.387522	0.882335	0.910876
Br317	Br	0.190061	0.123404	0.160880
Br318	Br	0.440061	0.373404	0.410880
Br319	Br	0.690061	0.623404	0.660880
Br320	Br	0.940061	0.873404	0.910880
Br321	Br	0.247277	-0.006337	-0.123212
Br322	Br	0.497277	0.243663	0.126788
Br323	Br	0.747277	0.493663	0.376788
Br324	Br	0.997277	0.743663	0.626788
H325	H	0.038776	0.120382	0.123839
H326	H	0.288776	0.370382	0.373839
H327	H	0.538776	0.620382	0.623839
H328	H	0.788776	0.870382	0.873839
