data_functionalizedCrystal
_audit_creation_method	'MofGen! by Chris Wilmer'
_symmetry_space_group_name_H-M	'P1'
_symmetry_Int_Tables_number	1
_symmetry_cell_setting	triclinic
loop_
_symmetry_equiv_pos_as_xyz
  x,y,z
_cell_length_a	15.995343
_cell_length_b	15.995350
_cell_length_c	13.101039
_cell_angle_alpha	93.364563
_cell_angle_beta	86.646735
_cell_angle_gamma	83.490779
loop_
_atom_site_label
_atom_site_type_symbol
_atom_site_fract_x
_atom_site_fract_y
_atom_site_fract_z
O1	O	1.115590	0.103280	-0.085106
O2	O	1.615590	0.603280	0.414894
O3	O	0.871815	0.116613	-0.085130
O4	O	1.371815	0.616613	0.414870
O5	O	1.000366	-0.011941	-0.085117
O6	O	1.500366	0.488059	0.414883
O7	O	0.987039	0.231834	-0.085120
O8	O	1.487039	0.731834	0.414880
O9	O	0.991143	-0.002702	0.085312
O10	O	1.491143	0.497298	0.585312
O11	O	0.862592	0.125852	0.085298
O12	O	1.362592	0.625852	0.585298
O13	O	1.106367	0.112519	0.085322
O14	O	1.606367	0.612519	0.585322
Zn15	Zn	0.983015	0.120652	0.112370
Zn16	Zn	1.483015	0.620652	0.612370
Zn17	Zn	0.995167	0.108480	-0.112178
Zn18	Zn	1.495167	0.608480	0.387822
O19	O	0.977815	0.241073	0.085309
O20	O	1.477815	0.741073	0.585309
C21	C	0.836009	0.120682	0.000081
C22	C	1.336009	0.620682	0.500081
C23	C	0.743058	0.119032	0.000072
C24	C	1.243058	0.619032	0.500072
C25	C	0.572871	0.116040	0.000085
C26	C	1.072871	0.616040	0.500085
C27	C	0.549526	0.023243	0.000086
C28	C	1.049526	0.523243	0.500086
C29	C	0.452826	0.021518	0.000479
C30	C	0.952826	0.521518	0.500479
C31	C	0.405311	0.113092	0.000098
C32	C	0.905311	0.613092	0.500098
C33	C	0.429146	0.165017	0.097227
C34	C	0.929146	0.665017	0.597227
C35	C	0.525934	0.166121	0.097302
C36	C	1.025934	0.666121	0.597302
C37	C	0.536334	0.156974	-0.096514
C38	C	1.036334	0.656974	0.403486
C39	C	0.439908	0.153479	-0.097785
C40	C	0.939908	0.653479	0.402215
C41	C	0.310612	0.111431	0.000108
C42	C	0.810612	0.611431	0.500108
C43	C	0.667569	0.117704	0.000082
C44	C	1.167569	0.617704	0.500082
C45	C	0.995204	-0.038517	0.000096
C46	C	1.495204	0.461483	0.500096
C47	C	0.993552	-0.131467	0.000090
C48	C	1.493552	0.368533	0.500090
C49	C	0.987620	-0.469215	0.000093
C50	C	1.487620	0.030785	0.500093
C51	C	0.896089	-0.421799	-0.000299
C52	C	1.396089	0.078201	0.499701
C53	C	0.897720	-0.325088	0.000086
C54	C	1.397720	0.174912	0.500086
C55	C	0.990562	-0.301654	0.000091
C56	C	1.490562	0.198346	0.500091
C57	C	1.030452	-0.337457	0.097416
C58	C	1.530452	0.162543	0.597416
C59	C	1.028148	-0.434088	0.097498
C60	C	1.528148	0.065912	0.597498
C61	C	1.040528	-0.444953	-0.096312
C62	C	1.540528	0.055047	0.403688
C63	C	1.040576	-0.348077	-0.097598
C64	C	1.540576	0.151923	0.402402
C65	C	0.992230	-0.206957	0.000093
C66	C	1.492230	0.293043	0.500093
C67	C	0.985954	-0.563912	0.000097
C68	C	1.485954	-0.063912	0.500097
C69	C	1.142173	0.108449	0.000109
C70	C	1.642173	0.608449	0.500109
C71	C	1.235124	0.110099	0.000111
C72	C	1.735124	0.610099	0.500111
C73	C	0.982978	0.267648	0.000094
C74	C	1.482978	0.767648	0.500094
C75	C	0.984630	0.360599	0.000093
C76	C	1.484630	0.860599	0.500093
N77	N	0.974727	0.128959	0.265617
N78	N	1.474727	0.628959	0.765617
N79	N	1.003461	0.100166	-0.265425
N80	N	1.503461	0.600166	0.234575
C81	C	0.963452	0.140269	0.474659
C82	C	1.463452	0.640269	0.974659
C83	C	1.014734	0.088859	0.525540
C84	C	1.514734	0.588859	1.025540
C85	C	1.008460	0.095152	0.641858
C86	C	1.508460	0.595152	1.141858
C87	C	0.969725	0.133977	0.358330
C88	C	1.469725	0.633977	0.858330
H89	H	0.548776	0.138136	0.170185
H90	H	1.048776	0.638136	0.670185
H91	H	0.540283	0.234397	0.101455
H92	H	1.040283	0.734397	0.601455
Cl93	Cl	0.888399	0.215518	0.542272
Cl94	Cl	1.388399	0.715518	1.042272
H95	H	0.855903	-0.437630	0.069100
H96	H	1.355903	0.062370	0.569100
Cl97	Cl	1.131551	-0.483513	0.104336
Cl98	Cl	1.631551	0.016487	0.604336
Cl99	Cl	0.429275	-0.040700	-0.106997
Cl100	Cl	0.929275	0.459300	0.393003
H101	H	0.405127	0.136936	0.169786
H102	H	0.905127	0.636936	0.669786
Cl103	Cl	0.588459	-0.025569	0.107466
Cl104	Cl	1.088459	0.474431	0.607466
Cl105	Cl	0.996038	-0.311543	-0.208778
Cl106	Cl	1.496038	0.188457	0.291222
Cl107	Cl	0.598586	-0.038125	-0.107435
Cl108	Cl	1.098586	0.461875	0.392565
H109	H	0.430599	-0.011039	0.070513
H110	H	0.930599	0.488961	0.570513
H111	H	1.014587	-0.469490	-0.170079
H112	H	1.514587	0.030510	0.329921
H113	H	0.866000	-0.300447	-0.069682
H114	H	1.366000	0.199553	0.430318
Cl115	Cl	0.379701	0.269374	0.102387
Cl116	Cl	0.879701	0.769374	0.602387
H117	H	0.568589	0.123704	-0.170158
H118	H	1.068589	0.623704	0.329842
H119	H	1.063350	0.040120	0.481743
H120	H	1.563350	0.540120	0.981743
H121	H	0.425239	0.115604	-0.169642
H122	H	0.925239	0.615604	0.330358
H123	H	1.098465	-0.323137	0.101039
H124	H	1.598465	0.176863	0.601039
Cl125	Cl	0.389549	0.256154	-0.107302
Cl126	Cl	0.889549	0.756154	0.392698
H127	H	0.550398	0.225227	-0.097451
H128	H	1.050398	0.725227	0.402549
H129	H	0.858203	-0.293434	0.069965
H130	H	1.358203	0.206566	0.569965
Cl131	Cl	0.845419	-0.456248	-0.108057
Cl132	Cl	1.345419	0.043752	0.391943
Cl133	Cl	0.975978	-0.287580	0.209235
Cl134	Cl	1.475978	0.212420	0.709235
Cl135	Cl	1.145598	-0.324852	-0.106673
Cl136	Cl	1.645598	0.175148	0.393327
Cl137	Cl	0.971226	-0.456258	0.209812
Cl138	Cl	1.471226	0.043742	0.709812
Cl139	Cl	1.144797	-0.494048	-0.097320
Cl140	Cl	1.644797	0.005952	0.402680
