data_functionalizedCrystal
_audit_creation_method	'MofGen! by Chris Wilmer'
_symmetry_space_group_name_H-M	'P1'
_symmetry_Int_Tables_number	1
_symmetry_cell_setting	triclinic
loop_
_symmetry_equiv_pos_as_xyz
  x,y,z
_cell_length_a	23.532407
_cell_length_b	22.610064
_cell_length_c	13.339070
_cell_angle_alpha	89.992166
_cell_angle_beta	99.239020
_cell_angle_gamma	90.005499
loop_
_atom_site_label
_atom_site_type_symbol
_atom_site_fract_x
_atom_site_fract_y
_atom_site_fract_z
O1	O	0.775026	0.049145	0.122594
O2	O	0.612023	0.049153	0.140335
O3	O	0.674817	0.049148	-0.015611
O4	O	0.712232	0.049150	0.278540
O5	O	0.674805	-0.049221	-0.015588
O6	O	0.612011	-0.049216	0.140357
O7	O	0.775014	-0.049225	0.122617
Zn8	Zn	0.693511	-0.064838	0.131491
Zn9	Zn	0.693526	0.064767	0.131461
O10	O	0.712220	-0.049219	0.278563
C11	C	0.590728	-0.000030	0.139894
C12	C	0.527292	-0.000026	0.138536
C13	C	0.245345	-0.000043	0.040649
C14	C	0.304948	-0.000043	0.041911
O15	O	0.329175	-0.000064	-0.035741
N16	N	0.342520	-0.000038	0.134621
C17	C	0.320485	-0.000040	0.226075
O18	O	0.357915	-0.000037	0.305047
C19	C	0.260882	-0.000044	0.224812
C20	C	0.223313	-0.000043	0.132096
C21	C	0.207776	-0.000042	-0.052059
C22	C	0.148177	-0.000041	-0.053320
C23	C	0.126146	-0.000041	0.038127
C24	C	0.163714	-0.000042	0.130835
C25	C	0.238848	-0.000050	0.316265
C26	C	0.179241	-0.000055	0.314994
C27	C	0.141672	-0.000054	0.222278
C28	C	0.082083	-0.000041	0.221021
N29	N	0.044512	-0.000045	0.128311
C30	C	0.066543	-0.000046	0.036864
C31	C	0.445654	-0.000032	0.228719
C32	C	0.505255	-0.000023	0.229983
C33	C	0.489715	-0.000027	0.045819
C34	C	0.430112	-0.000032	0.044557
C35	C	0.408082	-0.000036	0.136010
C36	C	-0.058620	-0.000043	0.034222
C37	C	-0.118224	-0.000040	0.032969
C38	C	-0.102678	-0.000039	0.217132
C39	C	-0.043079	-0.000039	0.218386
C40	C	-0.021052	-0.000043	0.126923
O41	O	0.057815	-0.000023	0.298632
O42	O	0.029106	-0.000057	-0.042096
N43	N	0.693504	-0.153291	0.131511
C44	C	0.721335	-0.561935	0.062419
C45	C	0.721337	-0.623855	0.062411
O46	O	0.744978	-0.655875	0.003682
N47	N	0.693522	-0.654828	0.131440
C48	C	0.665700	-0.623878	0.200474
O49	O	0.642041	-0.655910	0.259186
C50	C	0.665695	-0.561960	0.200475
C51	C	0.693516	-0.530989	0.131449
C52	C	0.749153	-0.530964	-0.006603
C53	C	0.749152	-0.469049	-0.006594
C54	C	0.721333	-0.438103	0.062436
C55	C	0.693515	-0.469074	0.131458
C56	C	0.637869	-0.531011	0.269503
C57	C	0.637866	-0.469088	0.269499
C58	C	0.665687	-0.438118	0.200472
C59	C	0.665695	-0.376213	0.200497
N60	N	0.693509	-0.345239	0.131468
C61	C	0.721328	-0.376185	0.062438
C62	C	0.665711	-0.753912	0.200464
C63	C	0.665719	-0.815830	0.200467
C64	C	0.721355	-0.815801	0.062404
C65	C	0.721351	-0.753883	0.062405
C66	C	0.693526	-0.722939	0.131435
C67	C	0.721324	-0.246157	0.062463
C68	C	0.721323	-0.184236	0.062480
C69	C	0.665685	-0.184270	0.200540
C70	C	0.665688	-0.246185	0.200526
C71	C	0.693509	-0.277128	0.131479
O72	O	0.642064	-0.344153	0.259194
O73	O	0.744976	-0.344146	0.003726
C74	C	0.796309	-0.000040	0.123058
C75	C	0.859745	-0.000040	0.124416
C76	C	0.668491	-0.000035	-0.053225
C77	C	0.649652	-0.000032	-0.165338
N78	N	0.693536	0.153220	0.131433
C79	C	0.796133	-0.000040	-0.531603
C80	C	0.813835	-0.000047	-0.426268
C81	C	0.772790	-0.000043	-0.361030
C82	C	0.714041	-0.000033	-0.401138
C83	C	0.696338	-0.000031	-0.506483
C84	C	0.672995	-0.000033	-0.335911
C85	C	0.614246	-0.000023	-0.376018
C86	C	0.596546	-0.000021	-0.481353
C87	C	0.637590	-0.000025	-0.546591
C88	C	0.690699	-0.000035	-0.230565
C89	C	0.590904	-0.000026	-0.205446
C90	C	0.573202	-0.000019	-0.310780
C91	C	0.718546	-0.000035	0.316177
C92	C	0.737385	-0.000034	0.428290
H93	H	0.225707	-0.000044	-0.126530
H94	H	-0.012489	-0.000040	0.293883
C95	C	0.618121	-0.000025	-0.662467
N96	N	0.603458	-0.000028	-0.749747
C97	C	0.751927	-0.150172	-0.013461
N98	N	0.774976	-0.124518	-0.070660
H99	H	0.744006	-0.841008	0.006194
H100	H	0.557482	-0.000026	-0.152329
C101	C	0.878456	-0.000057	-0.382157
N102	N	0.927133	-0.000064	-0.348933
H103	H	0.829544	-0.000048	-0.584727
C104	C	0.546575	-0.000020	0.331978
N105	N	0.577695	-0.000022	0.408803
H106	H	-0.120627	-0.000036	0.291586
C107	C	-0.159547	-0.000043	-0.069029
N108	N	-0.190669	-0.000049	-0.145853
H109	H	0.548709	-0.000017	-0.514005
C110	C	0.508579	-0.000017	-0.354913
N111	N	0.459905	-0.000017	-0.388155
C112	C	0.635133	-0.719879	0.276453
N113	N	0.612111	-0.694248	0.333701
C114	C	0.779750	-0.434989	-0.082540
N115	N	0.802795	-0.409340	-0.139751
H116	H	0.743978	-0.271343	0.006237
C117	C	-0.034399	-0.000043	-0.066392
N118	N	-0.016156	-0.000038	-0.142175
H119	H	0.117593	-0.000042	-0.128819
C120	C	0.388791	-0.000037	-0.057437
N121	N	0.357671	-0.000043	-0.134262
C122	C	0.607257	-0.565065	0.345431
N123	N	0.584197	-0.590713	0.402622
H124	H	0.643037	-0.159064	0.256747
H125	H	0.771806	-0.556154	-0.062820
H126	H	0.507663	-0.000027	-0.028642
C127	C	0.635119	-0.849890	0.276409
N128	N	0.612066	-0.875542	0.333606
C129	C	0.751951	-0.719821	-0.013535
N130	N	0.774998	-0.694169	-0.070739
H131	H	0.427722	-0.000031	0.303197
C132	C	0.280162	-0.000062	0.418261
N133	N	0.311278	-0.000074	0.495091
C134	C	0.155013	-0.000059	0.415603
N135	N	0.136765	-0.000059	0.491381
C136	C	0.635088	-0.280254	0.276464
N137	N	0.612035	-0.305910	0.333656
C138	C	0.607263	-0.435053	0.345449
N139	N	0.584217	-0.409420	0.402660
H140	H	0.738533	-0.000044	-0.197921
H141	H	0.787207	-0.000048	-0.275263
