data_functionalizedCrystal
_audit_creation_method	'MofGen! by Chris Wilmer'
_symmetry_space_group_name_H-M	'P1'
_symmetry_Int_Tables_number	1
_symmetry_cell_setting	triclinic
loop_
_symmetry_equiv_pos_as_xyz
  x,y,z
_cell_length_a	6.817900
_cell_length_b	15.301126
_cell_length_c	9.582880
_cell_angle_alpha	92.795801
_cell_angle_beta	111.207034
_cell_angle_gamma	104.177575
loop_
_atom_site_label
_atom_site_type_symbol
_atom_site_fract_x
_atom_site_fract_y
_atom_site_fract_z
V1	V	-4.120136	-0.124378	-0.467055
O2	O	-4.102207	0.006368	-0.457696
O3	O	-4.074539	-0.246997	-0.464311
O4	O	-4.110851	-0.122293	-0.670548
O5	O	-4.065644	-0.119199	-0.250031
V6	V	-4.598332	-0.108759	-0.441042
O7	O	-4.393079	-0.158638	-0.524115
O8	O	-4.775587	-0.074499	-0.383982
O9	O	-4.420723	0.013860	-0.443786
O10	O	-4.733658	-0.239506	-0.450401
O11	O	-4.770221	-0.113938	-0.658066
O12	O	-4.384411	-0.110844	-0.237549
C13	C	-3.918956	-0.276894	-0.457059
C14	C	-3.963222	-0.377136	-0.456171
C15	C	-4.167694	-0.428816	-0.463236
C16	C	-4.209280	-0.523005	-0.462411
C17	C	-4.046385	-0.565510	-0.454511
C18	C	-3.841899	-0.513823	-0.447450
C19	C	-3.800321	-0.419637	-0.448286
C20	C	-3.928571	-0.710135	-0.445705
C21	C	-3.970149	-0.804327	-0.444867
C22	C	-4.337529	-0.813502	-0.459830
C23	C	-4.295952	-0.719317	-0.460666
C24	C	-4.091466	-0.667636	-0.453603
C25	C	-3.965274	-0.117821	-0.720133
C26	C	-4.038985	-0.116927	-0.886493
C27	C	-4.239647	0.043752	-0.451034
C28	C	-4.174620	0.143993	-0.451931
C29	C	-4.193328	-0.115320	-0.187956
C30	C	-4.098855	-0.116208	-0.021595
H31	H	-4.504019	-0.855583	-0.465560
F32	F	-3.582699	-0.364636	-0.440774
H33	H	-4.375779	-0.565079	-0.468166
F34	F	-3.796791	-0.849565	-0.436487
H35	H	-3.762066	-0.668060	-0.439966
H36	H	-4.300340	-0.394215	-0.469655
H37	H	-4.428593	-0.684711	-0.467090
F38	F	-3.668539	-0.559063	-0.439052
