data_functionalizedCrystal
_audit_creation_method	'MofGen! by Chris Wilmer'
_symmetry_space_group_name_H-M	'P1'
_symmetry_Int_Tables_number	1
_symmetry_cell_setting	triclinic
loop_
_symmetry_equiv_pos_as_xyz
  x,y,z
_cell_length_a	19.077105
_cell_length_b	25.639239
_cell_length_c	19.076919
_cell_angle_alpha	92.268407
_cell_angle_beta	90.076224
_cell_angle_gamma	87.734929
loop_
_atom_site_label
_atom_site_type_symbol
_atom_site_fract_x
_atom_site_fract_y
_atom_site_fract_z
Zn1	Zn	1.058187	-0.252939	-0.440398
Zn2	Zn	1.062799	-0.337004	-0.322884
Zn3	Zn	0.945407	-0.245935	-0.318192
Zn4	Zn	0.940620	-0.336689	-0.435637
O5	O	1.001753	-0.293142	-0.379278
O6	O	1.157129	-0.267153	-0.428766
O7	O	1.051160	-0.322124	-0.223931
O8	O	0.960440	-0.173702	-0.334431
O9	O	1.160518	-0.328916	-0.342429
O10	O	1.043299	-0.178848	-0.424215
O11	O	0.964912	-0.255216	-0.220483
O12	O	0.846441	-0.254910	-0.329815
O13	O	0.952283	-0.328378	-0.534600
O14	O	0.842925	-0.321587	-0.416101
O15	O	1.038658	-0.266848	-0.538097
O16	O	1.046519	-0.410124	-0.337813
O17	O	0.956755	-0.409893	-0.420652
C18	C	0.819187	-0.287455	-0.371933
C19	C	0.741083	-0.285035	-0.368807
C20	C	0.702581	-0.318661	-0.412193
C21	C	0.629194	-0.316381	-0.409259
C22	C	0.594312	-0.280476	-0.362936
C23	C	0.632820	-0.246846	-0.319549
C24	C	0.706205	-0.249125	-0.322486
C25	C	0.375028	-0.269932	-0.349344
C26	C	0.301638	-0.267658	-0.346409
C27	C	0.298017	-0.337192	-0.436121
C28	C	0.371404	-0.339469	-0.439051
C29	C	0.409905	-0.305837	-0.395666
N30	N	0.519299	-0.278146	-0.359935
N31	N	0.484917	-0.308166	-0.398671
C32	C	1.001636	-0.428980	-0.379241
C33	C	1.001650	-0.487094	-0.379251
C34	C	1.048607	-0.847575	-0.336225
C35	C	1.048634	-0.902180	-0.336235
O36	O	1.088438	-0.930513	-0.299613
N37	N	1.001875	-0.929386	-0.379329
C38	C	0.955090	-0.901983	-0.422421
O39	O	0.915321	-0.930137	-0.459077
C40	C	0.955067	-0.847379	-0.422413
C41	C	1.001825	-0.820176	-0.379311
C42	C	1.095362	-0.820372	-0.293127
C43	C	1.095334	-0.765771	-0.293116
C44	C	1.048551	-0.738372	-0.336202
C45	C	1.001797	-0.765574	-0.379300
C46	C	0.908287	-0.819977	-0.465508
C47	C	0.908268	-0.765369	-0.465497
C48	C	0.955026	-0.738167	-0.422395
C49	C	0.954987	-0.683574	-0.422375
N50	N	1.001746	-0.656368	-0.379282
C51	C	1.048528	-0.683767	-0.336195
C52	C	0.955143	-1.016656	-0.422434
C53	C	0.955162	-1.071259	-0.422438
C54	C	1.048707	-1.071452	-0.336253
C55	C	1.048684	-1.016848	-0.336246
C56	C	1.001902	-0.989450	-0.379340
C57	C	1.048466	-0.569100	-0.336174
C58	C	1.048432	-0.514493	-0.336164
C59	C	0.954890	-0.514304	-0.422351
C60	C	0.954921	-0.568906	-0.422359
C61	C	1.001715	-0.596303	-0.379268
O62	O	0.915205	-0.655207	-0.458982
O63	O	1.088298	-0.655607	-0.299552
C64	C	1.185032	-0.298851	-0.386652
C65	C	1.263135	-0.301284	-0.389794
C66	C	0.994422	-0.298359	-0.562557
C67	C	0.991298	-0.300582	-0.640660
C68	C	1.001889	-0.156774	-0.379331
C69	C	1.001947	-0.098662	-0.379354
C70	C	1.034799	-0.269593	-0.679175
C71	C	1.031855	-0.271680	-0.752561
C72	C	0.985413	-0.304759	-0.787430
C73	C	0.941907	-0.335750	-0.748910
C74	C	0.944848	-0.333660	-0.675526
C75	C	0.971792	-0.314442	-1.006711
C76	C	0.968856	-0.316531	-1.080100
C77	C	1.058803	-0.252460	-1.083746
C78	C	1.061742	-0.250375	-1.010361
C79	C	1.018234	-0.281364	-0.971846
N80	N	0.982404	-0.306894	-0.862442
N81	N	1.021240	-0.279226	-0.896836
C82	C	1.009096	-0.287908	-0.196713
C83	C	1.012356	-0.285541	-0.118616
H84	H	1.086507	-0.492346	-0.301063
H85	H	1.067280	-0.246446	-0.783917
H86	H	0.273239	-0.238414	-0.308691
F87	F	0.747182	-0.213334	-0.276310
H88	H	1.086571	-0.591400	-0.301087
H89	H	1.072619	-0.242657	-0.650790
H90	H	1.133410	-0.743625	-0.258020
H91	H	1.086802	-1.093771	-0.301172
F92	F	0.905388	-1.100203	-0.468305
H93	H	1.133461	-0.842675	-0.258040
F94	F	1.111173	-0.215167	-0.973255
F95	F	0.415995	-0.234137	-0.303172
F96	F	1.098449	-0.987902	-0.290372
F97	F	0.898547	-0.366642	-0.634535
F98	F	0.905105	-0.485135	-0.468207
H99	H	0.917042	-0.994351	-0.457524
H100	H	0.870174	-0.743065	-0.500592
H101	H	0.870208	-0.842116	-0.500603
F102	F	0.919420	-0.351738	-1.117209
F103	F	0.905144	-0.597858	-0.468219
H104	H	0.399800	-0.368707	-0.476771
H105	H	1.094224	-0.227230	-1.115112
F106	F	0.257036	-0.372983	-0.482289
F107	F	0.892477	-0.370954	-0.786022
F108	F	0.739699	-0.356879	-0.461493
F109	F	0.595693	-0.208631	-0.270252
F110	F	0.588220	-0.352171	-0.455437
F111	F	0.925486	-0.347424	-0.965730
