data_functionalizedCrystal
_audit_creation_method	'MofGen! by Chris Wilmer'
_symmetry_space_group_name_H-M	'P1'
_symmetry_Int_Tables_number	1
_symmetry_cell_setting	triclinic
loop_
_symmetry_equiv_pos_as_xyz
  x,y,z
_cell_length_a	19.188933
_cell_length_b	19.188930
_cell_length_c	15.455313
_cell_angle_alpha	92.650876
_cell_angle_beta	87.329187
_cell_angle_gamma	83.145175
loop_
_atom_site_label
_atom_site_type_symbol
_atom_site_fract_x
_atom_site_fract_y
_atom_site_fract_z
O1	O	0.929213	0.084112	-0.072111
O2	O	1.262546	0.417445	0.261222
O3	O	1.595879	0.750778	0.594555
O4	O	0.725902	0.095844	-0.072121
O5	O	1.059235	0.429177	0.261213
O6	O	1.392569	0.762511	0.594546
O7	O	0.833424	-0.011677	-0.072099
O8	O	1.166757	0.321656	0.261235
O9	O	1.500090	0.654990	0.594568
O10	O	0.821691	0.191633	-0.072133
O11	O	1.155024	0.524966	0.261200
O12	O	1.488358	0.858299	0.594534
O13	O	0.827275	-0.005554	0.072162
O14	O	1.160609	0.327780	0.405496
O15	O	1.493942	0.661113	0.738829
O16	O	0.719754	0.101967	0.072140
O17	O	1.053087	0.435301	0.405474
O18	O	1.386420	0.768634	0.738807
O19	O	0.923064	0.090235	0.072150
O20	O	1.256398	0.423568	0.405483
O21	O	1.589731	0.756902	0.738816
Cu22	Cu	0.820847	0.096660	0.085317
Cu23	Cu	1.154181	0.429994	0.418650
Cu24	Cu	1.487514	0.763327	0.751984
Cu25	Cu	0.828119	0.089419	-0.085288
Cu26	Cu	1.161452	0.422752	0.248045
Cu27	Cu	1.494785	0.756085	0.581379
O28	O	0.815542	0.197756	0.072128
O29	O	1.148876	0.531089	0.405461
O30	O	1.482209	0.864423	0.738794
C31	C	0.696817	0.098525	0.000009
C32	C	1.030150	0.431859	0.333342
C33	C	1.363483	0.765192	0.666676
C34	C	0.619312	0.097384	0.000006
C35	C	0.952646	0.430717	0.333339
C36	C	1.285979	0.764051	0.666673
C37	C	0.069408	0.085901	-0.078620
C38	C	0.402742	0.419235	0.254714
C39	C	0.736075	0.752568	0.588047
C40	C	0.142233	0.086969	-0.078623
C41	C	0.475566	0.420303	0.254710
C42	C	0.808899	0.753636	0.588043
C43	C	0.175298	0.090845	0.000013
C44	C	0.508631	0.424178	0.333346
C45	C	0.841965	0.757511	0.666680
C46	C	0.135535	0.093634	0.078659
C47	C	0.468869	0.426967	0.411992
C48	C	0.802202	0.760301	0.745325
C49	C	0.062713	0.092559	0.078660
C50	C	0.396047	0.425892	0.411993
C51	C	0.729380	0.759226	0.745326
N52	N	0.281824	0.134747	0.058538
N53	N	0.615157	0.468081	0.391872
N54	N	0.948490	0.801414	0.725205
N55	N	0.351002	0.135770	0.058532
N56	N	0.684335	0.469103	0.391865
N57	N	1.017668	0.802436	0.725199
C58	C	0.394707	0.094082	0.000014
C59	C	0.728040	0.427416	0.333347
C60	C	1.061373	0.760749	0.666680
N61	N	0.366620	0.051342	-0.058511
N62	N	0.699953	0.384676	0.274823
N63	N	1.033287	0.718009	0.608156
N64	N	0.297435	0.050323	-0.058507
N65	N	0.630769	0.383656	0.274827
N66	N	0.964102	0.716989	0.608160
C67	C	0.254261	0.092010	0.000020
C68	C	0.587594	0.425344	0.333354
C69	C	0.920928	0.758677	0.666687
C70	C	0.513426	0.092446	-0.078631
C71	C	0.846759	0.425780	0.254703
C72	C	1.180092	0.759113	0.588036
C73	C	0.586252	0.093510	-0.078631
C74	C	0.919585	0.426843	0.254702
C75	C	1.252919	0.760177	0.588036
C76	C	0.579552	0.100182	0.078653
C77	C	0.912885	0.433515	0.411987
C78	C	1.246219	0.766848	0.745320
C79	C	0.506728	0.099111	0.078651
C80	C	0.840062	0.432444	0.411985
C81	C	1.173395	0.765777	0.745318
C82	C	0.473669	0.095246	0.000007
C83	C	0.807003	0.428580	0.333340
C84	C	1.140336	0.761913	0.666673
C85	C	0.829969	-0.034626	0.000034
C86	C	1.163303	0.298707	0.333368
C87	C	1.496636	0.632040	0.666701
C88	C	0.828828	-0.112131	0.000042
C89	C	1.162162	0.221203	0.333375
C90	C	1.495495	0.554536	0.666708
C91	C	0.891919	-0.157054	0.000049
C92	C	1.225252	0.176280	0.333382
C93	C	1.558586	0.509613	0.666715
C94	C	0.890848	-0.229878	0.000035
C95	C	1.224181	0.103455	0.333368
C96	C	1.557514	0.436789	0.666701
C97	C	0.826682	-0.257775	0.000031
C98	C	1.160015	0.075558	0.333365
C99	C	1.493349	0.408891	0.666698
C100	C	0.763583	-0.212842	0.000019
C101	C	1.096917	0.120491	0.333353
C102	C	1.430250	0.453824	0.666686
C103	C	0.764657	-0.140020	0.000024
C104	C	1.097990	0.193313	0.333358
C105	C	1.431323	0.526647	0.666691
N106	N	0.775542	-0.363697	0.049124
N107	N	1.108876	-0.030364	0.382457
N108	N	1.442209	0.302970	0.715790
N109	N	0.774527	-0.432876	0.049121
N110	N	1.107860	-0.099542	0.382454
N111	N	1.441194	0.233791	0.715787
C112	C	0.823445	-0.477185	0.000013
C113	C	1.156778	-0.143851	0.333347
C114	C	1.490111	0.189482	0.666680
N115	N	0.873426	-0.449703	-0.049079
N116	N	1.206759	-0.116369	0.284254
N117	N	1.540093	0.216964	0.617587
N118	N	0.874443	-0.380518	-0.049072
N119	N	1.207777	-0.047184	0.284261
N120	N	1.541110	0.286149	0.617594
C121	C	0.825511	-0.336738	0.000025
C122	C	1.158844	-0.003405	0.333358
C123	C	1.492178	0.329929	0.666692
C124	C	0.885378	-0.601073	0.000004
C125	C	1.218711	-0.267740	0.333338
C126	C	1.552045	0.065594	0.666671
C127	C	0.884305	-0.673899	-0.000015
C128	C	1.217638	-0.340565	0.333318
C129	C	1.550971	-0.007232	0.666652
C130	C	0.757038	-0.656861	-0.000022
C131	C	1.090371	-0.323528	0.333311
C132	C	1.423705	0.009806	0.666645
C133	C	0.758114	-0.584037	-0.000011
C134	C	1.091447	-0.250704	0.333322
C135	C	1.424780	0.082629	0.666655
C136	C	0.822285	-0.556148	0.000006
C137	C	1.155619	-0.222815	0.333339
C138	C	1.488952	0.110519	0.666673
C139	C	0.952149	0.087553	0.000018
C140	C	1.285483	0.420887	0.333352
C141	C	1.618816	0.754220	0.666685
C142	C	1.029654	0.088694	0.000015
C143	C	1.362987	0.422028	0.333349
C144	C	1.696321	0.755361	0.666682
C145	C	0.818997	0.220705	-0.000007
C146	C	1.152330	0.554038	0.333326
C147	C	1.485664	0.887372	0.666660
C148	C	0.820138	0.298209	-0.000020
C149	C	1.153471	0.631542	0.333313
C150	C	1.486805	0.964876	0.666647
N151	N	0.815738	0.101753	0.205312
N152	N	1.149072	0.435086	0.538645
N153	N	1.482405	0.768420	0.871978
N154	N	0.833233	0.084320	-0.205283
N155	N	1.166567	0.417654	0.128051
N156	N	1.499900	0.750987	0.461384
C157	C	0.861433	0.056091	0.250715
C158	C	1.194766	0.389424	0.584048
C159	C	1.528100	0.722758	0.917382
C160	C	0.857576	0.059949	0.341522
C161	C	1.190909	0.393282	0.674856
C162	C	1.524242	0.726616	1.008189
C163	C	0.808026	0.109473	0.386924
C164	C	1.141360	0.442806	0.720258
C165	C	1.474693	0.776139	1.053591
C166	C	0.762327	0.155137	0.341514
C167	C	1.095660	0.488470	0.674848
C168	C	1.428993	0.821803	1.008181
C169	C	0.766181	0.151275	0.250709
C170	C	1.099515	0.484608	0.584042
C171	C	1.432848	0.817942	0.917376
C172	C	0.791388	0.126123	0.658502
C173	C	1.124722	0.459456	0.991836
C174	C	1.458055	0.792789	1.325169
C175	C	0.787539	0.129982	0.749314
C176	C	1.120872	0.463316	1.082647
C177	C	1.454205	0.796649	1.415981
C178	C	0.882787	0.034793	0.749316
C179	C	1.216121	0.368126	1.082649
C180	C	1.549454	0.701460	1.415982
C181	C	0.886640	0.030939	0.658508
C182	C	1.219974	0.364272	0.991842
C183	C	1.553307	0.697605	1.325175
C184	C	0.840938	0.076600	0.613107
C185	C	1.174272	0.409933	0.946440
C186	C	1.507605	0.743267	1.279773
N187	N	0.804084	0.113419	0.479744
N188	N	1.137417	0.446752	0.813077
N189	N	1.470750	0.780085	1.146410
N190	N	0.844878	0.072650	0.520289
N191	N	1.178211	0.405984	0.853622
N192	N	1.511545	0.739317	1.186955
H193	H	0.030345	0.094836	0.142696
H194	H	0.363678	0.428169	0.476029
H195	H	0.697012	0.761503	0.809363
C196	C	0.615921	0.104437	0.165155
C197	C	0.949254	0.437770	0.498488
C198	C	1.282587	0.771104	0.831821
N199	N	0.643318	0.107639	0.230310
N200	N	0.976651	0.440972	0.563643
N201	N	1.309984	0.774306	0.896976
H202	H	0.901784	0.015766	0.213755
H203	H	1.235118	0.349100	0.547088
H204	H	1.568451	0.682433	0.880421
H205	H	0.711339	-0.235561	0.000014
H206	H	1.044672	0.097772	0.333348
H207	H	1.378006	0.431106	0.666681
H208	H	0.944173	-0.134351	0.000060
H209	H	1.277506	0.198982	0.333393
H210	H	1.610839	0.532315	0.666726
H211	H	0.942225	-0.266462	0.000037
H212	H	1.275559	0.066872	0.333370
H213	H	1.608892	0.400205	0.666704
C214	C	0.033049	0.081636	-0.165131
C215	C	0.366383	0.414970	0.168202
C216	C	0.699716	0.748303	0.501535
N217	N	0.005663	0.078419	-0.230292
N218	N	0.338997	0.411752	0.103041
N219	N	0.672330	0.745086	0.436374
H220	H	0.894783	0.022767	0.378489
H221	H	1.228117	0.356100	0.711823
H222	H	1.561450	0.689434	1.045156
C223	C	0.707815	0.209607	0.391460
C224	C	1.041148	0.542940	0.724793
C225	C	1.374482	0.876274	1.058127
N226	N	0.666756	0.250635	0.429078
N227	N	1.000089	0.583968	0.762411
N228	N	1.333422	0.917302	1.095745
H229	H	0.728971	0.188457	0.213742
H230	H	1.062304	0.521790	0.547076
H231	H	1.395638	0.855124	0.880409
C232	C	0.941145	-0.023545	0.608573
C233	C	1.274478	0.309788	0.941906
C234	C	1.607812	0.643122	1.275240
N235	N	0.982199	-0.064582	0.570961
N236	N	1.315532	0.268751	0.904295
N237	N	1.648866	0.602084	1.237628
C238	C	0.477059	0.088187	-0.165140
C239	C	0.810393	0.421520	0.168193
C240	C	1.143726	0.754853	0.501527
N241	N	0.449670	0.084977	-0.230300
N242	N	0.783004	0.418310	0.103033
N243	N	1.116337	0.751644	0.436367
H244	H	0.618620	0.091230	-0.142668
H245	H	0.951953	0.424564	0.190666
H246	H	1.285286	0.757897	0.523999
H247	H	0.474359	0.101388	0.142685
H248	H	0.807693	0.434721	0.476018
H249	H	1.141026	0.768054	0.809351
H250	H	0.713279	-0.103443	0.000019
H251	H	1.046612	0.229891	0.333352
H252	H	1.379946	0.563224	0.666686
C253	C	0.733026	0.184463	0.799254
C254	C	1.066359	0.517796	1.132588
C255	C	1.399693	0.851129	1.465921
N256	N	0.691970	0.225495	0.836870
N257	N	1.025303	0.558829	1.170203
N258	N	1.358636	0.892162	1.503536
H259	H	0.937631	-0.578365	0.000014
H260	H	1.270964	-0.245031	0.333348
H261	H	1.604297	0.088302	0.666681
C262	C	0.171906	0.097916	0.165159
C263	C	0.505239	0.431249	0.498492
C264	C	0.838573	0.764583	0.831825
N265	N	0.199300	0.101147	0.230313
N266	N	0.532633	0.434480	0.563647
N267	N	0.865966	0.767813	0.896980
H268	H	0.935683	-0.710475	-0.000014
H269	H	1.269016	-0.377142	0.333319
H270	H	1.602350	-0.043809	0.666653
H271	H	0.704793	-0.679574	-0.000029
H272	H	1.038126	-0.346241	0.333304
H273	H	1.371460	-0.012908	0.666638
H274	H	0.706738	-0.547459	-0.000012
H275	H	1.040071	-0.214126	0.333321
H276	H	1.373405	0.119207	0.666654
C277	C	0.933050	-0.015437	0.799265
C278	C	1.266384	0.317897	1.132598
C279	C	1.599717	0.651230	1.465932
N280	N	0.970908	-0.053274	0.836887
N281	N	1.304241	0.280059	1.170220
N282	N	1.637575	0.613392	1.503554
C283	C	0.741205	0.176443	0.608572
C284	C	1.074538	0.509776	0.941905
C285	C	1.407871	0.843109	1.275239
N286	N	0.703436	0.214378	0.570962
N287	N	1.036769	0.547712	0.904295
N288	N	1.370103	0.881045	1.237628
H289	H	0.174606	0.084699	-0.142660
H290	H	0.507940	0.418032	0.190674
H291	H	0.841273	0.751366	0.524007
