data_functionalizedCrystal
_audit_creation_method	'MofGen! by Chris Wilmer'
_symmetry_space_group_name_H-M	'P1'
_symmetry_Int_Tables_number	1
_symmetry_cell_setting	triclinic
loop_
_symmetry_equiv_pos_as_xyz
  x,y,z
_cell_length_a	14.519709
_cell_length_b	11.792254
_cell_length_c	10.268362
_cell_angle_alpha	89.995475
_cell_angle_beta	89.999088
_cell_angle_gamma	96.060629
loop_
_atom_site_label
_atom_site_type_symbol
_atom_site_fract_x
_atom_site_fract_y
_atom_site_fract_z
O1	O	-0.126460	1.506199	-0.108280
O2	O	0.373540	2.006199	0.391720
O3	O	-0.139475	1.175788	-0.108281
O4	O	0.360525	1.675788	0.391719
O5	O	0.001238	1.349754	-0.108292
O6	O	0.501238	1.849754	0.391708
O7	O	-0.267174	1.332233	-0.108268
O8	O	0.232826	1.832233	0.391732
O9	O	0.001244	1.349739	0.108308
O10	O	0.501244	1.849739	0.608308
O11	O	-0.139469	1.175773	0.108320
O12	O	0.360531	1.675773	0.608320
O13	O	-0.126454	1.506184	0.108321
O14	O	0.373546	2.006184	0.608321
Cu15	Cu	-0.132961	1.340977	0.128098
Cu16	Cu	0.367039	1.840977	0.628098
Cu17	Cu	-0.132968	1.340995	-0.128058
Cu18	Cu	0.367032	1.840995	0.371942
O19	O	-0.267168	1.332218	0.108332
O20	O	0.232832	1.832218	0.608332
C21	C	-0.138652	1.133494	0.000019
C22	C	0.361348	1.633494	0.500019
C23	C	-0.136199	1.007495	0.000018
C24	C	0.363801	1.507495	0.500018
C25	C	-0.134205	0.905169	0.000012
C26	C	0.365795	1.405169	0.500012
C27	C	-0.131711	0.776796	0.000011
C28	C	0.368289	1.276796	0.500011
C29	C	-0.301534	1.333042	0.000035
C30	C	0.198466	1.833042	0.500035
C31	C	-0.403924	1.335489	0.000044
C32	C	0.096076	1.835489	0.500044
C33	C	-0.778853	1.344497	-0.000008
C34	C	-0.278853	1.844497	0.499992
C35	C	-0.674536	1.341995	0.000007
C36	C	-0.174536	1.841995	0.500007
C37	C	-0.591392	1.339993	0.000019
C38	C	-0.091392	1.839993	0.500019
C39	C	-0.487068	1.337491	0.000031
C40	C	0.012932	1.837491	0.500031
C41	C	0.035604	1.348930	0.000002
C42	C	0.535604	1.848930	0.500002
C43	C	0.137994	1.346483	-0.000015
C44	C	0.637994	1.846483	0.499985
C45	C	-0.127277	1.548478	0.000018
C46	C	0.372723	2.048478	0.500018
C47	C	-0.129731	1.674477	0.000011
C48	C	0.370269	2.174477	0.500011
N49	N	-0.132956	1.340973	0.308264
N50	N	0.367044	1.840973	0.808264
N51	N	-0.132966	1.341008	-0.308224
N52	N	0.367034	1.841008	0.191776
C53	C	-0.132966	1.340989	0.573934
C54	C	0.367034	1.840989	1.073934
C55	C	-0.132963	1.340976	0.426096
C56	C	0.367037	1.840976	0.926096
