data_functionalizedCrystal
_audit_creation_method	'MofGen! by Chris Wilmer'
_symmetry_space_group_name_H-M	'P1'
_symmetry_Int_Tables_number	1
_symmetry_cell_setting	triclinic
loop_
_symmetry_equiv_pos_as_xyz
  x,y,z
_cell_length_a	19.121725
_cell_length_b	12.594517
_cell_length_c	19.121307
_cell_angle_alpha	87.555995
_cell_angle_beta	85.240410
_cell_angle_gamma	92.411109
loop_
_atom_site_label
_atom_site_type_symbol
_atom_site_fract_x
_atom_site_fract_y
_atom_site_fract_z
Zn1	Zn	-0.297184	-1.672673	0.409801
Zn2	Zn	0.202816	-1.172673	0.909801
Zn3	Zn	-0.409798	-1.672580	0.297158
Zn4	Zn	0.090202	-1.172580	0.797158
Zn5	Zn	-0.292158	-1.486805	0.292152
Zn6	Zn	0.207842	-0.986805	0.792152
Zn7	Zn	-0.414803	-1.502543	0.414780
Zn8	Zn	0.085197	-1.002543	0.914780
O9	O	-0.353486	-1.583650	0.353473
O10	O	0.146514	-1.083650	0.853473
O11	O	-0.312130	-1.821608	0.394871
O12	O	0.187870	-1.321608	0.894871
O13	O	-0.389995	-1.641311	0.198032
O14	O	0.110005	-1.141311	0.698032
O15	O	-0.194368	-1.504914	0.303580
O16	O	0.305632	-1.004914	0.803580
O17	O	-0.394867	-1.821539	0.312112
O18	O	0.105133	-1.321539	0.812112
O19	O	-0.198060	-1.641470	0.390016
O20	O	0.301940	-1.141470	0.890016
O21	O	-0.303566	-1.504823	0.194354
O22	O	0.196434	-1.004823	0.694354
O23	O	-0.308419	-1.339946	0.308407
O24	O	0.191581	-0.839946	0.808407
O25	O	-0.403398	-1.531737	0.512581
O26	O	0.096602	-1.031737	1.012581
O27	O	-0.398525	-1.351509	0.398501
O28	O	0.101475	-0.851509	0.898501
O29	O	-0.316984	-1.656731	0.508924
O30	O	0.183016	-1.156731	1.008924
O31	O	-0.508918	-1.656571	0.316939
O32	O	-0.008918	-1.156571	0.816939
O33	O	-0.512595	-1.531646	0.403356
O34	O	-0.012595	-1.031646	0.903356
C35	C	-0.353471	-1.307107	0.353451
C36	C	0.146529	-0.807107	0.853451
C37	C	-0.353482	-1.188803	0.353460
C38	C	0.146518	-0.688803	0.853460
C39	C	-0.536286	-1.595836	0.361246
C40	C	-0.036286	-1.095836	0.861246
C41	C	-0.614490	-1.601148	0.364595
C42	C	-0.114490	-1.101148	0.864595
C43	C	-0.361310	-1.596000	0.536996
C44	C	0.138690	-1.096000	1.036996
C45	C	-0.364644	-1.601262	0.615203
C46	C	0.135356	-1.101262	1.115203
C47	C	-0.649369	-1.532607	0.321137
C48	C	-0.149369	-1.032607	0.821137
C49	C	-0.722850	-1.537609	0.324287
C50	C	-0.222850	-1.037609	0.824287
C51	C	-0.761451	-1.611149	0.370899
C52	C	-0.261451	-1.111149	0.870899
C53	C	-0.726566	-1.679698	0.414360
C54	C	-0.226566	-1.179698	0.914360
C55	C	-0.653086	-1.674700	0.411206
C56	C	-0.153086	-1.174700	0.911206
C57	C	-0.983405	-1.629798	0.382672
C58	C	-0.483405	-1.129798	0.882672
C59	C	-1.056890	-1.634788	0.385824
C60	C	-0.556890	-1.134788	0.885824
C61	C	-1.053169	-1.492700	0.295749
C62	C	-0.553169	-0.992700	0.795749
C63	C	-0.979688	-1.487705	0.292603
C64	C	-0.479688	-0.987705	0.792603
C65	C	-0.944810	-1.556257	0.336060
C66	C	-0.444810	-1.056257	0.836060
C67	C	-0.836560	-1.616261	0.374122
C68	C	-0.336560	-1.116261	0.874122
C69	C	-0.869702	-1.551149	0.332834
C70	C	-0.369702	-1.051149	0.832834
C71	C	-0.169972	-1.571447	0.345684
C72	C	0.330028	-1.071447	0.845684
C73	C	-0.091769	-1.566247	0.342365
C74	C	0.408231	-1.066247	0.842365
C75	C	-0.353501	-1.861274	0.353495
C76	C	0.146499	-1.361274	0.853495
C77	C	-0.353508	-1.979580	0.353504
C78	C	0.146492	-1.479580	0.853504
C79	C	-0.304413	-1.113232	0.304544
C80	C	0.195587	-0.613232	0.804544
C81	C	-0.367847	-1.045566	0.289971
C82	C	0.132153	-0.545566	0.789971
C83	C	-0.290079	-1.045673	0.368046
C84	C	0.209921	-0.545673	0.868046
C85	C	-0.416949	-1.122695	0.338855
C86	C	0.083051	-0.622695	0.838855
C87	C	-0.339139	-1.122808	0.416957
C88	C	0.160861	-0.622808	0.916957
C89	C	-0.402619	-1.055178	0.402411
C90	C	0.097381	-0.555178	0.902411
C91	C	-0.385795	-1.634652	1.057623
C92	C	0.114205	-1.134652	1.557623
C93	C	-0.382658	-1.629692	0.984139
C94	C	0.117342	-1.129692	1.484139
C95	C	-0.336087	-1.556156	0.945490
C96	C	0.163913	-1.056156	1.445490
C97	C	-0.292655	-1.487569	0.980328
C98	C	0.207345	-0.987569	1.480328
C99	C	-0.295797	-1.492525	1.053811
C100	C	0.204203	-0.992525	1.553811
C101	C	-0.324354	-1.537631	0.723524
C102	C	0.175646	-1.037631	1.223524
C103	C	-0.321215	-1.532683	0.650037
C104	C	0.178785	-1.032683	1.150037
C105	C	-0.411218	-1.674805	0.653853
C106	C	0.088782	-1.174805	1.153853
C107	C	-0.414352	-1.679759	0.727336
C108	C	0.085648	-1.179759	1.227336
C109	C	-0.370924	-1.611168	0.762169
C110	C	0.129076	-1.111168	1.262169
C111	C	-0.332877	-1.551086	0.870377
C112	C	0.167123	-1.051086	1.370377
C113	C	-0.374137	-1.616234	0.837280
C114	C	0.125863	-1.116234	1.337280
C115	C	-0.345705	-1.571340	1.170663
C116	C	0.154295	-1.071340	1.670663
C117	C	-0.342365	-1.566073	1.092456
C118	C	0.157635	-1.066073	1.592456
H119	H	-0.617946	-1.472718	0.283183
H120	H	-0.117946	-0.972718	0.783183
H121	H	-0.294958	-1.491214	0.838901
H122	H	0.205042	-0.991214	1.338901
F123	F	-0.249570	-1.419537	1.090883
F124	F	0.250430	-0.919537	1.590883
H125	H	-0.867997	-1.676136	0.412075
H126	H	-0.367997	-1.176136	0.912075
F127	F	-1.097970	-1.713071	0.435433
F128	F	-0.597970	-1.213071	0.935433
H129	H	-0.254739	-1.427689	0.948854
H130	H	0.245261	-0.927689	1.448854
F131	F	-0.457435	-1.747798	0.616777
F132	F	0.042565	-1.247798	1.116777
F133	F	-0.463924	-1.758019	0.768465
F134	F	0.036076	-1.258019	1.268465
H135	H	-0.751246	-1.481797	0.288896
H136	H	-0.251246	-0.981797	0.788896
F137	F	-0.456930	-1.021848	0.456507
F138	F	0.043070	-0.521848	0.956507
F139	F	-0.323236	-1.167044	0.487100
F140	F	0.176764	-0.667044	0.987100
H141	H	-0.948261	-1.427823	0.254647
H142	H	-0.448261	-0.927823	0.754647
F143	F	-1.090294	-1.419747	0.249502
F144	F	-0.590294	-0.919747	0.749502
F145	F	-0.487064	-1.166605	0.322672
F146	F	0.012936	-0.666605	0.822672
F147	F	-0.946294	-1.702754	0.428927
F148	F	-0.446294	-1.202754	0.928927
H149	H	-0.758000	-1.739580	0.452310
H150	H	-0.258000	-1.239580	0.952310
F151	F	-0.615965	-1.747655	0.457458
F152	F	-0.115965	-1.247655	0.957458
H153	H	-0.262953	-1.138929	0.263131
H154	H	0.237047	-0.638929	0.763131
F155	F	-0.828619	-1.472889	0.283225
F156	F	-0.328619	-0.972889	0.783225
H157	H	-0.379995	-1.011744	0.236292
H158	H	0.120005	-0.511744	0.736292
F159	F	-0.219983	-1.001578	0.384147
F160	F	0.280017	-0.501578	0.884147
H161	H	-0.423715	-1.694538	1.089086
H162	H	0.076285	-1.194538	1.589086
H163	H	-0.418031	-1.685524	0.955782
H164	H	0.081969	-1.185524	1.455782
H165	H	-0.283286	-1.472802	0.618570
H166	H	0.216714	-0.972802	1.118570
F167	F	-0.278158	-1.464594	0.760587
F168	F	0.221842	-0.964594	1.260587
F169	F	-0.423703	-1.694489	0.878415
F170	F	0.076297	-1.194489	1.378415
