data_functionalizedCrystal
_audit_creation_method	'MofGen! by Chris Wilmer'
_symmetry_space_group_name_H-M	'P1'
_symmetry_Int_Tables_number	1
_symmetry_cell_setting	triclinic
loop_
_symmetry_equiv_pos_as_xyz
  x,y,z
_cell_length_a	15.944551
_cell_length_b	19.288865
_cell_length_c	14.421503
_cell_angle_alpha	90.000044
_cell_angle_beta	90.003941
_cell_angle_gamma	83.317493
loop_
_atom_site_label
_atom_site_type_symbol
_atom_site_fract_x
_atom_site_fract_y
_atom_site_fract_z
O1	O	-1.114185	-0.089572	-0.077026
O2	O	-0.614185	0.410428	0.422974
O3	O	-0.869593	-0.100616	-0.077050
O4	O	-0.369593	0.399384	0.422950
O5	O	-0.998957	0.006018	-0.077019
O6	O	-0.498957	0.506018	0.422981
O7	O	-0.984822	-0.196206	-0.077057
O8	O	-0.484822	0.303794	0.422943
O9	O	-0.998933	0.006000	0.077204
O10	O	-0.498933	0.506000	0.577204
O11	O	-0.869570	-0.100634	0.077173
O12	O	-0.369570	0.399366	0.577173
O13	O	-1.114162	-0.089589	0.077198
O14	O	-0.614162	0.410411	0.577198
Cu15	Cu	-0.991863	-0.095113	0.091267
Cu16	Cu	-0.491863	0.404887	0.591267
Cu17	Cu	-0.991891	-0.095092	-0.091120
Cu18	Cu	-0.491891	0.404908	0.408880
O19	O	-0.984798	-0.196223	0.077166
O20	O	-0.484798	0.303777	0.577166
C21	C	-0.998490	0.031887	0.000095
C22	C	-0.498490	0.531887	0.500095
C23	C	-0.997125	0.108994	0.000103
C24	C	-0.497125	0.608994	0.500103
C25	C	-0.838289	-0.100167	0.000059
C26	C	-0.338289	0.399833	0.500059
C27	C	-0.745048	-0.098792	0.000050
C28	C	-0.245048	0.401208	0.500050
C29	C	-1.145466	-0.090039	0.000087
C30	C	-0.645466	0.409961	0.500087
C31	C	-1.238706	-0.091414	0.000089
C32	C	-0.738706	0.408586	0.500089
C33	C	-0.530459	-0.029410	0.000081
C34	C	-0.030459	0.470590	0.500081
C35	C	-0.469326	-0.061620	-0.075965
C36	C	0.030674	0.438380	0.424035
C37	C	-0.574332	-0.096305	0.000061
C38	C	-0.074332	0.403695	0.500061
C39	C	-0.469325	-0.061653	0.076087
C40	C	0.030675	0.438347	0.576087
C41	C	-0.409429	-0.093898	0.000077
C42	C	0.090571	0.406102	0.500077
C43	C	-0.514428	-0.128534	-0.076048
C44	C	-0.014428	0.371466	0.423952
C45	C	-0.514433	-0.128558	0.076073
C46	C	-0.014433	0.371442	0.576073
C47	C	-0.453318	-0.160816	0.000008
C48	C	0.046682	0.339184	0.500008
C49	C	-0.669329	-0.097690	0.000052
C50	C	-0.169329	0.402310	0.500052
C51	C	-0.314433	-0.092519	0.000079
C52	C	0.185567	0.407481	0.500079
C53	C	-0.985265	-0.222092	0.000050
C54	C	-0.485265	0.277908	0.500050
C55	C	-0.986630	-0.299199	0.000036
C56	C	-0.486630	0.200801	0.500036
N57	N	-0.991850	-0.095128	0.219548
N58	N	-0.491850	0.404872	0.719548
C59	C	-1.073030	0.153490	0.000116
C60	C	-0.573030	0.653490	0.500116
C61	C	-1.071747	0.225941	0.000101
C62	C	-0.571747	0.725941	0.500101
C63	C	-0.994555	0.253891	0.000092
C64	C	-0.494555	0.753891	0.500092
C65	C	-0.918641	0.209385	0.000075
C66	C	-0.418641	0.709385	0.500075
C67	C	-0.919925	0.136936	0.000081
C68	C	-0.419925	0.636936	0.500081
C69	C	-0.933865	0.362332	0.054108
C70	C	-0.433865	0.862332	0.554108
C71	C	-0.932584	0.434780	0.054108
C72	C	-0.432584	0.934780	0.554108
C73	C	-0.990589	0.477347	0.000071
C74	C	-0.490589	0.977347	0.500071
C75	C	-1.049891	0.447459	-0.053953
C76	C	-0.549891	0.947459	0.446047
C77	C	-1.051176	0.375011	-0.053948
C78	C	-0.551176	0.875011	0.446052
C79	C	-0.993153	0.332449	0.000086
C80	C	-0.493153	0.832449	0.500086
C81	C	-1.065108	0.600403	0.000066
C82	C	-0.565108	1.100403	0.500066
C83	C	-1.063822	0.672855	0.000046
C84	C	-0.563822	1.172855	0.500046
C85	C	-0.910714	0.656298	0.000029
C86	C	-0.410714	1.156298	0.500029
C87	C	-0.912002	0.583848	0.000040
C88	C	-0.412002	1.083848	0.500040
C89	C	-0.989201	0.555906	0.000063
C90	C	-0.489201	1.055906	0.500063
C91	C	-0.932018	-0.144416	0.469188
C92	C	-0.432018	0.355584	0.969188
C93	C	-1.007865	-0.157902	0.530995
C94	C	-0.507865	0.342098	1.030995
C95	C	-0.991868	-0.095114	0.408710
C96	C	-0.491868	0.404886	0.908710
C97	C	-0.916037	-0.081647	0.530996
C98	C	-0.416037	0.418353	1.030996
C99	C	-0.991878	-0.095102	0.591431
C100	C	-0.491878	0.404898	1.091431
C101	C	-1.067753	-0.108631	0.469156
C102	C	-0.567753	0.391369	0.969156
C103	C	-0.975875	-0.032348	0.469152
C104	C	-0.475875	0.467652	0.969152
C105	C	-1.051777	-0.045807	0.530932
C106	C	-0.551777	0.454193	1.030932
C107	C	-0.991861	-0.095122	0.303449
C108	C	-0.491861	0.404878	0.803449
C109	C	-0.991894	-0.095092	0.696690
C110	C	-0.491894	0.404908	1.196690
N111	N	-0.991897	-0.095085	0.780599
N112	N	-0.491897	0.404915	1.280599
H113	H	-0.564006	0.026108	-0.000002
H114	H	-0.064006	0.526108	0.499998
H115	H	-0.858113	0.100707	0.000071
H116	H	-0.358113	0.600707	0.500071
H117	H	-0.881458	-0.186143	0.442078
H118	H	-0.381458	0.313857	0.942078
H119	H	-1.133560	0.262176	0.000107
H120	H	-0.633560	0.762176	0.500107
H121	H	-0.886628	0.327679	0.098115
H122	H	-0.386628	0.827679	0.598115
H123	H	-0.449338	-0.033354	0.140376
H124	H	0.050662	0.466646	0.640376
H125	H	-0.850192	0.547618	0.000036
H126	H	-0.350192	1.047618	0.500036
H127	H	-0.855790	0.232147	0.000066
H128	H	-0.355790	0.732147	0.500066
H129	H	-0.962314	0.020710	0.441967
H130	H	-0.462314	0.520710	0.941967
H131	H	-1.135891	0.130744	0.000131
H132	H	-0.635891	0.630744	0.500131
H133	H	-0.534446	-0.156836	0.140357
H134	H	-0.034446	0.343164	0.640357
H135	H	-0.449335	-0.033318	-0.140247
H136	H	0.050665	0.466682	0.359753
H137	H	-1.021403	-0.210977	0.558159
H138	H	-0.521403	0.289023	1.058159
H139	H	-1.099459	0.350679	-0.097938
H140	H	-0.599459	0.850679	0.402062
H141	H	-0.847863	0.679055	0.000018
H142	H	-0.347863	1.179055	0.500018
H143	H	-1.131900	-0.120079	0.442107
H144	H	-0.631900	0.379921	0.942107
H145	H	-1.097124	0.482117	-0.097956
H146	H	-0.597124	0.982117	0.402044
H147	H	-0.884293	0.459109	0.098092
H148	H	-0.384293	0.959109	0.598092
H149	H	-1.127969	0.577652	0.000080
H150	H	-0.627969	1.077652	0.500080
H151	H	-1.102450	-0.004106	0.557872
H152	H	-0.602450	0.495894	1.057872
H153	H	-1.125636	0.709084	0.000050
H154	H	-0.625636	1.209084	0.500050
H155	H	-0.851905	-0.070262	0.558163
H156	H	-0.351905	0.429738	1.058163
H157	H	-0.534316	-0.156799	-0.140409
H158	H	-0.034316	0.343201	0.359591
H159	H	-0.419945	-0.216391	-0.000045
H160	H	0.080055	0.283609	0.499955
