data_functionalizedCrystal
_audit_creation_method	'MofGen! by Chris Wilmer'
_symmetry_space_group_name_H-M	'P1'
_symmetry_Int_Tables_number	1
_symmetry_cell_setting	triclinic
loop_
_symmetry_equiv_pos_as_xyz
  x,y,z
_cell_length_a	16.959455
_cell_length_b	21.295411
_cell_length_c	16.959453
_cell_angle_alpha	89.982483
_cell_angle_beta	90.018936
_cell_angle_gamma	89.974184
loop_
_atom_site_label
_atom_site_type_symbol
_atom_site_fract_x
_atom_site_fract_y
_atom_site_fract_z
Zn1	Zn	1.208455	-0.355951	-0.314794
Zn2	Zn	1.208357	-0.250684	-0.446955
Zn3	Zn	1.076263	-0.250693	-0.314792
Zn4	Zn	1.076248	-0.355913	-0.446932
O5	O	1.142331	-0.303310	-0.380868
O6	O	1.319053	-0.341998	-0.332336
O7	O	1.190799	-0.162595	-0.429432
O8	O	1.093845	-0.264676	-0.204181
O9	O	1.318981	-0.264659	-0.429434
O10	O	1.190967	-0.342008	-0.204183
O11	O	1.093750	-0.162603	-0.332333
O12	O	0.965650	-0.264639	-0.332310
O13	O	1.093821	-0.444007	-0.429394
O14	O	0.965639	-0.341944	-0.429393
O15	O	1.190953	-0.444035	-0.332313
O16	O	1.190785	-0.264623	-0.557563
O17	O	1.093726	-0.341934	-0.557546
C18	C	0.936965	-0.303289	-0.380849
C19	C	0.849108	-0.303295	-0.380860
C20	C	0.807816	-0.263110	-0.330242
C21	C	0.807846	-0.343488	-0.431485
C22	C	0.725301	-0.343498	-0.431494
C23	C	0.684009	-0.303313	-0.380875
C24	C	0.725262	-0.263120	-0.330248
C25	C	0.684041	-0.383695	-0.482115
C26	C	0.601490	-0.383706	-0.482125
C27	C	0.560196	-0.343518	-0.431510
C28	C	0.601455	-0.303323	-0.380881
C29	C	0.560163	-0.263138	-0.330262
C30	C	0.601420	-0.222939	-0.279637
C31	C	0.683969	-0.222932	-0.279632
C32	C	0.477648	-0.343525	-0.431515
C33	C	0.477609	-0.263147	-0.330268
C34	C	1.142396	-0.467500	-0.380851
C35	C	1.142424	-0.537469	-0.380844
C36	C	1.192999	-0.570351	-0.330292
C37	C	1.192998	-0.636093	-0.330258
C38	C	1.142430	-0.668951	-0.380790
C39	C	1.091846	-0.636061	-0.431346
C40	C	1.091843	-0.570320	-0.431373
N41	N	1.136345	-0.772170	-0.449937
N42	N	1.136352	-0.834622	-0.449908
C43	C	1.142435	-0.867026	-0.380710
N44	N	1.148526	-0.834619	-0.311539
N45	N	1.148523	-0.772162	-0.311568
C46	C	1.142428	-0.740237	-0.380766
C47	C	1.193011	-0.971194	-0.330116
C48	C	1.193005	-1.036937	-0.330080
C49	C	1.091858	-1.036904	-0.431176
C50	C	1.091860	-0.971162	-0.431204
C51	C	1.142441	-0.938310	-0.380675
C52	C	1.348499	-0.303332	-0.380888
C53	C	1.436356	-0.303341	-0.380896
C54	C	1.142265	-0.303287	-0.586234
C55	C	1.142309	-0.303298	-0.674091
C56	C	1.142311	-0.139759	-0.380828
C57	C	1.142436	-0.069791	-0.380612
C58	C	1.192967	-0.343653	-1.045509
C59	C	1.091916	-0.263061	-1.045624
C60	C	1.091886	-0.263046	-0.963078
C61	C	1.142397	-0.303336	-0.921744
C62	C	1.192937	-0.343641	-0.962955
C63	C	1.041342	-0.222747	-0.921861
C64	C	1.041310	-0.222731	-0.839310
C65	C	1.091825	-0.263019	-0.797974
C66	C	1.142368	-0.303325	-0.839190
C67	C	1.192878	-0.343615	-0.797856
C68	C	1.243426	-0.383918	-0.839071
C69	C	1.243452	-0.383928	-0.921619
C70	C	1.091798	-0.263008	-0.715426
C71	C	1.192849	-0.343603	-0.715302
C72	C	1.142419	-0.303347	-0.174700
C73	C	1.142456	-0.303363	-0.086843
H74	H	0.717667	-0.416413	-0.523323
C75	C	1.247766	-0.534614	-0.275358
C76	C	1.203014	-0.496858	-0.224719
C77	C	1.253432	-0.463926	-0.174098
H78	H	1.277892	-0.563553	-0.245170
H79	H	1.282191	-0.508935	-0.305563
H80	H	1.168603	-0.522534	-0.194517
H81	H	1.172890	-0.467908	-0.254885
H82	H	1.287857	-0.438247	-0.204303
H83	H	1.283555	-0.492869	-0.143916
H84	H	1.223076	-0.438300	-0.139738
C85	C	1.248004	-1.072527	-0.275160
C86	C	1.292312	-1.029683	-0.230934
C87	C	1.342993	-1.062446	-0.180342
H88	H	1.217874	-1.098163	-0.240632
H89	H	1.282470	-1.098173	-0.305375
H90	H	1.257849	-1.004048	-0.200722
H91	H	1.322458	-1.004046	-0.265442
H92	H	1.377460	-1.088092	-0.210556
H93	H	1.312857	-1.088080	-0.145819
H94	H	1.373067	-1.033381	-0.150334
C95	C	0.432711	-0.387142	-0.486386
C96	C	0.351581	-0.378559	-0.475547
C97	C	0.310162	-0.418735	-0.526077
H98	H	0.446126	-0.377899	-0.539510
H99	H	0.446227	-0.429465	-0.474879
H100	H	0.338071	-0.336246	-0.487060
H101	H	0.338143	-0.387806	-0.422433
H102	H	0.323678	-0.461058	-0.514570
H103	H	0.323583	-0.409489	-0.579198
H104	H	0.255111	-0.412922	-0.518725
C105	C	1.036890	-0.219191	-0.670821
C106	C	0.992669	-0.183904	-0.724688
C107	C	0.942083	-0.143526	-0.683628
H108	H	1.002358	-0.243175	-0.638625
H109	H	1.067109	-0.191744	-0.638631
H110	H	0.962452	-0.211348	-0.756864
H111	H	1.027180	-0.159907	-0.756886
H112	H	0.972302	-0.116078	-0.651438
H113	H	0.907557	-0.167515	-0.651433
H114	H	0.912079	-0.119574	-0.720170
H115	H	1.284605	-0.416741	-0.955184
H116	H	1.000217	-0.189947	-0.955522
H117	H	1.234123	-0.376465	-1.079070
C118	C	1.036826	-1.072541	-0.485942
C119	C	0.958623	-1.056537	-0.468720
C120	C	0.907904	-1.089364	-0.519146
H121	H	1.048266	-1.061801	-0.539085
H122	H	1.044019	-1.116409	-0.478676
H123	H	0.951433	-1.012679	-0.475993
H124	H	0.947158	-1.067279	-0.415586
H125	H	0.915097	-1.133233	-0.511880
H126	H	0.919351	-1.078622	-0.572286
H127	H	0.854838	-1.078515	-0.507463
C128	C	1.037122	-0.219218	-1.090396
C129	C	1.054354	-0.156945	-1.070330
C130	C	1.003885	-0.116538	-1.111552
H131	H	1.044324	-0.224911	-1.145474
H132	H	0.983989	-0.228349	-1.076878
H133	H	1.107473	-0.147817	-1.083853
H134	H	1.047147	-0.151232	-1.015259
H135	H	0.950753	-0.125669	-1.098035
H136	H	1.011091	-0.122237	-1.166628
H137	H	1.015565	-0.074282	-1.097938
H138	H	1.000153	-0.189914	-0.805758
C139	C	1.037052	-0.935491	-0.486229
C140	C	1.054243	-0.951478	-0.564432
C141	C	1.003771	-0.918626	-0.615143
H142	H	0.983921	-0.946222	-0.474755
H143	H	1.044297	-0.891627	-0.479063
H144	H	1.046991	-0.995333	-0.571595
H145	H	1.107364	-0.940746	-0.575931
H146	H	1.011016	-0.874761	-0.607977
H147	H	0.950643	-0.929358	-0.603662
H148	H	1.015433	-0.929464	-0.668209
H149	H	1.234193	-0.944445	-0.288968
C150	C	1.247999	-0.671690	-0.275342
C151	C	1.292307	-0.628849	-0.231111
C152	C	1.342990	-0.661616	-0.180524
H153	H	1.217871	-0.697330	-0.240818
H154	H	1.282466	-0.697333	-0.305561
H155	H	1.257845	-0.603218	-0.200894
H156	H	1.322452	-0.603209	-0.265615
H157	H	1.377457	-0.687259	-0.210743
H158	H	1.312855	-0.687254	-0.146004
H159	H	1.373064	-0.632554	-0.150512
H160	H	1.233984	-0.376410	-0.681653
C161	C	1.298390	-0.427628	-0.794291
C162	C	1.376615	-0.413995	-0.814329
C163	C	1.427266	-0.454253	-0.773099
H164	H	1.291235	-0.421889	-0.739214
H165	H	1.286848	-0.469926	-0.807821
H166	H	1.388153	-0.371706	-0.800793
H167	H	1.383795	-0.419737	-0.869399
H168	H	1.415724	-0.496552	-0.786629
H169	H	1.420104	-0.448512	-0.718024
H170	H	1.480346	-0.445013	-0.786694
H171	H	1.050672	-0.662818	-0.472487
H172	H	0.443995	-0.230423	-0.289049
H173	H	0.841411	-0.230379	-0.289026
C174	C	0.556442	-0.179333	-0.224769
C175	C	0.475320	-0.187940	-0.235627
C176	C	0.433859	-0.147776	-0.185107
H177	H	0.569894	-0.188571	-0.171642
H178	H	0.569884	-0.137006	-0.236274
H179	H	0.461883	-0.230257	-0.224116
H180	H	0.461845	-0.178698	-0.288744
H181	H	0.447301	-0.105449	-0.196612
H182	H	0.447317	-0.157017	-0.131982
H183	H	0.378814	-0.153606	-0.192472
H184	H	1.050656	-0.543548	-0.472538
C185	C	0.728905	-0.179363	-0.224696
C186	C	0.810035	-0.187972	-0.235508
C187	C	0.851458	-0.147857	-0.184905
H188	H	0.715443	-0.137027	-0.236136
H189	H	0.715441	-0.188658	-0.171588
H190	H	0.823494	-0.178673	-0.288604
H191	H	0.823521	-0.230301	-0.224061
H192	H	0.837994	-0.157152	-0.131797
H193	H	0.837990	-0.105523	-0.196350
H194	H	0.906509	-0.153697	-0.192229
H195	H	0.841471	-0.376207	-0.472692
H196	H	0.567905	-0.416438	-0.523349
