data_functionalizedCrystal
_audit_creation_method	'MofGen! by Chris Wilmer'
_symmetry_space_group_name_H-M	'P1'
_symmetry_Int_Tables_number	1
_symmetry_cell_setting	triclinic
loop_
_symmetry_equiv_pos_as_xyz
  x,y,z
_cell_length_a	20.919309
_cell_length_b	20.919309
_cell_length_c	23.196401
_cell_angle_alpha	57.448769
_cell_angle_beta	90.012197
_cell_angle_gamma	60.099716
loop_
_atom_site_label
_atom_site_type_symbol
_atom_site_fract_x
_atom_site_fract_y
_atom_site_fract_z
Zr1	Zr	0.668055	0.648694	-0.074982
O2	O	0.567391	0.790105	-0.175526
O3	O	0.695170	0.513018	-0.041051
O4	O	0.700536	0.646164	-0.165805
O5	O	0.562051	0.656955	0.044100
O6	O	0.809821	0.637646	-0.161673
O7	O	0.562025	0.656958	-0.050772
O8	O	0.800222	0.399471	0.061489
O9	O	0.571650	0.895129	-0.179062
O10	O	0.792815	0.560343	-0.027251
O11	O	0.711276	0.566697	0.040467
O12	O	0.717594	0.723460	-0.106415
O13	O	0.636055	0.729814	-0.038697
Zr14	Zr	0.842394	0.635103	0.082920
Zr15	Zr	0.842352	0.635109	-0.068391
Zr16	Zr	0.668096	0.648689	0.076329
Zr17	Zr	0.674847	0.816196	-0.080621
Zr18	Zr	0.835601	0.467601	0.088559
O19	O	0.815279	0.770779	0.048989
O20	O	0.815220	0.770788	-0.166155
O21	O	0.567450	0.790096	0.039618
O22	O	0.943057	0.493693	0.183464
O23	O	0.942998	0.493701	-0.031680
O24	O	0.695229	0.513010	0.174093
O25	O	0.948397	0.626843	-0.036162
O26	O	0.809913	0.637633	0.173743
O27	O	0.700628	0.646151	0.169611
O28	O	0.948423	0.626839	0.058710
O29	O	0.710193	0.884330	-0.173823
O30	O	0.800255	0.399467	0.181761
O31	O	0.938798	0.388668	0.187000
O32	O	0.938765	0.388673	0.066728
O33	O	0.571683	0.895125	-0.058790
O34	O	0.710226	0.884326	-0.053551
O35	O	0.792854	0.560337	0.114353
O36	O	0.874393	0.553983	0.046635
O37	O	0.799172	0.717100	-0.032529
O38	O	0.717633	0.723454	0.035190
C39	C	0.746728	0.432379	0.011023
C40	C	0.743845	0.361270	0.013416
C41	C	0.785050	0.324546	-0.020807
C42	C	0.782343	0.257727	-0.018551
C43	C	0.738425	0.227638	0.017925
C44	C	0.697218	0.264365	0.052153
C45	C	0.699930	0.331178	0.049901
C46	C	0.728110	0.026067	0.026498
C47	C	0.725398	-0.040749	0.028745
C48	C	0.810525	-0.047383	-0.041958
C49	C	0.813229	0.019436	-0.044211
C50	C	0.772026	0.056153	-0.009979
C51	C	0.735654	0.159340	0.020230
C52	C	0.774802	0.124444	-0.012280
C53	C	0.537205	0.658892	-0.004275
C54	C	0.463211	0.664660	-0.007073
C55	C	0.467711	0.582226	0.032931
C56	C	0.398183	0.587651	0.030301
C57	C	0.324156	0.675510	-0.012339
C58	C	0.319658	0.757950	-0.052344
C59	C	0.389185	0.752524	-0.049709
C60	C	0.112266	0.696152	-0.022359
C61	C	0.042737	0.701571	-0.024993
C62	C	0.121268	0.531271	0.057653
C63	C	0.190792	0.525854	0.060281
C64	C	0.186288	0.608293	0.020279
C65	C	0.253087	0.681057	-0.015031
C66	C	0.257357	0.602745	0.022975
C67	C	0.973244	0.624905	0.012213
C68	C	1.047238	0.619138	0.015011
C69	C	0.755172	0.641906	-0.185297
C70	C	0.755155	0.641908	-0.249533
C71	C	0.763720	0.851418	-0.003084
C72	C	0.766604	0.922527	-0.005478
C73	C	0.715894	0.727051	-0.321028
C74	C	0.715914	0.727051	-0.381383
C75	C	0.755185	0.641904	-0.370238
C76	C	0.794454	0.556750	-0.298730
C77	C	0.794439	0.556752	-0.238377
C78	C	0.746595	0.579684	-0.435673
C79	C	0.746604	0.579686	-0.496026
C80	C	0.755236	0.641893	-0.556383
C81	C	0.763842	0.704115	-0.556388
C82	C	0.763827	0.704117	-0.496035
C83	C	0.755206	0.641892	-0.435675
C84	C	0.715996	0.727041	-0.693325
C85	C	0.716022	0.727037	-0.753679
C86	C	0.794557	0.556734	-0.671024
C87	C	0.794536	0.556740	-0.610672
C88	C	0.755251	0.641896	-0.621827
C89	C	0.755276	0.641891	0.193236
C90	C	0.755294	0.641889	0.257471
C91	C	0.964748	0.415386	0.019266
C92	C	1.035858	0.338509	0.024458
C93	C	0.746780	0.432372	0.200289
C94	C	0.743914	0.361261	0.266918
C95	C	0.964800	0.415378	0.208533
C96	C	1.035928	0.338499	0.277960
C97	C	0.545649	0.868419	-0.200595
C98	C	0.474521	0.945298	-0.270022
C99	C	0.545701	0.868412	-0.011328
C100	C	0.474591	0.945288	-0.016520
C101	C	0.763668	0.851425	-0.192351
C102	C	0.766534	0.922537	-0.258980
C103	C	1.026669	0.305727	-0.011678
C104	C	1.093479	0.233503	-0.006814
C105	C	1.169476	0.194058	0.034190
C106	C	1.178663	0.226847	0.070327
C107	C	1.111855	0.299074	0.065459
C108	C	0.785151	0.324546	0.336782
C109	C	0.782456	0.257739	0.399393
C110	C	0.738527	0.227643	0.392138
C111	C	0.697285	0.264364	0.322267
C112	C	0.699977	0.331175	0.259657
C113	C	1.111900	0.299079	0.275216
C114	C	1.178739	0.226852	0.340444
C115	C	1.169604	0.194042	0.408416
C116	C	1.093624	0.233470	0.411158
C117	C	1.026787	0.305700	0.345931
C118	C	0.398549	0.984727	-0.267278
C119	C	0.331711	1.056974	-0.332507
C120	C	0.340846	1.089788	-0.400479
C121	C	0.416826	1.050355	-0.403221
C122	C	0.483662	0.978114	-0.337993
C123	C	0.483780	0.978077	0.019609
C124	C	0.416971	1.050319	0.014728
C125	C	0.340974	1.089767	-0.026278
C126	C	0.331786	1.056975	-0.062412
C127	C	0.398595	0.984738	-0.057535
C128	C	0.810470	0.952611	-0.251702
C129	C	0.813178	1.019418	-0.314300
C130	C	0.771946	1.056154	-0.384177
C131	C	0.728009	1.026073	-0.391454
C132	C	0.725305	0.959262	-0.328855
H133	H	0.689631	-0.065243	0.058448
H134	H	0.259379	0.829487	-0.087058
H135	H	0.826430	0.487422	-0.289659
H136	H	0.661463	0.239856	0.081857
H137	H	0.964795	0.337842	-0.045076
H138	H	0.666374	0.361080	0.077767
H139	H	1.085982	0.206816	-0.036242
H140	H	0.815896	0.227826	-0.046418
H141	H	0.774153	1.110555	-0.435142
H142	H	0.826502	0.487408	-0.552456
H143	H	0.269901	1.089103	-0.095799
H144	H	0.694562	0.055951	0.054374
H145	H	1.224034	0.135227	0.461523
H146	H	0.385516	0.819651	-0.082276
H147	H	0.810563	0.148941	-0.041976
H148	H	0.844072	-0.077286	-0.069827
H149	H	0.683909	0.796392	-0.330118
H150	H	0.666399	0.361059	0.202773
H151	H	0.694439	1.055993	-0.448355
H152	H	1.240549	0.194721	0.103712
H153	H	0.545654	0.945965	0.053006
H154	H	0.684054	0.796372	-0.811895
H155	H	0.192807	0.752592	-0.049748
H156	H	0.424467	1.077006	0.044157
H157	H	0.391096	0.958015	-0.211938
H158	H	1.240599	0.194757	0.338198
H159	H	0.317632	0.531211	0.057695
H160	H	0.699896	0.134834	0.049929
H161	H	0.964929	0.337788	0.348175
H162	H	0.684008	0.796380	-0.702409
H163	H	1.223869	0.135246	0.038149
H164	H	1.086198	0.206745	0.466510
H165	H	0.736342	0.173240	0.443125
H166	H	0.391102	0.958044	-0.086955
H167	H	0.689525	0.934784	-0.334792
H168	H	1.119347	0.325756	0.094890
H169	H	-0.017540	0.773120	-0.059719
H170	H	0.527984	0.510681	0.067656
H171	H	0.545520	0.946011	-0.340236
H172	H	0.770836	0.754779	-0.496041
H173	H	0.108588	0.763280	-0.054945
H174	H	0.661520	0.239849	0.316371
H175	H	0.683942	0.796386	-0.439605
H176	H	0.739560	0.529029	-0.386532
H177	H	0.820809	0.349045	-0.050514
H178	H	0.820923	0.349043	0.342703
H179	H	0.401855	0.520525	0.062878
H180	H	0.848991	0.043933	-0.073912
H181	H	0.770867	0.754773	-0.605533
H182	H	1.119353	0.325781	0.219876
H183	H	0.269851	1.089068	-0.330260
H184	H	0.286416	1.148612	-0.453586
H185	H	0.816043	0.227848	0.456279
H186	H	0.424254	1.077081	-0.458572
H187	H	0.844047	0.922711	-0.194811
H188	H	0.251065	0.454309	0.094989
H189	H	0.848956	1.043903	-0.308361
H190	H	0.124926	0.464154	0.090221
H191	H	0.286581	1.148586	-0.030243
H192	H	0.826532	0.487405	-0.661948
H193	H	0.826411	0.487416	-0.180160
H194	H	0.739592	0.529025	-0.496018
