data_functionalizedCrystal
_audit_creation_method	'MofGen! by Chris Wilmer'
_symmetry_space_group_name_H-M	'P1'
_symmetry_Int_Tables_number	1
_symmetry_cell_setting	triclinic
loop_
_symmetry_equiv_pos_as_xyz
  x,y,z
_cell_length_a	9.065215
_cell_length_b	10.654551
_cell_length_c	8.140239
_cell_angle_alpha	89.998240
_cell_angle_beta	89.997810
_cell_angle_gamma	84.750063
loop_
_atom_site_label
_atom_site_type_symbol
_atom_site_fract_x
_atom_site_fract_y
_atom_site_fract_z
O1	O	1.959395	0.184140	-0.136587
O2	O	1.530027	0.199249	-0.136594
O3	O	1.754582	0.008995	-0.136587
O4	O	1.734840	0.374395	-0.136594
O5	O	1.754569	0.008992	0.136640
O6	O	1.530014	0.199247	0.136633
O7	O	1.959382	0.184138	0.136640
Zn8	Zn	1.744696	0.191692	0.180017
Zn9	Zn	1.744713	0.191695	-0.179971
O10	O	1.734827	0.374393	0.136633
C11	C	1.475042	0.197797	0.000018
C12	C	1.311222	0.193458	0.000016
C13	C	1.753126	-0.037810	0.000024
C14	C	1.748788	-0.177271	0.000016
C15	C	1.746758	-0.242781	-0.148921
C16	C	1.742670	-0.373818	-0.148923
C17	C	1.742646	-0.373822	0.148964
C18	C	1.746724	-0.242787	0.148964
C19	C	1.650818	-0.544252	-0.327862
C20	C	1.648814	-0.609769	-0.476808
C21	C	1.736453	-0.575881	-0.608305
C22	C	1.826132	-0.476481	-0.590862
C23	C	1.828148	-0.410972	-0.441914
C24	C	1.740475	-0.444854	-0.310423
C25	C	1.838588	-0.072352	0.327893
C26	C	1.840616	-0.006841	0.476843
C27	C	1.752986	-0.040727	0.608354
C28	C	1.663330	-0.140134	0.590927
C29	C	1.661302	-0.205644	0.441977
C30	C	1.748930	-0.171749	0.310466
C31	C	2.014367	0.185590	0.000024
C32	C	2.178187	0.189929	0.000016
C33	C	1.736283	0.421197	0.000018
C34	C	1.740621	0.560658	0.000015
N35	N	1.744696	0.191689	0.425700
N36	N	1.744725	0.191688	-0.425654
H37	H	1.901165	-0.330044	-0.427712
H38	H	1.591942	-0.167701	0.697999
H39	H	1.897505	-0.448909	-0.697940
O40	O	1.923801	-0.039654	0.200093
C41	C	2.120346	-0.106063	0.011285
C42	C	2.023916	-0.143270	0.155981
H43	H	2.201334	-0.189807	-0.024402
H44	H	2.046450	-0.077059	-0.098132
H45	H	2.184711	-0.023732	0.049351
H46	H	1.959536	-0.225626	0.118072
H47	H	2.097890	-0.172195	0.265361
O48	O	1.561563	-0.706249	-0.493504
C49	C	1.385944	-0.831573	-0.364646
C50	C	1.484648	-0.722264	-0.345522
H51	H	1.323757	-0.844573	-0.245011
H52	H	1.303054	-0.809186	-0.468226
H53	H	1.458044	-0.921950	-0.394838
H54	H	1.412668	-0.631842	-0.315270
H55	H	1.567547	-0.744759	-0.241981
O56	O	1.574069	-0.302137	0.425294
C57	C	1.398495	-0.427484	0.554188
C58	C	1.497189	-0.318167	0.573294
H59	H	1.336334	-0.440496	0.673839
H60	H	1.315581	-0.405098	0.450630
H61	H	1.470598	-0.517854	0.523972
H62	H	1.425205	-0.227752	0.603571
H63	H	1.580111	-0.340661	0.676813
H64	H	1.579434	-0.571842	-0.220803
O65	O	1.927883	0.089587	0.493963
C66	C	2.128871	0.171113	0.641505
C67	C	2.030176	0.061810	0.622261
H68	H	2.211579	0.148706	0.745252
H69	H	2.191268	0.184104	0.522002
H70	H	2.056746	0.261501	0.671577
H71	H	2.102192	-0.028642	0.592242
H72	H	1.967768	0.048929	0.741783
H73	H	1.748434	-0.189441	-0.270204
H74	H	1.754657	0.012615	0.729641
H75	H	1.740969	-0.427182	0.270232
H76	H	1.734819	-0.629235	-0.729580
