data_functionalizedCrystal
_audit_creation_method	'MofGen! by Chris Wilmer'
_symmetry_space_group_name_H-M	'P1'
_symmetry_Int_Tables_number	1
_symmetry_cell_setting	triclinic
loop_
_symmetry_equiv_pos_as_xyz
  x,y,z
_cell_length_a	12.759401
_cell_length_b	21.295416
_cell_length_c	12.759393
_cell_angle_alpha	90.036747
_cell_angle_beta	89.981504
_cell_angle_gamma	89.969391
loop_
_atom_site_label
_atom_site_type_symbol
_atom_site_fract_x
_atom_site_fract_y
_atom_site_fract_z
Zn1	Zn	1.606141	0.250567	-0.593945
Zn2	Zn	1.605987	0.355851	-0.418249
Zn3	Zn	1.430443	0.250600	-0.418284
Zn4	Zn	1.430384	0.355803	-0.593891
O5	O	1.518239	0.303205	-0.506092
O6	O	1.753141	0.264540	-0.570647
O7	O	1.582662	0.341924	-0.271233
O8	O	1.453839	0.162507	-0.441623
O9	O	1.753029	0.341891	-0.441564
O10	O	1.582923	0.162482	-0.570681
O11	O	1.453690	0.264596	-0.271259
O12	O	1.283414	0.264549	-0.441571
O13	O	1.453737	0.341809	-0.740919
O14	O	1.283370	0.341841	-0.570588
O15	O	1.582866	0.264493	-0.740959
O16	O	1.582604	0.443934	-0.441511
O17	O	1.453589	0.443899	-0.570554
C18	C	1.245271	0.303194	-0.506078
C19	C	1.128495	0.303205	-0.506097
C20	C	1.518102	0.466757	-0.506046
C21	C	1.518139	0.536725	-0.506061
C22	C	0.963906	0.343521	-0.573177
C23	C	1.073630	0.343514	-0.573166
C24	C	1.073629	0.262904	-0.439026
C25	C	0.963907	0.262914	-0.439032
C26	C	1.585377	0.569589	-0.438940
C27	C	1.585427	0.635332	-0.438968
C28	C	1.518220	0.668208	-0.506107
C29	C	1.450977	0.635335	-0.573241
C30	C	1.450937	0.569594	-0.573219
N31	N	1.426313	0.771473	-0.514119
N32	N	1.426354	0.833925	-0.514134
C33	C	1.518338	0.866282	-0.506181
N34	N	1.610282	0.833829	-0.498192
N35	N	1.610240	0.771372	-0.498171
C36	C	1.518256	0.739493	-0.506140
C37	C	1.585636	0.970432	-0.439087
C38	C	1.585687	1.036176	-0.439123
C39	C	1.451228	1.036178	-0.573391
C40	C	1.451186	0.970436	-0.573360
C41	C	1.518388	0.937567	-0.506203
C42	C	1.792272	0.303217	-0.506108
C43	C	1.909049	0.303222	-0.506114
C44	C	1.518312	0.303142	-0.780126
C45	C	1.518343	0.303115	-0.896903
C46	C	1.518406	1.139015	-0.506180
C47	C	1.518481	1.069047	-0.506264
C48	C	1.451212	0.262843	-0.951777
C49	C	1.451236	0.262824	-1.061502
C50	C	1.585533	0.343349	-1.061466
C51	C	1.585502	0.343371	-0.951744
C52	C	1.518226	0.303223	-0.233125
C53	C	1.518398	0.303073	-0.116349
H54	H	0.919244	0.376343	-0.627799
C55	C	1.659639	1.072330	-0.365275
H56	H	1.650044	1.116191	-0.374910
H57	H	1.644277	1.061598	-0.294673
H58	H	1.730224	1.061512	-0.380695
C59	C	1.659352	0.387671	-0.891378
H60	H	1.699364	0.411637	-0.939752
H61	H	1.619121	0.415104	-0.848559
H62	H	1.705145	0.363598	-0.848590
H63	H	1.396258	0.662107	-0.627908
H64	H	1.396511	1.062945	-0.628061
H65	H	1.396570	0.230031	-1.106176
H66	H	1.640212	0.376125	-1.106132
C67	C	1.377324	0.218573	-0.891455
H68	H	1.337338	0.194592	-0.939855
H69	H	1.417518	0.191153	-0.848663
H70	H	1.331509	0.242669	-0.848645
C71	C	1.133974	0.387850	-0.646921
H72	H	1.207178	0.382080	-0.637300
H73	H	1.116036	0.378697	-0.717545
H74	H	1.115948	0.430135	-0.631398
H75	H	0.919241	0.230097	-0.384416
C76	C	1.133977	0.218563	-0.365252
H77	H	1.207181	0.224323	-0.374860
H78	H	1.115965	0.227725	-0.294634
H79	H	1.116024	0.176279	-0.380767
C80	C	1.659309	0.533437	-0.365082
H81	H	1.699368	0.562429	-0.325117
H82	H	1.619135	0.507833	-0.319261
H83	H	1.705054	0.507750	-0.405311
H84	H	1.640360	0.943669	-0.384407
C85	C	1.377217	0.934280	-0.647186
H86	H	1.386824	0.890419	-0.637562
H87	H	1.306641	0.945100	-0.631756
H88	H	1.392570	0.945010	-0.717797
H89	H	1.640184	0.662095	-0.384310
C90	C	1.376966	0.533442	-0.647050
H91	H	1.336942	0.562435	-0.687038
H92	H	1.417112	0.507748	-0.692849
H93	H	1.331189	0.507845	-0.606802
