data_functionalizedCrystal
_audit_creation_method	'MofGen! by Chris Wilmer'
_symmetry_space_group_name_H-M	'P1'
_symmetry_Int_Tables_number	1
_symmetry_cell_setting	triclinic
loop_
_symmetry_equiv_pos_as_xyz
  x,y,z
_cell_length_a	8.559649
_cell_length_b	8.559648
_cell_length_c	14.048226
_cell_angle_alpha	89.995015
_cell_angle_beta	89.993610
_cell_angle_gamma	110.221336
loop_
_atom_site_label
_atom_site_type_symbol
_atom_site_fract_x
_atom_site_fract_y
_atom_site_fract_z
O1	O	2.126885	0.055032	-0.079152
O2	O	1.651400	-0.028749	-0.079146
O3	O	1.931033	0.250884	-0.079173
O4	O	1.847252	-0.224601	-0.079125
O5	O	1.931005	0.250895	0.079149
O6	O	1.651372	-0.028738	0.079175
O7	O	2.126857	0.055043	0.079170
Zn8	Zn	1.889110	0.013154	0.104309
Zn9	Zn	1.889147	0.013140	-0.104286
O10	O	1.847224	-0.224590	0.079196
C11	C	1.591077	-0.035093	0.000015
C12	C	1.411378	-0.053992	0.000015
C13	C	1.937369	0.311198	-0.000020
C14	C	1.956268	0.490898	-0.000044
N15	N	1.889097	0.013167	0.246670
C16	C	2.187180	0.061387	0.000007
C17	C	2.366879	0.080286	0.000000
C18	C	1.840889	0.715096	0.000015
C19	C	1.821990	0.535396	-0.000046
N20	N	1.889175	0.013142	-0.246646
C21	C	2.012947	0.136947	0.296476
C22	C	2.012958	0.136949	0.396134
C23	C	1.889124	0.013163	0.445984
C24	C	1.765261	-0.110624	0.396170
C25	C	1.765245	-0.110618	0.296514
C26	C	1.765307	-0.110630	0.603884
C27	C	1.765325	-0.110638	0.703547
C28	C	2.013020	0.136937	0.703504
C29	C	2.013004	0.136943	0.603848
C30	C	1.889142	0.013154	0.554042
H31	H	1.311990	-0.183420	0.000023
O32	O	1.485365	0.234724	-0.000184
C33	C	1.601333	0.496841	-0.082203
C34	C	1.467075	0.321975	-0.082124
H35	H	1.586570	0.567446	-0.148434
H36	H	1.730043	0.485187	-0.082262
H37	H	1.586708	0.567390	-0.015923
H38	H	1.481545	0.251329	-0.148392
H39	H	1.338417	0.333748	-0.082015
H40	H	2.113793	0.237742	0.255895
H41	H	1.692570	0.436018	-0.000034
H42	H	2.085696	0.590286	-0.000046
O43	O	1.644911	-0.231045	0.555649
C44	C	1.399191	-0.476564	0.566202
C45	C	1.535448	-0.340314	0.620948
H46	H	1.310634	-0.564923	0.618973
H47	H	1.459175	-0.549171	0.519567
H48	H	1.326823	-0.416382	0.519527
H49	H	1.607863	-0.400360	0.667674
H50	H	1.475363	-0.267720	0.667524
O51	O	2.133304	0.257405	0.751773
C52	C	2.262961	0.551095	0.782275
C53	C	2.126694	0.414852	0.727533
H54	H	2.257641	0.678420	0.762713
H55	H	2.390325	0.545944	0.762643
H56	H	2.241722	0.529763	0.862061
H57	H	2.147775	0.436094	0.647735
H58	H	1.999378	0.420039	0.747245
O59	O	1.644860	-0.231026	0.248277
C60	C	1.399126	-0.476531	0.258831
C61	C	1.535393	-0.340292	0.313576
H62	H	1.310566	-0.564887	0.311601
H63	H	1.459099	-0.549144	0.212191
H64	H	1.326763	-0.416338	0.212159
H65	H	1.607803	-0.400348	0.360299
H66	H	1.475319	-0.267693	0.360155
H67	H	2.113806	0.237741	0.436686
H68	H	2.113845	0.237732	0.563261
H69	H	1.664485	-0.211437	0.744130
H70	H	1.664426	-0.211409	0.436763
