data_functionalizedCrystal
_audit_creation_method	'MofGen! by Chris Wilmer'
_symmetry_space_group_name_H-M	'P1'
_symmetry_Int_Tables_number	1
_symmetry_cell_setting	triclinic
loop_
_symmetry_equiv_pos_as_xyz
  x,y,z
_cell_length_a	19.805407
_cell_length_b	14.908178
_cell_length_c	19.805399
_cell_angle_alpha	86.674164
_cell_angle_beta	89.984884
_cell_angle_gamma	93.311253
loop_
_atom_site_label
_atom_site_type_symbol
_atom_site_fract_x
_atom_site_fract_y
_atom_site_fract_z
Zn1	Zn	1.019205	-0.359259	-0.367131
Zn2	Zn	1.519205	0.140741	0.132869
Zn3	Zn	1.012611	-0.510139	-0.247410
Zn4	Zn	1.512611	-0.010139	0.252590
Zn5	Zn	0.906024	-0.359280	-0.253959
Zn6	Zn	1.406024	0.140720	0.246041
Zn7	Zn	0.899471	-0.510080	-0.360563
Zn8	Zn	1.399471	-0.010080	0.139437
O9	O	0.959328	-0.434689	-0.307266
O10	O	1.459328	0.065311	0.192734
O11	O	1.113046	-0.379289	-0.351258
O12	O	1.613046	0.120711	0.148742
O13	O	0.998454	-0.490161	-0.153560
O14	O	1.498454	0.009839	0.346440
O15	O	0.926541	-0.233023	-0.274461
O16	O	1.426541	0.266977	0.225539
O17	O	1.108201	-0.490140	-0.263300
O18	O	1.608201	0.009860	0.236700
O19	O	1.009694	-0.233007	-0.357608
O20	O	1.509694	0.266993	0.142392
O21	O	0.920146	-0.379326	-0.158372
O22	O	1.420146	0.120674	0.341628
O23	O	0.810439	-0.379269	-0.268091
O24	O	1.310439	0.120731	0.231909
O25	O	0.915372	-0.490040	-0.456152
O26	O	1.415372	0.009960	0.043848
O27	O	0.805625	-0.490061	-0.346413
O28	O	1.305625	0.009939	0.153587
O29	O	1.003340	-0.379232	-0.460978
O30	O	1.503340	0.120768	0.039022
O31	O	0.992100	-0.636385	-0.256930
O32	O	1.492100	-0.136385	0.243070
O33	O	0.908977	-0.636342	-0.340063
O34	O	1.408977	-0.136342	0.159937
C35	C	0.783473	-0.434661	-0.307250
C36	C	1.283473	0.065339	0.192750
C37	C	0.708241	-0.434671	-0.307259
C38	C	1.208241	0.065329	0.192741
C39	C	0.675416	-0.377053	-0.353121
C40	C	1.175416	0.122947	0.146879
C41	C	0.604727	-0.377058	-0.353123
C42	C	1.104727	0.122942	0.146877
C43	C	0.566865	-0.434686	-0.307267
C44	C	1.066865	0.065314	0.192733
C45	C	0.599694	-0.492306	-0.261400
C46	C	1.099694	0.007694	0.238600
C47	C	0.670382	-0.492296	-0.261395
C48	C	1.170382	0.007704	0.238605
C49	C	0.314619	-0.492347	-0.261419
C50	C	0.814619	0.007653	0.238581
C51	C	0.243927	-0.492354	-0.261429
C52	C	0.743927	0.007646	0.238571
C53	C	0.248964	-0.377108	-0.353147
C54	C	0.748964	0.122892	0.146853
C55	C	0.319652	-0.377098	-0.353142
C56	C	0.819652	0.122902	0.146858
C57	C	0.352476	-0.434715	-0.307273
C58	C	0.852476	0.065285	0.192727
C59	C	0.429125	-0.434708	-0.307271
C60	C	0.929125	0.065292	0.192729
C61	C	0.490217	-0.434698	-0.307272
C62	C	0.990217	0.065302	0.192728
C63	C	0.949130	-0.669100	-0.297088
C64	C	1.449130	-0.169100	0.202912
C65	C	0.944830	-0.769382	-0.292757
C66	C	1.444830	-0.269382	0.207243
C67	C	1.023270	-0.957655	-0.371292
C68	C	1.523270	-0.457655	0.128708
C69	C	1.019232	-1.051879	-0.367224
C70	C	1.519232	-0.551879	0.132776
C71	C	0.932711	-1.052054	-0.280558
C72	C	1.432711	-0.552054	0.219442
C73	C	0.936750	-0.957831	-0.284625
C74	C	1.436750	-0.457831	0.215375
C75	C	0.982031	-0.910635	-0.329993
C76	C	1.482031	-0.410635	0.170007
C77	C	0.986073	-0.816409	-0.334057
C78	C	1.486073	-0.316409	0.165943
C79	C	0.899549	-0.816586	-0.247394
C80	C	1.399549	-0.316586	0.252606
C81	C	0.895511	-0.910810	-0.243327
C82	C	1.395511	-0.410810	0.256673
C83	C	1.135869	-0.434719	-0.307281
C84	C	1.635869	0.065281	0.192719
C85	C	1.211101	-0.434731	-0.307288
C86	C	1.711101	0.065269	0.192712
C87	C	0.959360	-0.434627	-0.483811
C88	C	1.459360	0.065373	0.016189
C89	C	0.959374	-0.434600	-0.559044
C90	C	1.459374	0.065400	-0.059044
C91	C	0.969584	-0.199364	-0.317498
C92	C	1.469584	0.300636	0.182502
C93	C	0.973954	-0.099082	-0.321858
C94	C	1.473954	0.400918	0.178142
C95	C	0.918611	-0.376883	-0.596893
C96	C	1.418611	0.123117	-0.096893
C97	C	0.918622	-0.376865	-0.667583
C98	C	1.418622	0.123135	-0.167583
C99	C	0.959398	-0.434561	-0.700422
C100	C	1.459398	0.065439	-0.200422
C101	C	1.000163	-0.492285	-0.662567
C102	C	1.500163	0.007715	-0.162567
C103	C	1.000149	-0.492306	-0.591879
C104	C	1.500149	0.007694	-0.091879
C105	C	1.000220	-0.492201	-0.947644
C106	C	1.500220	0.007799	-0.447644
C107	C	1.000233	-0.492173	-1.018338
C108	C	1.500233	0.007827	-0.518338
C109	C	0.918693	-0.376760	-1.023348
C110	C	1.418693	0.123240	-0.523348
C111	C	0.918679	-0.376781	-0.952660
C112	C	1.418679	0.123219	-0.452660
C113	C	0.959440	-0.434508	-0.914811
C114	C	1.459440	0.065492	-0.414811
C115	C	0.959428	-0.434527	-0.838162
C116	C	1.459428	0.065473	-0.338162
C117	C	0.959415	-0.434538	-0.777070
C118	C	1.459415	0.065462	-0.277070
C119	C	0.959337	-0.434687	-0.131410
C120	C	1.459337	0.065313	0.368590
C121	C	0.959466	-0.434459	-0.056188
C122	C	1.459466	0.065541	0.443812
H123	H	0.578004	-0.330141	-0.390469
H124	H	1.078004	0.169859	0.109531
H125	H	0.706238	-0.330128	-0.390464
H126	H	1.206238	0.169872	0.109536
C127	C	0.914546	-0.255441	-0.878444
C128	C	1.414546	0.244559	-0.378444
C129	C	0.873855	-0.313361	-0.916564
C130	C	1.373855	0.186639	-0.416564
H131	H	0.886871	-0.216287	-0.856164
H132	H	1.386871	0.283713	-0.356164
H133	H	0.938816	-0.289819	-0.845788
H134	H	1.438816	0.210181	-0.345788
H135	H	0.945542	-0.220927	-0.907530
H136	H	1.445542	0.279073	-0.407530
H137	H	0.842862	-0.347881	-0.887477
H138	H	1.342862	0.152119	-0.387477
H139	H	0.849574	-0.278980	-0.949223
H140	H	1.349574	0.221020	-0.449223
H141	H	0.341336	-0.539263	-0.224071
H142	H	0.841336	-0.039263	0.275929
C143	C	0.813625	-0.826228	-0.161311
C144	C	1.313625	-0.326228	0.338689
C145	C	0.854218	-0.764900	-0.201991
C146	C	1.354218	-0.264900	0.298009
H147	H	0.785646	-0.794317	-0.133278
H148	H	1.285646	-0.294317	0.366722
H149	H	0.786136	-0.862973	-0.189189
H150	H	1.286136	-0.362973	0.310811
H151	H	0.841567	-0.862976	-0.133870
H152	H	1.341567	-0.362976	0.366130
H153	H	0.826276	-0.728156	-0.229436
H154	H	1.326276	-0.228156	0.270564
H155	H	0.881710	-0.728139	-0.174110
H156	H	1.381710	-0.228139	0.325890
C157	C	1.051457	-1.196237	-0.399473
C158	C	1.551457	-0.696237	0.100527
C159	C	1.064563	-1.103567	-0.412620
C160	C	1.564563	-0.603567	0.087380
H161	H	1.079440	-1.228145	-0.427504
H162	H	1.579440	-0.728145	0.072496
H163	H	1.060734	-1.211704	-0.353343
H164	H	1.560734	-0.711704	0.146657
H165	H	1.005307	-1.211712	-0.408667
H166	H	1.505307	-0.711712	0.091333
H167	H	1.110712	-1.088091	-0.403421
H168	H	1.610712	-0.588091	0.096579
H169	H	1.055290	-1.088093	-0.458760
H170	H	1.555290	-0.588093	0.041240
H171	H	1.033360	-0.539267	-0.689310
H172	H	1.533360	-0.039267	-0.189310
C173	C	0.838004	-0.262806	-0.608953
C174	C	1.338004	0.237194	-0.108953
C175	C	0.873784	-0.313465	-0.560800
C176	C	1.373784	0.186535	-0.060800
H177	H	0.810324	-0.223660	-0.586670
H178	H	1.310324	0.276340	-0.086670
H179	H	0.869002	-0.228290	-0.638025
H180	H	1.369002	0.271710	-0.138025
H181	H	0.810411	-0.302115	-0.634814
H182	H	1.310411	0.197885	-0.134814
H183	H	0.901381	-0.274156	-0.534942
H184	H	1.401381	0.225844	-0.034942
H185	H	0.842782	-0.347984	-0.531717
H186	H	1.342782	0.152016	-0.031717
C187	C	0.776507	-0.543450	-0.220659
C188	C	1.276507	-0.043450	0.279341
C189	C	0.706467	-0.555632	-0.210983
C190	C	1.206467	-0.055632	0.289017
H191	H	0.798782	-0.582546	-0.189530
H192	H	1.298782	-0.082546	0.310470
H193	H	0.787528	-0.556735	-0.265536
H194	H	1.287528	-0.056735	0.234464
H195	H	0.790712	-0.482808	-0.213460
H196	H	1.290712	0.017192	0.286540
H197	H	0.692261	-0.616272	-0.218187
H198	H	1.192261	-0.116272	0.281813
H199	H	0.695442	-0.542353	-0.166095
H200	H	1.195442	-0.042353	0.333905
C201	C	0.882492	-0.325481	-1.133933
C202	C	1.382492	0.174519	-0.633933
C203	C	0.873877	-0.313315	-1.064953
C204	C	1.373877	0.186685	-0.564953
H205	H	0.854822	-0.286317	-1.159615
H206	H	1.354822	0.213683	-0.659615
H207	H	0.928540	-0.312279	-1.146095
H208	H	1.428540	0.187721	-0.646095
H209	H	0.869944	-0.386099	-1.142871
H210	H	1.369944	0.113901	-0.642871
H211	H	0.886429	-0.252699	-1.056014
H212	H	1.386429	0.247301	-0.556014
H213	H	0.827819	-0.326511	-1.052786
H214	H	1.327819	0.173489	-0.552786
C215	C	0.828122	-0.364303	-0.747592
C216	C	1.328122	0.135697	-0.247592
C217	C	0.873802	-0.313427	-0.709178
C218	C	1.373802	0.186573	-0.209178
H219	H	0.800445	-0.325139	-0.773265
H220	H	1.300445	0.174861	-0.273265
H221	H	0.852407	-0.398646	-0.777270
H222	H	1.352407	0.101354	-0.277270
H223	H	0.800527	-0.403619	-0.718290
H224	H	1.300527	0.096381	-0.218290
H225	H	0.901401	-0.274115	-0.738481
H226	H	1.401401	0.225885	-0.238481
H227	H	0.849516	-0.279069	-0.679497
H228	H	1.349516	0.220931	-0.179497
H229	H	1.033347	-0.539299	-0.561063
H230	H	1.533347	-0.039299	-0.061063
C231	C	0.575987	-0.536060	-0.144835
C232	C	1.075987	-0.036060	0.355165
C233	C	0.558078	-0.555653	-0.210993
C234	C	1.058078	-0.055653	0.289007
H235	H	0.550292	-0.575168	-0.113718
H236	H	1.050292	-0.075168	0.386282
H237	H	0.622778	-0.544301	-0.138272
H238	H	1.122778	-0.044301	0.361728
H239	H	0.567025	-0.475424	-0.137646
H240	H	1.067025	0.024576	0.362354
H241	H	0.567044	-0.616287	-0.218184
H242	H	1.067044	-0.116287	0.281816
H243	H	0.511276	-0.547419	-0.217558
H244	H	1.011276	-0.047419	0.282442
H245	H	1.022945	-0.777983	-0.370996
H246	H	1.522945	-0.277983	0.129004
C247	C	0.261045	-0.263192	-0.443817
C248	C	0.761045	0.236808	0.056183
C249	C	0.212883	-0.313768	-0.403566
C250	C	0.712883	0.186232	0.096434
H251	H	0.238770	-0.224096	-0.474946
H252	H	0.738770	0.275904	0.025054
H253	H	0.290105	-0.228626	-0.415870
H254	H	0.790105	0.271374	0.084130
H255	H	0.286917	-0.302556	-0.467943
H256	H	0.786917	0.197444	0.032057
H257	H	0.187015	-0.274403	-0.379436
H258	H	0.687015	0.225597	0.120564
H259	H	0.183812	-0.348336	-0.431517
H260	H	0.683812	0.151664	0.068483
C261	C	0.898564	-1.081209	-0.164658
C262	C	1.398564	-0.581209	0.335342
C263	C	0.882935	-1.103935	-0.230694
C264	C	1.382935	-0.603935	0.269306
H265	H	0.867830	-1.113234	-0.133875
H266	H	1.367830	-0.613234	0.366125
H267	H	0.943380	-1.096619	-0.154135
H268	H	1.443380	-0.596619	0.345865
H269	H	0.895068	-1.018362	-0.161176
H270	H	1.395068	-0.518362	0.338824
H271	H	0.886436	-1.166783	-0.234177
H272	H	1.386436	-0.666783	0.265823
H273	H	0.838108	-1.088531	-0.241220
H274	H	1.338108	-0.588531	0.258780
H275	H	1.060145	-0.919228	-0.408227
H276	H	1.560145	-0.419228	0.091773
H277	H	0.858642	-0.949250	-0.206391
H278	H	1.358642	-0.449250	0.293609
C279	C	0.399713	-0.364708	-0.444737
C280	C	0.899713	0.135292	0.055263
C281	C	0.361268	-0.313752	-0.403550
C282	C	0.861268	0.186248	0.096450
H283	H	0.425401	-0.325597	-0.475859
H284	H	0.925401	0.174403	0.024141
H285	H	0.429378	-0.399014	-0.417424
H286	H	0.929378	0.100986	0.082576
H287	H	0.370431	-0.404062	-0.468871
H288	H	0.870431	0.095938	0.031129
H289	H	0.390552	-0.274403	-0.379412
H290	H	0.890552	0.225597	0.120588
H291	H	0.331601	-0.279431	-0.430867
H292	H	0.831601	0.220569	0.069133
C293	C	1.080824	-0.606282	-1.006288
C294	C	1.580824	-0.106282	-0.506288
C295	C	1.045052	-0.555604	-1.054436
C296	C	1.545052	-0.055604	-0.554436
H297	H	1.108489	-0.645442	-1.028575
H298	H	1.608489	-0.145442	-0.528575
H299	H	1.108425	-0.566993	-0.980429
H300	H	1.608425	-0.066993	-0.480429
H301	H	1.049815	-0.640793	-0.977213
H302	H	1.549815	-0.140793	-0.477213
H303	H	1.076061	-0.521088	-1.083508
H304	H	1.576061	-0.021088	-0.583508
H305	H	1.017449	-0.594898	-1.080306
H306	H	1.517449	-0.094898	-0.580306
H307	H	1.033403	-0.539215	-0.916836
H308	H	1.533403	-0.039215	-0.416836
C309	C	0.246044	-0.606264	-0.170750
C310	C	0.746044	-0.106264	0.329250
C311	C	0.202307	-0.555697	-0.211015
C312	C	0.702307	-0.055697	0.288985
H313	H	0.220348	-0.645362	-0.139627
H314	H	0.720348	-0.145362	0.360373
H315	H	0.272124	-0.640826	-0.198689
H316	H	0.772124	-0.140826	0.301311
H317	H	0.275316	-0.566894	-0.146618
H318	H	0.775316	-0.066894	0.353382
H319	H	0.173039	-0.595067	-0.235151
H320	H	0.673039	-0.095067	0.264849
H321	H	0.176216	-0.521132	-0.183072
H322	H	0.676216	-0.021132	0.316928
