data_functionalizedCrystal
_audit_creation_method	'MofGen! by Chris Wilmer'
_symmetry_space_group_name_H-M	'P1'
_symmetry_Int_Tables_number	1
_symmetry_cell_setting	triclinic
loop_
_symmetry_equiv_pos_as_xyz
  x,y,z
_cell_length_a	12.759395
_cell_length_b	12.759394
_cell_length_c	10.686551
_cell_angle_alpha	85.593446
_cell_angle_beta	85.605421
_cell_angle_gamma	90.016374
loop_
_atom_site_label
_atom_site_type_symbol
_atom_site_fract_x
_atom_site_fract_y
_atom_site_fract_z
Zn1	Zn	1.651853	-0.372573	-0.713429
Zn2	Zn	1.638261	-0.561776	-0.502424
Zn3	Zn	1.462671	-0.386114	-0.502446
Zn4	Zn	1.476140	-0.548219	-0.713377
O5	O	1.557231	-0.467171	-0.607919
O6	O	1.797072	-0.397678	-0.685450
O7	O	1.603643	-0.549814	-0.325845
O8	O	1.487817	-0.237295	-0.530465
O9	O	1.787086	-0.536684	-0.530426
O10	O	1.626809	-0.227346	-0.685473
O11	O	1.474637	-0.420757	-0.325862
O12	O	1.317435	-0.407611	-0.530415
O13	O	1.510775	-0.513579	-0.889965
O14	O	1.327332	-0.526709	-0.685384
O15	O	1.639870	-0.384533	-0.890003
O16	O	1.616704	-0.707000	-0.530376
O17	O	1.497595	-0.697040	-0.685362
C18	C	1.284262	-0.467159	-0.607897
C19	C	1.167487	-0.467178	-0.607918
C20	C	1.557166	-0.740140	-0.607888
C21	C	1.557237	-0.856915	-0.607917
C22	C	1.177814	-0.591428	-0.769027
C23	C	1.128117	-0.653561	-0.849584
C24	C	1.018396	-0.653573	-0.849600
C25	C	0.958370	-0.591442	-0.769051
C26	C	1.008067	-0.529309	-0.688493
C27	C	1.117790	-0.529307	-0.688484
C28	C	0.997741	-0.405055	-0.527393
C29	C	1.107461	-0.405047	-0.527369
C30	C	0.937714	-0.342924	-0.446844
C31	C	0.987411	-0.280795	-0.366278
C32	C	1.097138	-0.280787	-0.366265
C33	C	1.157158	-0.342914	-0.446811
C34	C	1.681375	-0.867225	-0.446651
C35	C	1.743472	-0.927240	-0.366033
C36	C	1.743535	-1.036959	-0.366067
C37	C	1.681498	-1.086666	-0.446731
C38	C	1.619401	-1.026651	-0.527349
C39	C	1.619341	-0.916929	-0.527304
C40	C	1.495271	-1.016340	-0.688620
C41	C	1.495200	-0.906621	-0.688582
C42	C	1.433233	-1.066046	-0.769284
C43	C	1.371129	-1.006032	-0.849898
C44	C	1.371067	-0.896306	-0.849859
C45	C	1.433103	-0.846606	-0.769200
C46	C	1.831266	-0.467183	-0.607941
C47	C	1.948043	-0.467188	-0.607951
C48	C	1.578341	-0.446033	-0.937050
C49	C	1.587337	-0.437025	-1.077306
C50	C	1.557327	-0.193133	-0.607977
C51	C	1.557368	-0.076355	-0.608002
C52	C	1.536264	-0.488150	-0.280068
C53	C	1.527472	-0.496861	-0.139813
H54	H	1.267154	-0.591433	-0.769013
H55	H	1.320629	-1.046511	-0.915574
H56	H	1.177002	-0.704145	-0.915167
C57	C	1.664791	-0.359362	-1.148855
C58	C	1.639936	-0.257443	-1.116880
C59	C	1.711270	-0.185874	-1.182752
H60	H	1.660810	-0.363257	-1.236774
H61	H	1.734026	-0.376046	-1.127288
H62	H	1.570718	-0.240763	-1.138456
H63	H	1.643924	-0.253513	-1.028973
H64	H	1.780505	-0.202559	-1.161185
H65	H	1.707283	-0.189779	-1.270668
H66	H	1.694421	-0.116716	-1.161058
C67	C	0.818579	-0.342751	-0.446717
C68	C	0.776653	-0.275025	-0.358960
C69	C	0.666910	-0.274828	-0.358814
H70	H	0.792199	-0.411872	-0.424701
H71	H	0.798956	-0.319417	-0.528168
H72	H	0.796267	-0.298364	-0.277527
H73	H	0.803004	-0.205894	-0.380956
H74	H	0.647287	-0.251493	-0.440265
H75	H	0.640540	-0.343952	-0.336800
H76	H	0.638450	-0.228869	-0.299281
H77	H	1.320505	-0.847447	-0.915514
C78	C	1.432852	-0.727473	-0.769296
C79	C	1.365176	-0.685549	-0.857139
C80	C	1.364912	-0.575809	-0.857248
H81	H	1.501969	-0.701050	-0.791212
H82	H	1.409442	-0.707893	-0.687860
H83	H	1.388591	-0.705120	-0.938556
H84	H	1.296050	-0.711943	-0.835242
H85	H	1.341502	-0.556228	-0.775813
H86	H	1.434032	-0.549396	-0.879162
H87	H	1.318987	-0.547350	-0.916840
H88	H	1.246499	-0.342916	-0.446805
C89	C	1.150893	-0.213298	-0.278657
C90	C	1.074835	-0.158916	-0.208105
C91	C	1.124309	-0.096748	-0.127372
H92	H	1.196813	-0.164394	-0.326875
H93	H	1.190115	-0.256929	-0.223511
H94	H	1.035630	-0.115289	-0.263244
H95	H	1.028911	-0.207795	-0.159860
H96	H	1.163531	-0.140378	-0.072226
H97	H	1.170227	-0.047850	-0.175601
H98	H	1.072711	-0.059850	-0.079485
H99	H	1.794106	-1.085823	-0.300427
C100	C	0.964626	-0.721134	-0.937118
C101	C	1.040669	-0.775557	-1.007641
C102	C	0.991175	-0.837810	-1.088266
H103	H	0.925375	-0.677588	-0.992296
H104	H	0.918727	-0.770010	-0.888784
H105	H	1.086550	-0.726687	-1.055971
H106	H	1.079924	-0.819122	-0.952496
H107	H	0.945277	-0.886686	-1.039933
H108	H	0.951926	-0.794256	-1.143436
H109	H	1.042762	-0.874750	-1.136117
H110	H	1.469340	-0.554984	-1.086028
C111	C	0.839253	-0.591634	-0.769212
C112	C	0.808577	-0.659359	-0.856983
C113	C	0.698854	-0.659573	-0.857150
H114	H	0.815730	-0.522515	-0.791226
H115	H	0.809154	-0.614977	-0.687767
H116	H	0.838664	-0.636011	-0.938410
H117	H	0.832073	-0.728487	-0.834988
H118	H	0.668755	-0.682916	-0.775705
H119	H	0.675341	-0.590451	-0.879162
H120	H	0.678026	-0.705531	-0.916693
H121	H	1.681565	-1.176005	-0.446763
H122	H	0.938530	-0.230208	-0.300708
H123	H	1.793984	-0.886759	-0.300359
C124	C	1.681481	-0.748110	-0.446462
C125	C	1.749114	-0.717424	-0.358588
C126	C	1.749249	-0.607703	-0.358388
H127	H	1.612335	-0.724637	-0.424526
H128	H	1.704862	-0.717970	-0.527877
H129	H	1.725728	-0.747552	-0.277191
H130	H	1.818269	-0.740870	-0.380505
H131	H	1.772631	-0.577562	-0.439803
H132	H	1.680100	-0.584239	-0.336454
H133	H	1.795144	-0.586867	-0.298776
C134	C	1.433430	-1.185155	-0.769565
C135	C	1.467917	-1.213670	-0.889730
C136	C	1.468123	-1.323384	-0.890032
H137	H	1.364295	-1.211575	-0.747772
H138	H	1.479330	-1.213817	-0.710058
H139	H	1.422017	-1.185020	-0.949218
H140	H	1.537054	-1.187277	-0.911546
H141	H	1.514024	-1.352045	-0.830525
H142	H	1.398986	-1.349793	-0.868235
H143	H	1.491531	-1.342745	-0.971559
