data_functionalizedCrystal
_audit_creation_method	'MofGen! by Chris Wilmer'
_symmetry_space_group_name_H-M	'P1'
_symmetry_Int_Tables_number	1
_symmetry_cell_setting	triclinic
loop_
_symmetry_equiv_pos_as_xyz
  x,y,z
_cell_length_a	13.339070
_cell_length_b	14.853559
_cell_length_c	12.376457
_cell_angle_alpha	101.294162
_cell_angle_beta	75.589755
_cell_angle_gamma	99.630374
loop_
_atom_site_label
_atom_site_type_symbol
_atom_site_fract_x
_atom_site_fract_y
_atom_site_fract_z
O1	O	1.362290	0.439689	-0.094026
O2	O	1.862290	0.939689	0.405974
O3	O	1.067681	0.380345	-0.094022
O4	O	1.567681	0.880345	0.405978
O5	O	1.222859	0.280748	-0.094023
O6	O	1.722859	0.780748	0.405977
O7	O	1.207112	0.539286	-0.094025
O8	O	1.707112	1.039286	0.405975
O9	O	1.184078	0.305603	0.093990
O10	O	1.684078	0.805603	0.593990
O11	O	1.028900	0.405201	0.093991
O12	O	1.528900	0.905201	0.593991
O13	O	1.323509	0.464544	0.093987
O14	O	1.823509	0.964544	0.593987
Zn15	Zn	1.170047	0.438819	0.123840
Zn16	Zn	1.670047	0.938819	0.623840
Zn17	Zn	1.221143	0.406071	-0.123875
Zn18	Zn	1.721143	0.906071	0.376125
O19	O	1.168331	0.564142	0.093988
O20	O	1.668331	1.064142	0.593988
C21	C	1.010587	0.382749	-0.000015
C22	C	1.510587	0.882749	0.499985
C23	C	0.898244	0.352869	-0.000014
C24	C	1.398244	0.852869	0.499986
C25	C	1.202757	0.259409	-0.000018
C26	C	1.702757	0.759409	0.499982
C27	C	1.200625	0.158793	-0.000025
C28	C	1.700625	0.658793	0.499975
C29	C	0.533774	0.585199	-0.000034
C30	C	1.033774	1.085199	0.499966
C31	C	0.639326	0.613275	-0.000038
C32	C	1.139326	1.113275	0.499962
C33	C	0.704061	0.548176	-0.000032
C34	C	1.204061	1.048176	0.499968
C35	C	0.663233	0.454996	-0.000021
C36	C	1.163233	0.954996	0.499979
C37	C	0.557672	0.426916	-0.000025
C38	C	1.057672	0.926916	0.499975
C39	C	0.727959	0.389893	-0.000024
C40	C	1.227959	0.889893	0.499976
C41	C	0.687132	0.296713	-0.000013
C42	C	1.187132	0.796713	0.499987
C43	C	0.581581	0.268638	-0.000016
C44	C	1.081581	0.768638	0.499984
C45	C	0.516846	0.333737	-0.000023
C46	C	1.016846	0.833737	0.499977
C47	C	0.833520	0.417973	-0.000019
C48	C	1.333520	0.917973	0.499981
C49	C	0.857418	0.259690	-0.000011
C50	C	1.357418	0.759690	0.499989
C51	C	0.751866	0.231614	-0.000006
C52	C	1.251866	0.731614	0.499994
C53	C	1.212713	-0.280185	-0.102510
C54	C	1.712713	0.219815	0.397490
C55	C	1.170432	-0.253081	0.102468
C56	C	1.670432	0.246919	0.602468
C57	C	1.172445	-0.158546	0.102469
C58	C	1.672445	0.341454	0.602469
C59	C	1.194591	-0.124827	-0.000021
C60	C	1.694591	0.375173	0.499979
C61	C	1.214724	-0.185642	-0.102513
C62	C	1.714724	0.314358	0.397487
C63	C	1.152303	-0.097726	0.204958
C64	C	1.652303	0.402274	0.704958
C65	C	1.154314	-0.003185	0.204963
C66	C	1.654314	0.496815	0.704963
C67	C	1.176467	0.030537	0.102472
C68	C	1.676467	0.530537	0.602472
C69	C	1.196601	-0.030284	-0.000024
C70	C	1.696601	0.469716	0.499976
C71	C	1.218747	0.003435	-0.102514
C72	C	1.718747	0.503435	0.397486
C73	C	1.238889	-0.057384	-0.205010
C74	C	1.738889	0.442616	0.294990
C75	C	1.236877	-0.151921	-0.205004
C76	C	1.736877	0.348079	0.294996
C77	C	1.178479	0.125074	0.102466
C78	C	1.678479	0.625074	0.602466
C79	C	1.220758	0.097978	-0.102516
C80	C	1.720758	0.597978	0.397484
C81	C	1.380603	0.462140	-0.000022
C82	C	1.880603	0.962140	0.499978
C83	C	1.492948	0.492019	-0.000031
C84	C	1.992948	0.992019	0.499969
C85	C	1.188433	0.585480	-0.000019
C86	C	1.688433	1.085480	0.499981
C87	C	1.190567	0.686096	-0.000020
C88	C	1.690567	1.186096	0.499980
N89	N	1.135184	0.461170	0.292898
N90	N	1.635184	0.961170	0.792898
N91	N	1.256015	0.383714	-0.292933
N92	N	1.756015	0.883714	0.207067
C93	C	1.336945	0.331812	0.647882
C94	C	1.836945	0.831812	1.147882
C95	C	1.361340	0.316167	0.529542
C96	C	1.861340	0.816167	1.029542
C97	C	1.304803	0.352416	0.470375
C98	C	1.804803	0.852416	0.970375
C99	C	1.223866	0.404314	0.529560
C100	C	1.723866	0.904314	1.029560
C101	C	1.199474	0.419967	0.647912
C102	C	1.699474	0.919967	1.147912
C103	C	1.167332	0.440571	0.470405
C104	C	1.667332	0.940571	0.970405
C105	C	1.086395	0.492468	0.529590
C106	C	1.586395	0.992468	1.029590
C107	C	1.062006	0.508118	0.647930
C108	C	1.562006	1.008118	1.147930
C109	C	1.118544	0.471869	0.707096
C110	C	1.618544	0.971869	1.207096
C111	C	1.191725	0.424918	0.352053
C112	C	1.691725	0.924918	0.852053
C113	C	1.054253	0.513073	0.352083
C114	C	1.554253	1.013073	0.852083
C115	C	1.029858	0.528718	0.470423
C116	C	1.529858	1.028718	0.970423
H117	H	0.866750	0.493841	-0.000024
H118	H	1.366750	0.993841	0.499976
F119	F	0.926310	0.190400	-0.000012
F120	F	1.426310	0.690400	0.499988
H121	H	1.137917	0.046327	0.288422
H122	H	1.637917	0.546327	0.788422
F123	F	1.234158	-0.344910	-0.211589
F124	F	1.734158	0.155090	0.288411
H125	H	1.162057	0.174585	0.185917
H126	H	1.662057	0.674585	0.685917
F127	F	0.708401	0.132447	0.000004
F128	F	1.208401	0.632447	0.500004
H129	H	1.382976	0.302308	0.696063
H130	H	1.882976	0.802308	1.196063
F131	F	0.816399	0.578060	-0.000035
F132	F	1.316399	1.078060	0.499965
F133	F	0.682772	0.712439	-0.000054
F134	F	1.182772	1.212439	0.499946
H135	H	0.430896	0.310881	-0.000018
H136	H	0.930896	0.810881	0.499982
F137	F	1.262459	-0.021486	-0.314084
F138	F	1.762459	0.478514	0.185916
F139	F	0.994081	0.551658	0.289118
F140	F	1.494081	1.051658	0.789118
H141	H	1.152396	-0.280543	0.185911
H142	H	1.652396	0.219457	0.685911
H143	H	0.481061	0.638191	-0.000049
H144	H	0.981061	1.138191	0.499951
H145	H	1.257624	0.382663	0.303876
H146	H	1.757624	0.882663	0.803876
H147	H	1.134268	-0.125188	0.288400
H148	H	1.634268	0.374812	0.788400
H149	H	1.324670	0.339675	0.374018
H150	H	1.824670	0.839675	0.874018
F151	F	1.447475	0.260937	0.466557
F152	F	1.947475	0.760937	0.966557
H153	H	1.098678	0.484604	0.803459
H154	H	1.598678	0.984604	1.303459
H155	H	0.996111	0.550385	0.696118
H156	H	1.496111	1.050385	1.196118
F157	F	0.538139	0.169463	-0.000037
F158	F	1.038139	0.669463	0.499963
H159	H	1.238796	0.125424	-0.185977
H160	H	1.738796	0.625424	0.314023
F161	F	1.258315	-0.216652	-0.314078
F162	F	1.758315	0.283348	0.185922
F163	F	0.943721	0.583951	0.533424
F164	F	1.443721	1.083951	1.033424
