data_functionalizedCrystal
_audit_creation_method	'MofGen! by Chris Wilmer'
_symmetry_space_group_name_H-M	'P1'
_symmetry_Int_Tables_number	1
_symmetry_cell_setting	triclinic
loop_
_symmetry_equiv_pos_as_xyz
  x,y,z
_cell_length_a	14.519731
_cell_length_b	15.944551
_cell_length_c	14.421503
_cell_angle_alpha	89.998474
_cell_angle_beta	90.007592
_cell_angle_gamma	83.593795
loop_
_atom_site_label
_atom_site_type_symbol
_atom_site_fract_x
_atom_site_fract_y
_atom_site_fract_z
O1	O	1.223668	0.110183	0.077116
O2	O	1.723668	0.610183	0.577116
O3	O	0.955171	0.123131	0.077117
O4	O	1.455171	0.623131	0.577117
O5	O	1.096751	-0.005606	0.077108
O6	O	1.596751	0.494394	0.577108
O7	O	1.082087	0.238921	0.077125
O8	O	1.582087	0.738921	0.577125
O9	O	1.096729	-0.005592	-0.077115
O10	O	1.596729	0.494408	0.422885
O11	O	0.955148	0.123146	-0.077106
O12	O	1.455148	0.623146	0.422894
O13	O	1.223645	0.110198	-0.077108
O14	O	1.723645	0.610198	0.422892
Cu15	Cu	1.089395	0.116673	-0.091189
Cu16	Cu	1.589395	0.616673	0.408811
Cu17	Cu	1.089421	0.116656	0.091198
Cu18	Cu	1.589421	0.616656	0.591198
O19	O	1.082065	0.238936	-0.077099
O20	O	1.582065	0.738936	0.422901
C21	C	0.920801	0.122532	0.000006
C22	C	1.420801	0.622532	0.500006
C23	C	0.818424	0.120714	0.000006
C24	C	1.318424	0.620714	0.500006
C25	C	0.735283	0.119237	0.000010
C26	C	1.235283	0.619237	0.500010
C27	C	0.630977	0.117391	0.000010
C28	C	1.130977	0.617391	0.500010
C29	C	0.547841	0.115926	0.000010
C30	C	1.047841	0.615926	0.500010
C31	C	0.443528	0.114080	0.000012
C32	C	0.943528	0.614080	0.500012
C33	C	1.096131	-0.036894	-0.000004
C34	C	1.596131	0.463106	0.499996
C35	C	1.094306	-0.130143	-0.000004
C36	C	1.594306	0.369857	0.499996
C37	C	1.002186	-0.345139	0.000009
C38	C	1.502186	0.154861	0.500009
C39	C	1.044952	-0.406084	-0.076033
C40	C	1.544952	0.093916	0.423967
C41	C	1.091005	-0.300874	0.000003
C42	C	1.591005	0.199126	0.500003
C43	C	1.044996	-0.406082	0.076020
C44	C	1.544996	0.093918	0.576020
C45	C	1.087809	-0.465791	0.000014
C46	C	1.587809	0.034209	0.500014
C47	C	1.133796	-0.360590	-0.076102
C48	C	1.633796	0.139410	0.423898
C49	C	1.133826	-0.360582	0.076019
C50	C	1.633826	0.139418	0.576019
C51	C	1.176658	-0.421509	-0.000041
C52	C	1.676658	0.078491	0.499959
C53	C	1.092843	-0.205868	-0.000004
C54	C	1.592843	0.294132	0.499996
C55	C	1.085977	-0.560795	0.000014
C56	C	1.585977	-0.060795	0.500014
C57	C	1.258015	0.110797	0.000006
C58	C	1.758015	0.610797	0.500006
C59	C	1.360392	0.112615	0.000012
C60	C	1.860392	0.612615	0.500012
C61	C	1.082685	0.270223	0.000015
C62	C	1.582685	0.770223	0.500015
C63	C	1.084510	0.363472	0.000022
C64	C	1.584510	0.863472	0.500022
N65	N	1.089383	0.116685	-0.219470
N66	N	1.589383	0.616685	0.280530
C67	C	1.024456	0.176681	-0.530919
C68	C	1.524456	0.676681	-0.030919
C69	C	1.005796	0.100984	-0.469096
C70	C	1.505796	0.600984	0.030904
C71	C	1.089421	0.116652	-0.591359
C72	C	1.589421	0.616652	-0.091359
C73	C	1.108019	0.192364	-0.469088
C74	C	1.608019	0.692364	0.030912
C75	C	1.089400	0.116672	-0.408638
C76	C	1.589400	0.616672	0.091362
C77	C	1.070719	0.040916	-0.530897
C78	C	1.570719	0.540916	-0.030897
C79	C	1.172979	0.132346	-0.530894
C80	C	1.672979	0.632346	-0.030894
C81	C	1.154353	0.056593	-0.469099
C82	C	1.654353	0.556593	0.030901
C83	C	1.089431	0.116641	-0.696620
C84	C	1.589431	0.616641	-0.196620
C85	C	1.089390	0.116674	-0.303379
C86	C	1.589390	0.616674	0.196621
N87	N	1.089441	0.116638	0.219480
N88	N	1.589441	0.616638	0.719480
H89	H	1.007376	-0.426244	-0.140319
H90	H	1.507376	0.073756	0.359681
O91	O	1.219773	-0.004065	-0.436801
O92	O	1.719773	0.495935	0.063199
C93	C	1.177037	-0.061760	-0.381799
C94	C	1.677037	0.438240	0.118201
H95	H	1.108084	-0.030048	-0.354553
H96	H	1.608084	0.469952	0.145447
H97	H	1.224088	-0.082904	-0.320921
H98	H	1.724088	0.417096	0.179079
H99	H	1.164383	-0.118978	-0.425445
H100	H	1.664383	0.381022	0.074555
H101	H	1.243627	0.145642	-0.558063
H102	H	1.743627	0.645642	-0.058063
H103	H	0.928462	-0.311944	-0.000066
H104	H	1.428462	0.188056	0.499934
O105	O	1.178501	-0.336526	-0.152854
O106	O	1.678501	0.163474	0.347146
C107	C	1.179665	-0.248227	-0.151941
C108	C	1.679665	0.251773	0.348059
H109	H	1.120472	-0.218125	-0.106875
H110	H	1.620472	0.281875	0.393125
H111	H	1.170934	-0.222783	-0.225668
H112	H	1.670934	0.277217	0.274332
H113	H	1.248528	-0.232371	-0.122544
H114	H	1.748528	0.267629	0.377456
H115	H	1.171370	-0.340400	0.140309
H116	H	1.671370	0.159600	0.640309
H117	H	1.123771	0.256386	-0.441956
H118	H	1.623771	0.756386	0.058044
O119	O	0.958820	0.237180	-0.563152
O120	O	1.458820	0.737180	-0.063152
C121	C	0.912289	0.279124	-0.487676
C122	C	1.412289	0.779124	0.012324
H123	H	0.919259	0.236520	-0.424001
H124	H	1.419259	0.736520	0.075999
H125	H	0.835841	0.294916	-0.505566
H126	H	1.335841	0.794916	-0.005566
H127	H	0.944138	0.339853	-0.472430
H128	H	1.444138	0.839853	0.027570
O129	O	1.264699	-0.460904	-0.000253
O130	O	1.764699	0.039096	0.499747
C131	C	1.311163	-0.437694	-0.080519
C132	C	1.811163	0.062306	0.419481
H133	H	1.258210	-0.415864	-0.136301
H134	H	1.758210	0.084136	0.363699
H135	H	1.358745	-0.494310	-0.107059
H136	H	1.858745	0.005690	0.392941
H137	H	1.354106	-0.384143	-0.063103
H138	H	1.854106	0.115857	0.436897
O139	O	1.000053	-0.430007	0.152687
O140	O	1.500053	0.069993	0.652687
C141	C	0.908099	-0.390752	0.152383
C142	C	1.408099	0.109248	0.652383
H143	H	0.903672	-0.331356	0.107866
H144	H	1.403672	0.168644	0.607866
H145	H	0.886004	-0.373083	0.226334
H146	H	1.386004	0.126917	0.726334
H147	H	0.860265	-0.436074	0.122706
H148	H	1.360265	0.063926	0.622706
H149	H	0.935125	0.087716	-0.441944
H150	H	1.435125	0.587716	0.058056
H151	H	1.054897	-0.023117	-0.557933
H152	H	1.554897	0.476883	-0.057933
