data_functionalizedCrystal
_audit_creation_method	'MofGen! by Chris Wilmer'
_symmetry_space_group_name_H-M	'P1'
_symmetry_Int_Tables_number	1
_symmetry_cell_setting	triclinic
loop_
_symmetry_equiv_pos_as_xyz
  x,y,z
_cell_length_a	18.215407
_cell_length_b	13.031981
_cell_length_c	18.215407
_cell_angle_alpha	97.196642
_cell_angle_beta	90.008215
_cell_angle_gamma	97.186371
loop_
_atom_site_label
_atom_site_type_symbol
_atom_site_fract_x
_atom_site_fract_y
_atom_site_fract_z
Zn1	Zn	1.087827	-0.416417	0.378811
Zn2	Zn	1.421160	-0.083084	0.712144
Zn3	Zn	1.754494	0.250249	1.045478
Zn4	Zn	1.072157	-0.591153	0.240108
Zn5	Zn	1.405490	-0.257820	0.573441
Zn6	Zn	1.738823	0.075514	0.906775
Zn7	Zn	0.964783	-0.416386	0.255766
Zn8	Zn	1.298116	-0.083052	0.589099
Zn9	Zn	1.631450	0.250281	0.922432
Zn10	Zn	0.949129	-0.591125	0.363140
Zn11	Zn	1.282462	-0.257792	0.696473
Zn12	Zn	1.615795	0.075542	1.029806
O13	O	1.018474	-0.503770	0.309456
O14	O	1.351807	-0.170437	0.642789
O15	O	1.685141	0.162896	0.976123
O16	O	1.188730	-0.439622	0.360418
O17	O	1.522064	-0.106288	0.693751
O18	O	1.855397	0.227045	1.027084
O19	O	1.057907	-0.567968	0.139201
O20	O	1.391240	-0.234635	0.472534
O21	O	1.724573	0.098698	0.805868
O22	O	0.994215	-0.270133	0.285199
O23	O	1.327548	0.063200	0.618533
O24	O	1.660881	0.396533	0.951866
O25	O	1.177217	-0.567999	0.258513
O26	O	1.510551	-0.234666	0.591846
O27	O	1.843884	0.098667	0.925180
O28	O	1.084614	-0.270157	0.375600
O29	O	1.417948	0.063177	0.708934
O30	O	1.751281	0.396510	1.042267
O31	O	0.979020	-0.439567	0.150705
O32	O	1.312353	-0.106234	0.484038
O33	O	1.645686	0.227099	0.817371
O34	O	0.859725	-0.439540	0.270003
O35	O	1.193058	-0.106207	0.603337
O36	O	1.526391	0.227127	0.936670
O37	O	0.967534	-0.567951	0.468203
O38	O	1.300867	-0.234618	0.801536
O39	O	1.634201	0.098716	1.134869
O40	O	0.848223	-0.567920	0.348891
O41	O	1.181557	-0.234587	0.682224
O42	O	1.514890	0.098747	1.015557
O43	O	1.069435	-0.439594	0.479716
O44	O	1.402768	-0.106261	0.813050
O45	O	1.736102	0.227072	1.146383
O46	O	1.042727	-0.737406	0.243317
O47	O	1.376061	-0.404073	0.576650
O48	O	1.709394	-0.070739	0.909984
O49	O	0.952339	-0.737385	0.333708
O50	O	1.285673	-0.404052	0.667041
O51	O	1.619006	-0.070718	1.000374
C52	C	0.827272	-0.503724	0.309446
C53	C	1.160605	-0.170391	0.642779
C54	C	1.493938	0.162942	0.976112
C55	C	0.745472	-0.503730	0.309457
C56	C	1.078806	-0.170396	0.642790
C57	C	1.412139	0.162937	0.976123
C58	C	0.994154	-0.775318	0.285129
C59	C	1.327487	-0.441985	0.618462
C60	C	1.660821	-0.108652	0.951795
C61	C	0.983817	-0.891488	0.274746
C62	C	1.317151	-0.558154	0.608079
C63	C	1.650484	-0.224821	0.941413
C64	C	0.486389	-0.437053	0.362581
C65	C	0.819722	-0.103719	0.695915
C66	C	1.153055	0.229614	1.029248
C67	C	0.563249	-0.437036	0.362580
C68	C	0.896582	-0.103703	0.695914
C69	C	1.229916	0.229631	1.029247
C70	C	0.551297	-0.570521	0.256344
C71	C	0.884631	-0.237188	0.589677
C72	C	1.217964	0.096145	0.923011
C73	C	0.474438	-0.570543	0.256349
C74	C	0.807771	-0.237210	0.589682
C75	C	1.141105	0.096124	0.923015
C76	C	0.441986	-0.503803	0.309467
C77	C	0.775320	-0.170469	0.642800
C78	C	1.108653	0.162864	0.976133
C79	C	0.595706	-0.503764	0.309461
C80	C	0.929039	-0.170431	0.642795
C81	C	1.262372	0.162902	0.976128
C82	C	0.679041	-0.503746	0.309460
C83	C	1.012374	-0.170413	0.642793
C84	C	1.345708	0.162920	0.976127
C85	C	0.358646	-0.503822	0.309469
C86	C	0.691979	-0.170488	0.642802
C87	C	1.025312	0.162845	0.976136
C88	C	1.023908	-0.943208	0.314890
C89	C	1.357241	-0.609874	0.648223
C90	C	1.690575	-0.276541	0.981556
C91	C	1.013225	-1.063275	0.304160
C92	C	1.346559	-0.729942	0.637493
C93	C	1.679892	-0.396608	0.970826
C94	C	1.210423	-0.503817	0.309467
C95	C	1.543756	-0.170484	0.642800
C96	C	1.877089	0.162849	0.976133
C97	C	1.292220	-0.503837	0.309471
C98	C	1.625553	-0.170504	0.642805
C99	C	1.958886	0.162829	0.976138
C100	C	1.018486	-0.503773	0.501409
C101	C	1.351820	-0.170440	0.834742
C102	C	1.685153	0.162894	1.168075
C103	C	1.018492	-0.503774	0.583207
C104	C	1.351825	-0.170441	0.916541
C105	C	1.685158	0.162892	1.249874
C106	C	1.042909	-0.231162	0.333894
C107	C	1.376242	0.102171	0.667228
C108	C	1.709575	0.435505	1.000561
C109	C	1.053321	-0.114992	0.344309
C110	C	1.386655	0.218341	0.677642
C111	C	1.719988	0.551674	1.010975
C112	C	1.071536	-0.436950	0.777397
C113	C	1.404869	-0.103616	1.110730
C114	C	1.738203	0.229717	1.444063
C115	C	1.071532	-0.436949	0.854256
C116	C	1.404865	-0.103616	1.187589
C117	C	1.738199	0.229717	1.520922
C118	C	0.965422	-0.570614	0.842254
C119	C	1.298755	-0.237281	1.175588
C120	C	1.632089	0.096053	1.508921
C121	C	0.965423	-0.570608	0.765398
C122	C	1.298757	-0.237275	1.098731
C123	C	1.632090	0.096058	1.432064
C124	C	1.018484	-0.503778	0.732971
C125	C	1.351818	-0.170444	1.066304
C126	C	1.685151	0.162889	1.399637
C127	C	1.018479	-0.503783	0.886686
C128	C	1.351812	-0.170450	1.220020
C129	C	1.685146	0.162884	1.553353
C130	C	1.018474	-0.503783	0.970020
C131	C	1.351807	-0.170450	1.303353
C132	C	1.685141	0.162884	1.636687
C133	C	1.018489	-0.503776	0.649632
C134	C	1.351822	-0.170443	0.982965
C135	C	1.685155	0.162891	1.316299
C136	C	1.018460	-0.503790	1.118248
C137	C	1.351793	-0.170457	1.451581
C138	C	1.685126	0.162877	1.784915
C139	C	1.018472	-0.503786	1.036449
C140	C	1.351805	-0.170453	1.369783
C141	C	1.685138	0.162880	1.703116
H142	H	0.459969	-0.382708	0.405833
H143	H	0.793303	-0.049375	0.739167
H144	H	1.126636	0.283958	1.072500
H145	H	0.577729	-0.624857	0.213096
H146	H	0.911063	-0.291524	0.546429
H147	H	1.244396	0.041810	0.879762
H148	H	0.599399	-0.382683	0.405832
H149	H	0.932732	-0.049349	0.739166
H150	H	1.266065	0.283984	1.072499
O151	O	1.079851	-0.884127	0.370939
O152	O	1.413184	-0.550794	0.704272
O153	O	1.746518	-0.217461	1.037606
H154	H	1.135777	-0.904970	0.356520
H155	H	1.469110	-0.571637	0.689853
H156	H	1.802444	-0.238303	1.023186
O157	O	0.908194	-0.642696	0.877228
O158	O	1.241527	-0.309362	1.210561
O159	O	1.574861	0.023971	1.543895
H160	H	0.917108	-0.631480	0.938135
H161	H	1.250441	-0.298146	1.271468
H162	H	1.583775	0.035187	1.604802
H163	H	0.438283	-0.624904	0.213095
H164	H	0.771617	-0.291571	0.546428
H165	H	1.104950	0.041762	0.879762
H166	H	0.970987	-1.107881	0.261848
H167	H	1.304321	-0.774547	0.595181
H168	H	1.637654	-0.441214	0.928515
O169	O	0.908183	-0.642660	0.717474
O170	O	1.241516	-0.309326	1.050808
O171	O	1.574849	0.024007	1.384141
H172	H	0.871286	-0.689132	0.752934
H173	H	1.204619	-0.355799	1.086267
H174	H	1.537952	-0.022465	1.419600
H175	H	1.114740	-0.382529	0.750998
H176	H	1.448073	-0.049196	1.084331
H177	H	1.781406	0.284137	1.417664
H178	H	1.095553	-1.070388	0.386627
H179	H	1.428887	-0.737055	0.719960
H180	H	1.762220	-0.403721	1.053293
H181	H	1.114731	-0.382529	0.890425
H182	H	1.448064	-0.049196	1.223758
H183	H	1.781397	0.284137	1.557091
H184	H	0.941582	-0.936097	0.232437
H185	H	1.274916	-0.602764	0.565771
H186	H	1.608249	-0.269430	0.899104
