data_functionalizedCrystal
_audit_creation_method	'MofGen! by Chris Wilmer'
_symmetry_space_group_name_H-M	'P1'
_symmetry_Int_Tables_number	1
_symmetry_cell_setting	triclinic
loop_
_symmetry_equiv_pos_as_xyz
  x,y,z
_cell_length_a	12.759395
_cell_length_b	12.759400
_cell_length_c	12.759393
_cell_angle_alpha	89.969548
_cell_angle_beta	89.979644
_cell_angle_gamma	90.016109
loop_
_atom_site_label
_atom_site_type_symbol
_atom_site_fract_x
_atom_site_fract_y
_atom_site_fract_z
Zn1	Zn	1.606268	-0.418172	-0.594004
Zn2	Zn	1.606160	-0.593888	-0.418324
Zn3	Zn	1.430567	-0.418228	-0.418341
Zn4	Zn	1.430559	-0.593815	-0.593963
O5	O	1.518388	-0.506026	-0.506158
O6	O	1.753275	-0.441489	-0.570710
O7	O	1.582825	-0.570640	-0.271305
O8	O	1.453922	-0.271200	-0.441667
O9	O	1.753195	-0.570586	-0.441639
O10	O	1.583010	-0.271159	-0.570726
O11	O	1.453817	-0.441584	-0.271318
O12	O	1.283545	-0.441513	-0.441628
O13	O	1.453909	-0.570461	-0.740990
O14	O	1.283539	-0.570515	-0.570657
O15	O	1.583002	-0.441418	-0.741020
O16	O	1.582817	-0.740899	-0.441599
O17	O	1.453804	-0.740845	-0.570640
C18	C	1.245421	-0.506013	-0.506140
C19	C	1.128644	-0.506033	-0.506157
C20	C	1.518326	-0.778993	-0.506137
C21	C	1.518396	-0.895770	-0.506162
C22	C	1.585712	-1.060356	-0.439078
C23	C	1.585649	-0.950632	-0.439045
C24	C	1.451195	-0.950637	-0.573309
C25	C	1.451253	-1.060359	-0.573336
C26	C	1.128677	-0.640580	-0.640298
C27	C	1.073832	-0.707862	-0.707371
C28	C	0.964111	-0.707875	-0.707384
C29	C	0.909231	-0.640596	-0.640319
C30	C	0.964076	-0.573314	-0.573245
C31	C	1.073800	-0.573311	-0.573238
C32	C	0.964043	-0.438763	-0.439112
C33	C	1.073764	-0.438754	-0.439092
C34	C	0.909163	-0.371484	-0.372046
C35	C	0.964008	-0.304206	-0.304966
C36	C	1.073736	-0.304197	-0.304955
C37	C	1.128609	-0.371472	-0.372019
C38	C	1.792422	-0.506039	-0.506177
C39	C	1.909198	-0.506045	-0.506185
C40	C	1.518467	-0.505925	-0.780192
C41	C	1.518500	-0.505882	-0.896968
C42	C	1.518479	-0.231993	-0.506203
C43	C	1.518518	-0.115216	-0.506222
C44	C	1.585724	-0.438678	-0.951848
C45	C	1.585742	-0.438633	-1.061572
C46	C	1.451309	-0.573004	-1.061528
C47	C	1.451287	-0.573043	-0.951806
C48	C	1.518370	-0.506050	-0.233191
C49	C	1.518540	-0.505797	-0.116415
H50	H	1.640363	-0.905968	-0.384370
O51	O	1.650893	-0.373237	-1.114925
C52	C	1.591114	-0.305364	-1.178407
H53	H	1.508363	-0.298885	-1.145329
H54	H	1.629140	-0.224512	-1.179663
H55	H	1.587501	-0.337809	-1.261561
H56	H	1.396589	-0.627687	-1.106190
H57	H	1.396538	-0.627768	-0.907122
O58	O	0.910667	-0.773133	-0.772503
C59	C	0.802058	-0.758731	-0.758107
H60	H	0.787078	-0.677608	-0.723845
H61	H	0.760385	-0.765960	-0.836790
H62	H	0.770885	-0.820979	-0.702046
O63	O	1.651077	-1.113482	-0.373781
C64	C	1.710387	-1.041527	-0.314530
H65	H	1.667312	-0.963352	-0.310838
H66	H	1.721652	-1.073283	-0.231769
H67	H	1.790155	-1.029762	-0.353068
O68	O	1.386013	-1.113820	-0.638468
C69	C	1.400508	-1.222425	-0.624115
H70	H	1.434966	-1.237441	-0.543067
H71	H	1.321832	-1.264188	-0.631182
H72	H	1.456443	-1.253468	-0.686487
H73	H	1.640450	-0.383988	-0.907202
O74	O	1.235260	-0.640682	-0.640438
C75	C	1.271937	-0.714513	-0.713984
H76	H	1.208739	-0.729304	-0.775356
H77	H	1.345378	-0.682869	-0.753891
H78	H	1.291353	-0.791067	-0.672177
O79	O	1.386018	-0.897297	-0.638619
C80	C	1.445771	-0.833712	-0.706492
H81	H	1.528530	-0.866712	-0.713059
H82	H	1.407733	-0.832431	-0.787314
H83	H	1.449367	-0.750579	-0.673990
O84	O	1.127171	-0.238872	-0.239897
C85	C	1.235783	-0.253305	-0.254239
H86	H	1.250806	-0.287818	-0.335253
H87	H	1.277495	-0.174595	-0.247251
H88	H	1.266877	-0.309168	-0.191813
O89	O	1.127097	-0.773103	-0.772665
C90	C	1.100319	-0.750297	-0.877420
H91	H	1.070175	-0.666375	-0.882881
H92	H	1.172499	-0.759407	-0.929301
H93	H	1.036632	-0.806666	-0.904787
O94	O	0.802648	-0.640605	-0.640141
C95	C	0.765934	-0.667488	-0.539413
H96	H	0.829140	-0.649462	-0.478921
H97	H	0.692532	-0.620077	-0.520833
H98	H	0.746442	-0.754659	-0.537035
H99	H	0.819822	-0.371495	-0.372066
H100	H	0.919316	-0.249428	-0.250372
O101	O	1.235192	-0.371658	-0.372000
C102	C	1.271815	-0.472305	-0.344803
H103	H	1.208579	-0.532849	-0.362647
H104	H	1.345238	-0.491037	-0.392150
H105	H	1.291242	-0.474415	-0.257623
