data_functionalizedCrystal
_audit_creation_method	'MofGen! by Chris Wilmer'
_symmetry_space_group_name_H-M	'P1'
_symmetry_Int_Tables_number	1
_symmetry_cell_setting	triclinic
loop_
_symmetry_equiv_pos_as_xyz
  x,y,z
_cell_length_a	15.698487
_cell_length_b	31.640172
_cell_length_c	15.698487
_cell_angle_alpha	59.999217
_cell_angle_beta	90.000040
_cell_angle_gamma	60.007309
loop_
_atom_site_label
_atom_site_type_symbol
_atom_site_fract_x
_atom_site_fract_y
_atom_site_fract_z
Zr1	Zr	0.820739	0.462595	-0.111788
O2	O	0.684750	0.550758	-0.247799
O3	O	0.862410	0.374429	-0.070095
O4	O	0.862436	0.462594	-0.247804
O5	O	0.684723	0.462595	0.070091
O6	O	1.002617	0.462595	-0.247806
O7	O	0.684724	0.462594	-0.070091
O8	O	1.002571	0.304885	0.070082
O9	O	0.684769	0.620306	-0.247798
O10	O	0.984819	0.410695	-0.052314
O11	O	0.880202	0.410695	0.052304
O12	O	0.880233	0.514497	-0.156925
O13	O	0.775616	0.514497	-0.052308
Zr14	Zr	1.044310	0.462600	0.111781
Zr15	Zr	1.044312	0.462597	-0.111792
Zr16	Zr	0.820737	0.462597	0.111784
Zr17	Zr	0.820770	0.573515	-0.111786
Zr18	Zr	1.044279	0.351680	0.111778
O19	O	1.002639	0.550766	0.070088
O20	O	1.002642	0.550762	-0.247804
O21	O	0.684748	0.550762	0.070093
O22	O	1.180299	0.374436	0.247791
O23	O	1.180302	0.374433	-0.070100
O24	O	0.862408	0.374433	0.247796
O25	O	1.180326	0.462599	-0.070098
O26	O	1.002613	0.462601	0.247796
O27	O	0.862432	0.462599	0.247798
O28	O	1.180325	0.462601	0.070083
O29	O	0.862480	0.620308	-0.247800
O30	O	1.002570	0.304887	0.247793
O31	O	1.180280	0.304889	0.247790
O32	O	1.180282	0.304887	0.070079
O33	O	0.684768	0.620308	-0.070087
O34	O	0.862478	0.620310	-0.070090
O35	O	0.984817	0.410697	0.156918
O36	O	1.089433	0.410697	0.052300
O37	O	0.984847	0.514500	-0.052311
O38	O	0.880231	0.514500	0.052306
C39	C	0.652869	0.462594	0.000000
C40	C	0.557957	0.462593	0.000002
C41	C	0.932486	0.323853	-0.000007
C42	C	0.932473	0.276764	-0.000008
C43	C	0.384172	0.462603	-0.000008
C44	C	0.480876	0.462600	-0.000005
C45	C	0.987154	-0.015277	-0.054603
C46	C	0.987176	-0.192273	-0.054603
O47	O	1.033657	-0.215178	-0.101008
N48	N	0.932566	-0.214402	0.000004
C49	C	0.877952	-0.192282	0.054621
O50	O	0.831512	-0.215170	0.101076
C51	C	0.877938	-0.015291	0.054625
C52	C	0.932542	0.006840	0.000006
C53	C	1.041756	0.006853	-0.109217
C54	C	1.041745	0.051102	-0.109221
C55	C	0.987133	0.073220	-0.054612
C56	C	0.932532	0.051089	0.000002
C57	C	0.823331	0.006825	0.109247
C58	C	0.823334	0.051075	0.109246
C59	C	0.877939	0.073206	0.054627
C60	C	0.877909	0.117456	0.054607
N61	N	0.932519	0.139585	0.000000
C62	C	0.987131	0.117467	-0.054609
C63	C	0.877962	-0.285205	0.054613
C64	C	0.877964	-0.329452	0.054610
C65	C	0.987190	-0.329440	-0.054612
C66	C	0.987181	-0.285190	-0.054615
C67	C	0.932572	-0.263076	0.000006
C68	C	0.987104	0.210392	-0.054615
C69	C	0.987085	0.254647	-0.054618
C70	C	0.877865	0.254629	0.054608
C71	C	0.877879	0.210381	0.054607
C72	C	0.932506	0.188262	-0.000006
O73	O	0.831462	0.140383	0.100998
O74	O	1.033583	0.140353	-0.101039
C75	C	0.987165	-0.059526	-0.054599
C76	C	0.932564	-0.081657	0.000015
C77	C	0.877952	-0.059539	0.054624
C78	C	0.932566	-0.125904	0.000012
C79	C	0.987178	-0.148022	-0.054597
C80	C	1.041787	-0.125893	-0.109204
C81	C	1.041777	-0.081644	-0.109209
C82	C	0.823342	-0.081668	0.109231
C83	C	0.823356	-0.125916	0.109230
C84	C	0.877968	-0.148034	0.054621
C85	C	1.212180	0.462601	-0.000008
C86	C	1.307093	0.462602	-0.000010
C87	C	0.932527	0.462594	-0.279659
C88	C	0.932528	0.462593	-0.374572
C89	C	0.932563	0.601342	-0.000001
C90	C	0.932576	0.648430	0.000000
C91	C	0.932528	0.462591	-0.451651
C92	C	0.932527	0.462595	-0.548355
C93	C	0.932522	0.462601	0.279651
C94	C	0.932522	0.462602	0.374564
C95	C	1.212142	0.323856	-0.000011
C96	C	1.307041	0.276769	-0.000014
C97	C	0.932484	0.323856	0.279648
C98	C	0.932470	0.276769	0.374560
C99	C	1.212139	0.323860	0.279644
C100	C	1.307038	0.276773	0.374554
C101	C	0.652910	0.601335	-0.279652
C102	C	0.558011	0.648421	-0.374562
C103	C	0.652908	0.601338	0.000004
C104	C	0.558008	0.648426	0.000006
C105	C	0.932565	0.601338	-0.279656
C106	C	0.932579	0.648426	-0.374567
C107	C	1.296999	0.254655	-0.054632
C108	C	1.386159	0.210417	-0.054655
C109	C	1.485359	0.188292	-0.000054
C110	C	1.495399	0.210410	0.054566
C111	C	1.406241	0.254650	0.054583
C112	C	0.987072	0.254658	0.473748
C113	C	0.987055	0.210420	0.562936
C114	C	0.932442	0.188292	0.552933
C115	C	0.877834	0.210408	0.453735
C116	C	0.877845	0.254647	0.364549
C117	C	1.406222	0.254661	0.364516
C118	C	1.495398	0.210425	0.453685
C119	C	1.485388	0.188298	0.552892
C120	C	1.386194	0.210415	0.562928
C121	C	1.297020	0.254654	0.473760
C122	C	0.458828	0.670539	-0.364523
C123	C	0.369652	0.714789	-0.453693
C124	C	0.379662	0.736918	-0.552900
C125	C	0.478856	0.714798	-0.562936
C126	C	0.568029	0.670552	-0.473767
C127	C	0.568050	0.670544	0.054615
C128	C	0.478891	0.714794	0.054613
C129	C	0.379690	0.736921	0.000009
C130	C	0.369650	0.714801	-0.054607
C131	C	0.458809	0.670555	-0.054611
C132	C	0.987203	0.670540	-0.364531
C133	C	0.987236	0.714778	-0.453702
C134	C	0.932639	0.736903	-0.552908
C135	C	0.878014	0.714785	-0.562942
C136	C	0.877987	0.670545	-0.473772
H137	H	1.031588	0.192388	-0.099085
H138	H	0.833502	0.652544	-0.481958
H139	H	1.557949	0.152268	-0.000075
C140	C	1.095059	0.250204	-0.162575
C141	C	1.047118	0.278969	-0.114653
H142	H	1.132125	0.265216	-0.199630
H143	H	1.043395	0.257451	-0.209704
H144	H	1.142185	0.208435	-0.110887
H145	H	0.999986	0.320738	-0.166342
H146	H	1.098788	0.271726	-0.067520
H147	H	1.576180	0.192389	0.099020
C148	C	0.977610	0.340554	0.436800
C149	C	1.047097	0.278982	0.484753
H150	H	1.014668	0.355571	0.443594
H151	H	0.925943	0.347800	0.469318
H152	H	0.945107	0.360048	0.364960
H153	H	1.079595	0.259487	0.556595
H154	H	1.098783	0.271731	0.452237
C155	C	0.192490	0.800319	-0.059453
C156	C	0.281690	0.785561	0.000011
H157	H	0.131994	0.830351	-0.059454
H158	H	0.192469	0.765808	-0.030213
H159	H	0.192507	0.814818	-0.129026
H160	H	0.281678	0.771059	0.069586
H161	H	0.281711	0.820079	-0.029225
H162	H	0.778872	-0.063665	0.153705
H163	H	0.288869	0.732824	-0.099064
H164	H	0.833386	0.272645	0.283789
H165	H	1.414432	0.272649	0.099065
C166	C	1.318035	0.322479	0.179311
C167	C	1.417242	0.278979	0.255473
H168	H	1.324847	0.337487	0.111997
H169	H	1.280992	0.354236	0.187137
H170	H	1.280990	0.305209	0.187140
H171	H	1.454284	0.296250	0.247649
H172	H	1.454300	0.247216	0.247644
H173	H	0.486993	0.732821	-0.643721
H174	H	0.833401	0.192368	0.099069
C175	C	1.007358	0.232946	0.683460
C176	C	1.047094	0.186113	0.671965
H177	H	1.044431	0.217940	0.750766
H178	H	0.935531	0.250199	0.675656
H179	H	1.015182	0.262456	0.631762
H180	H	1.039264	0.156606	0.723659
H181	H	1.118939	0.168851	0.679779
C182	C	1.207668	0.028588	-0.129470
C183	C	1.101785	0.075416	-0.169247
H184	H	1.244738	0.043597	-0.166523
H185	H	1.215468	-0.000924	-0.137283
H186	H	1.234610	0.011339	-0.057627
H187	H	1.074841	0.092663	-0.241088
H188	H	1.093979	0.104938	-0.161442
H189	H	0.932441	0.152269	0.625562
C190	C	1.177965	-0.068011	-0.099748
C191	C	1.101810	-0.057325	-0.169238
H192	H	1.215025	-0.052997	-0.136811
H193	H	1.225081	-0.109776	-0.048080
H194	H	1.145430	-0.048497	-0.067238
H195	H	1.134346	-0.076844	-0.201743
H196	H	1.054687	-0.015552	-0.220925
C197	C	0.829379	0.142560	0.541986
C198	C	0.817833	0.186067	0.442751
H199	H	0.792352	0.127525	0.535204
H200	H	0.802395	0.159828	0.579018
H201	H	0.901225	0.110815	0.579028
H202	H	0.745988	0.217814	0.405711
H203	H	0.844813	0.168799	0.405704
C204	C	0.774860	-0.193752	0.157753
C205	C	0.763326	-0.150239	0.169271
H206	H	0.737801	-0.208766	0.194819
H207	H	0.846691	-0.225504	0.184716
H208	H	0.747891	-0.176491	0.085909
H209	H	0.790302	-0.167501	0.241115
H210	H	0.691481	-0.118482	0.142312
H211	H	1.576157	0.192422	0.445495
C212	C	1.095146	-0.289634	-0.162571
C213	C	1.047215	-0.260871	-0.114642
H214	H	1.132217	-0.274625	-0.199622
H215	H	1.043476	-0.282381	-0.209702
H216	H	1.142266	-0.331404	-0.110886
H217	H	1.000089	-0.219102	-0.166328
H218	H	1.098891	-0.268119	-0.067506
H219	H	1.558007	0.152276	0.625490
H220	H	1.216233	0.272669	-0.099108
H221	H	0.932669	0.772927	-0.625507
H222	H	1.086232	-0.011153	-0.153686
C223	C	0.205999	0.728409	-0.490598
C224	C	0.260625	0.739094	-0.442648
H225	H	0.138691	0.743416	-0.483783
H226	H	0.243047	0.686644	-0.458094
H227	H	0.199199	0.747928	-0.562444
H228	H	0.267432	0.719570	-0.370801
H229	H	0.223567	0.780867	-0.475149
C230	C	0.666992	0.675004	-0.590723
C231	C	0.677052	0.646236	-0.484813
H232	H	0.734297	0.659990	-0.597545
H233	H	0.629960	0.716767	-0.623219
H234	H	0.629909	0.667755	-0.623228
H235	H	0.714128	0.653488	-0.452310
H236	H	0.714099	0.604463	-0.452304
C237	C	1.474426	0.142581	0.748117
C238	C	1.375202	0.186084	0.671983
H239	H	1.467639	0.127555	0.815443
H240	H	1.511463	0.159850	0.740287
H241	H	1.511460	0.110830	0.740262
H242	H	1.338170	0.217837	0.679833
H243	H	1.338149	0.168816	0.679816
H244	H	1.216264	0.272652	0.481948
H245	H	0.450658	0.652524	-0.283752
H246	H	1.377963	0.192414	-0.099133
H247	H	0.307042	0.772946	-0.625498
C248	C	0.667049	0.674998	0.162561
C249	C	0.677085	0.646229	0.114641
H250	H	0.734362	0.659991	0.199614
H251	H	0.629992	0.667746	0.209692
H252	H	0.630001	0.716767	0.110872
H253	H	0.714127	0.604460	0.166332
H254	H	0.714158	0.653476	0.067507
H255	H	0.450618	0.652547	-0.099077
H256	H	1.031662	0.652532	-0.283761
C257	C	1.007487	0.764535	-0.388046
C258	C	1.047269	0.739092	-0.442660
H259	H	1.044545	0.779548	-0.381235
H260	H	1.015284	0.735021	-0.320755
H261	H	0.935654	0.796297	-0.425124
H262	H	1.119101	0.707327	-0.405578
H263	H	1.039482	0.768608	-0.509963
H264	H	0.487086	0.732797	0.099092
H265	H	0.833563	0.732806	-0.643727
H266	H	0.833486	-0.347461	0.099073
C267	C	1.123381	-0.415331	-0.045120
C268	C	1.047233	-0.353762	-0.114631
H269	H	1.160455	-0.430348	-0.082167
H270	H	1.090847	-0.434831	-0.012611
H271	H	1.170495	-0.422567	0.006551
H272	H	1.000114	-0.346526	-0.166298
H273	H	1.079768	-0.334255	-0.147157
C274	C	0.715293	0.011316	0.217127
C275	C	0.763243	-0.017462	0.169225
H276	H	0.678181	-0.003672	0.254142
H277	H	0.668219	0.053081	0.165441
H278	H	0.766967	0.004044	0.264300
H279	H	0.711568	-0.010187	0.122046
H280	H	0.810321	-0.059237	0.220917
C281	C	0.687141	0.136954	0.099792
C282	C	0.763302	0.075385	0.169283
H283	H	0.650084	0.151962	0.136857
H284	H	0.640022	0.144193	0.048131
H285	H	0.719669	0.156463	0.067272
H286	H	0.730773	0.055876	0.201797
H287	H	0.810427	0.068141	0.220962
C288	C	0.829383	0.322452	0.103105
C289	C	0.817844	0.278943	0.114641
H290	H	0.792338	0.337457	0.140178
H291	H	0.802412	0.354210	0.031269
H292	H	0.901225	0.305190	0.130062
H293	H	0.746002	0.296206	0.087676
H294	H	0.844811	0.247179	0.186492
C295	C	0.769989	-0.289666	0.162564
C296	C	0.817920	-0.260896	0.114647
H297	H	0.732915	-0.274655	0.199618
H298	H	0.821660	-0.331429	0.209693
H299	H	0.722873	-0.282415	0.110873
H300	H	0.865043	-0.268151	0.166339
H301	H	0.766244	-0.219123	0.067515
H302	H	1.086251	-0.143906	-0.153674
