data_functionalizedCrystal
_audit_creation_method	'MofGen! by Chris Wilmer'
_symmetry_space_group_name_H-M	'P1'
_symmetry_Int_Tables_number	1
_symmetry_cell_setting	triclinic
loop_
_symmetry_equiv_pos_as_xyz
  x,y,z
_cell_length_a	19.188930
_cell_length_b	23.532407
_cell_length_c	18.266242
_cell_angle_alpha	89.988983
_cell_angle_beta	89.977082
_cell_angle_gamma	82.996728
loop_
_atom_site_label
_atom_site_type_symbol
_atom_site_fract_x
_atom_site_fract_y
_atom_site_fract_z
O1	O	0.925922	0.071102	-0.061124
O2	O	1.425922	0.571102	0.438876
O3	O	0.722581	0.080673	-0.061074
O4	O	1.222581	0.580673	0.438926
O5	O	0.830383	-0.007031	-0.061087
O6	O	1.330383	0.492969	0.438913
O7	O	0.818120	0.158806	-0.061111
O8	O	1.318120	0.658806	0.438889
O9	O	0.830365	-0.007035	0.060675
O10	O	1.330365	0.492965	0.560675
O11	O	0.722562	0.080669	0.060688
O12	O	1.222562	0.580669	0.560688
O13	O	0.925904	0.071097	0.060638
O14	O	1.425904	0.571097	0.560638
Zn15	Zn	0.824230	0.075882	0.079995
Zn16	Zn	1.324230	0.575882	0.579995
Zn17	Zn	0.824254	0.075888	-0.080431
Zn18	Zn	1.324254	0.575888	0.419569
O19	O	0.818102	0.158802	0.060651
O20	O	1.318102	0.658802	0.560651
C21	C	0.696561	0.080361	-0.000187
C22	C	1.196561	0.580361	0.499813
C23	C	0.619060	0.079431	-0.000168
C24	C	1.119060	0.579431	0.499832
C25	C	0.830062	-0.028250	-0.000204
C26	C	1.330062	0.471750	0.499796
C27	C	0.829123	-0.091469	-0.000198
C28	C	1.329123	0.408531	0.499802
C29	C	0.573972	0.130893	-0.000187
C30	C	1.073972	0.630893	0.499813
C31	C	0.501151	0.130019	-0.000194
C32	C	1.001151	0.630019	0.499806
C33	C	0.473421	0.077680	-0.000198
C34	C	0.973421	0.577680	0.499802
C35	C	0.518519	0.026211	-0.000175
C36	C	1.018519	0.526211	0.499825
C37	C	0.591339	0.027086	-0.000160
C38	C	1.091339	0.527086	0.499840
N39	N	0.365575	0.037674	-0.041663
N40	N	0.865575	0.537674	0.458337
N41	N	0.296399	0.036846	-0.041679
N42	N	0.796399	0.536846	0.458321
C43	C	0.254021	0.075038	-0.000243
C44	C	0.754021	0.575038	0.499757
N45	N	0.283431	0.114099	0.041201
N46	N	0.783431	0.614099	0.541201
N47	N	0.352613	0.114929	0.041214
N48	N	0.852613	0.614929	0.541214
C49	C	0.394462	0.076724	-0.000214
C50	C	0.894462	0.576724	0.499786
C51	C	0.129971	0.125556	-0.000269
C52	C	0.629971	0.625556	0.499731
C53	C	0.057149	0.124680	-0.000272
C54	C	0.557149	0.624680	0.499728
C55	C	0.074520	0.020870	-0.000260
C56	C	0.574520	0.520870	0.499740
C57	C	0.147340	0.021748	-0.000250
C58	C	0.647340	0.521748	0.499750
C59	C	0.175061	0.074092	-0.000257
C60	C	0.675061	0.574092	0.499743
C61	C	0.887029	-0.490449	-0.000252
C62	C	1.387029	0.009551	0.499748
C63	C	0.886157	-0.549851	-0.000258
C64	C	1.386157	-0.049851	0.499742
O65	O	0.939837	-0.586482	-0.000298
O66	O	1.439837	-0.086482	0.499702
N67	N	0.822068	-0.572613	-0.000242
N68	N	1.322068	-0.072613	0.499758
C69	C	0.758848	-0.535970	-0.000228
C70	C	1.258848	-0.035970	0.499772
O71	O	0.704255	-0.560786	-0.000215
O72	O	1.204255	-0.060786	0.499785
C73	C	0.759721	-0.476569	-0.000228
C74	C	1.259721	0.023431	0.499772
C75	C	0.823814	-0.453810	-0.000236
C76	C	1.323814	0.046190	0.499764
C77	C	0.951117	-0.467690	-0.000262
C78	C	1.451117	0.032310	0.499738
C79	C	0.951989	-0.408292	-0.000255
C80	C	1.451989	0.091708	0.499745
C81	C	0.888773	-0.371653	-0.000239
C82	C	1.388773	0.128347	0.499761
C83	C	0.824685	-0.394412	-0.000230
C84	C	1.324685	0.105588	0.499770
C85	C	0.696501	-0.439927	-0.000219
C86	C	1.196501	0.060073	0.499781
C87	C	0.697379	-0.380523	-0.000219
C88	C	1.197379	0.119477	0.499781
C89	C	0.761472	-0.357764	-0.000228
C90	C	1.261472	0.142236	0.499772
C91	C	0.762342	-0.298376	-0.000207
C92	C	1.262342	0.201624	0.499793
N93	N	0.826430	-0.275614	-0.000223
N94	N	1.326430	0.224386	0.499777
C95	C	0.889646	-0.312252	-0.000239
C96	C	1.389646	0.187748	0.499761
C97	C	0.757019	-0.660717	-0.000229
C98	C	1.257019	-0.160717	0.499771
C99	C	0.756146	-0.720116	-0.000224
C100	C	1.256146	-0.220116	0.499776
C101	C	0.883455	-0.733993	-0.000256
C102	C	1.383455	-0.233993	0.499744
C103	C	0.884328	-0.674592	-0.000255
C104	C	1.384328	-0.174592	0.499745
C105	C	0.821108	-0.637954	-0.000245
C106	C	1.321108	-0.137954	0.499755
C107	C	0.891472	-0.187512	-0.000224
C108	C	1.391472	0.312488	0.499776
C109	C	0.892339	-0.128108	-0.000214
C110	C	1.392339	0.371892	0.499786
C111	C	0.765029	-0.114236	-0.000187
C112	C	1.265029	0.385764	0.499813
C113	C	0.764163	-0.173634	-0.000193
C114	C	1.264163	0.326366	0.499807
C115	C	0.827390	-0.210272	-0.000214
C116	C	1.327390	0.289728	0.499786
O117	O	0.708690	-0.261710	-0.000170
O118	O	1.208690	0.238290	0.499830
O119	O	0.944230	-0.287428	-0.000261
O120	O	1.444230	0.212572	0.499739
C121	C	0.951923	0.071410	-0.000251
C122	C	1.451923	0.571410	0.499749
C123	C	1.029425	0.072340	-0.000275
C124	C	1.529425	0.572340	0.499725
C125	C	0.818423	0.180021	-0.000234
C126	C	1.318423	0.680021	0.499766
C127	C	0.819362	0.243240	-0.000244
C128	C	1.319362	0.743240	0.499756
N129	N	0.824219	0.075878	0.189482
N130	N	1.324219	0.575878	0.689482
N131	N	0.824271	0.075888	-0.189918
N132	N	1.324271	0.575888	0.310082
C133	C	0.871970	0.037062	0.227785
C134	C	1.371970	0.537062	0.727785
C135	C	0.871974	0.037059	0.304430
C136	C	1.371974	0.537059	0.804430
C137	C	0.824235	0.075883	0.342769
C138	C	1.324235	0.575883	0.842769
C139	C	0.776475	0.114702	0.304457
C140	C	1.276475	0.614702	0.804457
C141	C	0.776468	0.114700	0.227813
C142	C	1.276468	0.614700	0.727813
N143	N	0.814998	0.126298	0.463096
N144	N	1.314998	0.626298	0.963096
N145	N	0.815010	0.126298	0.535904
N146	N	1.315010	0.626298	1.035904
C147	C	0.824254	0.075891	0.573691
C148	C	1.324254	0.575891	1.073691
N149	N	0.833500	0.025481	0.535921
N150	N	1.333500	0.525481	1.035921
N151	N	0.833492	0.025482	0.463106
N152	N	1.333492	0.525482	0.963106
C153	C	0.824238	0.075889	0.425876
C154	C	1.324238	0.575889	0.925876
C155	C	0.872012	0.037068	0.695102
C156	C	1.372012	0.537068	1.195102
C157	C	0.872012	0.037065	0.771748
C158	C	1.372012	0.537065	1.271748
C159	C	0.776516	0.114713	0.771773
C160	C	1.276516	0.614713	1.271773
C161	C	0.776513	0.114711	0.695128
C162	C	1.276513	0.614711	1.195128
C163	C	0.824265	0.075890	0.656797
C164	C	1.324265	0.575890	1.156797
H165	H	0.596537	0.173516	-0.000194
H166	H	1.096537	0.673516	0.499806
H167	H	0.910860	0.005449	0.335623
H168	H	1.410860	0.505449	0.835623
H169	H	0.942958	-0.217335	-0.000244
H170	H	1.442958	0.282665	0.499756
H171	H	0.737643	0.146322	0.802988
H172	H	1.237643	0.646322	1.302988
H173	H	0.152543	0.168178	-0.000265
H174	H	0.652543	0.668178	0.499735
F175	F	0.697754	-0.075232	-0.000170
F176	F	1.197754	0.424768	0.499830
F177	F	0.009162	0.179456	-0.000289
F178	F	0.509162	0.679456	0.499711
H179	H	0.495937	-0.016404	-0.000188
H180	H	0.995937	0.483596	0.499812
F181	F	0.045013	-0.034833	-0.000257
F182	F	0.545013	0.465167	0.499743
F183	F	0.630090	-0.341532	-0.000210
F184	F	1.130090	0.158468	0.499790
F185	F	1.020206	-0.384078	-0.000280
F186	F	1.520206	0.115922	0.499720
H187	H	0.705535	-0.630888	-0.000215
H188	H	1.205535	-0.130888	0.499785
F189	F	0.639327	-0.027689	-0.000140
F190	F	1.139327	0.472311	0.499860
H191	H	0.737604	0.146312	0.335676
H192	H	1.237604	0.646312	0.835676
F193	F	0.453156	0.184794	-0.000213
F194	F	0.953156	0.684794	0.499787
H195	H	0.934929	-0.763836	-0.000272
H196	H	1.434929	-0.263836	0.499728
F197	F	0.195328	-0.033026	-0.000233
F198	F	0.695328	0.466974	0.499767
F199	F	0.725643	0.156016	0.187046
F200	F	1.225643	0.656016	0.687046
H201	H	0.936518	-0.656067	-0.000263
H202	H	1.436518	-0.156067	0.499737
H203	H	0.944533	-0.109581	-0.000220
H204	H	1.444533	0.390419	0.499780
H205	H	0.910894	0.005453	0.802935
H206	H	1.410894	0.505453	1.302935
F207	F	1.018406	-0.506676	-0.000280
F208	F	1.518406	-0.006676	0.499720
F209	F	0.725694	0.156028	0.654360
F210	F	1.225694	0.656028	1.154360
F211	F	0.687930	-0.744331	-0.000202
F212	F	1.187930	-0.244331	0.499798
H213	H	0.644310	-0.458446	-0.000216
H214	H	1.144310	0.041554	0.499784
H215	H	0.711973	-0.192165	-0.000165
H216	H	1.211973	0.307835	0.499835
F217	F	0.922788	-0.004257	0.186993
F218	F	1.422788	0.495743	0.686993
F219	F	0.922831	-0.004252	0.654306
F220	F	1.422831	0.495748	1.154306
