data_functionalizedCrystal
_audit_creation_method	'MofGen! by Chris Wilmer'
_symmetry_space_group_name_H-M	'P1'
_symmetry_Int_Tables_number	1
_symmetry_cell_setting	triclinic
loop_
_symmetry_equiv_pos_as_xyz
  x,y,z
_cell_length_a	34.490303
_cell_length_b	34.489386
_cell_length_c	34.485816
_cell_angle_alpha	60.004462
_cell_angle_beta	60.008900
_cell_angle_gamma	59.994399
loop_
_atom_site_label
_atom_site_type_symbol
_atom_site_fract_x
_atom_site_fract_y
_atom_site_fract_z
O1	O	0.053846	-0.566517	0.473678
O2	O	0.553846	-0.066517	0.973678
O3	O	0.020329	-0.441078	0.381663
O4	O	0.520329	0.058922	0.881663
O5	O	0.099768	-0.520436	0.381578
O6	O	0.599768	-0.020436	0.881578
O7	O	-0.025592	-0.487159	0.473762
O8	O	0.474408	0.012841	0.973762
O9	O	0.126127	-0.494082	0.407849
O10	O	0.626127	0.005918	0.907849
O11	O	0.046689	-0.414724	0.407933
O12	O	0.546689	0.085276	0.907933
O13	O	0.080206	-0.540163	0.499949
O14	O	0.580206	-0.040163	0.999949
Zn15	Zn	0.067632	-0.473259	0.458112
Zn16	Zn	0.567632	0.026741	0.958112
Zn17	Zn	0.032903	-0.507982	0.423499
Zn18	Zn	0.532903	-0.007982	0.923499
O19	O	0.000767	-0.460805	0.500033
O20	O	0.500767	0.039195	1.000033
N21	N	0.091336	-0.449565	0.481736
N22	N	0.591336	0.050435	0.981736
N23	N	0.009203	-0.531680	0.399875
N24	N	0.509203	-0.031680	0.899875
C25	C	0.142510	-0.268211	0.532817
C26	C	0.642510	0.231789	1.032817
C27	C	0.142641	-0.398441	0.662987
C28	C	0.642641	0.101559	1.162987
C29	C	0.142524	-0.398421	0.532817
C30	C	0.642524	0.101579	1.032817
C31	C	0.272762	-0.398394	0.532723
C32	C	0.772762	0.101606	1.032723
C33	C	0.156853	-0.311177	0.547124
C34	C	0.656853	0.188823	1.047124
C35	C	0.156928	-0.384109	0.620020
C36	C	0.656928	0.115891	1.120020
C37	C	0.229794	-0.384081	0.547073
C38	C	0.729794	0.115919	1.047073
C39	C	0.156863	-0.384097	0.547124
C40	C	0.656863	0.115903	1.047124
C41	C	0.124253	-0.213522	0.514606
C42	C	0.624253	0.286478	1.014606
C43	C	0.124277	-0.416652	0.514606
C44	C	0.624277	0.083348	1.014606
C45	C	0.175110	-0.365866	0.565335
C46	C	0.675110	0.134134	1.065335
C47	C	0.352285	-0.384669	0.490824
C48	C	0.852285	0.115331	0.990824
C49	C	0.401998	-0.401229	0.474223
C50	C	0.901998	0.098771	0.974223
C51	C	0.402027	-0.481671	0.504898
C52	C	0.902027	0.018329	1.004898
C53	C	0.352316	-0.465109	0.521500
C54	C	0.852316	0.034891	1.021500
C55	C	0.136220	-0.188652	0.465734
C56	C	0.636220	0.311348	0.965734
C57	C	0.119621	-0.138936	0.449181
C58	C	0.619621	0.361064	0.949181
C59	C	0.079092	-0.138961	0.530374
C60	C	0.579092	0.361039	1.030374
C61	C	0.095691	-0.188678	0.546927
C62	C	0.595691	0.311322	1.046927
C63	C	0.075398	-0.404656	0.526651
C64	C	0.575398	0.095344	1.026651
C65	C	0.058814	-0.421229	0.510091
C66	C	0.558814	0.078771	1.010091
C67	C	0.139984	-0.461794	0.469452
C68	C	0.639984	0.038206	0.969452
C69	C	0.156570	-0.445221	0.486007
C70	C	0.656570	0.054779	0.986007
C71	C	0.075593	-0.404694	0.742565
C72	C	0.575593	0.095306	1.242565
C73	C	0.059066	-0.421281	0.792280
C74	C	0.559066	0.078719	1.292280
C75	C	0.140274	-0.461856	0.792215
C76	C	0.640274	0.038144	1.292215
C77	C	0.156800	-0.445269	0.742499
C78	C	0.656800	0.054731	1.242499
C79	C	0.124458	-0.416687	0.717675
C80	C	0.624458	0.083313	1.217675
C81	C	0.327446	-0.416608	0.514460
C82	C	0.827446	0.083392	1.014460
C83	C	-0.023585	-0.564792	0.161919
C84	C	0.476415	-0.064792	0.661919
C85	C	-0.023910	-0.769260	0.366530
C86	C	0.476090	-0.269260	0.866530
C87	C	-0.023880	-0.564780	0.366623
C88	C	0.476120	-0.064780	0.866623
C89	C	-0.228325	-0.564561	0.366222
C90	C	0.271675	-0.064561	0.866222
C91	C	-0.129610	-0.597564	0.333467
C92	C	0.370390	-0.097564	0.833467
C93	C	-0.056729	-0.597644	0.333613
C94	C	0.443271	-0.097644	0.833613
C95	C	-0.074925	-0.615849	0.315324
C96	C	0.425075	-0.115849	0.815324
C97	C	-0.088689	-0.695351	0.357144
C98	C	0.411311	-0.195351	0.857144
C99	C	-0.072155	-0.745068	0.373736
C100	C	0.427845	-0.245068	0.873736
C101	C	0.008283	-0.745150	0.343188
C102	C	0.508283	-0.245150	0.843188
C103	C	-0.008252	-0.695435	0.326596
C104	C	0.491748	-0.195435	0.826596
C105	C	-0.154529	-0.609541	0.382326
C106	C	0.345471	-0.109541	0.882326
C107	C	-0.204241	-0.592916	0.398818
C108	C	0.295759	-0.092916	0.898818
C109	C	-0.204114	-0.552341	0.317588
C110	C	0.295886	-0.052341	0.817588
C111	C	-0.154401	-0.568966	0.301096
C112	C	0.345599	-0.068966	0.801096
C113	C	-0.068707	-0.548770	0.321590
C114	C	0.431293	-0.048770	0.821590
C115	C	-0.052166	-0.532225	0.338221
C116	C	0.447834	-0.032225	0.838221
C117	C	-0.011669	-0.613425	0.378886
C118	C	0.488331	-0.113425	0.878886
C119	C	-0.028210	-0.629972	0.362261
C120	C	0.471790	-0.129972	0.862261
C121	C	-0.068581	-0.548777	0.235758
C122	C	0.431419	-0.048777	0.735758
C123	C	-0.051939	-0.532234	0.186043
C124	C	0.448061	-0.032234	0.686043
C125	C	-0.011379	-0.613438	0.186090
C126	C	0.488621	-0.113438	0.686090
C127	C	-0.028020	-0.629981	0.235806
C128	C	0.471980	-0.129981	0.735806
C129	C	-0.056622	-0.597649	0.260639
C130	C	0.443378	-0.097649	0.760639
C131	C	-0.056739	-0.670537	0.333576
C132	C	0.443261	-0.170537	0.833576
C133	C	-0.005614	-0.545951	0.107238
C134	C	0.494386	-0.045951	0.607238
C135	C	-0.006360	-0.823943	0.385033
C136	C	0.493640	-0.323943	0.885033
C137	C	-0.005995	-0.545937	0.384582
C138	C	0.494005	-0.045937	0.884582
C139	C	-0.283006	-0.545971	0.383725
C140	C	0.216994	-0.045971	0.883725
N141	N	0.426163	-0.449489	0.481488
N142	N	0.926163	0.050511	0.981488
O143	O	0.588601	-0.457377	0.364497
O144	O	1.088601	0.042623	0.864497
O145	O	0.588789	-0.549696	0.489801
O146	O	1.088789	-0.049696	0.989801
O147	O	0.588709	-0.549485	0.410335
O148	O	1.088709	-0.049485	0.910335
O149	O	0.588681	-0.457588	0.443963
O150	O	1.088681	0.042412	0.943963
O151	O	0.509731	-0.523223	0.436741
O152	O	1.009731	-0.023223	0.936741
O153	O	0.509811	-0.523434	0.516207
O154	O	1.009811	-0.023434	1.016207
O155	O	0.509624	-0.431115	0.390903
O156	O	1.009624	0.068885	0.890903
Zn157	Zn	0.497178	-0.473105	0.457747
Zn158	Zn	0.997178	0.026895	0.957747
Zn159	Zn	0.601234	-0.507706	0.422956
Zn160	Zn	1.101234	-0.007706	0.922956
O161	O	0.509704	-0.431326	0.470368
O162	O	1.009704	0.068674	0.970368
N163	N	0.672250	-0.531322	0.399211
N164	N	1.172250	-0.031322	0.899211
N165	N	0.091303	-0.114798	0.481730
N166	N	0.591303	0.385202	0.981730
O167	O	-0.025603	0.047729	0.473733
O168	O	0.474397	0.547729	0.973733
O169	O	0.099703	0.047764	0.381394
O170	O	0.599703	0.547764	0.881394
O171	O	0.020199	0.047731	0.381655
O172	O	0.520199	0.547731	0.881655
O173	O	0.053901	0.047761	0.473472
O174	O	0.553901	0.547761	0.973472
O175	O	0.046564	-0.031252	0.407974
O176	O	0.546564	0.468748	0.907974
O177	O	0.126068	-0.031219	0.407713
O178	O	0.626068	0.468781	0.907713
O179	O	0.000762	-0.031254	0.500052
O180	O	0.500762	0.468746	1.000052
Zn181	Zn	0.067601	-0.043777	0.458061
Zn182	Zn	0.567601	0.456223	0.958061
Zn183	Zn	0.032864	0.060287	0.423385
Zn184	Zn	0.532864	0.560287	0.923385
O185	O	0.080266	-0.031222	0.499791
O186	O	0.580266	0.468778	0.999791
N187	N	0.009156	0.131307	0.399717
N188	N	0.509156	0.631307	0.899717
N189	N	0.091635	-0.449614	0.816396
N190	N	0.591635	0.050386	1.316396
O191	O	0.083664	-0.566502	0.978913
O192	O	0.583664	-0.066502	1.478913
O193	O	-0.008637	-0.441152	0.978954
O194	O	0.491363	0.058848	1.478954
O195	O	-0.008421	-0.520640	0.978930
O196	O	0.491579	-0.020640	1.478930
O197	O	0.083448	-0.487013	0.978936
O198	O	0.583448	0.012987	1.478936
O199	O	0.017877	-0.494296	0.899950
O200	O	0.517877	0.005704	1.399950
O201	O	0.017661	-0.414807	0.899974
O202	O	0.517661	0.085193	1.399974
O203	O	0.109961	-0.540157	0.899933
O204	O	0.609961	-0.040157	1.399933
Zn205	Zn	0.067986	-0.473299	0.887414
Zn206	Zn	0.567986	0.026701	1.387414
Zn207	Zn	0.033338	-0.508010	0.991473
Zn208	Zn	0.533338	-0.008010	1.491473
O209	O	0.109746	-0.460669	0.899956
O210	O	0.609746	0.039331	1.399956
N211	N	0.009689	-0.531700	1.062491
N212	N	0.509689	-0.031700	1.562491
C213	C	0.030367	-0.412095	0.382120
C214	C	0.530367	0.087905	0.882120
C215	C	0.128741	-0.510370	0.382016
C216	C	0.628741	-0.010370	0.882016
C217	C	0.070168	-0.569147	0.499490
C218	C	0.570168	-0.069147	0.999490
C219	C	-0.028207	-0.470871	0.499595
C220	C	0.471793	0.029129	0.999595
C221	C	0.549323	-0.549278	0.518791
C222	C	1.049323	-0.049278	1.018791
C223	C	0.549225	-0.549017	0.420381
C224	C	1.049225	-0.049017	0.920381
C225	C	0.549087	-0.431532	0.361914
C226	C	1.049087	0.068468	0.861914
C227	C	0.549188	-0.431794	0.460322
C228	C	1.049188	0.068206	0.960322
C229	C	0.128638	0.008374	0.381806
C230	C	0.628638	0.508374	0.881806
C231	C	0.030215	0.008236	0.382161
C232	C	0.530215	0.508236	0.882161
C233	C	-0.028206	0.008233	0.499608
C234	C	0.471794	0.508233	0.999608
C235	C	0.070250	0.008272	0.499285
C236	C	0.570250	0.508272	0.999285
C237	C	-0.008199	-0.412187	0.939469
C238	C	0.491801	0.087813	1.439469
C239	C	-0.007927	-0.510619	0.939425
C240	C	0.492073	-0.010619	1.439425
C241	C	0.109523	-0.569121	0.939417
C242	C	0.609523	-0.069121	1.439417
C243	C	0.109257	-0.470684	0.939444
C244	C	0.609257	0.029316	1.439444
H245	H	0.019274	-0.411508	0.812539
H246	H	0.519274	0.088492	1.312539
H247	H	0.077468	0.008281	0.528131
H248	H	0.577468	0.508281	1.028131
H249	H	0.049100	-0.381393	0.549936
H250	H	0.549100	0.118607	1.049936
O251	O	0.044109	-0.376948	0.718527
O252	O	0.544109	0.123052	1.218527
C253	C	-0.002564	-0.369909	0.751157
C254	C	0.497436	0.130091	1.251157
H255	H	-0.002440	-0.399890	0.786585
H256	H	0.497560	0.100110	1.286585
H257	H	-0.016807	-0.334497	0.756455
H258	H	0.483193	0.165503	1.256455
C259	C	-0.034630	-0.332734	0.688274
C260	C	0.465370	0.167266	1.188274
C261	C	-0.034477	-0.369559	0.731786
C262	C	0.465523	0.130441	1.231786
H263	H	-0.054316	-0.332516	0.676324
H264	H	0.445684	0.167484	1.176324
H265	H	-0.003185	-0.337474	0.666290
H266	H	0.496815	0.162526	1.166290
H267	H	-0.046498	-0.303228	0.692695
H268	H	0.453502	0.196772	1.192695
H269	H	-0.022604	-0.399065	0.727363
H270	H	0.477396	0.100935	1.227363
H271	H	-0.065921	-0.364824	0.753769
H272	H	0.434079	0.135176	1.253769
H273	H	0.549237	-0.577886	0.413185
H274	H	1.049237	-0.077886	0.913185
O275	O	-0.071172	0.008251	0.534130
O276	O	0.428828	0.508251	1.034130
C277	C	-0.100741	0.008228	0.517063
C278	C	0.399259	0.508228	1.017063
H279	H	-0.087902	0.023174	0.476612
H280	H	0.412098	0.523174	0.976612
H281	H	-0.099454	-0.029667	0.529147
H282	H	0.400546	0.470333	1.029147
C283	C	-0.167893	0.020846	0.586422
C284	C	0.332107	0.520846	1.086422
C285	C	-0.152126	0.039207	0.536739
C286	C	0.347874	0.539207	1.036739
H287	H	-0.199590	0.039953	0.598560
H288	H	0.300410	0.539953	1.098560
H289	H	-0.147972	0.020860	0.597922
H290	H	0.352028	0.520860	1.097922
H291	H	-0.166817	-0.010733	0.596486
H292	H	0.333183	0.489267	1.096486
H293	H	-0.153197	0.070782	0.526676
H294	H	0.346803	0.570782	1.026676
H295	H	-0.172049	0.039198	0.525238
H296	H	0.327951	0.539198	1.025238
H297	H	0.196592	-0.455039	0.722237
H298	H	0.696592	0.044961	1.222237
H299	H	0.164551	0.008603	0.352745
H300	H	0.664551	0.508603	0.852745
O301	O	0.328074	-0.337573	0.484071
O302	O	0.828074	0.162427	0.984071
C303	C	0.299356	-0.330820	0.528452
C304	C	0.799356	0.169180	1.028452
H305	H	0.291929	-0.365004	0.556157
H306	H	0.791929	0.134996	1.056157
H307	H	0.318529	-0.321022	0.539483
H308	H	0.818529	0.178978	1.039483
C309	C	0.261239	-0.248515	0.490578
C310	C	0.761239	0.251485	0.990578
C311	C	0.252114	-0.290500	0.524605
C312	C	0.752114	0.209500	1.024605
H313	H	0.232099	-0.223642	0.488206
H314	H	0.732099	0.276358	0.988206
H315	H	0.280589	-0.253064	0.460678
H316	H	0.780589	0.246936	0.960678
H317	H	0.277218	-0.240357	0.499775
H318	H	0.777218	0.259643	0.999775
H319	H	0.236141	-0.298660	0.515405
H320	H	0.736141	0.201340	1.015405
H321	H	0.232761	-0.285951	0.554504
H322	H	0.732761	0.214049	1.054504
O323	O	0.144112	-0.612070	0.939465
O324	O	0.644112	-0.112070	1.439465
C325	C	0.156867	-0.633101	0.980372
C326	C	0.656867	-0.133101	1.480372
H327	H	0.147243	-0.604306	0.994021
H328	H	0.647243	-0.104306	1.494021
H329	H	0.136943	-0.659018	1.009010
H330	H	0.636943	-0.159018	1.509010
C331	C	0.222532	-0.695331	0.951171
C332	C	0.722532	-0.195331	1.451171
C333	C	0.210716	-0.659964	0.967932
C334	C	0.710716	-0.159964	1.467932
H335	H	0.255748	-0.711903	0.943499
H336	H	0.755748	-0.211903	1.443499
H337	H	0.213938	-0.681164	0.923612
H338	H	0.713938	-0.181164	1.423612
H339	H	0.205925	-0.716923	0.975038
H340	H	0.705925	-0.216923	1.475038
H341	H	0.227318	-0.638369	0.944063
H342	H	0.727318	-0.138369	1.444063
H343	H	0.219314	-0.674129	0.995487
H344	H	0.719314	-0.174129	1.495487
O345	O	0.549037	-0.397010	0.318951
O346	O	1.049037	0.102990	0.818951
C347	C	0.549004	-0.414105	0.289409
C348	C	1.049004	0.085895	0.789409
H349	H	0.564001	-0.454556	0.302246
H350	H	1.064001	0.045444	0.802246
H351	H	0.511102	-0.402065	0.290737
H352	H	1.011102	0.097935	0.790737
C353	C	0.561490	-0.344715	0.222240
C354	C	1.061490	0.155285	0.722240
C355	C	0.579913	-0.394398	0.238004
C356	C	1.079913	0.105602	0.738004
H357	H	0.580554	-0.332558	0.190531
H358	H	1.080554	0.167442	0.690531
H359	H	0.561511	-0.333197	0.242143
H360	H	1.061511	0.166803	0.742143
H361	H	0.529906	-0.334689	0.223350
H362	H	1.029906	0.165311	0.723350
H363	H	0.611495	-0.404424	0.236900
H364	H	1.111495	0.095576	0.736900
H365	H	0.579898	-0.405918	0.218100
H366	H	1.079898	0.094082	0.718100
O367	O	-0.071119	-0.462452	0.534190
O368	O	0.428881	0.037548	1.034190
C369	C	-0.064867	-0.467759	0.574186
C370	C	0.435133	0.032241	1.074186
H371	H	-0.026985	-0.491511	0.573687
H372	H	0.473015	0.008489	1.073687
H373	H	-0.071649	-0.431447	0.573290
H374	H	0.428351	0.068553	1.073290
C375	C	-0.146574	-0.461352	0.620373
C376	C	0.353426	0.038648	1.120373
C377	C	-0.100048	-0.490528	0.619762
C378	C	0.399952	0.009472	1.119762
H379	H	-0.168277	-0.475395	0.648487
H380	H	0.331723	0.024605	1.148487
H381	H	-0.150787	-0.457775	0.593426
H382	H	0.349213	0.042225	1.093426
H383	H	-0.152219	-0.431094	0.619624
H384	H	0.347781	0.068906	1.119624
H385	H	-0.094401	-0.520784	0.620505
H386	H	0.405599	-0.020784	1.120505
H387	H	-0.095835	-0.494111	0.646710
H388	H	0.404165	0.005889	1.146710
O389	O	0.143646	-0.462017	0.939418
O390	O	0.643646	0.037983	1.439418
C391	C	0.126343	-0.415338	0.939443
C392	C	0.626343	0.084662	1.439443
H393	H	0.095849	-0.392869	0.924502
H394	H	0.595849	0.107131	1.424502
H395	H	0.113112	-0.416042	0.977337
H396	H	0.613112	0.083958	1.477337
C397	C	0.203961	-0.421349	0.926818
C398	C	0.703961	0.078651	1.426818
C399	C	0.166510	-0.393750	0.908463
C400	C	0.666510	0.106250	1.408463
H401	H	0.228738	-0.408032	0.907710
H402	H	0.728738	0.091968	1.407710
H403	H	0.215619	-0.452798	0.926803
H404	H	0.715619	0.047202	1.426803
H405	H	0.192929	-0.421933	0.958396
H406	H	0.692929	0.078067	1.458396
H407	H	0.177542	-0.393171	0.876889
H408	H	0.677542	0.106829	1.376889
H409	H	0.154856	-0.362301	0.908472
H410	H	0.654856	0.137699	1.408472
H411	H	0.549371	-0.578259	0.554780
H412	H	1.049371	-0.078259	1.054780
H413	H	0.164745	-0.517463	0.353068
H414	H	0.664745	-0.017463	0.853068
O415	O	0.078701	-0.612170	0.533927
O416	O	0.578701	-0.112170	1.033927
C417	C	0.089865	-0.647935	0.517624
C418	C	0.589865	-0.147935	1.017624
H419	H	0.074554	-0.631735	0.488125
H420	H	0.574554	-0.131735	0.988125
H421	H	0.130077	-0.664629	0.503333
H422	H	0.630077	-0.164629	1.003333
C423	C	0.087224	-0.706233	0.595198
C424	C	0.587224	-0.206233	1.095198
C425	C	0.068416	-0.686336	0.558970
C426	C	0.568416	-0.186336	1.058970
H427	H	0.073996	-0.729922	0.620702
H428	H	0.573996	-0.229922	1.120702
H429	H	0.079705	-0.682138	0.606182
H430	H	0.579705	-0.182138	1.106182
H431	H	0.120734	-0.720140	0.583283
H432	H	0.620734	-0.220140	1.083283
H433	H	0.034907	-0.672424	0.570883
H434	H	0.534907	-0.172424	1.070883
H435	H	0.075929	-0.710430	0.547989
H436	H	0.575929	-0.210430	1.047989
O437	O	0.171755	-0.489630	0.816256
O438	O	0.671755	0.010370	1.316256
C439	C	0.218430	-0.496649	0.783627
C440	C	0.718430	0.003351	1.283627
H441	H	0.218308	-0.491082	0.748197
H442	H	0.718308	0.008918	1.248197
H443	H	0.232671	-0.470187	0.778335
H444	H	0.732671	0.029813	1.278335
C445	C	0.250492	-0.554419	0.846511
C446	C	0.750492	-0.054419	1.346511
C447	C	0.250343	-0.547586	0.802996
C448	C	0.750343	-0.047586	1.302996
H449	H	0.270179	-0.585838	0.858460
H450	H	0.770179	-0.085838	1.358460
H451	H	0.219047	-0.549690	0.868494
H452	H	0.719047	-0.049690	1.368494
H453	H	0.262358	-0.532364	0.842095
H454	H	0.762358	-0.032364	1.342095
H455	H	0.238472	-0.569637	0.807414
H456	H	0.738472	-0.069637	1.307414
H457	H	0.281787	-0.552320	0.781014
H458	H	0.781787	-0.052320	1.281014
O459	O	0.011337	-0.409522	0.521709
O460	O	0.511337	0.090478	1.021709
C461	C	-0.000721	-0.384495	0.479959
C462	C	0.499279	0.115505	0.979959
H463	H	0.027283	-0.367658	0.450081
H464	H	0.527283	0.132342	0.950081
H465	H	-0.002379	-0.410055	0.469497
H466	H	0.497621	0.089945	0.969497
C467	C	-0.083875	-0.366052	0.525544
C468	C	0.416125	0.133948	1.025544
C469	C	-0.049482	-0.345369	0.488848
C470	C	0.450518	0.154631	0.988848
H471	H	-0.113953	-0.341919	0.531027
H472	H	0.386047	0.158081	1.031027
H473	H	-0.075752	-0.382915	0.553672
H474	H	0.424248	0.117085	1.053672
H475	H	-0.085251	-0.387352	0.516821
H476	H	0.414749	0.112648	1.016821
H477	H	-0.048101	-0.324074	0.497574
H478	H	0.451899	0.175926	0.997574
H479	H	-0.057606	-0.328501	0.460722
H480	H	0.442394	0.171499	0.960722
O481	O	0.549156	-0.397397	0.468988
O482	O	1.049156	0.102603	0.968988
C483	C	0.549229	-0.414704	0.515650
C484	C	1.049229	0.085296	1.015650
H485	H	0.534316	-0.445210	0.538125
H486	H	1.034316	0.054790	1.038125
H487	H	0.587131	-0.427923	0.514911
H488	H	1.087131	0.072077	1.014911
C489	C	0.536566	-0.337075	0.509656
C490	C	1.036566	0.162925	1.009656
C491	C	0.518247	-0.374540	0.537261
C492	C	1.018247	0.125460	1.037261
H493	H	0.517457	-0.312300	0.522986
H494	H	1.017457	0.187700	1.022986
H495	H	0.536519	-0.325415	0.478218
H496	H	1.036519	0.174585	0.978218
H497	H	0.568151	-0.348097	0.509043
H498	H	1.068151	0.151903	1.009043
H499	H	0.486665	-0.363519	0.537868
H500	H	0.986665	0.136481	1.037868
H501	H	0.518288	-0.386197	0.568699
H502	H	1.018288	0.113803	1.068699
H503	H	-0.037176	-0.376187	0.939482
H504	H	0.462824	0.123813	1.439482
O505	O	0.021541	0.008193	0.347809
O506	O	0.521541	0.508193	0.847809
C507	C	-0.025140	0.008182	0.365128
C508	C	0.474860	0.508182	0.865128
H509	H	-0.037612	-0.006759	0.405578
H510	H	0.462388	0.493241	0.905578
H511	H	-0.049726	0.046066	0.353116
H512	H	0.450274	0.546066	0.853116
C513	C	-0.010751	-0.004471	0.295948
C514	C	0.489249	0.495529	0.795948
C515	C	-0.026069	-0.022826	0.345630
C516	C	0.473931	0.477174	0.845630
H517	H	-0.011326	-0.023597	0.283919
H518	H	0.488674	0.476403	0.783919
H519	H	0.020698	-0.004463	0.284279
H520	H	0.520698	0.495537	0.784279
H521	H	-0.031242	0.027098	0.285944
H522	H	0.468758	0.527098	0.785944
H523	H	-0.005575	-0.054392	0.355632
H524	H	0.494425	0.445608	0.855632
H525	H	-0.057515	-0.022841	0.357300
H526	H	0.442485	0.477159	0.857300
O527	O	-0.042329	-0.519262	0.939446
O528	O	0.457671	-0.019262	1.439446
C529	C	-0.053249	-0.557716	0.980335
C530	C	0.446751	-0.057716	1.480335
H531	H	-0.021869	-0.580461	0.993990
H532	H	0.478131	-0.080461	1.493990
H533	H	-0.085883	-0.543640	1.008977
H534	H	0.414117	-0.043640	1.508977
C535	C	-0.102027	-0.560075	0.951091
C536	C	0.397973	-0.060075	1.451091
C537	C	-0.063483	-0.588013	0.967860
C538	C	0.436517	-0.088013	1.467860
H539	H	-0.108342	-0.578762	0.943397
H540	H	0.391658	-0.078762	1.443397
H541	H	-0.094672	-0.534166	0.923544
H542	H	0.405328	-0.034166	1.423544
H543	H	-0.129217	-0.548346	0.974962
H544	H	0.370783	-0.048346	1.474962
H545	H	-0.036292	-0.599736	0.943986
H546	H	0.463708	-0.099736	1.443986
H547	H	-0.070834	-0.613924	0.995403
H548	H	0.429166	-0.113924	1.495403
O549	O	0.171420	-0.489528	0.441661
O550	O	0.671420	0.010472	0.941661
C551	C	0.218118	-0.496573	0.434595
C552	C	0.718118	0.003427	0.934595
H553	H	0.218032	-0.466601	0.440148
H554	H	0.718032	0.033399	0.940148
H555	H	0.232390	-0.531992	0.461039
H556	H	0.732390	-0.031992	0.961039
C557	C	0.250072	-0.533723	0.376832
C558	C	0.750072	-0.033723	0.876832
C559	C	0.249966	-0.496908	0.383649
C560	C	0.749966	0.003092	0.883649
H561	H	0.269718	-0.533932	0.345407
H562	H	0.769718	-0.033932	0.845407
H563	H	0.218611	-0.528978	0.381593
H564	H	0.718611	-0.028978	0.881593
H565	H	0.261964	-0.563235	0.398872
H566	H	0.761964	-0.063235	0.898872
H567	H	0.238068	-0.467397	0.361614
H568	H	0.738068	0.032603	0.861614
H569	H	0.281426	-0.501648	0.378883
H570	H	0.781426	-0.001648	0.878883
H571	H	0.196371	-0.454985	0.476195
H572	H	0.696371	0.045015	0.976195
H573	H	0.332093	-0.491119	0.540748
H574	H	0.832093	0.008881	1.040748
O575	O	0.131184	-0.114700	0.401721
O576	O	0.631184	0.385300	0.901721
C577	C	0.110419	-0.065492	0.394041
C578	C	0.610419	0.434508	0.894041
H579	H	0.078525	-0.058718	0.426678
H580	H	0.578525	0.441282	0.926678
H581	H	0.137612	-0.051374	0.387397
H582	H	0.637612	0.448626	0.887397
C583	C	0.133257	-0.048284	0.310452
C584	C	0.633257	0.451716	0.810452
C585	C	0.094082	-0.039963	0.350536
C586	C	0.594082	0.460037	0.850536
H587	H	0.123182	-0.032535	0.283615
H588	H	0.623182	0.467465	0.783615
H589	H	0.147249	-0.081436	0.315626
H590	H	0.647249	0.418564	0.815626
H591	H	0.155915	-0.036518	0.304922
H592	H	0.655915	0.463482	0.804922
H593	H	0.071428	-0.051734	0.356069
H594	H	0.571428	0.448266	0.856069
H595	H	0.080086	-0.006812	0.345362
H596	H	0.580086	0.493188	0.845362
H597	H	0.422274	-0.521162	0.510626
H598	H	0.922274	-0.021162	1.010626
H599	H	0.159477	-0.208876	0.439413
H600	H	0.659477	0.291124	0.939413
O601	O	0.426109	-0.370174	0.451188
O602	O	0.926109	0.129826	0.951188
C603	C	0.413911	-0.336418	0.410224
C604	C	0.913911	0.163582	0.910224
H605	H	0.400229	-0.351739	0.398817
H606	H	0.900229	0.148261	0.898817
H607	H	0.385055	-0.302908	0.418365
H608	H	0.885055	0.197092	0.918365
C609	C	0.474855	-0.305295	0.383900
C610	C	0.974855	0.194705	0.883900
C611	C	0.458054	-0.324115	0.369887
C612	C	0.958054	0.175885	0.869887
H613	H	0.502083	-0.297704	0.359019
H614	H	1.002083	0.202296	0.859019
H615	H	0.483072	-0.328036	0.411499
H616	H	0.983072	0.171964	0.911499
H617	H	0.450804	-0.277373	0.390685
H618	H	0.950804	0.222627	0.890685
H619	H	0.482102	-0.352040	0.363109
H620	H	0.982102	0.147960	0.863109
H621	H	0.449842	-0.301378	0.342286
H622	H	0.949842	0.198622	0.842286
O623	O	0.051407	-0.114880	0.561816
O624	O	0.551407	0.385120	1.061816
C625	C	0.076552	-0.127018	0.590519
C626	C	0.576552	0.372982	1.090519
H627	H	0.105502	-0.163107	0.590982
H628	H	0.605502	0.336893	1.090982
H629	H	0.093411	-0.099027	0.575554
H630	H	0.593411	0.400973	1.075554
C631	C	0.006579	-0.085012	0.640893
C632	C	0.506579	0.414988	1.140893
C633	C	0.042134	-0.129340	0.641465
C634	C	0.542134	0.370660	1.141465
H635	H	-0.014651	-0.086443	0.672319
H636	H	0.485349	0.413557	1.172319
H637	H	-0.010362	-0.076833	0.621555
H638	H	0.489638	0.423167	1.121555
H639	H	0.020634	-0.061691	0.628420
H640	H	0.520634	0.438309	1.128420
H641	H	0.028080	-0.152658	0.653933
H642	H	0.528080	0.347342	1.153933
H643	H	0.059072	-0.137523	0.660807
H644	H	0.559072	0.362477	1.160807
O645	O	0.084163	-0.212874	0.594392
O646	O	0.584163	0.287126	1.094392
C647	C	0.125967	-0.241596	0.606356
C648	C	0.625967	0.258404	1.106356
H649	H	0.157173	-0.249043	0.573580
H650	H	0.657173	0.250957	1.073580
H651	H	0.132973	-0.222412	0.619958
H652	H	0.632973	0.277588	1.119958
C653	C	0.081683	-0.279677	0.685582
C654	C	0.581683	0.220323	1.185582
C655	C	0.120011	-0.288827	0.645327
C656	C	0.620011	0.211173	1.145327
H657	H	0.078009	-0.308811	0.709623
H658	H	0.578009	0.191189	1.209623
H659	H	0.053519	-0.260326	0.677523
H660	H	0.553519	0.239674	1.177523
H661	H	0.087526	-0.263690	0.696911
H662	H	0.587526	0.236310	1.196911
H663	H	0.114164	-0.304809	0.633996
H664	H	0.614164	0.195191	1.133996
H665	H	0.148174	-0.308183	0.653386
H666	H	0.648174	0.191817	1.153386
O667	O	0.021912	-0.369128	0.347594
O668	O	0.521912	0.130872	0.847594
C669	C	0.062702	-0.369013	0.306631
C670	C	0.562702	0.130987	0.806631
H671	H	0.095332	-0.397095	0.317040
H672	H	0.595332	0.102905	0.817040
H673	H	0.058862	-0.377282	0.280832
H674	H	0.558862	0.122718	0.780832
C675	C	0.028288	-0.285293	0.269892
C676	C	0.528288	0.214707	0.769892
C677	C	0.068366	-0.319781	0.282677
C678	C	0.568366	0.180219	0.782677
H679	H	0.031782	-0.254925	0.255114
H680	H	0.531782	0.245075	0.755114
H681	H	0.000806	-0.285371	0.297488
H682	H	0.500806	0.214629	0.797488
H683	H	0.025093	-0.292191	0.248395
H684	H	0.525093	0.207809	0.748395
H685	H	0.071557	-0.312887	0.304178
H686	H	0.571557	0.187113	0.804178
H687	H	0.095849	-0.319701	0.255083
H688	H	0.595849	0.180299	0.755083
O689	O	-0.063646	-0.484752	0.161900
O690	O	0.436354	0.015248	0.661900
C691	C	-0.113433	-0.464065	0.173981
C692	C	0.386567	0.035935	0.673981
H693	H	-0.129468	-0.492349	0.187614
H694	H	0.370532	0.007651	0.687614
H695	H	-0.128192	-0.448361	0.202840
H696	H	0.371808	0.051639	0.702840
C697	C	-0.106527	-0.389735	0.113033
C698	C	0.393473	0.110265	0.613033
C699	C	-0.126221	-0.424473	0.129774
C700	C	0.373779	0.075527	0.629774
H701	H	-0.114416	-0.365311	0.085765
H702	H	0.385584	0.134689	0.585765
H703	H	-0.072985	-0.403671	0.104895
H704	H	0.427015	0.096329	0.604895
H705	H	-0.118828	-0.376653	0.137087
H706	H	0.381172	0.123347	0.637087
H707	H	-0.113916	-0.437557	0.105723
H708	H	0.386084	0.062443	0.605723
H709	H	-0.159762	-0.410538	0.137907
H710	H	0.340238	0.089462	0.637907
O711	O	-0.096290	-0.517353	0.259863
O712	O	0.403710	-0.017353	0.759863
C713	C	-0.071179	-0.488641	0.247757
C714	C	0.428821	0.011359	0.747757
H715	H	-0.031407	-0.507874	0.234142
H716	H	0.468593	-0.007874	0.734142
H717	H	-0.081717	-0.453711	0.218876
H718	H	0.418283	0.046289	0.718876
C719	C	-0.132087	-0.454862	0.308658
C720	C	0.367913	0.045138	0.808658
C721	C	-0.083238	-0.478486	0.291940
C722	C	0.416762	0.021514	0.791940
H723	H	-0.139527	-0.448595	0.335911
H724	H	0.360473	0.051405	0.835911
H725	H	-0.149006	-0.474204	0.316813
H726	H	0.350994	0.025796	0.816813
H727	H	-0.140862	-0.425756	0.284586
H728	H	0.359138	0.074244	0.784586
H729	H	-0.074464	-0.507594	0.316009
H730	H	0.425536	-0.007594	0.816009
H731	H	-0.066318	-0.459148	0.283790
H732	H	0.433682	0.040852	0.783790
H733	H	0.011902	-0.639768	0.165877
H734	H	0.511902	-0.139768	0.665877
H735	H	-0.018278	-0.669778	0.256062
H736	H	0.481722	-0.169778	0.756062
H737	H	-0.091926	-0.522444	0.298262
H738	H	0.408074	-0.022444	0.798262
H739	H	0.011557	-0.639751	0.402207
H740	H	0.511557	-0.139751	0.902207
O741	O	-0.063771	-0.484763	0.326606
O742	O	0.436229	0.015237	0.826606
C743	C	-0.043046	-0.477093	0.347418
C744	C	0.456954	0.022907	0.847418
H745	H	-0.035609	-0.509712	0.379358
H746	H	0.464391	-0.009712	0.879358
H747	H	-0.008341	-0.470511	0.320274
H748	H	0.491659	0.029489	0.820274
C749	C	-0.086470	-0.393478	0.324442
C750	C	0.413530	0.106522	0.824442
C751	C	-0.077339	-0.433540	0.363674
C752	C	0.422661	0.066460	0.863674
H753	H	-0.107621	-0.366612	0.334468
H754	H	0.392379	0.133388	0.834468
H755	H	-0.100431	-0.398645	0.310419
H756	H	0.399569	0.101355	0.810419
H757	H	-0.057546	-0.388000	0.301825
H758	H	0.442454	0.112000	0.801825
H759	H	-0.106261	-0.439021	0.386287
H760	H	0.393739	0.060979	0.886287
H761	H	-0.063383	-0.428373	0.377701
H762	H	0.436617	0.071627	0.877701
O763	O	-0.016595	-0.677457	0.374003
O764	O	0.483405	-0.177457	0.874003
C765	C	-0.033672	-0.698098	0.423791
C766	C	0.466328	-0.198098	0.923791
H767	H	-0.038561	-0.674548	0.441225
H768	H	0.461439	-0.174548	0.941225
H769	H	-0.069200	-0.701750	0.434965
H770	H	0.430800	-0.201750	0.934965
C771	C	0.008279	-0.776449	0.418117
C772	C	0.508279	-0.276449	0.918117
C773	C	0.002277	-0.747526	0.439530
C774	C	0.502277	-0.247526	0.939530
H775	H	0.030452	-0.806940	0.427826
H776	H	0.530452	-0.306940	0.927826
H777	H	0.019782	-0.762543	0.384574
H778	H	0.519782	-0.262543	0.884574
H779	H	-0.021331	-0.779487	0.427431
H780	H	0.478669	-0.279487	0.927431
H781	H	0.031885	-0.744484	0.430211
H782	H	0.531885	-0.244484	0.930211
H783	H	-0.009220	-0.761433	0.473072
H784	H	0.490780	-0.261433	0.973072
O785	O	0.022848	-0.671402	0.303730
O786	O	0.522848	-0.171402	0.803730
C787	C	0.069189	-0.704041	0.301120
C788	C	0.569189	-0.204041	0.801120
H789	H	0.067255	-0.739465	0.330485
H790	H	0.567255	-0.239465	0.830485
H791	H	0.088206	-0.709349	0.265097
H792	H	0.588206	-0.209349	0.765097
C793	C	0.099111	-0.641163	0.271198
C794	C	0.599111	-0.141163	0.771198
C795	C	0.096735	-0.684670	0.307267
C796	C	0.596735	-0.184670	0.807267
H797	H	0.116104	-0.629213	0.274987
H798	H	0.616104	-0.129213	0.774987
H799	H	0.067891	-0.619173	0.272954
H800	H	0.567891	-0.119173	0.772954
H801	H	0.114958	-0.645592	0.241182
H802	H	0.614958	-0.145592	0.741182
H803	H	0.080884	-0.680239	0.337282
H804	H	0.580884	-0.180239	0.837282
H805	H	0.127954	-0.706659	0.305516
H806	H	0.627954	-0.206659	0.805516
H807	H	0.047765	-0.765423	0.337508
H808	H	0.547765	-0.265423	0.837508
H809	H	-0.098172	-0.765271	0.392919
H810	H	0.401828	-0.265271	0.892919
H811	H	-0.128170	-0.675084	0.362831
H812	H	0.371830	-0.175084	0.862831
H813	H	-0.224531	-0.602667	0.438605
H814	H	0.275469	-0.102667	0.938605
O815	O	-0.130497	-0.637368	0.413814
O816	O	0.369503	-0.137368	0.913814
C817	C	-0.142682	-0.679040	0.442532
C818	C	0.357318	-0.179040	0.942532
H819	H	-0.178761	-0.672334	0.442956
H820	H	0.321239	-0.172334	0.942956
H821	H	-0.114699	-0.708964	0.427610
H822	H	0.385301	-0.208964	0.927610
C823	C	-0.100740	-0.701433	0.492969
C824	C	0.399260	-0.201433	0.992969
C825	C	-0.145055	-0.693196	0.493492
C826	C	0.354945	-0.193196	0.993492
H827	H	-0.102202	-0.710167	0.524402
H828	H	0.397798	-0.210167	1.024402
H829	H	-0.092530	-0.673359	0.473619
H830	H	0.407470	-0.173359	0.973619
H831	H	-0.077426	-0.726369	0.480531
H832	H	0.422574	-0.226369	0.980531
H833	H	-0.168367	-0.668257	0.505923
H834	H	0.331633	-0.168257	1.005923
H835	H	-0.153270	-0.721266	0.512844
H836	H	0.346730	-0.221266	1.012844
O837	O	-0.228149	-0.524619	0.286101
O838	O	0.271851	-0.024619	0.786101
C839	C	-0.215985	-0.549735	0.257362
C840	C	0.284015	-0.049735	0.757362
H841	H	-0.179910	-0.578705	0.256928
H842	H	0.320090	-0.078705	0.756928
H843	H	-0.243979	-0.566571	0.272271
H844	H	0.256021	-0.066571	0.772271
C845	C	-0.257919	-0.479714	0.206946
C846	C	0.242081	0.020286	0.706946
C847	C	-0.213610	-0.515293	0.206410
C848	C	0.286390	-0.015293	0.706410
H849	H	-0.256457	-0.458469	0.175517
H850	H	0.243543	0.041531	0.675517
H851	H	-0.266116	-0.462793	0.226309
H852	H	0.233884	0.037207	0.726309
H853	H	-0.281243	-0.493750	0.219373
H854	H	0.218757	0.006250	0.719373
H855	H	-0.190288	-0.501258	0.193989
H856	H	0.309712	-0.001258	0.693989
H857	H	-0.205410	-0.532211	0.187044
H858	H	0.294590	-0.032211	0.687044
H859	H	-0.134111	-0.559208	0.261309
H860	H	0.365889	-0.059208	0.761309
