data_functionalizedCrystal
_audit_creation_method	'MofGen! by Chris Wilmer'
_symmetry_space_group_name_H-M	'P1'
_symmetry_Int_Tables_number	1
_symmetry_cell_setting	triclinic
loop_
_symmetry_equiv_pos_as_xyz
  x,y,z
_cell_length_a	16.109302
_cell_length_b	14.853567
_cell_length_c	15.186229
_cell_angle_alpha	90.000050
_cell_angle_beta	89.994701
_cell_angle_gamma	83.548356
loop_
_atom_site_label
_atom_site_type_symbol
_atom_site_fract_x
_atom_site_fract_y
_atom_site_fract_z
O1	O	1.103293	0.115884	-0.073261
O2	O	0.861251	0.130304	-0.073253
O3	O	0.988738	-0.008146	-0.073260
O4	O	0.975807	0.254334	-0.073254
O5	O	0.988729	-0.008148	0.073198
O6	O	0.861243	0.130302	0.073204
O7	O	1.103285	0.115882	0.073197
Zn8	Zn	0.982262	0.123092	0.096454
Zn9	Zn	0.982274	0.123094	-0.096510
O10	O	0.975798	0.254332	0.073203
C11	C	0.830271	0.129719	-0.000023
C12	C	0.737974	0.127967	-0.000021
C13	C	0.525622	0.123916	0.079804
C14	C	0.438900	0.122261	0.079801
C15	C	0.438920	0.122267	-0.079874
C16	C	0.525641	0.123916	-0.079870
C17	C	0.568990	0.124745	-0.000028
C18	C	0.395546	0.121441	-0.000035
C19	C	0.301518	0.119646	-0.000039
C20	C	0.663024	0.126539	-0.000024
C21	C	0.988147	-0.041735	-0.000033
C22	C	0.986392	-0.141816	-0.000041
C23	C	0.903240	-0.554213	-0.000022
C24	C	1.054697	-0.575743	-0.000027
C25	C	1.056348	-0.481712	-0.000032
C26	C	0.981444	-0.423927	-0.000031
C27	C	0.904889	-0.460173	-0.000024
C28	C	1.132901	-0.445459	-0.000029
C29	C	1.134555	-0.351423	-0.000034
C30	C	1.059650	-0.293636	-0.000039
C31	C	0.983092	-0.329887	-0.000033
C32	C	0.908188	-0.272102	-0.000032
C33	C	0.831630	-0.308351	-0.000033
C34	C	0.829984	-0.402385	-0.000029
C35	C	1.061296	-0.199601	-0.000042
C36	C	0.909837	-0.178062	-0.000035
C37	C	1.134264	0.116467	-0.000035
C38	C	1.226562	0.118219	-0.000043
C39	C	0.976389	0.287921	-0.000025
C40	C	0.978144	0.388002	-0.000023
N41	N	0.982261	0.123089	0.228146
N42	N	0.982282	0.123090	-0.228203
C43	C	1.038731	0.061804	0.453866
C44	C	1.038733	0.061802	0.546056
C45	C	0.925806	0.184378	0.546071
C46	C	0.925800	0.184375	0.453883
C47	C	0.982267	0.123089	0.407783
C48	C	0.982276	0.123090	0.592161
C49	C	0.982278	0.123088	0.692117
C50	C	0.982264	0.123090	0.307821
H51	H	0.403615	0.121593	-0.144879
O52	O	1.205735	-0.501461	0.000005
C53	C	1.273658	-0.449305	-0.000017
H54	H	1.252636	-0.379118	0.027717
H55	H	1.297120	-0.442612	-0.070281
C56	C	1.370377	-0.582391	0.023347
C57	C	1.344559	-0.496189	0.057417
H58	H	1.414114	-0.611312	0.058772
H59	H	1.324616	-0.617531	0.023359
H60	H	1.389923	-0.576802	-0.035205
H61	H	1.325004	-0.501780	0.115965
H62	H	1.390318	-0.461052	0.057417
H63	H	0.403594	0.121586	0.144809
H64	H	0.848840	-0.131018	-0.000037
H65	H	0.560914	0.124591	0.144817
H66	H	0.560952	0.124589	-0.144884
O67	O	1.208869	-0.316109	-0.000159
C68	C	1.214366	-0.262388	-0.076028
H69	H	1.148864	-0.238952	-0.101312
H70	H	1.251100	-0.303950	-0.129141
C71	C	1.339682	-0.208004	-0.021947
C72	C	1.259230	-0.179213	-0.052997
H73	H	1.367359	-0.156700	-0.007743
H74	H	1.335981	-0.244199	0.029166
H75	H	1.370283	-0.242639	-0.066213
H76	H	1.228628	-0.144589	-0.008727
H77	H	1.262927	-0.143010	-0.104102
O78	O	1.093470	0.002182	0.590860
C79	C	1.048889	-0.053439	0.644208
H80	H	0.983322	-0.054984	0.616437
H81	H	1.044567	-0.025226	0.714077
C82	C	1.175131	-0.148324	0.679725
C83	C	1.094603	-0.150228	0.645612
H84	H	1.203330	-0.208027	0.680595
H85	H	1.205167	-0.110849	0.643786
H86	H	1.171518	-0.124810	0.737946
H87	H	1.098217	-0.173731	0.587388
H88	H	1.064568	-0.187709	0.681541
H89	H	0.879832	0.234277	0.583615
H90	H	0.770643	-0.261290	-0.000026
H91	H	0.767654	-0.431908	-0.000029
O92	O	0.870917	0.243999	0.409248
C93	C	0.821069	0.298082	0.469703
H94	H	0.855158	0.299118	0.535413
H95	H	0.759278	0.268789	0.479520
C96	C	0.762173	0.394058	0.353012
C97	C	0.804044	0.395336	0.433716
H98	H	0.751667	0.454048	0.330812
H99	H	0.795754	0.357619	0.312281
H100	H	0.710685	0.369642	0.361203
H101	H	0.855536	0.419740	0.425522
H102	H	0.770472	0.431781	0.474444
O103	O	0.828927	-0.589527	-0.000139
C104	C	0.823436	-0.643256	-0.076003
H105	H	0.888940	-0.666693	-0.101293
H106	H	0.786705	-0.601700	-0.129115
C107	C	0.698117	-0.697636	-0.021901
C108	C	0.778570	-0.726429	-0.052959
H109	H	0.670439	-0.748939	-0.007689
H110	H	0.701814	-0.661436	0.029209
H111	H	0.667519	-0.663006	-0.066167
H112	H	0.809170	-0.761049	-0.008690
H113	H	0.774878	-0.762638	-0.104061
O114	O	1.127377	-0.632000	-0.000063
C115	C	1.109506	-0.722770	-0.000031
H116	H	1.044200	-0.726361	-0.027755
H117	H	1.112622	-0.749958	0.070235
C118	C	1.254201	-0.775936	-0.023411
C119	C	1.173994	-0.780347	-0.057470
H120	H	1.293982	-0.811454	-0.058839
H121	H	1.266243	-0.714783	-0.023429
H122	H	1.256787	-0.798591	0.035143
H123	H	1.171407	-0.757682	-0.116019
H124	H	1.161954	-0.841498	-0.057463
O125	O	1.135582	-0.164238	-0.000002
C126	C	1.120978	-0.068850	-0.000031
H127	H	1.056117	-0.046751	0.027692
H128	H	1.125044	-0.042681	-0.070296
C129	C	1.266809	-0.056997	0.023353
C130	C	1.187149	-0.029854	0.057411
H131	H	1.307629	-0.032941	0.058782
H132	H	1.276650	-0.121262	0.023370
H133	H	1.270186	-0.035188	-0.035200
H134	H	1.183770	-0.051673	0.115959
H135	H	1.177309	0.034408	0.057406
O136	O	1.093607	0.002181	0.409221
C137	C	1.143456	-0.051896	0.469668
H138	H	1.109372	-0.052920	0.535389
H139	H	1.205250	-0.022606	0.479462
C140	C	1.202338	-0.147892	0.352973
C141	C	1.160473	-0.149156	0.433690
H142	H	1.212839	-0.207886	0.330779
H143	H	1.168756	-0.111457	0.312247
H144	H	1.253829	-0.123479	0.361145
H145	H	1.108979	-0.173558	0.425515
H146	H	1.194046	-0.185597	0.474414
