data_functionalizedCrystal
_audit_creation_method	'MofGen! by Chris Wilmer'
_symmetry_space_group_name_H-M	'P1'
_symmetry_Int_Tables_number	1
_symmetry_cell_setting	triclinic
loop_
_symmetry_equiv_pos_as_xyz
  x,y,z
_cell_length_a	16.109318
_cell_length_b	14.853559
_cell_length_c	13.330367
_cell_angle_alpha	89.992841
_cell_angle_beta	90.003321
_cell_angle_gamma	83.550009
loop_
_atom_site_label
_atom_site_type_symbol
_atom_site_fract_x
_atom_site_fract_y
_atom_site_fract_z
O1	O	1.103287	0.115943	0.083335
O2	O	0.861247	0.130348	0.083355
O3	O	0.988736	-0.008095	0.083343
O4	O	0.975798	0.254386	0.083347
O5	O	0.988716	-0.008072	-0.083504
O6	O	0.861227	0.130371	-0.083492
O7	O	1.103267	0.115966	-0.083512
Cu8	Cu	0.982245	0.123170	-0.098737
Cu9	Cu	0.982268	0.123144	0.098579
O10	O	0.975778	0.254409	-0.083501
C11	C	0.830261	0.129773	-0.000066
C12	C	0.737964	0.128016	-0.000058
C13	C	0.438894	0.122327	0.090872
C14	C	0.525617	0.123972	0.090878
C15	C	0.525615	0.123984	-0.091028
C16	C	0.438893	0.122332	-0.091033
C17	C	0.395535	0.121508	-0.000080
C18	C	0.568979	0.124806	-0.000069
C19	C	0.663009	0.126590	-0.000063
C20	C	0.301499	0.119722	-0.000085
C21	C	0.988141	-0.041671	-0.000078
C22	C	0.986388	-0.141753	-0.000073
C23	C	0.978962	-0.564928	0.090877
C24	C	0.978941	-0.564899	-0.091027
C25	C	0.980595	-0.470868	-0.091028
C26	C	0.981431	-0.423863	-0.000075
C27	C	0.980614	-0.470888	0.090878
C28	C	0.981404	-0.423834	-0.181979
C29	C	0.983057	-0.329798	-0.181984
C30	C	0.983899	-0.282792	-0.091030
C31	C	0.983083	-0.329823	-0.000073
C32	C	0.983919	-0.282818	0.090879
C33	C	0.983109	-0.329849	0.181837
C34	C	0.981456	-0.423882	0.181832
C35	C	0.985552	-0.188758	-0.091025
C36	C	0.985571	-0.188778	0.090881
C37	C	1.134252	0.116541	-0.000089
C38	C	1.226549	0.118298	-0.000090
C39	C	0.976373	0.287985	-0.000077
C40	C	0.978126	0.388067	-0.000076
N41	N	0.982235	0.123188	-0.237518
C42	C	1.032762	0.177827	-0.710134
C43	C	0.931800	0.068424	-0.710116
C44	C	0.931788	0.068438	-0.605098
C45	C	0.982265	0.123147	-0.552593
C46	C	1.032754	0.177841	-0.605106
C47	C	0.881306	0.013738	-0.552576
C48	C	0.881292	0.013749	-0.447552
C49	C	0.931765	0.068463	-0.395045
C50	C	0.982256	0.123160	-0.447565
C51	C	1.032733	0.177869	-0.395060
C52	C	1.083219	0.232572	-0.447578
C53	C	1.083227	0.232555	-0.552599
C54	C	0.931758	0.068480	-0.290023
C55	C	1.032724	0.177882	-0.290032
N56	N	0.982285	0.123119	0.237361
H57	H	0.986256	-0.150514	0.164947
H58	H	0.980795	-0.462183	0.255885
F59	F	1.086445	0.236117	-0.234160
F60	F	0.878044	0.010251	-0.234134
H61	H	0.978254	-0.603175	-0.165076
F62	F	0.986412	-0.138708	-0.187822
H63	H	1.124332	0.277089	-0.595369
F64	F	0.983916	-0.279752	-0.278788
F65	F	0.571760	0.124840	0.187682
H66	H	1.124321	0.277111	-0.404814
H67	H	0.403593	0.121655	0.164932
H68	H	0.983783	-0.291564	0.255891
F69	F	0.571766	0.124868	-0.187821
H70	H	0.403590	0.121665	-0.165101
H71	H	0.978306	-0.603225	0.164933
F72	F	0.980497	-0.473862	-0.278770
F73	F	1.086486	0.236049	-0.766027
F74	F	0.878084	0.010201	-0.765998
F75	F	0.827588	-0.044482	-0.608460
F76	F	0.827550	-0.044458	-0.391667
