data_functionalizedCrystal
_audit_creation_method	'MofGen! by Chris Wilmer'
_symmetry_space_group_name_H-M	'P1'
_symmetry_Int_Tables_number	1
_symmetry_cell_setting	triclinic
loop_
_symmetry_equiv_pos_as_xyz
  x,y,z
_cell_length_a	12.837943
_cell_length_b	16.109301
_cell_length_c	14.586319
_cell_angle_alpha	90.005214
_cell_angle_beta	90.002400
_cell_angle_gamma	89.145210
loop_
_atom_site_label
_atom_site_type_symbol
_atom_site_fract_x
_atom_site_fract_y
_atom_site_fract_z
O1	O	-1.375379	-0.216129	-0.076230
O2	O	-0.875379	0.283871	0.423770
O3	O	-1.073577	-0.205453	-0.076235
O4	O	-0.573577	0.294547	0.423765
O5	O	-1.232769	-0.090419	-0.076223
O6	O	-0.732769	0.409581	0.423777
O7	O	-1.216188	-0.331163	-0.076242
O8	O	-0.716188	0.168837	0.423758
O9	O	-1.232758	-0.090416	0.076257
O10	O	-0.732758	0.409584	0.576257
O11	O	-1.073566	-0.205450	0.076245
O12	O	-0.573566	0.294550	0.576245
O13	O	-1.375368	-0.216126	0.076251
O14	O	-0.875368	0.283874	0.576251
Cu15	Cu	-1.224466	-0.210788	0.090171
Cu16	Cu	-0.724466	0.289212	0.590171
Cu17	Cu	-1.224479	-0.210791	-0.090156
Cu18	Cu	-0.724479	0.289209	0.409844
O19	O	-1.216177	-0.331161	0.076239
O20	O	-0.716177	0.168839	0.576239
C21	C	-1.034953	-0.201845	0.000005
C22	C	-0.534953	0.298155	0.500005
C23	C	-0.919879	-0.191088	0.000003
C24	C	-0.419879	0.308912	0.500003
C25	C	-1.232092	-0.059389	0.000018
C26	C	-0.732092	0.440611	0.500018
C27	C	-1.230078	0.033066	0.000019
C28	C	-0.730078	0.533066	0.500019
C29	C	-1.413993	-0.219735	0.000009
C30	C	-0.913993	0.280265	0.500009
C31	C	-1.529067	-0.230491	0.000004
C32	C	-1.029067	0.269509	0.500004
C33	C	-0.678877	-0.320405	0.000006
C34	C	-0.178877	0.179595	0.500006
C35	C	-0.570755	-0.310302	0.000005
C36	C	-0.070755	0.189698	0.500005
C37	C	-0.595510	-0.160779	0.000007
C38	C	-0.095510	0.339221	0.500007
C39	C	-0.703632	-0.170882	0.000008
C40	C	-0.203632	0.329118	0.500008
C41	C	-0.745312	-0.250698	0.000006
C42	C	-0.245312	0.249302	0.500006
C43	C	-0.853436	-0.260800	0.000000
C44	C	-0.353436	0.239200	0.500000
C45	C	-0.878189	-0.111278	0.000009
C46	C	-0.378189	0.388722	0.500009
C47	C	-0.770067	-0.101175	0.000008
C48	C	-0.270067	0.398825	0.500008
C49	C	-1.216854	-0.362190	-0.000004
C50	C	-0.716854	0.137810	0.499996
C51	C	-1.218868	-0.454645	-0.000012
C52	C	-0.718868	0.045355	0.499988
N53	N	-1.224465	-0.210786	0.217002
N54	N	-0.724465	0.289214	0.717002
C55	C	-1.319857	0.248206	0.000006
C56	C	-0.819857	0.748206	0.500006
C57	C	-1.317957	0.335078	-0.000002
C58	C	-0.817957	0.835078	0.499998
C59	C	-1.129081	0.330208	-0.000001
C60	C	-0.629081	0.830208	0.499999
C61	C	-1.130983	0.243338	-0.000000
C62	C	-0.630983	0.743338	0.500000
C63	C	-1.226374	0.202340	0.000008
C64	C	-0.726374	0.702340	0.500008
C65	C	-1.222572	0.376081	-0.000001
C66	C	-0.722572	0.876081	0.499999
C67	C	-1.220511	0.470271	-0.000009
C68	C	-0.720511	0.970271	0.499991
C69	C	-1.228435	0.108144	0.000014
C70	C	-0.728435	0.608144	0.500014
N71	N	-1.224489	-0.210787	-0.216987
N72	N	-0.724489	0.289213	0.283013
C73	C	-1.294978	-0.159869	0.452014
C74	C	-0.794978	0.340131	0.952014
C75	C	-1.294981	-0.159868	0.547995
C76	C	-0.794981	0.340132	1.047995
C77	C	-1.153968	-0.261706	0.547994
C78	C	-0.653968	0.238294	1.047994
C79	C	-1.153961	-0.261703	0.452015
C80	C	-0.653961	0.238297	0.952015
C81	C	-1.224472	-0.210786	0.404027
C82	C	-0.724472	0.289214	0.904027
C83	C	-1.224482	-0.210787	0.595988
C84	C	-0.724482	0.289213	1.095988
C85	C	-1.224485	-0.210786	0.700055
C86	C	-0.724485	0.289214	1.200055
C87	C	-1.224468	-0.210786	0.299953
C88	C	-0.724468	0.289214	0.799953
H89	H	-0.887369	-0.325790	0.000000
H90	H	-0.387369	0.174210	0.500000
F91	F	-0.723238	-0.405349	-0.000007
F92	F	-0.223238	0.094651	0.499993
H93	H	-1.352391	-0.118409	0.412945
H94	H	-0.852391	0.381591	0.912945
H95	H	-0.516666	-0.367065	0.000007
H96	H	-0.016666	0.132935	0.500007
H97	H	-1.394081	0.372419	-0.000005
H98	H	-0.894081	0.872419	0.499995
H99	H	-0.561555	-0.095797	0.000084
H100	H	-0.061555	0.404203	0.500084
H101	H	-1.051417	0.363600	-0.000006
H102	H	-0.551417	0.863600	0.499994
H103	H	-1.352392	-0.118406	0.587064
H104	H	-0.852392	0.381594	1.087064
F105	F	-1.078911	-0.315894	0.400939
F106	F	-0.578911	0.184106	0.900939
H107	H	-1.096561	-0.303163	0.587075
H108	H	-0.596561	0.196837	1.087075
F109	F	-1.421380	0.204576	0.000013
F110	F	-0.921380	0.704576	0.500013
F111	F	-0.725697	-0.016234	0.000013
F112	F	-0.225697	0.483766	0.500013
H113	H	-0.932293	-0.054518	0.000003
H114	H	-0.432293	0.445482	0.500003
H115	H	-1.054852	0.205992	-0.000001
H116	H	-0.554852	0.705992	0.499999
