data_functionalizedCrystal
_audit_creation_method	'MofGen! by Chris Wilmer'
_symmetry_space_group_name_H-M	'P1'
_symmetry_Int_Tables_number	1
_symmetry_cell_setting	triclinic
loop_
_symmetry_equiv_pos_as_xyz
  x,y,z
_cell_length_a	14.519709
_cell_length_b	23.532407
_cell_length_c	12.996460
_cell_angle_alpha	89.989202
_cell_angle_beta	90.000034
_cell_angle_gamma	83.264412
loop_
_atom_site_label
_atom_site_type_symbol
_atom_site_fract_x
_atom_site_fract_y
_atom_site_fract_z
O1	O	1.222985	0.074654	-0.085444
O2	O	0.954405	0.083445	-0.085477
O3	O	1.096794	-0.003845	-0.085440
O4	O	1.080596	0.161945	-0.085480
O5	O	1.096779	-0.003850	0.085693
O6	O	0.954390	0.083441	0.085657
O7	O	1.222971	0.074649	0.085690
Cu8	Cu	1.088679	0.079044	0.101299
Cu9	Cu	1.088696	0.079050	-0.101086
O10	O	1.080581	0.161940	0.085654
C11	C	0.920042	0.083033	0.000086
C12	C	0.817676	0.081805	0.000075
C13	C	0.442833	0.077286	0.000123
C14	C	0.547126	0.078541	0.000109
C15	C	0.630251	0.079545	0.000098
C16	C	0.734551	0.080801	0.000086
C17	C	1.096374	-0.025066	0.000129
C18	C	1.095134	-0.088288	0.000137
C19	C	1.171619	-0.487046	0.000090
C20	C	1.170467	-0.546452	0.000082
O21	O	1.241369	-0.582876	0.000052
N22	N	1.085816	-0.569460	0.000072
C23	C	1.002312	-0.533059	0.000060
O24	O	0.930205	-0.558084	0.000050
C25	C	1.003465	-0.473655	0.000061
C26	C	1.088121	-0.450650	0.000081
C27	C	1.256268	-0.464041	0.000109
C28	C	1.257420	-0.404640	0.000119
C29	C	1.173922	-0.368244	0.000110
C30	C	1.089273	-0.391249	0.000091
C31	C	0.919962	-0.437255	0.000041
C32	C	0.921123	-0.377847	0.000041
C33	C	1.005779	-0.354843	0.000061
C34	C	1.006927	-0.295451	0.000091
N35	N	1.091578	-0.272443	0.000101
C36	C	1.175075	-0.308839	0.000110
C37	C	0.999897	-0.657813	0.000057
C38	C	0.998743	-0.717216	0.000064
C39	C	1.166898	-0.730604	0.000084
C40	C	1.168051	-0.671200	0.000084
C41	C	1.084548	-0.634804	0.000067
C42	C	1.177487	-0.184092	0.000132
C43	C	1.178632	-0.124685	0.000146
C44	C	1.010477	-0.111301	0.000121
C45	C	1.009332	-0.170703	0.000112
C46	C	1.092845	-0.207098	0.000114
O47	O	0.936062	-0.258992	0.000117
O48	O	1.247171	-0.283806	0.000106
C49	C	1.257333	0.075061	0.000125
C50	C	1.359700	0.076289	0.000130
C51	C	1.081001	0.183160	0.000082
C52	C	1.082241	0.246383	0.000067
N53	N	1.088673	0.079040	0.243647
N54	N	1.088709	0.079050	-0.243433
C55	C	1.088695	0.079051	0.663461
C56	C	1.088686	0.079050	0.546656
C57	C	1.088685	0.079046	0.453557
C58	C	1.088675	0.079044	0.336745
H59	H	1.247572	-0.105958	0.000165
C60	C	0.905619	-0.742516	0.000057
C61	C	0.881687	-0.781521	0.088916
C62	C	0.788560	-0.806818	0.088904
C63	C	0.719364	-0.793109	0.000032
C64	C	0.743294	-0.754101	-0.088834
C65	C	0.836422	-0.728805	-0.088821
H66	H	0.932912	-0.791671	0.154710
H67	H	0.770845	-0.835694	0.154688
H68	H	0.650426	-0.811835	0.000023
H69	H	0.692070	-0.743951	-0.154628
H70	H	0.854136	-0.699929	-0.154606
H71	H	1.245491	-0.213718	0.000129
H72	H	0.851027	-0.455975	0.000019
C73	C	0.918632	-0.071260	0.000103
C74	C	0.849091	-0.073905	0.088948
C75	C	0.757244	-0.033863	0.088919
C76	C	0.734939	0.008826	0.000045
C77	C	0.804482	0.011473	-0.088806
C78	C	0.896328	-0.028570	-0.088778
H79	H	0.865601	-0.105507	0.154743
H80	H	0.705764	-0.035822	0.154693
H81	H	0.666949	0.038468	0.000024
H82	H	0.787972	0.043075	-0.154602
H83	H	0.947809	-0.026610	-0.154552
C84	C	0.829265	-0.337812	0.000025
C85	C	0.759757	-0.340448	-0.088854
C86	C	0.667901	-0.300414	-0.088867
C87	C	0.645554	-0.257745	-0.000002
C88	C	0.715064	-0.255108	0.088883
C89	C	0.806920	-0.295142	0.088897
H90	H	0.776298	-0.372035	-0.154643
H91	H	0.616445	-0.302366	-0.154666
H92	H	0.577557	-0.228110	-0.000012
H93	H	0.698522	-0.223520	0.154672
H94	H	0.858375	-0.293189	0.154696
H95	H	0.931894	-0.628182	0.000052
C96	C	1.350545	-0.379342	0.000120
C97	C	1.419751	-0.393052	0.088982
C98	C	1.512883	-0.367761	0.088975
C99	C	1.536810	-0.328759	0.000107
C100	C	1.467602	-0.315047	-0.088761
C101	C	1.374470	-0.340339	-0.088755
H102	H	1.402041	-0.421925	0.154773
H103	H	1.564115	-0.377911	0.154762
H104	H	1.605752	-0.310037	0.000103
H105	H	1.485312	-0.286174	-0.154552
H106	H	1.323238	-0.330188	-0.154541
H107	H	1.324266	-0.493670	0.000112
H108	H	0.940399	-0.189434	0.000124
H109	H	1.236985	-0.652474	0.000100
H110	H	1.234886	-0.760249	0.000087
