data_functionalizedCrystal
_audit_creation_method	'MofGen! by Chris Wilmer'
_symmetry_space_group_name_H-M	'P1'
_symmetry_Int_Tables_number	1
_symmetry_cell_setting	triclinic
loop_
_symmetry_equiv_pos_as_xyz
  x,y,z
_cell_length_a	18.101398
_cell_length_b	16.625546
_cell_length_c	16.625539
_cell_angle_alpha	90.030397
_cell_angle_beta	89.974087
_cell_angle_gamma	89.982266
loop_
_atom_site_label
_atom_site_type_symbol
_atom_site_fract_x
_atom_site_fract_y
_atom_site_fract_z
Zn1	Zn	1.132177	0.321102	-0.456013
Zn2	Zn	1.382177	0.571102	-0.206013
Zn3	Zn	1.632177	0.821102	0.043987
Zn4	Zn	1.882177	1.071102	0.293987
Zn5	Zn	1.132088	0.455945	-0.321175
Zn6	Zn	1.382088	0.705945	-0.071175
Zn7	Zn	1.632088	0.955945	0.178825
Zn8	Zn	1.882088	1.205945	0.428825
Zn9	Zn	1.008333	0.321119	-0.321181
Zn10	Zn	1.258333	0.571119	-0.071181
Zn11	Zn	1.508333	0.821119	0.178819
Zn12	Zn	1.758333	1.071119	0.428819
Zn13	Zn	1.008305	0.455885	-0.455952
Zn14	Zn	1.258305	0.705885	-0.205952
Zn15	Zn	1.508305	0.955885	0.044048
Zn16	Zn	1.758305	1.205885	0.294048
O17	O	1.070226	0.388513	-0.388580
O18	O	1.320226	0.638513	-0.138580
O19	O	1.570226	0.888513	0.111420
O20	O	1.820226	1.138513	0.361420
O21	O	1.235798	0.339007	-0.438149
O22	O	1.485798	0.589007	-0.188149
O23	O	1.735798	0.839007	0.061851
O24	O	1.985798	1.089007	0.311851
O25	O	1.115646	0.438092	-0.208343
O26	O	1.365646	0.688092	0.041657
O27	O	1.615646	0.938092	0.291657
O28	O	1.865646	1.188092	0.541657
O29	O	1.024809	0.208284	-0.339094
O30	O	1.274809	0.458284	-0.089094
O31	O	1.524809	0.708284	0.160906
O32	O	1.774809	0.958284	0.410906
O33	O	1.235733	0.438076	-0.339084
O34	O	1.485733	0.688076	-0.089084
O35	O	1.735733	0.938076	0.160916
O36	O	1.985733	1.188076	0.410916
O37	O	1.115797	0.208272	-0.438154
O38	O	1.365797	0.458272	-0.188154
O39	O	1.615797	0.708272	0.061846
O40	O	1.865797	0.958272	0.311846
O41	O	1.024723	0.339036	-0.208347
O42	O	1.274723	0.589036	0.041653
O43	O	1.524723	0.839036	0.291653
O44	O	1.774723	1.089036	0.541653
O45	O	0.904696	0.338978	-0.339035
O46	O	1.154696	0.588978	-0.089035
O47	O	1.404696	0.838978	0.160965
O48	O	1.654696	1.088978	0.410965
O49	O	1.024763	0.437974	-0.568793
O50	O	1.274763	0.687974	-0.318793
O51	O	1.524763	0.937974	-0.068793
O52	O	1.774763	1.187974	0.181207
O53	O	0.904676	0.437990	-0.438051
O54	O	1.154676	0.687990	-0.188051
O55	O	1.404676	0.937990	0.061949
O56	O	1.654676	1.187990	0.311949
O57	O	1.115771	0.338949	-0.568837
O58	O	1.365771	0.588949	-0.318837
O59	O	1.615771	0.838949	-0.068837
O60	O	1.865771	1.088949	0.181163
O61	O	1.115620	0.568770	-0.339026
O62	O	1.365620	0.818770	-0.089026
O63	O	1.615620	1.068770	0.160974
O64	O	1.865620	1.318770	0.410974
O65	O	1.024677	0.568725	-0.438046
O66	O	1.274677	0.818725	-0.188046
O67	O	1.524677	1.068725	0.061954
O68	O	1.774677	1.318725	0.311954
C69	C	1.070156	0.598004	-0.388546
C70	C	1.320156	0.848004	-0.138546
C71	C	1.570156	1.098004	0.111454
C72	C	1.820156	1.348004	0.361454
C73	C	1.070193	0.687625	-0.388559
C74	C	1.320193	0.937625	-0.138559
C75	C	1.570193	1.187625	0.111441
C76	C	1.820193	1.437625	0.361441
C77	C	0.877815	0.388480	-0.388538
C78	C	1.127815	0.638480	-0.138538
C79	C	1.377815	0.888480	0.111462
C80	C	1.627815	1.138480	0.361462
C81	C	0.795501	0.388485	-0.388539
C82	C	1.045501	0.638485	-0.138539
C83	C	1.295501	0.888485	0.111461
C84	C	1.545501	1.138485	0.361461
C85	C	1.070274	0.388453	-0.598889
C86	C	1.320274	0.638453	-0.348889
C87	C	1.570274	0.888453	-0.098889
C88	C	1.820274	1.138453	0.151111
C89	C	1.070294	0.388427	-0.688510
C90	C	1.320294	0.638427	-0.438510
C91	C	1.570294	0.888427	-0.188510
C92	C	1.820294	1.138427	0.061490
C93	C	0.496410	0.388536	-0.388607
C94	C	0.746410	0.638536	-0.138607
C95	C	0.996410	0.888536	0.111393
C96	C	1.246410	1.138536	0.361393
C97	C	0.527723	0.325929	-0.326612
C98	C	0.777723	0.575929	-0.076612
C99	C	1.027723	0.825929	0.173388
C100	C	1.277723	1.075929	0.423388
C101	C	0.613341	0.326097	-0.326348
C102	C	0.863341	0.576097	-0.076348
C103	C	1.113341	0.826097	0.173652
C104	C	1.363341	1.076097	0.423652
C105	C	0.644793	0.388510	-0.388573
C106	C	0.894793	0.638510	-0.138573
C107	C	1.144793	0.888510	0.111427
C108	C	1.394793	1.138510	0.361427
C109	C	0.613686	0.473447	-0.365354
C110	C	0.863686	0.723447	-0.115354
C111	C	1.113686	0.973447	0.134646
C112	C	1.363686	1.223447	0.384646
C113	C	0.528041	0.473099	-0.364923
C114	C	0.778041	0.723099	-0.114923
C115	C	1.028041	0.973099	0.135077
C116	C	1.278041	1.223099	0.385077
C117	C	0.528024	0.366944	-0.473966
C118	C	0.778024	0.616944	-0.223966
C119	C	1.028024	0.866944	0.026034
C120	C	1.278024	1.116944	0.276034
C121	C	0.613675	0.365053	-0.473500
C122	C	0.863675	0.615053	-0.223500
C123	C	1.113675	0.865053	0.026500
C124	C	1.363675	1.115053	0.276500
C125	C	0.728652	0.388501	-0.388556
C126	C	0.978652	0.638501	-0.138556
C127	C	1.228652	0.888501	0.111444
C128	C	1.478652	1.138501	0.361444
C129	C	0.412551	0.388551	-0.388622
C130	C	0.662551	0.638551	-0.138622
C131	C	0.912551	0.888551	0.111378
C132	C	1.162551	1.138551	0.361378
C133	C	1.263388	0.388546	-0.388623
C134	C	1.513388	0.638546	-0.138623
C135	C	1.763388	0.888546	0.111377
C136	C	2.013388	1.138546	0.361377
C137	C	1.345702	0.388560	-0.388641
C138	C	1.595702	0.638560	-0.138641
C139	C	1.845702	0.888560	0.111359
C140	C	2.095702	1.138560	0.361359
C141	C	1.070316	0.178204	-0.388632
C142	C	1.320316	0.428204	-0.138632
C143	C	1.570316	0.678204	0.111368
C144	C	1.820316	0.928204	0.361368
C145	C	1.070355	0.088583	-0.388654
C146	C	1.320355	0.338583	-0.138654
C147	C	1.570355	0.588583	0.111346
C148	C	1.820355	0.838583	0.361346
C149	C	1.070323	1.015800	-0.388643
C150	C	1.320323	1.265800	-0.138643
C151	C	1.570323	1.515800	0.111357
C152	C	1.820323	1.765800	0.361357
C153	C	1.070284	0.924492	-0.388622
C154	C	1.320284	1.174492	-0.138622
C155	C	1.570284	1.424492	0.111378
C156	C	1.820284	1.674492	0.361378
C157	C	1.070257	0.851715	-0.388600
C158	C	1.320257	1.101715	-0.138600
C159	C	1.570257	1.351715	0.111400
C160	C	1.820257	1.601715	0.361400
C161	C	1.070220	0.760401	-0.388580
C162	C	1.320220	1.010401	-0.138580
C163	C	1.570220	1.260401	0.111420
C164	C	1.820220	1.510401	0.361420
C165	C	1.070329	0.388337	-1.016686
C166	C	1.320329	0.638337	-0.766686
C167	C	1.570329	0.888337	-0.516686
C168	C	1.820329	1.138337	-0.266686
C169	C	1.070317	0.388365	-0.925378
C170	C	1.320317	0.638365	-0.675378
C171	C	1.570317	0.888365	-0.425378
C172	C	1.820317	1.138365	-0.175378
C173	C	1.070312	0.388383	-0.852601
C174	C	1.320312	0.638383	-0.602601
C175	C	1.570312	0.888383	-0.352601
C176	C	1.820312	1.138383	-0.102601
C177	C	1.070300	0.388409	-0.761287
C178	C	1.320300	0.638409	-0.511287
C179	C	1.570300	0.888409	-0.261287
C180	C	1.820300	1.138409	-0.011287
C181	C	1.070220	0.388514	-0.179089
C182	C	1.320220	0.638514	0.070911
C183	C	1.570220	0.888514	0.320911
C184	C	1.820220	1.138514	0.570911
C185	C	1.070343	0.388313	-0.089469
C186	C	1.320343	0.638313	0.160531
C187	C	1.570343	0.888313	0.410531
C188	C	1.820343	1.138313	0.660531
H189	H	0.634374	0.263112	-0.340902
H190	H	0.884374	0.513112	-0.090902
H191	H	1.134374	0.763112	0.159098
H192	H	1.384374	1.013112	0.409098
O193	O	0.500591	0.536983	-0.422116
O194	O	0.750591	0.786983	-0.172116
O195	O	1.000591	1.036983	0.077884
O196	O	1.250591	1.286983	0.327884
H197	H	0.466561	0.508508	-0.469789
H198	H	0.716561	0.758508	-0.219789
H199	H	0.966561	1.008508	0.030211
H200	H	1.216561	1.258508	0.280211
O201	O	0.640668	0.536901	-0.423285
O202	O	0.890668	0.786901	-0.173285
O203	O	1.140668	1.036901	0.076715
O204	O	1.390668	1.286901	0.326715
H205	H	0.676625	0.508505	-0.469348
H206	H	0.926625	0.758505	-0.219348
H207	H	1.176625	1.008505	0.030652
H208	H	1.426625	1.258505	0.280652
O209	O	0.640614	0.282261	-0.496698
O210	O	0.890614	0.532261	-0.246698
O211	O	1.140614	0.782261	0.003302
O212	O	1.390614	1.032261	0.253302
H213	H	0.618382	0.266127	-0.556784
H214	H	0.868382	0.516127	-0.306784
H215	H	1.118382	0.766127	-0.056784
H216	H	1.368382	1.016127	0.193216
O217	O	0.642055	0.498128	-0.283591
O218	O	0.892055	0.748128	-0.033591
O219	O	1.142055	0.998128	0.216409
O220	O	1.392055	1.248128	0.466409
H221	H	0.619685	0.558280	-0.267845
H222	H	0.869685	0.808280	-0.017845
H223	H	1.119685	1.058280	0.232155
H224	H	1.369685	1.308280	0.482155
O225	O	0.642018	0.421074	-0.537957
O226	O	0.892018	0.671074	-0.287957
O227	O	1.142018	0.921074	-0.037957
O228	O	1.392018	1.171074	0.212043
H229	H	0.703239	0.417928	-0.540082
H230	H	0.953239	0.667928	-0.290082
H231	H	1.203239	0.917928	-0.040082
H232	H	1.453239	1.167928	0.209918
H233	H	0.506444	0.306086	-0.495077
H234	H	0.756444	0.556086	-0.245077
H235	H	1.006444	0.806086	0.004923
H236	H	1.256444	1.056086	0.254923
O237	O	0.501196	0.427335	-0.535160
O238	O	0.751196	0.677335	-0.285160
O239	O	1.001196	0.927335	-0.035160
O240	O	1.251196	1.177335	0.214840
H241	H	0.520237	0.488366	-0.517769
H242	H	0.770237	0.738366	-0.267769
H243	H	1.020237	0.988366	-0.017769
H244	H	1.270237	1.238366	0.232231
H245	H	0.633795	0.340370	-0.263097
H246	H	0.883795	0.590370	-0.013097
H247	H	1.133795	0.840370	0.236903
H248	H	1.383795	1.090370	0.486903
O249	O	0.500414	0.242258	-0.345661
O250	O	0.750414	0.492258	-0.095661
O251	O	1.000414	0.742258	0.154339
O252	O	1.250414	0.992258	0.404339
H253	H	0.518819	0.224954	-0.406968
H254	H	0.768819	0.474954	-0.156968
H255	H	1.018819	0.724954	0.093032
H256	H	1.268819	0.974954	0.343032
O257	O	0.499204	0.344629	-0.243309
O258	O	0.749204	0.594629	0.006691
O259	O	0.999204	0.844629	0.256691
O260	O	1.249204	1.094629	0.506691
H261	H	0.462823	0.398319	-0.245868
H262	H	0.712823	0.648319	0.004132
H263	H	0.962823	0.898319	0.254132
H264	H	1.212823	1.148319	0.504132
H265	H	0.508030	0.491410	-0.302521
H266	H	0.758030	0.741410	-0.052521
H267	H	1.008030	0.991410	0.197479
H268	H	1.258030	1.241410	0.447479
