data_functionalizedCrystal
_audit_creation_method	'MofGen! by Chris Wilmer'
_symmetry_space_group_name_H-M	'P1'
_symmetry_Int_Tables_number	1
_symmetry_cell_setting	triclinic
loop_
_symmetry_equiv_pos_as_xyz
  x,y,z
_cell_length_a	14.971482
_cell_length_b	16.974813
_cell_length_c	14.048226
_cell_angle_alpha	86.339005
_cell_angle_beta	89.994098
_cell_angle_gamma	83.503742
loop_
_atom_site_label
_atom_site_type_symbol
_atom_site_fract_x
_atom_site_fract_y
_atom_site_fract_z
O1	O	1.186698	0.103029	-0.087084
O2	O	1.686698	0.603029	0.412916
O3	O	0.926267	0.115372	-0.088039
O4	O	1.426267	0.615372	0.411961
O5	O	1.063743	-0.005897	-0.078690
O6	O	1.563743	0.494103	0.421310
O7	O	1.049223	0.224297	-0.096432
O8	O	1.549223	0.724297	0.403568
O9	O	1.063726	-0.005904	0.079632
O10	O	1.563726	0.494096	0.579632
O11	O	0.926251	0.115365	0.070283
O12	O	1.426251	0.615365	0.570283
O13	O	1.186682	0.103022	0.071238
O14	O	1.686682	0.603022	0.571238
Zn15	Zn	1.056464	0.109192	0.095898
Zn16	Zn	1.556464	0.609192	0.595898
Zn17	Zn	1.056485	0.109202	-0.112698
Zn18	Zn	1.556485	0.609202	0.387302
O19	O	1.049206	0.224290	0.061890
O20	O	1.549206	0.724290	0.561890
C21	C	0.892936	0.114817	-0.008836
C22	C	1.392936	0.614817	0.491164
C23	C	0.793643	0.113164	-0.008710
C24	C	1.293643	0.613164	0.491290
C25	C	0.746991	0.112382	0.077652
C26	C	1.246991	0.612382	0.577652
C27	C	0.653696	0.110817	0.077774
C28	C	1.153696	0.610817	0.577774
C29	C	0.607054	0.110039	-0.008468
C30	C	1.107054	0.610039	0.491532
C31	C	0.653713	0.110819	-0.094837
C32	C	1.153713	0.610819	0.405163
C33	C	0.747006	0.112379	-0.094957
C34	C	1.247006	0.612379	0.405043
C35	C	0.459259	0.107570	-0.094581
C36	C	0.959259	0.607570	0.405419
C37	C	0.365958	0.106012	-0.094461
C38	C	0.865958	0.606012	0.405539
C39	C	0.365948	0.106008	0.078150
C40	C	0.865948	0.606008	0.578150
C41	C	0.459242	0.107568	0.078030
C42	C	0.959242	0.607568	0.578030
C43	C	0.505894	0.108349	-0.008339
C44	C	1.005894	0.608349	0.491661
C45	C	1.063182	-0.035359	0.002739
C46	C	1.563182	0.464641	0.502739
C47	C	1.061525	-0.123138	0.009499
C48	C	1.561525	0.376862	0.509499
C49	C	1.060758	-0.164368	-0.073626
C50	C	1.560758	0.335632	0.426374
C51	C	1.059195	-0.246844	-0.067272
C52	C	1.559195	0.253156	0.432728
C53	C	1.058406	-0.288090	0.022208
C54	C	1.558406	0.211910	0.522208
C55	C	1.059171	-0.246854	0.105339
C56	C	1.559171	0.253146	0.605339
C57	C	1.060727	-0.164378	0.098984
C58	C	1.560727	0.335622	0.598984
C59	C	1.053745	-0.534757	0.050469
C60	C	1.553745	-0.034757	0.550469
C61	C	1.052191	-0.617239	0.056817
C62	C	1.552191	-0.117239	0.556817
C63	C	1.052214	-0.617223	-0.115795
C64	C	1.552214	-0.117223	0.384205
C65	C	1.053775	-0.534746	-0.122142
C66	C	1.553775	-0.034746	0.377858
C67	C	1.054535	-0.493517	-0.039011
C68	C	1.554535	0.006483	0.460989
N69	N	1.056812	-0.372395	0.028705
N70	N	1.556812	0.127605	0.528705
N71	N	1.056123	-0.409213	-0.045509
N72	N	1.556123	0.090787	0.454491
C73	C	1.220013	0.103577	-0.007967
C74	C	1.720013	0.603577	0.492033
C75	C	1.319306	0.105229	-0.008099
C76	C	1.819306	0.605229	0.491901
C77	C	1.049767	0.253753	-0.019542
C78	C	1.549767	0.753753	0.480458
C79	C	1.051424	0.341531	-0.026308
C80	C	1.551424	0.841531	0.473692
N81	N	1.056455	0.109185	0.238259
N82	N	1.556455	0.609185	0.738259
N83	N	1.056501	0.109202	-0.255059
N84	N	1.556501	0.609202	0.244941
C85	C	1.117348	0.055510	0.292215
C86	C	1.617348	0.555510	0.792215
C87	C	1.117354	0.055509	0.391873
C88	C	1.617354	0.555509	0.891873
C89	C	1.056471	0.109189	0.437572
C90	C	1.556471	0.609189	0.937572
C91	C	0.995571	0.162867	0.383609
C92	C	1.495571	0.662867	0.883609
C93	C	0.995562	0.162863	0.283953
C94	C	1.495562	0.662863	0.783953
C95	C	0.995597	0.162872	0.591323
C96	C	1.495597	0.662872	1.091323
C97	C	0.995608	0.162878	0.690985
C98	C	1.495608	0.662878	1.190985
C99	C	1.117390	0.055519	0.699242
C100	C	1.617390	0.555519	1.199242
C101	C	1.117380	0.055515	0.599586
C102	C	1.617380	0.555515	1.099586
C103	C	1.056482	0.109194	0.545630
C104	C	1.556482	0.609194	1.045630
H105	H	0.784959	0.113021	0.147880
H106	H	1.284959	0.613021	0.647880
H107	H	1.054419	-0.501170	-0.195006
H108	H	1.554419	-0.001170	0.304994
Br109	Br	0.912943	0.235721	0.518099
Br110	Br	1.412943	0.735721	1.018099
Br111	Br	1.200015	-0.017328	0.537561
Br112	Br	1.700015	0.482672	1.037561
Br113	Br	0.590384	0.109768	0.194984
Br114	Br	1.090384	0.609768	0.694984
Br115	Br	1.058152	-0.302797	-0.180090
Br116	Br	1.558152	0.197203	0.319910
H117	H	1.166975	0.011812	0.743179
H118	H	1.666975	0.511812	1.243179
H119	H	0.497240	0.108206	-0.164912
H120	H	0.997240	0.608206	0.335088
Br121	Br	0.522540	0.108635	0.195073
Br122	Br	1.022540	0.608635	0.695073
Br123	Br	1.199993	-0.017340	0.465102
Br124	Br	1.699993	0.482660	0.965102
H125	H	0.946029	0.206588	0.728188
H126	H	1.446029	0.706588	1.228188
Br127	Br	1.199987	-0.017340	0.230204
Br128	Br	1.699987	0.482660	0.730204
H129	H	0.945995	0.206571	0.420823
H130	H	1.445995	0.706571	0.920823
H131	H	0.784989	0.113017	-0.165283
H132	H	1.284989	0.613017	0.334717
H133	H	1.061339	-0.130808	0.166673
H134	H	1.561339	0.369192	0.666673
Br135	Br	0.590419	0.109729	-0.211879
Br136	Br	1.090419	0.609729	0.288121
Br137	Br	1.051130	-0.673216	0.178263
Br138	Br	1.551130	-0.173216	0.678263
H139	H	0.945975	0.206570	0.240023
H140	H	1.445975	0.706570	0.740023
H141	H	0.327985	0.105379	-0.164687
H142	H	0.827985	0.605379	0.335313
Br143	Br	0.302636	0.104951	0.195366
Br144	Br	0.802636	0.604951	0.695366
H145	H	1.061405	-0.130792	-0.146491
H146	H	1.561405	0.369208	0.353509
Br147	Br	1.051183	-0.673182	-0.228609
Br148	Br	1.551183	-0.173182	0.271391
H149	H	1.054382	-0.501199	0.118160
H150	H	1.554382	-0.001199	0.618160
Br151	Br	1.058086	-0.302828	0.226778
Br152	Br	1.558086	0.197172	0.726778
