data_functionalizedCrystal
_audit_creation_method	'MofGen! by Chris Wilmer'
_symmetry_space_group_name_H-M	'P1'
_symmetry_Int_Tables_number	1
_symmetry_cell_setting	triclinic
loop_
_symmetry_equiv_pos_as_xyz
  x,y,z
_cell_length_a	13.596369
_cell_length_b	16.109301
_cell_length_c	16.109301
_cell_angle_alpha	83.461481
_cell_angle_beta	90.007411
_cell_angle_gamma	90.002607
loop_
_atom_site_label
_atom_site_type_symbol
_atom_site_fract_x
_atom_site_fract_y
_atom_site_fract_z
O1	O	-0.081732	-1.103133	-0.106869
O2	O	0.168268	-0.853133	0.143131
O3	O	0.418268	-0.603133	0.393131
O4	O	0.668268	-0.353133	0.643131
O5	O	-0.081748	-0.861071	-0.120168
O6	O	0.168252	-0.611071	0.129832
O7	O	0.418252	-0.361071	0.379832
O8	O	0.668252	-0.111071	0.629832
O9	O	-0.081730	-0.988751	0.007513
O10	O	0.168270	-0.738751	0.257513
O11	O	0.418270	-0.488751	0.507513
O12	O	0.668270	-0.238751	0.757513
O13	O	-0.081751	-0.975452	-0.234549
O14	O	0.168249	-0.725452	0.015451
O15	O	0.418249	-0.475452	0.265451
O16	O	0.668249	-0.225452	0.515451
O17	O	0.081853	-0.988739	0.007520
O18	O	0.331853	-0.738739	0.257520
O19	O	0.581853	-0.488739	0.507520
O20	O	0.831853	-0.238739	0.757520
O21	O	0.081835	-0.861058	-0.120161
O22	O	0.331835	-0.611058	0.129839
O23	O	0.581835	-0.361058	0.379839
O24	O	0.831835	-0.111058	0.629839
O25	O	0.081851	-1.103120	-0.106862
O26	O	0.331851	-0.853120	0.143138
O27	O	0.581851	-0.603120	0.393138
O28	O	0.831851	-0.353120	0.643138
Zn29	Zn	0.107815	-0.982087	-0.113510
Zn30	Zn	0.357815	-0.732087	0.136490
Zn31	Zn	0.607815	-0.482087	0.386490
Zn32	Zn	0.857815	-0.232087	0.636490
Zn33	Zn	-0.107713	-0.982104	-0.113519
Zn34	Zn	0.142287	-0.732104	0.136481
Zn35	Zn	0.392287	-0.482104	0.386481
Zn36	Zn	0.642287	-0.232104	0.636481
O37	O	0.081832	-0.975439	-0.234542
O38	O	0.331832	-0.725439	0.015458
O39	O	0.581832	-0.475439	0.265458
O40	O	0.831832	-0.225439	0.515458
C41	C	0.000041	-0.830090	-0.119626
C42	C	0.250041	-0.580090	0.130374
C43	C	0.500041	-0.330090	0.380374
C44	C	0.750041	-0.080090	0.630374
C45	C	0.000035	-0.737794	-0.118011
C46	C	0.250035	-0.487794	0.131989
C47	C	0.500035	-0.237794	0.381989
C48	C	0.750035	0.012206	0.631989
N49	N	0.254907	-0.982082	-0.113504
N50	N	0.504907	-0.732082	0.136496
N51	N	0.754907	-0.482082	0.386496
N52	N	1.004907	-0.232082	0.636496
N53	N	-0.254805	-0.982116	-0.113519
N54	N	-0.004805	-0.732116	0.136481
N55	N	0.245195	-0.482116	0.386481
N56	N	0.495195	-0.232116	0.636481
C57	C	0.656198	-0.982103	-0.113520
C58	C	0.906198	-0.732103	0.136480
C59	C	1.156198	-0.482103	0.386480
C60	C	1.406198	-0.232103	0.636480
C61	C	0.544546	-0.982094	-0.113518
C62	C	0.794546	-0.732094	0.136482
C63	C	1.044546	-0.482094	0.386482
C64	C	1.294546	-0.232094	0.636482
C65	C	0.455556	-0.982093	-0.113513
C66	C	0.705556	-0.732093	0.136487
C67	C	0.955556	-0.482093	0.386487
C68	C	1.205556	-0.232093	0.636487
C69	C	0.343897	-0.982083	-0.113510
C70	C	0.593897	-0.732083	0.136490
C71	C	0.843897	-0.482083	0.386490
C72	C	1.093897	-0.232083	0.636490
C73	C	0.000062	-0.988206	0.038491
C74	C	0.250062	-0.738206	0.288491
C75	C	0.500062	-0.488206	0.538491
C76	C	0.750062	-0.238206	0.788491
C77	C	0.000063	-0.986591	0.130786
C78	C	0.250063	-0.736591	0.380786
C79	C	0.500063	-0.486591	0.630786
C80	C	0.750063	-0.236591	0.880786
C81	C	0.000059	-1.134101	-0.107404
C82	C	0.250059	-0.884101	0.142596
C83	C	0.500059	-0.634101	0.392596
C84	C	0.750059	-0.384101	0.642596
C85	C	0.000058	-1.226397	-0.109019
C86	C	0.250058	-0.976397	0.140981
C87	C	0.500058	-0.726397	0.390981
C88	C	0.750058	-0.476397	0.640981
C89	C	0.000041	-0.515522	-0.190018
C90	C	0.250041	-0.265522	0.059982
C91	C	0.500041	-0.015522	0.309982
C92	C	0.750041	0.234478	0.559982
C93	C	0.000047	-0.428801	-0.188494
C94	C	0.250047	-0.178801	0.061506
C95	C	0.500047	0.071199	0.311506
C96	C	0.750047	0.321199	0.561506
C97	C	0.000056	-0.448676	-0.037006
C98	C	0.250056	-0.198676	0.212994
C99	C	0.500056	0.051324	0.462994
C100	C	0.750056	0.301324	0.712994
C101	C	0.000057	-0.535394	-0.038530
C102	C	0.250057	-0.285394	0.211470
C103	C	0.500057	-0.035394	0.461470
C104	C	0.750057	0.214606	0.711470
C105	C	0.000044	-0.568815	-0.115039
C106	C	0.250044	-0.318815	0.134961
C107	C	0.500044	-0.068815	0.384961
C108	C	0.750044	0.181185	0.634961
C109	C	0.000050	-0.395376	-0.111990
C110	C	0.250050	-0.145376	0.138010
C111	C	0.500050	0.104624	0.388010
C112	C	0.750050	0.354624	0.638010
C113	C	0.000057	-0.301350	-0.110337
C114	C	0.250057	-0.051350	0.139663
C115	C	0.500057	0.198650	0.389663
C116	C	0.750057	0.448650	0.639663
C117	C	0.000039	-0.662847	-0.116693
C118	C	0.250039	-0.412847	0.133307
C119	C	0.500039	-0.162847	0.383307
C120	C	0.750039	0.087153	0.633307
C121	C	0.000038	-0.975984	-0.265521
C122	C	0.250038	-0.725984	-0.015521
C123	C	0.500038	-0.475984	0.234479
C124	C	0.750038	-0.225984	0.484479
C125	C	0.000030	-0.977600	-0.357816
C126	C	0.250030	-0.727600	-0.107816
C127	C	0.500030	-0.477600	0.142184
C128	C	0.750030	-0.227600	0.392184
C129	C	0.000052	-1.058599	0.353059
C130	C	0.250052	-0.808599	0.603059
C131	C	0.500052	-0.558599	0.853059
C132	C	0.750052	-0.308599	1.103059
C133	C	0.000044	-1.057075	0.439779
C134	C	0.250044	-0.807075	0.689779
C135	C	0.500044	-0.557075	0.939779
C136	C	0.750044	-0.307075	1.189779
C137	C	0.000038	-0.905586	0.419905
C138	C	0.250038	-0.655586	0.669905
C139	C	0.500038	-0.405586	0.919905
C140	C	0.750038	-0.155586	1.169905
C141	C	0.000039	-0.907111	0.333186
C142	C	0.250039	-0.657111	0.583186
C143	C	0.500039	-0.407111	0.833186
C144	C	0.750039	-0.157111	1.083186
C145	C	0.000051	-0.983620	0.299766
C146	C	0.250051	-0.733620	0.549766
C147	C	0.500051	-0.483620	0.799766
C148	C	0.750051	-0.233620	1.049766
C149	C	0.000042	-0.980571	0.473205
C150	C	0.250042	-0.730571	0.723205
C151	C	0.500042	-0.480571	0.973205
C152	C	0.750042	-0.230571	1.223205
C153	C	0.000033	-0.978918	0.567231
C154	C	0.250033	-0.728918	0.817231
C155	C	0.500033	-0.478918	1.067231
C156	C	0.750033	-0.228918	1.317231
C157	C	0.000058	-0.985273	0.205734
C158	C	0.250058	-0.735273	0.455734
C159	C	0.500058	-0.485273	0.705734
C160	C	0.750058	-0.235273	0.955734
H161	H	0.000046	-0.385413	-0.249550
H162	H	0.250046	-0.135413	0.000450
H163	H	0.500046	0.114587	0.250450
H164	H	0.750046	0.364587	0.500450
H165	H	0.000062	-0.578788	0.022530
H166	H	0.250062	-0.328788	0.272530
H167	H	0.500062	-0.078788	0.522530
H168	H	0.750062	0.171212	0.772530
C169	C	0.000057	-0.411910	0.047147
C170	C	0.250057	-0.161910	0.297147
C171	C	0.500057	0.088090	0.547147
C172	C	0.750057	0.338090	0.797147
H173	H	0.000046	-0.352630	0.037318
H174	H	0.250046	-0.102630	0.287318
H175	H	0.500046	0.147370	0.537318
H176	H	0.750046	0.397370	0.787318
H177	H	0.057102	-0.430201	0.078026
H178	H	0.307102	-0.180201	0.328026
H179	H	0.557102	0.069799	0.578026
H180	H	0.807102	0.319799	0.828026
H181	H	-0.056995	-0.430209	0.078010
H182	H	0.193005	-0.180209	0.328010
H183	H	0.443005	0.069791	0.578010
H184	H	0.693005	0.319791	0.828010
H185	H	0.000030	-0.843295	0.447127
H186	H	0.250030	-0.593295	0.697127
H187	H	0.500030	-0.343295	0.947127
H188	H	0.750030	-0.093295	1.197127
H189	H	0.000060	-1.120897	0.325851
H190	H	0.250060	-0.870897	0.575851
H191	H	0.500060	-0.620897	0.825851
H192	H	0.750060	-0.370897	1.075851
C193	C	0.000052	-1.139552	0.498398
C194	C	0.250052	-0.889552	0.748398
C195	C	0.500052	-0.639552	0.998398
C196	C	0.750052	-0.389552	1.248398
H197	H	0.000066	-1.185333	0.466071
H198	H	0.250066	-0.935333	0.716071
H199	H	0.500066	-0.685333	0.966071
H200	H	0.750066	-0.435333	1.216071
H201	H	-0.056994	-1.142114	0.532634
H202	H	0.193006	-0.892114	0.782634
H203	H	0.443006	-0.642114	1.032634
H204	H	0.693006	-0.392114	1.282634
H205	H	0.057103	-1.142100	0.532646
H206	H	0.307103	-0.892100	0.782646
H207	H	0.557103	-0.642100	1.032646
H208	H	0.807103	-0.392100	1.282646
C209	C	0.000041	-0.824630	0.274560
C210	C	0.250041	-0.574630	0.524560
C211	C	0.500041	-0.324630	0.774560
C212	C	0.750041	-0.074630	1.024560
H213	H	0.000048	-0.778846	0.306882
H214	H	0.250048	-0.528846	0.556882
H215	H	0.500048	-0.278846	0.806882
H216	H	0.750048	-0.028846	1.056882
H217	H	-0.057003	-0.822080	0.240311
H218	H	0.192997	-0.572080	0.490311
H219	H	0.442997	-0.322080	0.740311
H220	H	0.692997	-0.072080	0.990311
H221	H	0.057094	-0.822077	0.240326
H222	H	0.307094	-0.572077	0.490326
H223	H	0.557094	-0.322077	0.740326
H224	H	0.807094	-0.072077	0.990326
C225	C	0.000034	-0.552286	-0.274172
C226	C	0.250034	-0.302286	-0.024172
C227	C	0.500034	-0.052286	0.225828
C228	C	0.750034	0.197714	0.475828
H229	H	0.000026	-0.611566	-0.264344
H230	H	0.250026	-0.361566	-0.014344
H231	H	0.500026	-0.111566	0.235656
H232	H	0.750026	0.138434	0.485656
H233	H	0.057078	-0.533990	-0.305040
H234	H	0.307078	-0.283990	-0.055040
H235	H	0.557078	-0.033990	0.194960
H236	H	0.807078	0.216010	0.444960
H237	H	-0.057019	-0.533992	-0.305045
H238	H	0.192981	-0.283992	-0.055045
H239	H	0.442981	-0.033992	0.194955
H240	H	0.692981	0.216008	0.444955
