data_functionalizedCrystal
_audit_creation_method	'MofGen! by Chris Wilmer'
_symmetry_space_group_name_H-M	'P1'
_symmetry_Int_Tables_number	1
_symmetry_cell_setting	triclinic
loop_
_symmetry_equiv_pos_as_xyz
  x,y,z
_cell_length_a	19.188931
_cell_length_b	10.654550
_cell_length_c	9.730223
_cell_angle_alpha	90.000193
_cell_angle_beta	90.001336
_cell_angle_gamma	96.185158
loop_
_atom_site_label
_atom_site_type_symbol
_atom_site_fract_x
_atom_site_fract_y
_atom_site_fract_z
O1	O	0.927166	-0.156774	-0.114237
O2	O	0.723993	-0.177880	-0.114250
O3	O	0.830251	0.015511	-0.114238
O4	O	0.820908	-0.350165	-0.114249
O5	O	0.830250	0.015506	0.114342
O6	O	0.723992	-0.177885	0.114330
O7	O	0.927165	-0.156779	0.114343
Zn8	Zn	0.825578	-0.167333	0.150628
Zn9	Zn	0.825580	-0.167326	-0.150536
O10	O	0.820907	-0.350170	0.114331
C11	C	0.697977	-0.177199	0.000038
C12	C	0.620459	-0.175147	0.000033
C13	C	0.953181	-0.157460	0.000052
C14	C	1.030699	-0.159512	0.000048
C15	C	0.829564	0.062292	0.000050
C16	C	0.827512	0.201692	0.000045
C17	C	1.074881	-0.046037	0.000039
C18	C	1.147717	-0.047964	0.000047
C19	C	1.176368	-0.163374	0.000036
C20	C	1.132177	-0.276864	0.000053
C21	C	1.059342	-0.274933	0.000058
N22	N	1.284941	-0.251588	-0.077779
N23	N	1.354131	-0.253415	-0.077787
C24	C	1.395815	-0.169198	0.000023
N25	N	1.365696	-0.083066	0.077824
N26	N	1.296500	-0.081236	0.077826
C27	C	1.255345	-0.165480	0.000031
C28	C	1.518975	-0.057804	0.000025
C29	C	1.591813	-0.059737	0.000042
C30	C	1.576271	-0.288640	0.000033
C31	C	1.503435	-0.286704	0.000030
C32	C	1.474792	-0.171283	0.000020
C33	C	0.821593	-0.396951	0.000040
C34	C	0.823646	-0.536351	0.000036
N35	N	0.825582	-0.167336	0.356165
C36	C	0.890075	0.282501	0.000053
C37	C	0.888142	0.413481	0.000044
C38	C	0.761078	0.382829	0.000023
C39	C	0.763011	0.251852	0.000023
C40	C	0.954575	0.232341	0.000075
C41	C	1.017143	0.313152	0.000085
C42	C	1.015211	0.444132	0.000075
C43	C	0.950710	0.494301	0.000056
N44	N	0.825581	-0.167313	-0.356072
C45	C	0.872645	-0.081732	0.428096
C46	C	0.872643	-0.081716	0.571979
C47	C	0.778513	-0.252922	0.571987
C48	C	0.778512	-0.252930	0.428106
C49	C	0.919715	0.003862	0.356155
C50	C	0.966783	0.089473	0.428086
C51	C	0.966781	0.089488	0.571969
C52	C	0.919712	0.003893	0.643920
H53	H	1.051564	0.047948	0.000035
C54	C	1.454830	-0.411531	0.000026
C55	C	1.486340	-0.538482	0.000018
C56	C	1.437735	-0.663315	0.000021
C57	C	1.357619	-0.661197	0.000031
C58	C	1.326104	-0.534240	0.000039
C59	C	1.374710	-0.409407	0.000036
H60	H	1.545650	-0.540055	0.000010
H61	H	1.461064	-0.757296	0.000015
H62	H	1.321638	-0.753606	0.000033
H63	H	1.266794	-0.532668	0.000047
H64	H	1.351380	-0.315426	0.000042
H65	H	1.183697	0.044444	0.000036
H66	H	0.949141	0.600955	0.000033
C67	C	1.088091	0.257971	0.000101
C68	C	1.106891	0.172152	0.118806
C69	C	1.177841	0.116974	0.118820
C70	C	1.229989	0.147616	0.000128
C71	C	1.211190	0.233440	-0.118587
C72	C	1.140241	0.288618	-0.118600
H73	H	1.068287	0.149465	0.206677
H74	H	1.191757	0.053441	0.206700
H75	H	1.282510	0.106770	0.000138
H76	H	1.249795	0.256127	-0.206457
H77	H	1.126325	0.352151	-0.206481
C78	C	0.726744	-0.347081	0.651128
C79	C	0.726837	-0.347241	0.809391
C80	C	0.675069	-0.441406	0.888529
C81	C	0.623209	-0.535410	0.809406
C82	C	0.623114	-0.535253	0.651134
C83	C	0.674881	-0.441088	0.571996
H84	H	0.765229	-0.277651	0.867971
H85	H	0.675140	-0.441522	1.005693
H86	H	0.584887	-0.605117	0.867989
H87	H	0.584722	-0.604844	0.592554
H88	H	0.674811	-0.440973	0.454832
H89	H	1.005102	0.159169	0.369496
H90	H	1.155509	-0.370831	0.000047
H91	H	0.712067	0.186054	0.000018
H92	H	0.708564	0.423688	0.000009
H93	H	1.023369	-0.367341	0.000066
H94	H	1.495653	0.036178	0.000022
H95	H	1.627785	0.032673	0.000044
H96	H	0.919723	0.003855	0.238998
H97	H	1.599598	-0.382608	0.000033
H98	H	0.956156	0.125693	0.000088
H99	H	1.066157	0.509926	0.000069
H100	H	1.005101	0.159204	0.630534
H101	H	0.919709	0.003921	0.761080
H102	H	0.740188	-0.322636	0.369539
