data_functionalizedCrystal
_audit_creation_method	'MofGen! by Chris Wilmer'
_symmetry_space_group_name_H-M	'P1'
_symmetry_Int_Tables_number	1
_symmetry_cell_setting	triclinic
loop_
_symmetry_equiv_pos_as_xyz
  x,y,z
_cell_length_a	16.625546
_cell_length_b	18.215407
_cell_length_c	18.215398
_cell_angle_alpha	90.016530
_cell_angle_beta	90.026650
_cell_angle_gamma	90.019927
loop_
_atom_site_label
_atom_site_type_symbol
_atom_site_fract_x
_atom_site_fract_y
_atom_site_fract_z
Zn1	Zn	-0.321085	1.125082	0.416052
Zn2	Zn	-0.455919	1.124996	0.292983
Zn3	Zn	-0.321098	1.002015	0.293006
Zn4	Zn	-0.455873	1.001985	0.416014
O5	O	-0.388494	1.063519	0.354514
O6	O	-0.338984	1.228054	0.399733
O7	O	-0.438060	1.108659	0.190002
O8	O	-0.208264	1.018388	0.309353
O9	O	-0.438047	1.227992	0.309315
O10	O	-0.208254	1.108805	0.399755
O11	O	-0.339007	1.018305	0.190018
O12	O	-0.338963	0.899027	0.309317
O13	O	-0.437968	1.018338	0.519004
O14	O	-0.437981	0.899005	0.399691
O15	O	-0.338940	1.108776	0.519031
O16	O	-0.568745	1.108630	0.309278
O17	O	-0.568712	1.018255	0.399669
C18	C	-0.388469	0.872313	0.354502
C19	C	-0.388478	0.790514	0.354515
C20	C	-0.440137	0.525465	0.401507
C21	C	-0.440130	0.602323	0.401503
C22	C	-0.336868	0.602316	0.307534
C23	C	-0.336880	0.525458	0.307534
C24	C	-0.388513	0.487035	0.354525
C25	C	-0.388495	0.640751	0.354521
C26	C	-0.388487	0.724084	0.354517
C27	C	-0.388522	0.403696	0.354528
C28	C	-0.597985	1.063450	0.354483
C29	C	-0.687606	1.063487	0.354494
C30	C	-1.015781	1.063616	0.354571
C31	C	-0.924473	1.063578	0.354552
C32	C	-0.851696	1.063551	0.354532
C33	C	-0.760382	1.063514	0.354514
C34	C	-0.178185	1.063609	0.354561
C35	C	-0.088564	1.063648	0.354581
C36	C	-0.388447	1.063563	0.546467
C37	C	-0.388428	1.063582	0.628266
C38	C	-0.388519	1.255472	0.354526
C39	C	-0.388530	1.337271	0.354531
C40	C	-0.388482	1.063518	0.163307
C41	C	-0.388274	1.063642	0.081509
C42	C	-0.439905	1.110662	0.893319
C43	C	-0.439933	1.110651	0.816460
C44	C	-0.336795	1.016556	0.816461
C45	C	-0.336772	1.016565	0.893318
C46	C	-0.388325	1.063622	0.931745
C47	C	-0.388377	1.063602	0.778029
C48	C	-0.388407	1.063590	0.694696
C49	C	-0.388297	1.063633	1.015084
H50	H	-0.294829	0.633609	0.269276
C51	C	-0.495963	1.161807	0.774873
C52	C	-0.541089	1.203029	0.824979
C53	C	-0.592707	1.250169	0.786697
H54	H	-0.531176	1.133722	0.744879
H55	H	-0.465147	1.193919	0.744916
H56	H	-0.571902	1.170921	0.854924
H57	H	-0.505897	1.231128	0.854975
H58	H	-0.561892	1.282281	0.756740
H59	H	-0.627915	1.222078	0.756704
H60	H	-0.623326	1.278148	0.820688
C61	C	-0.496145	0.644180	0.452437
C62	C	-0.485103	0.719713	0.442368
C63	C	-0.536699	0.758293	0.489271
H64	H	-0.484462	0.631690	0.501932
H65	H	-0.550325	0.631611	0.441578
H66	H	-0.430935	0.732276	0.453233
H67	H	-0.496792	0.732225	0.392883
H68	H	-0.590880	0.745725	0.478411
H69	H	-0.525012	0.745797	0.538762
H70	H	-0.529220	0.809546	0.482441
C71	C	-0.280849	0.965554	0.774605
C72	C	-0.291891	0.975630	0.699072
C73	C	-0.240356	0.928667	0.660494
H74	H	-0.292589	0.916074	0.787100
H75	H	-0.226654	0.976355	0.787172
H76	H	-0.346073	0.964824	0.686510
H77	H	-0.280144	1.025100	0.686556
H78	H	-0.186161	0.939468	0.673060
H79	H	-0.252101	0.879189	0.672994
H80	H	-0.247836	0.935501	0.609241
H81	H	-0.294840	0.494168	0.269272
H82	H	-0.481884	1.148978	0.924604
H83	H	-0.482181	0.494182	0.439769
H84	H	-0.294769	0.978255	0.924606
