data_functionalizedCrystal
_audit_creation_method	'MofGen! by Chris Wilmer'
_symmetry_space_group_name_H-M	'P1'
_symmetry_Int_Tables_number	1
_symmetry_cell_setting	triclinic
loop_
_symmetry_equiv_pos_as_xyz
  x,y,z
_cell_length_a	11.169417
_cell_length_b	8.497374
_cell_length_c	11.169416
_cell_angle_alpha	89.994900
_cell_angle_beta	90.009278
_cell_angle_gamma	89.997930
loop_
_atom_site_label
_atom_site_type_symbol
_atom_site_fract_x
_atom_site_fract_y
_atom_site_fract_z
Zn1	Zn	-1.834730	0.892007	0.478049
Zn2	Zn	-1.334730	1.392007	0.978049
Zn3	Zn	-1.834688	0.628226	0.678699
Zn4	Zn	-1.334688	1.128226	1.178699
Zn5	Zn	-1.634085	0.628233	0.478025
Zn6	Zn	-1.134085	1.128233	0.978025
Zn7	Zn	-1.634023	0.891955	0.678685
Zn8	Zn	-1.134023	1.391955	1.178685
O9	O	-1.734381	0.760105	0.578365
O10	O	-1.234381	1.260105	1.078365
O11	O	-2.002674	0.857035	0.504682
O12	O	-1.502674	1.357035	1.004682
O13	O	-1.808086	0.407464	0.652076
O14	O	-1.308086	0.907464	1.152076
O15	O	-1.660744	0.663248	0.310079
O16	O	-1.160744	1.163248	0.810079
O17	O	-2.002643	0.663235	0.652099
O18	O	-1.502643	1.163235	1.152099
O19	O	-1.808157	0.857042	0.310096
O20	O	-1.308157	1.357042	0.810096
O21	O	-1.660703	0.407470	0.504641
O22	O	-1.160703	0.907470	1.004641
O23	O	-1.466127	0.663198	0.504627
O24	O	-0.966127	1.163198	1.004627
O25	O	-1.660639	1.112725	0.652075
O26	O	-1.160639	1.612725	1.152075
O27	O	-1.466082	0.856953	0.652051
O28	O	-0.966082	1.356953	1.152051
O29	O	-1.808098	1.112763	0.504668
O30	O	-1.308098	1.612763	1.004668
O31	O	-1.808026	0.663185	0.846647
O32	O	-1.308026	1.163185	1.346647
O33	O	-1.660599	0.856946	0.846637
O34	O	-1.160599	1.356946	1.346637
C35	C	-1.422557	0.760072	0.578336
C36	C	-0.922557	1.260072	1.078336
C37	C	-1.289157	0.760095	0.578353
C38	C	-0.789157	1.260095	1.078353
C39	C	-1.047424	0.760127	0.578384
C40	C	-0.547424	1.260127	1.078384
C41	C	-1.180824	0.760105	0.578367
C42	C	-0.680824	1.260105	1.078367
C43	C	-1.734373	1.171586	0.578367
C44	C	-1.234373	1.671586	1.078367
C45	C	-1.734375	1.350230	0.578379
C46	C	-1.234375	1.850230	1.078379
C47	C	-1.734334	0.760093	0.890190
C48	C	-1.234334	1.260093	1.390190
C49	C	-1.734423	0.760141	1.023589
C50	C	-1.234423	1.260141	1.523589
C51	C	-1.734462	0.760152	0.265322
C52	C	-1.234462	1.260152	0.765322
C53	C	-1.734496	0.760172	0.131922
C54	C	-1.234496	1.260172	0.631922
