data_functionalizedCrystal
_audit_creation_method	'MofGen! by Chris Wilmer'
_symmetry_space_group_name_H-M	'P1'
_symmetry_Int_Tables_number	1
_symmetry_cell_setting	triclinic
loop_
_symmetry_equiv_pos_as_xyz
  x,y,z
_cell_length_a	10.654545
_cell_length_b	19.188924
_cell_length_c	9.130313
_cell_angle_alpha	89.993420
_cell_angle_beta	89.996934
_cell_angle_gamma	83.812522
loop_
_atom_site_label
_atom_site_type_symbol
_atom_site_fract_x
_atom_site_fract_y
_atom_site_fract_z
O1	O	1.665764	0.098047	-0.121792
O2	O	1.300086	0.107393	-0.121799
O3	O	1.493482	0.001133	-0.121778
O4	O	1.472368	0.204307	-0.121813
O5	O	1.493469	0.001130	0.121821
O6	O	1.300073	0.107390	0.121800
O7	O	1.665751	0.098044	0.121807
Cu8	Cu	1.482911	0.102717	0.144046
Cu9	Cu	1.482926	0.102720	-0.144038
O10	O	1.472355	0.204304	0.121786
C11	C	1.253296	0.106706	-0.000000
C12	C	1.113896	0.104655	-0.000002
C13	C	1.048405	0.103688	0.132784
C14	C	0.917427	0.101749	0.132785
C15	C	0.917442	0.101748	-0.132800
C16	C	1.048419	0.103681	-0.132799
C17	C	1.492793	-0.024884	0.000023
C18	C	1.490745	-0.102402	0.000026
C19	C	1.489796	-0.138806	-0.132760
C20	C	1.487854	-0.211641	-0.132771
C21	C	1.486886	-0.248072	0.000012
C22	C	1.487828	-0.211659	0.132815
C23	C	1.489757	-0.138824	0.132823
N24	N	1.555313	-0.367289	0.098840
N25	N	1.553483	-0.436480	0.098824
C26	C	1.481069	-0.467519	-0.000003
N27	N	1.410570	-0.426755	-0.098835
N28	N	1.412407	-0.357559	-0.098823
C29	C	1.484792	-0.327049	0.000018
C30	C	1.478012	-0.582899	-0.132810
C31	C	1.476062	-0.655735	-0.132816
C32	C	1.476048	-0.655753	0.132774
C33	C	1.477986	-0.582917	0.132776
C34	C	1.478974	-0.546495	-0.000020
C35	C	1.712541	0.098731	0.000005
C36	C	1.851941	0.100782	-0.000003
C37	C	1.473044	0.230321	-0.000018
C38	C	1.475092	0.307839	-0.000032
N39	N	1.482909	0.102714	0.346668
N40	N	1.482938	0.102718	-0.346661
C41	C	1.568573	0.055682	0.423329
C42	C	1.568585	0.055682	0.576666
C43	C	1.397265	0.149752	0.576667
C44	C	1.397248	0.149748	0.423333
H45	H	0.864114	0.100956	-0.240918
H46	H	1.327484	0.188047	0.360912
H47	H	1.101713	0.104480	0.240916
C48	C	0.716649	0.098770	0.250712
C49	C	0.845438	0.100681	0.278747
H50	H	0.672211	0.098104	0.340829
H51	H	0.685378	0.139093	0.196159
H52	H	0.705015	0.057809	0.196154
H53	H	0.857073	0.141645	0.333297
H54	H	0.876718	0.060354	0.333324
C55	C	1.372324	-0.493624	-0.286881
C56	C	1.479118	-0.542847	-0.278760
H57	H	1.373023	-0.468895	-0.376977
H58	H	1.298357	-0.517057	-0.281410
H59	H	1.373179	-0.461529	-0.207771
H60	H	1.478258	-0.574945	-0.357864
H61	H	1.553104	-0.519412	-0.284245
C62	C	1.737935	-0.037295	0.561253
C63	C	1.662755	0.003986	0.660932
H64	H	1.796078	-0.069208	0.613278
H65	H	1.685805	-0.062681	0.501470
H66	H	1.782926	-0.007989	0.501426
H67	H	1.617757	-0.025320	0.720752
H68	H	1.714893	0.029374	0.720741
H69	H	1.101744	0.104467	-0.240936
H70	H	1.475250	-0.685413	0.240889
H71	H	1.638322	0.017383	0.360912
C72	C	1.489613	-0.146110	-0.395282
C73	C	1.490862	-0.098770	-0.278728
H74	H	1.490260	-0.121390	-0.485394
H75	H	1.562073	-0.179486	-0.389759
H76	H	1.415643	-0.169550	-0.389748
H77	H	1.564837	-0.075333	-0.284255
H78	H	1.418395	-0.065381	-0.284253
H79	H	1.487074	-0.241286	-0.240905
H80	H	1.475283	-0.685373	-0.240950
C81	C	1.477804	-0.590254	0.395290
C82	C	1.479056	-0.542899	0.278741
H83	H	1.478473	-0.565548	0.485405
H84	H	1.403838	-0.613686	0.389771
H85	H	1.550268	-0.623638	0.389747
H86	H	1.406588	-0.509519	0.284278
H87	H	1.553030	-0.519456	0.284263
C88	C	1.179650	0.189620	0.623927
C89	C	1.303114	0.201451	0.660949
H90	H	1.121527	0.221536	0.675966
H91	H	1.167384	0.196353	0.521648
H92	H	1.166302	0.142950	0.649082
H93	H	1.316466	0.248120	0.635784
H94	H	1.315385	0.194724	0.763250
H95	H	1.490525	-0.109185	0.240956
C96	C	1.484874	-0.323320	0.250727
C97	C	1.486762	-0.251701	0.278773
H98	H	1.484219	-0.348038	0.340840
H99	H	1.411355	-0.330277	0.196168
H100	H	1.557784	-0.340216	0.196170
H101	H	1.413847	-0.234803	0.333321
H102	H	1.560290	-0.244739	0.333355
