data_functionalizedCrystal
_audit_creation_method	'MofGen! by Chris Wilmer'
_symmetry_space_group_name_H-M	'P1'
_symmetry_Int_Tables_number	1
_symmetry_cell_setting	triclinic
loop_
_symmetry_equiv_pos_as_xyz
  x,y,z
_cell_length_a	13.897449
_cell_length_b	12.594516
_cell_length_c	13.897441
_cell_angle_alpha	89.973623
_cell_angle_beta	89.979267
_cell_angle_gamma	90.017332
loop_
_atom_site_label
_atom_site_type_symbol
_atom_site_fract_x
_atom_site_fract_y
_atom_site_fract_z
Zn1	Zn	1.474714	-0.423672	-0.545409
Zn2	Zn	1.474612	-0.601683	-0.384123
Zn3	Zn	1.313403	-0.423722	-0.384128
Zn4	Zn	1.313389	-0.601613	-0.545375
O5	O	1.394029	-0.512672	-0.464759
O6	O	1.609682	-0.447293	-0.524027
O7	O	1.453191	-0.578126	-0.249142
O8	O	1.334849	-0.274770	-0.405539
O9	O	1.609607	-0.578077	-0.405530
O10	O	1.453364	-0.274733	-0.524032
O11	O	1.334751	-0.447380	-0.249145
O12	O	1.178419	-0.447312	-0.405506
O13	O	1.334826	-0.577958	-0.680362
O14	O	1.178409	-0.578007	-0.523973
O15	O	1.453350	-0.447226	-0.680387
O16	O	1.453177	-0.750619	-0.405497
O17	O	1.334728	-0.750568	-0.523968
C18	C	1.143415	-0.512658	-0.464737
C19	C	1.036201	-0.512678	-0.464750
C20	C	0.839906	-0.512682	-0.464776
C21	C	0.949139	-0.512676	-0.464759
C22	C	1.393966	-0.789213	-0.464749
C23	C	1.394027	-0.907519	-0.464778
C24	C	1.329596	-0.976783	-0.529169
C25	C	1.306093	-1.047649	-0.441152
C26	C	1.417619	-1.047452	-0.552810
C27	C	1.370477	-0.976827	-0.376714
C28	C	1.482044	-0.976623	-0.488431
C29	C	1.458574	-1.047457	-0.400353
C30	C	1.645622	-0.512687	-0.464781
C31	C	1.752836	-0.512694	-0.464791
C32	C	1.394098	-0.512578	-0.716352
C33	C	1.394127	-0.512538	-0.823566
C34	C	1.394119	-0.235052	-0.464789
C35	C	1.394157	-0.116746	-0.464802
C36	C	1.394153	-0.512466	-1.019861
C37	C	1.394136	-0.512509	-0.910629
C38	C	1.394017	-0.512689	-0.214145
C39	C	1.394174	-0.512430	-0.106931
H40	H	1.275011	-0.945749	-0.583543
H41	H	1.513117	-1.078294	-0.345847
C42	C	1.205615	-1.089795	-0.414128
C43	C	1.160601	-1.060398	-0.316444
C44	C	1.060121	-1.102536	-0.289428
C45	C	1.004655	-1.174072	-0.360096
C46	C	1.049669	-1.203474	-0.457786
C47	C	1.150149	-1.161335	-0.484802
H48	H	1.201661	-1.007439	-0.264126
H49	H	1.026799	-1.080771	-0.217111
H50	H	0.930273	-1.205266	-0.340097
H51	H	1.008609	-1.256432	-0.510104
H52	H	1.183471	-1.183100	-0.557120
H53	H	1.350490	-0.945932	-0.302256
H54	H	1.556401	-0.945405	-0.508459
C55	C	1.444510	-1.089364	-0.653366
C56	C	1.381395	-1.061450	-0.740840
C57	C	1.408277	-1.103360	-0.841399
C58	C	1.498275	-1.173183	-0.854483
C59	C	1.561396	-1.201100	-0.767006
C60	C	1.534514	-1.159191	-0.666448
H61	H	1.314768	-1.009760	-0.731157
H62	H	1.361549	-1.082693	-0.906154
H63	H	1.518174	-1.204206	-0.928922
H64	H	1.628023	-1.252791	-0.776689
H65	H	1.581241	-1.179858	-0.601692
