data_functionalizedCrystal
_audit_creation_method	'MofGen! by Chris Wilmer'
_symmetry_space_group_name_H-M	'P1'
_symmetry_Int_Tables_number	1
_symmetry_cell_setting	triclinic
loop_
_symmetry_equiv_pos_as_xyz
  x,y,z
_cell_length_a	14.044191
_cell_length_b	14.044190
_cell_length_c	7.681481
_cell_angle_alpha	83.728840
_cell_angle_beta	96.250963
_cell_angle_gamma	93.191777
loop_
_atom_site_label
_atom_site_type_symbol
_atom_site_fract_x
_atom_site_fract_y
_atom_site_fract_z
O1	O	1.268918	0.238473	-0.146383
O2	O	1.768918	0.738473	0.353617
O3	O	0.992245	0.230162	-0.146404
O4	O	1.492245	0.730162	0.353596
O5	O	1.126427	0.095979	-0.146359
O6	O	1.626427	0.595979	0.353641
O7	O	1.134736	0.372656	-0.146428
O8	O	1.634736	0.872656	0.353572
O9	O	1.142939	0.079423	0.146504
O10	O	1.642939	0.579423	0.646504
O11	O	1.008757	0.213605	0.146459
O12	O	1.508757	0.713605	0.646459
O13	O	1.285431	0.221917	0.146480
O14	O	1.785431	0.721917	0.646480
Zn15	Zn	1.149715	0.215132	0.192968
Zn16	Zn	1.649715	0.715132	0.692968
Zn17	Zn	1.127960	0.236946	-0.192892
Zn18	Zn	1.627960	0.736946	0.307108
O19	O	1.151248	0.356099	0.146435
O20	O	1.651248	0.856099	0.646435
C21	C	1.131047	0.052079	0.000077
C22	C	1.631047	0.552079	0.500077
C23	C	1.120200	-0.054065	0.000092
C24	C	1.620200	0.445935	0.500092
C25	C	0.964879	0.218247	0.000026
C26	C	1.464879	0.718247	0.500026
C27	C	0.858735	0.207400	0.000019
C28	C	1.358735	0.707400	0.500019
C29	C	1.177297	-0.299519	0.000027
C30	C	1.677297	0.200481	0.500027
C31	C	1.100381	-0.248396	0.000034
C32	C	1.600381	0.251604	0.500034
C33	C	1.111411	-0.140260	0.000066
C34	C	1.611411	0.359740	0.500066
C35	C	1.166269	-0.407664	-0.000005
C36	C	1.666269	0.092336	0.499995
C37	C	0.613278	0.264501	0.000022
C38	C	1.113278	0.764501	0.500022
C39	C	0.664402	0.187583	0.000039
C40	C	1.164402	0.687583	0.500039
C41	C	0.772539	0.198612	0.000028
C42	C	1.272539	0.698612	0.500028
C43	C	0.505132	0.253473	0.000033
C44	C	1.005132	0.753473	0.500033
C45	C	1.312796	0.233832	0.000047
C46	C	1.812796	0.733832	0.500047
C47	C	1.418940	0.244679	0.000042
C48	C	1.918940	0.744679	0.500042
C49	C	1.146628	0.400000	-0.000005
C50	C	1.646628	0.900000	0.499995
C51	C	1.157474	0.506145	-0.000031
C52	C	1.657474	1.006145	0.499969
N53	N	1.164570	0.200245	0.456307
N54	N	1.664570	0.700245	0.956307
N55	N	1.113112	0.251827	-0.456231
N56	N	1.613112	0.751827	0.043769
H57	H	1.026248	-0.285840	0.000018
H58	H	1.526248	0.214160	0.500018
H59	H	1.251426	-0.262077	0.000051
H60	H	1.751426	0.237923	0.500051
F61	F	0.615463	0.090684	0.000064
F62	F	1.115463	0.590684	0.500064
F63	F	0.662216	0.361394	-0.000017
F64	F	1.162216	0.861394	0.499983
F65	F	1.233243	0.131434	0.554624
F66	F	1.733243	0.631434	1.054624
H67	H	1.060584	0.304476	0.468555
H68	H	1.560584	0.804476	0.968555
