data_functionalizedCrystal
_audit_creation_method	'MofGen! by Chris Wilmer'
_symmetry_space_group_name_H-M	'P1'
_symmetry_Int_Tables_number	1
_symmetry_cell_setting	triclinic
loop_
_symmetry_equiv_pos_as_xyz
  x,y,z
_cell_length_a	8.597314
_cell_length_b	8.597340
_cell_length_c	7.088929
_cell_angle_alpha	76.027567
_cell_angle_beta	76.046591
_cell_angle_gamma	93.639961
loop_
_atom_site_label
_atom_site_type_symbol
_atom_site_fract_x
_atom_site_fract_y
_atom_site_fract_z
O1	O	-2.101062	0.219222	0.150957
O2	O	-1.636346	0.245274	0.070124
O3	O	-1.881722	-0.000120	0.150964
O4	O	-1.855685	0.464617	0.070117
O5	O	-1.914515	-0.032989	0.479755
O6	O	-1.669138	0.212406	0.398915
O7	O	-2.133854	0.186354	0.479748
Cu8	Cu	-1.904490	0.196379	0.469353
Cu9	Cu	-1.865710	0.235250	0.080519
O10	O	-1.888478	0.431748	0.398908
C11	C	-1.593280	0.227873	0.224885
C12	C	-1.416103	0.224970	0.196180
C13	C	-1.897149	-0.076018	0.324992
C14	C	-1.894240	-0.253201	0.353689
C15	C	-1.176920	0.203754	0.324991
C16	C	-1.354099	0.206652	0.353706
C17	C	-1.873051	0.507647	0.224876
C18	C	-1.875959	0.684831	0.196166
N19	N	-1.931778	0.169038	0.742839
N20	N	-1.838435	0.262578	-0.192963
H21	H	-1.436562	0.193177	0.510539
H22	H	-1.907662	0.664302	0.510521
Cl23	Cl	-1.855207	0.812207	-0.045997
H24	H	-1.333633	0.238434	0.039338
Cl25	Cl	-1.689071	0.412240	0.631728
H26	H	-2.028536	0.072109	0.856399
