data_functionalizedCrystal
_audit_creation_method	'MofGen! by Chris Wilmer'
_symmetry_space_group_name_H-M	'P1'
_symmetry_Int_Tables_number	1
_symmetry_cell_setting	triclinic
loop_
_symmetry_equiv_pos_as_xyz
  x,y,z
_cell_length_a	25.639243
_cell_length_b	18.050589
_cell_length_c	18.050582
_cell_angle_alpha	90.018205
_cell_angle_beta	89.982526
_cell_angle_gamma	89.969055
loop_
_atom_site_label
_atom_site_type_symbol
_atom_site_fract_x
_atom_site_fract_y
_atom_site_fract_z
Zn1	Zn	0.799271	0.295653	-0.419986
Zn2	Zn	0.799208	0.419836	-0.295805
Zn3	Zn	0.711845	0.295670	-0.295804
Zn4	Zn	0.711808	0.419811	-0.419948
O5	O	0.755533	0.357743	-0.357886
O6	O	0.872428	0.312129	-0.403529
O7	O	0.787608	0.403383	-0.191880
O8	O	0.723484	0.191743	-0.312293
O9	O	0.872382	0.403366	-0.312294
O10	O	0.787715	0.191730	-0.403528
O11	O	0.723423	0.312159	-0.191880
O12	O	0.638675	0.312135	-0.312256
O13	O	0.723421	0.403324	-0.523878
O14	O	0.638648	0.403341	-0.403464
O15	O	0.787680	0.312105	-0.523905
O16	O	0.787573	0.523757	-0.312258
O17	O	0.723360	0.523739	-0.403465
C18	C	0.755470	0.550695	-0.357873
C19	C	0.755491	0.633240	-0.357893
C20	C	0.619691	0.357737	-0.357856
C21	C	0.561576	0.357753	-0.357861
C22	C	0.755554	0.357710	-0.551591
C23	C	0.755562	0.357696	-0.634137
C24	C	0.201232	0.310310	-0.405471
C25	C	0.146628	0.310309	-0.405476
O26	O	0.118406	0.269958	-0.445918
N27	N	0.119294	0.357740	-0.357906
C28	C	0.146568	0.405170	-0.310324
O29	O	0.118304	0.445513	-0.269862
C30	C	0.201171	0.405166	-0.310316
C31	C	0.228502	0.357737	-0.357894
C32	C	0.228563	0.262885	-0.453044
C33	C	0.283163	0.262886	-0.453041
C34	C	0.310433	0.310314	-0.405463
C35	C	0.283102	0.357739	-0.357890
C36	C	0.228443	0.452591	-0.262730
C37	C	0.283050	0.452583	-0.262726
C38	C	0.310381	0.405154	-0.310304
C39	C	0.364972	0.405168	-0.310309
N40	N	0.392306	0.357737	-0.357878
C41	C	0.365036	0.310310	-0.405456
C42	C	0.031897	0.405173	-0.310343
C43	C	-0.022705	0.405181	-0.310354
C44	C	-0.022642	0.310319	-0.405505
C45	C	0.031962	0.310316	-0.405497
C46	C	0.059230	0.357742	-0.357912
C47	C	0.479701	0.310318	-0.405444
C48	C	0.534307	0.310326	-0.405439
C49	C	0.534238	0.405184	-0.310285
C50	C	0.479638	0.405179	-0.310293
C51	C	0.452370	0.357740	-0.357876
O52	O	0.393228	0.445497	-0.269885
O53	O	0.393306	0.269967	-0.445904
C54	C	0.891906	0.357748	-0.357916
C55	C	0.950020	0.357750	-0.357929
C56	C	0.755611	0.164037	-0.357914
C57	C	0.755644	0.081491	-0.357927
C58	C	0.720606	0.832708	-0.407474
C59	C	0.707865	0.882143	-0.339706
C60	C	0.755542	0.784371	-0.357903
C61	C	0.768309	0.882018	-0.425679
C62	C	0.755591	0.930356	-0.357918
C63	C	0.742776	0.832718	-0.290099
C64	C	0.803242	0.832589	-0.376117
C65	C	0.790519	0.882001	-0.308302
C66	C	0.755513	0.700272	-0.357895
C67	C	0.755620	1.014452	-0.357918
C68	C	0.720645	0.407233	-0.833573
C69	C	0.768346	0.425383	-0.882969
C70	C	0.755588	0.357639	-0.785268
C71	C	0.707913	0.339468	-0.882954
C72	C	0.755609	0.357586	-0.931253
C73	C	0.803314	0.375825	-0.833576
C74	C	0.742849	0.289878	-0.833557
C75	C	0.790583	0.308003	-0.882930
C76	C	0.755575	0.357671	-0.701169
C77	C	0.755627	0.357553	-1.015349
C78	C	0.755543	0.357722	-0.164934
C79	C	0.755635	0.357527	-0.082388
H80	H	0.556557	0.271703	-0.444185
H81	H	0.457507	0.271686	-0.444188
H82	H	0.820176	0.266040	-0.904465
O83	O	0.681416	0.804027	-0.462920
H84	H	0.691630	0.824626	-0.519006
H85	H	0.779088	0.903673	-0.482990
H86	H	0.779134	0.482664	-0.904673
O87	O	0.728548	0.214026	-0.804772
H88	H	0.729050	0.214634	-0.743289
O89	O	0.563655	0.456330	-0.258963
H90	H	0.606215	0.448350	-0.266950
O91	O	0.061308	0.456335	-0.259023
H92	H	0.033124	0.489317	-0.225954
O93	O	0.654498	0.319126	-0.911681
H94	H	0.625559	0.360396	-0.891902
O95	O	0.312639	0.211717	-0.504342
H96	H	0.284496	0.178734	-0.537414
O97	O	-0.052182	0.456337	-0.259040
H98	H	-0.024041	0.489308	-0.225954
H99	H	0.206365	0.224260	-0.491788
H100	H	0.667550	0.903926	-0.324314
H101	H	0.731950	0.811153	-0.232772
O102	O	0.681545	0.462861	-0.804858
H103	H	0.642079	0.448318	-0.825490
O104	O	0.829681	0.910494	-0.252720
H105	H	0.859529	0.944278	-0.281719
O106	O	0.061439	0.259152	-0.456803
H107	H	0.033298	0.226173	-0.489880
H108	H	0.843548	0.810808	-0.391541
O109	O	0.856763	0.395943	-0.804817
H110	H	0.854002	0.446819	-0.770484
O111	O	-0.052060	0.259153	-0.456812
H112	H	-0.076946	0.292442	-0.494538
O113	O	0.198977	0.503738	-0.211401
H114	H	0.209445	0.562043	-0.224023
O115	O	0.312463	0.503734	-0.211400
H116	H	0.301967	0.562039	-0.224039
O117	O	0.450154	0.456334	-0.258981
H118	H	0.478292	0.489311	-0.225895
