data_functionalizedCrystal
_audit_creation_method	'MofGen! by Chris Wilmer'
_symmetry_space_group_name_H-M	'P1'
_symmetry_Int_Tables_number	1
_symmetry_cell_setting	triclinic
loop_
_symmetry_equiv_pos_as_xyz
  x,y,z
_cell_length_a	18.101398
_cell_length_b	21.295417
_cell_length_c	18.101389
_cell_angle_alpha	89.973488
_cell_angle_beta	89.977624
_cell_angle_gamma	90.025773
loop_
_atom_site_label
_atom_site_type_symbol
_atom_site_fract_x
_atom_site_fract_y
_atom_site_fract_z
Zn1	Zn	1.132110	-0.250730	-0.418817
Zn2	Zn	1.465443	0.082603	-0.085484
Zn3	Zn	1.798776	0.415936	0.247849
Zn4	Zn	1.132011	-0.355991	-0.294967
Zn5	Zn	1.465345	-0.022658	0.038366
Zn6	Zn	1.798678	0.310676	0.371700
Zn7	Zn	1.008273	-0.250731	-0.294979
Zn8	Zn	1.341606	0.082602	0.038355
Zn9	Zn	1.674940	0.415936	0.371688
Zn10	Zn	1.008221	-0.355957	-0.418755
Zn11	Zn	1.341554	-0.022623	-0.085422
Zn12	Zn	1.674887	0.310710	0.247911
O13	O	1.070154	-0.303352	-0.356880
O14	O	1.403487	0.029981	-0.023546
O15	O	1.736820	0.363314	0.309787
O16	O	1.235730	-0.264707	-0.402409
O17	O	1.569063	0.068626	-0.069076
O18	O	1.902396	0.401959	0.264257
O19	O	1.115578	-0.342043	-0.191335
O20	O	1.448911	-0.008709	0.141998
O21	O	1.782244	0.324624	0.475331
O22	O	1.024763	-0.162641	-0.311437
O23	O	1.358097	0.170692	0.021897
O24	O	1.691430	0.504025	0.355230
O25	O	1.235657	-0.342042	-0.311417
O26	O	1.568990	-0.008709	0.021916
O27	O	1.902324	0.324625	0.355250
O28	O	1.115746	-0.162641	-0.402421
O29	O	1.449079	0.170692	-0.069087
O30	O	1.782412	0.504026	0.264246
O31	O	1.024668	-0.264708	-0.191344
O32	O	1.358001	0.068625	0.141989
O33	O	1.691334	0.401958	0.475323
O34	O	0.904633	-0.264675	-0.311377
O35	O	1.237966	0.068658	0.021957
O36	O	1.571300	0.401991	0.355290
O37	O	1.024674	-0.341984	-0.522397
O38	O	1.358008	-0.008650	-0.189063
O39	O	1.691341	0.324683	0.144270
O40	O	0.904595	-0.341984	-0.402315
O41	O	1.237928	-0.008651	-0.068982
O42	O	1.571261	0.324682	0.264352
O43	O	1.115695	-0.264674	-0.522442
O44	O	1.449028	0.068659	-0.189109
O45	O	1.782362	0.401993	0.144225
O46	O	1.115527	-0.444076	-0.311357
O47	O	1.448860	-0.110742	0.021976
O48	O	1.782194	0.222591	0.355310
O49	O	1.024579	-0.444051	-0.402304
O50	O	1.357912	-0.110717	-0.068971
O51	O	1.691245	0.222616	0.264363
C52	C	0.877743	-0.303327	-0.356841
C53	C	1.211076	0.030007	-0.023508
C54	C	1.544410	0.363340	0.309826
C55	C	0.795429	-0.303331	-0.356842
C56	C	1.128762	0.030002	-0.023509
C57	C	1.462096	0.363336	0.309825
C58	C	0.496338	-0.303370	-0.356904
C59	C	0.829671	0.029963	-0.023571
C60	C	1.163005	0.363296	0.309762
C61	C	0.527663	-0.254486	-0.299967
C62	C	0.860996	0.078847	0.033366
C63	C	1.194329	0.412180	0.366699
C64	C	0.613281	-0.254617	-0.299724
C65	C	0.946614	0.078716	0.033609
C66	C	1.279947	0.412049	0.366942
C67	C	0.644721	-0.303350	-0.356873
C68	C	0.978054	0.029983	-0.023540
C69	C	1.311387	0.363317	0.309793
C70	C	0.613604	-0.369659	-0.335543
C71	C	0.946937	-0.036326	-0.002210
C72	C	1.280271	0.297007	0.331124
C73	C	0.527959	-0.369388	-0.335147
C74	C	0.861292	-0.036054	-0.001814
C75	C	1.194626	0.297279	0.331519
C76	C	0.527950	-0.286521	-0.435305
C77	C	0.861283	0.046812	-0.101972
C78	C	1.194617	0.380145	0.231362
C79	C	0.613601	-0.285045	-0.434877
C80	C	0.946934	0.048289	-0.101544
C81	C	1.280267	0.381622	0.231789
C82	C	0.728580	-0.303343	-0.356857
C83	C	1.061913	0.029990	-0.023524
C84	C	1.395247	0.363324	0.309810
C85	C	0.412479	-0.303382	-0.356919
C86	C	0.745812	0.029951	-0.023585
C87	C	1.079145	0.363285	0.309748
C88	C	1.070057	-0.466904	-0.356839
C89	C	1.403390	-0.133571	-0.023505
C90	C	1.736723	0.199763	0.309828
C91	C	1.070083	-0.536872	-0.356846
C92	C	1.403416	-0.203539	-0.023512
C93	C	1.736749	0.129795	0.309821
C94	C	1.117482	-0.569731	-0.309538
C95	C	1.450815	-0.236397	0.023795
C96	C	1.784148	0.096936	0.357128
C97	C	1.117516	-0.635473	-0.309555
C98	C	1.450850	-0.302140	0.023778
C99	C	1.784183	0.031193	0.357112
C100	C	1.070139	-0.668354	-0.356871
C101	C	1.403472	-0.335021	-0.023538
C102	C	1.736806	-0.001688	0.309795
C103	C	1.022737	-0.635488	-0.404188
C104	C	1.356070	-0.302154	-0.070855
C105	C	1.689404	0.031179	0.262479
C106	C	1.022709	-0.569746	-0.404175
C107	C	1.356042	-0.236413	-0.070842
C108	C	1.689375	0.096920	0.262491
N109	N	1.005355	-0.771616	-0.362504
N110	N	1.338688	-0.438283	-0.029171
N111	N	1.672021	-0.104949	0.304163
N112	N	1.005383	-0.834068	-0.362512
N113	N	1.338717	-0.500734	-0.029178
N114	N	1.672050	-0.167401	0.304155
C115	C	1.070222	-0.866429	-0.356914
C116	C	1.403555	-0.533096	-0.023580
C117	C	1.736889	-0.199762	0.309753
N118	N	1.135032	-0.833980	-0.351293
N119	N	1.468365	-0.500647	-0.017960
N120	N	1.801699	-0.167313	0.315374
N121	N	1.135002	-0.771523	-0.351282
N122	N	1.468336	-0.438189	-0.017948
N123	N	1.801669	-0.104856	0.315385
C124	C	1.070165	-0.739640	-0.356891
C125	C	1.403498	-0.406306	-0.023557
C126	C	1.736831	-0.072973	0.309776
C127	C	1.117662	-0.970573	-0.309622
C128	C	1.450996	-0.637240	0.023712
C129	C	1.784329	-0.303907	0.357045
C130	C	1.117698	-1.036317	-0.309644
C131	C	1.451032	-0.702984	0.023690
C132	C	1.784365	-0.369650	0.357023
C133	C	1.022912	-1.036330	-0.404273
C134	C	1.356246	-0.702997	-0.070940
C135	C	1.689579	-0.369664	0.262394
C136	C	1.022883	-0.970588	-0.404255
C137	C	1.356216	-0.637255	-0.070922
C138	C	1.689550	-0.303921	0.262412
C139	C	1.070257	-0.937713	-0.356925
C140	C	1.403590	-0.604380	-0.023592
C141	C	1.736924	-0.271047	0.309741
C142	C	1.263316	-0.303378	-0.356919
C143	C	1.596649	0.029955	-0.023585
C144	C	1.929982	0.363288	0.309748
C145	C	1.345630	-0.303389	-0.356935
C146	C	1.678963	0.029944	-0.023602
C147	C	2.012296	0.363277	0.309731
C148	C	1.070190	-0.303325	-0.550042
C149	C	1.403523	0.030008	-0.216708
C150	C	1.736857	0.363342	0.116625
C151	C	1.070205	-0.303313	-0.632356
C152	C	1.403539	0.030020	-0.299022
C153	C	1.736872	0.363353	0.034311
C154	C	1.070271	-0.139162	-0.356937
C155	C	1.403605	0.194171	-0.023604
C156	C	1.736938	0.527505	0.309730
C157	C	1.070321	-0.069194	-0.356961
C158	C	1.403655	0.264140	-0.023628
C159	C	1.736988	0.597473	0.309705
C160	C	1.070233	-0.303264	-0.783064
C161	C	1.403567	0.030069	-0.449731
C162	C	1.736900	0.363402	-0.116398
C163	C	1.012975	-0.351896	-0.814389
C164	C	1.346308	-0.018562	-0.481056
C165	C	1.679641	0.314771	-0.147723
C166	C	1.012766	-0.351725	-0.900008
C167	C	1.346100	-0.018391	-0.566674
C168	C	1.679433	0.314942	-0.233341
C169	C	1.070260	-0.303217	-0.931447
C170	C	1.403594	0.030116	-0.598114
C171	C	1.736927	0.363449	-0.264780
C172	C	1.049373	-0.236834	-0.900368
C173	C	1.382706	0.096499	-0.567035
C174	C	1.716039	0.429833	-0.233702
C175	C	1.048941	-0.237143	-0.814723
C176	C	1.382275	0.096191	-0.481390
C177	C	1.715608	0.429524	-0.148057
C178	C	1.148530	-0.320426	-0.814638
C179	C	1.481863	0.012907	-0.481304
C180	C	1.815196	0.346241	-0.147971
C181	C	1.148126	-0.321862	-0.900288
C182	C	1.481459	0.011471	-0.566955
C183	C	1.814792	0.344805	-0.233621
C184	C	1.070277	-0.303186	-1.015306
C185	C	1.403611	0.030147	-0.681973
C186	C	1.736944	0.363480	-0.348640
C187	C	1.070215	-0.303291	-0.699205
C188	C	1.403548	0.030043	-0.365871
C189	C	1.736881	0.363376	-0.032538
C190	C	1.070160	-0.303334	-0.164469
C191	C	1.403494	0.029999	0.168864
C192	C	1.736827	0.363333	0.502198
C193	C	1.070288	-0.303168	-0.082155
C194	C	1.403622	0.030165	0.251178
C195	C	1.736955	0.363498	0.584511
H196	H	0.506115	-0.265498	-0.242211
H197	H	0.839449	0.067835	0.091122
H198	H	1.172782	0.401168	0.424455
N199	N	0.638960	-0.268587	-0.226851
N200	N	0.972294	0.064747	0.106482
N201	N	1.305627	0.398080	0.439816
N202	N	0.678534	-0.229954	-0.193147
N203	N	1.011867	0.103379	0.140186
N204	N	1.345201	0.436713	0.473519
H205	H	0.696670	-0.239821	-0.141677
H206	H	1.030004	0.093513	0.191656
H207	H	1.363337	0.426846	0.524989
H208	H	0.984110	-0.542992	-0.442700
H209	H	1.317444	-0.209659	-0.109366
H210	H	1.650777	0.123675	0.223967
N211	N	0.974518	-1.069900	-0.452616
N212	N	1.307851	-0.736567	-0.119283
N213	N	1.641184	-0.403234	0.214050
N214	N	0.979384	-1.062515	-0.520955
N215	N	1.312717	-0.729182	-0.187621
N216	N	1.646051	-0.395848	0.145712
H217	H	0.945206	-1.086226	-0.555102
H218	H	1.278539	-0.752893	-0.221768
H219	H	1.611872	-0.419559	0.111565
H220	H	1.089808	-0.199595	-0.920733
H221	H	1.423141	0.133738	-0.587400
H222	H	1.756475	0.467071	-0.254067
H223	H	0.507236	-0.407043	-0.374809
H224	H	0.840569	-0.073709	-0.041475
H225	H	1.173903	0.259624	0.291858
H226	H	0.992786	-0.222051	-0.921814
H227	H	1.326119	0.111283	-0.588480
H228	H	1.659452	0.444616	-0.255147
H229	H	1.156058	-0.542966	-0.271002
H230	H	1.489392	-0.209633	0.062332
H231	H	1.822725	0.123700	0.395665
N232	N	1.166056	-0.936998	-0.261274
N233	N	1.499389	-0.603665	0.072059
N234	N	1.832723	-0.270331	0.405392
N235	N	1.208379	-0.966348	-0.219041
N236	N	1.541713	-0.633014	0.114292
N237	N	1.875046	-0.299681	0.447625
H238	H	1.242558	-0.942637	-0.184895
H239	H	1.575891	-0.609304	0.148439
H240	H	1.909225	-0.275971	0.481772
H241	H	0.507949	-0.383677	-0.277832
H242	H	0.841283	-0.050344	0.055501
H243	H	1.174616	0.282990	0.388834
N244	N	0.639150	-0.416570	-0.385943
N245	N	0.972484	-0.083237	-0.052609
N246	N	1.305817	0.250096	0.280724
N247	N	0.680676	-0.401620	-0.438268
N248	N	1.014009	-0.068286	-0.104935
N249	N	1.347342	0.265047	0.228398
H250	H	0.698719	-0.434749	-0.473865
H251	H	1.032052	-0.101416	-0.140532
H252	H	1.365386	0.231917	0.192801
N253	N	0.640474	-0.387892	-0.264418
N254	N	0.973807	-0.054558	0.068915
N255	N	1.307141	0.278775	0.402248
N256	N	0.682531	-0.352165	-0.229316
N257	N	1.015864	-0.018832	0.104017
N258	N	1.349198	0.314502	0.437351
H259	H	0.701508	-0.365038	-0.179082
H260	H	1.034841	-0.031705	0.154251
H261	H	1.368174	0.301629	0.487585
H262	H	0.984283	-0.943832	-0.442774
H263	H	1.317616	-0.610499	-0.109441
H264	H	1.650950	-0.277166	0.223893
H265	H	1.163880	-0.370718	-0.920598
H266	H	1.497213	-0.037384	-0.587264
H267	H	1.830547	0.295949	-0.253931
H268	H	1.025851	-0.401281	-0.793790
H269	H	1.359185	-0.067947	-0.460456
H270	H	1.692518	0.265386	-0.127123
N271	N	1.099003	-0.190120	-0.788734
N272	N	1.432337	0.143214	-0.455401
N273	N	1.765670	0.476547	-0.122068
N274	N	1.134145	-0.157176	-0.833851
N275	N	1.467478	0.176157	-0.500518
N276	N	1.800812	0.509490	-0.167185
H277	H	1.169497	-0.123963	-0.815500
H278	H	1.502830	0.209371	-0.482167
H279	H	1.836163	0.542704	-0.148834
N280	N	0.974351	-0.669081	-0.452521
N281	N	1.307684	-0.335748	-0.119187
N282	N	1.641018	-0.002415	0.214146
N283	N	0.974381	-0.727778	-0.452525
N284	N	1.307715	-0.394445	-0.119192
N285	N	1.641048	-0.061112	0.214141
H286	H	0.940210	-0.751505	-0.486664
H287	H	1.273543	-0.418171	-0.153331
H288	H	1.606877	-0.084838	0.180002
H289	H	0.506377	-0.239011	-0.454697
H290	H	0.839710	0.094322	-0.121364
H291	H	1.173043	0.427656	0.211969
N292	N	0.639119	-0.223828	-0.455046
N293	N	0.972452	0.109505	-0.121713
N294	N	1.305786	0.442838	0.211621
N295	N	0.680075	-0.193759	-0.412172
N296	N	1.013408	0.139574	-0.078838
N297	N	1.346742	0.472908	0.254495
H298	H	0.698102	-0.150524	-0.426414
H299	H	1.031436	0.182809	-0.093080
H300	H	1.364769	0.516142	0.240253
N301	N	0.501843	-0.192612	-0.316534
N302	N	0.835177	0.140721	0.016800
N303	N	1.168510	0.474055	0.350133
N304	N	0.464608	-0.163013	-0.269971
N305	N	0.797941	0.170320	0.063363
N306	N	1.131275	0.503654	0.396696
H307	H	0.446368	-0.119312	-0.281669
H308	H	0.779701	0.214021	0.051665
H309	H	1.113034	0.547354	0.384998
N310	N	1.029089	-0.413476	-0.926361
N311	N	1.362422	-0.080143	-0.593028
N312	N	1.695755	0.253191	-0.259694
N313	N	1.040714	-0.457001	-0.881500
N314	N	1.374048	-0.123668	-0.548166
N315	N	1.707381	0.209666	-0.214833
H316	H	1.052226	-0.500619	-0.900108
H317	H	1.385559	-0.167286	-0.566774
H318	H	1.718893	0.166048	-0.233441
H319	H	0.635005	-0.318055	-0.479573
H320	H	0.968338	0.015278	-0.146240
H321	H	1.301671	0.348612	0.187094
N322	N	0.502550	-0.331200	-0.488515
N323	N	0.835884	0.002133	-0.155182
N324	N	1.169217	0.335466	0.178152
N325	N	0.461347	-0.375277	-0.468883
N326	N	0.794680	-0.041944	-0.135550
N327	N	1.128014	0.291390	0.197784
H328	H	0.443410	-0.406837	-0.506455
H329	H	0.776744	-0.073504	-0.173122
H330	H	1.110077	0.259830	0.160211
H331	H	1.156117	-0.662232	-0.271032
H332	H	1.489450	-0.328899	0.062302
H333	H	1.822784	0.004435	0.395635
H334	H	1.156301	-1.063070	-0.271122
H335	H	1.489634	-0.729736	0.062212
H336	H	1.822968	-0.396403	0.395545
N337	N	0.940611	-0.337797	-0.787375
N338	N	1.273944	-0.004464	-0.454041
N339	N	1.607278	0.328869	-0.120708
N340	N	0.931026	-0.292089	-0.745152
N341	N	1.264359	0.041244	-0.411819
N342	N	1.597692	0.374578	-0.078485
H343	H	0.879920	-0.282131	-0.726069
H344	H	1.213253	0.051202	-0.392736
H345	H	1.546586	0.384536	-0.059402
N346	N	0.939991	-0.337440	-0.925699
N347	N	1.273325	-0.004107	-0.592365
N348	N	1.606658	0.329226	-0.259032
N349	N	0.889198	-0.327561	-0.880376
N350	N	1.222531	0.005772	-0.547042
N351	N	1.555864	0.339105	-0.213709
H352	H	0.837796	-0.317472	-0.898519
H353	H	1.171130	0.015861	-0.565185
H354	H	1.504463	0.349195	-0.231852
N355	N	1.204487	-0.280675	-0.927146
N356	N	1.537820	0.052658	-0.593813
N357	N	1.871154	0.385991	-0.260480
N358	N	1.188110	-0.236711	-0.969876
N359	N	1.521444	0.096622	-0.636543
N360	N	1.854777	0.429956	-0.303210
H361	H	1.227914	-0.207619	-0.988848
H362	H	1.561247	0.125714	-0.655514
H363	H	1.894581	0.459048	-0.322181
H364	H	1.167589	-0.368026	-0.793034
H365	H	1.500922	-0.034692	-0.459700
H366	H	1.834255	0.298641	-0.126367
N367	N	0.639668	-0.192926	-0.316476
N368	N	0.973002	0.140407	0.016858
N369	N	1.306335	0.473740	0.350191
N370	N	0.594831	-0.149473	-0.328427
N371	N	0.928165	0.183860	0.004906
N372	N	1.261498	0.517194	0.338239
H373	H	0.613464	-0.105899	-0.340248
H374	H	0.946797	0.227435	-0.006915
H375	H	1.280130	0.560768	0.326419
N376	N	0.977154	-0.218925	-0.789664
N377	N	1.310487	0.114408	-0.456330
N378	N	1.643820	0.447742	-0.122997
N379	N	0.927719	-0.206073	-0.835427
N380	N	1.261052	0.127260	-0.502094
N381	N	1.594385	0.460593	-0.168760
H382	H	0.877016	-0.193207	-0.817733
H383	H	1.210349	0.140127	-0.484399
H384	H	1.543683	0.473460	-0.151066
N385	N	1.202037	-0.275986	-0.789229
N386	N	1.535370	0.057347	-0.455896
N387	N	1.868704	0.390680	-0.122562
N388	N	1.182692	-0.231850	-0.748048
N389	N	1.516026	0.101483	-0.414714
N390	N	1.849359	0.434816	-0.081381
H391	H	1.220475	-0.200461	-0.730101
H392	H	1.553809	0.132872	-0.396768
H393	H	1.887142	0.466206	-0.063435
