data_functionalizedCrystal
_audit_creation_method	'MofGen! by Chris Wilmer'
_symmetry_space_group_name_H-M	'P1'
_symmetry_Int_Tables_number	1
_symmetry_cell_setting	triclinic
loop_
_symmetry_equiv_pos_as_xyz
  x,y,z
_cell_length_a	10.489694
_cell_length_b	10.654558
_cell_length_c	9.565339
_cell_angle_alpha	89.996787
_cell_angle_beta	90.004749
_cell_angle_gamma	84.504133
loop_
_atom_site_label
_atom_site_type_symbol
_atom_site_fract_x
_atom_site_fract_y
_atom_site_fract_z
O1	O	-0.179206	-1.667889	0.116228
O2	O	-0.196264	-1.302417	0.116234
O3	O	-0.002130	-1.493500	0.116235
O4	O	-0.373341	-1.476806	0.116227
O5	O	-0.002145	-1.493484	-0.116286
O6	O	-0.196279	-1.302401	-0.116287
O7	O	-0.179221	-1.667873	-0.116292
Zn8	Zn	-0.187752	-1.485134	-0.153207
Zn9	Zn	-0.187733	-1.485156	0.153148
O10	O	-0.373356	-1.476790	-0.116293
C11	C	-0.195017	-1.255611	-0.000026
C12	C	-0.191263	-1.116167	-0.000023
C13	C	0.045395	-1.492244	-0.000021
C14	C	0.187026	-1.488509	-0.000009
C15	C	0.284754	-1.605685	-0.000024
C16	C	0.362094	-1.543785	0.114617
C17	C	0.362044	-1.543742	-0.114630
C18	C	0.262501	-1.426657	0.114727
C19	C	0.262445	-1.426631	-0.114623
C20	C	0.339737	-1.364645	0.000047
C21	C	-0.180468	-1.714679	-0.000030
C22	C	-0.184222	-1.854123	-0.000024
C23	C	0.579122	-1.478066	-0.000036
C24	C	0.437499	-1.481860	-0.000042
C25	C	-0.185978	-0.919636	0.126724
C26	C	-0.189494	-1.050659	0.126726
C27	C	-0.189503	-1.050646	-0.126781
C28	C	-0.185978	-0.919625	-0.126780
C29	C	-0.184222	-0.854133	0.253481
C30	C	-0.185979	-0.919646	0.380239
C31	C	-0.189495	-1.050670	0.380241
C32	C	-0.191254	-1.116181	0.253483
N33	N	-0.187765	-1.485129	-0.362286
C34	C	-0.278245	-1.397494	-0.546660
C35	C	-0.163111	-1.371072	-0.453431
C36	C	-0.302890	-1.511495	-0.453446
C37	C	-0.072517	-1.458692	-0.546595
C38	C	-0.212371	-1.599165	-0.546619
C39	C	-0.097154	-1.572790	-0.453432
N40	N	-0.187710	-1.485171	0.362228
H41	H	0.260123	-1.707600	0.000090
Br42	Br	-0.405673	-1.273868	-0.614889
Br43	Br	0.089834	-1.421371	-0.614496
H44	H	0.219180	-1.377226	0.211755
Br45	Br	-0.247172	-1.759825	-0.614902
H46	H	-0.020531	-1.646920	-0.412757
H47	H	0.405618	-1.593256	0.211539
H48	H	0.364121	-1.262653	0.000110
Br49	Br	-0.128366	-1.210369	-0.385199
H50	H	-0.184572	-0.866281	-0.229990
Br51	Br	-0.465197	-1.548636	-0.385241
H52	H	0.218898	-1.377203	-0.211548
H53	H	0.405533	-1.593225	-0.211548
Br54	Br	-0.179463	-0.676315	0.253486
Br55	Br	-0.183555	-0.830747	0.552258
H56	H	-0.194110	-1.222870	0.253495
Br57	Br	-0.191858	-1.139580	0.552265
H58	H	-0.190938	-1.103995	-0.229980
