data_functionalizedCrystal
_audit_creation_method	'MofGen! by Chris Wilmer'
_symmetry_space_group_name_H-M	'P1'
_symmetry_Int_Tables_number	1
_symmetry_cell_setting	triclinic
loop_
_symmetry_equiv_pos_as_xyz
  x,y,z
_cell_length_a	16.992701
_cell_length_b	10.489741
_cell_length_c	15.455313
_cell_angle_alpha	92.692689
_cell_angle_beta	87.136501
_cell_angle_gamma	87.603172
loop_
_atom_site_label
_atom_site_type_symbol
_atom_site_fract_x
_atom_site_fract_y
_atom_site_fract_z
O1	O	1.045327	0.265365	-0.072136
O2	O	0.817025	0.262399	-0.072137
O3	O	0.936371	0.078736	-0.072131
O4	O	0.925981	0.449027	-0.072142
O5	O	0.929546	0.089193	0.072130
O6	O	0.810200	0.272856	0.072125
O7	O	1.038502	0.275821	0.072125
Cu8	Cu	0.923728	0.275293	0.085297
Cu9	Cu	0.931799	0.262927	-0.085309
O10	O	0.919156	0.459484	0.072120
C11	C	0.784378	0.263808	-0.000006
C12	C	0.697270	0.252414	-0.000006
C13	C	0.207878	0.175857	-0.000007
C14	C	0.289725	0.186573	-0.000002
C15	C	0.321950	0.307238	-0.000009
C16	C	0.272323	0.417195	-0.000013
C17	C	0.190477	0.406478	-0.000012
C18	C	0.565797	0.351654	-0.000008
C19	C	0.647649	0.362363	-0.000012
C20	C	0.665046	0.131740	0.000000
C21	C	0.583198	0.121033	-0.000004
C22	C	0.533578	0.230990	-0.000002
N23	N	0.405610	0.318194	-0.000007
N24	N	0.449919	0.220033	0.000001
C25	C	0.932173	0.036364	-0.000001
C26	C	0.929826	-0.105469	-0.000003
C27	C	0.853890	-0.180215	-0.000009
C28	C	0.886396	-0.264062	0.071119
C29	C	0.893143	-0.274344	-0.071111
C30	C	0.962361	-0.187444	0.071185
C31	C	0.969100	-0.197722	-0.071110
C32	C	1.001661	-0.281535	0.000036
C33	C	1.071149	0.274411	-0.000007
C34	C	1.158257	0.285805	-0.000013
C35	C	0.923354	0.501855	-0.000012
C36	C	0.925701	0.643689	-0.000016
N37	N	0.918056	0.283990	0.205293
N38	N	0.937476	0.254220	-0.205304
C39	C	0.968777	0.205996	0.250689
C40	C	0.964495	0.212586	0.341497
C41	C	0.909496	0.297178	0.386906
C42	C	0.858771	0.375175	0.341504
C43	C	0.863049	0.368578	0.250698
C44	C	0.891029	0.325620	0.658487
C45	C	0.886756	0.332214	0.749299
C46	C	0.992480	0.169623	0.749286
C47	C	0.996757	0.163039	0.658478
C48	C	0.946028	0.241031	0.613084
N49	N	0.905120	0.303919	0.479726
N50	N	0.950401	0.234283	0.520265
H51	H	0.181647	0.077598	-0.000007
O52	O	0.303755	0.534309	-0.000055
C53	C	0.422126	0.653034	-0.000009
C54	C	0.386638	0.520320	0.000020
H55	H	0.489141	0.641770	0.000070
H56	H	0.404656	0.703437	-0.060398
H57	H	0.398842	0.712159	0.060349
H58	H	0.409904	0.461093	-0.060297
H59	H	0.404103	0.470017	0.060449
O60	O	0.805414	0.457317	0.385746
C61	C	0.751938	0.539492	0.525640
C62	C	0.812413	0.446426	0.475647
H63	H	0.757565	0.530699	0.598334
H64	H	0.763574	0.641498	0.507835
H65	H	0.689860	0.515111	0.507754
H66	H	0.874514	0.470689	0.493507
H67	H	0.800709	0.344446	0.493457
H68	H	1.041541	0.094158	0.621508
H69	H	1.004048	-0.168244	-0.131247
H70	H	0.791452	-0.135989	0.000062
H71	H	1.013566	0.137119	0.213723
H72	H	0.673882	0.460629	-0.000005
H73	H	0.150076	0.496010	-0.000013
H74	H	0.821747	0.432087	0.213737
O75	O	0.997389	-0.142216	0.142944
C76	C	1.114589	-0.143831	0.224528
C77	C	1.075025	-0.195130	0.143217
H78	H	1.177359	-0.186611	0.224786
H79	H	1.116136	-0.035323	0.223977
H80	H	1.079533	-0.171649	0.285057
H81	H	1.110048	-0.167405	0.082646
H82	H	1.073468	-0.303629	0.143845
H83	H	0.841967	0.401104	0.786268
O84	O	1.041716	0.093669	0.793290
C85	C	1.085080	-0.121506	0.821126
C86	C	1.029295	-0.035626	0.771222
H87	H	1.075046	-0.226059	0.803316
H88	H	1.148871	-0.099828	0.803242
H89	H	1.072585	-0.102198	0.893823
H90	H	1.041719	-0.054886	0.698514
H91	H	0.965522	-0.057322	0.789178
H92	H	1.005795	0.149077	0.378458
O93	O	0.858304	-0.320004	-0.142878
C94	C	0.872582	-0.454745	-0.273835
C95	C	0.912133	-0.403164	-0.192592
H96	H	0.916089	-0.521968	-0.314061
H97	H	0.818432	-0.508800	-0.253365
H98	H	0.853954	-0.371565	-0.314256
H99	H	0.930810	-0.486268	-0.152135
H100	H	0.966248	-0.349071	-0.213122
O101	O	0.844552	-0.299133	0.142795
C102	C	0.719379	-0.286983	0.223867
C103	C	0.766675	-0.247205	0.142654
H104	H	0.656411	-0.244995	0.223790
H105	H	0.718417	-0.395611	0.223504
H106	H	0.748320	-0.249717	0.284470
H107	H	0.737771	-0.284383	0.082008
H108	H	0.767641	-0.138573	0.143094
O109	O	1.076257	-0.333844	-0.000035
C110	C	1.204470	-0.357868	-0.074361
C111	C	1.120019	-0.298548	-0.074383
H112	H	1.239870	-0.329376	-0.134474
H113	H	1.233865	-0.321872	-0.013722
H114	H	1.202175	-0.466362	-0.074895
H115	H	1.122243	-0.190053	-0.073880
H116	H	1.090657	-0.334645	-0.135017
H117	H	0.525406	0.441190	-0.000012
H118	H	0.556967	0.022775	0.000002
O119	O	0.337898	0.079717	-0.000152
C120	C	0.381307	-0.119575	-0.074855
C121	C	0.326726	0.001400	-0.074806
H122	H	0.372282	-0.182940	-0.135196
H123	H	0.445358	-0.091278	-0.074907
H124	H	0.366647	-0.174109	-0.014452
H125	H	0.341316	0.055990	-0.135197
H126	H	0.262691	-0.026982	-0.074708
O127	O	0.713222	0.024887	-0.000148
C128	C	0.756635	-0.174407	-0.074844
C129	C	0.702050	-0.053438	-0.074798
H130	H	0.747610	-0.237780	-0.135183
H131	H	0.820686	-0.146103	-0.074902
H132	H	0.741981	-0.228937	-0.014439
H133	H	0.716634	0.001147	-0.135193
H134	H	0.638015	-0.081828	-0.074695
H135	H	0.849725	0.389127	0.621534
