data_functionalizedCrystal
_audit_creation_method	'MofGen! by Chris Wilmer'
_symmetry_space_group_name_H-M	'P1'
_symmetry_Int_Tables_number	1
_symmetry_cell_setting	triclinic
loop_
_symmetry_equiv_pos_as_xyz
  x,y,z
_cell_length_a	18.215407
_cell_length_b	10.685194
_cell_length_c	18.215399
_cell_angle_alpha	85.603424
_cell_angle_beta	89.983101
_cell_angle_gamma	94.374677
loop_
_atom_site_label
_atom_site_type_symbol
_atom_site_fract_x
_atom_site_fract_y
_atom_site_fract_z
Zn1	Zn	1.102695	-0.502506	-0.393598
Zn2	Zn	1.602695	-0.002506	0.106402
Zn3	Zn	1.093205	-0.713547	-0.261098
Zn4	Zn	1.593205	-0.213547	0.238902
Zn5	Zn	0.979626	-0.502536	-0.270550
Zn6	Zn	1.479626	-0.002536	0.229450
Zn7	Zn	0.970199	-0.713466	-0.384133
Zn8	Zn	1.470199	-0.213466	0.115867
O9	O	1.036431	-0.608014	-0.327345
O10	O	1.536431	-0.108014	0.172655
O11	O	1.204419	-0.530522	-0.376027
O12	O	1.704419	-0.030522	0.123973
O13	O	1.078113	-0.685603	-0.159366
O14	O	1.578113	-0.185603	0.340634
O15	O	1.003868	-0.325935	-0.294789
O16	O	1.503868	0.174065	0.205211
O17	O	1.197448	-0.685574	-0.278680
O18	O	1.697448	-0.185574	0.221320
O19	O	1.094286	-0.325913	-0.385191
O20	O	1.594286	0.174087	0.114809
O21	O	0.994667	-0.530574	-0.166310
O22	O	1.494667	-0.030574	0.333690
O23	O	0.875392	-0.530495	-0.285612
O24	O	1.375392	-0.030495	0.214388
O25	O	0.987801	-0.685435	-0.488375
O26	O	1.487801	-0.185435	0.011625
O27	O	0.868466	-0.685465	-0.369061
O28	O	1.368466	-0.185465	0.130939
O29	O	1.085145	-0.530443	-0.495329
O30	O	1.585145	-0.030443	0.004671
O31	O	1.068972	-0.890133	-0.269503
O32	O	1.568972	-0.390133	0.230497
O33	O	0.978600	-0.890074	-0.359896
O34	O	1.478600	-0.390074	0.140104
C35	C	0.845227	-0.607975	-0.327335
C36	C	1.345227	-0.107975	0.172665
C37	C	0.763427	-0.607989	-0.327347
C38	C	1.263427	-0.107989	0.172653
C39	C	0.494776	-0.688839	-0.370726
C40	C	0.994776	-0.188839	0.129274
C41	C	0.571635	-0.688828	-0.370723
C42	C	1.071635	-0.188828	0.129277
C43	C	0.578827	-0.527217	-0.283975
C44	C	1.078827	-0.027217	0.216025
C45	C	0.501969	-0.527235	-0.283975
C46	C	1.001969	-0.027235	0.216025
C47	C	0.459945	-0.608044	-0.327354
C48	C	0.959945	-0.108044	0.172646
C49	C	0.613663	-0.608015	-0.327352
C50	C	1.113663	-0.108015	0.172648
C51	C	0.696997	-0.608003	-0.327348
C52	C	1.196997	-0.108003	0.172652
C53	C	0.376606	-0.608059	-0.327357
C54	C	0.876606	-0.108059	0.172643
C55	C	1.021753	-0.935893	-0.312663
C56	C	1.521753	-0.435893	0.187337
C57	C	1.015541	-1.076161	-0.306406
C58	C	1.515541	-0.576161	0.193594
C59	C	1.228383	-0.608054	-0.327355
C60	C	1.728383	-0.108054	0.172645
C61	C	1.310181	-0.608071	-0.327359
C62	C	1.810181	-0.108071	0.172641
C63	C	1.036480	-0.607927	-0.519302
C64	C	1.536480	-0.107927	-0.019302
C65	C	1.036501	-0.607890	-0.601102
C66	C	1.536501	-0.107890	-0.101102
C67	C	1.051187	-0.278854	-0.342100
C68	C	1.551187	0.221146	0.157900
C69	C	1.057475	-0.138586	-0.348388
C70	C	1.557475	0.361414	0.151612
C71	C	1.087208	-0.527110	-0.792921
C72	C	1.587208	-0.027110	-0.292921
C73	C	1.087219	-0.527073	-0.869782
C74	C	1.587219	-0.027073	-0.369782
C75	C	0.985854	-0.688474	-0.862530
C76	C	1.485854	-0.188474	-0.362530
C77	C	0.985841	-0.688504	-0.785671
C78	C	1.485841	-0.188504	-0.285671
C79	C	1.036522	-0.607824	-0.750869
C80	C	1.536522	-0.107824	-0.250869
C81	C	1.036546	-0.607757	-0.904588
C82	C	1.536546	-0.107757	-0.404588
C83	C	1.036557	-0.607718	-0.987923
C84	C	1.536557	-0.107718	-0.487923
C85	C	1.036510	-0.607861	-0.667528
C86	C	1.536510	-0.107861	-0.167528
C87	C	1.036429	-0.608009	-0.136139
C88	C	1.536429	-0.108009	0.363861
C89	C	1.036567	-0.607691	-0.054354
C90	C	1.536567	-0.107691	0.445646
H91	H	0.460562	-0.754639	-0.406049
H92	H	0.960562	-0.254639	0.093951
H93	H	0.473610	-0.461440	-0.248653
H94	H	0.973610	0.038560	0.251347
Br95	Br	0.635864	-0.417548	-0.225108
Br96	Br	1.135864	0.082452	0.274892
H97	H	0.974877	-1.130032	-0.265678
H98	H	1.474877	-0.630032	0.234322
H99	H	0.944561	-0.754229	-0.751430
H100	H	1.444561	-0.254229	-0.251430
H101	H	1.098131	-1.084723	-0.389121
H102	H	1.598131	-0.584723	0.110879
H103	H	0.599990	-0.754621	-0.406040
H104	H	1.099990	-0.254621	0.093960
Br105	Br	1.155988	-0.417614	-0.745692
Br106	Br	1.655988	0.082386	-0.245692
H107	H	1.128491	-0.461346	-0.904018
H108	H	1.628491	0.038654	-0.404018
H109	H	0.944593	-0.754164	-0.890875
H110	H	1.444593	-0.254164	-0.390875
