data_functionalizedCrystal
_audit_creation_method	'MofGen! by Chris Wilmer'
_symmetry_space_group_name_H-M	'P1'
_symmetry_Int_Tables_number	1
_symmetry_cell_setting	triclinic
loop_
_symmetry_equiv_pos_as_xyz
  x,y,z
_cell_length_a	14.044191
_cell_length_b	14.044220
_cell_length_c	13.101039
_cell_angle_alpha	93.667477
_cell_angle_beta	86.337551
_cell_angle_gamma	93.190327
loop_
_atom_site_label
_atom_site_type_symbol
_atom_site_fract_x
_atom_site_fract_y
_atom_site_fract_z
O1	O	1.281976	0.225377	-0.085169
O2	O	1.005305	0.217064	-0.085182
O3	O	1.139487	0.082885	-0.085166
O4	O	1.147794	0.359556	-0.085186
O5	O	1.129861	0.092530	0.085263
O6	O	0.995679	0.226708	0.085247
O7	O	1.272350	0.235022	0.085259
Zn8	Zn	1.132486	0.232396	0.112312
Zn9	Zn	1.145169	0.219689	-0.112235
O10	O	1.138168	0.369200	0.085243
C11	C	0.964870	0.218250	0.000031
C12	C	0.858727	0.207402	0.000026
C13	C	0.613268	0.264503	0.000032
C14	C	0.664393	0.187587	0.000036
C15	C	0.772531	0.198615	0.000031
C16	C	0.505121	0.253476	0.000038
C17	C	1.131038	0.052086	0.000049
C18	C	1.120194	-0.054057	0.000050
C19	C	1.100368	-0.248396	0.000034
C20	C	1.177283	-0.299524	0.000034
C21	C	1.166252	-0.407661	0.000026
C22	C	1.111398	-0.140250	0.000043
C23	C	1.312785	0.233836	0.000044
C24	C	1.418929	0.244683	0.000042
C25	C	1.146617	0.400000	0.000026
C26	C	1.157462	0.506143	0.000019
N27	N	1.123838	0.241069	0.265560
N28	N	1.153824	0.211010	-0.265482
C29	C	1.112072	0.252876	0.474601
C30	C	1.165588	0.199205	0.525483
C31	C	1.159041	0.205775	0.641801
C32	C	1.118617	0.246308	0.358273
H33	H	0.626954	0.113451	-0.000031
Cl34	Cl	1.291740	-0.241721	0.000051
H35	H	0.650710	0.338629	0.000024
Cl36	Cl	0.985919	-0.306200	0.000024
Cl37	Cl	1.244312	0.121041	0.457871
H38	H	1.061342	0.303757	0.518392
