data_functionalizedCrystal
_audit_creation_method	'MofGen! by Chris Wilmer'
_symmetry_space_group_name_H-M	'P1'
_symmetry_Int_Tables_number	1
_symmetry_cell_setting	triclinic
loop_
_symmetry_equiv_pos_as_xyz
  x,y,z
_cell_length_a	10.489741
_cell_length_b	16.109301
_cell_length_c	14.586319
_cell_angle_alpha	89.994786
_cell_angle_beta	89.999184
_cell_angle_gamma	84.000327
loop_
_atom_site_label
_atom_site_type_symbol
_atom_site_fract_x
_atom_site_fract_y
_atom_site_fract_z
O1	O	1.692350	0.117298	-0.076187
O2	O	1.320995	0.128308	-0.076202
O3	O	1.516874	0.001835	-0.076184
O4	O	1.496471	0.243771	-0.076204
O5	O	1.516860	0.001833	0.076296
O6	O	1.320981	0.128306	0.076279
O7	O	1.692337	0.117296	0.076294
Cu8	Cu	1.506658	0.122801	0.090209
Cu9	Cu	1.506674	0.122803	-0.090117
O10	O	1.496457	0.243769	0.076277
C11	C	1.516041	-0.029146	0.000056
C12	C	1.513563	-0.121457	0.000058
C13	C	1.273468	0.127475	0.000037
C14	C	1.131875	0.124987	0.000032
C15	C	1.624032	-0.343048	0.000047
C16	C	1.621694	-0.429783	0.000040
C17	C	1.389290	-0.411341	0.000034
C18	C	1.391630	-0.324608	0.000035
C19	C	1.509004	-0.290464	0.000047
C20	C	1.504327	-0.463932	0.000038
C21	C	1.501791	-0.557974	0.000030
C22	C	1.511541	-0.196417	0.000053
C23	C	1.064902	0.044516	0.000047
C24	C	0.972231	0.082531	-0.075135
C25	C	0.972251	0.082548	0.075199
C26	C	1.041068	0.163035	-0.075212
C27	C	1.041098	0.163041	0.075189
C28	C	0.948453	0.201115	-0.000011
C29	C	1.739863	0.118128	0.000053
C30	C	1.881456	0.120616	0.000052
C31	C	1.497291	0.274750	0.000034
C32	C	1.499769	0.367060	0.000027
N33	N	1.506656	0.122799	0.217041
N34	N	1.506686	0.122799	-0.216949
C35	C	1.593420	0.066815	0.452055
C36	C	1.593423	0.066813	0.548036
C37	C	1.419913	0.178784	0.548031
C38	C	1.419904	0.178782	0.452051
C39	C	1.506665	0.122798	0.404066
C40	C	1.506677	0.122799	0.596027
C41	C	1.506680	0.122797	0.700094
C42	C	1.506660	0.122799	0.299992
H43	H	1.719606	-0.315251	0.000055
N44	N	1.269412	-0.446234	0.000021
N45	N	1.267337	-0.523675	0.000020
H46	H	1.182670	-0.548318	0.000012
N47	N	1.739206	-0.483483	0.000054
N48	N	1.817263	-0.479972	0.064334
H49	H	1.900263	-0.517896	0.064344
H50	H	1.297954	-0.281792	0.000032
N51	N	1.331302	0.235974	0.403011
N52	N	1.331313	0.235962	0.317316
H53	H	1.268740	0.276351	0.282679
H54	H	0.941762	0.048484	0.138760
N55	N	1.682027	0.009611	0.597047
N56	N	1.680300	-0.067246	0.586322
H57	H	1.742878	-0.107653	0.620932
H58	H	1.349276	0.224366	0.587110
H59	H	1.115552	-0.021636	-0.000042
H60	H	1.071408	0.197059	-0.138845
N61	N	0.933950	0.039806	-0.154857
N62	N	0.877105	-0.024211	-0.146500
H63	H	0.850076	-0.054392	-0.202801
N64	N	0.885254	0.284191	-0.000074
N65	N	0.903018	0.332642	-0.064688
H66	H	0.858383	0.391315	-0.064737
N67	N	1.079412	0.205715	0.154930
N68	N	1.057745	0.178294	0.232940
H69	H	1.084806	0.208427	0.289265
N70	N	1.681971	0.009576	0.403053
N71	N	1.759372	-0.040439	0.445917
H72	H	1.821884	-0.080887	0.411312
