data_functionalizedCrystal
_audit_creation_method	'MofGen! by Chris Wilmer'
_symmetry_space_group_name_H-M	'P1'
_symmetry_Int_Tables_number	1
_symmetry_cell_setting	triclinic
loop_
_symmetry_equiv_pos_as_xyz
  x,y,z
_cell_length_a	18.050589
_cell_length_b	14.908993
_cell_length_c	14.908662
_cell_angle_alpha	89.787996
_cell_angle_beta	93.273094
_cell_angle_gamma	93.329606
loop_
_atom_site_label
_atom_site_type_symbol
_atom_site_fract_x
_atom_site_fract_y
_atom_site_fract_z
Zn1	Zn	-0.249292	1.403900	-0.429207
Zn2	Zn	-0.366768	1.395107	-0.278864
Zn3	Zn	-0.250151	1.244866	-0.287529
Zn4	Zn	-0.381006	1.253485	-0.437837
O5	O	-0.311805	1.324339	-0.358359
O6	O	-0.258558	1.528558	-0.402026
O7	O	-0.345699	1.367890	-0.154190
O8	O	-0.146110	1.266035	-0.306337
O9	O	-0.344867	1.522099	-0.291569
O10	O	-0.145479	1.382876	-0.410428
O11	O	-0.260021	1.257509	-0.160556
O12	O	-0.273828	1.120184	-0.314706
O13	O	-0.369134	1.280725	-0.562516
O14	O	-0.369966	1.126516	-0.425137
O15	O	-0.272364	1.391233	-0.556176
O16	O	-0.472584	1.376248	-0.299938
O17	O	-0.483045	1.272199	-0.416735
C18	C	-0.323536	1.090725	-0.371798
C19	C	-0.328573	0.990785	-0.377569
C20	C	-0.237795	0.796351	-0.273582
C21	C	-0.242525	0.702448	-0.279001
C22	C	-0.342768	0.709075	-0.393821
C23	C	-0.338038	0.802978	-0.388402
C24	C	-0.285548	0.846612	-0.328281
C25	C	-0.280815	0.940517	-0.322867
C26	C	-0.381061	0.947142	-0.437683
C27	C	-0.385791	0.853239	-0.443102
C28	C	-0.504762	1.324230	-0.358351
C29	C	-0.587307	1.324267	-0.358372
C30	C	-0.792469	1.267743	-0.421862
C31	C	-0.839341	1.241092	-0.341077
C32	C	-0.738433	1.324356	-0.358379
C33	C	-0.838640	1.351052	-0.439171
C34	C	-0.884415	1.324441	-0.358393
C35	C	-0.784218	1.297660	-0.277553
C36	C	-0.783514	1.407660	-0.375700
C37	C	-0.830360	1.381038	-0.294856
C38	C	-0.654337	1.324305	-0.358372
C39	C	-0.968509	1.324492	-0.358390
C40	C	-0.118094	1.324475	-0.358386
C41	C	-0.035546	1.324533	-0.358398
C42	C	-0.322241	1.337921	-0.592883
C43	C	-0.326689	1.343709	-0.692823
C44	C	-0.300028	1.558866	-0.344868
C45	C	-0.295010	1.658807	-0.339119
C46	C	-0.377560	1.409325	-0.830373
C47	C	-0.373385	1.403894	-0.736470
C48	C	-0.284166	1.288950	-0.743086
C49	C	-0.288341	1.294381	-0.836988
C50	C	-0.335039	1.354572	-0.880629
C51	C	-0.339210	1.360008	-0.974533
C52	C	-0.249995	1.245060	-0.981147
C53	C	-0.245820	1.239628	-0.887244
C54	C	-0.301352	1.310862	-0.124745
C55	C	-0.296687	1.305249	-0.024796
H56	H	-0.238071	0.976043	-0.273919
N57	N	-0.754465	1.269248	-0.191833
N58	N	-0.773121	1.193159	-0.162341
H59	H	-0.752109	1.173087	-0.101803
H60	H	-0.775643	1.219788	-0.475480
H61	H	-0.203638	0.661529	-0.234459
H62	H	-0.195047	0.831880	-0.224640
N63	N	-0.851299	1.441152	-0.227460
N64	N	-0.830718	1.522573	-0.230335
H65	H	-0.845508	1.565027	-0.182736
N66	N	-0.386901	1.421504	-1.019098
N67	N	-0.424859	1.470390	-0.974211
H68	H	-0.458542	1.513825	-1.005682
H69	H	-0.415577	1.458342	-0.865905
H70	H	-0.408007	1.448483	-0.695555
N71	N	-0.396381	0.664480	-0.455217
N72	N	-0.400597	0.580638	-0.460039
H73	H	-0.438461	0.549141	-0.503402
H74	H	-0.428529	0.817699	-0.492048
H75	H	-0.419942	0.988075	-0.482228
H76	H	-0.246154	1.239938	-0.707538
H77	H	-0.863776	1.170684	-0.326441
H78	H	-0.759084	1.478055	-0.390376
H79	H	-0.862462	1.373597	-0.507490
N80	N	-0.198131	1.178148	-0.842649
N81	N	-0.194411	1.173302	-0.758808
H82	H	-0.160729	1.129881	-0.727312
N83	N	-0.206552	1.189145	-1.032496
N84	N	-0.210276	1.194010	-1.116336
H85	H	-0.179591	1.154527	-1.152602
