data_functionalizedCrystal
_audit_creation_method	'MofGen! by Chris Wilmer'
_symmetry_space_group_name_H-M	'P1'
_symmetry_Int_Tables_number	1
_symmetry_cell_setting	triclinic
loop_
_symmetry_equiv_pos_as_xyz
  x,y,z
_cell_length_a	10.654554
_cell_length_b	10.654550
_cell_length_c	9.130313
_cell_angle_alpha	90.002757
_cell_angle_beta	90.004537
_cell_angle_gamma	95.514263
loop_
_atom_site_label
_atom_site_type_symbol
_atom_site_fract_x
_atom_site_fract_y
_atom_site_fract_z
O1	O	0.176400	-1.667836	0.121688
O2	O	0.193206	-1.302358	0.121714
O3	O	0.002064	-1.493498	0.121693
O4	O	0.367542	-1.476697	0.121709
O5	O	0.002055	-1.493496	-0.121906
O6	O	0.193197	-1.302356	-0.121885
O7	O	0.176391	-1.667834	-0.121911
Cu8	Cu	0.184793	-1.485095	-0.144140
Cu9	Cu	0.184804	-1.485097	0.143943
O10	O	0.367533	-1.476695	-0.121890
C11	C	-0.044738	-1.492262	-0.000105
C12	C	-0.184181	-1.488568	-0.000101
C13	C	0.191968	-1.255559	-0.000082
C14	C	0.188276	-1.116116	-0.000072
C15	C	0.414336	-1.477930	-0.000089
C16	C	0.553779	-1.481624	-0.000083
C17	C	0.177630	-1.714633	-0.000112
C18	C	0.181322	-1.854077	-0.000112
C19	C	0.750328	-1.486834	0.132690
C20	C	0.619308	-1.483358	0.132700
C21	C	0.619279	-1.483355	-0.132885
C22	C	0.750298	-1.486822	-0.132893
C23	C	0.300817	-1.036632	-0.000071
C24	C	0.297341	-0.905611	-0.000097
C25	C	0.068772	-0.933571	-0.000117
C26	C	0.072249	-1.064589	-0.000102
N27	N	0.184803	-1.485099	0.346566
N28	N	0.184785	-1.485103	-0.346763
C29	C	0.100333	-1.569897	0.423209
C30	C	0.100327	-1.569902	0.576545
C31	C	0.269263	-1.400302	0.576584
C32	C	0.269275	-1.400304	0.423250
H33	H	0.803672	-1.488252	0.240818
H34	H	0.395293	-1.078580	-0.000057
C35	C	0.547268	-1.481500	0.278781
N36	N	0.493007	-1.480117	0.388816
C37	C	0.547193	-1.481439	-0.278948
N38	N	0.492899	-1.479998	-0.388966
H39	H	0.803623	-1.488227	-0.241034
C40	C	0.421146	-0.818183	-0.000103
N41	N	0.514401	-0.752333	-0.000112
H42	H	0.338037	-1.331261	0.639035
H43	H	-0.025693	-0.891601	-0.000151
H44	H	-0.019401	-1.129309	-0.000107
C45	C	0.007417	-1.663180	0.338862
N46	N	-0.062567	-1.733447	0.275336
C47	C	0.007399	-1.663181	0.660845
N48	N	-0.062600	-1.733443	0.724339
H49	H	0.338067	-1.331251	0.360843
