data_functionalizedCrystal
_audit_creation_method	'MofGen! by Chris Wilmer'
_symmetry_space_group_name_H-M	'P1'
_symmetry_Int_Tables_number	1
_symmetry_cell_setting	triclinic
loop_
_symmetry_equiv_pos_as_xyz
  x,y,z
_cell_length_a	18.215407
_cell_length_b	16.120297
_cell_length_c	18.215405
_cell_angle_alpha	87.131114
_cell_angle_beta	89.977671
_cell_angle_gamma	92.880709
loop_
_atom_site_label
_atom_site_type_symbol
_atom_site_fract_x
_atom_site_fract_y
_atom_site_fract_z
Zn1	Zn	1.103975	-0.471315	0.314148
Zn2	Zn	1.437309	-0.137981	0.647482
Zn3	Zn	1.770642	0.195352	0.980815
Zn4	Zn	1.110124	-0.331896	0.430976
Zn5	Zn	1.443458	0.001437	0.764310
Zn6	Zn	1.776791	0.334770	1.097643
Zn7	Zn	0.987147	-0.331924	0.307924
Zn8	Zn	1.320480	0.001409	0.641257
Zn9	Zn	1.653814	0.334743	0.974591
Zn10	Zn	0.980876	-0.471268	0.437170
Zn11	Zn	1.314209	-0.137934	0.770504
Zn12	Zn	1.647542	0.195399	1.103837
O13	O	1.045531	-0.401601	0.372555
O14	O	1.378864	-0.068267	0.705888
O15	O	1.712197	0.265066	1.039221
O16	O	1.207775	-0.452829	0.329659
O17	O	1.541108	-0.119495	0.662992
O18	O	1.874441	0.213838	0.996325
O19	O	1.099009	-0.215237	0.409456
O20	O	1.432342	0.118096	0.742789
O21	O	1.765676	0.451429	1.076123
O22	O	1.002696	-0.350446	0.205767
O23	O	1.336029	-0.017113	0.539100
O24	O	1.669363	0.316221	0.872433
O25	O	1.212292	-0.350399	0.415492
O26	O	1.545626	-0.017065	0.748825
O27	O	1.878959	0.316268	1.082158
O28	O	1.088529	-0.452856	0.210340
O29	O	1.421862	-0.119522	0.543673
O30	O	1.755196	0.213811	0.877007
O31	O	1.008658	-0.215258	0.319050
O32	O	1.341992	0.118076	0.652383
O33	O	1.675325	0.451409	0.985717
O34	O	0.883331	-0.350400	0.325056
O35	O	1.216665	-0.017067	0.658389
O36	O	1.549998	0.316266	0.991723
O37	O	0.992007	-0.587937	0.426048
O38	O	1.325341	-0.254603	0.759382
O39	O	1.658674	0.078730	1.092715
O40	O	0.878724	-0.452775	0.420013
O41	O	1.212057	-0.119442	0.753346
O42	O	1.545391	0.213891	1.086679
O43	O	1.082448	-0.587971	0.335665
O44	O	1.415781	-0.254638	0.668998
O45	O	1.749115	0.078695	1.002331
O46	O	1.092928	-0.350353	0.534781
O47	O	1.426261	-0.017020	0.868114
O48	O	1.759595	0.316314	1.201447
O49	O	0.997970	-0.452748	0.539331
O50	O	1.331303	-0.119415	0.872665
O51	O	1.664636	0.213918	1.205998
C52	C	0.854325	-0.401586	0.372531
C53	C	1.187658	-0.068253	0.705865
C54	C	1.520992	0.265081	1.039198
C55	C	0.772526	-0.401600	0.372540
C56	C	1.105859	-0.068266	0.705873
C57	C	1.439192	0.265067	1.039207
C58	C	0.581974	-0.455019	0.327948
C59	C	0.915308	-0.121686	0.661281
C60	C	1.248641	0.211647	0.994614
C61	C	0.505116	-0.455022	0.327954
C62	C	0.838449	-0.121689	0.661287
C63	C	1.171782	0.211645	0.994621
C64	C	0.509838	-0.348197	0.417183
C65	C	0.843171	-0.014863	0.750516
C66	C	1.176505	0.318470	1.083850
C67	C	0.586696	-0.348190	0.417172
C68	C	0.920029	-0.014857	0.750506
C69	C	1.253362	0.318476	1.083839
C70	C	0.622762	-0.401606	0.372556
C71	C	0.956095	-0.068273	0.705889
C72	C	1.289428	0.265060	1.039222
C73	C	0.469045	-0.401616	0.372573
C74	C	0.802379	-0.068282	0.705906
C75	C	1.135712	0.265051	1.039240
C76	C	0.385711	-0.401618	0.372580
C77	C	0.719045	-0.068285	0.705914
C78	C	1.052378	0.265048	1.039247
C79	C	0.706101	-0.401603	0.372547
C80	C	1.039434	-0.068270	0.705881
C81	C	1.372767	0.265064	1.039214
C82	C	1.035842	-0.619049	0.382242
C83	C	1.369176	-0.285716	0.715575
C84	C	1.702509	0.047618	1.048908
C85	C	1.031714	-0.711713	0.386370
C86	C	1.365047	-0.378379	0.719703
C87	C	1.698380	-0.045046	1.053036
C88	C	1.024149	-0.881370	0.393890
C89	C	1.357482	-0.548037	0.727224
C90	C	1.690815	-0.214703	1.060557
C91	C	1.067058	-0.922683	0.350999
C92	C	1.400391	-0.589350	0.684332
C93	C	1.733724	-0.256017	1.017665
C94	C	1.062848	-1.017086	0.355183
C95	C	1.396182	-0.683753	0.688516
C96	C	1.729515	-0.350420	1.021850
C97	C	1.028357	-0.786958	0.389707
C98	C	1.361690	-0.453625	0.723040
C99	C	1.695024	-0.120292	1.056373
C100	C	1.237483	-0.401616	0.372579
C101	C	1.570816	-0.068282	0.705912
C102	C	1.904149	0.265051	1.039245
C103	C	1.319281	-0.401622	0.372589
C104	C	1.652615	-0.068289	0.705922
C105	C	1.985948	0.265044	1.039255
C106	C	1.045455	-0.401561	0.563759
C107	C	1.378788	-0.068227	0.897093
C108	C	1.712121	0.265106	1.230426
C109	C	1.045488	-0.401571	0.645559
C110	C	1.378822	-0.068238	0.978892
C111	C	1.712155	0.265095	1.312225
C112	C	1.055224	-0.184998	0.362852
C113	C	1.388557	0.148335	0.696186
C114	C	1.721890	0.481668	1.029519
C115	C	1.059495	-0.092335	0.358517
C116	C	1.392828	0.240998	0.691850
C117	C	1.726162	0.574331	1.025184
C118	C	1.045626	-0.401659	0.180604
C119	C	1.378959	-0.068326	0.513938
C120	C	1.712293	0.265007	0.847271
C121	C	1.045667	-0.401684	0.098807
C122	C	1.379000	-0.068351	0.432140
C123	C	1.712333	0.264983	0.765473
C124	C	1.095039	-0.348352	0.831363
C125	C	1.428372	-0.015019	1.164696
C126	C	1.761706	0.318315	1.498030
C127	C	1.095071	-0.348372	0.908223
C128	C	1.428404	-0.015039	1.241556
C129	C	1.761738	0.318294	1.574889
C130	C	0.996114	-0.454909	0.912997
C131	C	1.329447	-0.121576	1.246330
C132	C	1.662780	0.211758	1.579664
C133	C	0.996086	-0.454893	0.836139
C134	C	1.329419	-0.121559	1.169472
C135	C	1.662752	0.211774	1.502806
C136	C	1.045548	-0.401609	0.795324
C137	C	1.378881	-0.068276	1.128657
C138	C	1.712214	0.265057	1.461990
C139	C	1.045607	-0.401646	0.949041
C140	C	1.378941	-0.068313	1.282375
C141	C	1.712274	0.265021	1.615708
C142	C	1.045642	-0.401668	1.032376
C143	C	1.378975	-0.068335	1.365709
C144	C	1.712308	0.264998	1.699043
C145	C	1.045514	-0.401588	0.711984
C146	C	1.378848	-0.068255	1.045317
C147	C	1.712181	0.265079	1.378651
H148	H	0.619906	-0.304691	0.453498
H149	H	0.953239	0.028642	0.786832
H150	H	1.286573	0.361976	1.120165
N151	N	1.148389	-0.290894	0.787336
N152	N	1.481722	0.042439	1.120669
N153	N	1.815055	0.375773	1.454003
H154	H	1.139668	-0.231318	0.798091
H155	H	1.473001	0.102015	1.131424
H156	H	1.806334	0.435348	1.464757
H157	H	1.200362	-0.303976	0.801265
H158	H	1.533696	0.029358	1.134598
H159	H	1.867029	0.362691	1.467932
N160	N	1.148453	-0.290933	0.947094
N161	N	1.481786	0.042401	1.280428
N162	N	1.815119	0.375734	1.613761
H163	H	1.179780	-0.257178	0.909573
H164	H	1.513113	0.076155	1.242907
H165	H	1.846447	0.409488	1.576240
H166	H	1.120257	-0.252329	0.977304
H167	H	1.453591	0.081004	1.310637
H168	H	1.786924	0.414337	1.643971
H169	H	0.955842	-0.498289	0.946238
H170	H	1.289176	-0.164956	1.279572
H171	H	1.622509	0.168377	1.612905
H172	H	0.984256	-0.916897	0.433751
H173	H	1.317589	-0.583564	0.767084
H174	H	1.650923	-0.250230	1.100417
H175	H	0.480464	-0.304708	0.453509
H176	H	0.813797	0.028625	0.786842
H177	H	1.147130	0.361958	1.120176
H178	H	1.106953	-0.887154	0.311135
H179	H	1.440287	-0.553821	0.644468
H180	H	1.773620	-0.220487	0.977802
N181	N	0.942705	-0.512339	0.797262
N182	N	1.276038	-0.179006	1.130595
N183	N	1.609371	0.154328	1.463928
H184	H	0.911371	-0.546092	0.834779
H185	H	1.244704	-0.212758	1.168112
H186	H	1.578038	0.120575	1.501446
H187	H	0.910177	-0.478360	0.763898
H188	H	1.243510	-0.145026	1.097232
H189	H	1.576844	0.188307	1.430565
N190	N	0.461123	-0.512622	0.279832
N191	N	0.794456	-0.179288	0.613166
N192	N	1.127790	0.154045	0.946499
H193	H	0.495636	-0.546454	0.251566
H194	H	0.828969	-0.213121	0.584899
H195	H	1.162303	0.120213	0.918233
H196	H	0.427509	-0.551146	0.311554
H197	H	0.760843	-0.217812	0.644887
H198	H	1.094176	0.115521	0.978220
N199	N	0.620876	-0.512628	0.279827
N200	N	0.954209	-0.179295	0.613161
N201	N	1.287543	0.154039	0.946494
H202	H	0.583372	-0.546464	0.251569
H203	H	0.916705	-0.213130	0.584902
H204	H	1.250039	0.120203	0.918235
H205	H	0.654279	-0.478759	0.244212
H206	H	0.987612	-0.145426	0.577545
H207	H	1.320946	0.187907	0.910879
