data_functionalizedCrystal
_audit_creation_method	'MofGen! by Chris Wilmer'
_symmetry_space_group_name_H-M	'P1'
_symmetry_Int_Tables_number	1
_symmetry_cell_setting	triclinic
loop_
_symmetry_equiv_pos_as_xyz
  x,y,z
_cell_length_a	17.000383
_cell_length_b	17.019294
_cell_length_c	13.101039
_cell_angle_alpha	89.487532
_cell_angle_beta	86.906869
_cell_angle_gamma	79.506204
loop_
_atom_site_label
_atom_site_type_symbol
_atom_site_fract_x
_atom_site_fract_y
_atom_site_fract_z
O1	O	1.060563	0.023661	-0.087373
O2	O	1.393896	0.356994	0.245961
O3	O	1.727229	0.690328	0.579294
O4	O	0.828927	0.052154	-0.089873
O5	O	1.162260	0.385488	0.243460
O6	O	1.495593	0.718821	0.576794
O7	O	0.950689	-0.076820	-0.078495
O8	O	1.284022	0.256514	0.254839
O9	O	1.617356	0.589847	0.588172
O10	O	0.938800	0.152635	-0.098751
O11	O	1.272134	0.485969	0.234582
O12	O	1.605467	0.819302	0.567916
O13	O	0.941953	-0.067552	0.091117
O14	O	1.275286	0.265782	0.424451
O15	O	1.608619	0.599115	0.757784
O16	O	0.820190	0.061423	0.079739
O17	O	1.153524	0.394756	0.413072
O18	O	1.486857	0.728089	0.746406
O19	O	1.051826	0.032929	0.082240
O20	O	1.385160	0.366263	0.415573
O21	O	1.718493	0.699596	0.748906
Zn22	Zn	0.934621	0.048647	0.107919
Zn23	Zn	1.267955	0.381981	0.441252
Zn24	Zn	1.601288	0.715314	0.774586
Zn25	Zn	0.946132	0.036436	-0.115552
Zn26	Zn	1.279465	0.369770	0.217781
Zn27	Zn	1.612798	0.703103	0.551114
O28	O	0.930064	0.161903	0.070861
O29	O	1.263397	0.495237	0.404195
O30	O	1.596731	0.828570	0.737528
C31	C	0.794910	0.058319	-0.005200
C32	C	1.128243	0.391652	0.328133
C33	C	1.461577	0.724986	0.661466
C34	C	0.706567	0.062869	-0.005596
C35	C	1.039900	0.396203	0.327737
C36	C	1.373233	0.729536	0.661070
C37	C	0.206452	0.092249	-0.008228
C38	C	0.539785	0.425582	0.325105
C39	C	0.873118	0.758916	0.658438
C40	C	0.289460	0.087968	-0.007850
C41	C	0.622793	0.421301	0.325484
C42	C	0.956127	0.754634	0.658817
C43	C	0.340202	0.013650	-0.001281
C44	C	0.673535	0.346984	0.332052
C45	C	1.006868	0.680317	0.665386
C46	C	0.307932	-0.056390	0.004899
C47	C	0.641265	0.276943	0.338232
C48	C	0.974598	0.610276	0.671565
C49	C	0.224925	-0.052109	0.004513
C50	C	0.558259	0.281225	0.337846
C51	C	0.891592	0.614558	0.671179
C52	C	0.591290	-0.002889	0.000197
C53	C	0.924624	0.330444	0.333530
C54	C	1.257957	0.663777	0.666864
C55	C	0.674302	-0.007166	0.000586
C56	C	1.007635	0.326167	0.333919
C57	C	1.340968	0.659501	0.667253
C58	C	0.655825	0.137193	-0.012164
C59	C	0.989158	0.470526	0.321169
C60	C	1.322491	0.803859	0.654502
C61	C	0.572817	0.141468	-0.012544
C62	C	0.906150	0.474801	0.320790
C63	C	1.239484	0.808135	0.654123
C64	C	0.540554	0.071427	-0.006369
C65	C	0.873888	0.404761	0.326964
C66	C	1.207221	0.738094	0.660297
C67	C	0.425050	0.009272	-0.000890
C68	C	0.758383	0.342606	0.332443
C69	C	1.091716	0.675939	0.665776
C70	C	0.455708	0.075806	-0.006767
C71	C	0.789042	0.409139	0.326566
C72	C	1.122375	0.742472	0.659899
C73	C	0.945698	-0.101400	0.008888
C74	C	1.279031	0.231933	0.342222
C75	C	1.612365	0.565267	0.675555
C76	C	0.943832	-0.188449	0.016567
C77	C	1.277165	0.144885	0.349900
C78	C	1.610499	0.478218	0.683234
C79	C	0.947719	-0.234392	-0.072281
C80	C	1.281053	0.098941	0.261053
C81	C	1.614386	0.432275	0.594386
C82	C	0.945961	-0.316182	-0.065063
C83	C	1.279294	0.017151	0.268271
C84	C	1.612627	0.350484	0.601604
C85	C	0.940321	-0.352029	0.031004
C86	C	1.273654	-0.018696	0.364337
C87	C	1.606987	0.314638	0.697670
C88	C	0.936431	-0.306079	0.119858
C89	C	1.269764	0.027254	0.453191
C90	C	1.603097	0.360587	0.786525
C91	C	0.938183	-0.224289	0.112639
C92	C	1.271517	0.109044	0.445972
C93	C	1.604850	0.442377	0.779306
C94	C	0.934785	-0.598728	0.057426
C95	C	1.268118	-0.265395	0.390759
C96	C	1.601451	0.067938	0.724093
C97	C	0.933034	-0.680525	0.064638
C98	C	1.266368	-0.347191	0.397972
C99	C	1.599701	-0.013858	0.731305
C100	C	0.942563	-0.690622	-0.120283
C101	C	1.275896	-0.357289	0.213050
C102	C	1.609230	-0.023955	0.546383
C103	C	0.944320	-0.608831	-0.127494
C104	C	1.277654	-0.275498	0.205840
C105	C	1.610987	0.057836	0.539173
C106	C	0.940426	-0.562888	-0.038640
C107	C	1.273759	-0.229554	0.294694
C108	C	1.607093	0.103779	0.628027
C109	C	0.938525	-0.435632	0.038384
C110	C	1.271859	-0.102299	0.371717
C111	C	1.605192	0.231034	0.705051
C112	C	0.942215	-0.479285	-0.046021
C113	C	1.275549	-0.145951	0.287312
C114	C	1.608882	0.187382	0.620646
C115	C	1.085843	0.026765	-0.002435
C116	C	1.419177	0.360098	0.330898
C117	C	1.752510	0.693431	0.664231
C118	C	1.174187	0.022214	-0.002046
C119	C	1.507520	0.355547	0.331287
C120	C	1.840853	0.688880	0.664621
C121	C	0.935055	0.186484	-0.016524
C122	C	1.268389	0.519817	0.316809
C123	C	1.601722	0.853150	0.650143
C124	C	0.936922	0.273532	-0.024209
C125	C	1.270255	0.606865	0.309124
C126	C	1.603588	0.940199	0.642457
N127	N	0.926772	0.056980	0.260432
N128	N	1.260105	0.390314	0.593766
N129	N	1.593438	0.723647	0.927099
N130	N	0.953988	0.028097	-0.268065
N131	N	1.287321	0.361430	0.065268
N132	N	1.620654	0.694763	0.398601
C133	C	0.916092	0.068325	0.468474
C134	C	1.249425	0.401658	0.801807
C135	C	1.582758	0.734991	1.135141
C136	C	0.964665	0.016755	0.523899
C137	C	1.297998	0.350089	0.857233
C138	C	1.631332	0.683422	1.190566
C139	C	0.958723	0.023067	0.639661
C140	C	1.292056	0.356401	0.972994
C141	C	1.625389	0.689734	1.306328
C142	C	0.922033	0.062013	0.352702
C143	C	1.255366	0.395347	0.686035
C144	C	1.588700	0.728680	1.019369
H145	H	0.165142	0.152767	-0.013569
H146	H	0.498476	0.486100	0.319764
H147	H	0.831809	0.819433	0.653097
F148	F	0.323795	0.162509	-0.014435
F149	F	0.657128	0.495842	0.318899
F150	F	0.990462	0.829176	0.652232
H151	H	0.870048	0.117212	0.507958
H152	H	1.203381	0.450546	0.841292
H153	H	1.536714	0.783879	1.174625
H154	H	0.945732	-0.728038	-0.192623
H155	H	1.279065	-0.394704	0.140710
H156	H	1.612399	-0.061371	0.474044
H157	H	1.010713	-0.032135	0.484410
H158	H	1.344047	0.301199	0.817744
H159	H	1.677380	0.634532	1.151077
H160	H	0.531508	0.201985	-0.017895
H161	H	0.864841	0.535318	0.315438
H162	H	1.198174	0.868652	0.648771
F163	F	0.690167	0.211729	-0.018741
F164	F	1.023501	0.545063	0.314593
F165	F	1.356834	0.878396	0.647926
H166	H	0.715615	-0.067687	0.005930
H167	H	1.048948	0.265646	0.339263
H168	H	1.382282	0.598979	0.672597
H169	H	0.931833	-0.335271	0.198077
H170	H	1.265167	-0.001938	0.531411
H171	H	1.598500	0.331396	0.864744
H172	H	0.946802	-0.450094	-0.124238
H173	H	1.280136	-0.116760	0.209095
H174	H	1.613469	0.216573	0.542429
F175	F	0.556966	-0.077435	0.006749
F176	F	0.890299	0.255898	0.340083
F177	F	1.223633	0.589232	0.673416
H178	H	0.349253	-0.116901	0.010241
H179	H	0.682586	0.216432	0.343574
H180	H	1.015919	0.549765	0.676907
F181	F	0.401705	0.154896	-0.013764
F182	F	0.735038	0.488230	0.319569
F183	F	1.068371	0.821563	0.652903
F184	F	0.190587	-0.126650	0.011093
F185	F	0.523921	0.206683	0.344426
F186	F	0.857254	0.540017	0.677759
F187	F	0.927035	-0.718674	0.166890
F188	F	1.260369	-0.385341	0.500223
F189	F	1.593702	-0.052007	0.833557
F190	F	0.953728	-0.196250	-0.174529
F191	F	1.287061	0.137083	0.158805
F192	F	1.620394	0.470416	0.492138
F193	F	0.479059	-0.069819	0.006109
F194	F	0.812392	0.263514	0.339442
F195	F	1.145726	0.596848	0.672775
H196	H	0.949130	-0.353587	-0.137412
H197	H	1.282463	-0.020254	0.195921
H198	H	1.615796	0.313080	0.529255
H199	H	0.935007	-0.186881	0.184988
H200	H	1.268340	0.146453	0.518321
H201	H	1.601673	0.479786	0.851655
F202	F	0.950325	-0.570687	-0.229741
F203	F	1.283658	-0.237354	0.103592
F204	F	1.616992	0.095980	0.436926
H205	H	0.931629	-0.561334	0.129778
H206	H	1.264963	-0.228000	0.463111
H207	H	1.598296	0.105333	0.796444
H208	H	0.933936	-0.464828	0.116602
H209	H	1.267269	-0.131495	0.449935
H210	H	1.600602	0.201838	0.783269
