data_functionalizedCrystal
_audit_creation_method	'MofGen! by Chris Wilmer'
_symmetry_space_group_name_H-M	'P1'
_symmetry_Int_Tables_number	1
_symmetry_cell_setting	triclinic
loop_
_symmetry_equiv_pos_as_xyz
  x,y,z
_cell_length_a	14.044220
_cell_length_b	16.109301
_cell_length_c	14.586319
_cell_angle_alpha	90.000787
_cell_angle_beta	89.995213
_cell_angle_gamma	91.674821
loop_
_atom_site_label
_atom_site_type_symbol
_atom_site_fract_x
_atom_site_fract_y
_atom_site_fract_z
O1	O	0.121835	-1.112195	-0.076185
O2	O	0.136997	-0.871261	-0.076199
O3	O	-0.008568	-0.988112	-0.076183
O4	O	0.267399	-0.995345	-0.076201
O5	O	-0.008570	-0.988103	0.076298
O6	O	0.136995	-0.871252	0.076281
O7	O	0.121832	-1.112186	0.076296
Cu8	Cu	0.129413	-0.991719	0.090212
Cu9	Cu	0.129416	-0.991729	-0.090115
O10	O	0.267397	-0.995336	0.076280
C11	C	0.136381	-0.840236	0.000039
C12	C	0.134540	-0.747804	0.000034
C13	C	-0.043882	-0.984941	0.000058
C14	C	-0.149105	-0.975498	0.000058
C15	C	0.122448	-1.143211	0.000056
C16	C	0.124289	-1.235644	0.000055
C17	C	-0.341761	-0.958232	0.000044
C18	C	-0.399415	-1.025212	0.000045
C19	C	-0.506616	-1.015605	0.000037
C20	C	-0.234551	-0.967838	0.000052
C21	C	0.302711	-0.998506	0.000037
C22	C	0.407934	-1.007950	0.000031
N23	N	0.129411	-0.991717	0.217043
C24	C	0.216634	-0.531640	0.000039
C25	C	0.214896	-0.444790	0.000045
C26	C	0.042189	-0.451815	0.000052
C27	C	0.043927	-0.538663	0.000053
C28	C	0.131153	-0.578573	0.000042
C29	C	0.127677	-0.404875	0.000047
C30	C	0.125792	-0.310709	0.000054
C31	C	0.133038	-0.672745	0.000037
N32	N	0.129411	-0.991737	-0.216946
C33	C	0.064976	-1.043479	0.452057
C34	C	0.064974	-1.043481	0.548038
C35	C	0.193848	-0.939969	0.548033
C36	C	0.193845	-0.939963	0.452054
C37	C	0.129410	-0.991723	0.404068
C38	C	0.129411	-0.991731	0.596029
C39	C	0.129409	-0.991733	0.700096
C40	C	0.129411	-0.991720	0.299994
H41	H	-0.368264	-1.089769	-0.000012
H42	H	0.287658	-0.564132	0.000037
H43	H	0.012509	-1.085623	0.412989
H44	H	0.012505	-1.085624	0.587108
H45	H	-0.028827	-0.419309	0.000067
Br46	Br	0.281294	-0.869728	0.613160
H47	H	0.246315	-0.897813	0.412979
Br48	Br	-0.393679	-0.850637	0.000029
Br49	Br	-0.072091	-0.602364	0.000068
Br50	Br	0.330912	-0.381097	0.000046
