data_functionalizedCrystal
_audit_creation_method	'MofGen! by Chris Wilmer'
_symmetry_space_group_name_H-M	'P1'
_symmetry_Int_Tables_number	1
_symmetry_cell_setting	triclinic
loop_
_symmetry_equiv_pos_as_xyz
  x,y,z
_cell_length_a	10.540535
_cell_length_b	15.944493
_cell_length_c	9.616153
_cell_angle_alpha	90.003613
_cell_angle_beta	89.995499
_cell_angle_gamma	83.999343
loop_
_atom_site_label
_atom_site_type_symbol
_atom_site_fract_x
_atom_site_fract_y
_atom_site_fract_z
O1	O	1.684247	0.118355	-0.115550
O2	O	1.314678	0.129512	-0.115567
O3	O	1.509593	0.001715	-0.115569
O4	O	1.489332	0.246151	-0.115547
O5	O	1.509566	0.001718	0.115722
O6	O	1.314651	0.129514	0.115724
O7	O	1.684220	0.118357	0.115742
Zn8	Zn	1.499431	0.123936	0.152456
Zn9	Zn	1.499466	0.123933	-0.152281
O10	O	1.489305	0.246154	0.115744
C11	C	1.267373	0.128677	0.000076
C12	C	1.126459	0.126176	0.000068
C13	C	1.091089	0.032869	0.000066
C14	C	0.944525	0.030237	0.000604
C15	C	0.916515	0.168771	0.131910
C16	C	1.063253	0.170756	0.132008
C17	C	1.063148	0.172111	-0.131023
C18	C	0.916862	0.167795	-0.132742
C19	C	1.508751	-0.029583	0.000070
C20	C	1.506269	-0.122846	0.000052
C21	C	1.621000	-0.357924	0.000084
C22	C	1.559143	-0.408861	-0.113957
C23	C	1.501668	-0.293595	0.000069
C24	C	1.559089	-0.408835	0.114079
C25	C	1.497234	-0.458531	0.000092
C26	C	1.439843	-0.343304	-0.114066
C27	C	1.439807	-0.343274	0.114072
C28	C	1.377862	-0.394179	0.000003
C29	C	1.504226	-0.198580	0.000055
C30	C	1.494666	-0.553543	0.000096
C31	C	1.731525	0.119192	0.000096
C32	C	1.872438	0.121693	0.000094
C33	C	1.490147	0.277452	0.000101
C34	C	1.492629	0.370715	0.000110
N35	N	1.499417	0.123938	0.360430
N36	N	1.499491	0.123924	-0.360255
C37	C	1.394838	0.192071	0.580801
C38	C	1.395062	0.192327	0.419634
C39	C	1.631863	0.143876	0.418888
C40	C	1.631291	0.144358	0.580106
C41	C	1.472874	0.035644	0.580332
C42	C	1.469820	0.036216	0.419105
H43	H	1.085330	0.239158	0.137646
C44	C	0.906750	-0.019244	0.129005
H45	H	0.981022	-0.037806	0.181049
H46	H	0.866075	-0.066678	0.099824
H47	H	0.849862	0.016238	0.185382
C48	C	1.238903	-0.415909	-0.000085
H49	H	1.196723	-0.393258	-0.081168
H50	H	1.196214	-0.392456	0.080154
H51	H	1.238048	-0.475427	0.000675
C52	C	1.371759	-0.304555	0.244311
H53	H	1.301252	-0.266091	0.216919
H54	H	1.429667	-0.275591	0.297088
H55	H	1.342357	-0.348102	0.299272
H56	H	1.609549	-0.437508	-0.210366
C57	C	1.371829	-0.304790	-0.244461
H58	H	1.341804	-0.348374	-0.298846
H59	H	1.429952	-0.276314	-0.297768
H60	H	1.301753	-0.265926	-0.217207
C61	C	1.566086	-0.035589	0.364675
H62	H	1.545902	-0.087799	0.401770
H63	H	1.649743	-0.025871	0.392619
H64	H	1.561989	-0.037401	0.266045
C65	C	1.261412	0.176119	0.633204
H66	H	1.199623	0.217915	0.596446
H67	H	1.259702	0.178651	0.731890
H68	H	1.242586	0.121943	0.603577
H69	H	1.609498	-0.437465	0.210485
H70	H	1.103855	0.138964	0.230914
H71	H	1.296612	0.180331	0.380113
C72	C	1.338209	0.015790	0.367495
H73	H	1.320852	-0.037347	0.403342
H74	H	1.338062	0.013906	0.268760
H75	H	1.274510	0.058210	0.398562
C76	C	0.905595	-0.019512	-0.127003
H77	H	0.979418	-0.038295	-0.179637
H78	H	0.848332	0.015872	-0.183088
H79	H	0.865039	-0.066825	-0.096999
H80	H	1.411598	0.257197	0.621307
C81	C	1.121056	0.132774	-0.266043
H82	H	1.184393	0.087963	-0.243724
H83	H	1.158632	0.174483	-0.317848
H84	H	1.055865	0.111587	-0.319842
C85	C	1.418016	0.280803	0.367515
H86	H	1.427252	0.316727	0.444873
H87	H	1.347512	0.303202	0.312689
H88	H	1.493471	0.277064	0.312845
H89	H	0.868220	0.236108	0.136447
H90	H	1.654749	0.208765	0.617701
H91	H	0.888748	0.133535	-0.230262
H92	H	1.711590	0.095596	0.380535
C93	C	1.739644	0.079913	0.632784
H94	H	1.783823	0.053559	0.555651
H95	H	1.704759	0.038425	0.687684
H96	H	1.797213	0.108006	0.687496
H97	H	1.655873	0.207555	0.378505
C98	C	1.575955	-0.032884	0.631831
H99	H	1.559365	-0.086083	0.595582
H100	H	1.574721	-0.034806	0.730550
H101	H	1.657378	-0.020039	0.601112
C102	C	1.148503	-0.015549	-0.127590
H103	H	1.194565	0.020703	-0.182031
H104	H	1.081894	-0.034594	-0.181887
H105	H	1.204509	-0.062625	-0.097597
C106	C	1.150430	-0.014726	0.127570
H107	H	1.196664	0.022021	0.180808
H108	H	1.206544	-0.061719	0.097463
H109	H	1.084680	-0.033827	0.183119
H110	H	0.886051	0.136474	0.230380
H111	H	1.378402	0.016668	0.621062
H112	H	0.866885	0.234542	-0.141105
H113	H	1.084377	0.240762	-0.132292
H114	H	1.723789	-0.341683	-0.000026
