data_functionalizedCrystal
_audit_creation_method	'MofGen! by Chris Wilmer'
_symmetry_space_group_name_H-M	'P1'
_symmetry_Int_Tables_number	1
_symmetry_cell_setting	triclinic
loop_
_symmetry_equiv_pos_as_xyz
  x,y,z
_cell_length_a	13.033293
_cell_length_b	18.101397
_cell_length_c	18.101389
_cell_angle_alpha	89.975007
_cell_angle_beta	82.792788
_cell_angle_gamma	97.189579
loop_
_atom_site_label
_atom_site_type_symbol
_atom_site_fract_x
_atom_site_fract_y
_atom_site_fract_z
Zn1	Zn	1.597709	-0.151247	-0.562770
Zn2	Zn	2.097709	0.348753	-0.062770
Zn3	Zn	1.597601	-0.275091	-0.438913
Zn4	Zn	2.097601	0.224909	0.061087
Zn5	Zn	1.422951	-0.166969	-0.423186
Zn6	Zn	1.922951	0.333031	0.076814
Zn7	Zn	1.422908	-0.290766	-0.546963
Zn8	Zn	1.922908	0.209234	-0.046963
O9	O	1.510292	-0.221018	-0.492958
O10	O	2.010292	0.278982	0.007042
O11	O	1.743942	-0.154536	-0.559537
O12	O	2.243942	0.345464	-0.059537
O13	O	1.574406	-0.260768	-0.333191
O14	O	2.074406	0.239232	0.166809
O15	O	1.446196	-0.061245	-0.441736
O16	O	1.946196	0.438755	0.058264
O17	O	1.743862	-0.245524	-0.468540
O18	O	2.243862	0.254476	0.031460
O19	O	1.574591	-0.049694	-0.544288
O20	O	2.074591	0.450306	-0.044288
O21	O	1.446091	-0.181331	-0.321637
O22	O	1.946091	0.318669	0.178363
O23	O	1.276698	-0.196530	-0.426408
O24	O	1.776698	0.303470	0.073592
O25	O	1.446123	-0.272239	-0.652695
O26	O	1.946123	0.227761	-0.152695
O27	O	1.276666	-0.287483	-0.517346
O28	O	1.776666	0.212517	-0.017346
O29	O	1.574549	-0.169735	-0.664308
O30	O	2.074549	0.330265	-0.164308
O31	O	1.574364	-0.380809	-0.453212
O32	O	2.074364	0.119191	0.046788
O33	O	1.446018	-0.392325	-0.532596
O34	O	1.946018	0.107675	-0.032596
C35	C	1.238762	-0.245414	-0.468456
C36	C	1.738762	0.254586	0.031544
C37	C	1.122600	-0.255869	-0.457991
C38	C	1.622600	0.244131	0.042009
C39	C	1.070851	-0.215581	-0.498419
C40	C	1.570851	0.284419	0.001581
C41	C	0.950791	-0.226385	-0.487605
C42	C	1.450791	0.273615	0.012395
C43	C	1.510203	-0.413437	-0.492914
C44	C	2.010203	0.086563	0.007086
C45	C	1.510260	-0.495746	-0.492928
C46	C	2.010260	0.004254	0.007072
C47	C	1.510393	-0.794825	-0.493008
C48	C	2.010393	-0.294825	0.006992
C49	C	1.590920	-0.756243	-0.442888
C50	C	2.090920	-0.256243	0.057112
C51	C	1.591199	-0.670600	-0.443062
C52	C	2.091199	-0.170600	0.056938
C53	C	1.510327	-0.646448	-0.492968
C54	C	2.010327	-0.146448	0.007032
C55	C	1.540179	-0.674779	-0.573720
C56	C	2.040179	-0.174779	-0.073720
C57	C	1.540802	-0.760368	-0.573464
C58	C	2.040802	-0.260368	-0.073464
C59	C	1.399800	-0.773274	-0.463032
C60	C	1.899800	-0.273274	0.036968
C61	C	1.400346	-0.687575	-0.461339
C62	C	1.900346	-0.187575	0.038661
C63	C	1.510288	-0.562592	-0.492950
C64	C	2.010288	-0.062592	0.007050
C65	C	1.510435	-0.878680	-0.493032
C66	C	2.010435	-0.378680	0.006968
C67	C	1.782883	-0.196528	-0.517556
C68	C	2.282883	0.303472	-0.017556
C69	C	1.899045	-0.186091	-0.528038
C70	C	2.399045	0.313909	-0.028038
C71	C	1.510343	-0.220982	-0.686124
C72	C	2.010343	0.279018	-0.186124
C73	C	1.510365	-0.220966	-0.768441
C74	C	2.010365	0.279034	-0.268441
C75	C	1.510410	-0.027846	-0.493021
C76	C	2.010410	0.472154	0.006979
C77	C	1.510461	0.054473	-0.493048
C78	C	2.010461	0.554473	0.006952
C79	C	1.510404	-0.220905	-0.919153
C80	C	2.010404	0.279095	-0.419153
C81	C	1.429615	-0.285385	-0.943201
C82	C	1.929615	0.214615	-0.443201
C83	C	1.429321	-0.285210	-1.028792
C84	C	1.929321	0.214790	-0.528792
C85	C	1.510443	-0.220846	-1.067539
C86	C	2.010443	0.279154	-0.567539
C87	C	1.480947	-0.145403	-1.033801
C88	C	1.980947	0.354597	-0.533801
C89	C	1.480338	-0.145821	-0.948101
C90	C	1.980338	0.354179	-0.448101
C91	C	1.620902	-0.231155	-0.960682
C92	C	2.120902	0.268845	-0.460682
C93	C	1.620332	-0.232895	-1.046281
C94	C	2.120332	0.267105	-0.546281
C95	C	1.510466	-0.220808	-1.151400
C96	C	2.010466	0.279192	-0.651400
C97	C	1.510378	-0.220938	-0.835291
C98	C	2.010378	0.279062	-0.335291
C99	C	1.510301	-0.220996	-0.300548
C100	C	2.010301	0.279004	0.199452
C101	C	1.510482	-0.220785	-0.218251
C102	C	2.010482	0.279215	0.281749
H103	H	1.572524	-0.651311	-0.383498
H104	H	2.072524	-0.151311	0.116502
H105	H	0.943618	-0.143593	-0.570656
H106	H	1.443618	0.356407	-0.070656
Br107	Br	1.293920	-0.275556	-0.895102
Br108	Br	1.793920	0.224444	-0.395102
Br109	Br	1.721223	-0.152683	-0.935953
Br110	Br	2.221223	0.347317	-0.435953
H111	H	1.447801	-0.341848	-0.924241
H112	H	1.947801	0.158152	-0.424241
H113	H	1.399579	-0.136003	-0.920844
H114	H	1.899579	0.363997	-0.420844
Br115	Br	1.145141	-0.144753	-0.569451
Br116	Br	1.645141	0.355247	-0.069451
Br117	Br	1.574183	-0.063885	-0.922011
Br118	Br	2.074183	0.436115	-0.422011
H119	H	1.372642	-0.797370	-0.404649
H120	H	1.872642	-0.297370	0.095351
Br121	Br	0.876505	-0.297205	-0.416559
Br122	Br	1.376505	0.202795	0.083441
Br123	Br	1.299797	-0.816048	-0.523670
Br124	Br	1.799797	-0.316048	-0.023670
Br125	Br	1.048310	-0.326686	-0.386949
Br126	Br	1.548310	0.173314	0.113051
Br127	Br	1.362820	-0.657171	-0.362209
Br128	Br	1.862820	-0.157171	0.137791
Br129	Br	1.560179	-0.793406	-0.343352
Br130	Br	2.060179	-0.293406	0.156648
Br131	Br	1.726719	-0.779815	-0.476936
Br132	Br	2.226719	-0.279815	0.023064
H133	H	1.347455	-0.279176	-1.041900
H134	H	1.847455	0.220824	-0.541900
Br135	Br	1.460006	-0.378958	-1.066586
Br136	Br	1.960006	0.121042	-0.566586
H137	H	1.337121	-0.671877	-0.494370
H138	H	1.837121	-0.171877	0.005630
H139	H	1.621641	-0.773022	-0.597698
H140	H	2.121641	-0.273022	-0.097698
Br141	Br	1.727740	-0.624080	-0.477437
Br142	Br	2.227740	-0.124080	0.022563
Br143	Br	1.447278	-0.803334	-0.638709
Br144	Br	1.947278	-0.303334	-0.138709
H145	H	1.683728	-0.188569	-1.073396
H146	H	2.183728	0.311431	-0.573396
H147	H	1.483320	-0.659536	-0.612496
H148	H	1.983320	-0.159536	-0.112496
H149	H	1.620112	-0.646088	-0.598159
H150	H	2.120112	-0.146088	-0.098159
Br151	Br	1.576033	-0.063826	-1.076304
Br152	Br	2.076033	0.436174	-0.576304
Br153	Br	1.347840	-0.128384	-1.057548
Br154	Br	1.847840	0.371616	-0.557548
H155	H	1.647812	-0.284733	-0.941504
H156	H	2.147812	0.215267	-0.441504
H157	H	1.642578	-0.288370	-1.068596
H158	H	2.142578	0.211630	-0.568596
