data_functionalizedCrystal
_audit_creation_method	'MofGen! by Chris Wilmer'
_symmetry_space_group_name_H-M	'P1'
_symmetry_Int_Tables_number	1
_symmetry_cell_setting	triclinic
loop_
_symmetry_equiv_pos_as_xyz
  x,y,z
_cell_length_a	15.072220
_cell_length_b	15.995350
_cell_length_c	13.262508
_cell_angle_alpha	83.981171
_cell_angle_beta	74.092822
_cell_angle_gamma	89.990384
loop_
_atom_site_label
_atom_site_type_symbol
_atom_site_fract_x
_atom_site_fract_y
_atom_site_fract_z
O1	O	0.041056	1.111447	0.135294
O2	O	0.037043	0.867731	0.151999
O3	O	0.075915	0.995716	-0.009135
O4	O	0.002184	0.983462	0.296429
O5	O	-0.071643	0.995732	-0.009164
O6	O	-0.110516	0.867747	0.151971
O7	O	-0.106502	1.111464	0.135266
Zn8	Zn	-0.131937	0.989608	0.143614
Zn9	Zn	0.062477	0.989587	0.143651
O10	O	-0.145374	0.983479	0.296401
C11	C	-0.036567	0.836542	0.151295
C12	C	-0.036061	0.743584	0.149224
N13	N	-0.264620	0.989629	0.143588
N14	N	0.195162	0.989572	0.143669
C15	C	0.554377	0.989610	0.143614
C16	C	0.495947	0.921201	0.229928
C17	C	0.393171	0.920945	0.229722
C18	C	0.376166	0.989591	0.143642
C19	C	0.439920	0.970354	0.034044
C20	C	0.542659	0.969873	0.034534
C21	C	0.511073	1.077456	0.165920
C22	C	0.407605	1.076868	0.168425
C23	C	0.275450	0.989582	0.143651
C24	C	0.655094	0.989617	0.143598
C25	C	-0.034285	0.405811	0.141788
C26	C	-0.006924	0.452841	0.027031
C27	C	-0.007085	0.549539	0.029102
C28	C	-0.035167	0.573384	0.145477
C29	C	0.035435	0.532487	0.202095
C30	C	0.036195	0.435841	0.199212
C31	C	-0.132178	0.435529	0.201551
C32	C	-0.133279	0.532474	0.201524
C33	C	-0.035663	0.668089	0.147567
C34	C	-0.033783	0.311105	0.139701
C35	C	0.011573	0.995036	-0.048251
C36	C	0.039692	0.992974	-0.164761
C37	C	-0.032890	1.142653	0.135970
C38	C	-0.033391	1.235610	0.138041
C39	C	-0.202790	0.987195	-0.493259
C40	C	-0.229211	0.989125	-0.383790
C41	C	-0.161988	0.990088	-0.329028
C42	C	-0.068339	0.989119	-0.383744
C43	C	-0.041916	0.987182	-0.493222
C44	C	-0.001113	0.990075	-0.328991
C45	C	0.092536	0.989107	-0.383707
C46	C	0.118954	0.987171	-0.493174
C47	C	0.051731	0.986208	-0.547937
C48	C	-0.027536	0.992012	-0.219513
C49	C	0.133339	0.992000	-0.219476
C50	C	0.159759	0.990070	-0.328944
C51	C	-0.081030	0.984159	0.335516
C52	C	-0.109144	0.986220	0.452026
H53	H	0.348293	0.932427	0.311181
H54	H	0.109142	0.417380	0.157947
H55	H	0.363780	1.091455	0.249059
H56	H	-0.186993	0.414868	0.164022
F57	F	-0.071438	0.428426	-0.032941
H58	H	0.419006	0.907014	0.013960
F59	F	-0.159610	0.394404	0.312142
H60	H	-0.183505	0.991658	-0.239894
H61	H	0.188078	0.992778	-0.174888
F62	F	0.129800	0.569381	0.150727
H63	H	-0.305459	0.989922	-0.339250
H64	H	-0.257514	0.986405	-0.537855
F65	F	0.580213	0.886127	0.008904
F66	F	0.502526	0.935967	0.336749
F67	F	0.218623	0.986129	-0.551403
H68	H	0.525199	0.856383	0.215851
F69	F	0.392525	1.146540	0.091620
H70	H	0.073238	0.984641	-0.637076
F71	F	0.562708	1.143999	0.083657
H72	H	0.431320	1.018844	-0.031734
F73	F	0.520331	1.101572	0.268155
F74	F	0.596042	1.032508	-0.051956
H75	H	0.372017	0.855757	0.215449
F76	F	-0.072000	0.586504	-0.029069
F77	F	0.086018	0.427008	-0.032641
F78	F	0.012584	0.551360	0.313839
H79	H	0.064229	0.577232	-0.015679
F80	F	0.014621	0.394074	0.309335
F81	F	-0.201703	0.567914	0.147416
F82	F	-0.166698	0.552943	0.312450
H83	H	-0.103786	0.992793	-0.174973
H84	H	0.236010	0.989280	-0.373510
