data_functionalizedCrystal
_audit_creation_method	'MofGen! by Chris Wilmer'
_symmetry_space_group_name_H-M	'P1'
_symmetry_Int_Tables_number	1
_symmetry_cell_setting	triclinic
loop_
_symmetry_equiv_pos_as_xyz
  x,y,z
_cell_length_a	15.538191
_cell_length_b	23.532407
_cell_length_c	14.750779
_cell_angle_alpha	77.433997
_cell_angle_beta	97.572172
_cell_angle_gamma	65.060386
loop_
_atom_site_label
_atom_site_type_symbol
_atom_site_fract_x
_atom_site_fract_y
_atom_site_fract_z
O1	O	1.231045	-0.168713	-0.079813
O2	O	0.956168	-0.102826	-0.079822
O3	O	1.101900	-0.220390	-0.079800
O4	O	1.085313	-0.051149	-0.079835
O5	O	1.143097	-0.253621	0.079857
O6	O	0.997364	-0.136057	0.079835
O7	O	1.272242	-0.201944	0.079843
Zn8	Zn	1.141344	-0.174277	0.105188
Zn9	Zn	1.087066	-0.130493	-0.105166
O10	O	1.126510	-0.084380	0.079821
C11	C	0.941606	-0.112548	0.000006
C12	C	0.836839	-0.092014	0.000003
C13	C	0.550965	-0.296010	0.000031
C14	C	0.452517	-0.276701	0.000026
C15	C	0.429052	-0.168092	0.000004
C16	C	0.527501	-0.187393	0.000013
C17	C	0.588450	-0.251353	0.000026
C18	C	0.564986	-0.142735	0.000008
C19	C	0.663425	-0.162034	0.000012
C20	C	0.724379	-0.225990	0.000022
C21	C	0.686889	-0.270651	0.000030
C22	C	0.504034	-0.078774	-0.000012
C23	C	0.541519	-0.034116	-0.000017
C24	C	0.639961	-0.053416	-0.000006
C25	C	0.700915	-0.117373	0.000004
C26	C	0.677451	-0.008755	-0.000014
C27	C	0.775891	-0.028054	-0.000010
C28	C	0.799354	-0.136672	0.000008
C29	C	1.122077	-0.258136	0.000031
C30	C	1.120810	-0.321097	0.000038
C31	C	1.199074	-0.736103	-0.000012
C32	C	1.197893	-0.795262	-0.000019
O33	O	1.270448	-0.846752	-0.000052
N34	N	1.111258	-0.800275	-0.000021
C35	C	1.025796	-0.746122	-0.000026
O36	O	0.951997	-0.755818	-0.000029
C37	C	1.026976	-0.686963	-0.000025
C38	C	1.113619	-0.681957	-0.000013
C39	C	1.285710	-0.731095	-0.000001
C40	C	1.286891	-0.671940	0.000008
C41	C	1.201436	-0.617794	0.000006
C42	C	1.114800	-0.622802	-0.000004
C43	C	0.941513	-0.632810	-0.000037
C44	C	0.942701	-0.573649	-0.000037
C45	C	1.029344	-0.568643	-0.000025
C46	C	1.030526	-0.509501	0.000003
N47	N	1.117161	-0.504489	0.000005
C48	C	1.202616	-0.558635	0.000007
C49	C	1.023324	-0.870362	-0.000028
C50	C	1.022144	-0.929521	-0.000022
C51	C	1.194241	-0.978656	-0.000017
C52	C	1.195421	-0.919497	-0.000017
C53	C	1.109959	-0.865349	-0.000026
C54	C	1.205090	-0.434404	0.000027
C55	C	1.206264	-0.375243	0.000040
C56	C	1.034167	-0.326112	0.000030
C57	C	1.032993	-0.385268	0.000022
C58	C	1.118461	-0.439415	0.000017
O59	O	0.958008	-0.457984	0.000032
O60	O	1.276399	-0.548925	-0.000002
C61	C	1.286804	-0.192222	0.000014
C62	C	1.391568	-0.212754	0.000010
C63	C	1.106332	-0.046633	-0.000012
C64	C	1.107598	0.016329	-0.000025
N65	N	1.178395	-0.204160	0.248749
N66	N	1.050023	-0.100616	-0.248728
C67	C	0.946546	-0.017183	0.600532
C68	C	0.972516	-0.038120	0.701035
C69	C	1.101588	-0.142200	0.701018
C70	C	1.075626	-0.121272	0.600512
C71	C	0.998105	-0.058763	0.550278
C72	C	1.127185	-0.162853	0.550258
C73	C	1.101228	-0.141925	0.449762
C74	C	1.023713	-0.079417	0.399520
C75	C	0.972148	-0.037835	0.449781
C76	C	1.204710	-0.225360	0.600495
C77	C	1.256269	-0.266941	0.550240
C78	C	1.230308	-0.246015	0.449742
C79	C	1.152792	-0.183507	0.399500
C80	C	1.281872	-0.287597	0.399480
C81	C	1.255915	-0.266669	0.298984
C82	C	1.126836	-0.162579	0.299004
H83	H	0.422002	-0.313071	0.000029
H84	H	0.848985	-0.188755	0.000024
H85	H	0.423878	-0.063063	-0.000018
O86	O	1.368630	-0.783743	-0.000041
C87	C	1.443137	-0.896673	0.000029
C88	C	1.349145	-0.837097	0.000043
H89	H	1.427422	-0.939829	0.000117
H90	H	1.468570	-0.883284	-0.066799
H91	H	1.503031	-0.911023	0.066833
H92	H	1.289187	-0.822717	-0.066716
H93	H	1.323796	-0.850519	0.066915
O94	O	0.618233	0.053416	-0.000203
C95	C	0.546765	0.169372	-0.082915
C96	C	0.613833	0.098997	-0.082830
H97	H	0.543202	0.206245	-0.149701
H98	H	0.469933	0.175545	-0.082986
H99	H	0.577566	0.178426	-0.016072
H100	H	0.583120	0.089896	-0.149661
H101	H	0.690656	0.092859	-0.082709
O102	O	0.871132	0.043488	0.551685
C103	C	0.712855	0.105848	0.438201
C104	C	0.798178	0.037104	0.493476
H105	H	0.653859	0.100711	0.391111
H106	H	0.680377	0.131988	0.491339
H107	H	0.741204	0.135746	0.391181
H108	H	0.769906	0.007153	0.540498
H109	H	0.830642	0.011016	0.440286
H110	H	1.002583	-0.062378	0.317689
H111	H	0.806413	0.008309	-0.000005
O112	O	0.948860	-0.390192	-0.000109
C113	C	0.826273	-0.411194	-0.082877
C114	C	0.921571	-0.405660	-0.082825
H115	H	0.804170	-0.423686	-0.149756
H116	H	0.838631	-0.451604	-0.016115
H117	H	0.765427	-0.362336	-0.082825
H118	H	0.982463	-0.454486	-0.082911
H119	H	0.909132	-0.365218	-0.149581
H120	H	0.804531	-0.241700	0.000013
H121	H	0.736519	-0.322735	0.000046
O122	O	1.051631	-0.101808	0.250238
C123	C	0.987413	0.015229	0.219516
C124	C	1.072652	-0.053549	0.274787
H125	H	1.004368	0.054264	0.239359
H126	H	0.977720	0.023092	0.139046
H127	H	0.917003	0.019244	0.239276
H128	H	1.143111	-0.057613	0.255108
H129	H	1.082258	-0.061382	0.355243
O130	O	0.369838	-0.105921	-0.000178
C131	C	0.298371	0.010037	-0.082872
C132	C	0.365432	-0.060335	-0.082801
H133	H	0.294804	0.046914	-0.149656
H134	H	0.221539	0.016211	-0.082938
H135	H	0.329180	0.019085	-0.016027
H136	H	0.334711	-0.069430	-0.149635
H137	H	0.442255	-0.066474	-0.082685
O138	O	1.305904	-0.307101	0.250168
C139	C	1.354255	-0.411310	0.219337
C140	C	1.297588	-0.365597	0.274688
H141	H	1.347568	-0.458619	0.239156
H142	H	1.322356	-0.385628	0.138880
H143	H	1.434860	-0.423541	0.239050
H144	H	1.216976	-0.353351	0.255055
H145	H	1.329567	-0.391303	0.355132
O146	O	1.290505	-0.370484	0.000005
C147	C	1.461090	-0.425485	0.000064
C148	C	1.365755	-0.430959	0.000084
H149	H	1.521959	-0.474376	0.000149
H150	H	1.448767	-0.385134	-0.066763
H151	H	1.483135	-0.412901	0.066869
H152	H	1.343657	-0.443565	-0.066675
H153	H	1.378129	-0.471295	0.066956
O154	O	1.288085	-0.487068	0.000154
C155	C	1.408023	-0.599585	0.082902
C156	C	1.314015	-0.539998	0.082858
H157	H	1.429028	-0.642389	0.149771
H158	H	1.394571	-0.614650	0.016129
H159	H	1.470111	-0.585808	0.082866
H160	H	1.251882	-0.553725	0.082928
H161	H	1.327549	-0.524946	0.149625
H162	H	0.909017	0.013064	0.408878
H163	H	0.491880	0.017961	-0.000031
O164	O	1.371071	-0.667080	0.000176
C165	C	1.493613	-0.646000	0.082849
C166	C	1.398286	-0.651494	0.082796
H167	H	1.515634	-0.633385	0.149630
H168	H	1.554533	-0.694864	0.082906
H169	H	1.481203	-0.605635	0.016001
H170	H	1.410600	-0.691832	0.149633
H171	H	1.337398	-0.602603	0.082689
H172	H	1.265973	-0.915427	-0.000008
H173	H	1.263822	-1.022753	-0.000020
O174	O	0.859585	-0.521068	-0.000172
C175	C	0.691533	-0.443722	-0.082929
C176	C	0.785584	-0.503277	-0.082886
H177	H	0.631685	-0.429312	-0.149805
H178	H	0.666027	-0.457136	-0.016164
H179	H	0.707287	-0.400597	-0.082876
H180	H	0.769907	-0.546428	-0.082972
H181	H	0.811063	-0.489810	-0.149644
O182	O	0.922288	0.002343	0.749704
C183	C	0.791545	0.107805	0.739114
C184	C	0.848328	0.062045	0.683878
H185	H	0.731749	0.156089	0.685918
H186	H	0.756713	0.083143	0.786147
H187	H	0.844191	0.118074	0.786183
H188	H	0.795746	0.051759	0.636757
H189	H	0.883175	0.086730	0.636906
H190	H	0.951595	-0.933593	-0.000015
H191	H	0.964593	-0.282016	0.000032
O192	O	0.940227	-0.817837	0.000019
C193	C	0.769394	-0.775348	-0.000038
C194	C	0.863435	-0.834882	-0.000066
H195	H	0.707278	-0.789103	-0.000127
H196	H	0.782820	-0.760336	0.066796
H197	H	0.748450	-0.732509	-0.066836
H198	H	0.884431	-0.877760	0.066687
H199	H	0.849959	-0.849838	-0.066944
H200	H	1.164709	-0.193095	0.741930
O201	O	0.610260	-0.358171	0.000218
C202	C	0.756397	-0.460196	0.082923
C203	C	0.689320	-0.389824	0.082843
H204	H	0.820343	-0.485804	0.149707
H205	H	0.712760	-0.488847	0.082994
H206	H	0.785778	-0.458018	0.016079
H207	H	0.659922	-0.391942	0.149676
H208	H	0.733001	-0.361202	0.082722
O209	O	0.857369	-0.637712	-0.000186
C210	C	0.734763	-0.658692	-0.082967
C211	C	0.830079	-0.653182	-0.082900
H212	H	0.712658	-0.671186	-0.149844
H213	H	0.747095	-0.699093	-0.016203
H214	H	0.673928	-0.609825	-0.082929
H215	H	0.890960	-0.702017	-0.082971
H216	H	0.817666	-0.612750	-0.149658
H217	H	1.225844	-0.242396	0.682325
O218	O	1.331515	-0.327651	0.599191
C219	C	1.428748	-0.406009	0.754001
C220	C	1.343499	-0.337242	0.698688
H221	H	1.438478	-0.413780	0.834455
H222	H	1.411793	-0.445088	0.734324
H223	H	1.499138	-0.410049	0.734164
H224	H	1.273074	-0.333137	0.718496
H225	H	1.360539	-0.298196	0.718371
O226	O	1.357123	-0.348305	0.448433
C227	C	1.454366	-0.426655	0.603246
C228	C	1.369108	-0.357893	0.547930
H229	H	1.464096	-0.434423	0.683699
H230	H	1.437419	-0.465739	0.583575
H231	H	1.524752	-0.430690	0.583405
H232	H	1.298687	-0.353793	0.567741
H233	H	1.386139	-0.318841	0.567605
