data_functionalizedCrystal
_audit_creation_method	'MofGen! by Chris Wilmer'
_symmetry_space_group_name_H-M	'P1'
_symmetry_Int_Tables_number	1
_symmetry_cell_setting	triclinic
loop_
_symmetry_equiv_pos_as_xyz
  x,y,z
_cell_length_a	11.792254
_cell_length_b	10.268362
_cell_length_c	14.853559
_cell_angle_alpha	89.999155
_cell_angle_beta	83.915026
_cell_angle_gamma	90.004577
loop_
_atom_site_label
_atom_site_type_symbol
_atom_site_fract_x
_atom_site_fract_y
_atom_site_fract_z
O1	O	1.506133	0.108292	0.123618
O2	O	1.175715	0.108295	0.136341
O3	O	1.349755	0.108292	-0.001216
O4	O	1.332093	0.108295	0.261175
O5	O	1.349739	-0.108309	-0.001211
O6	O	1.175699	-0.108306	0.136346
O7	O	1.506117	-0.108308	0.123623
Cu8	Cu	1.340906	-0.128085	0.129985
Cu9	Cu	1.340926	0.128071	0.129979
O10	O	1.332077	-0.108306	0.261180
C11	C	1.133421	-0.000005	0.135542
C12	C	1.007423	-0.000004	0.133143
C13	C	0.905099	0.000001	0.131194
C14	C	0.776727	0.000002	0.128757
N15	N	1.340901	-0.308250	0.129988
C16	C	1.340909	-0.426093	0.129989
C17	C	1.340923	-0.573931	0.129981
C18	C	1.548411	-0.000005	0.124422
C19	C	1.674409	0.000002	0.126821
C20	C	1.348948	-0.000006	-0.034805
C21	C	1.346556	0.000001	-0.134899
N22	N	1.340940	0.308237	0.129969
C23	C	1.336413	0.118071	-0.558116
C24	C	1.336395	-0.118076	-0.558106
C25	C	1.338652	-0.118077	-0.464064
C26	C	1.339789	-0.000002	-0.417043
C27	C	1.338667	0.118073	-0.464065
C28	C	1.339762	-0.236150	-0.417034
C29	C	1.342019	-0.236156	-0.322986
C30	C	1.343163	-0.118080	-0.275965
C31	C	1.342043	0.000000	-0.322992
C32	C	1.343180	0.118074	-0.275972
C33	C	1.342068	0.236156	-0.322999
C34	C	1.339812	0.236149	-0.417044
C35	C	1.345419	-0.118073	-0.181919
C36	C	1.345434	0.118077	-0.181921
C37	C	1.332884	-0.000005	0.294770
C38	C	1.335276	-0.000004	0.394863
H39	H	1.342985	0.332292	-0.284701
H40	H	1.338905	0.332285	-0.455341
H41	H	1.335512	0.214210	-0.596410
H42	H	1.335462	-0.214206	-0.596395
H43	H	1.338831	-0.332280	-0.455324
C44	C	1.346864	0.246224	-0.130829
C45	C	1.445719	0.253160	-0.086497
C46	C	1.447065	0.371191	-0.039424
H47	H	1.281675	0.251220	-0.087537
H48	H	1.345929	0.316596	-0.172271
H49	H	1.446644	0.182809	-0.045058
H50	H	1.510925	0.248187	-0.129768
H51	H	1.446130	0.441562	-0.080866
H52	H	1.381871	0.376176	0.003864
H53	H	1.514142	0.375918	-0.009345
H54	H	1.342929	-0.332305	-0.284705
C55	C	1.346654	-0.246397	-0.131027
C56	C	1.345185	-0.349801	-0.192336
C57	C	1.346328	-0.468038	-0.145489
H58	H	1.281412	-0.251465	-0.087791
H59	H	1.413687	-0.251399	-0.100908
H60	H	1.278159	-0.344800	-0.222440
H61	H	1.410422	-0.344775	-0.235574
H62	H	1.413361	-0.473040	-0.115369
H63	H	1.281085	-0.473092	-0.102254
H64	H	1.345342	-0.538211	-0.187080
