data_functionalizedCrystal
_audit_creation_method	'MofGen! by Chris Wilmer'
_symmetry_space_group_name_H-M	'P1'
_symmetry_Int_Tables_number	1
_symmetry_cell_setting	triclinic
loop_
_symmetry_equiv_pos_as_xyz
  x,y,z
_cell_length_a	14.044220
_cell_length_b	12.503572
_cell_length_c	17.699083
_cell_angle_alpha	86.484775
_cell_angle_beta	88.235946
_cell_angle_gamma	93.835250
loop_
_atom_site_label
_atom_site_type_symbol
_atom_site_fract_x
_atom_site_fract_y
_atom_site_fract_z
O1	O	1.262755	0.089210	0.178438
O2	O	1.596088	0.422543	0.511771
O3	O	1.929422	0.755877	0.845104
O4	O	0.986803	0.089237	0.171853
O5	O	1.320136	0.422570	0.505186
O6	O	1.653469	0.755904	0.838520
O7	O	1.132575	0.089213	0.065494
O8	O	1.465908	0.422547	0.398828
O9	O	1.799241	0.755880	0.732161
O10	O	1.116983	0.089234	0.284796
O11	O	1.450316	0.422567	0.618130
O12	O	1.783650	0.755901	0.951463
O13	O	1.121612	-0.089427	0.073508
O14	O	1.454945	0.243907	0.406841
O15	O	1.788278	0.577240	0.740174
O16	O	0.975840	-0.089403	0.179866
O17	O	1.309173	0.243930	0.513200
O18	O	1.642506	0.577264	0.846533
O19	O	1.251792	-0.089430	0.186451
O20	O	1.585125	0.243903	0.519784
O21	O	1.918459	0.577237	0.853118
Cu22	Cu	1.112815	-0.105728	0.183890
Cu23	Cu	1.446148	0.227606	0.517224
Cu24	Cu	1.779481	0.560939	0.850557
Cu25	Cu	1.125780	0.105535	0.174414
Cu26	Cu	1.459113	0.438868	0.507747
Cu27	Cu	1.792446	0.772202	0.841080
O28	O	1.106020	-0.089406	0.292809
O29	O	1.439353	0.243927	0.626143
O30	O	1.772687	0.577260	0.959476
C31	C	0.946013	-0.000080	0.172978
C32	C	1.279347	0.333254	0.506311
C33	C	1.612680	0.666587	0.839644
C34	C	0.840808	-0.000070	0.164381
C35	C	1.174141	0.333264	0.497715
C36	C	1.507475	0.666597	0.831048
N37	N	1.103703	-0.254319	0.190556
N38	N	1.437036	0.079015	0.523889
N39	N	1.770370	0.412348	0.857222
C40	C	0.648182	-0.000092	0.148667
C41	C	0.981515	0.333241	0.482000
C42	C	1.314848	0.666574	0.815334
C43	C	0.590408	-0.000091	0.209633
C44	C	0.923741	0.333242	0.542966
C45	C	1.257075	0.666575	0.876300
C46	C	0.483224	-0.000104	0.200889
C47	C	0.816557	0.333229	0.534223
C48	C	1.149891	0.666563	0.867556
C49	C	0.755376	-0.000080	0.157410
C50	C	1.088709	0.333254	0.490743
C51	C	1.422042	0.666587	0.824076
C52	C	1.090299	-0.473432	0.200367
C53	C	1.423632	-0.140098	0.533700
C54	C	1.756965	0.193235	0.867034
C55	C	1.148300	-0.526768	0.157934
C56	C	1.481634	-0.193435	0.491267
C57	C	1.814967	0.139898	0.824600
C58	C	1.140842	-0.648690	0.163393
C59	C	1.474175	-0.315357	0.496726
C60	C	1.807509	0.017976	0.830060
C61	C	1.097756	-0.351499	0.194909
C62	C	1.431089	-0.018165	0.528242
C63	C	1.764422	0.315168	0.861575
C64	C	1.292581	-0.000111	0.185326
C65	C	1.625915	0.333222	0.518659
C66	C	1.959248	0.666556	0.851993
C67	C	1.397787	-0.000114	0.193922
C68	C	1.731120	0.333219	0.527256
C69	C	2.064454	0.666553	0.860589
C70	C	1.126534	-0.000107	0.041265
C71	C	1.459868	0.333227	0.374599
C72	C	1.793201	0.666560	0.707932
C73	C	1.124858	-0.000107	-0.042868
C74	C	1.458191	0.333226	0.290465
C75	C	1.791525	0.666560	0.623798
N76	N	1.134899	0.254126	0.167743
N77	N	1.468233	0.587459	0.501076
N78	N	1.801566	0.920792	0.834409
C79	C	1.210423	-0.000117	-0.085586
C80	C	1.543757	0.333216	0.247747
C81	C	1.877090	0.666550	0.581080
C82	C	1.208843	-0.000107	-0.164639
C83	C	1.542177	0.333226	0.168694
C84	C	1.875510	0.666559	0.502028
C85	C	1.121697	-0.000095	-0.200972
C86	C	1.455030	0.333238	0.132361
C87	C	1.788363	0.666571	0.465695
C88	C	1.036125	-0.000082	-0.158248
C89	C	1.369458	0.333251	0.175085
C90	C	1.702792	0.666584	0.508418
C91	C	1.037706	-0.000084	-0.079197
C92	C	1.371040	0.333249	0.254136
C93	C	1.704373	0.666582	0.587469
C94	C	1.029745	-0.000073	-0.477052
C95	C	1.363079	0.333260	-0.143719
C96	C	1.696412	0.666594	0.189615
C97	C	1.028170	-0.000074	-0.556109
C98	C	1.361504	0.333259	-0.222775
C99	C	1.694837	0.666592	0.110558
C100	C	1.200882	-0.000096	-0.562494
C101	C	1.534216	0.333237	-0.229160
C102	C	1.867549	0.666571	0.104173
C103	C	1.202464	-0.000098	-0.483443
C104	C	1.535797	0.333235	-0.150109
C105	C	1.869130	0.666569	0.183224
C106	C	1.116893	-0.000079	-0.440726
C107	C	1.450226	0.333254	-0.107393
C108	C	1.783560	0.666587	0.225941
C109	C	1.118607	-0.000088	-0.355008
C110	C	1.451941	0.333246	-0.021675
C111	C	1.785274	0.666579	0.311658
C112	C	1.119981	-0.000095	-0.286688
C113	C	1.453314	0.333239	0.046645
C114	C	1.786647	0.666572	0.379979
C115	C	1.112060	-0.000084	0.317038
C116	C	1.445394	0.333250	0.650372
C117	C	1.778727	0.666583	0.983705
C118	C	1.113737	-0.000076	0.401172
C119	C	1.447070	0.333257	0.734505
C120	C	1.780404	0.666590	1.067838
H121	H	0.621444	-0.000081	0.268394
H122	H	0.954778	0.333253	0.601728
H123	H	1.288111	0.666586	0.935061
Br124	Br	0.917854	-0.000048	-0.207557
Br125	Br	1.251187	0.333285	0.125776
Br126	Br	1.584520	0.666618	0.459109
Br127	Br	0.596455	-0.000107	0.050733
Br128	Br	0.929789	0.333226	0.384066
Br129	Br	1.263122	0.666560	0.717399
H130	H	0.968030	-0.000076	-0.044417
H131	H	1.301364	0.333257	0.288916
H132	H	1.634697	0.666591	0.622250
Br133	Br	0.998204	-0.549934	0.267748
Br134	Br	1.331537	-0.216601	0.601082
Br135	Br	1.664870	0.116733	0.934415
Br136	Br	1.240801	-0.450266	0.090897
Br137	Br	1.574134	-0.116933	0.424230
Br138	Br	1.907467	0.216400	0.757564
Br139	Br	1.328700	-0.000149	-0.036284
Br140	Br	1.662033	0.333185	0.297049
Br141	Br	1.995366	0.666518	0.630382
H142	H	1.278519	-0.000118	-0.199417
H143	H	1.611853	0.333216	0.133917
H144	H	1.945186	0.666549	0.467250
Br145	Br	1.320738	-0.000113	-0.434137
Br146	Br	1.654072	0.333220	-0.100804
Br147	Br	1.987405	0.666553	0.232529
Br148	Br	1.317017	-0.000121	-0.620470
Br149	Br	1.650350	0.333212	-0.287137
Br150	Br	1.983684	0.666546	0.046197
H151	H	0.957201	-0.000067	-0.585688
H152	H	1.290534	0.333267	-0.252355
H153	H	1.623867	0.666600	0.080979
Br154	Br	0.913614	-0.000041	-0.419090
Br155	Br	1.246947	0.333293	-0.085756
Br156	Br	1.580280	0.666626	0.247577
