data_functionalizedCrystal
_audit_creation_method	'MofGen! by Chris Wilmer'
_symmetry_space_group_name_H-M	'P1'
_symmetry_Int_Tables_number	1
_symmetry_cell_setting	triclinic
loop_
_symmetry_equiv_pos_as_xyz
  x,y,z
_cell_length_a	15.297475
_cell_length_b	21.395361
_cell_length_c	21.395355
_cell_angle_alpha	89.978489
_cell_angle_beta	99.687451
_cell_angle_gamma	99.667694
loop_
_atom_site_label
_atom_site_type_symbol
_atom_site_fract_x
_atom_site_fract_y
_atom_site_fract_z
Zn1	Zn	1.379208	0.415565	0.519713
Zn2	Zn	1.879208	0.915565	1.019713
Zn3	Zn	1.379067	0.520308	0.414914
Zn4	Zn	1.879067	1.020308	0.914914
Zn5	Zn	1.228329	0.397400	0.396849
Zn6	Zn	1.728329	0.897400	0.896849
Zn7	Zn	1.228285	0.502138	0.501564
Zn8	Zn	1.728285	1.002138	1.001564
O9	O	1.303722	0.458853	0.458260
O10	O	1.803722	0.958853	0.958260
O11	O	1.505435	0.444666	0.520967
O12	O	2.005435	0.944666	1.020967
O13	O	1.359031	0.504006	0.324835
O14	O	1.859031	1.004006	0.824835
O15	O	1.248421	0.312141	0.413183
O16	O	1.748421	0.812141	0.913183
O17	O	1.505332	0.521620	0.443971
O18	O	2.005332	1.021620	0.943971
O19	O	1.359271	0.325487	0.503451
O20	O	1.859271	0.825487	1.003451
O21	O	1.248285	0.413706	0.311563
O22	O	1.748285	0.913706	0.811563
O23	O	1.102077	0.396087	0.395584
O24	O	1.602077	0.896087	0.895584
O25	O	1.248345	0.490652	0.591655
O26	O	1.748345	0.990652	1.091655
O27	O	1.102045	0.473038	0.472518
O28	O	1.602045	0.973038	0.972518
O29	O	1.359228	0.427047	0.604989
O30	O	1.859228	0.927047	1.104989
O31	O	1.358988	0.605566	0.426373
O32	O	1.858988	1.105566	0.926373
O33	O	1.248209	0.592217	0.490034
O34	O	1.748209	1.092217	0.990034
C35	C	1.069327	0.430620	0.430122
C36	C	1.569327	0.930620	0.930122
C37	C	0.969051	0.418557	0.418099
C38	C	1.469051	0.918557	0.918099
C39	C	1.303603	0.621626	0.458211
C40	C	1.803603	1.121626	0.958211
C41	C	1.303635	0.691271	0.458221
C42	C	1.803635	1.191271	0.958221
C43	C	1.303797	0.458849	0.621692
C44	C	1.803797	0.958849	1.121692
C45	C	1.303829	0.458847	0.691338
C46	C	1.803829	0.958847	1.191338
C47	C	0.686423	0.545073	0.544191
C48	C	1.186423	1.045073	1.044191
C49	C	0.780637	0.556412	0.555485
C50	C	1.280637	1.056412	1.055485
C51	C	0.827745	0.521949	0.521140
C52	C	1.327745	1.021949	1.021140
C53	C	0.780630	0.476146	0.475498
C54	C	1.280630	0.976146	0.975498
C55	C	0.686407	0.464810	0.464199
C56	C	1.186407	0.964810	0.964199
C57	C	0.827729	0.441685	0.441148
C58	C	1.327729	0.941685	0.941148
C59	C	0.780614	0.395882	0.395506
C60	C	1.280614	0.895882	0.895506
C61	C	0.686401	0.384548	0.384209
C62	C	1.186401	0.884548	0.884209
C63	C	0.639293	0.419011	0.418555
C64	C	1.139293	0.919011	0.918555
C65	C	0.921952	0.453021	0.452447
C66	C	1.421952	0.953021	0.952447
C67	C	0.921936	0.372758	0.372455
C68	C	1.421936	0.872758	0.872455
C69	C	0.827723	0.361420	0.361161
C70	C	1.327723	0.861420	0.861161
C71	C	1.539033	0.487196	0.486509
C72	C	2.039033	0.987196	0.986509
C73	C	1.639309	0.499274	0.498546
C74	C	2.139309	0.999274	0.998546
C75	C	1.303866	0.295447	0.458326
C76	C	1.803866	0.795447	0.958326
C77	C	1.303928	0.225813	0.458354
C78	C	1.803928	0.725813	0.958354
C79	C	1.361369	0.730920	0.425119
C80	C	1.861369	1.230920	0.925119
C81	C	1.361411	0.796361	0.425138
C82	C	1.861411	1.296361	0.925138
C83	C	1.303703	0.822147	0.458250
C84	C	1.803703	1.322147	0.958250
C85	C	1.245965	0.782490	0.491359
C86	C	1.745965	1.282490	0.991359
C87	C	1.245931	0.717051	0.491344
C88	C	1.745931	1.217051	0.991344
C89	C	1.222472	0.916083	0.453415
C90	C	1.722472	1.416083	0.953415
C91	C	1.222504	0.981519	0.453425
C92	C	1.722504	1.481519	0.953425
C93	C	1.303808	1.023981	0.458300
C94	C	1.803808	1.523981	0.958300
C95	C	1.385081	1.000998	0.463151
C96	C	1.885081	1.500998	0.963151
C97	C	1.385047	0.935559	0.463136
C98	C	1.885047	1.435559	0.963136
C99	C	1.303733	0.893103	0.458270
C100	C	1.803733	1.393103	0.958270
C101	C	1.361592	1.134589	0.425217
C102	C	1.861592	1.634589	0.925217
C103	C	1.361635	1.200031	0.425241
C104	C	1.861635	1.700031	0.925241
C105	C	1.246181	1.186157	0.491458
C106	C	1.746181	1.686157	0.991458
C107	C	1.246146	1.120717	0.491438
C108	C	1.746146	1.620717	0.991438
C109	C	1.303850	1.094937	0.458315
C110	C	1.803850	1.594937	0.958315
C111	C	1.303700	0.458817	0.295470
C112	C	1.803700	0.958817	0.795470
C113	C	1.303842	0.458663	0.225846
C114	C	1.803842	0.958663	0.725846
C115	C	1.361563	0.425726	0.730994
C116	C	1.861563	0.925726	1.230994
C117	C	1.361562	0.425699	0.796430
C118	C	1.861562	0.925699	1.296430
C119	C	1.303836	0.458806	0.822207
C120	C	1.803836	0.958806	1.322207
C121	C	1.246091	0.491928	0.782541
C122	C	1.746091	0.991928	1.282541
C123	C	1.246087	0.491949	0.717106
C124	C	1.746087	0.991949	1.217106
C125	C	1.296671	0.514358	0.925010
C126	C	1.796671	1.014358	1.425010
C127	C	1.296681	0.514339	0.990444
C128	C	1.796681	1.014339	1.490444
C129	C	1.303842	0.458740	1.024028
C130	C	1.803842	0.958740	1.524028
C131	C	1.311011	0.403161	0.992173
C132	C	1.811011	0.903161	1.492173
C133	C	1.311008	0.403181	0.926738
C134	C	1.811008	0.903181	1.426738
C135	C	1.303833	0.458786	0.893159
C136	C	1.803833	0.958786	1.393159
C137	C	1.361577	0.425587	1.134638
C138	C	1.861577	0.925587	1.634638
C139	C	1.361570	0.425558	1.200074
C140	C	1.861570	0.925558	1.700074
C141	C	1.246104	0.491793	1.186184
C142	C	1.746104	0.991793	1.686184
C143	C	1.246106	0.491815	1.120749
C144	C	1.746106	0.991815	1.620749
C145	C	1.303848	0.458714	1.094980
C146	C	1.803848	0.958714	1.594980
H147	H	0.960304	0.490314	0.489609
H148	H	1.460304	0.990314	0.989609
H149	H	1.199198	1.207152	0.518421
H150	H	1.699198	1.707152	1.018421
Br151	Br	0.985861	0.325989	0.325835
Br152	Br	1.485861	0.825989	0.825835
Br153	Br	1.495341	0.904369	0.469725
Br154	Br	1.995341	1.404369	0.969725
H155	H	1.290599	0.559593	0.897642
H156	H	1.790599	1.059593	1.397642
Br157	Br	0.955609	0.537337	0.536469
Br158	Br	1.455609	1.037337	1.036469
Br159	Br	1.439693	0.695937	0.380176
Br160	Br	1.939693	1.195937	0.880176
H161	H	0.648059	0.573132	0.572146
H162	H	1.148059	1.073132	1.072146
Br163	Br	1.167750	0.536769	1.066925
Br164	Br	1.667750	1.036769	1.566925
H165	H	1.156326	1.000227	0.449469
H166	H	1.656326	1.500227	0.949469
H167	H	1.199130	1.088432	0.518390
H168	H	1.699130	1.588432	1.018390
Br169	Br	0.844573	0.618572	0.617422
Br170	Br	1.344573	1.118572	1.117422
H171	H	1.408428	0.828650	0.398184
H172	H	1.908428	1.328650	0.898184
H173	H	0.562576	0.409780	0.409363
H174	H	1.062576	0.909780	0.909363
H175	H	1.156260	0.881515	0.449447
H176	H	1.656260	1.381515	0.949447
Br177	Br	1.495429	1.058616	0.469757
Br178	Br	1.995429	1.558616	0.969757
Br179	Br	1.167748	0.536714	1.221158
Br180	Br	1.667748	1.036714	1.721158
H181	H	0.648042	0.347259	0.347038
H182	H	1.148042	0.847259	0.847038
Br183	Br	1.439899	1.099597	0.380263
Br184	Br	1.939899	1.599597	0.880263
Br185	Br	1.439923	0.380800	0.696025
Br186	Br	1.939923	0.880800	1.196025
H187	H	1.316844	0.357887	1.019516
H188	H	1.816844	0.857887	1.519516
H189	H	1.199087	0.518881	0.803532
H190	H	1.699087	1.018881	1.303532
H191	H	1.290849	0.559596	1.016376
H192	H	1.790849	1.059596	1.516376
Br193	Br	1.167726	0.536901	0.663282
Br194	Br	1.667726	1.036901	1.163282
Br195	Br	1.439898	0.380728	0.850258
Br196	Br	1.939898	0.880728	1.350258
H197	H	0.789348	0.324126	0.323998
H198	H	1.289348	0.824126	0.823998
Br199	Br	1.440005	1.253844	0.380321
Br200	Br	1.940005	1.753844	0.880321
Br201	Br	1.167653	0.817484	0.536303
Br202	Br	1.667653	1.317484	1.036303
H203	H	1.198916	0.684767	0.518300
H204	H	1.698916	1.184767	1.018300
Br205	Br	1.320733	0.327756	0.883506
Br206	Br	1.820733	0.827756	1.383506
Br207	Br	1.439936	0.380662	1.099662
Br208	Br	1.939936	0.880662	1.599662
Br209	Br	1.439944	0.380615	1.253898
Br210	Br	1.939944	0.880615	1.753898
