data_functionalizedCrystal
_audit_creation_method	'MofGen! by Chris Wilmer'
_symmetry_space_group_name_H-M	'P1'
_symmetry_Int_Tables_number	1
_symmetry_cell_setting	triclinic
loop_
_symmetry_equiv_pos_as_xyz
  x,y,z
_cell_length_a	6.394989
_cell_length_b	16.992694
_cell_length_c	15.455313
_cell_angle_alpha	87.142206
_cell_angle_beta	87.254133
_cell_angle_gamma	91.417033
loop_
_atom_site_label
_atom_site_type_symbol
_atom_site_fract_x
_atom_site_fract_y
_atom_site_fract_z
O1	O	-0.435072	1.048122	-0.072012
O2	O	-0.430202	0.819790	-0.072038
O3	O	-0.129113	0.937197	-0.072026
O4	O	-0.736160	0.930715	-0.072025
O5	O	-0.146255	0.930482	0.072236
O6	O	-0.447343	0.813075	0.072223
O7	O	-0.452214	1.041407	0.072249
Cu8	Cu	-0.451344	0.926628	0.085408
Cu9	Cu	-0.431071	0.934569	-0.085198
O10	O	-0.753302	0.924000	0.072236
C11	C	-0.432511	0.787158	0.000089
C12	C	-0.413829	0.699930	0.000079
C13	C	-0.594077	0.651470	0.000080
C14	C	-0.576513	0.569510	0.000092
C15	C	-0.378698	0.536010	0.000097
C16	C	-0.198437	0.584476	0.000099
C17	C	-0.216003	0.666434	0.000093
C18	C	-0.305891	0.291692	0.000120
C19	C	-0.288338	0.209727	0.000123
C20	C	-0.666416	0.194766	0.000118
C21	C	-0.683964	0.276728	0.000107
C22	C	-0.503704	0.325186	0.000113
N23	N	-0.360740	0.452233	0.000106
N24	N	-0.521664	0.408961	0.000110
C25	C	-0.059649	0.932558	0.000102
C26	C	0.177240	0.928641	0.000100
C27	C	-0.449904	1.074039	0.000120
C28	C	-0.468586	1.161267	0.000124
N29	N	-0.465602	0.921049	0.205403
N30	N	-0.416798	0.940154	-0.205192
C31	C	-0.337742	0.970946	0.250803
C32	C	-0.348545	0.966733	0.341610
C33	C	-0.487220	0.912628	0.387016
C34	C	-0.615085	0.862725	0.341611
C35	C	-0.604270	0.866934	0.250805
C36	C	-0.533847	0.894461	0.658596
C37	C	-0.544658	0.890257	0.749408
C38	C	-0.278114	0.994265	0.749401
C39	C	-0.267319	0.998472	0.658594
C40	C	-0.395176	0.948567	0.613196
N41	N	-0.498271	0.908323	0.479836
N42	N	-0.384114	0.952869	0.520378
H43	H	-0.037373	0.557193	0.000115
H44	H	-0.069226	0.705890	0.000092
C45	C	-0.878753	0.395723	0.000036
C46	C	-0.901403	0.313551	0.000064
H47	H	-1.012992	0.418455	-0.000011
H48	H	-0.810024	0.409901	0.050352
H49	H	-0.797909	0.414542	-0.050263
H50	H	-0.982235	0.294731	0.050366
H51	H	-0.970164	0.299367	-0.050258
C52	C	-0.181461	1.127716	0.777344
C53	C	-0.137552	1.049110	0.799302
H54	H	-0.094678	1.161573	0.808155
H55	H	-0.155178	1.137958	0.716773
H56	H	-0.324304	1.136928	0.792229
H57	H	0.005288	1.039896	0.784412
H58	H	-0.163819	1.038864	0.859888
H59	H	-0.159109	0.331137	0.000126
C60	C	-0.078813	0.976253	0.443725
C61	C	-0.207999	1.021588	0.391507
H62	H	0.007968	1.010122	0.474522
H63	H	-0.162934	0.943436	0.483764
H64	H	0.006167	0.944465	0.408299
H65	H	-0.292990	1.053372	0.426934
H66	H	-0.123868	1.054419	0.351463
C67	C	-0.075348	1.073322	0.259926
C68	C	-0.185300	1.030419	0.200896
H69	H	0.018778	1.110034	0.229116
H70	H	-0.171414	1.100789	0.295333
H71	H	0.001191	1.038236	0.295354
H72	H	-0.261851	1.065505	0.165473
H73	H	-0.089220	1.002951	0.165475
H74	H	-0.154399	1.042529	0.621626
H75	H	-0.657592	0.846196	0.786374
C76	C	-0.798415	0.791240	0.667737
C77	C	-0.674404	0.839612	0.608702
H78	H	-0.885201	0.757381	0.636930
H79	H	-0.710782	0.760492	0.703161
H80	H	-0.883390	0.823044	0.703146
H81	H	-0.589417	0.807808	0.573297
H82	H	-0.762046	0.870363	0.573263
H83	H	-0.723290	0.530057	0.000092
H84	H	-0.727990	0.818667	0.378586
C85	C	-0.868841	0.763713	0.259927
C86	C	-0.744828	0.812090	0.200898
H87	H	-0.955621	0.729856	0.229115
H88	H	-0.781211	0.732964	0.295350
H89	H	-0.953823	0.795514	0.295337
H90	H	-0.659834	0.780289	0.165491
H91	H	-0.832468	0.842842	0.165460
C92	C	-0.974438	0.160217	-0.074044
C93	C	-0.864548	0.141498	0.000117
H94	H	-1.096755	0.127327	-0.074044
H95	H	-1.013204	0.213815	-0.074041
H96	H	-0.887888	0.152189	-0.124345
H97	H	-0.951094	0.149531	0.050418
H98	H	-0.825787	0.087886	0.000122
C99	C	-0.912929	0.667380	-0.074082
C100	C	-0.811527	0.688286	0.000074
H101	H	-1.047183	0.690103	-0.074079
H102	H	-0.832166	0.686226	-0.124380
H103	H	-0.928239	0.611631	-0.074067
H104	H	-0.796204	0.744035	0.000057
H105	H	-0.892310	0.669444	0.050386
H106	H	-0.127245	0.182455	0.000126
