data_functionalizedCrystal
_audit_creation_method	'MofGen! by Chris Wilmer'
_symmetry_space_group_name_H-M	'P1'
_symmetry_Int_Tables_number	1
_symmetry_cell_setting	triclinic
loop_
_symmetry_equiv_pos_as_xyz
  x,y,z
_cell_length_a	21.295417
_cell_length_b	19.077241
_cell_length_c	19.076919
_cell_angle_alpha	90.113904
_cell_angle_beta	92.266620
_cell_angle_gamma	87.677787
loop_
_atom_site_label
_atom_site_type_symbol
_atom_site_fract_x
_atom_site_fract_y
_atom_site_fract_z
Zn1	Zn	-0.228522	-1.058264	-0.440543
Zn2	Zn	0.104811	-0.724931	-0.107210
Zn3	Zn	0.438144	-0.391598	0.226124
Zn4	Zn	-0.329403	-1.062893	-0.323027
Zn5	Zn	0.003930	-0.729559	0.010307
Zn6	Zn	0.337264	-0.396226	0.343640
Zn7	Zn	-0.228191	-0.945480	-0.318321
Zn8	Zn	0.105143	-0.612147	0.015013
Zn9	Zn	0.438476	-0.278813	0.348346
Zn10	Zn	-0.337799	-0.940711	-0.435761
Zn11	Zn	-0.004466	-0.607378	-0.102428
Zn12	Zn	0.328867	-0.274045	0.230905
O13	O	-0.280979	-1.001837	-0.379413
O14	O	0.052354	-0.668504	-0.046080
O15	O	0.385688	-0.335170	0.287254
O16	O	-0.238529	-1.157212	-0.428925
O17	O	0.094804	-0.823879	-0.095592
O18	O	0.428137	-0.490546	0.237742
O19	O	-0.312324	-1.051251	-0.224072
O20	O	0.021009	-0.717917	0.109261
O21	O	0.354342	-0.384584	0.442595
O22	O	-0.140144	-0.960500	-0.334565
O23	O	0.193189	-0.627166	-0.001232
O24	O	0.526522	-0.293833	0.332101
O25	O	-0.312646	-1.160613	-0.342586
O26	O	0.020687	-0.827280	-0.009253
O27	O	0.354021	-0.493946	0.324081
O28	O	-0.140388	-1.043362	-0.424362
O29	O	0.192945	-0.710029	-0.091028
O30	O	0.526279	-0.376695	0.242305
O31	O	-0.237964	-0.964988	-0.220615
O32	O	0.095369	-0.631655	0.112719
O33	O	0.428703	-0.298321	0.446052
O34	O	-0.246106	-0.846513	-0.329929
O35	O	0.087228	-0.513180	0.003405
O36	O	0.420561	-0.179847	0.336738
O37	O	-0.326956	-0.952372	-0.534726
O38	O	0.006377	-0.619039	-0.201393
O39	O	0.339711	-0.285705	0.131941
O40	O	-0.326635	-0.843010	-0.416212
O41	O	0.006699	-0.509676	-0.082879
O42	O	0.340032	-0.176343	0.250455
O43	O	-0.246671	-1.038738	-0.538239
O44	O	0.086662	-0.705405	-0.204906
O45	O	0.419996	-0.372071	0.128428
O46	O	-0.418607	-1.046626	-0.337950
O47	O	-0.085274	-0.713293	-0.004616
O48	O	0.248060	-0.379960	0.328717
O49	O	-0.424776	-0.956860	-0.420775
O50	O	-0.091443	-0.623527	-0.087442
O51	O	0.241891	-0.290194	0.245891
C52	C	-0.287246	-0.819265	-0.372041
C53	C	0.046088	-0.485931	-0.038708
C54	C	0.379421	-0.152598	0.294625
C55	C	-0.289942	-0.741159	-0.368904
C56	C	0.043391	-0.407825	-0.035571
C57	C	0.376724	-0.074492	0.297762
C58	C	-0.252687	-0.702692	-0.412451
C59	C	0.080646	-0.369358	-0.079118
C60	C	0.413979	-0.036025	0.254216
C61	C	-0.255218	-0.629303	-0.409497
C62	C	0.078115	-0.295970	-0.076164
C63	C	0.411449	0.037363	0.257169
C64	C	-0.295007	-0.594383	-0.363000
C65	C	0.038326	-0.261049	-0.029667
C66	C	0.371659	0.072284	0.303667
C67	C	-0.332264	-0.632855	-0.319448
C68	C	0.001069	-0.299522	0.013885
C69	C	0.334403	0.033812	0.347218
C70	C	-0.329730	-0.706242	-0.322399
C71	C	0.003604	-0.372909	0.010934
C72	C	0.336937	-0.039576	0.344268
C73	C	-0.306715	-0.375088	-0.349345
C74	C	0.026619	-0.041755	-0.016011
C75	C	0.359952	0.291578	0.317322
C76	C	-0.309248	-0.301696	-0.346399
C77	C	0.024086	0.031638	-0.013066
C78	C	0.357419	0.364971	0.320268
C79	C	-0.232201	-0.298149	-0.436447
C80	C	0.101133	0.035185	-0.103114
C81	C	0.434466	0.368518	0.230219
C82	C	-0.229673	-0.371538	-0.439397
C83	C	0.103661	-0.038204	-0.106063
C84	C	0.436994	0.295129	0.227270
C85	C	-0.266927	-0.410004	-0.395843
C86	C	0.066407	-0.076670	-0.062509
C87	C	0.399740	0.256663	0.270824
N88	N	-0.297597	-0.519368	-0.359981
N89	N	0.035737	-0.186034	-0.026648
N90	N	0.369070	0.147299	0.306685
N91	N	-0.264334	-0.485017	-0.398858
N92	N	0.069000	-0.151684	-0.065525
N93	N	0.402333	0.181649	0.267809
C94	C	-0.444532	-1.001747	-0.379370
C95	C	-0.111199	-0.668413	-0.046037
C96	C	0.222134	-0.335080	0.287296
C97	C	-0.514500	-1.001771	-0.379378
C98	C	-0.181166	-0.668438	-0.046045
C99	C	0.152167	-0.335104	0.287289
C100	C	-0.544134	-1.048551	-0.336298
C101	C	-0.210800	-0.715217	-0.002965
C102	C	0.122533	-0.381884	0.330368
C103	C	-0.609876	-1.048583	-0.336316
C104	C	-0.276542	-0.715249	-0.002982
C105	C	0.056791	-0.381916	0.330351
C106	C	-0.645981	-1.001824	-0.379405
C107	C	-0.312648	-0.668490	-0.046071
C108	C	0.020685	-0.335157	0.287262
C109	C	-0.616340	-0.955041	-0.422493
C110	C	-0.283006	-0.621707	-0.089159
C111	C	0.050327	-0.288374	0.244174
C112	C	-0.550599	-0.955014	-0.422480
C113	C	-0.217266	-0.621681	-0.089146
C114	C	0.116068	-0.288348	0.244187
N115	N	-0.751561	-0.940136	-0.382279
N116	N	-0.418228	-0.606803	-0.048946
N117	N	-0.084895	-0.273470	0.284387
N118	N	-0.814012	-0.940163	-0.382288
N119	N	-0.480679	-0.606830	-0.048954
N120	N	-0.147345	-0.273497	0.284379
C121	C	-0.844055	-1.001901	-0.379448
C122	C	-0.510721	-0.668567	-0.046115
C123	C	-0.177388	-0.335234	0.287219
N124	N	-0.809287	-1.063612	-0.376586
N125	N	-0.475953	-0.730278	-0.043252
N126	N	-0.142620	-0.396945	0.290081
N127	N	-0.746830	-1.063584	-0.376574
N128	N	-0.413497	-0.730251	-0.043240
N129	N	-0.080163	-0.396917	0.290093
C130	C	-0.717266	-1.001847	-0.379424
C131	C	-0.383933	-0.668514	-0.046091
C132	C	-0.050600	-0.335180	0.287243
C133	C	-0.944973	-1.048719	-0.336385
C134	C	-0.611640	-0.715386	-0.003051
C135	C	-0.278307	-0.382052	0.330282
C136	C	-1.010717	-1.048752	-0.336407
C137	C	-0.677383	-0.715419	-0.003073
C138	C	-0.344050	-0.382085	0.330260
C139	C	-1.017180	-0.955204	-0.422580
C140	C	-0.683846	-0.621871	-0.089247
C141	C	-0.350513	-0.288537	0.244087
C142	C	-0.951438	-0.955177	-0.422562
C143	C	-0.618104	-0.621843	-0.089229
C144	C	-0.284771	-0.288510	0.244105
C145	C	-0.915338	-1.001933	-0.379460
C146	C	-0.582005	-0.668600	-0.046127
C147	C	-0.248672	-0.335267	0.287206
C148	C	-0.116787	-1.001947	-0.379472
C149	C	0.216547	-0.668613	-0.046139
C150	C	0.549880	-0.335280	0.287195
C151	C	-0.046818	-1.001993	-0.379497
C152	C	0.286515	-0.668660	-0.046164
C153	C	0.619849	-0.335327	0.287170
C154	C	-0.287787	-0.994507	-0.562691
C155	C	0.045546	-0.661173	-0.229358
C156	C	0.378880	-0.327840	0.103975
C157	C	-0.290688	-0.991383	-0.640794
C158	C	0.042645	-0.658050	-0.307460
C159	C	0.375978	-0.324716	0.025873
C160	C	-0.274684	-0.185123	-0.386808
C161	C	0.058649	0.148211	-0.053475
C162	C	0.391982	0.481544	0.279858
C163	C	-0.271993	-0.263229	-0.389946
C164	C	0.061341	0.070105	-0.056612
C165	C	0.394674	0.403438	0.276721
C166	C	-0.250253	-1.034879	-0.679317
C167	C	0.083080	-0.701546	-0.345983
C168	C	0.416413	-0.368212	-0.012650
C169	C	-0.252977	-1.031935	-0.752702
C170	C	0.080356	-0.698602	-0.419368
C171	C	0.413689	-0.365269	-0.086035
C172	C	-0.296140	-0.985499	-0.787563
C173	C	0.037193	-0.652165	-0.454229
C174	C	0.370527	-0.318832	-0.120896
C175	C	-0.336577	-0.941998	-0.749035
C176	C	-0.003244	-0.608664	-0.415701
C177	C	0.330090	-0.275331	-0.082368
C178	C	-0.333849	-0.944938	-0.675651
C179	C	-0.000516	-0.611605	-0.342317
C180	C	0.332817	-0.278272	-0.008984
C181	C	-0.308776	-0.971879	-1.006841
C182	C	0.024557	-0.638546	-0.673507
C183	C	0.357890	-0.305212	-0.340174
C184	C	-0.311502	-0.968943	-1.080230
C185	C	0.021831	-0.635610	-0.746897
C186	C	0.355164	-0.302277	-0.413563
C187	C	-0.227901	-1.058880	-1.083892
C188	C	0.105432	-0.725547	-0.750558
C189	C	0.438765	-0.392214	-0.417225
C190	C	-0.225180	-1.061820	-1.010506
C191	C	0.108153	-0.728486	-0.677173
C192	C	0.441486	-0.395153	-0.343840
C193	C	-0.265615	-1.018316	-0.971985
C194	C	0.067718	-0.684983	-0.638651
C195	C	0.401052	-0.351650	-0.305318
N196	N	-0.298927	-0.982490	-0.862574
N197	N	0.034407	-0.649157	-0.529241
N198	N	0.367740	-0.315824	-0.195908
N199	N	-0.262825	-1.021322	-0.896974
N200	N	0.070509	-0.687988	-0.563641
N201	N	0.403842	-0.354655	-0.230308
C202	C	-0.274150	-1.009179	-0.196849
C203	C	0.059183	-0.675846	0.136484
C204	C	0.392516	-0.342513	0.469818
C205	C	-0.271067	-1.012439	-0.118753
C206	C	0.062266	-0.679106	0.214581
C207	C	0.395600	-0.345773	0.547914
H208	H	-0.337050	-0.406398	-0.313880
H209	H	-0.003717	-0.073065	0.019453
H210	H	0.329616	0.260268	0.352786
H211	H	-0.360066	-0.737561	-0.286938
H212	H	-0.026733	-0.404228	0.046395
H213	H	0.306600	-0.070895	0.379729
H214	H	-0.927308	-0.917082	-0.457638
H215	H	-0.593975	-0.583748	-0.124305
H216	H	-0.260641	-0.250415	0.209028
H217	H	-0.190034	-1.099635	-0.982128
H218	H	0.143299	-0.766302	-0.648794
H219	H	0.476632	-0.432969	-0.315461
C220	C	-0.642480	-1.100042	-0.288919
C221	C	-0.309147	-0.766709	0.044414
C222	C	0.024187	-0.433376	0.377748
N223	N	-0.667036	-1.138800	-0.253218
N224	N	-0.333702	-0.805467	0.080116
N225	N	-0.000369	-0.472133	0.413449
C226	C	-0.376032	-0.594440	-0.268300
C227	C	-0.042699	-0.261107	0.065034
C228	C	0.290635	0.072227	0.398367
N229	N	-0.409001	-0.565506	-0.229775
N230	N	-0.075667	-0.232173	0.103558
N231	N	0.257666	0.101160	0.436891
C232	C	-1.043314	-1.100215	-0.289012
C233	C	-0.709980	-0.766882	0.044321
C234	C	-0.376647	-0.433549	0.377654
N235	N	-1.067866	-1.138977	-0.253313
N236	N	-0.734533	-0.805644	0.080021
N237	N	-0.401199	-0.472311	0.413354
H238	H	-0.514743	-1.086624	-0.301205
H239	H	-0.181410	-0.753291	0.032129
H240	H	0.151923	-0.419958	0.365462
C241	C	-0.656057	-0.903603	-0.469888
C242	C	-0.322724	-0.570270	-0.136555
C243	C	0.010610	-0.236936	0.196779
N244	N	-0.685972	-0.864859	-0.505589
N245	N	-0.352639	-0.531526	-0.172255
N246	N	-0.019306	-0.198192	0.161078
C247	C	-0.353254	-0.924021	-0.964476
C248	C	-0.019921	-0.590688	-0.631143
C249	C	0.313412	-0.257355	-0.297809
N250	N	-0.386756	-0.887971	-0.932564
N251	N	-0.053423	-0.554638	-0.599231
N252	N	0.279910	-0.221305	-0.265898
C253	C	-0.518001	-0.903560	-0.469882
C254	C	-0.184668	-0.570226	-0.136549
C255	C	0.148666	-0.236893	0.196785
N256	N	-0.493447	-0.864806	-0.505589
N257	N	-0.160114	-0.531472	-0.172256
N258	N	0.173220	-0.198139	0.161078
C259	C	-0.905262	-1.100162	-0.288983
C260	C	-0.571929	-0.766828	0.044350
C261	C	-0.238595	-0.433495	0.377683
N262	N	-0.875353	-1.138911	-0.253283
N263	N	-0.542020	-0.805578	0.080050
N264	N	-0.208687	-0.472245	0.413384
H265	H	-0.220052	-1.067356	-0.784064
H266	H	0.113281	-0.734023	-0.450731
H267	H	0.446615	-0.400690	-0.117397
C268	C	-1.056892	-0.903769	-0.469980
C269	C	-0.723559	-0.570436	-0.136647
C270	C	-0.390225	-0.237102	0.196687
N271	N	-1.086807	-0.865028	-0.505684
N272	N	-0.753473	-0.531695	-0.172351
N273	N	-0.420140	-0.198361	0.160983
C274	C	-0.202770	-1.085963	-0.640976
C275	C	0.130564	-0.752630	-0.307643
C276	C	0.463897	-0.419296	0.025690
N277	N	-0.167002	-1.124439	-0.612100
N278	N	0.166332	-0.791105	-0.278767
N279	N	0.499665	-0.457772	0.054567
H280	H	-0.371719	-0.904185	-0.777424
H281	H	-0.038385	-0.570852	-0.444091
H282	H	0.294948	-0.237519	-0.110758
H283	H	-0.194981	-1.094297	-1.115264
H284	H	0.138352	-0.760964	-0.781931
H285	H	0.471686	-0.427631	-0.448597
H286	H	-0.346652	-0.931127	-1.108612
H287	H	-0.013319	-0.597793	-0.775278
H288	H	0.320015	-0.264460	-0.441945
H289	H	-0.366770	-0.909512	-0.644286
H290	H	-0.033437	-0.576179	-0.310953
H291	H	0.299897	-0.242845	0.022381
C292	C	-0.208915	-0.741097	-0.463602
C293	C	0.124418	-0.407764	-0.130268
C294	C	0.457752	-0.074431	0.203065
N295	N	-0.175942	-0.770023	-0.502127
N296	N	0.157392	-0.436689	-0.168794
N297	N	0.490725	-0.103356	0.164539
C298	C	-0.191213	-0.255831	-0.484341
C299	C	0.142121	0.077502	-0.151008
C300	C	0.475454	0.410836	0.182325
N301	N	-0.160335	-0.223957	-0.520412
N302	N	0.172999	0.109376	-0.187079
N303	N	0.506332	0.442710	0.146254
C304	C	-0.185895	-0.409945	-0.490541
C305	C	0.147438	-0.076611	-0.157208
C306	C	0.480771	0.256722	0.176126
N307	N	-0.152921	-0.438873	-0.529063
N308	N	0.180413	-0.105540	-0.195730
N309	N	0.513746	0.227794	0.137604
C310	C	-0.214236	-0.586993	-0.457405
C311	C	0.119097	-0.253659	-0.124071
C312	C	0.452430	0.079674	0.209262
N313	N	-0.183367	-0.555125	-0.493491
N314	N	0.149966	-0.221791	-0.160158
N315	N	0.483300	0.111542	0.173176
H316	H	-0.341652	-0.273266	-0.308535
H317	H	-0.008319	0.060068	0.024799
H318	H	0.325015	0.393401	0.358132
