data_functionalizedCrystal
_audit_creation_method	'MofGen! by Chris Wilmer'
_symmetry_space_group_name_H-M	'P1'
_symmetry_Int_Tables_number	1
_symmetry_cell_setting	triclinic
loop_
_symmetry_equiv_pos_as_xyz
  x,y,z
_cell_length_a	25.639242
_cell_length_b	25.639239
_cell_length_c	14.908294
_cell_angle_alpha	93.262372
_cell_angle_beta	93.277868
_cell_angle_gamma	90.030990
loop_
_atom_site_label
_atom_site_type_symbol
_atom_site_fract_x
_atom_site_fract_y
_atom_site_fract_z
Zn1	Zn	0.782183	-0.225307	-0.510092
Zn2	Zn	1.282183	0.274693	-0.010092
Zn3	Zn	0.787147	-0.307702	-0.359229
Zn4	Zn	1.287147	0.192298	0.140771
Zn5	Zn	0.699799	-0.220271	-0.359249
Zn6	Zn	1.199799	0.279729	0.140751
Zn7	Zn	0.694706	-0.312699	-0.510034
Zn8	Zn	1.194706	0.187301	-0.010034
O9	O	0.740958	-0.266495	-0.434651
O10	O	1.240958	0.233505	0.065349
O11	O	0.856006	-0.236253	-0.490096
O12	O	1.356006	0.263747	0.009904
O13	O	0.779768	-0.291906	-0.232991
O14	O	1.279768	0.208094	0.267009
O15	O	0.710781	-0.147775	-0.379291
O16	O	1.210781	0.352225	0.120709
O17	O	0.859653	-0.296788	-0.379257
O18	O	1.359653	0.203212	0.120743
O19	O	0.771308	-0.151475	-0.490115
O20	O	1.271308	0.348525	0.009885
O21	O	0.715594	-0.227671	-0.233005
O22	O	1.215594	0.272329	0.266995
O23	O	0.625958	-0.232516	-0.379235
O24	O	1.125958	0.267484	0.120765
O25	O	0.702101	-0.305305	-0.636283
O26	O	1.202101	0.194695	-0.136283
O27	O	0.622217	-0.300423	-0.490016
O28	O	1.122217	0.199577	0.009984
O29	O	0.766370	-0.241098	-0.636326
O30	O	1.266370	0.258902	-0.136326
O31	O	0.774830	-0.381529	-0.379201
O32	O	1.274830	0.118471	0.120799
O33	O	0.706915	-0.385201	-0.489996
O34	O	1.206915	0.114799	0.010004
C35	C	0.605117	-0.266466	-0.434622
C36	C	1.105117	0.233534	0.065378
C37	C	0.547003	-0.266466	-0.434631
C38	C	1.047003	0.233534	0.065369
C39	C	0.293914	-0.235037	-0.492470
C40	C	0.793914	0.264963	0.007530
C41	C	0.348518	-0.235032	-0.492465
C42	C	0.848518	0.264968	0.007535
O43	O	0.375144	-0.208286	-0.541635
O44	O	0.875144	0.291714	-0.041635
N45	N	0.377728	-0.266489	-0.434661
N46	N	0.877728	0.233511	0.065339
C47	C	0.352329	-0.297958	-0.376866
C48	C	0.852329	0.202042	0.123134
O49	O	0.382188	-0.324715	-0.327699
O50	O	0.882188	0.175285	0.172301
C51	C	0.297726	-0.297966	-0.376876
C52	C	0.797726	0.202034	0.123124
C53	C	0.268519	-0.266502	-0.434677
C54	C	0.768519	0.233498	0.065323
C55	C	0.264708	-0.203576	-0.550267
C56	C	0.764708	0.296424	-0.050267
C57	C	0.210107	-0.203581	-0.550271
C58	C	0.710107	0.296419	-0.050271
C59	C	0.184713	-0.235046	-0.492477
C60	C	0.684713	0.264954	0.007523
C61	C	0.213919	-0.266507	-0.434681
C62	C	0.713919	0.233493	0.065319
C63	C	0.272328	-0.329437	-0.319085
C64	C	0.772328	0.170563	0.180915
C65	C	0.217721	-0.329442	-0.319101
C66	C	0.717721	0.170558	0.180899
C67	C	0.188515	-0.297979	-0.376902
C68	C	0.688515	0.202021	0.123098
C69	C	0.133924	-0.297977	-0.376891
C70	C	0.633924	0.202023	0.123109
N71	N	0.104714	-0.266519	-0.434695
N72	N	0.604714	0.233481	0.065305
C73	C	0.130109	-0.235054	-0.492488
C74	C	0.630109	0.264946	0.007512
C75	C	0.467001	-0.297940	-0.376849
C76	C	0.967001	0.202060	0.123151
C77	C	0.521603	-0.297930	-0.376834
C78	C	1.021603	0.202070	0.123166
C79	C	0.517789	-0.235004	-0.492435
C80	C	1.017789	0.264996	0.007565
C81	C	0.463185	-0.235012	-0.492445
C82	C	0.963185	0.264988	0.007555
C83	C	0.437791	-0.266483	-0.434653
C84	C	0.937791	0.233517	0.065347
C85	C	0.015444	-0.235066	-0.492491
C86	C	0.515444	0.264934	0.007509
C87	C	-0.039161	-0.235072	-0.492487
C88	C	0.460839	0.264928	0.007513
C89	C	-0.035342	-0.298000	-0.376890
C90	C	0.464658	0.202000	0.123110
C91	C	0.019259	-0.297992	-0.376890
C92	C	0.519259	0.202008	0.123110
C93	C	0.044650	-0.266524	-0.434698
C94	C	0.544650	0.233476	0.065302
O95	O	0.107263	-0.324710	-0.327748
O96	O	0.607263	0.175290	0.172252
O97	O	0.100244	-0.208307	-0.541654
O98	O	0.600244	0.291693	-0.041654
C99	C	0.740872	-0.402336	-0.434610
C100	C	1.240872	0.097664	0.065390
C101	C	0.740882	-0.460451	-0.434622
C102	C	1.240882	0.039549	0.065378
C103	C	0.776406	-0.818894	-0.377058
C104	C	1.276406	-0.318894	0.122942
C105	C	0.776426	-0.873498	-0.377070
C106	C	1.276426	-0.373498	0.122930
O107	O	0.806540	-0.900101	-0.328081
O108	O	1.306540	-0.400101	0.171919
N109	N	0.741048	-0.902736	-0.434711
N110	N	1.241048	-0.402736	0.065289
C111	C	0.705652	-0.877366	-0.492350
C112	C	1.205652	-0.377366	0.007650
O113	O	0.675563	-0.907249	-0.541380
O114	O	1.175563	-0.407249	-0.041380
C115	C	0.705635	-0.822763	-0.492342
C116	C	1.205635	-0.322763	0.007658
C117	C	0.741012	-0.793528	-0.434691
C118	C	1.241012	-0.293528	0.065309
C119	C	0.811780	-0.789658	-0.319412
C120	C	1.311780	-0.289658	0.180588
C121	C	0.811759	-0.735058	-0.319399
C122	C	1.311759	-0.235058	0.180601
C123	C	0.776365	-0.709692	-0.377032
C124	C	1.276365	-0.209692	0.122968
C125	C	0.740991	-0.738927	-0.434678
C126	C	1.240991	-0.238927	0.065322
C127	C	0.670242	-0.797394	-0.549984
C128	C	1.170242	-0.297394	-0.049984
C129	C	0.670228	-0.742787	-0.549972
C130	C	1.170228	-0.242787	-0.049972
C131	C	0.705605	-0.713552	-0.492321
C132	C	1.205605	-0.213552	0.007679
C133	C	0.705576	-0.658960	-0.492297
C134	C	1.205576	-0.158960	0.007703
N135	N	0.740953	-0.629722	-0.434656
N136	N	1.240953	-0.129722	0.065344
C137	C	0.776348	-0.655088	-0.377024
C138	C	1.276348	-0.155088	0.122976
C139	C	0.705691	-0.992037	-0.492364
C140	C	1.205691	-0.492037	0.007636
C141	C	0.705705	-1.046640	-0.492368
C142	C	1.205705	-0.546640	0.007632
C143	C	0.776480	-1.042768	-0.377089
C144	C	1.276480	-0.542768	0.122911
C145	C	0.776463	-0.988164	-0.377081
C146	C	1.276463	-0.488164	0.122919
C147	C	0.741069	-0.962800	-0.434723
C148	C	1.241069	-0.462800	0.065277
C149	C	0.776301	-0.540422	-0.377000
C150	C	1.276301	-0.040422	0.123000
C151	C	0.776276	-0.485816	-0.376990
C152	C	1.276276	0.014184	0.123010
C153	C	0.705504	-0.489693	-0.492271
C154	C	1.205504	0.010307	0.007729
C155	C	0.705527	-0.544294	-0.492279
C156	C	1.205527	-0.044294	0.007721
C157	C	0.740930	-0.569657	-0.434640
C158	C	1.240930	-0.069657	0.065360
O159	O	0.675478	-0.632322	-0.541263
O160	O	1.175478	-0.132322	-0.041263
O161	O	0.806437	-0.625199	-0.328011
O162	O	1.306437	-0.125199	0.171989
C163	C	0.877330	-0.266525	-0.434681
C164	C	1.377330	0.233475	0.065319
C165	C	0.935444	-0.266537	-0.434694
C166	C	1.435444	0.233463	0.065306
C167	C	0.733114	-0.274321	-0.669952
C168	C	1.233114	0.225679	-0.169952
C169	C	0.729771	-0.277656	-0.770224
C170	C	1.229771	0.222344	-0.270224
C171	C	0.741059	-0.130124	-0.434712
C172	C	1.241059	0.369876	0.065288
C173	C	0.741102	-0.072011	-0.434738
C174	C	1.241102	0.427989	0.065262
C175	C	0.691599	-0.315779	-0.911530
C176	C	1.191599	0.184221	-0.411530
C177	C	0.694739	-0.312649	-0.817316
C178	C	1.194739	0.187351	-0.317316
C179	C	0.761664	-0.245788	-0.817351
C180	C	1.261664	0.254212	-0.317351
C181	C	0.758524	-0.248918	-0.911565
C182	C	1.258524	0.251082	-0.411565
C183	C	0.723491	-0.283915	-0.958651
C184	C	1.223491	0.216085	-0.458651
C185	C	0.720354	-0.287047	-1.052867
C186	C	1.220354	0.212953	-0.552867
C187	C	0.787276	-0.220184	-1.052900
C188	C	1.287276	0.279816	-0.552900
C189	C	0.790416	-0.217054	-0.958686
C190	C	1.290416	0.282946	-0.458686
C191	C	0.748803	-0.258662	-0.200265
C192	C	1.248803	0.241338	0.299735
C193	C	0.752247	-0.255180	-0.099994
C194	C	1.252247	0.244820	0.400006
H195	H	0.186332	-0.177963	-0.597342
H196	H	0.686332	0.322037	-0.097342
C197	C	0.051386	-0.332603	-0.313316
C198	C	0.551386	0.167397	0.186684
H199	H	0.028439	-0.351346	-0.278902
H200	H	0.528439	0.148654	0.221098
H201	H	0.074007	-0.311269	-0.274068
H202	H	0.574007	0.188731	0.225932
H203	H	0.071525	-0.356561	-0.347769
H204	H	0.571525	0.143439	0.152231
C205	C	0.850715	-0.817552	-0.256005
C206	C	1.350715	-0.317552	0.243995
H207	H	0.871773	-0.792313	-0.221674
H208	H	1.371773	-0.292313	0.278326
H209	H	0.872339	-0.839978	-0.290540
H210	H	1.372339	-0.339978	0.209460
H211	H	0.832047	-0.837566	-0.216662
H212	H	1.332047	-0.337566	0.283338
H213	H	0.641406	-0.722138	-0.596914
H214	H	1.141406	-0.222138	-0.096914
H215	H	0.790183	-0.217293	-0.778997
H216	H	1.290183	0.282707	-0.278997
C217	C	0.545729	-0.200399	-0.556017
C218	C	1.045729	0.299601	-0.056017
H219	H	0.582431	-0.204908	-0.547736
H220	H	1.082431	0.295092	-0.047736
H221	H	0.537235	-0.164821	-0.542937
H222	H	1.037235	0.335179	-0.042937
H223	H	0.534765	-0.210129	-0.616609
H224	H	1.034765	0.289871	-0.116609
C225	C	0.304443	-0.364050	-0.255508
C226	C	0.804443	0.135950	0.244492
H227	H	0.281491	-0.382793	-0.221103
H228	H	0.781491	0.117207	0.278897
H229	H	0.327058	-0.342714	-0.216252
H230	H	0.827058	0.157286	0.283748
H231	H	0.324587	-0.388009	-0.289949
H232	H	0.824587	0.111991	0.210051
H233	H	0.805269	-0.964364	-0.330137
H234	H	1.305269	-0.464364	0.169863
C235	C	0.666749	-0.964141	-0.555763
C236	C	1.166749	-0.464141	-0.055763
H237	H	0.645682	-0.989377	-0.590083
H238	H	1.145682	-0.489377	-0.090083
H239	H	0.685408	-0.944122	-0.595104
H240	H	1.185408	-0.444122	-0.095104
H241	H	0.645126	-0.941720	-0.521208
H242	H	1.145126	-0.441720	-0.021208
H243	H	0.818937	-0.188559	-0.920335
H244	H	1.318937	0.311441	-0.420335
C245	C	-0.071286	-0.200464	-0.556075
C246	C	0.428714	0.299536	-0.056075
H247	H	-0.048338	-0.181729	-0.590500
H248	H	0.451662	0.318271	-0.090500
H249	H	-0.091433	-0.176507	-0.521645
H250	H	0.408567	0.323493	-0.021645
H251	H	-0.093898	-0.221811	-0.595325
H252	H	0.406102	0.278189	-0.095325
C253	C	-0.063283	-0.332611	-0.313326
C254	C	0.436717	0.167389	0.186674
H255	H	-0.099986	-0.328110	-0.321619
H256	H	0.400014	0.171890	0.178381
H257	H	-0.052322	-0.322894	-0.252732
H258	H	0.447678	0.177106	0.247268
H259	H	-0.054787	-0.368189	-0.326430
H260	H	0.445213	0.131811	0.173570
C261	C	0.553725	-0.332537	-0.313248
C262	C	1.053725	0.167463	0.186752
H263	H	0.530775	-0.351278	-0.278837
H264	H	1.030775	0.148722	0.221163
H265	H	0.576340	-0.311198	-0.273999
H266	H	1.076340	0.188802	0.226001
H267	H	0.573868	-0.356496	-0.347689
H268	H	1.073868	0.143504	0.152311
C269	C	0.815194	-0.453661	-0.313575
C270	C	1.315194	0.046339	0.186425
H271	H	0.836280	-0.476592	-0.279262
H272	H	1.336280	0.023408	0.220738
H273	H	0.796519	-0.431078	-0.274229
H274	H	1.296519	0.068922	0.225771
H275	H	0.836801	-0.433482	-0.348123
H276	H	1.336801	0.066518	0.151877
H277	H	0.805131	-0.561066	-0.330067
H278	H	1.305131	-0.061066	0.169933
H279	H	0.285378	-0.177953	-0.597334
H280	H	0.785378	0.322047	-0.097334
C281	C	0.822365	-0.185140	-1.104734
C282	C	1.322365	0.314860	-0.604734
H283	H	0.815480	-0.192015	-1.167589
H284	H	1.315480	0.307985	-0.667589
H285	H	0.858001	-0.192292	-1.089288
H286	H	1.358001	0.307708	-0.589288
H287	H	0.815258	-0.149491	-1.089314
H288	H	1.315258	0.350509	-0.589314
C289	C	0.850680	-0.702906	-0.255994
C290	C	1.350680	-0.202906	0.244006
H291	H	0.871763	-0.725840	-0.221684
H292	H	1.371763	-0.225840	0.278316
H293	H	0.832010	-0.680320	-0.216644
H294	H	1.332010	-0.180320	0.283356
H295	H	0.872288	-0.682730	-0.290544
H296	H	1.372288	-0.182730	0.209456
H297	H	0.805302	-1.063431	-0.330165
H298	H	1.305302	-0.563431	0.169835
C299	C	0.666788	-1.078793	-0.555778
C300	C	1.166788	-0.578793	-0.055778
H301	H	0.645710	-1.055860	-0.590102
H302	H	1.145710	-0.555860	-0.090102
H303	H	0.645181	-1.098975	-0.521243
H304	H	1.145181	-0.598975	-0.021243
H305	H	0.685469	-1.101373	-0.595129
H306	H	1.185469	-0.601373	-0.095129
H307	H	0.641432	-0.821188	-0.596926
H308	H	1.141432	-0.321188	-0.096926
H309	H	0.676722	-0.568099	-0.539226
H310	H	1.176722	-0.068099	-0.039226
H311	H	0.668766	-0.338593	-0.778954
H312	H	1.168766	0.161407	-0.278954
C313	C	0.431063	-0.200408	-0.556034
C314	C	0.931063	0.299592	-0.056034
H315	H	0.454012	-0.181672	-0.590453
H316	H	0.954012	0.318328	-0.090453
H317	H	0.410911	-0.176453	-0.521609
H318	H	0.910911	0.323547	-0.021609
H319	H	0.408454	-0.221757	-0.595289
H320	H	0.908454	0.278243	-0.095289
C321	C	0.666575	-0.461784	-0.555666
C322	C	1.166575	0.038216	-0.055666
H323	H	0.671637	-0.425078	-0.547405
H324	H	1.171637	0.074922	-0.047405
H325	H	0.631894	-0.470322	-0.542420
H326	H	1.131894	0.029678	-0.042420
H327	H	0.672188	-0.472728	-0.616296
H328	H	1.172188	0.027272	-0.116296
H329	H	0.036111	-0.209441	-0.539563
H330	H	0.536111	0.290559	-0.039563
C331	C	0.681818	-0.325540	-1.104661
C332	C	1.181818	0.174460	-0.604661
H333	H	0.663271	-0.344064	-1.063100
H334	H	1.163271	0.155936	-0.563100
H335	H	0.700574	-0.349547	-1.141411
H336	H	1.200574	0.150453	-0.641411
H337	H	0.657826	-0.306751	-1.141414
H338	H	1.157826	0.193249	-0.641414
H339	H	0.663077	-0.344278	-0.949869
H340	H	1.163077	0.155722	-0.449869
H341	H	0.446329	-0.323566	-0.329780
H342	H	0.946329	0.176434	0.170220
H343	H	0.197048	-0.355072	-0.272041
H344	H	0.697048	0.144928	0.227959
