data_functionalizedCrystal
_audit_creation_method	'MofGen! by Chris Wilmer'
_symmetry_space_group_name_H-M	'P1'
_symmetry_Int_Tables_number	1
_symmetry_cell_setting	triclinic
loop_
_symmetry_equiv_pos_as_xyz
  x,y,z
_cell_length_a	11.792241
_cell_length_b	11.792254
_cell_length_c	11.892095
_cell_angle_alpha	93.915908
_cell_angle_beta	86.078452
_cell_angle_gamma	84.196007
loop_
_atom_site_label
_atom_site_type_symbol
_atom_site_fract_x
_atom_site_fract_y
_atom_site_fract_z
O1	O	1.514120	0.148364	-0.093894
O2	O	1.847453	0.481697	0.239440
O3	O	2.180786	0.815031	0.572773
O4	O	1.183781	0.164395	-0.093920
O5	O	1.517115	0.497728	0.239413
O6	O	1.850448	0.831061	0.572747
O7	O	1.356959	-0.008790	-0.093898
O8	O	1.690292	0.324544	0.239435
O9	O	2.023625	0.657877	0.572769
O10	O	1.340942	0.321548	-0.093915
O11	O	1.674275	0.654882	0.239418
O12	O	2.007609	0.988215	0.572751
O13	O	1.342519	0.005628	0.094108
O14	O	1.675853	0.338961	0.427441
O15	O	2.009186	0.672294	0.760774
O16	O	1.169342	0.178812	0.094086
O17	O	1.502675	0.512145	0.427419
O18	O	1.836009	0.845479	0.760752
O19	O	1.499680	0.162781	0.094112
O20	O	1.833014	0.496115	0.427445
O21	O	2.166347	0.829448	0.760779
Zn22	Zn	1.332219	0.173086	0.123949
Zn23	Zn	1.665552	0.506419	0.457282
Zn24	Zn	1.998885	0.839752	0.790616
Zn25	Zn	1.351243	0.154090	-0.123757
Zn26	Zn	1.684576	0.487424	0.209577
Zn27	Zn	2.017910	0.820757	0.542910
O28	O	1.326503	0.335966	0.094090
O29	O	1.659836	0.669299	0.427424
O30	O	1.993169	1.002632	0.760757
C31	C	1.134271	0.170596	0.000080
C32	C	1.467604	0.503929	0.333413
C33	C	1.800938	0.837263	0.666746
C34	C	1.008258	0.167581	0.000070
C35	C	1.341591	0.500914	0.333403
C36	C	1.674924	0.834248	0.666736
C37	C	1.348730	-0.043872	0.000104
C38	C	1.682063	0.289462	0.333438
C39	C	2.015397	0.622795	0.666771
C40	C	1.345710	-0.169885	0.000103
C41	C	1.679043	0.163449	0.333436
C42	C	2.012377	0.496782	0.666770
C43	C	0.777543	0.162040	0.000102
C44	C	1.110876	0.495374	0.333436
C45	C	1.444209	0.828707	0.666769
C46	C	0.905930	0.165119	0.000084
C47	C	1.239263	0.498452	0.333418
C48	C	1.572596	0.831786	0.666751
C49	C	1.343256	-0.272222	0.000099
C50	C	1.676590	0.061112	0.333432
C51	C	2.009923	0.394445	0.666765
C52	C	1.340189	-0.400609	0.000088
C53	C	1.673522	-0.067276	0.333421
C54	C	2.006855	0.266058	0.666755
C55	C	1.549191	0.156580	0.000110
C56	C	1.882524	0.489913	0.333443
C57	C	2.215857	0.823246	0.666777
C58	C	1.675204	0.159594	0.000113
C59	C	2.008538	0.492928	0.333446
C60	C	2.341871	0.826261	0.666779
C61	C	1.334732	0.371047	0.000085
C62	C	1.668065	0.704381	0.333419
C63	C	2.001398	1.037714	0.666752
C64	C	1.337752	0.497060	0.000079
C65	C	1.671086	0.830393	0.333413
C66	C	2.004419	1.163727	0.666746
N67	N	1.319243	0.186049	0.293001
N68	N	1.652576	0.519382	0.626335
N69	N	1.985910	0.852716	0.959668
N70	N	1.364227	0.141118	-0.292809
N71	N	1.697561	0.474451	0.040524
N72	N	2.030894	0.807785	0.373858
C73	C	1.454516	0.050848	0.529666
C74	C	1.787849	0.384181	0.863000
C75	C	2.121182	0.717515	1.196333
C76	C	1.445454	0.059918	0.648007
C77	C	1.778788	0.393251	0.981340
C78	C	2.112121	0.726584	1.314674
C79	C	1.292054	0.213252	0.648026
C80	C	1.625387	0.546585	0.981359
C81	C	1.958721	0.879918	1.314692
C82	C	1.301116	0.204182	0.529685
C83	C	1.634449	0.537515	0.863018
C84	C	1.967782	0.870849	1.196352
C85	C	1.382350	0.122979	0.470509
C86	C	1.715683	0.456312	0.803843
C87	C	2.049017	0.789645	1.137176
C88	C	1.391416	0.113915	0.352167
C89	C	1.724750	0.447249	0.685500
C90	C	2.058083	0.780582	1.018833
C91	C	1.238011	0.267243	0.352187
C92	C	1.571345	0.600576	0.685521
C93	C	1.904678	0.933910	1.018854
C94	C	1.228950	0.276313	0.470528
C95	C	1.562283	0.609646	0.803861
C96	C	1.895617	0.942979	1.137195
H97	H	1.520668	-0.015263	0.481485
H98	H	1.854001	0.318070	0.814818
H99	H	2.187334	0.651404	1.148151
Br100	Br	1.501667	0.003718	0.271858
Br101	Br	1.835000	0.337051	0.605191
Br102	Br	2.168333	0.670385	0.938525
Br103	Br	1.543392	-0.037983	0.728289
Br104	Br	1.876725	0.295350	1.061623
Br105	Br	2.210059	0.628683	1.394956
H106	H	1.225907	0.279358	0.696222
H107	H	1.559241	0.612691	1.029555
H108	H	1.892574	0.946024	1.362889
H109	H	1.162807	0.342424	0.518722
H110	H	1.496141	0.675757	0.852056
H111	H	1.829474	1.009091	1.185389
Br112	Br	1.140079	0.365149	0.271893
Br113	Br	1.473412	0.698483	0.605226
Br114	Br	1.806745	1.031816	0.938559
