data_functionalizedCrystal
_audit_creation_method	'MofGen! by Chris Wilmer'
_symmetry_space_group_name_H-M	'P1'
_symmetry_Int_Tables_number	1
_symmetry_cell_setting	triclinic
loop_
_symmetry_equiv_pos_as_xyz
  x,y,z
_cell_length_a	21.395362
_cell_length_b	16.120444
_cell_length_c	21.395355
_cell_angle_alpha	87.118536
_cell_angle_beta	90.043940
_cell_angle_gamma	92.943436
loop_
_atom_site_label
_atom_site_type_symbol
_atom_site_fract_x
_atom_site_fract_y
_atom_site_fract_z
Zn1	Zn	0.945240	-0.331660	0.367218
Zn2	Zn	0.939838	-0.471059	0.267751
Zn3	Zn	0.840453	-0.331699	0.262421
Zn4	Zn	0.835119	-0.471077	0.372456
O5	O	0.890163	-0.401374	0.317462
O6	O	1.032202	-0.350128	0.354062
O7	O	0.926626	-0.452582	0.179366
O8	O	0.858846	-0.215025	0.271900
O9	O	1.028234	-0.452544	0.280984
O10	O	0.935833	-0.214996	0.348895
O11	O	0.853609	-0.350194	0.175451
O12	O	0.752067	-0.350211	0.276979
O13	O	0.849755	-0.452574	0.459439
O14	O	0.748148	-0.452611	0.357821
O15	O	0.930660	-0.350145	0.455591
O16	O	0.921454	-0.587731	0.286062
O17	O	0.844518	-0.587743	0.362989
C18	C	0.727373	-0.401418	0.317391
C19	C	0.657731	-0.401457	0.317376
C20	C	0.881838	-0.617988	0.325686
C21	C	0.878334	-0.710657	0.329225
C22	C	0.622991	-0.454847	0.359413
C23	C	0.557556	-0.454827	0.359440
C24	C	0.526864	-0.401425	0.317419
C25	C	0.561612	-0.348024	0.275379
C26	C	0.627045	-0.348040	0.275357
C27	C	0.423394	-0.394708	0.260758
C28	C	0.357962	-0.394698	0.260779
C29	C	0.325045	-0.401370	0.317486
C30	C	0.357568	-0.408070	0.374175
C31	C	0.423002	-0.408086	0.374153
C32	C	0.455912	-0.401401	0.317438
C33	C	0.219353	-0.454741	0.359556
C34	C	0.153918	-0.454715	0.359584
C35	C	0.157975	-0.347917	0.275518
C36	C	0.223409	-0.347939	0.275495
C37	C	0.254094	-0.401355	0.317514
C38	C	0.908494	-0.921578	0.299236
C39	C	0.871948	-0.880318	0.335694
C40	C	0.875502	-0.785910	0.332094
C41	C	0.904940	-1.015995	0.302835
C42	C	1.053588	-0.401330	0.317533
C43	C	1.123230	-0.401312	0.317564
C44	C	0.890215	-0.401357	0.480884
C45	C	0.890238	-0.401350	0.550525
C46	C	0.898537	-0.183914	0.309219
C47	C	0.902106	-0.091245	0.305706
C48	C	0.890149	-0.401330	0.154672
C49	C	0.890257	-0.401103	0.085023
C50	C	0.932363	-0.348013	0.581236
C51	C	0.932364	-0.347977	0.646670
C52	C	0.890245	-0.401293	0.681392
C53	C	0.848111	-0.454633	0.650673
C54	C	0.848108	-0.454662	0.585240
C55	C	0.882412	-0.476364	0.787915
C56	C	0.882420	-0.476337	0.853347
C57	C	0.890252	-0.401205	0.883209
C58	C	0.898089	-0.326097	0.847631
C59	C	0.898086	-0.326126	0.782198
C60	C	0.890244	-0.401268	0.752343
C61	C	0.932381	-0.347825	0.984870
C62	C	0.932377	-0.347787	1.050306
C63	C	0.848127	-0.454451	1.054308
C64	C	0.848128	-0.454481	0.988874
C65	C	0.890258	-0.401169	0.954159
H66	H	0.529265	-0.498303	0.393674
H67	H	0.450190	-0.389271	0.214577
H68	H	0.942448	-0.886004	0.265320
N69	N	0.975402	-0.293554	0.545786
N70	N	1.013013	-0.245935	0.573219
H71	H	1.043410	-0.207473	0.548183
H72	H	0.966667	-0.304539	0.671679
N73	N	0.258889	-0.293398	0.232549
N74	N	0.231481	-0.245718	0.195034
H75	H	0.256538	-0.207194	0.164702
H76	H	0.904465	-0.264970	0.753233
H77	H	0.966682	-0.304410	0.956604
N78	N	0.118419	-0.509260	0.402515
N79	N	0.059997	-0.509241	0.402529
H80	H	0.034925	-0.547767	0.432847
H81	H	0.837991	-0.915896	0.369611
H82	H	0.904468	-0.264917	0.871943
H83	H	0.330769	-0.413502	0.420352
H84	H	0.966680	-0.304349	1.075308
N85	N	0.654337	-0.509394	0.402341
N86	N	0.692029	-0.480151	0.441182
H87	H	0.714170	-0.518674	0.471500
H88	H	0.813827	-0.497854	1.082578
N89	N	0.805094	-0.508971	0.957510
N90	N	0.767487	-0.556569	0.988516
H91	H	0.737091	-0.595053	0.966366
H92	H	0.876043	-0.537494	0.882309
N93	N	0.874405	-0.553122	0.757425
N94	N	0.867414	-0.620174	0.789195
H95	H	0.861757	-0.674383	0.767663
H96	H	0.536618	-0.304542	0.241166
N97	N	0.805088	-0.509084	0.686147
N98	N	0.805096	-0.509052	0.744568
H99	H	0.774708	-0.547506	0.769622
H100	H	0.655331	-0.304561	0.241125
N101	N	0.805069	-0.509150	0.553877
N102	N	0.767461	-0.556745	0.584882
H103	H	0.737064	-0.595229	0.562731
H104	H	0.449479	-0.413539	0.420311
H105	H	0.132986	-0.304432	0.241306
N106	N	0.250692	-0.509308	0.402479
N107	N	0.219663	-0.556972	0.440014
H108	H	0.241794	-0.595511	0.470328
H109	H	0.331486	-0.389248	0.214620
