data_functionalizedCrystal
_audit_creation_method	'MofGen! by Chris Wilmer'
_symmetry_space_group_name_H-M	'P1'
_symmetry_Int_Tables_number	1
_symmetry_cell_setting	triclinic
loop_
_symmetry_equiv_pos_as_xyz
  x,y,z
_cell_length_a	11.169416
_cell_length_b	16.120542
_cell_length_c	11.169409
_cell_angle_alpha	92.921851
_cell_angle_beta	89.969126
_cell_angle_gamma	92.897986
loop_
_atom_site_label
_atom_site_type_symbol
_atom_site_fract_x
_atom_site_fract_y
_atom_site_fract_z
Zn1	Zn	-0.571003	-1.274675	-0.771647
Zn2	Zn	-0.771737	-1.274598	-0.570963
Zn3	Zn	-0.560868	-1.135247	-0.560798
Zn4	Zn	-0.761438	-1.135252	-0.761431
O5	O	-0.666262	-1.204943	-0.666210
O6	O	-0.606182	-1.391333	-0.753555
O7	O	-0.743834	-1.256079	-0.401662
O8	O	-0.394265	-1.153773	-0.588789
O9	O	-0.753661	-1.391277	-0.606113
O10	O	-0.401711	-1.256210	-0.743698
O11	O	-0.588909	-1.153698	-0.394194
O12	O	-0.578922	-1.018580	-0.578884
O13	O	-0.736107	-1.153781	-0.930739
O14	O	-0.726280	-1.018584	-0.726288
O15	O	-0.596195	-1.256215	-0.938244
O16	O	-0.938319	-1.256084	-0.596208
O17	O	-0.930752	-1.153707	-0.736144
C18	C	-0.650385	-0.988331	-0.650375
C19	C	-0.643622	-0.895663	-0.643629
C20	C	-0.701309	-0.684734	-0.701137
C21	C	-0.631285	-0.726004	-0.631311
C22	C	-0.638151	-0.820411	-0.638167
C23	C	-0.694444	-0.590318	-0.694283
C24	C	-0.978084	-1.204910	-0.666198
C25	C	-1.111488	-1.204972	-0.666239
C26	C	-0.353223	-1.204999	-0.666249
C27	C	-0.219825	-1.205023	-0.666266
C28	C	-0.666133	-1.205007	-0.979257
C29	C	-0.666078	-1.205035	-1.112659
C30	C	-0.682195	-0.422401	-0.682091
C31	C	-0.688968	-0.515069	-0.688815
C32	C	-0.666307	-1.204927	-0.354384
C33	C	-0.666035	-1.205062	-0.220994
H34	H	-0.766411	-0.720301	-0.766059
O35	O	-0.553514	-0.683705	-0.553813
C36	C	-0.489781	-0.740671	-0.490208
H37	H	-0.490100	-0.802788	-0.543798
H38	H	-0.393409	-0.715423	-0.475752
H39	H	-0.534297	-0.749866	-0.399645
