data_functionalizedCrystal
_audit_creation_method	'MofGen! by Chris Wilmer'
_symmetry_space_group_name_H-M	'P1'
_symmetry_Int_Tables_number	1
_symmetry_cell_setting	triclinic
loop_
_symmetry_equiv_pos_as_xyz
  x,y,z
_cell_length_a	10.489741
_cell_length_b	15.538191
_cell_length_c	14.184742
_cell_angle_alpha	71.741512
_cell_angle_beta	75.345973
_cell_angle_gamma	65.905634
loop_
_atom_site_label
_atom_site_type_symbol
_atom_site_fract_x
_atom_site_fract_y
_atom_site_fract_z
O1	O	-1.647979	-0.151664	0.083358
O2	O	-1.270874	-0.164103	0.083372
O3	O	-1.532834	-0.021253	0.083367
O4	O	-1.386019	-0.294515	0.083363
O5	O	-1.498959	0.017139	-0.083490
O6	O	-1.236999	-0.125712	-0.083484
O7	O	-1.614104	-0.113273	-0.083499
Cu8	Cu	-1.422458	-0.115987	-0.098727
Cu9	Cu	-1.462520	-0.161389	0.098600
O10	O	-1.352144	-0.256123	-0.083493
C11	C	-1.206852	-0.143969	-0.000054
C12	C	-1.066559	-0.141160	-0.000048
C13	C	-1.531258	0.032934	-0.000059
C14	C	-1.577014	0.137195	-0.000050
C15	C	-1.678127	-0.133408	-0.000070
C16	C	-1.818420	-0.136218	-0.000070
C17	C	-1.041631	-0.050267	-0.000056
C18	C	-0.945793	-0.112132	0.082210
C19	C	-0.912418	-0.074302	-0.082297
C20	C	-0.972582	-0.203078	0.082286
C21	C	-0.939208	-0.165219	-0.082295
C22	C	-0.843369	-0.227154	-0.000009
C23	C	-1.353721	-0.310310	-0.000066
C24	C	-1.307966	-0.414573	-0.000067
N25	N	-1.394290	-0.084053	-0.237516
C26	C	-1.122456	0.428070	-0.000054
C27	C	-1.165480	0.526045	-0.000058
C28	C	-1.407485	0.546848	-0.000067
C29	C	-1.364482	0.448872	-0.000058
C30	C	-1.221965	0.389491	-0.000053
C31	C	-1.463992	0.410293	-0.000057
C32	C	-1.420990	0.312326	-0.000053
C33	C	-1.278479	0.252939	-0.000051
C34	C	-1.178964	0.291524	-0.000049
C35	C	-1.606506	0.469677	-0.000070
C36	C	-1.706016	0.431098	-0.000068
C37	C	-1.663017	0.333128	-0.000058
C38	C	-1.520506	0.273741	-0.000055
C39	C	-1.762532	0.294543	-0.000059
C40	C	-1.719531	0.196577	-0.000056
C41	C	-1.477504	0.175775	-0.000052
C42	C	-1.311622	0.009707	-0.395076
C43	C	-1.332926	-0.014468	-0.290040
C44	C	-1.434368	-0.129494	-0.290014
C45	C	-1.413066	-0.105332	-0.395052
C46	C	-1.351694	-0.035730	-0.447574
C47	C	-1.453138	-0.150769	-0.447550
C48	C	-1.431844	-0.126605	-0.552578
C49	C	-1.370478	-0.057004	-0.605108
C50	C	-1.330400	-0.011566	-0.552602
C51	C	-1.514519	-0.220366	-0.395026
C52	C	-1.554592	-0.265803	-0.447524
C53	C	-1.533289	-0.241644	-0.552554
C54	C	-1.471923	-0.172043	-0.605084
C55	C	-1.573367	-0.287082	-0.605060
C56	C	-1.552073	-0.262918	-0.710088
C57	C	-1.450629	-0.147879	-0.710112
N58	N	-1.490701	-0.193316	0.237389
H59	H	-1.126867	0.024427	0.000048
F60	F	-1.652268	0.573945	-0.000080
F61	F	-1.265065	0.062505	-0.608506
F62	F	-1.007467	-0.274246	0.173296
H63	H	-1.531857	-0.240037	-0.309505
F64	F	-1.619911	-0.339874	-0.391615
H65	H	-0.947184	-0.089677	0.151763
F66	F	-1.059555	0.567101	-0.000065
F67	F	-1.638699	-0.361146	-0.549149
F68	F	-1.594729	-0.311273	-0.765964
F69	F	-1.290307	0.033919	-0.234171
H70	H	-1.800561	0.165165	-0.000056
H71	H	-0.758392	-0.301961	0.000035
H72	H	-1.361454	0.127420	-0.000040
F73	F	-1.385294	-0.073808	-0.766016
F74	F	-1.559156	0.610057	-0.000080
H75	H	-1.243469	0.173170	-0.000054
H76	H	-0.885612	-0.019826	-0.151847
F77	F	-1.857686	0.494307	-0.000082
F78	F	-1.027282	0.228318	-0.000034
F79	F	-0.937453	-0.194527	-0.173209
F80	F	-1.347825	-0.031280	-0.716890
F81	F	-1.246287	0.083778	-0.450980
F82	F	-1.499688	-0.203565	-0.234105
H83	H	-1.006406	0.379716	-0.000042
H84	H	-1.878567	0.342908	-0.000074
