data_functionalizedCrystal
_audit_creation_method	'MofGen! by Chris Wilmer'
_symmetry_space_group_name_H-M	'P1'
_symmetry_Int_Tables_number	1
_symmetry_cell_setting	triclinic
loop_
_symmetry_equiv_pos_as_xyz
  x,y,z
_cell_length_a	19.077105
_cell_length_b	19.076808
_cell_length_c	11.169409
_cell_angle_alpha	92.337422
_cell_angle_beta	92.320653
_cell_angle_gamma	89.927608
loop_
_atom_site_label
_atom_site_type_symbol
_atom_site_fract_x
_atom_site_fract_y
_atom_site_fract_z
Zn1	Zn	1.063033	-0.322934	0.729201
Zn2	Zn	1.563033	0.177066	1.229201
Zn3	Zn	1.058214	-0.440468	0.520111
Zn4	Zn	1.558214	0.059532	1.020111
Zn5	Zn	0.945516	-0.318247	0.520804
Zn6	Zn	1.445516	0.181753	1.020804
Zn7	Zn	0.940771	-0.435684	0.713036
Zn8	Zn	1.440771	0.064316	1.213036
O9	O	1.001883	-0.379333	0.620788
O10	O	1.501883	0.120667	1.120788
O11	O	1.160725	-0.342489	0.707940
O12	O	1.660725	0.157511	1.207940
O13	O	1.043234	-0.424296	0.352248
O14	O	1.543234	0.075704	0.852248
O15	O	0.965107	-0.220533	0.555504
O16	O	1.465107	0.279467	1.055504
O17	O	1.157185	-0.428841	0.554322
O18	O	1.657185	0.071159	1.054322
O19	O	1.051446	-0.223976	0.708612
O20	O	1.551446	0.276024	1.208612
O21	O	0.960435	-0.334501	0.352758
O22	O	1.460435	0.165499	0.852758
O23	O	0.846554	-0.329861	0.539829
O24	O	1.346554	0.170139	1.039829
O25	O	0.957020	-0.420686	0.883135
O26	O	1.457020	0.079314	1.383135
O27	O	0.843068	-0.416141	0.681061
O28	O	1.343068	0.083859	1.181061
O29	O	1.046845	-0.337850	0.895012
O30	O	1.546845	0.162150	1.395012
O31	O	1.038633	-0.538170	0.538648
O32	O	1.538633	-0.038170	1.038648
O33	O	0.952348	-0.534654	0.680389
O34	O	1.452348	-0.034654	1.180389
C35	C	0.819315	-0.371974	0.608767
C36	C	1.319315	0.128026	1.108767
C37	C	0.741211	-0.368842	0.603652
C38	C	1.241211	0.131158	1.103652
C39	C	0.994472	-0.561910	0.607717
C40	C	1.494472	-0.061910	1.107717
C41	C	0.991365	-0.640020	0.602169
C42	C	1.491365	-0.140020	1.102169
C43	C	0.702718	-0.412361	0.674655
C44	C	1.202718	0.087639	1.174655
C45	C	0.629331	-0.409409	0.669855
C46	C	1.129331	0.090591	1.169855
C47	C	0.594438	-0.362942	0.594044
C48	C	1.094438	0.137058	1.094044
C49	C	0.632936	-0.319419	0.523038
C50	C	1.132936	0.180581	1.023038
C51	C	0.706322	-0.322368	0.527846
C52	C	1.206322	0.177632	1.027846
C53	C	0.375152	-0.349296	0.571801
C54	C	0.875152	0.150704	1.071801
C55	C	0.301761	-0.346352	0.566997
C56	C	0.801761	0.153648	1.066997
C57	C	0.298161	-0.436341	0.713815
C58	C	0.798161	0.063659	1.213815
C59	C	0.371548	-0.439289	0.718611
C60	C	0.871548	0.060711	1.218611
C61	C	0.410040	-0.395763	0.647609
C62	C	0.910040	0.104237	1.147609
N63	N	0.519425	-0.359926	0.589133
N64	N	1.019425	0.140074	1.089133
N65	N	0.485052	-0.398777	0.652528
N66	N	0.985052	0.101223	1.152528
C67	C	1.034825	-0.678447	0.679338
C68	C	1.534825	-0.178447	1.179338
C69	C	1.031903	-0.751840	0.674127
C70	C	1.531903	-0.251840	1.174127
C71	C	0.985525	-0.786803	0.591741
C72	C	1.485525	-0.286803	1.091741
C73	C	0.942061	-0.748371	0.514568
C74	C	1.442061	-0.248371	1.014568
C75	C	0.944980	-0.674980	0.519786
C76	C	1.444980	-0.174980	1.019786
C77	C	0.971976	-1.006114	0.567587
C78	C	1.471976	-0.506114	1.067587
C79	C	0.969063	-1.079510	0.562373
C80	C	1.469063	-0.579510	1.062373
C81	C	1.058904	-1.082974	0.721934
C82	C	1.558904	-0.582974	1.221934
C83	C	1.061821	-1.009581	0.727139
C84	C	1.561821	-0.509581	1.227139
C85	C	1.018355	-0.971155	0.649971
C86	C	1.518355	-0.471155	1.149971
N87	N	0.982539	-0.861822	0.586410
N88	N	1.482539	-0.361822	1.086410
N89	N	1.021338	-0.896137	0.655309
N90	N	1.521338	-0.396137	1.155309
C91	C	1.185165	-0.386722	0.632857
C92	C	1.685165	0.113278	1.132857
C93	C	1.263268	-0.389870	0.638000
C94	C	1.763268	0.110130	1.138000
C95	C	1.001940	-0.379257	0.933840
C96	C	1.501940	0.120743	1.433840
C97	C	1.001965	-0.379225	1.067244
C98	C	1.501965	0.120775	1.567244
C99	C	1.009343	-0.196044	0.633938
C100	C	1.509343	0.303956	1.133938
C101	C	1.012522	-0.117937	0.639542
C102	C	1.512522	0.382063	1.139542
C103	C	1.001869	-0.379360	0.308961
C104	C	1.501869	0.120640	0.808961
C105	C	1.001989	-0.379200	0.175580
C106	C	1.501989	0.120800	0.675580
H107	H	0.731122	-0.450201	0.736384
H108	H	1.231122	0.049799	1.236384
O109	O	1.111844	-0.971875	0.816003
O110	O	1.611844	-0.471875	1.316003
H111	H	1.106577	-0.914386	0.806658
H112	H	1.606577	-0.414386	1.306658
H113	H	0.909590	-0.643693	0.456948
H114	H	1.409590	-0.143693	0.956948
O115	O	1.105773	-1.124424	0.805170
O116	O	1.605773	-0.624424	1.305170
H117	H	1.161492	-1.112527	0.789298
H118	H	1.661492	-0.612527	1.289298
O119	O	0.256664	-0.483322	0.790358
O120	O	0.756664	0.016678	1.290358
H121	H	0.271264	-0.471931	0.886378
H122	H	0.771264	0.028069	1.386378
H123	H	0.406483	-0.313860	0.513978
H124	H	0.906483	0.186140	1.013978
O125	O	0.925101	-0.964670	0.484357
O126	O	1.425101	-0.464670	0.984357
H127	H	0.957902	-0.932494	0.427799
H128	H	1.457902	-0.432494	0.927799
H129	H	0.273354	-0.308505	0.505271
H130	H	0.773354	0.191495	1.005271
H131	H	0.604521	-0.281582	0.461317
H132	H	1.104521	0.218418	0.961317
H133	H	0.931293	-1.107975	0.495283
H134	H	1.431293	-0.607975	0.995283
H135	H	0.737662	-0.286927	0.470034
H136	H	1.237662	0.213073	0.970034
O137	O	0.587878	-0.456481	0.746305
O138	O	1.087878	0.043519	1.246305
H139	H	0.602464	-0.445163	0.842351
H140	H	1.102464	0.054837	1.342351
O141	O	0.892049	-0.786084	0.425696
O142	O	1.392049	-0.286084	0.925696
H143	H	0.854956	-0.818099	0.474620
H144	H	1.354956	-0.318099	0.974620
O145	O	0.409183	-0.489400	0.800388
O146	O	0.909183	0.010600	1.300388
H147	H	0.370087	-0.519160	0.848966
H148	H	0.870087	-0.019160	1.348966
O149	O	1.078781	-0.793285	0.757357
O150	O	1.578781	-0.293285	1.257357
H151	H	1.045983	-0.825448	0.813939
H152	H	1.545983	-0.325448	1.313939
O153	O	1.084853	-0.640737	0.768188
O154	O	1.584853	-0.140737	1.268188
H155	H	1.114579	-0.679791	0.820976
H156	H	1.614579	-0.179791	1.320976
