data_functionalizedCrystal
_audit_creation_method	'MofGen! by Chris Wilmer'
_symmetry_space_group_name_H-M	'P1'
_symmetry_Int_Tables_number	1
_symmetry_cell_setting	triclinic
loop_
_symmetry_equiv_pos_as_xyz
  x,y,z
_cell_length_a	6.817900
_cell_length_b	17.982723
_cell_length_c	15.185107
_cell_angle_alpha	95.444139
_cell_angle_beta	104.257894
_cell_angle_gamma	102.447564
loop_
_atom_site_label
_atom_site_type_symbol
_atom_site_fract_x
_atom_site_fract_y
_atom_site_fract_z
V1	V	-4.030196	-0.105943	-0.283785
O2	O	-4.022897	0.004546	-0.277985
O3	O	-3.976636	-0.209544	-0.282226
O4	O	-3.985598	-0.104553	-0.407378
O5	O	-4.013874	-0.101172	-0.151966
V6	V	-4.513999	-0.092699	-0.267972
O7	O	-4.290838	-0.134995	-0.318472
O8	O	-4.703554	-0.063647	-0.233285
O9	O	-4.344352	0.010901	-0.269530
O10	O	-4.638695	-0.203189	-0.273771
O11	O	-4.647718	-0.097471	-0.399790
O12	O	-4.335391	-0.094090	-0.144378
C13	C	-3.820259	-0.234792	-0.277848
C14	C	-3.857780	-0.319488	-0.277398
C15	C	-4.270221	-0.843257	-0.279131
C16	C	-4.234956	-0.763676	-0.279558
C17	C	-4.035261	-0.720000	-0.275223
C18	C	-3.870816	-0.755908	-0.270451
C19	C	-3.906079	-0.835486	-0.270017
C20	C	-3.728600	-0.434976	-0.272199
C21	C	-3.693350	-0.355393	-0.272635
C22	C	-4.057477	-0.363166	-0.281739
C23	C	-4.092740	-0.442745	-0.281306
C24	C	-3.928291	-0.478645	-0.276529
C25	C	-3.966530	-0.564935	-0.276064
C26	C	-3.997023	-0.633712	-0.275694
C27	C	-3.831690	-0.100864	-0.437491
C28	C	-3.876475	-0.100413	-0.538532
C29	C	-4.103255	-0.168246	-0.979003
C30	C	-4.028810	-0.028648	-0.952493
C31	C	-3.986685	-0.029084	-0.857561
C32	C	-4.002846	-0.099102	-0.823346
C33	C	-4.061133	-0.168684	-0.884063
C34	C	-3.928416	0.040497	-0.796837
C35	C	-3.886288	0.040064	-0.701899
C36	C	-3.902435	-0.029955	-0.667682
C37	C	-3.960723	-0.099540	-0.728405
C38	C	-3.976885	-0.169557	-0.694190
C39	C	-4.035159	-0.239143	-0.754911
C40	C	-4.077279	-0.238702	-0.849846
C41	C	-3.860314	-0.030395	-0.572747
C42	C	-3.934762	-0.169995	-0.599249
C43	C	-4.164071	0.036145	-0.273906
C44	C	-4.105789	0.120841	-0.274362
C45	C	-4.152641	-0.097781	-0.114261
C46	C	-4.087094	-0.098228	-0.013219
H47	H	-3.594684	-0.464195	-0.268298
F48	F	-4.232496	-0.324952	-0.286819
H49	H	-3.530728	-0.319834	-0.269105
H50	H	-3.915276	0.097501	-0.824703
F51	F	-4.305281	-0.489224	-0.285924
H52	H	-3.708215	-0.720340	-0.266915
F53	F	-4.409959	-0.725466	-0.284611
H54	H	-3.772183	-0.864718	-0.266142
F55	F	-3.951955	-0.244519	-0.562843
H56	H	-3.812881	0.026260	-0.523312
F57	F	-4.139383	-0.312755	-0.914477
F58	F	-4.052371	-0.313659	-0.718486
H59	H	-4.150695	-0.224900	-1.028447
F60	F	-3.824215	0.114123	-0.637281
H61	H	-4.015670	0.028357	-0.980358
H62	H	-4.432834	-0.878813	-0.282666
