data_functionalizedCrystal
_audit_creation_method	'MofGen! by Chris Wilmer'
_symmetry_space_group_name_H-M	'P1'
_symmetry_Int_Tables_number	1
_symmetry_cell_setting	triclinic
loop_
_symmetry_equiv_pos_as_xyz
  x,y,z
_cell_length_a	26.809956
_cell_length_b	14.044220
_cell_length_c	14.044190
_cell_angle_alpha	86.809672
_cell_angle_beta	90.000014
_cell_angle_gamma	89.995344
loop_
_atom_site_label
_atom_site_type_symbol
_atom_site_fract_x
_atom_site_fract_y
_atom_site_fract_z
O1	O	0.041437	-1.277180	0.230156
O2	O	0.041449	-1.000508	0.221850
O3	O	0.041433	-1.134688	0.087666
O4	O	0.041452	-1.143001	0.364339
O5	O	-0.041526	-1.134662	0.087686
O6	O	-0.041510	-1.000483	0.221870
O7	O	-0.041523	-1.277154	0.230176
Zn8	Zn	-0.054688	-1.138814	0.226026
Zn9	Zn	0.054614	-1.138848	0.226000
O10	O	-0.041507	-1.142975	0.364359
C11	C	-0.000029	-0.964874	0.218224
C12	C	-0.000025	-0.858731	0.207380
C13	C	-0.000048	-1.131039	0.052054
C14	C	-0.000052	-1.120191	-0.054089
N15	N	-0.129284	-1.138798	0.226044
C16	C	-0.473917	-1.198256	0.166598
C17	C	-0.682795	-1.198278	0.166586
O18	O	-0.709804	-1.248793	0.116046
N19	N	-0.708911	-1.138852	0.225979
C20	C	-0.682805	-1.079412	0.285375
O21	O	-0.709811	-1.028860	0.335885
C22	C	-0.473928	-1.079386	0.285382
C23	C	-0.447814	-1.138823	0.225992
C24	C	-0.447803	-1.257687	0.107213
C25	C	-0.395587	-1.257685	0.107220
C26	C	-0.369484	-1.198252	0.166613
C27	C	-0.395598	-1.138821	0.225999
C28	C	-0.447823	-1.019942	0.344772
C29	C	-0.395600	-1.019939	0.344767
C30	C	-0.369487	-1.079376	0.285377
C31	C	-0.317279	-1.079385	0.285400
N32	N	-0.291163	-1.138811	0.226007
C33	C	-0.317265	-1.198244	0.166614
C34	C	-0.792468	-1.079431	0.285368
C35	C	-0.844687	-1.079438	0.285368
C36	C	-0.844673	-1.198303	0.166577
C37	C	-0.792453	-1.198300	0.166583
C38	C	-0.766352	-1.138857	0.225975
C39	C	-0.207607	-1.198236	0.166635
C40	C	-0.155387	-1.198231	0.166650
C41	C	-0.155405	-1.079364	0.285437
C42	C	-0.207621	-1.079371	0.285425
C43	C	-0.233721	-1.138811	0.226017
O44	O	-0.290237	-1.028889	0.335906
O45	O	-0.290250	-1.248773	0.116096
C46	C	-0.526133	-1.198258	0.166591
C47	C	-0.552247	-1.138827	0.225977
C48	C	-0.526144	-1.079394	0.285370
C49	C	-0.604466	-1.138835	0.225976
C50	C	-0.630569	-1.198268	0.166583
C51	C	-0.604452	-1.257694	0.107190
C52	C	-0.552236	-1.257691	0.107197
C53	C	-0.552261	-1.019968	0.344763
C54	C	-0.604477	-1.019976	0.344752
C55	C	-0.630580	-1.079409	0.285358
N56	N	0.129210	-1.138872	0.225975
C57	C	-0.000043	-1.312789	0.233801
C58	C	-0.000044	-1.418932	0.244646
C59	C	-0.000036	-0.664392	0.187553
C60	C	-0.000033	-0.613264	0.264468
C61	C	-0.000039	-0.505128	0.253436
C62	C	-0.000030	-0.772539	0.198583
C63	C	-0.000035	-1.177292	-0.299547
C64	C	-0.000035	-1.100375	-0.248422
C65	C	-0.000044	-1.111404	-0.140285
C66	C	-0.000025	-1.166265	-0.407694
C67	C	-0.000025	-1.146624	0.399971
C68	C	-0.000018	-1.157472	0.506114
H69	H	-0.134126	-1.246635	0.118288
H70	H	-0.000043	-1.251418	-0.262106
H71	H	-0.000044	-0.626954	0.113425
Br72	Br	-0.360153	-1.338346	0.026612
Br73	Br	-0.483219	-1.338355	0.026595
Br74	Br	-0.243020	-1.278904	0.086007
Br75	Br	-0.880109	-1.278962	0.085973
Br76	Br	-0.757019	-1.278966	0.085980
H77	H	-0.865945	-1.031051	0.333740
Br78	Br	-0.757050	-0.998753	0.365980
H79	H	-0.000029	-1.026243	-0.285865
H80	H	-0.374351	-0.971530	0.393130
Br81	Br	-0.483252	-0.939274	0.425376
H82	H	-0.228883	-1.030983	0.333796
H83	H	-0.134144	-1.030977	0.333797
H84	H	-0.530978	-1.306090	0.058836
H85	H	-0.625713	-1.306090	0.058833
Br86	Br	-0.000023	-0.675663	0.388031
H87	H	-0.531012	-0.971569	0.393127
Br88	Br	-0.639911	-0.939311	0.425366
