data_functionalizedCrystal
_audit_creation_method	'MofGen! by Chris Wilmer'
_symmetry_space_group_name_H-M	'P1'
_symmetry_Int_Tables_number	1
_symmetry_cell_setting	triclinic
loop_
_symmetry_equiv_pos_as_xyz
  x,y,z
_cell_length_a	16.625548
_cell_length_b	18.050589
_cell_length_c	18.050591
_cell_angle_alpha	90.013707
_cell_angle_beta	90.008826
_cell_angle_gamma	90.029289
loop_
_atom_site_label
_atom_site_type_symbol
_atom_site_fract_x
_atom_site_fract_y
_atom_site_fract_z
Zn1	Zn	1.232555	-0.295718	0.419934
Zn2	Zn	1.232472	-0.419892	0.295754
Zn3	Zn	1.097744	-0.295723	0.295759
Zn4	Zn	1.097673	-0.419873	0.419902
O5	O	1.165111	-0.357802	0.357837
O6	O	1.345376	-0.312196	0.403473
O7	O	1.214595	-0.403430	0.191830
O8	O	1.115691	-0.191797	0.312246
O9	O	1.345315	-0.403426	0.312238
O10	O	1.214736	-0.191794	0.403477
O11	O	1.115611	-0.312203	0.191833
O12	O	0.984902	-0.312186	0.312215
O13	O	1.115571	-0.403395	0.523831
O14	O	0.984850	-0.403399	0.403423
O15	O	1.214667	-0.312178	0.523855
O16	O	1.214527	-0.523814	0.312207
O17	O	1.115491	-0.523801	0.403418
C18	C	0.955620	-0.357791	0.357816
C19	C	0.865999	-0.357804	0.357825
C20	C	0.537824	-0.357809	0.357857
C21	C	0.629132	-0.357806	0.357846
C22	C	0.701908	-0.357807	0.357840
C23	C	0.793223	-0.357803	0.357830
C24	C	1.165014	-0.550754	0.357825
C25	C	1.165046	-0.633300	0.357844
C26	C	1.111243	-0.832770	0.407428
C27	C	1.091602	-0.882199	0.339661
C28	C	1.165125	-0.784430	0.357854
C29	C	1.184806	-0.882083	0.425629
C30	C	1.165200	-0.930415	0.357869
C31	C	1.145445	-0.832772	0.290051
C32	C	1.238684	-0.832651	0.376065
C33	C	1.219070	-0.882058	0.308251
C34	C	1.165080	-0.700332	0.357846
C35	C	1.165246	-1.014511	0.357870
C36	C	1.375420	-0.357813	0.357858
C37	C	1.465041	-0.357818	0.357868
C38	C	1.165120	-0.357784	0.551543
C39	C	1.165124	-0.357776	0.634089
C40	C	1.165231	-0.164096	0.357866
C41	C	1.165282	-0.081550	0.357878
C42	C	1.219019	-0.308185	0.882927
C43	C	1.238703	-0.375936	0.833518
C44	C	1.165124	-0.357804	0.931209
C45	C	1.145478	-0.290044	0.833536
C46	C	1.165126	-0.357787	0.785224
C47	C	1.184846	-0.425590	0.882887
C48	C	1.091586	-0.339652	0.882910
C49	C	1.111242	-0.407450	0.833523
C50	C	1.165124	-0.357813	1.015307
C51	C	1.165125	-0.357786	0.701127
C52	C	1.165104	-0.357829	1.164885
C53	C	1.165123	-0.357815	1.082339
H54	H	1.029431	-0.903979	0.324271
H55	H	1.300893	-0.391285	0.811820
H56	H	1.128757	-0.811201	0.232725
H57	H	1.201552	-0.482899	0.904475
H58	H	1.201422	-0.903743	0.482940
H59	H	1.300840	-0.810873	0.391487
C60	C	1.050577	-0.463568	0.804814
C61	C	1.071520	-0.534357	0.829940
C62	C	1.015665	-0.586074	0.803498
H63	H	0.998463	-0.451190	0.822457
H64	H	1.050608	-0.463017	0.752184
H65	H	1.071481	-0.534906	0.882559
H66	H	1.123626	-0.546758	0.812299
H67	H	1.015696	-0.585524	0.750868
H68	H	0.963554	-0.573689	0.821142
H69	H	1.029871	-0.634111	0.820536
H70	H	1.264669	-0.903563	0.266287
C71	C	1.050273	-0.803945	0.463151
C72	C	0.973406	-0.829040	0.443740
C73	C	0.917218	-0.802492	0.495045
H74	H	1.063607	-0.821537	0.511198
H75	H	1.050959	-0.751315	0.463062
H76	H	0.972722	-0.881658	0.443837
H77	H	0.960047	-0.811450	0.395702
H78	H	0.917904	-0.749863	0.494956
H79	H	0.930559	-0.820086	0.543089
H80	H	0.865056	-0.819509	0.481879
C81	C	1.008762	-0.319055	0.911973
C82	C	1.014706	-0.255248	0.955757
C83	C	0.938427	-0.236247	0.982552
H84	H	0.973660	-0.309848	0.871487
H85	H	0.988094	-0.358656	0.940950
H86	H	1.035362	-0.215655	0.926781
H87	H	1.049793	-0.264437	0.996254
H88	H	0.917759	-0.275848	1.011529
H89	H	0.903331	-0.227043	0.942061
H90	H	0.942450	-0.192956	1.012267
C91	C	1.279960	-0.252413	0.911818
C92	C	1.356846	-0.271761	0.886805
C93	C	1.413007	-0.220411	0.913413
H94	H	1.266625	-0.204377	0.894212
H95	H	1.279247	-0.252504	0.964446
H96	H	1.357558	-0.271662	0.834187
H97	H	1.370207	-0.319788	0.904408
H98	H	1.412293	-0.220501	0.966042
H99	H	1.399664	-0.172377	0.895806
H100	H	1.465181	-0.233534	0.896451
C101	C	1.123424	-0.213581	0.804733
C102	C	1.180039	-0.161873	0.829783
C103	C	1.159751	-0.091426	0.803276
H104	H	1.123116	-0.214132	0.752113
H105	H	1.071565	-0.200312	0.822394
H106	H	1.231885	-0.175138	0.812119
H107	H	1.180356	-0.161298	0.882400
H108	H	1.107892	-0.078157	0.820936
H109	H	1.159443	-0.091985	0.750656
H110	H	1.198156	-0.056332	0.820274
