data_functionalizedCrystal
_audit_creation_method	'MofGen! by Chris Wilmer'
_symmetry_space_group_name_H-M	'P1'
_symmetry_Int_Tables_number	1
_symmetry_cell_setting	triclinic
loop_
_symmetry_equiv_pos_as_xyz
  x,y,z
_cell_length_a	14.908571
_cell_length_b	16.120484
_cell_length_c	16.120728
_cell_angle_alpha	84.367400
_cell_angle_beta	90.236006
_cell_angle_gamma	89.787312
loop_
_atom_site_label
_atom_site_type_symbol
_atom_site_fract_x
_atom_site_fract_y
_atom_site_fract_z
Zn1	Zn	1.324458	-0.431441	0.563736
Zn2	Zn	1.324375	-0.564082	0.431039
Zn3	Zn	1.182558	-0.416346	0.416022
Zn4	Zn	1.166472	-0.562284	0.561909
O5	O	1.249466	-0.493538	0.493176
O6	O	1.449915	-0.456106	0.553182
O7	O	1.312259	-0.538920	0.312459
O8	O	1.208148	-0.301762	0.430096
O9	O	1.449854	-0.553557	0.455691
O10	O	1.312402	-0.312852	0.538621
O11	O	1.208068	-0.430378	0.301426
O12	O	1.054956	-0.428635	0.428325
O13	O	1.180732	-0.550492	0.678739
O14	O	1.043137	-0.535855	0.535508
O15	O	1.296803	-0.454362	0.680081
O16	O	1.296661	-0.680430	0.453920
O17	O	1.180651	-0.679109	0.550069
C18	C	1.016514	-0.480412	0.480089
C19	C	0.916854	-0.474818	0.474511
C20	C	0.717323	-0.576112	0.575503
C21	C	0.623683	-0.570858	0.570265
C22	C	0.635933	-0.459053	0.458801
C23	C	0.729573	-0.464307	0.464039
C24	C	0.770264	-0.522839	0.522391
C25	C	0.863906	-0.528096	0.527625
C26	C	0.876154	-0.416288	0.416165
C27	C	0.782514	-0.411034	0.410927
C28	C	1.236925	-0.710001	0.503445
C29	C	1.231640	-0.802611	0.507871
C30	C	1.221996	-0.972171	0.515968
C31	C	1.277095	-1.014074	0.470407
C32	C	1.271729	-1.108423	0.474912
C33	C	1.227361	-0.877813	0.511464
C34	C	1.483327	-0.506716	0.506316
C35	C	1.582984	-0.512332	0.511915
C36	C	1.236983	-0.503910	0.710486
C37	C	1.231663	-0.508330	0.803090
C38	C	1.262079	-0.276232	0.482887
C39	C	1.267454	-0.183629	0.478502
C40	C	1.221919	-0.516380	0.972636
C41	C	1.276980	-0.470774	1.014570
C42	C	1.271558	-0.475253	1.108911
C43	C	1.227339	-0.511902	0.878286
C44	C	1.261899	-0.483229	1.276713
C45	C	1.267239	-0.478822	1.184111
H46	H	0.750454	-0.623775	0.623011
H47	H	1.328295	-0.979090	0.428016
O48	O	1.338040	-0.420241	0.972751
C49	C	1.329912	-0.426943	0.886498
H50	H	1.297491	-0.489040	0.876113
H51	H	1.399262	-0.423517	0.856861
H52	H	1.286411	-0.373691	0.856774
O53	O	1.160937	-1.014025	0.566461
C54	C	1.169118	-1.100274	0.559778
H55	H	1.201584	-1.110643	0.497711
H56	H	1.099781	-1.129965	0.563148
H57	H	1.212601	-1.129959	0.613069
O58	O	0.903539	-0.584841	0.584348
C59	C	0.957342	-0.543095	0.639028
H60	H	0.976696	-0.479303	0.607526
H61	H	1.020591	-0.581273	0.655438
H62	H	0.918245	-0.534952	0.698335
O63	O	1.160911	-0.566959	1.014459
C64	C	1.169010	-0.560215	1.100707
H65	H	1.239122	-0.537369	1.115083
H66	H	1.157448	-0.623820	1.136475
H67	H	1.117009	-0.514004	1.120304
H68	H	0.919269	-0.372911	0.372916
O69	O	0.572388	-0.622694	0.621895
C70	C	0.628388	-0.675463	0.674535
H71	H	0.696924	-0.680415	0.644272
H72	H	0.597036	-0.740020	0.684926
H73	H	0.636486	-0.648626	0.736971
H74	H	0.749370	-0.363377	0.363421
O75	O	0.596252	-0.402244	0.402173
C76	C	0.502251	-0.409003	0.408975
H77	H	0.484185	-0.473933	0.438462
H78	H	0.470541	-0.398235	0.344325
H79	H	0.476015	-0.360307	0.449635
