data_functionalizedCrystal
_audit_creation_method	'MofGen! by Chris Wilmer'
_symmetry_space_group_name_H-M	'P1'
_symmetry_Int_Tables_number	1
_symmetry_cell_setting	triclinic
loop_
_symmetry_equiv_pos_as_xyz
  x,y,z
_cell_length_a	19.188933
_cell_length_b	17.666332
_cell_length_c	16.109301
_cell_angle_alpha	90.006635
_cell_angle_beta	83.303525
_cell_angle_gamma	90.007838
loop_
_atom_site_label
_atom_site_type_symbol
_atom_site_fract_x
_atom_site_fract_y
_atom_site_fract_z
O1	O	0.926391	0.062925	0.103805
O2	O	0.723113	0.062933	0.117776
O3	O	0.830336	0.062921	-0.010259
O4	O	0.819168	0.062937	0.231840
O5	O	0.830317	-0.062975	-0.010263
O6	O	0.723094	-0.062964	0.117773
O7	O	0.926372	-0.062971	0.103801
Cu8	Cu	0.824731	-0.074463	0.110787
Cu9	Cu	0.824754	0.074425	0.110791
O10	O	0.819149	-0.062960	0.231836
C11	C	0.697091	-0.000015	0.117322
C12	C	0.619584	-0.000012	0.115963
C13	C	0.066316	0.068605	0.106266
C14	C	0.139143	0.068608	0.107537
C15	C	0.175551	-0.000018	0.108175
C16	C	0.139129	-0.068652	0.107520
C17	C	0.066304	-0.068653	0.106239
N18	N	0.284679	-0.051096	0.157494
N19	N	0.353859	-0.051090	0.158712
C20	C	0.394969	-0.000019	0.112031
N21	N	0.364284	0.051059	0.064096
N22	N	0.295096	0.051055	0.062882
C23	C	0.254518	-0.000024	0.109563
C24	C	0.510351	0.068614	0.114060
C25	C	0.583180	0.068615	0.115326
C26	C	0.583164	-0.068648	0.115317
C27	C	0.510337	-0.068646	0.114042
C28	C	0.473935	-0.000013	0.113417
N29	N	0.824721	-0.179182	0.110783
C30	C	0.867047	-0.218784	0.161088
C31	C	0.867058	-0.298032	0.161086
C32	C	0.824730	-0.337675	0.110788
C33	C	0.782401	-0.298063	0.060472
C34	C	0.782396	-0.218817	0.060470
N35	N	0.763577	-0.462112	0.108739
N36	N	0.763583	-0.537393	0.108746
C37	C	0.824743	-0.576439	0.110791
N38	N	0.885897	-0.537360	0.112844
N39	N	0.885889	-0.462073	0.112842
C40	C	0.824731	-0.423604	0.110784
C41	C	0.867085	-0.701969	0.161096
C42	C	0.867098	-0.781218	0.161088
C43	C	0.782434	-0.781249	0.060479
C44	C	0.782428	-0.702001	0.060482
C45	C	0.824752	-0.662366	0.110795
C46	C	0.952394	-0.000022	0.104256
C47	C	1.029902	-0.000020	0.105615
C48	C	0.829874	-0.000027	-0.041234
C49	C	0.828518	-0.000029	-0.133525
N50	N	0.824770	0.179144	0.110788
C51	C	0.888989	-0.000019	-0.355997
C52	C	0.887709	-0.000012	-0.442713
C53	C	0.760492	-0.000011	-0.422418
C54	C	0.761772	-0.000012	-0.335704
C55	C	0.826023	-0.000019	-0.302496
C56	C	0.823462	-0.000012	-0.475927
C57	C	0.822074	-0.000006	-0.569948
C58	C	0.827411	-0.000025	-0.208469
C59	C	0.819611	-0.000009	0.262812
C60	C	0.820967	-0.000003	0.355102
H61	H	0.036655	-0.124537	0.105713
H62	H	0.747958	-0.669757	0.019522
H63	H	0.710495	-0.000010	-0.292141
C64	C	0.470306	0.144108	0.113361
C65	C	0.412301	0.162991	0.184664
C66	C	0.372259	0.238485	0.183965
C67	C	0.390222	0.295098	0.111962
C68	C	0.448230	0.276217	0.040654
C69	C	0.488272	0.200722	0.041353
H70	H	0.399001	0.121082	0.237969
H71	H	0.329318	0.252462	0.236752
H72	H	0.360581	0.350983	0.111445
H73	H	0.461530	0.318126	-0.012651
H74	H	0.531214	0.186745	-0.011434
H75	H	0.612829	0.124500	0.115850
C76	C	0.689818	-0.000009	-0.458947
C77	C	0.637526	0.065366	-0.438644
C78	C	0.566850	0.065365	-0.475169
C79	C	0.548464	-0.000011	-0.531995
C80	C	0.600756	-0.065392	-0.552300
C81	C	0.671433	-0.065391	-0.515776
H82	H	0.651136	0.113766	-0.396576
H83	H	0.528140	0.113765	-0.460137
H84	H	0.496145	-0.000012	-0.559032
H85	H	0.587147	-0.113792	-0.594369
H86	H	0.710143	-0.113790	-0.530808
H87	H	0.747928	-0.186574	0.019504
C88	C	0.913646	-0.658363	0.216429
C89	C	0.970518	-0.603870	0.176273
C90	C	1.017079	-0.560265	0.231605
C91	C	1.006769	-0.571153	0.327092
C92	C	0.949894	-0.625648	0.367253
C93	C	0.903333	-0.669253	0.311921
H94	H	0.978153	-0.595808	0.105583
H95	H	1.059181	-0.519924	0.201875
H96	H	1.041236	-0.538873	0.368052
H97	H	0.942260	-0.633710	0.437943
H98	H	0.861231	-0.709594	0.341651
C99	C	0.026278	0.144102	0.105572
C100	C	0.044247	0.200720	0.033577
C101	C	0.004208	0.276217	0.032882
C102	C	-0.053799	0.295096	0.104183
C103	C	-0.071771	0.238476	0.176184
C104	C	-0.031733	0.162979	0.176878
H105	H	0.087190	0.186746	-0.019210
H106	H	0.017513	0.318130	-0.020418
H107	H	-0.083438	0.350983	0.103670
H108	H	-0.114715	0.252451	0.228970
H109	H	-0.045037	0.121066	0.230178
C110	C	0.913607	-0.341606	0.216440
C111	C	0.913603	-0.428773	0.216451
C112	C	0.960146	-0.472345	0.271811
C113	C	1.006694	-0.428749	0.327160
C114	C	1.006700	-0.341576	0.327151
C115	C	0.960157	-0.298005	0.271791
H116	H	0.879144	-0.461050	0.175477
H117	H	0.960141	-0.536876	0.271818
H118	H	1.041148	-0.461003	0.368141
H119	H	1.041159	-0.309299	0.368126
H120	H	0.960162	-0.233474	0.271785
H121	H	0.168797	0.124493	0.108072
C122	C	0.913670	-0.824784	0.216416
C123	C	0.913689	-0.911951	0.216408
C124	C	0.960266	-0.955518	0.271732
C125	C	1.006824	-0.911916	0.327065
C126	C	1.006806	-0.824744	0.327075
C127	C	0.960230	-0.781178	0.271751
H128	H	0.879223	-0.944232	0.175446
H129	H	0.960279	-1.020049	0.271724
H130	H	1.041303	-0.944167	0.368019
H131	H	1.041273	-0.792463	0.368037
H132	H	0.960217	-0.716646	0.271759
C133	C	0.956972	-0.000016	-0.501565
C134	C	0.955570	-0.000010	-0.596948
C135	C	1.024837	-0.000013	-0.655800
C136	C	1.095506	-0.000022	-0.619269
C137	C	1.096912	-0.000027	-0.523880
C138	C	1.027645	-0.000025	-0.465028
H139	H	0.903254	-0.000004	-0.623996
H140	H	1.023796	-0.000009	-0.726413
H141	H	1.146782	-0.000024	-0.662834
H142	H	1.149228	-0.000034	-0.496833
H143	H	1.028685	-0.000029	-0.394415
C144	C	0.179174	-0.144142	0.108223
C145	C	0.259278	-0.144144	0.109637
C146	C	0.299323	-0.219637	0.110336
C147	C	0.259263	-0.295127	0.109620
C148	C	0.179155	-0.295128	0.108206
C149	C	0.139110	-0.219635	0.107508
H150	H	0.288936	-0.088259	0.110166
H151	H	0.358624	-0.219637	0.111382
H152	H	0.288907	-0.351012	0.110138
H153	H	0.149497	-0.351013	0.107677
H154	H	0.079808	-0.219635	0.106461
H155	H	0.612807	-0.124524	0.115833
H156	H	0.941305	-0.000023	-0.328962
H157	H	0.480687	-0.124528	0.113515
C158	C	0.735835	-0.341667	0.005148
C159	C	0.735832	-0.428834	0.005155
C160	C	0.689266	-0.472437	-0.050173
C161	C	0.642703	-0.428872	-0.105508
C162	C	0.642704	-0.341699	-0.105517
C163	C	0.689270	-0.298097	-0.050189
H164	H	0.770303	-0.461088	0.046119
H165	H	0.689266	-0.536968	-0.050167
H166	H	0.608232	-0.461149	-0.146466
H167	H	0.608233	-0.309445	-0.146481
H168	H	0.689271	-0.233566	-0.050196
C169	C	0.913611	-0.175189	0.216424
C170	C	0.970492	-0.120706	0.176272
C171	C	1.017058	-0.077110	0.231606
C172	C	1.006743	-0.087999	0.327093
C173	C	0.949860	-0.142485	0.367251
C174	C	0.903294	-0.186080	0.311917
H175	H	0.978130	-0.112643	0.105582
H176	H	1.059167	-0.036776	0.201878
H177	H	1.041214	-0.055727	0.368055
H178	H	0.942222	-0.150547	0.437941
H179	H	0.861185	-0.226414	0.341645
H180	H	0.747970	-0.813525	0.019524
