data_functionalizedCrystal
_audit_creation_method	'MofGen! by Chris Wilmer'
_symmetry_space_group_name_H-M	'P1'
_symmetry_Int_Tables_number	1
_symmetry_cell_setting	triclinic
loop_
_symmetry_equiv_pos_as_xyz
  x,y,z
_cell_length_a	12.811438
_cell_length_b	14.044220
_cell_length_c	11.892095
_cell_angle_alpha	94.243827
_cell_angle_beta	80.666371
_cell_angle_gamma	88.595284
loop_
_atom_site_label
_atom_site_type_symbol
_atom_site_fract_x
_atom_site_fract_y
_atom_site_fract_z
O1	O	1.420301	0.112339	-0.239597
O2	O	1.670301	0.362339	0.010403
O3	O	1.920301	0.612339	0.260403
O4	O	2.170301	0.862339	0.510403
O5	O	1.113964	0.128242	-0.208198
O6	O	1.363964	0.378242	0.041802
O7	O	1.613964	0.628242	0.291802
O8	O	1.863964	0.878242	0.541802
O9	O	1.262534	-0.017681	-0.223415
O10	O	1.512534	0.232319	0.026585
O11	O	1.762534	0.482319	0.276585
O12	O	2.012534	0.732319	0.526585
O13	O	1.271731	0.258262	-0.224380
O14	O	1.521731	0.508262	0.025620
O15	O	1.771731	0.758262	0.275620
O16	O	2.021731	1.008262	0.525620
O17	O	1.250144	-0.005533	-0.034139
O18	O	1.500144	0.244467	0.215861
O19	O	1.750144	0.494467	0.465861
O20	O	2.000144	0.744467	0.715861
O21	O	1.101574	0.140390	-0.018922
O22	O	1.351574	0.390390	0.231078
O23	O	1.601574	0.640390	0.481078
O24	O	1.851574	0.890390	0.731078
O25	O	1.407912	0.124487	-0.050321
O26	O	1.657912	0.374487	0.199679
O27	O	1.907912	0.624487	0.449679
O28	O	2.157912	0.874487	0.699679
Zn29	Zn	1.252776	0.134367	-0.004570
Zn30	Zn	1.502776	0.384367	0.245430
Zn31	Zn	1.752776	0.634367	0.495430
Zn32	Zn	2.002776	0.884367	0.745430
Zn33	Zn	1.269100	0.118361	-0.253950
Zn34	Zn	1.519100	0.368361	-0.003950
Zn35	Zn	1.769100	0.618361	0.246050
Zn36	Zn	2.019100	0.868361	0.496050
O37	O	1.259342	0.270410	-0.035104
O38	O	1.509342	0.520410	0.214896
O39	O	1.759342	0.770410	0.464896
O40	O	2.009342	1.020410	0.714896
C41	C	1.068328	0.133797	-0.109517
C42	C	1.318328	0.383797	0.140483
C43	C	1.568328	0.633797	0.390483
C44	C	1.818328	0.883797	0.640483
C45	C	0.950804	0.132240	-0.097471
C46	C	1.200804	0.382240	0.152529
C47	C	1.450804	0.632240	0.402529
C48	C	1.700804	0.882240	0.652529
C49	C	0.778406	0.136667	0.022676
C50	C	1.028406	0.386667	0.272676
C51	C	1.278406	0.636667	0.522676
C52	C	1.528406	0.886667	0.772676
C53	C	0.888830	0.138131	0.011363
C54	C	1.138830	0.388131	0.261363
C55	C	1.388830	0.638131	0.511363
C56	C	1.638830	0.888131	0.761363
C57	C	0.902346	0.124887	-0.194998
C58	C	1.152346	0.374887	0.055002
C59	C	1.402346	0.624887	0.305002
C60	C	1.652346	0.874887	0.555002
C61	C	0.791922	0.123423	-0.183684
C62	C	1.041922	0.373423	0.066316
C63	C	1.291922	0.623423	0.316316
C64	C	1.541922	0.873423	0.566316
C65	C	0.729956	0.129312	-0.074844
C66	C	0.979956	0.379312	0.175156
C67	C	1.229956	0.629312	0.425156
C68	C	1.479956	0.879312	0.675156
C69	C	0.619530	0.127841	-0.063531
C70	C	0.869530	0.377841	0.186469
C71	C	1.119530	0.627841	0.436469
C72	C	1.369530	0.877841	0.686469
C73	C	0.633048	0.114604	-0.269891
C74	C	0.883048	0.364604	-0.019891
C75	C	1.133048	0.614604	0.230109
C76	C	1.383048	0.864604	0.480109
C77	C	0.743472	0.116068	-0.281204
C78	C	0.993472	0.366068	-0.031204
C79	C	1.243472	0.616068	0.218796
C80	C	1.493472	0.866068	0.468796
C81	C	1.252313	-0.046911	-0.128364
C82	C	1.502313	0.203089	0.121636
C83	C	1.752313	0.453089	0.371636
C84	C	2.002313	0.703089	0.621636
C85	C	1.240306	-0.152105	-0.127132
C86	C	1.490306	0.097895	0.122868
C87	C	1.740306	0.347895	0.372868
C88	C	1.990306	0.597895	0.622868
C89	C	1.218355	-0.344709	-0.124898
C90	C	1.468355	-0.094709	0.125102
C91	C	1.718355	0.155291	0.375102
C92	C	1.968355	0.405291	0.625102
C93	C	1.303517	-0.402569	-0.133631
C94	C	1.553517	-0.152569	0.116369
C95	C	1.803517	0.097431	0.366369
C96	C	2.053517	0.347431	0.616369
C97	C	1.291303	-0.509740	-0.132388
C98	C	1.541303	-0.259740	0.117612
C99	C	1.791303	-0.009740	0.367612
C100	C	2.041303	0.240260	0.617612
C101	C	1.230567	-0.237527	-0.126141
C102	C	1.480567	0.012473	0.123859
C103	C	1.730567	0.262473	0.373859
C104	C	1.980567	0.512473	0.623859
C105	C	1.453548	0.118931	-0.149004
C106	C	1.703548	0.368931	0.100996
C107	C	1.953548	0.618931	0.350996
C108	C	2.203548	0.868931	0.600996
C109	C	1.571073	0.120488	-0.161058
C110	C	1.821073	0.370488	0.088942
C111	C	2.071073	0.620488	0.338942
C112	C	2.321073	0.870488	0.588942
C113	C	1.269562	0.299639	-0.130158
C114	C	1.519562	0.549639	0.119842
C115	C	1.769562	0.799639	0.369842
C116	C	2.019562	1.049639	0.619842
C117	C	1.281570	0.404833	-0.131397
C118	C	1.531570	0.654833	0.118603
C119	C	1.781570	0.904833	0.368603
C120	C	2.031570	1.154833	0.618603
N121	N	1.241644	0.145290	0.165625
N122	N	1.491644	0.395290	0.415625
N123	N	1.741644	0.645290	0.665625
N124	N	1.991644	0.895290	0.915625
N125	N	1.280240	0.107431	-0.424145
N126	N	1.530240	0.357431	-0.174145
N127	N	1.780240	0.607431	0.075855
N128	N	2.030240	0.857431	0.325855
C129	C	1.357700	0.031371	0.390386
C130	C	1.607700	0.281371	0.640386
C131	C	1.857700	0.531371	0.890386
C132	C	2.107700	0.781371	1.140386
C133	C	1.349927	0.039012	0.509524
C134	C	1.599927	0.289012	0.759524
C135	C	1.849927	0.539012	1.009524
C136	C	2.099927	0.789012	1.259524
C137	C	1.218319	0.168210	0.523041
C138	C	1.468319	0.418210	0.773041
C139	C	1.718319	0.668210	1.023041
C140	C	1.968319	0.918210	1.273041
C141	C	1.226092	0.160568	0.403903
C142	C	1.476092	0.410568	0.653903
C143	C	1.726092	0.660568	0.903903
C144	C	1.976092	0.910568	1.153903
C145	C	1.295786	0.092147	0.337579
C146	C	1.545786	0.342147	0.587579
C147	C	1.795786	0.592147	0.837579
C148	C	2.045786	0.842147	1.087579
C149	C	1.303565	0.084511	0.218439
C150	C	1.553565	0.334511	0.468439
C151	C	1.803565	0.584511	0.718439
C152	C	2.053565	0.834511	0.968439
C153	C	1.171951	0.213703	0.231959
C154	C	1.421951	0.463703	0.481959
C155	C	1.671951	0.713703	0.731959
C156	C	1.921951	0.963703	0.981959
C157	C	1.164178	0.221345	0.351097
C158	C	1.414178	0.471345	0.601097
C159	C	1.664178	0.721345	0.851097
C160	C	1.914178	0.971345	1.101097
H161	H	0.593588	0.108618	-0.349299
H162	H	0.843588	0.358618	-0.099299
H163	H	1.093588	0.608618	0.150701
H164	H	1.343588	0.858618	0.400701
H165	H	0.727952	0.141467	0.111298
H166	H	0.977952	0.391467	0.361298
H167	H	1.227952	0.641467	0.611298
H168	H	1.477952	0.891467	0.861298
H169	H	0.928273	0.144123	0.090774
H170	H	1.178273	0.394123	0.340774
H171	H	1.428273	0.644123	0.590774
H172	H	1.678273	0.894123	0.840774
H173	H	1.136279	-0.375660	-0.116488
H174	H	1.386279	-0.125660	0.133512
H175	H	1.636279	0.124340	0.383512
H176	H	1.886279	0.374340	0.633512
H177	H	1.360316	0.028801	0.164438
H178	H	1.610316	0.278801	0.414438
H179	H	1.860316	0.528801	0.664438
H180	H	2.110316	0.778801	0.914438
H181	H	1.161568	0.223911	0.577059
H182	H	1.411568	0.473911	0.827059
H183	H	1.661568	0.723911	1.077059
H184	H	1.911568	0.973911	1.327059
H185	H	1.414456	-0.024334	0.336383
H186	H	1.664456	0.225666	0.586383
H187	H	1.914456	0.475666	0.836383
H188	H	2.164456	0.725666	1.086383
H189	H	1.121540	0.263195	0.188951
H190	H	1.371540	0.513195	0.438951
H191	H	1.621540	0.763195	0.688951
H192	H	1.871540	1.013195	0.938951
H193	H	1.400342	-0.010479	0.552515
H194	H	1.650342	0.239521	0.802515
H195	H	1.900342	0.489521	1.052515
H196	H	2.150342	0.739521	1.302515
H197	H	0.793939	0.111277	-0.369819
H198	H	1.043939	0.361277	-0.119819
H199	H	1.293939	0.611277	0.130181
H200	H	1.543939	0.861277	0.380181
H201	H	0.569078	0.132642	0.025092
H202	H	0.819078	0.382642	0.275092
H203	H	1.069078	0.632642	0.525092
H204	H	1.319078	0.882642	0.775092
H205	H	0.952817	0.120101	-0.283611
H206	H	1.202817	0.370101	-0.033611
H207	H	1.452817	0.620101	0.216389
H208	H	1.702817	0.870101	0.466389
H209	H	1.107431	0.277050	0.405112
H210	H	1.357431	0.527050	0.655112
H211	H	1.607431	0.777050	0.905112
H212	H	1.857431	1.027050	1.155112
H213	H	1.385604	-0.371621	-0.142120
H214	H	1.635604	-0.121621	0.107880
H215	H	1.885604	0.128379	0.357880
H216	H	2.135604	0.378379	0.607880
