data_functionalizedCrystal
_audit_creation_method	'MofGen! by Chris Wilmer'
_symmetry_space_group_name_H-M	'P1'
_symmetry_Int_Tables_number	1
_symmetry_cell_setting	triclinic
loop_
_symmetry_equiv_pos_as_xyz
  x,y,z
_cell_length_a	12.827893
_cell_length_b	12.759394
_cell_length_c	12.759387
_cell_angle_alpha	90.031660
_cell_angle_beta	90.020913
_cell_angle_gamma	90.014998
loop_
_atom_site_label
_atom_site_type_symbol
_atom_site_fract_x
_atom_site_fract_y
_atom_site_fract_z
Zn1	Zn	1.597691	-0.418207	0.594010
Zn2	Zn	1.597581	-0.593924	0.418328
Zn3	Zn	1.422927	-0.418260	0.418346
Zn4	Zn	1.422919	-0.593845	0.593966
O5	O	1.510279	-0.506059	0.506162
O6	O	1.743912	-0.441527	0.570717
O7	O	1.574371	-0.570677	0.271309
O8	O	1.446159	-0.271232	0.441674
O9	O	1.743832	-0.570625	0.441644
O10	O	1.574557	-0.271193	0.570734
O11	O	1.446053	-0.441617	0.271322
O12	O	1.276690	-0.441541	0.441631
O13	O	1.446145	-0.570491	0.740993
O14	O	1.276684	-0.570542	0.570658
O15	O	1.574549	-0.441450	0.741025
O16	O	1.574363	-0.740934	0.441601
O17	O	1.446039	-0.740876	0.570641
C18	C	1.238770	-0.506039	0.506142
C19	C	1.122616	-0.506056	0.506159
C20	C	1.070871	-0.442288	0.570128
C21	C	0.950821	-0.442304	0.570146
C22	C	1.510217	-0.779026	0.506137
C23	C	1.510285	-0.895803	0.506161
C24	C	1.644009	-0.895810	0.371892
C25	C	1.710898	-0.950674	0.304770
C26	C	1.710960	-1.060396	0.304799
C27	C	1.644127	-1.115255	0.371959
C28	C	1.577238	-1.060391	0.439081
C29	C	1.577181	-0.950667	0.439043
C30	C	1.443521	-1.060384	0.573354
C31	C	1.443453	-0.950663	0.573321
C32	C	1.376688	-1.115244	0.640514
C33	C	1.309792	-1.060380	0.707632
C34	C	1.309733	-0.950651	0.707600
C35	C	1.376563	-0.895798	0.640444
C36	C	1.782850	-0.506079	0.506183
C37	C	1.899003	-0.506087	0.506192
C38	C	1.510358	-0.505956	0.780196
C39	C	1.510392	-0.505912	0.896973
C40	C	1.510371	-0.232025	0.506211
C41	C	1.510410	-0.115248	0.506232
C42	C	1.510261	-0.506085	0.233195
C43	C	1.510430	-0.505833	0.116419
C44	C	1.644108	-0.371551	0.897026
C45	C	1.710981	-0.304354	0.951914
C46	C	1.711006	-0.304316	1.061636
C47	C	1.644150	-0.371479	1.116472
C48	C	1.577277	-0.438675	1.061585
C49	C	1.577261	-0.438709	0.951860
C50	C	1.443557	-0.573030	1.061531
C51	C	1.443535	-0.573075	0.951809
C52	C	1.376701	-0.640193	1.116368
C53	C	1.309832	-0.707396	1.061480
C54	C	1.309810	-0.707432	0.951752
C55	C	1.376663	-0.640271	0.896922
H56	H	1.643953	-0.806469	0.371849
C57	C	1.644169	-0.371434	1.237163
H58	H	1.594774	-0.421052	1.261960
H59	H	1.711601	-0.389600	1.261997
H60	H	1.626120	-0.303620	1.261991
C61	C	1.784408	-0.890328	0.230899
H62	H	1.774789	-0.817123	0.240486
H63	H	1.854625	-0.908240	0.246334
H64	H	1.769146	-0.908382	0.160298
H65	H	0.906321	-0.387712	0.624916
H66	H	1.078041	-0.560661	0.451404
C67	C	1.376725	-0.640157	1.237058
H68	H	1.327328	-0.689774	1.261853
H69	H	1.444158	-0.658331	1.261885
H70	H	1.358684	-0.572344	1.261895
C71	C	1.236286	-1.120725	0.781497
H72	H	1.245902	-1.193928	0.771900
H73	H	1.251533	-1.102668	0.852095
H74	H	1.166064	-1.102820	0.766049
C75	C	0.959098	-0.579853	0.432204
H76	H	0.911014	-0.619877	0.392089
H77	H	1.001664	-0.539571	0.386529
H78	H	1.001686	-0.625636	0.472358
H79	H	1.376515	-0.806457	0.640404
C80	C	1.784533	-1.120749	0.230965
H81	H	1.824323	-1.072367	0.190958
H82	H	1.830068	-1.163485	0.271201
H83	H	1.744588	-1.163618	0.185166
C84	C	1.236157	-0.890304	0.781436
H85	H	1.245694	-0.817100	0.771808
H86	H	1.165960	-0.908359	0.766016
H87	H	1.251444	-0.908215	0.852047
C88	C	1.644200	-1.235946	0.371995
H89	H	1.693607	-1.260764	0.322399
H90	H	1.662252	-1.260694	0.439816
H91	H	1.576783	-1.260838	0.353771
C92	C	1.376752	-1.235934	0.640544
H93	H	1.426151	-1.260755	0.590943
H94	H	1.394806	-1.260689	0.708362
H95	H	1.309330	-1.260818	0.622324
C96	C	1.644088	-0.371594	0.776336
H97	H	1.693476	-0.321969	0.751539
H98	H	1.662120	-0.439405	0.751503
H99	H	1.576651	-0.353412	0.751507
C100	C	1.784562	-0.230405	1.122019
H101	H	1.774992	-0.240001	1.195218
H102	H	1.854766	-0.245795	1.104048
H103	H	1.769288	-0.159813	1.104056
H104	H	1.765412	-0.249670	0.907254
H105	H	1.255397	-0.762069	1.106136
C106	C	1.236267	-0.781368	0.891383
H107	H	1.196468	-0.821368	0.939760
H108	H	1.190739	-0.741206	0.848568
H109	H	1.276236	-0.827169	0.848592
H110	H	1.115447	-0.387677	0.624876
C111	C	1.376636	-0.640310	0.776231
H112	H	1.327239	-0.689950	0.751392
H113	H	1.358594	-0.572514	0.751425
H114	H	1.444063	-0.658506	0.751417
