data_functionalizedCrystal
_audit_creation_method	'MofGen! by Chris Wilmer'
_symmetry_space_group_name_H-M	'P1'
_symmetry_Int_Tables_number	1
_symmetry_cell_setting	triclinic
loop_
_symmetry_equiv_pos_as_xyz
  x,y,z
_cell_length_a	16.109295
_cell_length_b	13.596369
_cell_length_c	14.519731
_cell_angle_alpha	90.006971
_cell_angle_beta	96.425980
_cell_angle_gamma	89.997603
loop_
_atom_site_label
_atom_site_type_symbol
_atom_site_fract_x
_atom_site_fract_y
_atom_site_fract_z
O1	O	-1.103349	0.081727	0.118517
O2	O	-0.853349	0.331727	0.368517
O3	O	-0.603349	0.581727	0.618517
O4	O	-0.353349	0.831727	0.868517
O5	O	-0.861313	0.081744	0.133274
O6	O	-0.611313	0.331744	0.383274
O7	O	-0.361313	0.581744	0.633274
O8	O	-0.111313	0.831744	0.883274
O9	O	-0.988739	0.081726	-0.008356
O10	O	-0.738739	0.331726	0.241644
O11	O	-0.488739	0.581726	0.491644
O12	O	-0.238739	0.831726	0.741644
O13	O	-0.975923	0.081744	0.260146
O14	O	-0.725923	0.331744	0.510146
O15	O	-0.475923	0.581744	0.760146
O16	O	-0.225923	0.831744	1.010146
O17	O	-0.988726	-0.081857	-0.008363
O18	O	-0.738726	0.168143	0.241637
O19	O	-0.488726	0.418143	0.491637
O20	O	-0.238726	0.668143	0.741637
O21	O	-0.861300	-0.081839	0.133267
O22	O	-0.611300	0.168161	0.383267
O23	O	-0.361300	0.418161	0.633267
O24	O	-0.111300	0.668161	0.883267
O25	O	-1.103336	-0.081856	0.118509
O26	O	-0.853336	0.168144	0.368509
O27	O	-0.603336	0.418144	0.618509
O28	O	-0.353336	0.668144	0.868509
Zn29	Zn	-0.982316	-0.107820	0.125887
Zn30	Zn	-0.732316	0.142180	0.375887
Zn31	Zn	-0.482316	0.392180	0.625887
Zn32	Zn	-0.232316	0.642180	0.875887
Zn33	Zn	-0.982333	0.107707	0.125897
Zn34	Zn	-0.732333	0.357707	0.375897
Zn35	Zn	-0.482333	0.607707	0.625897
Zn36	Zn	-0.232333	0.857707	0.875897
O37	O	-0.975910	-0.081838	0.260139
O38	O	-0.725910	0.168162	0.510139
O39	O	-0.475910	0.418162	0.760139
O40	O	-0.225910	0.668162	1.010139
C41	C	-0.830331	-0.000046	0.132674
C42	C	-0.580331	0.249954	0.382674
C43	C	-0.330331	0.499954	0.632674
C44	C	-0.080331	0.749954	0.882674
C45	C	-0.738032	-0.000040	0.130884
C46	C	-0.488032	0.249960	0.380884
C47	C	-0.238032	0.499960	0.630884
C48	C	0.011968	0.749960	0.880884
C49	C	-0.515903	-0.000044	0.210762
C50	C	-0.265903	0.249956	0.460762
C51	C	-0.015903	0.499956	0.710762
C52	C	0.234097	0.749956	0.960762
C53	C	-0.429179	-0.000051	0.209073
C54	C	-0.179179	0.249949	0.459073
C55	C	0.070821	0.499949	0.709073
C56	C	0.320821	0.749949	0.959073
C57	C	-0.448751	-0.000058	0.041037
C58	C	-0.198751	0.249942	0.291037
C59	C	0.051249	0.499942	0.541037
C60	C	0.301249	0.749942	0.791037
C61	C	-0.535473	-0.000059	0.042727
C62	C	-0.285473	0.249941	0.292727
C63	C	-0.035473	0.499941	0.542727
C64	C	0.214527	0.749941	0.792727
C65	C	-0.569046	-0.000047	0.127592
C66	C	-0.319046	0.249953	0.377592
C67	C	-0.069046	0.499953	0.627592
C68	C	0.180954	0.749953	0.877592
C69	C	-0.395600	-0.000052	0.124214
C70	C	-0.145600	0.249948	0.374214
C71	C	0.104400	0.499948	0.624214
C72	C	0.354400	0.749948	0.874214
C73	C	-0.301571	-0.000059	0.122382
C74	C	-0.051571	0.249941	0.372382
C75	C	0.198429	0.499941	0.622382
C76	C	0.448429	0.749941	0.872382
C77	C	-0.663082	-0.000043	0.129424
C78	C	-0.413082	0.249957	0.379424
C79	C	-0.163082	0.499957	0.629424
C80	C	0.086918	0.749957	0.879424
N81	N	-0.982311	-0.254912	0.125879
N82	N	-0.732311	-0.004912	0.375879
N83	N	-0.482311	0.245088	0.625879
N84	N	-0.232311	0.495088	0.875879
C85	C	-0.982332	-0.656203	0.125898
C86	C	-0.732332	-0.406203	0.375898
C87	C	-0.482332	-0.156203	0.625898
C88	C	-0.232332	0.093797	0.875898
C89	C	-0.982324	-0.544552	0.125896
C90	C	-0.732324	-0.294552	0.375896
C91	C	-0.482324	-0.044552	0.625896
C92	C	-0.232324	0.205448	0.875896
C93	C	-0.982322	-0.455561	0.125889
C94	C	-0.732322	-0.205561	0.375889
C95	C	-0.482322	0.044439	0.625889
C96	C	-0.232322	0.294439	0.875889
C97	C	-0.982313	-0.343903	0.125886
C98	C	-0.732313	-0.093903	0.375886
C99	C	-0.482313	0.156097	0.625886
C100	C	-0.232313	0.406097	0.875886
C101	C	-0.134318	-0.000064	0.119115
C102	C	0.115682	0.249936	0.369115
C103	C	0.365682	0.499936	0.619115
C104	C	0.615682	0.749936	0.869115
C105	C	-0.226615	-0.000060	0.120922
C106	C	0.023385	0.249940	0.370922
C107	C	0.273385	0.499940	0.620922
C108	C	0.523385	0.749940	0.870922
C109	C	-0.988132	-0.000066	-0.042717
C110	C	-0.738132	0.249934	0.207283
C111	C	-0.488132	0.499934	0.457283
C112	C	-0.238132	0.749934	0.707283
C113	C	-0.986333	-0.000066	-0.145094
C114	C	-0.736333	0.249934	0.104906
C115	C	-0.486333	0.499934	0.354906
C116	C	-0.236333	0.749934	0.604906
N117	N	-0.982345	0.254799	0.125897
N118	N	-0.732345	0.504799	0.375897
N119	N	-0.482345	0.754799	0.625897
N120	N	-0.232345	1.004799	0.875897
C121	C	-0.984870	-0.000064	-0.228235
C122	C	-0.734870	0.249936	0.021765
C123	C	-0.484870	0.499936	0.271765
C124	C	-0.234870	0.749936	0.521765
C125	C	-0.983043	-0.000056	-0.332540
C126	C	-0.733043	0.249944	-0.082540
C127	C	-0.483043	0.499944	0.167460
C128	C	-0.233043	0.749944	0.417460
C129	C	-0.981593	-0.000050	-0.415675
C130	C	-0.731593	0.249950	-0.165675
C131	C	-0.481593	0.499950	0.084325
C132	C	-0.231593	0.749950	0.334325
C133	C	-0.979767	-0.000044	-0.519987
C134	C	-0.729767	0.249956	-0.269987
C135	C	-0.479767	0.499956	-0.019987
C136	C	-0.229767	0.749956	0.230013
C137	C	-0.976517	-0.000045	0.294501
C138	C	-0.726517	0.249955	0.544501
C139	C	-0.476517	0.499955	0.794501
C140	C	-0.226517	0.749955	1.044501
C141	C	-0.978317	-0.000038	0.396877
C142	C	-0.728317	0.249962	0.646877
C143	C	-0.478317	0.499962	0.896877
C144	C	-0.228317	0.749962	1.146877
H145	H	-0.385912	-0.000050	0.276799
H146	H	-0.135912	0.249950	0.526799
H147	H	0.114088	0.499950	0.776799
H148	H	0.364088	0.749950	1.026799
C149	C	-0.411817	-0.000059	-0.052306
C150	C	-0.161817	0.249941	0.197694
C151	C	0.088183	0.499941	0.447694
C152	C	0.338183	0.749941	0.697694
H153	H	-0.352557	-0.000047	-0.041402
H154	H	-0.102557	0.249953	0.208598
H155	H	0.147443	0.499953	0.458598
H156	H	0.397443	0.749953	0.708598
H157	H	-0.430046	-0.057103	-0.086558
H158	H	-0.180046	0.192897	0.163442
H159	H	0.069954	0.442897	0.413442
H160	H	0.319954	0.692897	0.663442
H161	H	-0.430054	0.056994	-0.086541
H162	H	-0.180054	0.306994	0.163459
H163	H	0.069946	0.556994	0.413459
H164	H	0.319946	0.806994	0.663459
C165	C	-0.593938	-0.000061	-0.048762
C166	C	-0.343938	0.249939	0.201238
C167	C	-0.093938	0.499939	0.451238
C168	C	0.156062	0.749939	0.701238
H169	H	-0.650394	-0.000071	-0.035599
H170	H	-0.400394	0.249929	0.214401
H171	H	-0.150394	0.499929	0.464401
H172	H	0.099606	0.749929	0.714401
H173	H	-0.583752	0.056981	-0.083558
H174	H	-0.333752	0.306981	0.166442
H175	H	-0.083752	0.556981	0.416442
H176	H	0.166248	0.806981	0.666442
H177	H	-0.583745	-0.057116	-0.083562
H178	H	-0.333745	0.192884	0.166438
H179	H	-0.083745	0.442884	0.416438
H180	H	0.166255	0.692884	0.666438
C181	C	-0.552831	-0.000042	0.304109
C182	C	-0.302831	0.249958	0.554109
C183	C	-0.052831	0.499958	0.804109
C184	C	0.197169	0.749958	1.054109
H185	H	-0.508757	-0.000050	0.353399
H186	H	-0.258757	0.249950	0.603399
H187	H	-0.008757	0.499950	0.853399
H188	H	0.241243	0.749950	1.103399
H189	H	-0.586257	0.057002	0.308269
H190	H	-0.336257	0.307002	0.558269
H191	H	-0.086257	0.557002	0.808269
H192	H	0.163743	0.807002	1.058269
H193	H	-0.586251	-0.057095	0.308254
H194	H	-0.336251	0.192905	0.558254
H195	H	-0.086251	0.442905	0.808254
H196	H	0.163749	0.692905	1.058254
