data_functionalizedCrystal
_audit_creation_method	'MofGen! by Chris Wilmer'
_symmetry_space_group_name_H-M	'P1'
_symmetry_Int_Tables_number	1
_symmetry_cell_setting	triclinic
loop_
_symmetry_equiv_pos_as_xyz
  x,y,z
_cell_length_a	21.395362
_cell_length_b	12.759394
_cell_length_c	21.395355
_cell_angle_alpha	89.985423
_cell_angle_beta	89.956060
_cell_angle_gamma	90.030716
loop_
_atom_site_label
_atom_site_type_symbol
_atom_site_fract_x
_atom_site_fract_y
_atom_site_fract_z
Zn1	Zn	0.957929	-0.417943	-0.354603
Zn2	Zn	0.957860	-0.593608	-0.249833
Zn3	Zn	0.853143	-0.417992	-0.249804
Zn4	Zn	0.853142	-0.593629	-0.354537
O5	O	0.905518	-0.505793	-0.302194
O6	O	1.045597	-0.441216	-0.340744
O7	O	0.943941	-0.570323	-0.162151
O8	O	0.867073	-0.270964	-0.263721
O9	O	1.045547	-0.570276	-0.263770
O10	O	0.944058	-0.270928	-0.340717
O11	O	0.867006	-0.441299	-0.162130
O12	O	0.765465	-0.441320	-0.263658
O13	O	0.867070	-0.570313	-0.442224
O14	O	0.765464	-0.570360	-0.340605
O15	O	0.944056	-0.441237	-0.442272
O16	O	0.943940	-0.740632	-0.263706
O17	O	0.867003	-0.740647	-0.340632
C18	C	0.742731	-0.505848	-0.302121
C19	C	0.673089	-0.505897	-0.302105
C20	C	0.640392	-0.573178	-0.342112
C21	C	0.574957	-0.573152	-0.342139
C22	C	0.542221	-0.505857	-0.302150
C23	C	0.574927	-0.438564	-0.262141
C24	C	0.640361	-0.438584	-0.262118
C25	C	0.438495	-0.497393	-0.245744
C26	C	0.373062	-0.497380	-0.245766
C27	C	0.340401	-0.505788	-0.302219
C28	C	0.373180	-0.514231	-0.358653
C29	C	0.438614	-0.514252	-0.358631
C30	C	0.471269	-0.505827	-0.302170
C31	C	0.236751	-0.573044	-0.342259
C32	C	0.171314	-0.573011	-0.342288
C33	C	0.171285	-0.438429	-0.262284
C34	C	0.236720	-0.438456	-0.262260
C35	C	0.269449	-0.505770	-0.302247
C36	C	0.905481	-0.778760	-0.302179
C37	C	0.905522	-0.895537	-0.302193
C38	C	0.985696	-0.895467	-0.222150
C39	C	1.025799	-0.950293	-0.182136
C40	C	1.025836	-1.060015	-0.182153
C41	C	0.985766	-1.114913	-0.222190
C42	C	0.945663	-1.060087	-0.262204
C43	C	0.945629	-0.950363	-0.262182
C44	C	0.865493	-1.060157	-0.342250
C45	C	0.865453	-0.950435	-0.342230
C46	C	0.825424	-1.115055	-0.382286
C47	C	0.785317	-1.060229	-0.422298
C48	C	0.785281	-0.950501	-0.422279
C49	C	0.825349	-0.895609	-0.382244
C50	C	1.068942	-0.505738	-0.302267
C51	C	1.138583	-0.505714	-0.302299
C52	C	0.905570	-0.505772	-0.465618
C53	C	0.905593	-0.505762	-0.535259
C54	C	0.905573	-0.231759	-0.302223
C55	C	0.905597	-0.114983	-0.302235
C56	C	0.945678	-0.438550	-0.567998
C57	C	0.945677	-0.438505	-0.633433
C58	C	0.905597	-0.505691	-0.666127
C59	C	0.865505	-0.572908	-0.633380
C60	C	0.865502	-0.572944	-0.567946
C61	C	0.900637	-0.600292	-0.769795
C62	C	0.900644	-0.600258	-0.835228
C63	C	0.905601	-0.505580	-0.867948
C64	C	0.910565	-0.410933	-0.835227
C65	C	0.910563	-0.410968	-0.769793
C66	C	0.905595	-0.505659	-0.737080
C67	C	0.945688	-0.438313	-0.971640
C68	C	0.945682	-0.438266	-1.037076
C69	C	0.865513	-0.572679	-1.037022
C70	C	0.865515	-0.572716	-0.971586
C71	C	0.905606	-0.505535	-0.938899
C72	C	0.905503	-0.505738	-0.139407
C73	C	0.905602	-0.505451	-0.069766
H74	H	0.144693	-0.627797	-0.374870
H75	H	0.752627	-0.905868	-0.454866
H76	H	0.465300	-0.521123	-0.404581
C77	C	0.741248	-1.120612	-0.466336
H78	H	0.717359	-1.072248	-0.490166
H79	H	0.713975	-1.163495	-0.442347
H80	H	0.765227	-1.163336	-0.493674
C81	C	1.069872	-0.889904	-0.138099
H82	H	1.064104	-0.816705	-0.143814
H83	H	1.111971	-0.907802	-0.147319
H84	H	1.060720	-0.907942	-0.095992
C85	C	0.272758	-0.647069	-0.386248
H86	H	0.316412	-0.637455	-0.380500
H87	H	0.262089	-0.631789	-0.428365
H88	H	0.261993	-0.717638	-0.377009
H89	H	1.058494	-1.104654	-0.149573
C90	C	0.676390	-0.647207	-0.386102
H91	H	0.647541	-0.687267	-0.409937
H92	H	0.701873	-0.692933	-0.362082
H93	H	0.701960	-0.607084	-0.413438
H94	H	0.346588	-0.521076	-0.404623
C95	C	0.135284	-0.364392	-0.218304
H96	H	0.091630	-0.374015	-0.224046
H97	H	0.146053	-0.293832	-0.227548
H98	H	0.145950	-0.379664	-0.176182
C99	C	0.916015	-0.306869	-0.733799
H100	H	0.915306	-0.320455	-0.690144
H101	H	0.881940	-0.262681	-0.744495
H102	H	0.954169	-0.273254	-0.744546
C103	C	0.985810	-1.235603	-0.222212
H104	H	1.015432	-1.260393	-0.192646
H105	H	0.996635	-1.260367	-0.262661
H106	H	0.945389	-1.260509	-0.211328
C107	C	0.474420	-0.488144	-0.183643
H108	H	0.518084	-0.489355	-0.191712
H109	H	0.463642	-0.545228	-0.157233
H110	H	0.463701	-0.424125	-0.163679
C111	C	0.821421	-0.646816	-0.669340
H112	H	0.827169	-0.637177	-0.713000
H113	H	0.779326	-0.631464	-0.658588
H114	H	0.830582	-0.717412	-0.658624
H115	H	0.825459	-1.204396	-0.382300
H116	H	0.263343	-0.383675	-0.229680
H117	H	0.825320	-0.806268	-0.382221
H118	H	0.548269	-0.383770	-0.229582
C119	C	0.676329	-0.364579	-0.218106
H120	H	0.647464	-0.324498	-0.194291
H121	H	0.701905	-0.318873	-0.242111
H122	H	0.701804	-0.404718	-0.190753
C123	C	0.337011	-0.488092	-0.183692
H124	H	0.365833	-0.483067	-0.150068
H125	H	0.311453	-0.548280	-0.178126
H126	H	0.311513	-0.427179	-0.184583
C127	C	0.916018	-0.306778	-0.871207
H128	H	0.918978	-0.250420	-0.842349
H129	H	0.880112	-0.297538	-0.896705
H130	H	0.952340	-0.308118	-0.896761
H131	H	0.978322	-0.383844	-0.541388
C132	C	0.821410	-0.646884	-0.531928
H133	H	0.827148	-0.637279	-0.488276
H134	H	0.830563	-0.717465	-0.542663
H135	H	0.779314	-0.631506	-0.542618
C136	C	0.989779	-0.364328	-1.073090
H137	H	1.013657	-0.324333	-1.044248
H138	H	0.965825	-0.318540	-1.098595
H139	H	1.017070	-0.404506	-1.098638
C140	C	0.538982	-0.647102	-0.386184
H141	H	0.567846	-0.687177	-0.410005
H142	H	0.513522	-0.606916	-0.413521
H143	H	0.513392	-0.692832	-0.362206
C144	C	0.989777	-0.364576	-0.669454
H145	H	1.013656	-0.324577	-0.640615
H146	H	0.965825	-0.318791	-0.694964
H147	H	1.017068	-0.404762	-0.694998
C148	C	0.989778	-0.364412	-0.935679
H149	H	0.984043	-0.374069	-0.892019
H150	H	0.980624	-0.293818	-0.946390
H151	H	1.031875	-0.379774	-0.946436
H152	H	0.985662	-0.806126	-0.222124
H153	H	0.832874	-0.627372	-1.063640
H154	H	0.832877	-0.627454	-0.944930
H155	H	0.896606	-0.677326	-0.861864
C156	C	0.895047	-0.704425	-0.733809
H157	H	0.892059	-0.760780	-0.762666
H158	H	0.858695	-0.702935	-0.708307
H159	H	0.930908	-0.713800	-0.708260
