data_functionalizedCrystal
_audit_creation_method	'MofGen! by Chris Wilmer'
_symmetry_space_group_name_H-M	'P1'
_symmetry_Int_Tables_number	1
_symmetry_cell_setting	triclinic
loop_
_symmetry_equiv_pos_as_xyz
  x,y,z
_cell_length_a	15.538191
_cell_length_b	11.026607
_cell_length_c	9.482900
_cell_angle_alpha	101.363848
_cell_angle_beta	95.622696
_cell_angle_gamma	102.070945
loop_
_atom_site_label
_atom_site_type_symbol
_atom_site_fract_x
_atom_site_fract_y
_atom_site_fract_z
O1	O	0.356312	-1.472126	-0.120861
O2	O	0.314516	-1.137231	-0.120867
O3	O	0.209339	-1.369870	-0.120870
O4	O	0.461490	-1.239487	-0.120859
O5	O	0.230813	-1.322567	0.120923
O6	O	0.335990	-1.089928	0.120926
O7	O	0.377786	-1.424823	0.120932
Cu8	Cu	0.358849	-1.253057	0.143006
Cu9	Cu	0.333454	-1.308998	-0.142942
O10	O	0.482963	-1.192184	0.120934
C11	C	0.317542	-1.071765	0.000028
C12	C	0.294556	-0.947176	0.000025
C13	C	0.187293	-1.359861	0.000022
C14	C	0.089608	-1.400496	0.000008
C15	C	0.374760	-1.490290	0.000033
C16	C	0.397745	-1.614881	0.000026
C17	C	-0.266633	-0.996815	0.000032
C18	C	-0.358419	-1.035024	0.000036
C19	C	-0.344417	-1.249941	0.000039
C20	C	-0.252629	-1.211752	0.000028
C21	C	-0.213744	-1.085187	0.000026
C22	C	-0.199740	-1.300124	0.000022
C23	C	-0.107958	-1.261936	0.000019
C24	C	-0.069066	-1.135376	0.000021
C25	C	-0.121963	-1.046999	0.000023
C26	C	-0.238625	-1.426686	0.000035
C27	C	-0.185736	-1.515058	0.000029
C28	C	-0.093954	-1.476872	0.000015
C29	C	-0.055062	-1.350312	0.000017
C30	C	-0.041058	-1.565249	0.000013
C31	C	0.050724	-1.527061	0.000010
C32	C	0.036719	-1.312124	0.000014
C33	C	0.505009	-1.202194	0.000039
C34	C	0.602693	-1.161561	0.000043
N35	N	0.376711	-1.213720	0.344127
C36	C	0.358024	-0.845415	0.000027
C37	C	0.334268	-0.716645	0.000024
N38	N	0.315586	-1.348347	-0.344063
C39	C	0.338716	-1.297389	0.416325
C40	C	0.353586	-1.264665	0.583743
H41	H	0.068380	-1.209065	0.000002
H42	H	0.093788	-1.599022	0.000007
H43	H	0.469674	-0.623080	0.000039
H44	H	0.295175	-1.393246	0.354196
N45	N	0.453297	-0.856270	0.000022
H46	H	0.491443	-0.797146	0.089654
H47	H	0.456685	-0.946755	-0.000033
H48	H	0.272042	-1.444210	0.593812
N49	N	0.411254	-1.137674	0.666020
H50	H	0.413700	-1.132295	0.773954
H51	H	0.473301	-1.128727	0.639494
N52	N	0.238991	-0.705791	0.000038
H53	H	0.235526	-0.615340	0.000040
H54	H	0.200898	-0.764979	-0.089597
H55	H	0.222630	-0.938973	-0.000015
N56	N	0.434376	-1.086734	0.426409
H57	H	0.436822	-1.081356	0.534344
H58	H	0.496423	-1.077787	0.399884
N59	N	0.029925	-1.094169	0.000017
H60	H	0.062750	-1.109625	0.089648
H61	H	0.046744	-1.144711	-0.089677
H62	H	-0.090302	-0.943940	0.000010
H63	H	-0.234972	-0.893756	0.000020
H64	H	-0.401478	-0.963047	0.000062
H65	H	-0.376090	-1.352989	0.000047
H66	H	-0.313361	-1.457777	0.000024
H67	H	-0.072730	-1.668295	0.000029
N68	N	-0.227677	-1.651558	0.000045
H69	H	-0.293845	-1.662342	0.000053
H70	H	-0.216543	-1.709349	-0.089593
