data_functionalizedCrystal
_audit_creation_method	'MofGen! by Chris Wilmer'
_symmetry_space_group_name_H-M	'P1'
_symmetry_Int_Tables_number	1
_symmetry_cell_setting	triclinic
loop_
_symmetry_equiv_pos_as_xyz
  x,y,z
_cell_length_a	23.532361
_cell_length_b	23.532407
_cell_length_c	22.610064
_cell_angle_alpha	89.999397
_cell_angle_beta	89.996103
_cell_angle_gamma	82.839173
loop_
_atom_site_label
_atom_site_type_symbol
_atom_site_fract_x
_atom_site_fract_y
_atom_site_fract_z
O1	O	0.755281	0.069001	-0.049131
O2	O	1.255281	0.569001	0.450869
O3	O	0.589414	0.079032	-0.049146
O4	O	1.089414	0.579032	0.450854
O5	O	0.677349	-0.008916	-0.049127
O6	O	1.177349	0.491084	0.450873
O7	O	0.667345	0.156949	-0.049150
O8	O	1.167345	0.656949	0.450850
O9	O	0.677333	-0.008903	0.049242
O10	O	1.177333	0.491097	0.549242
O11	O	0.589398	0.079045	0.049223
O12	O	1.089398	0.579045	0.549223
O13	O	0.755265	0.069014	0.049238
O14	O	1.255265	0.569014	0.549238
Zn15	Zn	0.672329	0.074031	0.064849
Zn16	Zn	1.172329	0.574031	0.564849
Zn17	Zn	0.672350	0.074014	-0.064757
Zn18	Zn	1.172350	0.574014	0.435243
O19	O	0.667330	0.156962	0.049219
O20	O	1.167330	0.656962	0.549219
C21	C	0.568189	0.078787	0.000037
C22	C	1.068189	0.578787	0.500037
C23	C	0.504971	0.078032	0.000031
C24	C	1.004971	0.578032	0.500031
C25	C	0.677086	-0.030126	0.000059
C26	C	1.177086	0.469874	0.500059
C27	C	0.676320	-0.093343	0.000063
C28	C	1.176320	0.406657	0.500063
C29	C	0.231736	0.074721	-0.053586
C30	C	0.731736	0.574721	0.446414
C31	C	0.291135	0.075436	-0.053587
C32	C	0.791135	0.575436	0.446413
O33	O	0.321868	0.075780	-0.099189
O34	O	0.821868	0.575780	0.400811
N35	N	0.320832	0.075804	0.000034
N36	N	0.820832	0.575804	0.500034
C37	C	0.291128	0.075452	0.053660
C38	C	0.791128	0.575452	0.553660
O39	O	0.321842	0.075830	0.099269
O40	O	0.821842	0.575830	0.599269
C41	C	0.231730	0.074733	0.053661
C42	C	0.731730	0.574733	0.553661
C43	C	0.202035	0.074370	0.000036
C44	C	0.702035	0.574370	0.500036
C45	C	0.202041	0.074358	-0.107206
C46	C	0.702041	0.574358	0.392794
C47	C	0.142645	0.073644	-0.107204
C48	C	0.642645	0.573644	0.392796
C49	C	0.112944	0.073294	-0.053582
C50	C	0.612944	0.573294	0.446418
C51	C	0.142639	0.073657	0.000038
C52	C	0.642639	0.573657	0.500038
C53	C	0.202026	0.074376	0.107287
C54	C	0.702026	0.574376	0.607287
C55	C	0.142624	0.073656	0.107283
C56	C	0.642624	0.573656	0.607283
C57	C	0.112929	0.073294	0.053658
C58	C	0.612929	0.573294	0.553658
C59	C	0.053542	0.072592	0.053662
C60	C	0.553542	0.572592	0.553662
N61	N	0.023845	0.072224	0.000041
N62	N	0.523845	0.572224	0.500041
C63	C	0.053546	0.072575	-0.053581
C64	C	0.553546	0.572575	0.446419
C65	C	0.415868	0.076961	0.053654
C66	C	0.915868	0.576961	0.553654
C67	C	0.475264	0.077684	0.053654
C68	C	0.975264	0.577684	0.553654
C69	C	0.475268	0.077667	-0.053594
C70	C	0.975268	0.577667	0.446406
C71	C	0.415870	0.076948	-0.053593
C72	C	0.915870	0.576948	0.446407
C73	C	0.386171	0.076593	0.000033
C74	C	0.886171	0.576593	0.500033
C75	C	-0.071190	0.071076	-0.053573
C76	C	0.428810	0.571076	0.446427
C77	C	-0.130591	0.070365	-0.053567
C78	C	0.369409	0.570365	0.446433
C79	C	-0.130589	0.070378	0.053680
C80	C	0.369411	0.570378	0.553680
C81	C	-0.071193	0.071093	0.053674
C82	C	0.428807	0.571093	0.553674
C83	C	-0.041495	0.071440	0.000043
C84	C	0.458505	0.571440	0.500043
O85	O	0.022772	0.072245	0.099240
O86	O	0.522772	0.572245	0.599240
O87	O	0.022825	0.072189	-0.099182
O88	O	0.522825	0.572189	0.400818
C89	C	0.723555	-0.492454	0.000035
C90	C	1.223555	0.007546	0.500035
C91	C	0.722844	-0.551854	0.000030
C92	C	1.222844	-0.051854	0.500030
O93	O	0.766630	-0.588606	0.000013
O94	O	1.266630	-0.088606	0.500013
N95	N	0.670566	-0.574471	0.000026
N96	N	1.170566	-0.074471	0.500026
C97	C	0.618997	-0.537685	0.000020
C98	C	1.118997	-0.037685	0.500020
O99	O	0.574465	-0.562377	0.000016
O100	O	1.074465	-0.062377	0.500016
C101	C	0.619709	-0.478286	0.000021
C102	C	1.119709	0.021714	0.500021
C103	C	0.671990	-0.455672	0.000031
C104	C	1.171990	0.044328	0.500031
C105	C	0.775832	-0.469839	0.000045
C106	C	1.275832	0.030161	0.500045
C107	C	0.776543	-0.410443	0.000050
C108	C	1.276543	0.089557	0.500050
C109	C	0.724977	-0.373662	0.000046
C110	C	1.224977	0.126338	0.500046
C111	C	0.672701	-0.396276	0.000037
C112	C	1.172701	0.103724	0.500037
C113	C	0.568140	-0.441501	0.000011
C114	C	1.068140	0.058499	0.500011
C115	C	0.568857	-0.382099	0.000011
C116	C	1.068857	0.117901	0.500011
C117	C	0.621137	-0.359485	0.000021
C118	C	1.121137	0.140515	0.500021
C119	C	0.621847	-0.300099	0.000038
C120	C	1.121847	0.199901	0.500038
N121	N	0.674124	-0.277481	0.000043
N122	N	1.174124	0.222519	0.500043
C123	C	0.725690	-0.314263	0.000047
C124	C	1.225690	0.185737	0.500047
C125	C	0.617505	-0.662427	0.000019
C126	C	1.117505	-0.162427	0.500019
C127	C	0.616793	-0.721825	0.000023
C128	C	1.116793	-0.221825	0.500023
C129	C	0.720640	-0.735990	0.000032
C130	C	1.220640	-0.235990	0.500032
C131	C	0.721352	-0.676591	0.000032
C132	C	1.221352	-0.176591	0.500032
C133	C	0.669783	-0.639810	0.000023
C134	C	1.169783	-0.139810	0.500023
C135	C	0.727179	-0.189526	0.000059
C136	C	1.227179	0.310474	0.500059
C137	C	0.727886	-0.130124	0.000067
C138	C	1.227886	0.369876	0.500067
C139	C	0.624039	-0.115965	0.000055
C140	C	1.124039	0.384035	0.500055
C141	C	0.623332	-0.175361	0.000050
C142	C	1.123332	0.324639	0.500050
C143	C	0.674907	-0.212141	0.000050
C144	C	1.174907	0.287859	0.500050
O145	O	0.578083	-0.263312	0.000054
O146	O	1.078083	0.236688	0.500054
O147	O	0.770214	-0.289562	0.000043
O148	O	1.270214	0.210438	0.500043
C149	C	0.776489	0.069258	0.000054
C150	C	1.276489	0.569258	0.500054
C151	C	0.839708	0.070014	0.000055
C152	C	1.339708	0.570014	0.500055
C153	C	0.667592	0.178171	0.000032
C154	C	1.167592	0.678171	0.500032
C155	C	0.668358	0.241388	0.000023
C156	C	1.168358	0.741388	0.500023
N157	N	0.672319	0.074042	0.153301
N158	N	1.172319	0.574042	0.653301
N159	N	0.672364	0.073998	-0.153209
N160	N	1.172364	0.573998	0.346791
C161	C	0.711289	0.035077	0.561951
C162	C	1.211289	0.535077	1.061951
C163	C	0.711292	0.035073	0.623871
C164	C	1.211292	0.535073	1.123871
O165	O	0.744401	0.001951	0.655897
O166	O	1.244401	0.501951	1.155897
N167	N	0.672349	0.074002	0.654838
N168	N	1.172349	0.574002	1.154838
C169	C	0.633397	0.112935	0.623883
C170	C	1.133397	0.612935	1.123883
O171	O	0.600273	0.146047	0.655909
O172	O	1.100273	0.646047	1.155909
C173	C	0.633392	0.112936	0.561964
C174	C	1.133392	0.612936	1.061964
C175	C	0.672341	0.074007	0.531000
C176	C	1.172341	0.574007	1.031000
C177	C	0.750235	-0.003849	0.530986
C178	C	1.250235	0.496151	1.030986
C179	C	0.750232	-0.003844	0.469071
C180	C	1.250232	0.496156	0.969071
C181	C	0.711284	0.035087	0.438120
C182	C	1.211284	0.535087	0.938120
C183	C	0.672339	0.074013	0.469084
C184	C	1.172339	0.574013	0.969084
C185	C	0.594438	0.151865	0.531009
C186	C	1.094438	0.651865	1.031009
C187	C	0.594435	0.151863	0.469086
C188	C	1.094435	0.651863	0.969086
C189	C	0.633385	0.112934	0.438122
C190	C	1.133385	0.612934	0.938122
C191	C	0.633388	0.112948	0.376217
C192	C	1.133388	0.612948	0.876217
N193	N	0.672331	0.074018	0.345250
N194	N	1.172331	0.574018	0.845250
C195	C	0.711279	0.035088	0.376201
C196	C	1.211279	0.535088	0.876201
C197	C	0.633410	0.112929	0.753916
C198	C	1.133410	0.612929	1.253916
C199	C	0.633418	0.112932	0.815834
C200	C	1.133418	0.612932	1.315834
C201	C	0.711312	0.035068	0.815818
C202	C	1.211312	0.535068	1.315818
C203	C	0.711307	0.035069	0.753899
C204	C	1.211307	0.535069	1.253899
C205	C	0.672353	0.074000	0.722949
C206	C	1.172353	0.574000	1.222949
C207	C	0.711272	0.035102	0.246173
C208	C	1.211272	0.535102	0.746173
C209	C	0.711267	0.035112	0.184252
C210	C	1.211267	0.535112	0.684252
C211	C	0.633371	0.112973	0.184274
C212	C	1.133371	0.612973	0.684274
C213	C	0.633377	0.112965	0.246190
C214	C	1.133377	0.612965	0.746190
C215	C	0.672330	0.074024	0.277138
C216	C	1.172330	0.574024	0.777138
O217	O	0.600295	0.146051	0.344152
O218	O	1.100295	0.646051	0.844152
O219	O	0.744393	0.001976	0.344167
O220	O	1.244393	0.501976	0.844167
H221	H	-0.154766	0.070071	-0.097237
H222	H	0.345234	0.570071	0.402763
H223	H	0.226194	0.074669	0.150954
H224	H	0.726194	0.574669	0.650954
H225	H	0.526862	-0.352154	0.000002
H226	H	1.026862	0.147846	0.500002
H227	H	0.742989	0.003392	0.271365
H228	H	1.242989	0.503392	0.771365
H229	H	0.817825	-0.499782	0.000046
H230	H	1.317825	0.000218	0.500046
H231	H	0.562713	0.183564	0.443890
H232	H	1.062713	0.683564	0.943890
H233	H	0.562721	0.183564	0.556212
H234	H	1.062721	0.683564	1.056212
Br235	Br	-0.030893	0.071594	0.126451
Br236	Br	0.469107	0.571594	0.626451
H237	H	0.391696	0.076653	-0.097259
H238	H	0.891696	0.576653	0.402741
Br239	Br	0.580524	0.165805	0.288211
Br240	Br	1.080524	0.665805	0.788211
H241	H	0.743022	0.003370	0.728691
H242	H	1.243022	0.503370	1.228691
Br243	Br	0.764170	-0.017766	0.857836
Br244	Br	1.264170	0.482234	1.357836
H245	H	0.601662	0.144671	0.159064
H246	H	1.101662	0.644671	0.659064
Br247	Br	0.792306	-0.645907	0.000047
Br248	Br	1.292306	-0.145907	0.500047
H249	H	0.601708	0.144637	0.841041
H250	H	1.101708	0.644637	1.341041
Br251	Br	-0.030894	0.071547	-0.126360
Br252	Br	0.469106	0.571547	0.373640
H253	H	0.525567	-0.459902	-0.000001
H254	H	1.025567	0.040098	0.499999
H255	H	0.781946	-0.035544	0.443863
H256	H	1.281946	0.464456	0.943863
Br257	Br	0.790622	-0.785919	0.000035
Br258	Br	1.290622	-0.285919	0.500035
Br259	Br	0.552379	-0.206053	0.000050
Br260	Br	1.052379	0.293947	0.500050
Br261	Br	0.580543	0.165772	0.711918
Br262	Br	1.080543	0.665772	1.211918
Br263	Br	0.545837	-0.752508	0.000023
Br264	Br	1.045837	-0.252508	0.500023
Br265	Br	0.797174	-0.239433	0.000058
Br266	Br	1.297174	0.260567	0.500058
H267	H	0.819115	-0.392037	0.000056
H268	H	1.319115	0.107963	0.500056
Br269	Br	0.554061	-0.066036	0.000050
Br270	Br	1.054061	0.433964	0.500050
Br271	Br	0.102354	0.073148	-0.179985
Br272	Br	0.602354	0.573148	0.320015
H273	H	0.226217	0.074642	-0.150874
H274	H	0.726217	0.574642	0.349126
H275	H	0.575509	-0.632483	0.000016
H276	H	1.075509	-0.132483	0.500016
H277	H	0.770461	-0.111716	0.000077
H278	H	1.270461	0.388284	0.500077
H279	H	0.499461	0.077952	-0.097256
H280	H	0.999461	0.577952	0.402744
H281	H	0.781951	-0.035554	0.556182
H282	H	1.281951	0.464446	1.056182
Br283	Br	0.764132	-0.017721	0.142232
Br284	Br	1.264132	0.482279	0.642232
Br285	Br	0.375567	0.076485	0.126439
Br286	Br	0.875567	0.576485	0.626439
H287	H	0.499436	0.077988	0.097321
H288	H	0.999436	0.577988	0.597321
H289	H	-0.154783	0.070095	0.097338
H290	H	0.345217	0.570095	0.597338
Br291	Br	0.102322	0.073168	0.180065
Br292	Br	0.602322	0.573168	0.680065
