data_functionalizedCrystal
_audit_creation_method	'MofGen! by Chris Wilmer'
_symmetry_space_group_name_H-M	'P1'
_symmetry_Int_Tables_number	1
_symmetry_cell_setting	triclinic
loop_
_symmetry_equiv_pos_as_xyz
  x,y,z
_cell_length_a	8.497374
_cell_length_b	19.805407
_cell_length_c	19.805405
_cell_angle_alpha	89.971650
_cell_angle_beta	89.985911
_cell_angle_gamma	90.005341
loop_
_atom_site_label
_atom_site_type_symbol
_atom_site_fract_x
_atom_site_fract_y
_atom_site_fract_z
Zn1	Zn	0.892047	1.034635	0.269545
Zn2	Zn	0.628223	1.034580	0.382704
Zn3	Zn	0.628257	0.921479	0.269538
Zn4	Zn	0.891938	0.921413	0.382702
O5	O	0.760116	0.978027	0.326122
O6	O	0.857081	1.129344	0.284560
O7	O	0.407465	1.019581	0.367690
O8	O	0.663309	0.936541	0.174822
O9	O	0.663251	1.129304	0.367697
O10	O	0.857114	1.019676	0.174828
O11	O	0.407490	0.936487	0.284547
O12	O	0.663204	0.826754	0.284545
O13	O	1.112715	0.936428	0.367694
O14	O	0.856929	0.826705	0.367686
O15	O	1.112794	1.019611	0.284558
O16	O	0.663146	1.019517	0.477420
O17	O	0.856896	0.936374	0.477419
C18	C	0.760059	0.802171	0.326115
C19	C	0.760072	0.726939	0.326129
C20	C	0.760040	0.977951	0.501978
C21	C	0.760060	0.977980	0.577210
C22	C	0.861259	0.265172	0.282914
C23	C	0.861248	0.335861	0.282915
C24	C	0.760167	0.371177	0.326133
C25	C	0.659103	0.335801	0.369356
C26	C	0.659123	0.265114	0.369358
C27	C	0.659019	0.620874	0.369351
C28	C	0.659003	0.691567	0.369345
C29	C	0.861144	0.691621	0.282908
C30	C	0.861164	0.620934	0.282910
C31	C	0.760106	0.585564	0.326136
C32	C	0.760122	0.508916	0.326135
C33	C	0.760142	0.447824	0.326131
C34	C	1.171597	0.978022	0.326123
C35	C	1.350241	0.978023	0.326130
C36	C	0.760174	1.154569	0.326130
C37	C	0.760199	1.229801	0.326133
C38	C	0.760227	0.978122	0.149579
C39	C	0.760275	0.978162	0.074347
C40	C	0.659280	1.021315	0.612533
C41	C	0.659315	1.021343	0.683221
C42	C	0.760123	0.978034	0.718586
C43	C	0.860914	0.934697	0.683258
C44	C	0.860886	0.934672	0.612571
C45	C	0.861031	0.934797	0.968332
C46	C	0.861048	0.934824	1.039024
C47	C	0.659460	1.021468	1.038982
C48	C	0.659432	1.021443	0.968294
C49	C	0.760228	0.978109	0.932973
C50	C	0.760191	0.978080	0.856325
C51	C	0.760153	0.978059	0.795233
H52	H	0.943546	0.364657	0.247724
H53	H	0.943561	0.236423	0.247717
O54	O	0.970185	0.582841	0.236298
H55	H	1.040469	0.619313	0.206248
O56	O	0.550119	0.226962	0.415972
H57	H	0.470004	0.194759	0.385624
H58	H	0.943100	0.899512	0.939579
O59	O	0.970162	0.729769	0.236288
H60	H	0.953186	0.784855	0.243550
H61	H	0.577184	1.056579	0.583743
H62	H	0.576689	0.720319	0.404541
O63	O	0.550608	1.068078	0.721322
H64	H	0.480489	1.098182	0.684855
H65	H	0.576727	0.592085	0.404547
O66	O	0.969584	0.887934	0.574468
H67	H	0.898884	0.853517	0.542299
H68	H	0.943150	0.899556	1.067816
H69	H	0.943001	0.899437	0.712058
H70	H	0.576808	0.364561	0.404547
H71	H	0.577393	1.056755	1.067749
O72	O	0.550714	1.068159	0.930149
H73	H	0.480652	1.098304	0.966587
