data_functionalizedCrystal
_audit_creation_method	'MofGen! by Chris Wilmer'
_symmetry_space_group_name_H-M	'P1'
_symmetry_Int_Tables_number	1
_symmetry_cell_setting	triclinic
loop_
_symmetry_equiv_pos_as_xyz
  x,y,z
_cell_length_a	18.050589
_cell_length_b	18.050591
_cell_length_c	18.050582
_cell_angle_alpha	90.022741
_cell_angle_beta	90.018005
_cell_angle_gamma	90.028131
loop_
_atom_site_label
_atom_site_type_symbol
_atom_site_fract_x
_atom_site_fract_y
_atom_site_fract_z
Zn1	Zn	0.295837	-1.135259	-0.420091
Zn2	Zn	0.795837	-0.635259	0.079909
Zn3	Zn	0.420020	-1.135156	-0.295911
Zn4	Zn	0.920020	-0.635156	0.204089
Zn5	Zn	0.295834	-1.011078	-0.295898
Zn6	Zn	0.795834	-0.511078	0.204102
Zn7	Zn	0.419975	-1.011012	-0.420042
Zn8	Zn	0.919975	-0.511012	0.079958
O9	O	0.357917	-1.073126	-0.357986
O10	O	0.857917	-0.573126	0.142014
O11	O	0.312330	-1.239170	-0.403644
O12	O	0.812330	-0.739170	0.096356
O13	O	0.403564	-1.118681	-0.191985
O14	O	0.903564	-0.618681	0.308015
O15	O	0.191910	-1.027622	-0.312388
O16	O	0.691910	-0.527622	0.187612
O17	O	0.403567	-1.239094	-0.312409
O18	O	0.903567	-0.739094	0.187591
O19	O	0.191912	-1.118857	-0.403632
O20	O	0.691912	-0.618857	0.096368
O21	O	0.312325	-1.027522	-0.191975
O22	O	0.812325	-0.527522	0.308025
O23	O	0.312282	-0.907145	-0.312341
O24	O	0.812282	-0.407145	0.187659
O25	O	0.403490	-1.027509	-0.523974
O26	O	0.903490	-0.527509	-0.023974
O27	O	0.403488	-0.907096	-0.403549
O28	O	0.903488	-0.407096	0.096451
O29	O	0.312286	-1.118793	-0.524009
O30	O	0.812286	-0.618793	-0.024009
O31	O	0.523939	-1.118617	-0.312362
O32	O	1.023939	-0.618617	0.187638
O33	O	0.523906	-1.027409	-0.403561
O34	O	1.023906	-0.527409	0.096439
C35	C	0.357880	-0.880174	-0.357938
C36	C	0.857880	-0.380174	0.142062
C37	C	0.357883	-0.797628	-0.357936
C38	C	0.857883	-0.297628	0.142064
C39	C	0.308220	-0.548808	-0.308441
C40	C	0.808220	-0.048808	0.191559
C41	C	0.290142	-0.598242	-0.376218
C42	C	0.790142	-0.098242	0.123782
C43	C	0.357905	-0.500508	-0.357981
C44	C	0.857905	-0.000508	0.142019
C45	C	0.375937	-0.598156	-0.290186
C46	C	0.875937	-0.098156	0.209814
C47	C	0.357892	-0.646493	-0.357955
C48	C	0.857892	-0.146493	0.142045
C49	C	0.339791	-0.548855	-0.425794
C50	C	0.839791	-0.048855	0.074206
C51	C	0.425618	-0.548764	-0.339716
C52	C	0.925618	-0.048764	0.160284
C53	C	0.407566	-0.598176	-0.407540
C54	C	0.907566	-0.098176	0.092460
C55	C	0.357910	-0.416410	-0.357995
C56	C	0.857910	0.083590	0.142005
C57	C	0.357887	-0.730590	-0.357949
C58	C	0.857887	-0.230590	0.142051
C59	C	0.550869	-1.073015	-0.357974
C60	C	1.050869	-0.573015	0.142026
C61	C	0.633414	-1.073035	-0.357994
C62	C	1.133414	-0.573035	0.142006
C63	C	0.832874	-1.023463	-0.407571
C64	C	1.332874	-0.523463	0.092429
C65	C	0.882306	-1.005359	-0.339802
C66	C	1.382306	-0.505359	0.160198
C67	C	0.784545	-1.073091	-0.358004
C68	C	1.284545	-0.573091	0.141996
C69	C	0.882195	-1.091214	-0.425782
C70	C	1.382195	-0.591214	0.074218
C71	C	0.930530	-1.073144	-0.358020
C72	C	1.430530	-0.573144	0.141980
C73	C	0.832889	-1.054952	-0.290198
C74	C	1.332889	-0.554952	0.209802
C75	C	0.832774	-1.140839	-0.376225
C76	C	1.332774	-0.640839	0.123775
C77	C	0.882183	-1.122761	-0.308408
C78	C	1.382183	-0.622761	0.191592
C79	C	0.700447	-1.073059	-0.357996
C80	C	1.200447	-0.573059	0.142004
C81	C	1.014626	-1.073176	-0.358020
C82	C	1.514626	-0.573176	0.141980
C83	C	1.164211	-1.073230	-0.358014
C84	C	1.664211	-0.573230	0.141986
C85	C	1.081665	-1.073202	-0.358029
C86	C	1.581665	-0.573202	0.141971
C87	C	0.357884	-1.073155	-0.551691
C88	C	0.857884	-0.573155	-0.051691
C89	C	0.357870	-1.073168	-0.634237
C90	C	0.857870	-0.573168	-0.134237
C91	C	0.357940	-0.266832	-0.358020
C92	C	0.857940	0.233168	0.141980
C93	C	0.357917	-0.349378	-0.358002
C94	C	0.857917	0.150622	0.141998
C95	C	0.407399	-1.023566	-0.833668
C96	C	0.907399	-0.523566	-0.333668
C97	C	0.425560	-1.091319	-0.883071
C98	C	0.925560	-0.591319	-0.383071
C99	C	0.357813	-1.073204	-0.785368
C100	C	0.857813	-0.573204	-0.285368
C101	C	0.339631	-1.005488	-0.883047
C102	C	0.839631	-0.505488	-0.383047
C103	C	0.357760	-1.073234	-0.931353
C104	C	0.857760	-0.573234	-0.431353
C105	C	0.376010	-1.140993	-0.833682
C106	C	0.876010	-0.640993	-0.333682
C107	C	0.290049	-1.055117	-0.833655
C108	C	0.790049	-0.555117	-0.333655
C109	C	0.308185	-1.122917	-0.883035
C110	C	0.808185	-0.622917	-0.383035
C111	C	0.357845	-1.073187	-0.701269
C112	C	0.857845	-0.573187	-0.201269
C113	C	0.357727	-1.073259	-1.015449
C114	C	0.857727	-0.573259	-0.515449
C115	C	0.357896	-1.073140	-0.165034
C116	C	0.857896	-0.573140	0.334966
C117	C	0.357701	-1.073272	-0.082488
C118	C	0.857701	-0.573272	0.417512
H119	H	0.449577	-0.619715	-0.449471
H120	H	0.949577	-0.119715	0.050529
H121	H	0.482871	-0.527016	-0.324253
H122	H	0.982871	-0.027016	0.175747
F123	F	0.500432	-1.111340	-0.911443
F124	F	1.000432	-0.611340	-0.411443
H125	H	0.266229	-1.164956	-0.904573
H126	H	0.766229	-0.664956	-0.404573
F127	F	0.804315	-1.215674	-0.396392
F128	F	1.304315	-0.715674	0.103608
H129	H	0.904080	-0.948092	-0.324405
H130	H	1.404080	-0.448092	0.175595
H131	H	0.232782	-1.039781	-0.811933
H132	H	0.732782	-0.539781	-0.311933
F133	F	0.804701	-1.034859	-0.215265
F134	F	1.304701	-0.534859	0.284735
F135	F	0.910305	-1.177649	-0.253567
F136	F	1.410305	-0.677649	0.246433
F137	F	0.215286	-0.626642	-0.396409
F138	F	0.715286	-0.126642	0.103591
F139	F	0.319558	-0.930622	-0.911392
F140	F	0.819558	-0.430622	-0.411392
H141	H	0.811222	-0.981439	-0.449429
H142	H	1.311222	-0.481439	0.050571
F143	F	0.910506	-1.111223	-0.500692
F144	F	1.410506	-0.611223	-0.000692
F145	F	0.253269	-0.520473	-0.253765
F146	F	0.753269	-0.020473	0.246235
F147	F	0.319761	-0.520669	-0.500742
F148	F	0.819761	-0.020669	-0.000742
F149	F	0.395881	-0.626465	-0.215261
F150	F	0.895881	-0.126465	0.284739
F151	F	0.462277	-0.968749	-0.805335
F152	F	0.962277	-0.468749	-0.305335
F153	F	0.396172	-1.215882	-0.805461
F154	F	0.896172	-0.715882	-0.305461
