data_functionalizedCrystal
_audit_creation_method	'MofGen! by Chris Wilmer'
_symmetry_space_group_name_H-M	'P1'
_symmetry_Int_Tables_number	1
_symmetry_cell_setting	triclinic
loop_
_symmetry_equiv_pos_as_xyz
  x,y,z
_cell_length_a	18.101398
_cell_length_b	25.639240
_cell_length_c	18.101390
_cell_angle_alpha	89.957963
_cell_angle_beta	89.987205
_cell_angle_gamma	90.030910
loop_
_atom_site_label
_atom_site_type_symbol
_atom_site_fract_x
_atom_site_fract_y
_atom_site_fract_z
Zn1	Zn	1.132101	-0.208157	-0.418594
Zn2	Zn	1.131997	-0.295600	-0.294733
Zn3	Zn	1.008263	-0.208178	-0.294777
Zn4	Zn	1.008207	-0.295561	-0.418543
O5	O	1.070142	-0.251874	-0.356662
O6	O	1.235720	-0.219765	-0.402167
O7	O	1.115563	-0.284029	-0.191106
O8	O	1.024758	-0.135010	-0.311241
O9	O	1.235643	-0.284009	-0.311166
O10	O	1.115741	-0.134995	-0.402209
O11	O	1.024657	-0.219800	-0.191138
O12	O	0.904623	-0.219762	-0.311192
O13	O	1.024662	-0.283941	-0.522183
O14	O	0.904582	-0.283961	-0.402122
O15	O	1.115687	-0.219726	-0.522220
O16	O	1.115509	-0.368760	-0.311116
O17	O	1.024561	-0.368731	-0.402079
C18	C	0.877732	-0.251860	-0.356657
C19	C	0.795418	-0.251866	-0.356672
C20	C	1.070037	-0.387717	-0.356604
C21	C	1.070060	-0.445831	-0.356604
C22	C	0.644709	-0.251876	-0.356671
C23	C	0.613354	-0.292331	-0.413793
C24	C	0.527736	-0.292494	-0.413624
C25	C	0.496327	-0.251885	-0.356671
C26	C	0.527381	-0.266593	-0.278526
C27	C	0.613026	-0.266882	-0.278856
C28	C	0.613190	-0.196613	-0.377011
C29	C	0.527539	-0.196915	-0.378732
C30	C	0.412467	-0.251890	-0.356666
C31	C	0.728569	-0.251873	-0.356670
C32	C	1.117541	-0.806147	-0.404114
C33	C	1.117562	-0.860751	-0.404129
O34	O	1.157807	-0.888949	-0.444465
N35	N	1.070245	-0.888113	-0.356733
C36	C	1.022897	-0.860868	-0.309324
O37	O	0.982651	-0.889155	-0.269012
C38	C	1.022872	-0.806264	-0.309314
C39	C	1.070198	-0.778905	-0.356707
C40	C	1.164862	-0.778788	-0.451505
C41	C	1.164841	-0.724188	-0.451488
C42	C	1.117498	-0.696946	-0.404082
C43	C	1.070177	-0.724305	-0.356691
C44	C	0.975521	-0.779020	-0.261909
C45	C	0.975500	-0.724413	-0.261903
C46	C	1.022826	-0.697054	-0.309297
C47	C	1.022813	-0.642463	-0.309268
N48	N	1.070131	-0.615101	-0.356664
C49	C	1.117473	-0.642343	-0.404071
C50	C	1.022952	-0.975538	-0.309352
C51	C	1.022981	-1.030140	-0.309358
C52	C	1.117645	-1.030021	-0.404164
C53	C	1.117620	-0.975417	-0.404153
C54	C	1.070270	-0.948177	-0.356747
C55	C	1.117426	-0.527678	-0.404033
C56	C	1.117403	-0.473072	-0.404010
C57	C	1.022736	-0.473197	-0.309207
C58	C	1.022762	-0.527798	-0.309227
C59	C	1.070109	-0.555037	-0.356646
O60	O	0.982587	-0.614231	-0.268955
O61	O	1.157705	-0.614049	-0.444383
C62	C	1.263304	-0.251889	-0.356667
C63	C	1.345618	-0.251895	-0.356670
C64	C	1.070180	-0.251827	-0.549824
C65	C	1.070196	-0.251806	-0.632138
C66	C	1.070267	-0.115501	-0.356736
C67	C	1.070321	-0.057387	-0.356768
C68	C	1.070222	-0.251790	-0.782846
C69	C	1.127494	-0.211384	-0.814224
C70	C	1.127734	-0.211493	-0.899842
C71	C	1.070248	-0.251773	-0.931229
C72	C	1.091122	-0.306920	-0.900104
C73	C	1.091522	-0.306696	-0.814459
C74	C	0.991938	-0.237527	-0.814413
C75	C	0.992373	-0.236301	-0.900065
C76	C	1.070262	-0.251767	-1.015088
C77	C	1.070211	-0.251800	-0.698987
C78	C	1.070147	-0.251884	-0.164251
C79	C	1.070275	-0.251757	-0.081937
H80	H	0.506740	-0.283319	-0.471557
H81	H	1.156156	-0.953145	-0.442746
H82	H	1.114693	-0.170609	-0.920889
F83	F	0.641440	-0.345552	-0.396370
F84	F	0.499591	-0.155436	-0.328367
H85	H	0.984231	-0.550074	-0.270629
F86	F	0.640322	-0.280488	-0.489750
H87	H	1.114611	-0.170374	-0.793662
F88	F	0.971788	-0.183255	-0.926660
H89	H	0.984396	-0.953361	-0.270742
H90	H	1.155944	-0.450799	-0.442604
H91	H	0.633469	-0.166474	-0.335411
H92	H	0.632967	-0.307271	-0.261666
F93	F	0.936165	-0.275984	-0.787875
F94	F	1.038280	-0.347341	-0.926671
F95	F	0.641453	-0.179050	-0.450239
F96	F	1.202887	-0.223596	-0.786105
F97	F	0.501015	-0.182412	-0.453903
F98	F	1.167819	-0.556660	-0.454500
H99	H	0.633767	-0.238675	-0.234834
F100	F	1.215208	-0.695077	-0.501936
F101	F	1.168031	-1.059023	-0.454620
H102	H	1.203414	-0.800963	-0.490113
H103	H	1.185749	-0.220944	-0.920331
H104	H	0.984451	-1.052411	-0.270757
F105	F	0.967017	-0.185863	-0.786216
H106	H	1.148739	-0.318761	-0.794482
F107	F	0.500907	-0.346025	-0.396000
F108	F	0.972354	-0.444195	-0.258755
F109	F	0.500791	-0.229262	-0.221365
F110	F	0.925148	-0.808125	-0.211467
H111	H	1.051590	-0.337827	-0.793698
F112	F	0.499301	-0.318808	-0.255670
F113	F	0.925101	-0.695424	-0.211446
F114	F	1.165095	-0.322958	-0.928136
F115	F	0.933652	-0.271937	-0.927988
