data_functionalizedCrystal
_audit_creation_method	'MofGen! by Chris Wilmer'
_symmetry_space_group_name_H-M	'P1'
_symmetry_Int_Tables_number	1
_symmetry_cell_setting	triclinic
loop_
_symmetry_equiv_pos_as_xyz
  x,y,z
_cell_length_a	10.654550
_cell_length_b	17.019370
_cell_length_c	9.130313
_cell_angle_alpha	93.876983
_cell_angle_beta	89.996220
_cell_angle_gamma	83.938823
loop_
_atom_site_label
_atom_site_type_symbol
_atom_site_fract_x
_atom_site_fract_y
_atom_site_fract_z
O1	O	1.666099	0.110790	-0.107952
O2	O	1.300456	0.121345	-0.106597
O3	O	1.493478	0.001292	-0.121736
O4	O	1.473077	0.230843	-0.092813
O5	O	1.493475	0.001295	0.121863
O6	O	1.300453	0.121349	0.137002
O7	O	1.666097	0.110793	0.135648
Cu8	Cu	1.483275	0.116071	0.158567
Cu9	Cu	1.483278	0.116067	-0.129517
O10	O	1.473075	0.230846	0.150786
C11	C	1.253669	0.120572	0.015108
C12	C	1.114262	0.118253	0.014824
C13	C	1.492703	-0.028100	-0.003643
C14	C	1.490382	-0.115682	-0.014687
C15	C	1.033669	0.188939	0.023709
C16	C	0.902683	0.186755	0.023409
C17	C	0.932894	0.043194	0.005332
C18	C	1.063878	0.045379	0.005643
C19	C	1.084053	0.261813	0.032891
C20	C	1.003459	0.332504	0.041775
C21	C	0.872473	0.330321	0.041475
C22	C	0.822080	0.257446	0.032290
C23	C	1.489288	-0.156833	0.112904
C24	C	1.487115	-0.239126	0.102514
C25	C	1.486028	-0.280266	-0.035468
C26	C	1.487127	-0.239109	-0.163068
C27	C	1.489308	-0.156818	-0.152677
C28	C	1.479450	-0.528732	-0.073485
C29	C	1.477265	-0.611029	-0.083867
C30	C	1.477256	-0.611041	0.181717
C31	C	1.479430	-0.528747	0.192096
C32	C	1.480535	-0.487598	0.064495
C33	C	1.483804	-0.364383	-0.046091
C34	C	1.482768	-0.403484	0.075120
C35	C	1.712884	0.111566	0.013939
C36	C	1.852291	0.113885	0.014213
C37	C	1.473850	0.260238	0.032690
C38	C	1.476171	0.347820	0.043724
N39	N	1.483282	0.116073	0.361190
N40	N	1.483281	0.116059	-0.332141
C41	C	1.568774	0.062932	0.431141
C42	C	1.568771	0.062922	0.584477
C43	C	1.397780	0.169203	0.597898
C44	C	1.397778	0.169208	0.444565
C45	C	1.654278	0.009797	0.347767
C46	C	1.739778	-0.043348	0.417717
C47	C	1.739774	-0.043357	0.571053
C48	C	1.654271	0.009778	0.654438
H49	H	1.044498	0.391836	0.049265
C50	C	0.877463	-0.036963	-0.004786
C51	C	0.791529	-0.058203	0.119002
C52	C	0.736101	-0.138362	0.108877
C53	C	0.766606	-0.197281	-0.025035
C54	C	0.852544	-0.176042	-0.148833
C55	C	0.907973	-0.095883	-0.138708
H56	H	0.768944	-0.014587	0.218140
H57	H	0.672483	-0.154084	0.200521
H58	H	0.725574	-0.256619	-0.032530
H59	H	0.875130	-0.219659	-0.247971
H60	H	0.971590	-0.080161	-0.230352
H61	H	1.483660	-0.369985	0.187464
H62	H	1.190707	0.263599	0.033130
C63	C	1.152542	-0.032374	-0.004134
C64	C	1.146967	-0.091889	0.114860
C65	C	1.235633	-0.169642	0.105091
C66	C	1.329876	-0.187880	-0.023670
C67	C	1.335456	-0.128364	-0.142673
C68	C	1.246789	-0.050611	-0.132905
H69	H	1.077199	-0.078389	0.210185
H70	H	1.231503	-0.213700	0.193186
H71	H	1.395513	-0.245438	-0.030901
H72	H	1.405223	-0.141864	-0.237999
H73	H	1.250920	-0.006553	-0.220999
C74	C	1.490482	-0.111583	0.264689
C75	C	1.381188	-0.114547	0.373873
C76	C	1.382386	-0.069299	0.525661
C77	C	1.492879	-0.021087	0.568265
C78	C	1.602181	-0.018122	0.459078
C79	C	1.600983	-0.063369	0.307290
H80	H	1.299387	-0.150237	0.342337
H81	H	1.301473	-0.071495	0.606488
H82	H	1.493766	0.012408	0.680628
H83	H	1.683982	0.017569	0.490614
H84	H	1.681896	-0.061174	0.226463
C85	C	1.482586	-0.409641	-0.197866
C86	C	1.590073	-0.474578	-0.242592
C87	C	1.588854	-0.519841	-0.394364
C88	C	1.480146	-0.500165	-0.501412
C89	C	1.372651	-0.435224	-0.456689
C90	C	1.373871	-0.389962	-0.304916
H91	H	1.670552	-0.489146	-0.163347
H92	H	1.668429	-0.567914	-0.427471
H93	H	1.479244	-0.533670	-0.613763
H94	H	1.292172	-0.420656	-0.535934
H95	H	1.294295	-0.341888	-0.271810
H96	H	0.806856	0.387881	0.048723
H97	H	0.715420	0.255674	0.032069
H98	H	1.486230	-0.272629	0.206413
H99	H	1.480342	-0.495259	0.304455
H100	H	1.654291	0.009802	0.222913
H101	H	1.476358	-0.644553	0.285602
H102	H	1.476368	-0.644521	-0.196234
C103	C	1.485925	-0.284362	-0.314850
C104	C	1.593412	-0.349299	-0.359578
C105	C	1.592203	-0.394550	-0.511362
C106	C	1.483506	-0.374864	-0.618418
C107	C	1.376011	-0.309923	-0.573692
C108	C	1.377221	-0.264672	-0.421908
H109	H	1.673883	-0.363875	-0.280327
H110	H	1.671778	-0.442624	-0.544471
H111	H	1.482611	-0.408361	-0.730778
H112	H	1.295541	-0.295347	-0.652944
H113	H	1.297645	-0.216598	-0.388800
H114	H	1.490201	-0.123314	-0.256576
H115	H	1.480348	-0.495238	-0.177387
H116	H	1.328161	0.212480	0.387611
H117	H	1.809385	-0.086614	0.349817
H118	H	1.809383	-0.086635	0.628004
H119	H	1.654268	0.009761	0.779293
H120	H	1.328168	0.212464	0.665800
