data_functionalizedCrystal
_audit_creation_method	'MofGen! by Chris Wilmer'
_symmetry_space_group_name_H-M	'P1'
_symmetry_Int_Tables_number	1
_symmetry_cell_setting	triclinic
loop_
_symmetry_equiv_pos_as_xyz
  x,y,z
_cell_length_a	12.759401
_cell_length_b	29.839131
_cell_length_c	12.759393
_cell_angle_alpha	90.045749
_cell_angle_beta	90.017380
_cell_angle_gamma	90.035390
loop_
_atom_site_label
_atom_site_type_symbol
_atom_site_fract_x
_atom_site_fract_y
_atom_site_fract_z
Zn1	Zn	1.606094	-0.178824	0.593879
Zn2	Zn	1.605929	-0.253963	0.418157
Zn3	Zn	1.430399	-0.178848	0.418219
Zn4	Zn	1.430322	-0.253928	0.593798
O5	O	1.518186	-0.216391	0.506013
O6	O	1.753093	-0.188796	0.570577
O7	O	1.582608	-0.244023	0.271144
O8	O	1.453807	-0.115978	0.441580
O9	O	1.752972	-0.244000	0.441475
O10	O	1.582889	-0.115960	0.570638
O11	O	1.453647	-0.188837	0.271189
O12	O	1.283368	-0.188803	0.441502
O13	O	1.453675	-0.243941	0.740830
O14	O	1.283311	-0.243964	0.570499
O15	O	1.582814	-0.188762	0.740890
O16	O	1.582532	-0.316825	0.441396
O17	O	1.453515	-0.316800	0.570439
C18	C	1.245219	-0.216382	0.505999
C19	C	1.128442	-0.216390	0.506018
C20	C	1.073578	-0.245158	0.573075
C21	C	0.963854	-0.245164	0.573087
C22	C	0.963868	-0.187631	0.438974
C23	C	1.073590	-0.187624	0.438968
C24	C	1.073569	-0.278375	0.650502
C25	C	0.963844	-0.278381	0.650513
C26	C	1.518026	-0.333113	0.505925
C27	C	1.518053	-0.383048	0.505922
C28	C	1.585384	-0.692647	0.573309
C29	C	1.585498	-0.880320	0.573372
O30	O	1.642589	-0.904547	0.630601
N31	N	1.518364	-0.903833	0.506130
C32	C	1.451192	-0.880424	0.438872
O33	O	1.394086	-0.904729	0.381687
C34	C	1.451074	-0.692752	0.438815
C35	C	1.518220	-0.669242	0.506054
C36	C	1.652524	-0.669137	0.640543
C37	C	1.652499	-0.622221	0.640523
C38	C	1.585334	-0.598816	0.573268
C39	C	1.518194	-0.622326	0.506033
C40	C	1.383897	-0.669344	0.371563
C41	C	1.383871	-0.622423	0.371556
C42	C	1.451017	-0.598913	0.438795
C43	C	1.451004	-0.552006	0.438758
N44	N	1.518138	-0.528493	0.506000
C45	C	1.585303	-0.551898	0.573255
C46	C	1.451261	-0.978955	0.438905
C47	C	1.451291	-1.025873	0.438918
C48	C	1.585596	-1.025765	0.573420
C49	C	1.585570	-0.978847	0.573401
C50	C	1.518395	-0.955442	0.506147
C51	C	1.585246	-0.453372	0.573206
C52	C	1.585218	-0.406453	0.573177
C53	C	1.450910	-0.406564	0.438679
C54	C	1.450941	-0.453480	0.438704
C55	C	1.518113	-0.476883	0.505976
O56	O	1.393936	-0.527749	0.381567
O57	O	1.642385	-0.527585	0.630448
C58	C	1.585409	-0.739562	0.573329
C59	C	1.518270	-0.763073	0.506095
C60	C	1.451105	-0.739667	0.438840
C61	C	1.518301	-0.809991	0.506108
C62	C	1.585465	-0.833396	0.573363
C63	C	1.652599	-0.809883	0.640605
C64	C	1.652574	-0.762968	0.640584
C65	C	1.383971	-0.763180	0.371597
C66	C	1.384003	-0.810096	0.371623
C67	C	1.451167	-0.833501	0.438878
C68	C	1.792219	-0.216399	0.506028
C69	C	1.908996	-0.216403	0.506034
C70	C	1.518254	-0.216345	0.780047
C71	C	1.518283	-0.216325	0.896823
C72	C	1.518375	-0.099212	0.506125
C73	C	1.518456	-0.049278	0.506173
C74	C	1.518178	-0.216404	0.233046
C75	C	1.518353	-0.216297	0.116270
C76	C	1.451162	-0.187584	0.951715
C77	C	1.451194	-0.187571	1.061439
C78	C	1.585477	-0.245041	1.061370
C79	C	1.585439	-0.245056	0.951648
C80	C	1.373637	-0.154403	0.951756
C81	C	1.373669	-0.154390	1.061480
H82	H	1.639936	-0.472422	0.627993
H83	H	1.107556	-0.311409	0.621198
H84	H	1.103383	-0.269096	0.731914
N85	N	0.904702	-0.156612	0.366649
H86	H	0.956111	-0.138387	0.324166
H87	H	0.859217	-0.135846	0.409514
H88	H	0.929856	-0.265961	0.727872
H89	H	1.292240	-0.163720	0.921973
H90	H	0.934020	-0.313167	0.628561
N91	N	1.658006	-1.051023	0.645976
H92	H	1.641616	-1.042835	0.721021
H93	H	1.733063	-1.042838	0.629668
H94	H	1.639900	-0.387312	0.627931
H95	H	1.707172	-0.603082	0.695278
N96	N	1.378887	-1.051228	0.366380
H97	H	1.336336	-1.029277	0.323777
H98	H	1.330250	-1.070696	0.409104
N99	N	1.724945	-0.694376	0.713116
H100	H	1.767457	-0.672357	0.755708
H101	H	1.773617	-0.713846	0.670425
H102	H	1.707291	-0.828948	0.695363
N103	N	1.657907	-0.276024	1.120514
H104	H	1.732981	-0.269053	1.101429
H105	H	1.641440	-0.308112	1.101361
N106	N	1.412312	-0.110633	0.906723
H107	H	1.365542	-0.085413	0.931176
H108	H	1.410885	-0.112281	0.827672
H109	H	1.640245	-0.959707	0.628153
H110	H	1.396557	-0.959902	0.384136
N111	N	1.311476	-0.694694	0.299038
H112	H	1.268926	-0.672741	0.256441
H113	H	1.262840	-0.714161	0.341767
N114	N	1.311414	-0.597180	0.299019
H115	H	1.268887	-0.619196	0.256431
H116	H	1.354192	-0.577718	0.250424
H117	H	1.396274	-0.472623	0.383944
H118	H	1.396228	-0.387501	0.383918
N119	N	1.724994	-0.737614	0.713109
H120	H	1.767539	-0.759566	0.755713
H121	H	1.682192	-0.718144	0.761690
N122	N	1.311584	-0.835450	0.299088
H123	H	1.269034	-0.813500	0.256484
H124	H	1.262947	-0.854915	0.341820
N125	N	1.132779	-0.156595	0.366653
H126	H	1.178337	-0.135798	0.409456
H127	H	1.081322	-0.138403	0.324189
H128	H	1.329276	-0.744127	0.316831
N129	N	1.657819	-0.276061	0.892440
H130	H	1.700366	-0.294258	0.943821
H131	H	1.706459	-0.257786	0.846931
N132	N	1.271274	-0.170886	1.106555
H133	H	1.221773	-0.178866	1.047632
H134	H	1.239059	-0.146551	1.151162
H135	H	1.395516	-0.119590	1.091297
