data_functionalizedCrystal
_audit_creation_method	'MofGen! by Chris Wilmer'
_symmetry_space_group_name_H-M	'P1'
_symmetry_Int_Tables_number	1
_symmetry_cell_setting	triclinic
loop_
_symmetry_equiv_pos_as_xyz
  x,y,z
_cell_length_a	16.625548
_cell_length_b	16.625546
_cell_length_c	17.077396
_cell_angle_alpha	90.030215
_cell_angle_beta	90.019578
_cell_angle_gamma	90.023536
loop_
_atom_site_label
_atom_site_type_symbol
_atom_site_fract_x
_atom_site_fract_y
_atom_site_fract_z
Zn1	Zn	1.232673	-0.320979	0.443835
Zn2	Zn	1.732673	0.179021	0.943835
Zn3	Zn	1.232578	-0.455821	0.312565
Zn4	Zn	1.732578	0.044179	0.812565
Zn5	Zn	1.097837	-0.321009	0.312583
Zn6	Zn	1.597837	0.178991	0.812583
Zn7	Zn	1.097805	-0.455775	0.443788
Zn8	Zn	1.597805	0.044225	0.943788
O9	O	1.165223	-0.388396	0.378193
O10	O	1.665223	0.111604	0.878193
O11	O	1.345492	-0.338872	0.426434
O12	O	1.845492	0.161128	0.926434
O13	O	1.214678	-0.437970	0.202720
O14	O	1.714678	0.062030	0.702720
O15	O	1.115776	-0.208173	0.330020
O16	O	1.615776	0.291827	0.830020
O17	O	1.345423	-0.437941	0.329990
O18	O	1.845423	0.062059	0.829990
O19	O	1.214839	-0.208150	0.426451
O20	O	1.714839	0.291850	0.926451
O21	O	1.115684	-0.338924	0.202733
O22	O	1.615684	0.161076	0.702733
O23	O	0.985000	-0.338879	0.329975
O24	O	1.485000	0.161121	0.829975
O25	O	1.115721	-0.437863	0.553641
O26	O	1.615721	0.062137	1.053641
O27	O	0.984977	-0.437892	0.426372
O28	O	1.484977	0.062108	0.926372
O29	O	1.214808	-0.338828	0.553676
O30	O	1.714808	0.161172	1.053676
O31	O	1.214647	-0.568648	0.329945
O32	O	1.714647	-0.068648	0.829945
O33	O	1.115630	-0.568614	0.426354
O34	O	1.615630	-0.068614	0.926354
C35	C	0.955732	-0.388385	0.378171
C36	C	1.455732	0.111615	0.878171
C37	C	0.866111	-0.388399	0.378180
C38	C	1.366111	0.111601	0.878180
C39	C	0.537935	-0.388404	0.378214
C40	C	1.037935	0.111596	0.878214
C41	C	0.629244	-0.388401	0.378202
C42	C	1.129244	0.111599	0.878202
C43	C	0.702020	-0.388402	0.378196
C44	C	1.202020	0.111598	0.878196
C45	C	0.793335	-0.388398	0.378186
C46	C	1.293335	0.111602	0.878186
C47	C	1.165147	-0.597887	0.378160
C48	C	1.665147	-0.097887	0.878160
C49	C	1.165188	-0.687508	0.378172
C50	C	1.665188	-0.187508	0.878172
C51	C	1.165329	-1.015684	0.378254
C52	C	1.665329	-0.515684	0.878254
C53	C	1.165287	-0.924375	0.378233
C54	C	1.665287	-0.424375	0.878233
C55	C	1.165258	-0.851599	0.378212
C56	C	1.665258	-0.351599	0.878212
C57	C	1.165217	-0.760285	0.378193
C58	C	1.665217	-0.260285	0.878193
C59	C	1.375532	-0.388408	0.378215
C60	C	1.875532	0.111592	0.878215
C61	C	1.465153	-0.388413	0.378225
C62	C	1.965153	0.111587	0.878225
C63	C	1.165272	-0.388337	0.582937
C64	C	1.665272	0.111663	1.082937
C65	C	1.165293	-0.388311	0.670187
C66	C	1.665293	0.111689	1.170187
C67	C	1.165322	-0.178087	0.378243
C68	C	1.665322	0.321913	0.878243
C69	C	1.165364	-0.088466	0.378264
C70	C	1.665364	0.411534	0.878264
C71	C	1.165221	-0.388397	0.174245
C72	C	1.665221	0.111603	0.674245
C73	C	1.165356	-0.388195	0.086995
C74	C	1.665356	0.111805	0.586995
C75	C	1.216889	-0.336740	0.711196
C76	C	1.716889	0.163260	1.211196
C77	C	1.216899	-0.336713	0.793177
C78	C	1.716899	0.163287	1.293177
C79	C	1.165316	-0.388262	0.834146
C80	C	1.665316	0.111738	1.334146
C81	C	1.113713	-0.439836	0.793131
C82	C	1.613713	0.060164	1.293131
C83	C	1.113700	-0.439858	0.711152
C84	C	1.613700	0.060142	1.211152
C85	C	1.113746	-0.439788	0.964002
C86	C	1.613746	0.060212	1.464002
C87	C	1.113760	-0.439767	1.045986
C88	C	1.613760	0.060233	1.545986
C89	C	1.216944	-0.336642	1.046026
C90	C	1.716944	0.163358	1.546026
C91	C	1.216931	-0.336664	0.964047
C92	C	1.716931	0.163336	1.464047
C93	C	1.165330	-0.388240	0.923037
C94	C	1.665330	0.111760	1.423037
H95	H	1.258897	-0.294765	0.677844
H96	H	1.758897	0.205235	1.177844
F97	F	1.271842	-0.281851	0.836818
F98	F	1.771842	0.218149	1.336818
H99	H	1.258939	-0.294693	0.930691
H100	H	1.758939	0.205307	1.430691
F101	F	1.271863	-0.281752	1.089672
F102	F	1.771863	0.218248	1.589672
H103	H	1.071755	-0.481741	1.079342
H104	H	1.571755	0.018259	1.579342
F105	F	1.058824	-0.494678	0.920358
F106	F	1.558824	0.005322	1.420358
H107	H	1.071711	-0.481806	0.826496
H108	H	1.571711	0.018194	1.326496
F109	F	1.058782	-0.494746	0.667508
F110	F	1.558782	0.005254	1.167508
