data_functionalizedCrystal
_audit_creation_method	'MofGen! by Chris Wilmer'
_symmetry_space_group_name_H-M	'P1'
_symmetry_Int_Tables_number	1
_symmetry_cell_setting	triclinic
loop_
_symmetry_equiv_pos_as_xyz
  x,y,z
_cell_length_a	10.654550
_cell_length_b	14.519709
_cell_length_c	9.130313
_cell_angle_alpha	89.994534
_cell_angle_beta	89.999724
_cell_angle_gamma	84.082538
loop_
_atom_site_label
_atom_site_type_symbol
_atom_site_fract_x
_atom_site_fract_y
_atom_site_fract_z
O1	O	1.666594	0.129532	-0.121694
O2	O	1.300997	0.141873	-0.121721
O3	O	1.493489	0.001515	-0.121693
O4	O	1.474102	0.269891	-0.121721
O5	O	1.493476	0.001510	0.121906
O6	O	1.300984	0.141869	0.121878
O7	O	1.666581	0.129528	0.121905
Cu8	Cu	1.483781	0.135698	0.144134
Cu9	Cu	1.483797	0.135703	-0.143950
O10	O	1.474089	0.269887	0.121878
C11	C	1.254201	0.140965	0.000075
C12	C	1.114784	0.138254	0.000065
C13	C	1.034504	0.220895	0.000061
C14	C	0.903507	0.218342	0.000087
C15	C	0.933084	0.050500	0.000115
C16	C	1.064078	0.053054	0.000100
C17	C	1.492579	-0.032852	0.000106
C18	C	1.489871	-0.135247	0.000107
C19	C	1.479904	-0.510195	0.000068
C20	C	1.482672	-0.405872	0.000079
C21	C	1.484887	-0.322724	0.000089
C22	C	1.487656	-0.218395	0.000097
C23	C	1.713377	0.130436	0.000106
C24	C	1.852794	0.133147	0.000106
C25	C	1.474999	0.304253	0.000075
C26	C	1.477706	0.406649	0.000065
N27	N	1.483779	0.135694	0.346757
N28	N	1.483808	0.135700	-0.346572
C29	C	1.569043	0.073570	0.423421
C30	C	1.569055	0.073570	0.576758
C31	C	1.398535	0.197827	0.576753
C32	C	1.398518	0.197822	0.423419
H33	H	0.891783	-0.018867	0.000152
H34	H	1.638466	0.022981	0.361006
H35	H	1.329119	0.248411	0.639186
H36	H	1.129446	-0.014247	0.000108
O37	O	1.315641	0.258263	0.349165
C38	C	1.240378	0.313089	0.449705
H39	H	1.291874	0.314493	0.558999
H40	H	1.147030	0.282504	0.466036
C41	C	1.151450	0.410675	0.255592
C42	C	1.214703	0.412405	0.389827
H43	H	1.135607	0.471936	0.218656
H44	H	1.202152	0.373736	0.187855
H45	H	1.073667	0.385183	0.269220
H46	H	1.292491	0.437885	0.376194
H47	H	1.164013	0.449351	0.457560
O48	O	1.651832	0.013098	0.651067
C49	C	1.631204	-0.078339	0.613646
H50	H	1.582787	-0.078559	0.502322
H51	H	1.568645	-0.107289	0.699959
C52	C	1.818046	-0.138548	0.743282
C53	C	1.758590	-0.138819	0.606547
H54	H	1.896622	-0.175857	0.738910
H55	H	1.831942	-0.076946	0.768499
H56	H	1.765901	-0.162671	0.815196
H57	H	1.810727	-0.114685	0.534641
H58	H	1.744706	-0.200419	0.581318
O59	O	1.083552	0.303734	0.000105
C60	C	0.984598	0.376126	0.000072
H61	H	0.895562	0.349701	0.046205
H62	H	0.966108	0.401660	-0.116795
C63	C	1.131112	0.488863	0.038928
C64	C	1.021758	0.456409	0.095600
H65	H	1.154035	0.538388	0.097848
H66	H	1.197781	0.440092	0.038944
H67	H	1.115689	0.510135	-0.058461
H68	H	1.037187	0.435128	0.192979
H69	H	0.955093	0.505179	0.095602
H70	H	0.838147	0.285637	0.000086
