data_functionalizedCrystal
_audit_creation_method	'MofGen! by Chris Wilmer'
_symmetry_space_group_name_H-M	'P1'
_symmetry_Int_Tables_number	1
_symmetry_cell_setting	triclinic
loop_
_symmetry_equiv_pos_as_xyz
  x,y,z
_cell_length_a	12.759401
_cell_length_b	21.295417
_cell_length_c	12.759393
_cell_angle_alpha	89.960830
_cell_angle_beta	89.978811
_cell_angle_gamma	90.030454
loop_
_atom_site_label
_atom_site_type_symbol
_atom_site_fract_x
_atom_site_fract_y
_atom_site_fract_z
Zn1	Zn	1.606140	-0.250573	-0.594001
Zn2	Zn	1.939473	0.082760	-0.260668
Zn3	Zn	2.272807	0.416094	0.072665
Zn4	Zn	1.605986	-0.355857	-0.418298
Zn5	Zn	1.939319	-0.022524	-0.084965
Zn6	Zn	2.272653	0.310810	0.248369
Zn7	Zn	1.430442	-0.250606	-0.418332
Zn8	Zn	1.763775	0.082728	-0.084999
Zn9	Zn	2.097109	0.416061	0.248334
Zn10	Zn	1.430382	-0.355808	-0.593931
Zn11	Zn	1.763716	-0.022475	-0.260598
Zn12	Zn	2.097049	0.310859	0.072735
O13	O	1.518238	-0.303211	-0.506141
O14	O	1.851571	0.030122	-0.172807
O15	O	2.184904	0.363456	0.160526
O16	O	1.753141	-0.264546	-0.570709
O17	O	2.086474	0.068787	-0.237375
O18	O	2.419807	0.402121	0.095958
O19	O	1.582660	-0.341929	-0.271281
O20	O	1.915993	-0.008596	0.062052
O21	O	2.249327	0.324737	0.395385
O22	O	1.453838	-0.162512	-0.441679
O23	O	1.787172	0.170822	-0.108346
O24	O	2.120505	0.504155	0.224988
O25	O	1.753027	-0.341898	-0.441620
O26	O	2.086361	-0.008564	-0.108287
O27	O	2.419694	0.324769	0.225046
O28	O	1.582923	-0.162488	-0.570742
O29	O	1.916256	0.170845	-0.237409
O30	O	2.249590	0.504179	0.095925
O31	O	1.453689	-0.264601	-0.271307
O32	O	1.787022	0.068732	0.062027
O33	O	2.120355	0.402065	0.395360
O34	O	1.283413	-0.264554	-0.441611
O35	O	1.616746	0.068779	-0.108278
O36	O	1.950080	0.402113	0.225056
O37	O	1.453736	-0.341814	-0.740962
O38	O	1.787070	-0.008481	-0.407628
O39	O	2.120403	0.324852	-0.074295
O40	O	1.283369	-0.341846	-0.570623
O41	O	1.616702	-0.008513	-0.237289
O42	O	1.950036	0.324821	0.096044
O43	O	1.582865	-0.264499	-0.741013
O44	O	1.916198	0.068835	-0.407680
O45	O	2.249532	0.402168	-0.074346
O46	O	1.582602	-0.443940	-0.441553
O47	O	1.915935	-0.110607	-0.108219
O48	O	2.249269	0.222727	0.225114
O49	O	1.453587	-0.443904	-0.570589
O50	O	1.786920	-0.110571	-0.237256
O51	O	2.120254	0.222763	0.096077
C52	C	1.245270	-0.303199	-0.506114
C53	C	1.578603	0.030135	-0.172780
C54	C	1.911937	0.363468	0.160553
C55	C	1.128494	-0.303209	-0.506127
C56	C	1.461827	0.030125	-0.172794
C57	C	1.795160	0.363458	0.160540
C58	C	1.518100	-0.466763	-0.506083
C59	C	1.851433	-0.133429	-0.172749
C60	C	2.184766	0.199904	0.160584
C61	C	1.518137	-0.536731	-0.506093
C62	C	1.851470	-0.203397	-0.172760
C63	C	2.184804	0.129936	0.160574
C64	C	0.963839	-0.343435	-0.438857
C65	C	1.297172	-0.010102	-0.105523
C66	C	1.630505	0.323231	0.227810
C67	C	1.073563	-0.343424	-0.438827
C68	C	1.406896	-0.010090	-0.105494
C69	C	1.740229	0.323243	0.227840
C70	C	1.073695	-0.262998	-0.573454
C71	C	1.407028	0.070335	-0.240120
C72	C	1.740361	0.403669	0.093213
C73	C	0.963973	-0.263007	-0.573477
C74	C	1.297306	0.070327	-0.240144
C75	C	1.630639	0.403660	0.093189
C76	C	0.963763	-0.389870	-0.361134
C77	C	1.297097	-0.056537	-0.027801
C78	C	1.630430	0.276796	0.305533
C79	C	1.073487	-0.389859	-0.361104
C80	C	1.406821	-0.056526	-0.027771
C81	C	1.740154	0.276808	0.305562
C82	C	1.585375	-0.569595	-0.438972
C83	C	1.918708	-0.236262	-0.105639
C84	C	2.252042	0.097072	0.227695
C85	C	1.585424	-0.635338	-0.438996
C86	C	1.918758	-0.302004	-0.105662
C87	C	2.252091	0.031329	0.227671
C88	C	1.518217	-0.668213	-0.506129
C89	C	1.851550	-0.334880	-0.172796
C90	C	2.184883	-0.001546	0.160538
C91	C	1.450974	-0.635341	-0.573263
C92	C	1.784307	-0.302007	-0.239929
C93	C	2.117641	0.031326	0.093404
C94	C	1.450934	-0.569600	-0.573245
C95	C	1.784268	-0.236266	-0.239911
C96	C	2.117601	0.097067	0.093422
N97	N	1.426310	-0.771478	-0.514129
N98	N	1.759643	-0.438145	-0.180796
N99	N	2.092976	-0.104812	0.152537
N100	N	1.426350	-0.833930	-0.514140
N101	N	1.759684	-0.500596	-0.180807
N102	N	2.093017	-0.167263	0.152526
C103	C	1.518334	-0.866288	-0.506189
C104	C	1.851668	-0.532954	-0.172856
C105	C	2.185001	-0.199621	0.160477
N106	N	1.610278	-0.833835	-0.498206
N107	N	1.943611	-0.500502	-0.164873
N108	N	2.276945	-0.167169	0.168461
N109	N	1.610236	-0.771378	-0.498190
N110	N	1.943569	-0.438045	-0.164856
N111	N	2.276903	-0.104711	0.168477
C112	C	1.518253	-0.739498	-0.506157
C113	C	1.851586	-0.406165	-0.172823
C114	C	2.184920	-0.072832	0.160510
C115	C	1.585631	-0.970438	-0.439091
C116	C	1.918965	-0.637104	-0.105757
C117	C	2.252298	-0.303771	0.227576
C118	C	1.585682	-1.036181	-0.439122
C119	C	1.919016	-0.702848	-0.105788
C120	C	2.252349	-0.369515	0.227545
C121	C	1.451223	-1.036183	-0.573383
C122	C	1.784556	-0.702850	-0.240050
C123	C	2.117890	-0.369517	0.093283
C124	C	1.451181	-0.970441	-0.573358
C125	C	1.784515	-0.637108	-0.240024
C126	C	2.117848	-0.303774	0.093309
C127	C	1.518384	-0.937572	-0.506206
C128	C	1.851717	-0.604239	-0.172872
C129	C	2.185051	-0.270905	0.160461
C130	C	1.792271	-0.303224	-0.506169
C131	C	2.125604	0.030110	-0.172835
C132	C	2.458937	0.363443	0.160498
C133	C	1.909047	-0.303229	-0.506180
C134	C	2.242381	0.030104	-0.172847
C135	C	2.575714	0.363438	0.160486
C136	C	1.518311	-0.303147	-0.780174
C137	C	1.851644	0.030186	-0.446841
C138	C	2.184978	0.363519	-0.113508
C139	C	1.518342	-0.303120	-0.896951
C140	C	1.851676	0.030213	-0.563618
C141	C	2.185009	0.363546	-0.230284
C142	C	1.518404	-0.139021	-0.506222
C143	C	1.851738	0.194313	-0.172889
C144	C	2.185071	0.527646	0.160444
C145	C	1.518476	-0.069052	-0.506257
C146	C	1.851809	0.264281	-0.172924
C147	C	2.185142	0.597614	0.160410
C148	C	1.585589	-0.262858	-0.951842
C149	C	1.918922	0.070475	-0.618508
C150	C	2.252256	0.403809	-0.285175
C151	C	1.585614	-0.262835	-1.061566
C152	C	1.918947	0.070498	-0.728232
C153	C	2.252281	0.403831	-0.394899
C154	C	1.451143	-0.343342	-1.061499
C155	C	1.784476	-0.010009	-0.728166
C156	C	2.117810	0.323324	-0.394832
C157	C	1.451114	-0.343362	-0.951777
C158	C	1.784447	-0.010028	-0.618444
C159	C	2.117780	0.323305	-0.285110
C160	C	1.663228	-0.216380	-0.951881
C161	C	1.996561	0.116953	-0.618548
C162	C	2.329895	0.450287	-0.285214
C163	C	1.663253	-0.216357	-1.061605
C164	C	1.996586	0.116976	-0.728272
C165	C	2.329920	0.450310	-0.394938
C166	C	1.518225	-0.303229	-0.233173
C167	C	1.851558	0.030105	0.100160
C168	C	2.184891	0.363438	0.433493
C169	C	1.518397	-0.303078	-0.116397
C170	C	1.851730	0.030255	0.216936
C171	C	2.185064	0.363588	0.550269
H172	H	0.919366	-0.230262	-0.628291
H173	H	1.252699	0.103071	-0.294957
H174	H	1.586032	0.436405	0.038376
F175	F	1.656990	-0.670321	-0.367553
F176	F	1.990323	-0.336988	-0.034220
F177	F	2.323657	-0.003655	0.299114
F178	F	1.379701	-1.071168	-0.644838
F179	F	1.713034	-0.737834	-0.311505
F180	F	2.046368	-0.404501	0.021828
H181	H	1.107483	-0.372341	-0.283851
H182	H	1.440816	-0.039008	0.049482
H183	H	1.774150	0.294325	0.382815
H184	H	1.744618	-0.229414	-1.091384
H185	H	2.077951	0.103919	-0.758051
H186	H	2.411284	0.437252	-0.424718
H187	H	1.396180	-0.542841	-0.627904
H188	H	1.729513	-0.209507	-0.294570
H189	H	2.062847	0.123826	0.038763
H190	H	1.118428	-0.230250	-0.628244
H191	H	1.451761	0.103083	-0.294910
H192	H	1.785095	0.436417	0.038423
H193	H	1.396351	-0.376145	-0.907089
H194	H	1.729685	-0.042811	-0.573756
H195	H	2.063018	0.290522	-0.240423
F196	F	0.924788	-0.372735	-0.254840
F197	F	1.258121	-0.039402	0.078493
F198	F	1.591455	0.293932	0.411826
H199	H	1.396425	-0.943681	-0.628009
H200	H	1.729759	-0.610348	-0.294676
H201	H	2.063092	-0.277014	0.038657
F202	F	1.634804	-0.152661	-0.912995
F203	F	1.968137	0.180672	-0.579662
F204	F	2.301471	0.514005	-0.246329
H205	H	0.929717	-0.436204	-0.390146
H206	H	1.263050	-0.102871	-0.056813
H207	H	1.596384	0.230462	0.276521
F208	F	1.657153	-0.935454	-0.367622
F209	F	1.990486	-0.602121	-0.034289
F210	F	2.323819	-0.268787	0.299044
H211	H	1.103247	-0.438625	-0.382746
H212	H	1.436581	-0.105292	-0.049412
H213	H	1.769914	0.228042	0.283921
F214	F	1.656910	-0.534617	-0.367514
F215	F	1.990244	-0.201284	-0.034181
F216	F	2.323577	0.132049	0.299152
F217	F	1.379451	-0.670330	-0.644715
F218	F	1.712784	-0.336997	-0.311381
F219	F	2.046118	-0.003663	0.021952
F220	F	1.657257	-1.071158	-0.367685
F221	F	1.990591	-0.737825	-0.034352
F222	F	2.323924	-0.404491	0.298981
H223	H	1.396405	-0.376104	-1.106152
H224	H	1.729739	-0.042771	-0.772818
H225	H	2.063072	0.290563	-0.439485
F226	F	1.764217	-0.239220	-0.907388
F227	F	2.097550	0.094113	-0.574054
F228	F	2.430884	0.427446	-0.240721
H229	H	1.634161	-0.170036	-1.095662
H230	H	1.967494	0.163297	-0.762328
H231	H	2.300827	0.496630	-0.428995
