data_functionalizedCrystal
_audit_creation_method	'MofGen! by Chris Wilmer'
_symmetry_space_group_name_H-M	'P1'
_symmetry_Int_Tables_number	1
_symmetry_cell_setting	triclinic
loop_
_symmetry_equiv_pos_as_xyz
  x,y,z
_cell_length_a	19.077105
_cell_length_b	13.897441
_cell_length_c	19.077432
_cell_angle_alpha	87.670530
_cell_angle_beta	85.334714
_cell_angle_gamma	87.683003
loop_
_atom_site_label
_atom_site_type_symbol
_atom_site_fract_x
_atom_site_fract_y
_atom_site_fract_z
Zn1	Zn	1.088991	-0.587458	-0.324000
Zn2	Zn	1.093637	-0.419923	-0.441894
Zn3	Zn	0.971104	-0.419950	-0.319286
Zn4	Zn	0.975802	-0.574955	-0.437106
O5	O	1.032383	-0.500571	-0.380571
O6	O	1.188258	-0.570455	-0.343616
O7	O	1.077361	-0.284942	-0.425661
O8	O	0.982832	-0.447414	-0.221264
O9	O	1.191671	-0.447368	-0.430232
O10	O	1.069443	-0.570481	-0.224728
O11	O	0.987336	-0.284961	-0.335581
O12	O	0.873077	-0.435290	-0.330938
O13	O	0.990838	-0.711598	-0.422071
O14	O	0.876528	-0.549172	-0.417500
O15	O	1.073998	-0.720784	-0.338973
O16	O	1.081916	-0.435244	-0.539906
O17	O	0.995343	-0.549146	-0.536388
C18	C	0.849223	-0.490878	-0.373188
C19	C	0.770867	-0.486753	-0.370046
C20	C	0.735874	-0.544007	-0.413707
C21	C	0.662249	-0.540136	-0.410745
C22	C	0.623620	-0.479006	-0.364127
C23	C	0.658619	-0.421750	-0.320462
C24	C	0.732242	-0.425626	-0.323420
C25	C	0.403237	-0.461070	-0.350436
C26	C	0.329609	-0.457196	-0.347483
C27	C	0.333244	-0.575584	-0.437766
C28	C	0.406868	-0.579451	-0.440723
C29	C	0.441861	-0.522199	-0.397055
N30	N	0.548365	-0.475046	-0.361101
N31	N	0.517115	-0.526165	-0.400078
C32	C	1.032424	-0.752170	-0.380514
C33	C	1.032442	-0.859386	-0.380490
C34	C	1.032455	-0.946458	-0.380470
C35	C	1.032474	-1.055693	-0.380439
C36	C	1.216259	-0.510303	-0.387984
C37	C	1.294615	-0.514450	-0.391143
C38	C	1.039662	-0.490858	-0.563726
C39	C	1.042840	-0.486738	-0.642083
C40	C	1.032381	-0.249957	-0.380579
C41	C	1.032493	-0.142758	-0.380411
C42	C	0.999229	-0.544052	-0.677088
C43	C	1.002218	-0.540178	-0.750712
C44	C	1.048823	-0.478993	-0.789331
C45	C	1.092437	-0.421672	-0.754321
C46	C	1.089443	-0.425542	-0.680697
C47	C	1.062610	-0.461059	-1.009715
C48	C	1.065601	-0.457195	-1.083344
C49	C	0.975382	-0.575700	-1.079730
C50	C	0.972395	-0.579570	-1.006106
C51	C	1.016006	-0.522245	-0.971102
N52	N	1.051882	-0.475033	-0.864587
N53	N	1.012944	-0.526201	-0.895847
C54	C	1.025096	-0.510345	-0.196703
C55	C	1.021990	-0.514510	-0.118349
H56	H	0.760733	-0.379009	-0.287864
H57	H	0.633761	-0.586758	-0.446299
H58	H	0.431719	-0.414444	-0.314884
C59	C	0.954241	-0.603228	-0.789214
N60	N	0.918102	-0.650719	-0.818213
H61	H	0.961281	-0.593880	-0.645649
C62	C	1.137420	-0.362493	-0.642192
N63	N	1.173557	-0.314999	-0.613191
H64	H	1.098121	-0.414385	-0.981221
H65	H	1.103557	-0.407372	-1.114785
H66	H	0.298159	-0.407423	-0.309513
C67	C	0.778359	-0.611255	-0.464991
N68	N	0.810357	-0.661912	-0.503618
H69	H	0.438315	-0.629228	-0.478686
C70	C	0.921171	-0.646941	-0.963632
N71	N	0.882605	-0.697712	-0.931642
H72	H	0.304746	-0.622197	-0.473316
C73	C	0.616125	-0.354509	-0.269179
N74	N	0.584118	-0.303858	-0.230554
C75	C	0.927406	-0.638743	-1.118240
N76	N	0.891266	-0.686225	-1.147246
C77	C	1.143698	-0.354361	-0.796804
N78	N	1.182310	-0.303662	-0.828801
