data_functionalizedCrystal
_audit_creation_method	'MofGen! by Chris Wilmer'
_symmetry_space_group_name_H-M	'P1'
_symmetry_Int_Tables_number	1
_symmetry_cell_setting	triclinic
loop_
_symmetry_equiv_pos_as_xyz
  x,y,z
_cell_length_a	19.288865
_cell_length_b	10.868271
_cell_length_c	11.792254
_cell_angle_alpha	89.996975
_cell_angle_beta	83.667422
_cell_angle_gamma	90.002883
loop_
_atom_site_label
_atom_site_type_symbol
_atom_site_fract_x
_atom_site_fract_y
_atom_site_fract_z
O1	O	0.922157	0.102268	0.141574
O2	O	0.720005	0.102279	0.160673
O3	O	0.825982	0.102279	-0.014120
O4	O	0.816180	0.102268	0.316368
O5	O	0.825972	-0.102366	-0.014115
O6	O	0.719995	-0.102366	0.160679
O7	O	0.922147	-0.102376	0.141580
Zn8	Zn	0.821070	-0.134863	0.151130
Zn9	Zn	0.821082	0.134765	0.151123
O10	O	0.816170	-0.102377	0.316373
C11	C	0.694120	-0.000042	0.160062
C12	C	0.617006	-0.000038	0.158217
N13	N	0.821066	-0.318877	0.151135
C14	C	0.948032	-0.000053	0.142192
C15	C	1.025146	-0.000049	0.144036
C16	C	0.825360	-0.000039	-0.056399
C17	C	0.823511	-0.000027	-0.182384
C18	C	1.069257	-0.000035	0.041475
C19	C	1.141714	-0.000042	0.043209
C20	C	1.170057	-0.000039	0.147508
C21	C	1.125936	-0.000060	0.250083
C22	C	1.053481	-0.000065	0.248347
C23	C	1.278805	0.071662	0.229498
C24	C	1.351259	0.071674	0.231230
C25	C	1.393533	-0.000029	0.152867
C26	C	1.363345	-0.071728	0.072754
C27	C	1.290889	-0.071734	0.071018
C28	C	1.248621	-0.000034	0.149402
C29	C	1.516210	-0.000024	0.052179
C30	C	1.588668	-0.000039	0.053916
C31	C	1.572889	-0.000044	0.260793
C32	C	1.500433	-0.000042	0.259053
C33	C	1.472098	-0.000026	0.154742
C34	C	0.821071	-0.430215	0.151135
C35	C	0.821081	-0.569892	0.151124
N36	N	0.821091	0.318779	0.151109
C37	C	0.816792	-0.000056	0.358652
C38	C	0.818641	-0.000060	0.484637
C39	C	0.820142	-0.000053	0.586951
C40	C	0.822020	-0.000039	0.715309
H41	H	1.177636	-0.000027	-0.040311
N42	N	1.383809	0.149020	0.317628
H43	H	1.365112	0.122245	0.397179
H44	H	1.436119	0.138130	0.306739
N45	N	1.156497	-0.000043	0.362582
H46	H	1.140441	-0.075908	0.407503
H47	H	1.209086	0.000016	0.348029
N48	N	1.636249	-0.000043	-0.056709
H49	H	1.607302	-0.000034	-0.123047
H50	H	1.666661	0.075818	-0.060495
N51	N	1.603448	-0.000055	0.373291
H52	H	1.656042	-0.000053	0.358830
H53	H	1.587341	0.075806	0.418157
N54	N	1.452850	-0.000131	0.369673
H55	H	1.481798	-0.000157	0.436011
H56	H	1.422423	0.075704	0.373508
H57	H	1.017565	-0.000077	0.331867
H58	H	1.244390	0.130049	0.293319
H59	H	1.046192	-0.000026	-0.043462
H60	H	1.266313	-0.130116	0.005789
H61	H	1.397763	-0.130109	0.008938
H62	H	1.493139	-0.000017	-0.032757
