data_functionalizedCrystal
_audit_creation_method	'MofGen! by Chris Wilmer'
_symmetry_space_group_name_H-M	'P1'
_symmetry_Int_Tables_number	1
_symmetry_cell_setting	triclinic
loop_
_symmetry_equiv_pos_as_xyz
  x,y,z
_cell_length_a	12.759399
_cell_length_b	18.050591
_cell_length_c	12.759393
_cell_angle_alpha	90.018936
_cell_angle_beta	90.026988
_cell_angle_gamma	90.014238
loop_
_atom_site_label
_atom_site_type_symbol
_atom_site_fract_x
_atom_site_fract_y
_atom_site_fract_z
Zn1	Zn	0.418218	-1.135422	-0.593990
Zn2	Zn	0.918218	-0.635422	-0.093990
Zn3	Zn	0.593934	-1.135345	-0.418320
Zn4	Zn	1.093934	-0.635345	0.081680
Zn5	Zn	0.418269	-1.011224	-0.418331
Zn6	Zn	0.918269	-0.511224	0.081669
Zn7	Zn	0.593856	-1.011219	-0.593964
Zn8	Zn	1.093856	-0.511219	-0.093964
O9	O	0.506069	-1.073302	-0.506151
O10	O	1.006069	-0.573302	-0.006151
O11	O	0.441539	-1.239336	-0.570693
O12	O	0.941539	-0.739336	-0.070693
O13	O	0.570686	-1.118851	-0.271301
O14	O	1.070686	-0.618851	0.228699
O15	O	0.271242	-1.027733	-0.441648
O16	O	0.771242	-0.527733	0.058352
O17	O	0.570636	-1.239280	-0.441630
O18	O	1.070636	-0.739280	0.058370
O19	O	0.271204	-1.118980	-0.570703
O20	O	0.771204	-0.618980	-0.070703
O21	O	0.441626	-1.027659	-0.271308
O22	O	0.941626	-0.527659	0.228692
O23	O	0.441550	-0.907299	-0.441623
O24	O	0.941550	-0.407299	0.058377
O25	O	0.570503	-1.027724	-0.740988
O26	O	1.070503	-0.527724	-0.240988
O27	O	0.570552	-0.907295	-0.570659
O28	O	1.070552	-0.407295	-0.070659
O29	O	0.441463	-1.118976	-0.741007
O30	O	0.941463	-0.618976	-0.241007
O31	O	0.740945	-1.118846	-0.441605
O32	O	1.240945	-0.618846	0.058395
O33	O	0.740887	-1.027650	-0.570649
O34	O	1.240887	-0.527650	-0.070649
C35	C	0.506049	-0.880350	-0.506140
C36	C	1.006049	-0.380350	-0.006140
C37	C	0.506065	-0.797804	-0.506160
C38	C	1.006065	-0.297804	-0.006160
C39	C	0.576368	-0.548998	-0.576231
C40	C	1.076368	-0.048998	-0.076231
C41	C	0.601951	-0.598363	-0.480339
C42	C	1.101951	-0.098363	0.019661
C43	C	0.506106	-0.500684	-0.506154
C44	C	1.006106	-0.000684	-0.006154
C45	C	0.480553	-0.598401	-0.602044
C46	C	0.980553	-0.098401	-0.102044
C47	C	0.506088	-0.646669	-0.506162
C48	C	1.006088	-0.146669	-0.006162
C49	C	0.531738	-0.548962	-0.410211
C50	C	1.031738	-0.048962	0.089789
C51	C	0.410296	-0.548995	-0.531980
C52	C	0.910296	-0.048995	-0.031980
C53	C	0.435841	-0.598337	-0.436022
C54	C	0.935841	-0.098337	0.063978
C55	C	0.506119	-0.416586	-0.506151
C56	C	1.006119	0.083414	-0.006151
C57	C	0.506076	-0.730766	-0.506154
C58	C	1.006076	-0.230766	-0.006154
C59	C	0.779037	-1.073259	-0.506146
C60	C	1.279037	-0.573259	-0.006146
C61	C	0.895813	-1.073309	-0.506179
C62	C	1.395813	-0.573309	-0.006179
C63	C	1.060401	-1.120893	-0.439103
C64	C	1.560401	-0.620893	0.060897
C65	C	0.950677	-1.120848	-0.439064
C66	C	1.450677	-0.620848	0.060936
C67	C	0.950679	-1.025806	-0.573331
C68	C	1.450679	-0.525806	-0.073331
C69	C	1.060401	-1.025848	-0.573364
C70	C	1.560401	-0.525848	-0.073364
C71	C	1.232036	-1.073366	-0.506195
C72	C	1.732036	-0.573366	-0.006195
C73	C	1.115259	-1.073395	-0.506252
C74	C	1.615259	-0.573395	-0.006252
C75	C	0.505968	-1.073358	-0.780185
C76	C	1.005968	-0.573358	-0.280185
C77	C	0.505925	-1.073382	-0.896961
C78	C	1.005925	-0.573382	-0.396961
C79	C	0.506097	-0.267008	-0.506160
C80	C	1.006097	0.232992	-0.006160
C81	C	0.506126	-0.349554	-0.506154
C82	C	1.006126	0.150446	-0.006154
C83	C	0.438724	-1.120900	-0.951835
C84	C	0.938724	-0.620900	-0.451835
C85	C	0.438678	-1.120912	-1.061559
C86	C	0.938678	-0.620912	-0.561559
C87	C	0.573046	-1.025887	-1.061526
C88	C	1.073046	-0.525887	-0.561526
C89	C	0.573085	-1.025871	-0.951804
C90	C	1.073085	-0.525871	-0.451804
C91	C	0.506094	-1.073290	-0.233184
C92	C	1.006094	-0.573290	0.266816
C93	C	0.505841	-1.073410	-0.116408
C94	C	1.005841	-0.573410	0.383592
H95	H	0.553442	-0.527337	-0.329099
H96	H	1.053442	-0.027337	0.170901
Cl97	Cl	1.129363	-1.180663	-0.354730
Cl98	Cl	1.629363	-0.680663	0.145270
H99	H	0.635840	-0.527334	-0.635415
H100	H	1.135840	-0.027334	-0.135415
Cl101	Cl	0.881718	-1.180562	-0.354645
Cl102	Cl	1.381718	-0.680562	0.145355
Cl103	Cl	0.881707	-0.966043	-0.657705
Cl104	Cl	1.381707	-0.466043	-0.157705
H105	H	1.105067	-0.987167	-0.628047
H106	H	1.605067	-0.487167	-0.128047
H107	H	0.627727	-0.987207	-1.106193
H108	H	1.127727	-0.487207	-0.606193
Cl109	Cl	0.657568	-0.966125	-0.882815
Cl110	Cl	1.157568	-0.466125	-0.382815
Cl111	Cl	0.354291	-1.180624	-0.882893
Cl112	Cl	0.854291	-0.680624	-0.382893
H113	H	0.682969	-0.620049	-0.458490
H114	H	1.182969	-0.120049	0.041510
Cl115	Cl	0.344082	-0.631569	-0.344432
Cl116	Cl	0.844082	-0.131569	0.155568
H117	H	0.329301	-0.527293	-0.553856
H118	H	0.829301	-0.027293	-0.053856
Cl119	Cl	0.447194	-0.631930	-0.727237
Cl120	Cl	0.947194	-0.131930	-0.227237
Cl121	Cl	0.354201	-1.180659	-1.130538
Cl122	Cl	0.854201	-0.680659	-0.630538
