data_functionalizedCrystal
_audit_creation_method	'MofGen! by Chris Wilmer'
_symmetry_space_group_name_H-M	'P1'
_symmetry_Int_Tables_number	1
_symmetry_cell_setting	triclinic
loop_
_symmetry_equiv_pos_as_xyz
  x,y,z
_cell_length_a	10.868271
_cell_length_b	17.699083
_cell_length_c	17.699103
_cell_angle_alpha	96.712962
_cell_angle_beta	90.010093
_cell_angle_gamma	90.001712
loop_
_atom_site_label
_atom_site_type_symbol
_atom_site_fract_x
_atom_site_fract_y
_atom_site_fract_z
O1	O	0.102163	-1.004082	0.095711
O2	O	0.602163	-0.504082	0.595711
O3	O	0.102205	-0.783705	0.108163
O4	O	0.602205	-0.283705	0.608163
O5	O	0.102160	-0.900112	-0.008251
O6	O	0.602160	-0.400112	0.491749
O7	O	0.102209	-0.887675	0.212125
O8	O	0.602209	-0.387675	0.712125
O9	O	-0.102485	-0.900102	-0.008256
O10	O	0.397515	-0.400102	0.491744
O11	O	-0.102439	-0.783695	0.108159
O12	O	0.397561	-0.283695	0.608159
O13	O	-0.102481	-1.004073	0.095706
O14	O	0.397519	-0.504073	0.595706
Zn15	Zn	-0.134952	-0.893883	0.101932
Zn16	Zn	0.365048	-0.393883	0.601932
Zn17	Zn	0.134676	-0.893895	0.101938
Zn18	Zn	0.634676	-0.393895	0.601938
O19	O	-0.102436	-0.887666	0.212121
O20	O	0.397564	-0.387666	0.712121
C21	C	-0.000112	-0.755503	0.107715
C22	C	0.499888	-0.255503	0.607715
C23	C	-0.000097	-0.671485	0.106376
C24	C	0.499903	-0.171485	0.606376
N25	N	-0.318966	-0.893879	0.101927
N26	N	0.181034	-0.393879	0.601927
C27	C	-0.569972	-0.893891	0.101936
C28	C	-0.069972	-0.393891	0.601936
C29	C	-0.430295	-0.893882	0.101933
C30	C	0.069705	-0.393882	0.601933
C31	C	-0.000166	-0.899659	-0.036450
C32	C	0.499834	-0.399659	0.463550
C33	C	-0.000176	-0.898315	-0.120468
C34	C	0.499824	-0.398315	0.379532
N35	N	0.318690	-0.893904	0.101936
N36	N	0.818690	-0.393904	0.601936
C37	C	-0.000161	-1.032275	0.096155
C38	C	0.499839	-0.532275	0.596155
C39	C	-0.000168	-1.116293	0.097493
C40	C	0.499832	-0.616293	0.597493
C41	C	-0.000082	-0.622869	0.174709
C42	C	0.499918	-0.122869	0.674709
C43	C	-0.000098	-0.543925	0.173447
C44	C	0.499902	-0.043925	0.673447
C45	C	-0.000121	-0.513600	0.103851
C46	C	0.499879	-0.013600	0.603851
C47	C	-0.000139	-0.562222	0.035513
C48	C	0.499861	-0.062222	0.535513
C49	C	-0.000132	-0.641164	0.036776
C50	C	0.499868	-0.141164	0.536776
C51	C	-0.000171	-0.243859	0.030418
C52	C	0.499829	0.256141	0.530418
C53	C	-0.000174	-0.164910	0.029160
C54	C	0.499826	0.335090	0.529160
C55	C	-0.000137	-0.146620	0.167088
C56	C	0.499863	0.353380	0.667088
C57	C	-0.000130	-0.225562	0.168351
C58	C	0.499870	0.274438	0.668351
C59	C	-0.000155	-0.274177	0.100014
C60	C	0.499845	0.225823	0.600014
C61	C	-0.000140	-0.359777	0.101383
C62	C	0.499860	0.140223	0.601383
C63	C	-0.000127	-0.428002	0.102480
C64	C	0.499873	0.071998	0.602480
C65	C	0.111458	-0.890096	-0.636176
C66	C	0.611458	-0.390096	-0.136176
C67	C	0.111447	-0.891358	-0.557233
C68	C	0.611447	-0.391358	-0.057233
C69	C	-0.000113	-0.891982	-0.517777
C70	C	0.499887	-0.391982	-0.017777
C71	C	-0.111668	-0.891352	-0.557270
C72	C	0.388332	-0.391352	-0.057270
C73	C	-0.111656	-0.890095	-0.636212
C74	C	0.388344	-0.390095	-0.136212
C75	C	-0.111721	-0.896422	-0.238903
C76	C	0.388279	-0.396422	0.261097
C77	C	-0.111724	-0.897677	-0.159955
C78	C	0.388276	-0.397677	0.340045
C79	C	0.111382	-0.897685	-0.159924
C80	C	0.611382	-0.397685	0.340076
C81	C	0.111394	-0.896428	-0.238867
C82	C	0.611394	-0.396428	0.261133
C83	C	-0.000160	-0.895802	-0.278353
C84	C	0.499840	-0.395802	0.221647
C85	C	-0.000147	-0.894434	-0.363952
C86	C	0.499853	-0.394434	0.136048
C87	C	-0.000127	-0.893344	-0.432178
C88	C	0.499873	-0.393344	0.067822
C89	C	-0.000107	-0.888119	0.240320
C90	C	0.499893	-0.388119	0.740320
C91	C	-0.000089	-0.889463	0.324337
C92	C	0.499911	-0.389463	0.824337
H93	H	-0.000063	-0.647553	0.231382
H94	H	0.499937	-0.147553	0.731382
H95	H	-0.000175	-0.537525	-0.021153
H96	H	0.499825	-0.037525	0.478847
H97	H	-0.000123	-0.107027	0.222732
H98	H	0.499877	0.392973	0.722732
O99	O	0.000078	-0.688362	-0.029622
O100	O	0.500078	-0.188362	0.470378
C101	C	0.106034	-0.728119	-0.147145
C102	C	0.606034	-0.228119	0.352855
C103	C	0.105970	-0.674638	-0.071968
C104	C	0.605970	-0.174638	0.428032
H105	H	0.191624	-0.717031	-0.181410
H106	H	0.691624	-0.217031	0.318590
H107	H	0.106119	-0.789764	-0.134332
H108	H	0.606119	-0.289764	0.365668
H109	H	0.020342	-0.717118	-0.181373
H110	H	0.520342	-0.217118	0.318627
H111	H	0.191647	-0.685570	-0.037704
H112	H	0.691647	-0.185570	0.462296
H113	H	0.105820	-0.613010	-0.084835
H114	H	0.605820	-0.113010	0.415165
H115	H	0.202279	-0.891874	-0.525087
H116	H	0.702279	-0.391874	-0.025087
O117	O	-0.220123	-0.889447	-0.674451
O118	O	0.279877	-0.389447	-0.174451
C119	C	-0.441423	-0.889619	-0.666161
C120	C	0.058577	-0.389619	-0.166161
C121	C	-0.318671	-0.890332	-0.622761
C122	C	0.181329	-0.390332	-0.122761
H123	H	-0.521132	-0.890351	-0.624391
H124	H	-0.021132	-0.390351	-0.124391
H125	H	-0.447072	-0.836073	-0.696081
H126	H	0.052928	-0.336073	-0.196081
H127	H	-0.446935	-0.941965	-0.710158
H128	H	0.053065	-0.441965	-0.210158
H129	H	-0.313077	-0.838022	-0.578728
H130	H	0.186923	-0.338022	-0.078728
H131	H	-0.313074	-0.943913	-0.592893
H132	H	0.186926	-0.443913	-0.092893
H133	H	-0.000192	-0.283432	-0.025227
H134	H	0.499808	0.216568	0.474773
H135	H	-0.000085	-0.504345	0.229090
H136	H	0.499915	-0.004345	0.729090
O137	O	-0.000164	-0.254894	0.236023
O138	O	0.499836	0.245106	0.736023
C139	C	-0.000064	-0.228418	0.372701
C140	C	0.499936	0.271582	0.872701
C141	C	-0.000049	-0.195100	0.296116
C142	C	0.499951	0.304900	0.796116
H143	H	0.000055	-0.180091	0.421307
H144	H	0.500055	0.319909	0.921307
H145	H	-0.085725	-0.264895	0.376788
H146	H	0.414275	0.235105	0.876788
H147	H	0.085562	-0.264941	0.376702
H148	H	0.585562	0.235059	0.876702
H149	H	-0.085617	-0.158542	0.292064
H150	H	0.414383	0.341458	0.792064
H151	H	0.085668	-0.158666	0.292062
H152	H	0.585668	0.341334	0.792062
H153	H	0.202215	-0.898197	-0.127765
H154	H	0.702215	-0.398197	0.372235
O155	O	-0.000041	-0.135541	-0.038497
O156	O	0.499959	0.364459	0.461503
C157	C	0.105969	-0.126976	-0.156758
C158	C	0.605969	0.373024	0.343242
C159	C	0.105953	-0.160302	-0.080177
C160	C	0.605953	0.339698	0.419823
H161	H	0.191669	-0.146968	-0.190471
H162	H	0.691669	0.353032	0.309529
H163	H	0.020370	-0.147029	-0.190569
H164	H	0.520370	0.352971	0.309431
H165	H	0.105913	-0.062204	-0.145900
H166	H	0.605913	0.437796	0.354100
H167	H	0.106052	-0.225074	-0.090966
H168	H	0.606052	0.274926	0.409034
H169	H	0.191545	-0.140189	-0.046391
H170	H	0.691545	0.359811	0.453609
O171	O	0.219901	-0.889376	-0.674409
O172	O	0.719901	-0.389376	-0.174409
C173	C	0.410555	-0.823407	-0.689877
C174	C	0.910555	-0.323407	-0.189877
C175	C	0.287802	-0.824142	-0.646508
C176	C	0.787802	-0.324142	-0.146508
H177	H	0.465476	-0.770662	-0.667347
H178	H	0.965476	-0.270662	-0.167347
H179	H	0.465659	-0.876563	-0.681356
H180	H	0.965659	-0.376563	-0.181356
H181	H	0.391363	-0.822431	-0.753081
H182	H	0.891363	-0.322431	-0.253081
H183	H	0.306882	-0.825092	-0.583290
H184	H	0.806882	-0.325092	-0.083290
H185	H	0.232736	-0.770990	-0.655092
H186	H	0.732736	-0.270990	-0.155092
H187	H	0.202237	-0.895915	-0.270987
H188	H	0.702237	-0.395915	0.229013
O189	O	-0.220210	-0.898316	-0.121747
O190	O	0.279790	-0.398316	0.378253
C191	C	-0.441509	-0.898130	-0.130098
C192	C	0.058491	-0.398130	0.369902
C193	C	-0.318749	-0.897427	-0.173464
C194	C	0.181251	-0.397427	0.326536
H195	H	-0.521210	-0.897396	-0.171890
H196	H	-0.021210	-0.397396	0.328110
H197	H	-0.447181	-0.951674	-0.100176
H198	H	0.052819	-0.451674	0.399824
H199	H	-0.447010	-0.845781	-0.086106
H200	H	0.052990	-0.345781	0.413894
H201	H	-0.313165	-0.949740	-0.217493
H202	H	0.186835	-0.449740	0.282507
H203	H	-0.313128	-0.843850	-0.203334
H204	H	0.186872	-0.343850	0.296666
H205	H	-0.202555	-0.895913	-0.271043
H206	H	0.297445	-0.395913	0.228957
H207	H	-0.202502	-0.891865	-0.525139
H208	H	0.297498	-0.391865	-0.025139
