data_functionalizedCrystal
_audit_creation_method	'MofGen! by Chris Wilmer'
_symmetry_space_group_name_H-M	'P1'
_symmetry_Int_Tables_number	1
_symmetry_cell_setting	triclinic
loop_
_symmetry_equiv_pos_as_xyz
  x,y,z
_cell_length_a	14.519731
_cell_length_b	9.065218
_cell_length_c	7.540329
_cell_angle_alpha	90.001345
_cell_angle_beta	89.996092
_cell_angle_gamma	95.647631
loop_
_atom_site_label
_atom_site_type_symbol
_atom_site_fract_x
_atom_site_fract_y
_atom_site_fract_z
O1	O	1.225272	-0.193541	-0.147479
O2	O	1.558605	0.139792	0.185854
O3	O	1.891938	0.473126	0.519188
O4	O	0.956964	-0.216283	-0.147481
O5	O	1.290297	0.117050	0.185853
O6	O	1.623631	0.450384	0.519186
O7	O	1.096664	0.009834	-0.147476
O8	O	1.429997	0.343167	0.185857
O9	O	1.763330	0.676500	0.519190
O10	O	1.085572	-0.419658	-0.147484
O11	O	1.418905	-0.086324	0.185850
O12	O	1.752239	0.247009	0.519183
O13	O	1.096653	0.009834	0.147489
O14	O	1.429986	0.343168	0.480822
O15	O	1.763320	0.676501	0.814155
O16	O	0.956953	-0.216282	0.147484
O17	O	1.290287	0.117051	0.480818
O18	O	1.623620	0.450384	0.814151
O19	O	1.225261	-0.193540	0.147486
O20	O	1.558594	0.139793	0.480819
O21	O	1.891928	0.473126	0.814153
Cu22	Cu	1.091106	-0.204911	0.174418
Cu23	Cu	1.424439	0.128422	0.507751
Cu24	Cu	1.757773	0.461755	0.841084
Cu25	Cu	1.091119	-0.204912	-0.174413
Cu26	Cu	1.424452	0.128421	0.158921
Cu27	Cu	1.757786	0.461755	0.492254
O28	O	1.085561	-0.419657	0.147482
O29	O	1.418895	-0.086324	0.480815
O30	O	1.752228	0.247010	0.814148
C31	C	0.922591	-0.215217	0.000001
C32	C	1.255925	0.118116	0.333335
C33	C	1.589258	0.451450	0.666668
C34	C	0.820188	-0.212024	0.000000
C35	C	1.153521	0.121310	0.333334
C36	C	1.486854	0.454643	0.666667
C37	C	0.737025	-0.209429	-0.000007
C38	C	1.070358	0.123904	0.333327
C39	C	1.403691	0.457237	0.666660
C40	C	0.632692	-0.206187	-0.000007
C41	C	0.966025	0.127146	0.333326
C42	C	1.299359	0.460480	0.666659
C43	C	0.549534	-0.203614	-0.000007
C44	C	0.882868	0.129719	0.333326
C45	C	1.216201	0.463053	0.666660
C46	C	0.445195	-0.200372	-0.000011
C47	C	0.778528	0.132961	0.333322
C48	C	1.111862	0.466294	0.666656
C49	C	1.095592	0.064801	0.000003
C50	C	1.428926	0.398134	0.333337
C51	C	1.762259	0.731468	0.666670
C52	C	1.092405	0.228584	-0.000005
C53	C	1.425738	0.561918	0.333328
C54	C	1.759072	0.895251	0.666662
C55	C	1.259634	-0.194606	-0.000000
C56	C	1.592967	0.138727	0.333333
C57	C	1.926300	0.472060	0.666667
C58	C	1.362037	-0.197799	-0.000011
C59	C	1.695371	0.135534	0.333323
C60	C	2.028704	0.468867	0.666656
C61	C	1.086633	-0.474624	-0.000002
C62	C	1.419966	-0.141291	0.333331
C63	C	1.753299	0.192043	0.666665
C64	C	1.089820	-0.638408	-0.000005
C65	C	1.423153	-0.305074	0.333328
C66	C	1.756487	0.028259	0.666661
N67	N	1.091104	-0.204910	0.419766
N68	N	1.424437	0.128424	0.753100
N69	N	1.757770	0.461757	1.086433
N70	N	1.091120	-0.204909	0.580239
N71	N	1.424454	0.128424	0.913572
N72	N	1.757787	0.461758	1.246906
