data_functionalizedCrystal
_audit_creation_method	'MofGen! by Chris Wilmer'
_symmetry_space_group_name_H-M	'P1'
_symmetry_Int_Tables_number	1
_symmetry_cell_setting	triclinic
loop_
_symmetry_equiv_pos_as_xyz
  x,y,z
_cell_length_a	19.121102
_cell_length_b	19.121063
_cell_length_c	19.120904
_cell_angle_alpha	94.741613
_cell_angle_beta	90.088173
_cell_angle_gamma	90.126902
loop_
_atom_site_label
_atom_site_type_symbol
_atom_site_fract_x
_atom_site_fract_y
_atom_site_fract_z
Zn1	Zn	1.039579	-0.343506	-0.456040
Zn2	Zn	1.539579	0.156494	0.043960
Zn3	Zn	1.039493	-0.456149	-0.343386
Zn4	Zn	1.539493	0.043851	0.156614
Zn5	Zn	0.927792	-0.333518	-0.333417
Zn6	Zn	1.427792	0.166482	0.166583
Zn7	Zn	0.917325	-0.455677	-0.455570
Zn8	Zn	1.417325	0.044323	0.044430
O9	O	0.981047	-0.397212	-0.397103
O10	O	1.481047	0.102788	0.102897
O11	O	1.137479	-0.362826	-0.445465
O12	O	1.637479	0.137174	0.054535
O13	O	1.029020	-0.435899	-0.243797
O14	O	1.529020	0.064101	0.256203
O15	O	0.947038	-0.236577	-0.345708
O16	O	1.447038	0.263423	0.154292
O17	O	1.137415	-0.445584	-0.362699
O18	O	1.637415	0.054416	0.137301
O19	O	1.029167	-0.243915	-0.435798
O20	O	1.529167	0.256085	0.064202
O21	O	0.946954	-0.345802	-0.236473
O22	O	1.446954	0.154198	0.263527
O23	O	0.828493	-0.345345	-0.345252
O24	O	1.328493	0.154655	0.154748
O25	O	0.929198	-0.444780	-0.553899
O26	O	1.429198	0.055220	-0.053899
O27	O	0.820803	-0.435094	-0.434997
O28	O	1.320803	0.064906	0.065003
O29	O	1.019018	-0.362368	-0.554244
O30	O	1.519018	0.137632	-0.054244
O31	O	1.018870	-0.554352	-0.362243
O32	O	1.518870	-0.054352	0.137757
O33	O	0.929114	-0.554005	-0.444664
O34	O	1.429114	-0.054005	0.055336
C35	C	0.799261	-0.389085	-0.388992
C36	C	1.299261	0.110915	0.111008
C37	C	0.721490	-0.385626	-0.385539
C38	C	1.221490	0.114374	0.114461
C39	C	0.680968	-0.430793	-0.430575
C40	C	1.180968	0.069207	0.069425
C41	C	0.607894	-0.427534	-0.427334
C42	C	1.107894	0.072466	0.072666
C43	C	0.575344	-0.379110	-0.379053
C44	C	1.075344	0.120890	0.120947
C45	C	0.615872	-0.333937	-0.334016
C46	C	1.115872	0.166063	0.165984
C47	C	0.688944	-0.337194	-0.337261
C48	C	1.188944	0.162806	0.162739
C49	C	0.354913	-0.366933	-0.366924
C50	C	0.854913	0.133067	0.133076
C51	C	0.281835	-0.363681	-0.363681
C52	C	0.781835	0.136319	0.136319
C53	C	0.273863	-0.457277	-0.457000
C54	C	0.773863	0.042723	0.043000
C55	C	0.346937	-0.460532	-0.460238
C56	C	0.846937	0.039468	0.039762
C57	C	0.387458	-0.415357	-0.415203
C58	C	0.887458	0.084643	0.084797
C59	C	0.500651	-0.375778	-0.375738
C60	C	1.000651	0.124222	0.124262
C61	C	0.462149	-0.418686	-0.418523
C62	C	0.962149	0.081314	0.081477
C63	C	0.972865	-0.579659	-0.404501
C64	C	1.472865	-0.079659	0.095499
C65	C	0.969428	-0.657714	-0.407691
C66	C	1.469428	-0.157714	0.092309
C67	C	1.014577	-0.694545	-0.366317
C68	C	1.514577	-0.194545	0.133683
C69	C	1.011348	-0.767887	-0.369323
C70	C	1.511348	-0.267887	0.130677
C71	C	0.962966	-0.804396	-0.413699
C72	C	1.462966	-0.304396	0.086301
C73	C	0.917815	-0.767560	-0.455078
C74	C	1.417815	-0.267560	0.044922
C75	C	0.921048	-0.694220	-0.452076
C76	C	1.421048	-0.194220	0.047924
C77	C	0.950869	-1.025828	-0.424912
C78	C	1.450869	-0.525828	0.075088
C79	C	0.947638	-1.099173	-0.427909
C80	C	1.447638	-0.599173	0.072091
C81	C	1.041173	-1.099494	-0.342155
C82	C	1.541173	-0.599494	0.157845
C83	C	1.044399	-1.026153	-0.339154
C84	C	1.544399	-0.526153	0.160846
C85	C	0.999250	-0.989323	-0.380535
C86	C	1.499250	-0.489323	0.119465
C87	C	0.959663	-0.879363	-0.416770
C88	C	1.459663	-0.379363	0.083230
C89	C	1.002557	-0.914358	-0.377467
C90	C	1.502557	-0.414358	0.122533
C91	C	1.163544	-0.405372	-0.405246
C92	C	1.663544	0.094628	0.094754
C93	C	1.241313	-0.408849	-0.408717
C94	C	1.741313	0.091151	0.091283
C95	C	0.972950	-0.404635	-0.580263
C96	C	1.472950	0.095365	-0.080263
C97	C	0.969500	-0.407799	-0.658315
C98	C	1.469500	0.092201	-0.158315
C99	C	0.989280	-0.214054	-0.389693
C100	C	1.489280	0.285946	0.110307
C101	C	0.992788	-0.136003	-0.386535
C102	C	1.492788	0.363997	0.113465
C103	C	1.014640	-0.366379	-0.695165
C104	C	1.514640	0.133621	-0.195165
C105	C	1.011390	-0.369348	-0.768503
C106	C	1.511390	0.130652	-0.268503
C107	C	0.963001	-0.413741	-0.804990
C108	C	1.463001	0.086259	-0.304990
C109	C	0.917856	-0.455162	-0.768135
C110	C	1.417856	0.044838	-0.268135
C111	C	0.921103	-0.452188	-0.694798
C112	C	1.421103	0.047812	-0.194798
C113	C	0.950853	-0.424862	-1.026410
C114	C	1.450853	0.075138	-0.526410
C115	C	0.947610	-0.427833	-1.099752
C116	C	1.447610	0.072167	-0.599752
C117	C	1.041143	-0.342019	-1.100115
C118	C	1.541143	0.157981	-0.600115
C119	C	1.044390	-0.339052	-1.026777
C120	C	1.544390	0.160948	-0.526777
C121	C	0.999242	-0.380470	-0.989928
C122	C	1.499242	0.119530	-0.489928
C123	C	0.959679	-0.416779	-0.879953
C124	C	1.459679	0.083221	-0.379953
C125	C	1.002561	-0.377429	-0.914966
C126	C	1.502561	0.122571	-0.414966
C127	C	0.989156	-0.389769	-0.214655
C128	C	1.489156	0.110231	0.285345
C129	C	0.992751	-0.386414	-0.136602
C130	C	1.492751	0.113586	0.363398
H131	H	0.474141	-0.336353	-0.336426
H132	H	0.974141	0.163647	0.163574
H133	H	1.048113	-0.797871	-0.335631
H134	H	1.548113	-0.297871	0.164369
H135	H	1.048150	-0.335622	-0.798503
H136	H	1.548150	0.164378	-0.298503
H137	H	0.878454	-0.491305	-0.797848
H138	H	1.378454	0.008695	-0.297848
H139	H	0.721937	-0.300410	-0.300591
H140	H	1.221937	0.199590	0.199409
H141	H	0.878424	-0.797292	-0.491213
H142	H	1.378424	-0.297292	0.008787
H143	H	1.083794	-0.302905	-0.997075
H144	H	1.583794	0.197095	-0.497075
H145	H	1.041956	-0.341281	-0.885255
H146	H	1.541956	0.158719	-0.385255
H147	H	0.488655	-0.458110	-0.457836
H148	H	0.988655	0.041890	0.042164
C149	C	1.097606	-0.985997	-0.290318
C150	C	1.597606	-0.485997	0.209682
N151	N	1.137674	-0.955750	-0.253525
N152	N	1.637674	-0.455750	0.246475
C153	C	0.246032	-0.310408	-0.310567
C154	C	0.746032	0.189592	0.189433
N155	N	0.219065	-0.270285	-0.270563
N156	N	0.719065	0.229715	0.229437
C157	C	0.906448	-0.465605	-0.920095
C158	C	1.406448	0.034395	-0.420095
N159	N	0.866352	-0.502377	-0.950333
N160	N	1.366352	-0.002377	-0.450333
C161	C	1.090836	-1.140013	-0.296641
C162	C	1.590836	-0.640013	0.203359
N163	N	1.128245	-1.170531	-0.262359
N164	N	1.628245	-0.670531	0.237641
C165	C	0.901238	-0.985328	-0.470471
C166	C	1.401238	-0.485328	0.029529
N167	N	0.863865	-0.954822	-0.504802
N168	N	1.363865	-0.454822	-0.004802
H169	H	1.077899	-0.308298	-1.130125
H170	H	1.577899	0.191702	-0.630125
C171	C	1.067800	-0.654392	-0.317498
C172	C	1.567800	-0.154392	0.182502
N173	N	1.107891	-0.624150	-0.280727
N174	N	1.607891	-0.124150	0.219273
H175	H	0.707464	-0.470228	-0.469888
H176	H	1.207464	0.029772	0.030112
C177	C	0.871380	-0.653707	-0.497591
C178	C	1.371380	-0.153707	0.002409
N179	N	0.833970	-0.623193	-0.531876
N180	N	1.333970	-0.123193	-0.031876
C181	C	0.399477	-0.317243	-0.317380
C182	C	0.899477	0.182757	0.182620
N183	N	0.433045	-0.279815	-0.280059
N184	N	0.933045	0.220185	0.219941
C185	C	1.067871	-0.317543	-0.655037
C186	C	1.567871	0.182457	-0.155037
N187	N	1.107964	-0.280755	-0.624814
N188	N	1.607964	0.219245	-0.124814
H189	H	0.908204	-0.463985	-1.129457
H190	H	1.408204	0.036015	-0.629457
H191	H	0.373433	-0.499966	-0.499552
H192	H	0.873433	0.000034	0.000448
C193	C	0.563323	-0.477235	-0.476864
C194	C	1.063323	0.022765	0.023136
N195	N	0.529752	-0.514677	-0.514168
N196	N	1.029752	-0.014677	-0.014168
C197	C	0.229284	-0.506961	-0.506540
C198	C	0.729284	-0.006961	-0.006540
N199	N	0.195707	-0.544383	-0.543858
N200	N	0.695707	-0.044383	-0.043858
H201	H	0.884338	-0.485909	-0.664795
H202	H	1.384338	0.014091	-0.164795
C203	C	0.580064	-0.280668	-0.280908
C204	C	1.080064	0.219332	0.219092
N205	N	0.553095	-0.240546	-0.240905
N206	N	1.053095	0.259454	0.259095
H207	H	0.914100	-0.458598	-0.996417
H208	H	1.414100	0.041402	-0.496417
H209	H	0.908248	-1.128897	-0.464059
H210	H	1.408248	-0.628897	0.035941
H211	H	1.041952	-0.884631	-0.341339
H212	H	1.541952	-0.384631	0.158661
H213	H	0.920269	-0.909097	-0.452900
H214	H	1.420269	-0.409097	0.047100
