data_functionalizedCrystal
_audit_creation_method	'MofGen! by Chris Wilmer'
_symmetry_space_group_name_H-M	'P1'
_symmetry_Int_Tables_number	1
_symmetry_cell_setting	triclinic
loop_
_symmetry_equiv_pos_as_xyz
  x,y,z
_cell_length_a	18.215407
_cell_length_b	16.120484
_cell_length_c	18.215399
_cell_angle_alpha	92.869789
_cell_angle_beta	89.980167
_cell_angle_gamma	92.926015
loop_
_atom_site_label
_atom_site_type_symbol
_atom_site_fract_x
_atom_site_fract_y
_atom_site_fract_z
Zn1	Zn	1.110213	-0.331906	-0.430960
Zn2	Zn	1.103879	-0.471328	-0.314129
Zn3	Zn	0.987144	-0.331934	-0.307908
Zn4	Zn	0.980871	-0.471282	-0.437152
O5	O	1.045527	-0.401612	-0.372537
O6	O	1.212356	-0.350409	-0.415474
O7	O	1.088368	-0.452868	-0.210321
O8	O	1.008745	-0.215264	-0.319037
O9	O	1.207703	-0.452841	-0.329639
O10	O	1.099163	-0.215244	-0.409442
O11	O	1.002604	-0.350456	-0.205751
O12	O	0.883328	-0.350411	-0.325041
O13	O	0.998054	-0.452762	-0.539313
O14	O	0.878719	-0.452789	-0.419995
O15	O	1.093081	-0.350364	-0.534764
O16	O	1.082286	-0.587988	-0.335643
O17	O	0.991913	-0.587954	-0.426027
C18	C	0.854321	-0.401598	-0.372516
C19	C	0.772522	-0.401612	-0.372525
C20	C	1.035751	-0.618221	-0.382198
C21	C	1.031637	-0.710887	-0.386356
C22	C	0.581943	-0.455004	-0.421912
C23	C	0.505085	-0.455007	-0.421921
C24	C	0.509861	-0.348236	-0.323179
C25	C	0.586719	-0.348229	-0.323174
C26	C	0.622758	-0.401619	-0.372540
C27	C	0.469041	-0.401627	-0.372554
C28	C	0.385708	-0.401630	-0.372564
C29	C	0.706097	-0.401615	-0.372531
C30	C	1.024129	-0.880549	-0.393961
C31	C	1.067056	-0.921836	-0.351125
C32	C	1.062879	-1.016241	-0.355357
C33	C	1.028305	-0.786135	-0.389730
C34	C	1.237479	-0.401627	-0.372560
C35	C	1.319277	-0.401634	-0.372569
C36	C	1.045574	-0.401555	-0.564488
C37	C	1.045594	-0.401530	-0.646286
C38	C	1.055360	-0.184158	-0.362855
C39	C	1.059551	-0.091492	-0.358729
C40	C	1.095094	-0.348162	-0.832110
C41	C	1.095104	-0.348138	-0.908967
C42	C	0.996153	-0.454770	-0.913694
C43	C	0.996140	-0.454790	-0.836837
C44	C	1.045615	-0.401487	-0.796047
C45	C	1.045637	-0.401443	-0.949761
C46	C	1.045648	-0.401417	-1.033094
C47	C	1.045603	-0.401511	-0.712709
C48	C	1.045524	-0.401610	-0.181331
C49	C	1.045657	-0.401399	-0.099523
H50	H	0.611284	-0.498475	-0.462110
C51	C	1.194625	-0.336531	-0.994912
C52	C	1.149489	-0.289521	-0.948612
H53	H	1.228197	-0.300339	-1.019389
H54	H	1.221132	-0.372856	-0.966553
H55	H	1.165156	-0.368271	-1.030200
H56	H	1.178958	-0.257786	-0.913320
H57	H	1.122981	-0.253183	-0.976972
C58	C	0.479643	-0.495805	-0.548299
C59	C	0.460223	-0.513694	-0.476192
H60	H	0.451950	-0.532041	-0.581804
H61	H	0.469573	-0.439813	-0.556649
H62	H	0.530576	-0.503443	-0.555348
H63	H	0.409290	-0.506049	-0.469141
H64	H	0.470287	-0.569699	-0.467838
H65	H	0.955874	-0.498169	-0.946914
C66	C	1.114662	-0.788257	-0.303481
C67	C	1.120898	-0.873845	-0.297318
H68	H	1.147895	-0.758629	-0.270259
H69	H	1.126032	-0.773986	-0.352303
H70	H	1.065830	-0.774109	-0.292050
H71	H	1.169728	-0.887994	-0.308755
H72	H	1.109532	-0.888121	-0.248486
C73	C	0.394164	-0.300836	-0.279343
C74	C	0.470244	-0.289556	-0.268916
H75	H	0.369709	-0.264611	-0.245839
H76	H	0.382140	-0.288706	-0.328262
H77	H	0.379046	-0.356839	-0.270989
H78	H	0.485364	-0.233553	-0.277276
H79	H	0.482273	-0.301680	-0.219986
H80	H	1.135377	-0.304757	-0.798901
H81	H	0.619951	-0.304751	-0.282969
C82	C	0.976509	-1.014126	-0.441574
C83	C	0.970276	-0.928539	-0.447749
H84	H	0.943258	-1.043758	-0.474775
H85	H	1.025329	-1.028281	-0.453020
H86	H	0.965156	-1.028383	-0.392738
H87	H	0.981635	-0.914281	-0.496584
H88	H	0.921446	-0.914378	-0.436308
C89	C	0.898335	-0.560202	-0.849223
C90	C	0.941751	-0.513413	-0.797191
H91	H	0.864762	-0.596393	-0.824745
H92	H	0.871830	-0.523872	-0.877576
H93	H	0.928970	-0.592085	-0.880626
H94	H	0.911116	-0.481525	-0.765791
H95	H	0.968257	-0.549747	-0.768826
