data_functionalizedCrystal
_audit_creation_method	'MofGen! by Chris Wilmer'
_symmetry_space_group_name_H-M	'P1'
_symmetry_Int_Tables_number	1
_symmetry_cell_setting	triclinic
loop_
_symmetry_equiv_pos_as_xyz
  x,y,z
_cell_length_a	12.759400
_cell_length_b	19.805407
_cell_length_c	12.759393
_cell_angle_alpha	90.030194
_cell_angle_beta	89.970739
_cell_angle_gamma	89.987354
loop_
_atom_site_label
_atom_site_type_symbol
_atom_site_fract_x
_atom_site_fract_y
_atom_site_fract_z
Zn1	Zn	-0.418254	-1.034821	-0.594289
Zn2	Zn	-0.593970	-1.034753	-0.418612
Zn3	Zn	-0.418301	-0.921628	-0.418595
Zn4	Zn	-0.593887	-0.921624	-0.594221
O5	O	-0.506103	-0.978207	-0.506429
O6	O	-0.441578	-1.129529	-0.571020
O7	O	-0.570721	-1.019719	-0.271589
O8	O	-0.271274	-0.936674	-0.441922
O9	O	-0.570675	-1.129478	-0.441952
O10	O	-0.271239	-1.019837	-0.571004
O11	O	-0.441658	-0.936607	-0.271577
O12	O	-0.441578	-0.826911	-0.441857
O13	O	-0.570535	-0.936667	-0.741251
O14	O	-0.570581	-0.826908	-0.570889
O15	O	-0.441498	-1.019833	-0.741301
O16	O	-0.740980	-1.019715	-0.441886
O17	O	-0.740919	-0.936600	-0.570905
C18	C	-0.506076	-0.802351	-0.506365
C19	C	-0.506090	-0.727119	-0.506362
C20	C	-0.573389	-0.265344	-0.573542
C21	C	-0.573388	-0.336032	-0.573523
C22	C	-0.506118	-0.371357	-0.506440
C23	C	-0.438852	-0.335989	-0.439363
C24	C	-0.438858	-0.265302	-0.439377
C25	C	-0.438824	-0.621063	-0.439304
C26	C	-0.438821	-0.691755	-0.439297
C27	C	-0.573354	-0.691793	-0.573450
C28	C	-0.573361	-0.621105	-0.573464
C29	C	-0.506099	-0.585744	-0.506384
C30	C	-0.506102	-0.509096	-0.506403
C31	C	-0.506109	-0.448004	-0.506425
C32	C	-0.779070	-0.978168	-0.506413
C33	C	-0.895847	-0.978214	-0.506442
C34	C	-1.060338	-1.021531	-0.573734
C35	C	-0.950614	-1.021497	-0.573710
C36	C	-0.950810	-0.934968	-0.439185
C37	C	-1.060532	-0.935007	-0.439205
C38	C	-0.232070	-0.978263	-0.506469
C39	C	-0.115293	-0.978287	-0.506485
C40	C	-0.506002	-0.978257	-0.780463
C41	C	-0.505959	-0.978279	-0.897240
C42	C	-0.506126	-0.154749	-0.506482
C43	C	-0.506125	-0.229981	-0.506472
C44	C	-0.438759	-1.021586	-0.952129
C45	C	-0.438714	-1.021598	-1.061853
C46	C	-0.573078	-0.934992	-1.061789
C47	C	-0.573117	-0.934978	-0.952067
C48	C	-0.506128	-0.978195	-0.233462
C49	C	-0.505875	-0.978305	-0.116686
H50	H	-0.384084	-0.364756	-0.384738
H51	H	-0.384059	-0.592280	-0.384679
H52	H	-0.627839	-0.899707	-0.907375
H53	H	-0.384072	-1.056843	-0.907492
O54	O	-0.646018	-0.227244	-0.645823
H55	H	-0.692824	-0.263713	-0.692422
O56	O	-0.366235	-1.068305	-1.121066
H57	H	-0.384279	-1.121422	-1.100047
H58	H	-1.104921	-1.056771	-0.628523
O59	O	-0.645513	-0.888291	-1.120922
H60	H	-0.634203	-0.895579	-1.206441
H61	H	-0.628163	-0.364821	-0.628135
H62	H	-0.628136	-0.592348	-0.628094
H63	H	-0.384083	-0.236511	-0.384765
O64	O	-0.645907	-0.729936	-0.645797
H65	H	-0.692673	-0.693496	-0.692455
O66	O	-1.119821	-0.888366	-0.366667
H67	H	-1.098828	-0.835228	-0.384597
O68	O	-0.366276	-0.729853	-0.366917
H69	H	-0.283837	-0.716299	-0.385053
O70	O	-0.891337	-1.068147	-0.646229
H71	H	-0.947853	-1.098247	-0.693012
O72	O	-0.891748	-0.888283	-0.366627
H73	H	-0.806218	-0.895515	-0.377918
