data_functionalizedCrystal
_audit_creation_method	'MofGen! by Chris Wilmer'
_symmetry_space_group_name_H-M	'P1'
_symmetry_Int_Tables_number	1
_symmetry_cell_setting	triclinic
loop_
_symmetry_equiv_pos_as_xyz
  x,y,z
_cell_length_a	14.908571
_cell_length_b	14.908178
_cell_length_c	14.908308
_cell_angle_alpha	90.221621
_cell_angle_beta	89.824947
_cell_angle_gamma	89.820760
loop_
_atom_site_label
_atom_site_type_symbol
_atom_site_fract_x
_atom_site_fract_y
_atom_site_fract_z
Zn1	Zn	1.319970	-0.467728	0.559107
Zn2	Zn	1.819970	0.032272	1.059107
Zn3	Zn	1.320875	-0.609493	0.400117
Zn4	Zn	1.820875	-0.109493	0.900117
Zn5	Zn	1.179218	-0.450513	0.401153
Zn6	Zn	1.679218	0.049487	0.901153
Zn7	Zn	1.161960	-0.608428	0.541833
Zn8	Zn	1.661960	-0.108428	1.041833
O9	O	1.245506	-0.534041	0.475552
O10	O	1.745506	-0.034041	0.975552
O11	O	1.445502	-0.494184	0.544812
O12	O	1.945502	0.005816	1.044812
O13	O	1.309684	-0.581645	0.274841
O14	O	1.809684	-0.081645	0.774841
O15	O	1.204733	-0.327380	0.429768
O16	O	1.704733	0.172620	0.929768
O17	O	1.446167	-0.598338	0.428003
O18	O	1.946167	-0.098338	0.928003
O19	O	1.308143	-0.340028	0.545817
O20	O	1.808143	0.159972	1.045817
O21	O	1.205610	-0.464843	0.275602
O22	O	1.705610	0.035157	0.775602
O23	O	1.051517	-0.463811	0.413019
O24	O	1.551517	0.036189	0.913019
O25	O	1.175320	-0.596523	0.669538
O26	O	1.675320	-0.096523	1.169538
O27	O	1.038838	-0.579830	0.516376
O28	O	1.538838	-0.079830	1.016376
O29	O	1.291409	-0.493151	0.682229
O30	O	1.791409	0.006849	1.182229
O31	O	1.292951	-0.734769	0.411253
O32	O	1.792951	-0.234769	0.911253
O33	O	1.176197	-0.733987	0.515371
O34	O	1.676197	-0.233987	1.015371
C35	C	1.012659	-0.519838	0.462936
C36	C	1.512659	-0.019838	0.962936
C37	C	0.913044	-0.513784	0.457558
C38	C	1.413044	-0.013784	0.957558
C39	C	0.712702	-0.623390	0.554915
C40	C	1.212702	-0.123390	1.054915
C41	C	0.619104	-0.617705	0.549865
C42	C	1.119104	-0.117705	1.049865
C43	C	0.632249	-0.496726	0.442415
C44	C	1.132249	0.003274	0.942415
C45	C	0.725847	-0.502411	0.447465
C46	C	1.225847	-0.002411	0.947465
C47	C	0.766070	-0.565746	0.503715
C48	C	1.266070	-0.065746	1.003715
C49	C	0.859669	-0.571434	0.508760
C50	C	1.359669	-0.071434	1.008760
C51	C	0.872812	-0.450452	0.401315
C52	C	1.372812	0.049548	0.901315
C53	C	0.779214	-0.444767	0.396265
C54	C	1.279214	0.055233	0.896265
C55	C	1.232822	-0.766900	0.461346
C56	C	1.732822	-0.266900	0.961346
C57	C	1.227476	-0.866524	0.455303
C58	C	1.727476	-0.366524	0.955303
C59	C	1.325018	-1.066751	0.564907
C60	C	1.825018	-0.566751	1.064907
C61	C	1.319998	-1.160358	0.559232
C62	C	1.819998	-0.660358	1.059232
C63	C	1.212412	-1.147346	0.438283
C64	C	1.712412	-0.647346	0.938283
C65	C	1.217432	-1.053739	0.443958
C66	C	1.717432	-0.553739	0.943958
C67	C	1.273738	-1.013445	0.507271
C68	C	1.773738	-0.513445	1.007271
C69	C	1.278762	-0.919837	0.512941
C70	C	1.778762	-0.419837	1.012941
C71	C	1.171172	-0.906827	0.391998
C72	C	1.671172	-0.406827	0.891998
C73	C	1.166152	-1.000433	0.386323
C74	C	1.666152	-0.500433	0.886323
C75	C	1.479261	-0.548300	0.488219
C76	C	1.979261	-0.048300	0.988219
C77	C	1.578874	-0.554376	0.493616
C78	C	2.078874	-0.054376	0.993616
C79	C	1.231338	-0.546639	0.709311
C80	C	1.731338	-0.046639	1.209311
C81	C	1.225301	-0.552007	0.808925
C82	C	1.725301	-0.052007	1.308925
C83	C	1.258262	-0.300275	0.489835
C84	C	1.758262	0.199725	0.989835
C85	C	1.263698	-0.200658	0.495921
C86	C	1.763698	0.299342	0.995921
C87	C	1.259673	-0.521430	0.242710
C88	C	1.759673	-0.021430	0.742710
C89	C	1.265897	-0.515820	0.143122
C90	C	1.765897	-0.015820	0.643122
C91	C	1.334839	-0.454433	1.009328
C92	C	1.834839	0.045567	1.509328
C93	C	1.329169	-0.459475	1.102924
C94	C	1.829169	0.040525	1.602924
C95	C	1.208289	-0.567126	1.089716
C96	C	1.708289	-0.067126	1.589716
C97	C	1.213958	-0.562085	0.996119
C98	C	1.713958	-0.062085	1.496119
C99	C	1.277237	-0.505737	0.955929
C100	C	1.777237	-0.005737	1.455929
C101	C	1.282910	-0.500701	0.862330
C102	C	1.782910	-0.000701	1.362330
C103	C	1.162026	-0.608347	0.849124
C104	C	1.662026	-0.108347	1.349124
C105	C	1.156356	-0.613389	0.942720
C106	C	1.656356	-0.113389	1.442720
H107	H	0.916275	-0.403516	0.359622
H108	H	1.416275	0.096484	0.859622
H109	H	1.166567	-1.180169	0.386741
H110	H	1.666567	-0.680169	0.886741
C111	C	1.340681	-0.875514	0.582593
C112	C	1.840681	-0.375514	1.082593
H113	H	1.370491	-0.920671	0.616115
H114	H	1.870491	-0.420671	1.116115
H115	H	1.383800	-0.839508	0.552692
H116	H	1.883800	-0.339508	1.052692
H117	H	1.305939	-0.839031	0.621963
H118	H	1.805939	-0.339031	1.121963
C119	C	1.138687	-0.629098	1.133932
C120	C	1.638687	-0.129098	1.633932
H121	H	1.105186	-0.658930	1.088726
H122	H	1.605186	-0.158930	1.588726
H123	H	1.168627	-0.672201	1.169922
H124	H	1.668627	-0.172201	1.669922
H125	H	1.099293	-0.594390	1.170417
H126	H	1.599293	-0.094390	1.670417
C127	C	1.086757	-0.675368	0.986931
C128	C	1.586757	-0.175368	1.486931
H129	H	1.053260	-0.705198	0.941721
H130	H	1.553260	-0.205198	1.441721
H131	H	1.116700	-0.718472	1.022918
H132	H	1.616700	-0.218472	1.522918
H133	H	1.047359	-0.640667	1.023418
H134	H	1.547359	-0.140667	1.523418
H135	H	0.599483	-0.445157	0.396624
H136	H	1.099483	0.054843	0.896624
C137	C	1.098651	-0.664778	0.790387
C138	C	1.598651	-0.164778	1.290387
H139	H	1.060158	-0.699059	0.827732
H140	H	1.560158	-0.199059	1.327732
H141	H	1.063686	-0.626145	0.753854
H142	H	1.563686	-0.126145	1.253854
H143	H	1.133018	-0.703958	0.753349
H144	H	1.633018	-0.203958	1.253349
H145	H	0.745452	-0.674964	0.600711
H146	H	1.245452	-0.174964	1.100711
C147	C	0.903914	-0.641095	0.570635
C148	C	1.403914	-0.141095	1.070635
H149	H	0.858721	-0.674605	0.600411
H150	H	1.358721	-0.174605	1.100411
H151	H	0.940382	-0.680464	0.535887
H152	H	1.440382	-0.180464	1.035887
H153	H	0.939923	-0.611186	0.613799
H154	H	1.439923	-0.111186	1.113799
C155	C	0.560402	-0.681096	0.606204
C156	C	1.060402	-0.181096	1.106204
H157	H	0.597766	-0.719625	0.640428
H158	H	1.097766	-0.219625	1.140428
H159	H	0.523400	-0.646742	0.645419
H160	H	1.023400	-0.146742	1.145419
H161	H	0.523834	-0.716038	0.567523
H162	H	1.023834	-0.216038	1.067523
C163	C	1.104219	-1.044757	0.316684
C164	C	1.604219	-0.544757	0.816684
H165	H	1.074394	-0.999601	0.283174
H166	H	1.574394	-0.499601	0.783174
H167	H	1.138941	-1.081251	0.277314
H168	H	1.638941	-0.581251	0.777314
H169	H	1.061100	-1.080754	0.346606
H170	H	1.561100	-0.580754	0.846606
C171	C	1.392536	-0.403049	1.161664
C172	C	1.892536	0.096951	1.661664
H173	H	1.380096	-0.414117	1.223164
H174	H	1.880096	0.085883	1.723164
H175	H	1.452964	-0.419011	1.148782
H176	H	1.952964	0.080989	1.648782
H177	H	1.383629	-0.341201	1.149294
H178	H	1.883629	0.158799	1.649294
H179	H	1.361750	-1.203756	0.606169
H180	H	1.861750	-0.703756	1.106169
C181	C	1.386937	-1.022425	0.634556
C182	C	1.886937	-0.522425	1.134556
H183	H	1.416753	-1.067579	0.668076
H184	H	1.916753	-0.567579	1.168076
H185	H	1.430051	-0.986415	0.604653
H186	H	1.930051	-0.486415	1.104653
H187	H	1.352194	-0.985944	0.673928
H188	H	1.852194	-0.485944	1.173928
C189	C	1.114757	-0.848189	0.328600
C190	C	1.614757	-0.348189	0.828600
H191	H	1.125805	-0.786668	0.341049
H192	H	1.625805	-0.286668	0.841049
H193	H	1.130747	-0.861101	0.268178
H194	H	1.630747	-0.361101	0.768178
H195	H	1.052910	-0.860612	0.337476
H196	H	1.552910	-0.360612	0.837476
H197	H	1.334435	-0.454822	0.829609
H198	H	1.834435	0.045178	1.329609
H199	H	1.386367	-0.408558	0.976604
H200	H	1.886367	0.091442	1.476604
C201	C	0.734964	-0.375110	0.334390
C202	C	1.234964	0.124890	0.834390
H203	H	0.671577	-0.379983	0.338709
H204	H	1.171577	0.120017	0.838709
H205	H	0.752776	-0.316552	0.352092
H206	H	1.252776	0.183448	0.852092
H207	H	0.753231	-0.385834	0.274183
H208	H	1.253231	0.114166	0.774183
