data_functionalizedCrystal
_audit_creation_method	'MofGen! by Chris Wilmer'
_symmetry_space_group_name_H-M	'P1'
_symmetry_Int_Tables_number	1
_symmetry_cell_setting	triclinic
loop_
_symmetry_equiv_pos_as_xyz
  x,y,z
_cell_length_a	6.817900
_cell_length_b	17.284672
_cell_length_c	17.284648
_cell_angle_alpha	88.655147
_cell_angle_beta	103.040472
_cell_angle_gamma	103.040903
loop_
_atom_site_label
_atom_site_type_symbol
_atom_site_fract_x
_atom_site_fract_y
_atom_site_fract_z
V1	V	-4.005488	-0.094267	-0.239956
O2	O	-4.000074	0.020178	-0.242328
O3	O	-3.950737	-0.201965	-0.231640
O4	O	-3.950734	-0.085951	-0.347654
O5	O	-4.000077	-0.096640	-0.125511
V6	V	-4.490762	-0.081389	-0.227078
O7	O	-4.262905	-0.122515	-0.268204
O8	O	-4.683542	-0.053141	-0.198830
O9	O	-4.322306	0.026309	-0.235394
O10	O	-4.613572	-0.195834	-0.224706
O11	O	-4.613570	-0.079017	-0.341523
O12	O	-4.322308	-0.089705	-0.119380
C13	C	-3.794398	-0.228434	-0.226133
C14	C	-3.830878	-0.316435	-0.220051
C15	C	-3.883249	-0.364613	-0.288954
C16	C	-3.917504	-0.447298	-0.283233
C17	C	-3.899400	-0.481803	-0.208608
C18	C	-3.847017	-0.433618	-0.139700
C19	C	-3.812749	-0.350935	-0.145422
C20	C	-3.998094	-0.728358	-0.183800
C21	C	-4.032373	-0.811048	-0.178083
C22	C	-4.102854	-0.824722	-0.321616
C23	C	-4.068594	-0.742036	-0.327332
C24	C	-4.016204	-0.693858	-0.258424
N25	N	-3.934418	-0.566321	-0.202758
N26	N	-3.981172	-0.609342	-0.264274
C27	C	-3.794394	-0.080445	-0.374119
C28	C	-3.830869	-0.074359	-0.462119
C29	C	-3.883233	-0.143262	-0.510297
C30	C	-3.917513	-0.137541	-0.592982
C31	C	-3.899414	-0.062917	-0.627488
C32	C	-3.847051	0.005991	-0.579304
C33	C	-3.812786	0.000270	-0.496620
C34	C	-3.998127	-0.038110	-0.874043
C35	C	-4.032391	-0.032394	-0.956732
C36	C	-4.102855	-0.175927	-0.970405
C37	C	-4.068574	-0.181641	-0.887719
C38	C	-4.016225	-0.112734	-0.839543
N39	N	-3.934446	-0.057068	-0.712006
N40	N	-3.981207	-0.118584	-0.755027
C41	C	-4.141986	0.052774	-0.240899
C42	C	-4.084745	0.140774	-0.246986
C43	C	-4.141991	-0.095214	-0.092911
C44	C	-4.084755	-0.101296	-0.004910
H45	H	-3.955455	-0.689141	-0.127690
H46	H	-3.898023	-0.336527	-0.349722
N47	N	-4.159341	-0.876694	-0.395927
H48	H	-4.045259	-0.862722	-0.425782
H49	H	-4.292352	-0.867852	-0.430755
H50	H	-4.083311	-0.713948	-0.388099
N51	N	-4.013089	-0.848311	-0.097615
H52	H	-3.902298	-0.879779	-0.089496
H53	H	-4.149458	-0.884821	-0.094706
H54	H	-3.770150	0.056378	-0.457394
H55	H	-3.770095	-0.311708	-0.089313
N56	N	-3.973987	-0.499263	-0.357549
H57	H	-3.980269	-0.464858	-0.405691
H58	H	-4.113265	-0.536444	-0.360814
N59	N	-3.827660	-0.470833	-0.059214
H60	H	-3.857384	-0.530526	-0.066044
H61	H	-3.929884	-0.455944	-0.031447
H62	H	-3.897961	-0.204028	-0.482209
H63	H	-4.083323	-0.242409	-0.859631
H64	H	-3.832329	0.066752	-0.607405
N65	N	-3.974017	-0.211858	-0.644947
H66	H	-3.980277	-0.260000	-0.610542
H67	H	-3.866254	-0.210097	-0.676981
H68	H	-4.145482	-0.232027	-1.009639
H69	H	-4.017691	0.028377	-0.984824
N70	N	-3.941661	0.036209	-0.822087
H71	H	-3.935387	0.084349	-0.856495
H72	H	-3.802382	0.039479	-0.784906
