data_functionalizedCrystal
_audit_creation_method	'MofGen! by Chris Wilmer'
_symmetry_space_group_name_H-M	'P1'
_symmetry_Int_Tables_number	1
_symmetry_cell_setting	triclinic
loop_
_symmetry_equiv_pos_as_xyz
  x,y,z
_cell_length_a	16.625548
_cell_length_b	21.295416
_cell_length_c	16.625539
_cell_angle_alpha	89.969100
_cell_angle_beta	90.020568
_cell_angle_gamma	89.968601
loop_
_atom_site_label
_atom_site_type_symbol
_atom_site_fract_x
_atom_site_fract_y
_atom_site_fract_z
Zn1	Zn	1.232636	0.250590	0.455895
Zn2	Zn	1.232521	0.355864	0.321056
Zn3	Zn	1.097798	0.250614	0.321075
Zn4	Zn	1.097750	0.355827	0.455846
O5	O	1.165176	0.303224	0.388468
O6	O	1.345453	0.264560	0.438021
O7	O	1.214622	0.341927	0.208226
O8	O	1.115753	0.162522	0.338988
O9	O	1.345369	0.341904	0.338955
O10	O	1.214818	0.162504	0.438039
O11	O	1.115641	0.264601	0.208240
O12	O	0.984959	0.264566	0.338941
O13	O	1.115671	0.341842	0.568685
O14	O	0.984924	0.341866	0.437956
O15	O	1.214772	0.264525	0.568721
O16	O	1.214575	0.443948	0.338907
O17	O	1.115559	0.443922	0.437937
C18	C	0.955686	0.303215	0.388445
C19	C	0.866065	0.303226	0.388455
C20	C	1.165071	0.466775	0.388432
C21	C	1.165100	0.536744	0.388444
C22	C	0.537889	0.303230	0.388489
C23	C	0.629197	0.303227	0.388477
C24	C	0.701974	0.303229	0.388471
C25	C	0.793288	0.303225	0.388461
C26	C	1.216704	0.569603	0.336934
C27	C	1.216742	0.635346	0.336956
C28	C	1.165162	0.668226	0.388479
C29	C	1.113555	0.635359	0.439999
C30	C	1.113524	0.569617	0.439982
N31	N	1.094627	0.771493	0.394624
N32	N	1.094659	0.833944	0.394636
C33	C	1.165253	0.866301	0.388536
N34	N	1.235816	0.833847	0.382408
N35	N	1.235783	0.771389	0.382392
C36	C	1.165190	0.739511	0.388504
C37	C	1.216902	0.970446	0.337047
C38	C	1.216941	1.036189	0.337075
C39	C	1.113748	1.036201	0.440114
C40	C	1.113715	0.970459	0.440091
C41	C	1.165291	0.937585	0.388553
C42	C	1.375485	0.303233	0.388491
C43	C	1.465106	0.303237	0.388501
C44	C	1.165229	0.303177	0.598777
C45	C	1.165251	0.303157	0.688398
C46	C	1.165305	1.139033	0.388535
C47	C	1.165362	1.069065	0.388599
C48	C	1.165171	0.303225	0.178977
C49	C	1.165305	0.303068	0.089356
C50	C	1.165288	0.303086	1.016574
C51	C	1.165276	0.303108	0.925265
C52	C	1.165270	0.303122	0.852489
C53	C	1.165257	0.303143	0.761175
H54	H	1.258702	0.542839	0.294971
H55	H	1.258968	1.062943	0.295131
O56	O	1.266894	0.667177	0.286837
C57	C	1.312425	0.624065	0.241362
H58	H	1.279383	0.577225	0.238531
H59	H	1.321060	0.643091	0.177846
H60	H	1.373647	0.617015	0.270936
O61	O	1.063338	0.667226	0.490009
C62	C	0.982977	0.651240	0.472300
H63	H	0.981300	0.603526	0.441290
H64	H	0.946791	0.648983	0.530459
H65	H	0.955857	0.688283	0.430831
O66	O	1.063671	1.068230	0.490091
C67	C	1.074781	1.133303	0.479081
H68	H	1.101224	1.142301	0.416882
H69	H	1.014395	1.158329	0.484507
H70	H	1.117705	1.151896	0.526951
H71	H	1.258901	0.943679	0.295085
O72	O	1.063431	0.537763	0.490130
C73	C	1.081029	0.553752	0.570514
H74	H	1.112048	0.601461	0.572231
H75	H	1.022819	0.556020	0.606617
H76	H	1.122451	0.516704	0.597696
O77	O	1.063503	0.938633	0.490146
C78	C	1.017998	0.981748	0.535641
H79	H	1.015249	1.028633	0.502627
H80	H	0.954455	0.962795	0.544175
H81	H	1.047491	0.988681	0.596910
