data_functionalizedCrystal
_audit_creation_method	'MofGen! by Chris Wilmer'
_symmetry_space_group_name_H-M	'P1'
_symmetry_Int_Tables_number	1
_symmetry_cell_setting	triclinic
loop_
_symmetry_equiv_pos_as_xyz
  x,y,z
_cell_length_a	12.759395
_cell_length_b	16.959453
_cell_length_c	12.759387
_cell_angle_alpha	89.965592
_cell_angle_beta	89.980569
_cell_angle_gamma	90.019833
loop_
_atom_site_label
_atom_site_type_symbol
_atom_site_fract_x
_atom_site_fract_y
_atom_site_fract_z
Zn1	Zn	1.606230	-0.314643	-0.593949
Zn2	Zn	1.606104	-0.446843	-0.418258
Zn3	Zn	1.430528	-0.314682	-0.418289
Zn4	Zn	1.430504	-0.446783	-0.593900
O5	O	1.518342	-0.380738	-0.506099
O6	O	1.753234	-0.332189	-0.570650
O7	O	1.582771	-0.429353	-0.271241
O8	O	1.453898	-0.204066	-0.441623
O9	O	1.753142	-0.429315	-0.441571
O10	O	1.582985	-0.204037	-0.570680
O11	O	1.453776	-0.332255	-0.271263
O12	O	1.283504	-0.332197	-0.441577
O13	O	1.453857	-0.429213	-0.740928
O14	O	1.283486	-0.429251	-0.570598
O15	O	1.582962	-0.332130	-0.740963
O16	O	1.582748	-0.557446	-0.441524
O17	O	1.453736	-0.557402	-0.570568
C18	C	1.245374	-0.380722	-0.506086
C19	C	1.128598	-0.380735	-0.506105
C20	C	1.128674	-0.279760	-0.640733
C21	C	1.073852	-0.229282	-0.708055
C22	C	0.964130	-0.229296	-0.708068
C23	C	0.909229	-0.279792	-0.640749
C24	C	0.964051	-0.330269	-0.573427
C25	C	1.073775	-0.330252	-0.573424
C26	C	0.963974	-0.431239	-0.438796
C27	C	1.073696	-0.431230	-0.438787
C28	C	0.909073	-0.481735	-0.371478
C29	C	0.963895	-0.532218	-0.304159
C30	C	1.073623	-0.532202	-0.304150
C31	C	1.128518	-0.481708	-0.371465
C32	C	1.518254	-0.586104	-0.506060
C33	C	1.518313	-0.673961	-0.506079
C34	C	1.585644	-1.045363	-0.573425
C35	C	1.451333	-1.045510	-0.438928
C36	C	1.451294	-0.962964	-0.438904
C37	C	1.518430	-0.921614	-0.506143
C38	C	1.585605	-0.962809	-0.573406
C39	C	1.384114	-0.921762	-0.371650
C40	C	1.384071	-0.839211	-0.371624
C41	C	1.451213	-0.797860	-0.438858
C42	C	1.518391	-0.839060	-0.506123
C43	C	1.585526	-0.797710	-0.573362
C44	C	1.652711	-0.838909	-0.640622
C45	C	1.652746	-0.921458	-0.640640
C46	C	1.451177	-0.715311	-0.438840
C47	C	1.585487	-0.715156	-0.573342
C48	C	1.792375	-0.380754	-0.506112
C49	C	1.909152	-0.380761	-0.506118
C50	C	1.518421	-0.380661	-0.780132
C51	C	1.518455	-0.380628	-0.896909
C52	C	1.518458	-0.174570	-0.506160
C53	C	1.518508	-0.086713	-0.506187
C54	C	1.652901	-0.279542	-0.896966
C55	C	1.720139	-0.228987	-0.951855
C56	C	1.720164	-0.228958	-1.061577
C57	C	1.652943	-0.279488	-1.116412
C58	C	1.585705	-0.330043	-1.061523
C59	C	1.585689	-0.330068	-0.951798
C60	C	1.451255	-0.431123	-1.061466
C61	C	1.451233	-0.431157	-0.951744
C62	C	1.384034	-0.481653	-1.116301
C63	C	1.316800	-0.532213	-1.061412
C64	C	1.316778	-0.532240	-0.951684
C65	C	1.383996	-0.481712	-0.896855
C66	C	1.518323	-0.380758	-0.233131
C67	C	1.518493	-0.380568	-0.116355
H68	H	0.819731	-0.481740	-0.371490
H69	H	1.640346	-1.078911	-0.628184
H70	H	1.118253	-0.573305	-0.249324
H71	H	1.396670	-1.079182	-0.384190
H72	H	1.652897	-0.279568	-0.807625
F73	F	1.245450	-0.279750	-0.640736
F74	F	1.656949	-0.671155	-0.644903
H75	H	1.118565	-0.188168	-0.762862
H76	H	1.329453	-0.955436	-0.316911
F77	F	0.905783	-0.175568	-0.779713
F78	F	0.905459	-0.585948	-0.232516
F79	F	1.724150	-0.794892	-0.712188
F80	F	1.379678	-0.671468	-0.367265
F81	F	1.724238	-0.965310	-0.712219
F82	F	1.312567	-0.795371	-0.300043
F83	F	1.245261	-0.585979	-1.119776
H84	H	1.774867	-0.187846	-0.907196
H85	H	0.819888	-0.279792	-0.640757
H86	H	1.217859	-0.481687	-0.371458
F87	F	1.791712	-0.175143	-1.119995
F88	F	1.652965	-0.279448	-1.233188
F89	F	1.384061	-0.481620	-1.233077
F90	F	1.245207	-0.586044	-0.893275
H91	H	1.383989	-0.481732	-0.807514
