data_functionalizedCrystal
_audit_creation_method	'MofGen! by Chris Wilmer'
_symmetry_space_group_name_H-M	'P1'
_symmetry_Int_Tables_number	1
_symmetry_cell_setting	triclinic
loop_
_symmetry_equiv_pos_as_xyz
  x,y,z
_cell_length_a	14.560438
_cell_length_b	20.919309
_cell_length_c	14.560438
_cell_angle_alpha	90.000322
_cell_angle_beta	59.996693
_cell_angle_gamma	62.592611
loop_
_atom_site_label
_atom_site_type_symbol
_atom_site_fract_x
_atom_site_fract_y
_atom_site_fract_z
Zr1	Zr	1.071695	0.593621	-0.153794
O2	O	1.252303	0.495228	-0.294951
O3	O	0.883458	0.623783	-0.110513
O4	O	1.075069	0.623781	-0.302129
O5	O	1.060689	0.495233	0.047806
O6	O	1.086409	0.725186	-0.307801
O7	O	1.060692	0.495231	-0.103335
O8	O	0.743651	0.725190	0.034966
O9	O	1.403447	0.495229	-0.294961
O10	O	0.972170	0.712325	-0.096297
O11	O	0.963706	0.636649	0.020730
O12	O	1.189303	0.636647	-0.204873
O13	O	1.180839	0.560971	-0.087846
Zr14	Zr	1.089775	0.755354	0.078212
Zr15	Zr	1.089779	0.755350	-0.162840
Zr16	Zr	1.071691	0.593625	0.087258
Zr17	Zr	1.312752	0.593622	-0.153809
Zr18	Zr	0.848718	0.755353	0.078228
O19	O	1.278012	0.725192	0.034931
O20	O	1.278017	0.725187	-0.307813
O21	O	1.252298	0.495234	0.047794
O22	O	0.909167	0.853747	0.219370
O23	O	0.909172	0.853741	-0.123375
O24	O	0.883453	0.623789	0.232232
O25	O	1.100781	0.853742	-0.123387
O26	O	1.086401	0.725195	0.226548
O27	O	1.075061	0.623790	0.232220
O28	O	1.100778	0.853745	0.027753
O29	O	1.417822	0.623782	-0.302151
O30	O	0.743648	0.725193	0.226570
O31	O	0.758023	0.853746	0.219380
O32	O	0.758026	0.853743	0.027776
O33	O	1.403444	0.495232	-0.103357
O34	O	1.417819	0.623786	-0.110547
O35	O	0.972167	0.712329	0.129292
O36	O	0.980631	0.788004	0.012265
O37	O	1.197764	0.712326	-0.096312
O38	O	1.189300	0.636650	0.020716
C39	C	0.779209	0.674486	-0.037771
C40	C	0.676874	0.674486	-0.037765
C41	C	0.705843	0.618618	-0.117922
C42	C	0.609703	0.618621	-0.117951
C43	C	0.455628	0.730363	0.042345
C44	C	0.551767	0.730362	0.042368
C45	C	1.058114	0.472189	-0.026475
C46	C	1.050437	0.403531	-0.022635
C47	C	1.160168	0.331771	-0.077504
C48	C	1.152947	0.267262	-0.073900
C49	C	1.035993	0.274514	-0.015420
C50	C	0.926253	0.346280	0.039451
C51	C	0.933476	0.410788	0.035839
C52	C	1.008516	0.081719	-0.001687
C53	C	1.001302	0.017204	0.001923
C54	C	1.227997	-0.061810	-0.111430
C55	C	1.235209	0.002702	-0.115030
C56	C	1.125469	0.074463	-0.060165
C57	C	1.028609	0.208576	-0.011732
C58	C	1.132854	0.140399	-0.063860
C59	C	1.382261	0.674489	-0.037810
C60	C	1.484596	0.674490	-0.037817
C61	C	1.080740	0.674482	-0.339310
C62	C	1.080741	0.674481	-0.441643
C63	C	1.103356	0.876786	-0.049106
C64	C	1.111033	0.945445	-0.052946
C65	C	1.194080	0.634978	-0.546395
C66	C	1.194075	0.634987	-0.642544
C67	C	0.967381	0.714002	-0.529176
C68	C	0.967388	0.713997	-0.433029
C69	C	1.080731	0.674493	0.263729
C70	C	1.080729	0.674495	0.366061
C71	C	0.801830	0.876785	-0.049086
C72	C	0.707173	0.945443	-0.052920
C73	C	0.779205	0.674491	0.263748
C74	C	0.676868	0.674493	0.366087
C75	C	0.801826	0.876790	0.252433
C76	C	0.707167	0.945450	0.350932
C77	C	1.359644	0.472185	-0.328014
C78	C	1.454303	0.403526	-0.426513
C79	C	1.359640	0.472190	-0.026495
C80	C	1.454297	0.403533	-0.022661
C81	C	1.382265	0.674484	-0.339329
C82	C	1.484602	0.674483	-0.441669
C83	C	0.658304	0.938181	-0.111398
C84	C	0.569376	1.002686	-0.115023
C85	C	0.529311	1.074452	-0.060161
C86	C	0.578189	1.081712	-0.001681
C87	C	0.667122	1.017208	0.001936
C88	C	0.667133	1.017201	0.336101
C89	C	0.578204	1.081721	0.428642
C90	C	0.529305	1.074486	0.536013
C91	C	0.569348	1.002727	0.550842
C92	C	0.658281	0.938209	0.458302
C93	C	1.494349	0.331774	-0.411682
C94	C	1.583307	0.267255	-0.504223
C95	C	1.632212	0.274489	-0.611594
C96	C	1.592163	0.346248	-0.626424
C97	C	1.503213	0.410766	-0.533884
C98	C	1.503176	0.410794	0.035807
C99	C	1.592131	0.346289	0.039405
C100	C	1.632199	0.274523	-0.015460
C101	C	1.583316	0.267263	-0.073936
C102	C	1.494370	0.331767	-0.077539
C103	C	0.633205	0.713996	0.470835
C104	C	0.537057	0.713989	0.566990
C105	C	0.528240	0.634973	0.453637
C106	C	0.624393	0.634976	0.357484
H107	H	0.633301	0.573129	-0.183225
H108	H	1.615954	0.208823	-0.118605
H109	H	0.353757	0.775855	0.107587
O110	O	0.701429	0.860824	0.474321
H111	H	0.803997	0.829527	0.435094
O112	O	1.728165	0.204899	-0.711403
H113	H	1.747786	0.153793	-0.683040
H114	H	0.528170	0.775860	0.107644
H115	H	1.470608	0.469188	-0.545973
H116	H	0.659946	0.602804	0.272188
O117	O	0.471611	0.592369	0.444381
H118	H	0.545527	0.531651	0.401095
O119	O	1.441619	0.323962	-0.295880
H120	H	1.484434	0.263224	-0.301132
H121	H	1.454574	0.325845	-0.125148
H122	H	0.675932	0.746170	0.477846
O123	O	1.286312	0.323950	-0.140585
H124	H	1.361401	0.263211	-0.178143
O125	O	0.489944	0.756606	0.679970
H126	H	0.542581	0.784089	0.669792
H127	H	0.456894	1.126970	-0.063114
H128	H	1.631992	0.352130	-0.713856
O129	O	1.361373	-0.005148	-0.178080
H130	H	1.370064	0.022340	-0.120146
O131	O	1.626470	0.189862	-0.488217
H132	H	1.577492	0.195677	-0.398007
H133	H	0.807706	0.573116	-0.183165
H134	H	1.242302	0.208835	-0.118580
H135	H	1.317340	-0.120243	-0.156101
O136	O	0.875154	0.025023	0.064992
H137	H	0.800057	0.085760	0.102528
H138	H	0.875093	0.746174	-0.522176
O139	O	0.890160	0.159113	0.057488
H140	H	0.807626	0.153314	0.098766
H141	H	0.456890	1.127027	0.611355
O142	O	0.800105	0.354108	0.102526
H143	H	0.813515	0.297197	0.095829
H144	H	1.704626	0.222005	-0.012517
H145	H	0.844120	0.469218	0.080530
H146	H	0.545555	1.140153	0.042984
H147	H	1.228077	0.134498	-0.111480
H148	H	0.933385	0.214473	0.035888
O149	O	1.316340	0.592363	-0.555689
H150	H	1.317100	0.548693	-0.512274
H151	H	1.286368	0.602821	-0.727835
O152	O	0.535070	1.159103	0.412601
H153	H	0.557068	1.190371	0.451802
H154	H	0.875088	0.746168	-0.347729
O155	O	0.701522	0.860781	-0.170592
H156	H	0.620078	0.854216	-0.136217
O157	O	0.516656	0.994848	-0.178090
H158	H	0.559445	0.934107	-0.215608
O159	O	1.459988	0.488195	0.094968
H160	H	1.508948	0.482395	0.136208
O161	O	0.516590	0.994935	0.666656
H162	H	0.559367	0.934203	0.661437
O163	O	1.644829	0.354127	0.102493
H164	H	1.601998	0.414868	0.140055
H165	H	0.706900	1.023131	0.049562
H166	H	0.706934	1.023106	0.248682
