data_functionalizedCrystal
_audit_creation_method	'MofGen! by Chris Wilmer'
_symmetry_space_group_name_H-M	'P1'
_symmetry_Int_Tables_number	1
_symmetry_cell_setting	triclinic
loop_
_symmetry_equiv_pos_as_xyz
  x,y,z
_cell_length_a	15.944499
_cell_length_b	10.489741
_cell_length_c	8.965430
_cell_angle_alpha	89.999293
_cell_angle_beta	89.993602
_cell_angle_gamma	95.991608
loop_
_atom_site_label
_atom_site_type_symbol
_atom_site_fract_x
_atom_site_fract_y
_atom_site_fract_z
O1	O	1.115538	-0.164179	-0.124128
O2	O	0.871105	-0.184529	-0.124111
O3	O	0.998883	0.011322	-0.124111
O4	O	0.987760	-0.360031	-0.124128
O5	O	0.998873	0.011309	0.123968
O6	O	0.871094	-0.184542	0.123968
O7	O	1.115527	-0.164192	0.123951
Cu8	Cu	0.993310	-0.174368	0.146611
Cu9	Cu	0.993323	-0.174353	-0.146771
O10	O	0.987749	-0.360044	0.123951
C11	C	0.839800	-0.183703	-0.000070
C12	C	0.746536	-0.181205	-0.000063
C13	C	0.455685	-0.294990	-0.000091
C14	C	0.516363	-0.235835	-0.122406
C15	C	0.410845	-0.172130	-0.000097
C16	C	0.516338	-0.235815	0.122180
C17	C	0.575781	-0.176595	-0.000078
C18	C	0.470296	-0.112941	-0.122514
C19	C	0.470265	-0.112938	0.122182
C20	C	0.530926	-0.053694	-0.000164
C21	C	0.315830	-0.169561	-0.000110
C22	C	0.670795	-0.179155	-0.000076
C23	C	0.998038	0.058836	-0.000073
C24	C	0.995524	0.200430	-0.000075
C25	C	1.146832	-0.165019	-0.000094
C26	C	1.240096	-0.167516	-0.000110
N27	N	0.993307	-0.174378	0.352960
C28	C	0.988594	-0.407557	-0.000091
C29	C	0.991108	-0.549151	-0.000098
C30	C	0.914222	0.267420	-0.000080
C31	C	0.952623	0.360079	0.122233
C32	C	0.952653	0.360067	-0.122354
C33	C	1.033959	0.291224	0.122339
C34	C	1.033977	0.291202	-0.122357
C35	C	1.072437	0.383835	-0.000014
N36	N	0.993332	-0.174333	-0.353120
C37	C	0.934195	-0.264924	0.450266
C38	C	1.010250	-0.289659	0.549673
C39	C	0.917284	-0.149654	0.549680
C40	C	1.069400	-0.199171	0.450178
C41	C	0.976384	-0.059116	0.450177
C42	C	1.052494	-0.083802	0.549539
H43	H	0.536778	-0.287798	-0.225813
H44	H	1.024580	-0.387113	0.593376
H45	H	0.563489	0.048359	-0.000224
H46	H	1.133716	-0.220180	0.406655
H47	H	0.450009	-0.061019	-0.226039
H48	H	0.536722	-0.287805	0.225584
H49	H	1.102548	-0.007207	0.592854
H50	H	0.847377	0.216823	0.000047
H51	H	0.449831	-0.061022	0.225599
H52	H	0.962030	0.038307	0.406439
H53	H	0.918218	0.390599	0.225644
H54	H	1.068325	0.260873	0.225861
H55	H	1.139343	0.434205	0.000049
H56	H	0.852983	-0.128762	0.593391
H57	H	0.918247	0.390549	-0.225769
H58	H	0.422967	-0.396951	-0.000214
H59	H	1.068353	0.260649	-0.225774
H60	H	0.884253	-0.341564	0.406677
