data_functionalizedCrystal
_audit_creation_method	'MofGen! by Chris Wilmer'
_symmetry_space_group_name_H-M	'P1'
_symmetry_Int_Tables_number	1
_symmetry_cell_setting	triclinic
loop_
_symmetry_equiv_pos_as_xyz
  x,y,z
_cell_length_a	13.185407
_cell_length_b	16.098538
_cell_length_c	13.339070
_cell_angle_alpha	86.532277
_cell_angle_beta	96.198614
_cell_angle_gamma	88.194106
loop_
_atom_site_label
_atom_site_type_symbol
_atom_site_fract_x
_atom_site_fract_y
_atom_site_fract_z
O1	O	-1.376542	0.069256	-0.248891
O2	O	-1.087710	0.069257	-0.154154
O3	O	-1.198977	0.069254	-0.339761
O4	O	-1.265275	0.069258	-0.063284
O5	O	-1.192468	-0.069259	-0.328952
O6	O	-1.081200	-0.069256	-0.143345
O7	O	-1.370033	-0.069257	-0.238082
Zn8	Zn	-1.224583	-0.091249	-0.188997
Zn9	Zn	-1.233160	0.091248	-0.203239
O10	O	-1.258765	-0.069254	-0.052475
C11	C	-1.046733	0.000000	-0.139145
C12	C	-0.934328	0.000001	-0.110538
C13	C	-0.562465	-0.000012	-0.383551
C14	C	-0.668074	-0.000017	-0.410431
C15	C	-0.734643	-0.000013	-0.335461
C16	C	-0.695592	-0.000003	-0.233605
C17	C	-0.589973	-0.000003	-0.206721
C18	C	-0.762150	-0.000004	-0.158631
C19	C	-0.723100	0.000006	-0.056775
C20	C	-0.617490	0.000005	-0.029897
C21	C	-0.550922	0.000001	-0.104867
C22	C	-0.867770	-0.000004	-0.185514
C23	C	-0.895277	0.000005	-0.008684
C24	C	-0.789668	0.000010	0.018196
C25	C	-0.411010	-0.000002	-0.253091
C26	C	-0.523414	-0.000008	-0.281697
N27	N	-1.218737	-0.215798	-0.179280
C28	C	-1.265994	-0.259384	-0.258044
C29	C	-1.261916	-0.346573	-0.251240
C30	C	-1.210587	-0.390174	-0.165668
C31	C	-1.163324	-0.346581	-0.086900
C32	C	-1.167396	-0.259394	-0.093707
C33	C	-1.195821	-0.653423	-0.141005
C34	C	-1.191755	-0.740617	-0.134202
C35	C	-1.290346	-0.740602	-0.298544
C36	C	-1.294418	-0.653413	-0.305342
C37	C	-1.247151	-0.609828	-0.226575
C38	C	-1.206421	-0.479295	-0.158710
C39	C	-1.251312	-0.520709	-0.233537
C40	C	-1.184524	-0.000001	-0.368997
C41	C	-1.151143	0.000002	-0.472211
N42	N	-1.239012	0.215797	-0.212966
C43	C	-1.410698	0.000001	-0.907668
C44	C	-1.442064	-0.000007	-0.810694
C45	C	-1.369336	-0.000005	-0.726069
C46	C	-1.265237	0.000005	-0.738426
C47	C	-1.233867	0.000007	-0.835409
C48	C	-1.192506	0.000001	-0.653810
C49	C	-1.088407	0.000011	-0.666168
C50	C	-1.057043	0.000013	-0.763142
C51	C	-1.129770	0.000011	-0.847767
C52	C	-1.223876	0.000000	-0.556828
C53	C	-1.047046	0.000006	-0.484569
C54	C	-1.015679	0.000014	-0.581542
C55	C	-1.273219	0.000003	-0.023239
C56	C	-1.306600	0.000005	0.079974
H57	H	-0.464925	0.000010	-0.082987
H58	H	-1.300395	-0.382060	-0.315377
H59	H	-1.394881	-0.000011	-0.647111
H60	H	-1.128913	-0.223907	-0.029570
H61	H	-0.930920	0.000022	-0.591618
H62	H	-0.987824	0.000004	-0.415664
H63	H	-1.336214	-0.617915	-0.375021
H64	H	-1.149955	-0.776113	-0.064514
H65	H	-0.899554	-0.000011	-0.268446
H66	H	-0.585699	0.000005	0.053042
H67	H	-1.526821	-0.000017	-0.800641
H68	H	-1.164630	-0.514802	-0.089035
H69	H	-0.757858	0.000018	0.101128
H70	H	-0.949478	0.000006	0.052363
H71	H	-1.307796	-0.223890	-0.327723
H72	H	-1.293099	-0.485206	-0.303213
H73	H	-0.820634	-0.000017	-0.357353
H74	H	-1.328827	-0.776097	-0.362672
H75	H	-1.469900	-0.000008	-0.976575
H76	H	-1.157336	-0.617943	-0.076869
H77	H	-0.508256	-0.000039	-0.444579
H78	H	-1.121525	-0.382086	-0.017227
H79	H	-1.104237	0.000020	-0.926734
H80	H	-1.308633	-0.000008	-0.546777
H81	H	-0.699861	-0.000029	-0.493362
H82	H	-0.972278	0.000015	-0.773197
