data_functionalizedCrystal
_audit_creation_method	'MofGen! by Chris Wilmer'
_symmetry_space_group_name_H-M	'P1'
_symmetry_Int_Tables_number	1
_symmetry_cell_setting	triclinic
loop_
_symmetry_equiv_pos_as_xyz
  x,y,z
_cell_length_a	14.519709
_cell_length_b	11.026607
_cell_length_c	10.065875
_cell_angle_alpha	100.731764
_cell_angle_beta	81.242070
_cell_angle_gamma	96.133081
loop_
_atom_site_label
_atom_site_type_symbol
_atom_site_fract_x
_atom_site_fract_y
_atom_site_fract_z
O1	O	1.260605	0.141346	-0.113307
O2	O	1.760605	0.641346	0.386693
O3	O	0.995219	0.160080	-0.113348
O4	O	1.495219	0.660080	0.386652
O5	O	1.105917	-0.025988	-0.113326
O6	O	1.605917	0.474012	0.386674
O7	O	1.149907	0.327413	-0.113329
O8	O	1.649907	0.827413	0.386671
O9	O	1.084832	0.009635	0.113659
O10	O	1.584832	0.509635	0.613659
O11	O	0.974135	0.195703	0.113637
O12	O	1.474135	0.695703	0.613637
O13	O	1.239520	0.176969	0.113678
O14	O	1.739520	0.676969	0.613678
Zn15	Zn	1.103480	0.191992	0.149696
Zn16	Zn	1.603480	0.691992	0.649696
Zn17	Zn	1.131260	0.145057	-0.149366
Zn18	Zn	1.631260	0.645057	0.350634
O19	O	1.128823	0.363037	0.113656
O20	O	1.628823	0.863037	0.613656
C21	C	1.087259	-0.053405	0.000164
C22	C	1.587259	0.446595	0.500164
C23	C	1.063067	-0.188173	0.000155
C24	C	1.563067	0.311827	0.500155
C25	C	0.950174	0.177017	0.000139
C26	C	1.450174	0.677017	0.500139
C27	C	0.847363	0.174397	0.000123
C28	C	1.347363	0.674397	0.500123
C29	C	1.129866	-0.261832	0.000163
C30	C	1.629866	0.238168	0.500163
C31	C	1.104865	-0.401122	0.000155
C32	C	1.604865	0.098878	0.500155
C33	C	0.470874	0.164772	0.000186
C34	C	0.970874	0.664772	0.500186
C35	C	0.575624	0.167445	0.000168
C36	C	1.075624	0.667445	0.500168
C37	C	0.659115	0.169584	0.000153
C38	C	1.159115	0.669584	0.500153
C39	C	0.763872	0.172258	0.000138
C40	C	1.263872	0.672258	0.500138
C41	C	1.284566	0.160032	0.000188
C42	C	1.784566	0.660032	0.500188
C43	C	1.387378	0.162650	0.000195
C44	C	1.887378	0.662650	0.500195
C45	C	1.147480	0.390453	0.000163
C46	C	1.647480	0.890453	0.500163
C47	C	1.171673	0.525220	0.000163
C48	C	1.671673	1.025220	0.500163
N49	N	1.084527	0.224023	0.353798
N50	N	1.584527	0.724023	0.853798
N51	N	1.150218	0.113016	-0.353468
N52	N	1.650218	0.613016	0.146532
C53	C	1.124658	0.156194	0.421585
C54	C	1.624658	0.656194	0.921585
C55	C	1.110081	0.180855	0.578749
C56	C	1.610081	0.680855	1.078749
H57	H	1.205564	-0.221773	0.000184
H58	H	1.705564	0.278227	0.500184
F59	F	1.209425	0.013444	0.570321
F60	F	1.709425	0.513444	1.070321
F61	F	0.964123	-0.240526	0.000127
F62	F	1.464123	0.259474	0.500127
F63	F	1.005915	-0.453470	0.000127
F64	F	1.505915	0.046530	0.500127
F65	F	1.025505	0.323787	0.430017
F66	F	1.525505	0.823787	0.930017
F67	F	1.051056	0.280624	0.654963
F68	F	1.551056	0.780624	1.154963
F69	F	1.270625	-0.422438	0.000172
F70	F	1.770625	0.077562	0.500172
H71	H	1.169805	0.079860	0.363269
H72	H	1.669805	0.579860	0.863269
