data_functionalizedCrystal
_audit_creation_method	'MofGen! by Chris Wilmer'
_symmetry_space_group_name_H-M	'P1'
_symmetry_Int_Tables_number	1
_symmetry_cell_setting	triclinic
loop_
_symmetry_equiv_pos_as_xyz
  x,y,z
_cell_length_a	15.944545
_cell_length_b	15.021413
_cell_length_c	10.723023
_cell_angle_alpha	90.004758
_cell_angle_beta	96.018140
_cell_angle_gamma	90.004532
loop_
_atom_site_label
_atom_site_type_symbol
_atom_site_fract_x
_atom_site_fract_y
_atom_site_fract_z
O1	O	1.115453	0.073973	-0.160881
O2	O	0.871016	0.073987	-0.180730
O3	O	0.998873	0.073976	0.010842
O4	O	0.987596	0.073985	-0.352453
O5	O	0.998853	-0.074089	0.010815
O6	O	0.870996	-0.074077	-0.180758
O7	O	1.115432	-0.074091	-0.160908
Zn8	Zn	0.993211	-0.097592	-0.170837
Zn9	Zn	0.993238	0.097489	-0.170801
O10	O	0.987575	-0.074079	-0.352480
C11	C	0.839707	-0.000043	-0.179921
C12	C	0.746447	-0.000038	-0.177455
C13	C	0.475092	-0.000050	-0.051340
C14	C	0.526012	-0.073054	-0.112156
C15	C	0.410752	-0.000053	-0.168660
C16	C	0.526013	0.072925	-0.112160
C17	C	0.575691	-0.000044	-0.172975
C18	C	0.460444	-0.073117	-0.229444
C19	C	0.460441	0.072928	-0.229432
C20	C	0.511328	-0.000094	-0.290334
C21	C	0.315736	-0.000059	-0.166170
C22	C	0.670704	-0.000044	-0.175473
N23	N	0.993199	-0.230730	-0.170861
C24	C	0.934068	-0.470408	-0.259402
C25	C	1.010107	-0.529746	-0.283625
C26	C	0.993220	-0.412337	-0.170830
C27	C	0.917201	-0.529740	-0.146635
C28	C	0.993234	-0.587761	-0.170803
C29	C	1.069298	-0.470369	-0.195109
C30	C	0.976342	-0.470358	-0.058070
C31	C	1.052435	-0.529669	-0.082244
C32	C	0.993211	-0.311280	-0.170849
C33	C	0.993252	-0.688816	-0.170783
C34	C	1.146741	-0.000059	-0.161717
C35	C	1.240002	-0.000058	-0.164183
C36	C	0.998042	-0.000056	0.057318
C37	C	0.995587	-0.000053	0.195841
N38	N	0.993256	0.230626	-0.170767
C39	C	0.994482	-0.076754	0.257591
C40	C	0.991945	-0.076753	0.400762
C41	C	0.988406	-0.000048	0.601044
C42	C	0.990861	-0.000051	0.462521
H43	H	0.431786	0.134652	-0.278924
H44	H	0.995419	-0.142420	0.204465
F45	F	0.957636	-0.436233	0.066517
F46	F	0.833167	-0.563830	-0.119900
F47	F	0.990697	-0.162587	0.470166
H48	H	0.994659	0.065613	0.248969
F49	F	0.532332	-0.000141	-0.422499
H50	H	1.102519	-0.555526	-0.007325
H51	H	0.458861	-0.000124	0.049697
H52	H	0.554655	0.134641	-0.062582
F53	F	0.992097	0.085787	0.393122
H54	H	0.554651	-0.134776	-0.062620
H55	H	0.884097	-0.444388	-0.334366
F56	F	1.028785	-0.563843	-0.408249
F57	F	0.423150	-0.153876	-0.294173
H58	H	1.133606	-0.444399	-0.215675
