data_functionalizedCrystal
_audit_creation_method	'MofGen! by Chris Wilmer'
_symmetry_space_group_name_H-M	'P1'
_symmetry_Int_Tables_number	1
_symmetry_cell_setting	triclinic
loop_
_symmetry_equiv_pos_as_xyz
  x,y,z
_cell_length_a	19.077236
_cell_length_b	12.759394
_cell_length_c	19.077174
_cell_angle_alpha	92.276241
_cell_angle_beta	85.294282
_cell_angle_gamma	92.306804
loop_
_atom_site_label
_atom_site_type_symbol
_atom_site_fract_x
_atom_site_fract_y
_atom_site_fract_z
Zn1	Zn	1.093786	-0.379333	-0.441992
Zn2	Zn	1.593786	0.120667	0.058008
Zn3	Zn	1.088993	-0.548246	-0.324112
Zn4	Zn	1.588993	-0.048246	0.175888
Zn5	Zn	0.971168	-0.379349	-0.319375
Zn6	Zn	1.471168	0.120651	0.180625
Zn7	Zn	0.975885	-0.561739	-0.437217
Zn8	Zn	1.475885	-0.061739	0.062783
O9	O	1.032458	-0.467167	-0.380674
O10	O	1.532458	0.032833	0.119326
O11	O	1.191803	-0.396085	-0.430336
O12	O	1.691803	0.103915	0.069664
O13	O	1.069383	-0.520201	-0.224833
O14	O	1.569383	-0.020201	0.275167
O15	O	0.987465	-0.232324	-0.335656
O16	O	1.487465	0.267676	0.164344
O17	O	1.188281	-0.520185	-0.343730
O18	O	1.688281	-0.020185	0.156270
O19	O	1.077553	-0.232313	-0.425742
O20	O	1.577553	0.267687	0.074258
O21	O	0.982817	-0.396113	-0.221353
O22	O	1.482817	0.103887	0.278647
O23	O	0.873141	-0.409197	-0.331026
O24	O	1.373141	0.090803	0.168974
O25	O	0.995505	-0.543183	-0.536501
O26	O	1.495505	-0.043183	-0.036501
O27	O	0.876607	-0.543199	-0.417604
O28	O	1.376607	-0.043199	0.082396
O29	O	1.082127	-0.409170	-0.540009
O30	O	1.582127	0.090830	-0.040009
O31	O	1.073957	-0.697058	-0.339100
O32	O	1.573957	-0.197058	0.160900
O33	O	0.990857	-0.706972	-0.422198
O34	O	1.490857	-0.206972	0.077802
C35	C	0.849295	-0.477664	-0.373283
C36	C	1.349295	0.022336	0.126717
C37	C	0.770937	-0.482182	-0.370138
C38	C	1.270937	0.017818	0.129862
C39	C	0.735962	-0.419802	-0.413821
C40	C	1.235962	0.080198	0.086179
C41	C	0.662337	-0.424041	-0.410860
C42	C	1.162337	0.075959	0.089140
C43	C	0.623688	-0.490666	-0.364219
C44	C	1.123688	0.009334	0.135781
C45	C	0.658668	-0.553048	-0.320532
C46	C	1.158668	-0.053048	0.179468
C47	C	0.732292	-0.548803	-0.323490
C48	C	1.232292	-0.048803	0.176510
C49	C	0.403299	-0.510274	-0.350527
C50	C	0.903299	-0.010274	0.149473
C51	C	0.329670	-0.514517	-0.347573
C52	C	0.829670	-0.014517	0.152427
C53	C	0.333343	-0.385509	-0.437900
C54	C	0.833343	0.114491	0.062100
C55	C	0.406969	-0.381274	-0.440857
C56	C	0.906969	0.118726	0.059143
C57	C	0.441942	-0.443652	-0.397167
C58	C	0.941942	0.056348	0.102833
N59	N	0.548431	-0.495003	-0.361193
N60	N	1.048431	0.004997	0.138807
N61	N	0.517198	-0.439308	-0.400191
N62	N	1.017198	0.060692	0.099809
C63	C	1.032418	-0.740136	-0.380661
C64	C	1.532418	-0.240136	0.119339
C65	C	1.032467	-0.856911	-0.380681
C66	C	1.532467	-0.356911	0.119319
C67	C	1.126210	-0.856748	-0.474553
C68	C	1.626210	-0.356748	0.025447
C69	C	1.173104	-0.911526	-0.521495
C70	C	1.673104	-0.411526	-0.021495
C71	C	1.173147	-1.021247	-0.521512
C72	C	1.673147	-0.521247	-0.021512
C73	C	1.126289	-1.076191	-0.474583
C74	C	1.626289	-0.576191	0.025417
C75	C	1.079395	-1.021412	-0.427641
C76	C	1.579395	-0.521412	0.072359
C77	C	1.079359	-0.911690	-0.427628
C78	C	1.579359	-0.411690	0.072372
C79	C	0.985649	-1.021575	-0.333774
C80	C	1.485649	-0.521575	0.166226
C81	C	0.985609	-0.911855	-0.333753
C82	C	1.485609	-0.411855	0.166247
C83	C	0.938791	-1.076520	-0.286845
C84	C	1.438791	-0.576520	0.213155
C85	C	0.891899	-1.021741	-0.239899
C86	C	1.391899	-0.521741	0.260101
C87	C	0.891859	-0.912014	-0.239883
C88	C	1.391859	-0.412014	0.260117
C89	C	0.938715	-0.857077	-0.286811
C90	C	1.438715	-0.357077	0.213189
C91	C	1.216337	-0.456629	-0.388094
C92	C	1.716337	0.043371	0.111906
C93	C	1.294695	-0.452138	-0.391256
C94	C	1.794695	0.047862	0.108744
C95	C	1.039877	-0.477680	-0.564549
C96	C	1.539877	0.022320	-0.064549
C97	C	1.043039	-0.482160	-0.642906
C98	C	1.543039	0.017840	-0.142906
C99	C	1.032518	-0.193131	-0.380703
C100	C	1.532518	0.306869	0.119297
C101	C	1.032543	-0.076354	-0.380716
C102	C	1.532543	0.423646	0.119284
C103	C	0.999456	-0.419660	-0.677905
C104	C	1.499456	0.080340	-0.177905
C105	C	1.002424	-0.423878	-0.751530
C106	C	1.502424	0.076122	-0.251530
C107	C	1.048978	-0.490592	-0.790153
C108	C	1.548978	0.009408	-0.290153
C109	C	1.092563	-0.553099	-0.755149
C110	C	1.592563	-0.053099	-0.255149
C111	C	1.089591	-0.548885	-0.681525
C112	C	1.589591	-0.048885	-0.181525
C113	C	1.062696	-0.510126	-1.010537
C114	C	1.562696	-0.010126	-0.510537
C115	C	1.065666	-0.514333	-1.084165
C116	C	1.565666	-0.014333	-0.584165
C117	C	0.975526	-0.385113	-1.080541
C118	C	1.475526	0.114887	-0.580541
C119	C	0.972561	-0.380900	-1.006917
C120	C	1.472561	0.119100	-0.506917
C121	C	1.016143	-0.443412	-0.971919
C122	C	1.516143	0.056588	-0.471919
N123	N	1.052015	-0.494903	-0.865409
N124	N	1.552015	0.005097	-0.365409
N125	N	1.013102	-0.439105	-0.896664
N126	N	1.513102	0.060895	-0.396664
C127	C	1.025109	-0.456616	-0.197516
C128	C	1.525109	0.043384	0.302484
C129	C	1.022084	-0.451833	-0.119165
C130	C	1.522084	0.048167	0.380835
H131	H	0.767425	-0.365552	-0.451802
H132	H	1.267425	0.134448	0.048198
F133	F	1.142106	-0.624107	-0.796256
F134	F	1.642106	-0.124107	-0.296256
H135	H	1.125086	-0.599771	-0.653030
H136	H	1.625086	-0.099771	-0.153030
F137	F	0.842030	-1.080222	-0.189965
F138	F	1.342030	-0.580222	0.310035
F139	F	0.625117	-0.357651	-0.457354
F140	F	1.125117	0.142349	0.042646
H141	H	1.211254	-0.866781	-0.559705
H142	H	1.711254	-0.366781	-0.059705
F143	F	1.223054	-1.079548	-0.571474
F144	F	1.723054	-0.579548	-0.071474
F145	F	0.956011	-0.357397	-0.788775
F146	F	1.456011	0.142603	-0.288775
F147	F	0.949909	-0.348648	-0.636806
F148	F	1.449909	0.151352	-0.136806
F149	F	0.938910	-1.193285	-0.286792
F150	F	1.438910	-0.693285	0.213208
F151	F	0.448096	-0.310368	-0.490502
F152	F	0.948096	0.189632	0.009498
H153	H	1.126322	-1.165531	-0.474607
H154	H	1.626322	-0.665531	0.025393
F155	F	0.841944	-0.853723	-0.189923
F156	F	1.341944	-0.353723	0.310077
H157	H	0.938690	-0.767736	-0.286800
H158	H	1.438690	-0.267736	0.213200
F159	F	1.109084	-0.576651	-0.973299
F160	F	1.609084	-0.076651	-0.473299
H161	H	0.934649	-0.326578	-0.975475
H162	H	1.434649	0.173422	-0.475475
F163	F	0.288539	-0.585452	-0.297943
F164	F	0.788539	-0.085452	0.202057
F165	F	0.929145	-0.318591	-1.117795
F166	F	1.429145	0.181409	-0.617795
H167	H	1.103580	-0.568660	-1.115611
H168	H	1.603580	-0.068660	-0.615611
H169	H	0.304860	-0.334723	-0.473469
H170	H	0.804860	0.165277	0.026531
H171	H	0.431766	-0.561068	-0.314952
H172	H	0.931766	-0.061068	0.185048
H173	H	1.126187	-0.767407	-0.474538
H174	H	1.626187	-0.267407	0.025462
H175	H	0.760768	-0.599598	-0.287919
H176	H	1.260768	-0.099598	0.212081
F177	F	0.617534	-0.623949	-0.270890
F178	F	1.117534	-0.123949	0.229110
