data_functionalizedCrystal
_audit_creation_method	'MofGen! by Chris Wilmer'
_symmetry_space_group_name_H-M	'P1'
_symmetry_Int_Tables_number	1
_symmetry_cell_setting	triclinic
loop_
_symmetry_equiv_pos_as_xyz
  x,y,z
_cell_length_a	31.640172
_cell_length_b	14.560438
_cell_length_c	14.560438
_cell_angle_alpha	89.999895
_cell_angle_beta	60.006606
_cell_angle_gamma	120.002528
loop_
_atom_site_label
_atom_site_type_symbol
_atom_site_fract_x
_atom_site_fract_y
_atom_site_fract_z
Zr1	Zr	0.462583	0.120502	0.884902
O2	O	0.550752	0.267151	0.738281
O3	O	0.374416	0.075548	0.929832
O4	O	0.462584	0.267150	0.929858
O5	O	0.462582	-0.075592	0.738255
O6	O	0.462583	0.267148	1.080998
O7	O	0.462583	0.075548	0.738254
O8	O	0.304866	-0.075593	1.080951
O9	O	0.620299	0.267149	0.738301
O10	O	0.410679	0.056372	1.061810
O11	O	0.410679	-0.056421	0.949016
O12	O	0.514486	0.169166	0.949046
O13	O	0.514485	0.056373	0.836252
Zr14	Zr	0.462580	-0.120554	1.125954
Zr15	Zr	0.462582	0.120499	1.125954
Zr16	Zr	0.462581	-0.120550	0.884903
Zr17	Zr	0.573503	0.120499	0.884936
Zr18	Zr	0.351660	-0.120551	1.125921
O19	O	0.550747	-0.075599	1.081025
O20	O	0.550750	0.267146	1.081024
O21	O	0.550749	-0.075595	0.738281
O22	O	0.374411	-0.267202	1.272576
O23	O	0.374414	0.075543	1.272576
O24	O	0.374413	-0.267197	0.929832
O25	O	0.462581	0.075541	1.272602
O26	O	0.462579	-0.267202	1.080999
O27	O	0.462580	-0.267199	0.929858
O28	O	0.462580	-0.075600	1.272602
O29	O	0.620298	0.267146	0.929905
O30	O	0.304865	-0.267198	1.080952
O31	O	0.304864	-0.267201	1.272555
O32	O	0.304865	-0.075596	1.272555
O33	O	0.620298	0.075545	0.738301
O34	O	0.620297	0.075542	0.929905
O35	O	0.410677	-0.169217	1.061810
O36	O	0.410678	-0.056424	1.174604
O37	O	0.514484	0.056369	1.061841
O38	O	0.514484	-0.056424	0.949047
C39	C	0.323837	-0.000022	1.005387
C40	C	0.276749	-0.000021	1.005373
C41	C	0.462584	0.301494	1.005428
C42	C	0.462585	0.403827	1.005428
C43	C	0.462579	-0.301545	1.005429
C44	C	0.462578	-0.403878	1.005429
C45	C	-0.015293	0.058841	1.064328
C46	C	-0.192289	0.058840	1.064351
O47	O	-0.215193	0.108872	1.114466
N48	N	-0.214418	-0.000035	1.005473
C49	C	-0.192298	-0.058919	0.946590
O50	O	-0.215186	-0.109005	0.896520
C51	C	-0.015307	-0.058924	0.946574
C52	C	0.006825	-0.000037	1.005447
C53	C	0.006838	0.117723	1.123198
C54	C	0.051086	0.117727	1.123186
C55	C	0.073204	0.058850	1.064305
C56	C	0.051073	-0.000032	1.005436
C57	C	0.006809	-0.117815	0.887699
C58	C	0.051059	-0.117813	0.887702
C59	C	0.073190	-0.058926	0.946575
C60	C	0.117440	-0.058905	0.946544
N61	N	0.139569	-0.000030	1.005422
C62	C	0.117451	0.058847	1.064303
C63	C	-0.285221	-0.058910	0.946601
C64	C	-0.329468	-0.058908	0.946603
C65	C	-0.329456	0.058850	1.064366
C66	C	-0.285205	0.058853	1.064357
C67	C	-0.263092	-0.000036	1.005479
C68	C	0.210377	0.058853	1.064274
C69	C	0.254631	0.058856	1.064254
C70	C	0.254613	-0.058906	0.946496
C71	C	0.210365	-0.058905	0.946511
C72	C	0.188246	-0.000023	1.005408
O73	O	0.140367	-0.108921	0.896466
O74	O	0.140337	0.108905	1.114386
C75	C	-0.059542	0.058836	1.064340
C76	C	-0.081672	-0.000046	1.005470
C77	C	-0.059555	-0.058923	0.946589
C78	C	-0.125919	-0.000043	1.005472
C79	C	-0.148037	0.058834	1.064353
C80	C	-0.125908	0.117709	1.123232
C81	C	-0.081659	0.117713	1.123221
C82	C	-0.081684	-0.117798	0.887710
C83	C	-0.125932	-0.117796	0.887726
C84	C	-0.148050	-0.058919	0.946606
C85	C	0.601326	-0.000029	1.005470
C86	C	0.648414	-0.000030	1.005484
C87	C	0.462583	-0.000021	0.703910
C88	C	0.462583	-0.000020	0.601577
C89	C	0.516770	0.510780	0.946562
C90	C	0.516767	0.606929	0.946565
C91	C	0.408389	0.489157	1.064302
C92	C	0.408393	0.393011	1.064304
C93	C	0.579341	0.578776	0.878584
C94	C	0.579338	0.674924	0.878587
C95	C	0.462579	0.083236	0.457348
C96	C	0.462583	0.083244	0.553496
C97	C	0.462585	-0.083292	0.553500
C98	C	0.462586	-0.083295	0.457349
C99	C	0.462576	0.179382	0.457350
C100	C	0.462580	0.179390	0.553497
C101	C	0.462580	-0.000030	1.306947
C102	C	0.462580	-0.000032	1.409279
C103	C	0.323836	-0.000027	1.306905
C104	C	0.276747	-0.000027	1.409224
C105	C	0.323835	-0.301542	1.005387
C106	C	0.276746	-0.403874	1.005373
C107	C	0.323834	-0.301546	1.306906
C108	C	0.276744	-0.403880	1.409224
C109	C	0.601330	0.301495	0.703951
C110	C	0.648419	0.403828	0.601632
C111	C	0.601327	-0.000025	0.703951
C112	C	0.648416	-0.000025	0.601633
C113	C	0.601328	0.301490	1.005469
C114	C	0.648418	0.403822	1.005483
C115	C	0.254634	0.058861	1.398396
C116	C	0.210395	0.058884	1.494526
C117	C	0.188267	0.000010	1.601483
C118	C	0.210384	-0.058880	1.612308
C119	C	0.254625	-0.058895	1.516179
C120	C	0.254631	-0.510818	1.064244
C121	C	0.210392	-0.606979	1.064227
C122	C	0.188265	-0.596193	1.005344
C123	C	0.210384	-0.489237	0.946466
C124	C	0.254625	-0.393079	0.946478
C125	C	0.254630	-0.393060	1.516162
C126	C	0.210390	-0.489203	1.612310
C127	C	0.188262	-0.596166	1.601519
C128	C	0.210380	-0.606984	1.494570
C129	C	0.254622	-0.510841	1.398424
C130	C	0.670538	0.393008	0.494695
C131	C	0.714792	0.489152	0.398546
C132	C	0.736922	0.596114	0.409338
C133	C	0.714802	0.606932	0.516287
C134	C	0.670552	0.510790	0.612433
C135	C	0.670534	-0.058903	0.612460
C136	C	0.714785	-0.058899	0.516330
C137	C	0.736915	-0.000022	0.409374
C138	C	0.714796	0.058864	0.398548
C139	C	0.670548	0.058866	0.494677
C140	C	0.670531	0.393000	1.064377
C141	C	0.714770	0.489142	1.064412
C142	C	0.736899	0.596106	1.005546
C143	C	0.714781	0.606926	0.946651
C144	C	0.670540	0.510785	0.946623
H145	H	0.272650	0.106813	1.112195
H146	H	0.772924	0.674381	1.005578
Cl147	Cl	0.642725	-0.132923	0.746908
Cl148	Cl	0.642745	0.132883	0.481045
Cl149	Cl	0.742590	0.475526	0.264111
H150	H	0.272624	-0.106856	1.525011
H151	H	0.152237	-0.674442	1.679816
H152	H	0.272642	-0.519623	1.112194
Cl153	Cl	0.642726	0.258552	0.481099
Cl154	Cl	0.282443	-0.258604	1.529758
Cl155	Cl	-0.357270	0.132864	1.138390
H156	H	0.192357	-0.694086	1.485800
Cl157	Cl	0.462598	-0.187963	0.396906
Cl158	Cl	0.742612	0.741404	0.872640
Cl159	Cl	0.462593	-0.187960	0.613936
H160	H	0.192360	-0.106813	1.699405
Cl161	Cl	0.182593	-0.741424	1.138256
H162	H	0.603368	0.578797	0.916407
Cl163	Cl	0.742569	0.475514	1.138451
Cl164	Cl	0.609268	0.565239	0.744217
Cl165	Cl	0.282417	-0.258637	0.872468
Cl166	Cl	0.609324	0.753564	0.947831
H167	H	0.192386	-0.480375	1.699384
Cl168	Cl	0.642746	0.524412	0.746865
H169	H	0.772944	-0.000032	0.331109
H170	H	0.272651	0.106817	1.311315
H171	H	0.732787	-0.106855	0.525167
Cl172	Cl	0.132645	-0.717091	1.005344
Cl173	Cl	0.742620	0.132870	0.264080
Cl174	Cl	0.182559	-0.475696	0.872451
H175	H	0.419655	0.162575	0.474150
Cl176	Cl	0.616423	0.755516	0.739606
Cl177	Cl	0.642720	0.258542	1.138392
Cl178	Cl	0.792550	0.716970	0.288456
H179	H	0.272621	-0.519667	1.311354
H180	H	0.732826	0.694033	0.525060
Cl181	Cl	-0.153720	0.191729	1.197249
Cl182	Cl	0.642751	0.524410	0.872564
H183	H	0.192372	0.106798	1.112236
Cl184	Cl	0.132647	0.000037	1.722321
Cl185	Cl	-0.020956	0.191758	1.197222
Cl186	Cl	0.078899	0.191756	1.197209
Cl187	Cl	-0.357276	-0.132923	0.872569
Cl188	Cl	-0.257389	0.132883	1.138375
H189	H	-0.011203	-0.165769	0.839759
Cl190	Cl	-0.257427	-0.132950	0.872575
Cl191	Cl	0.340272	0.258555	1.138303
H192	H	0.192351	-0.106841	0.898556
Cl193	Cl	0.078856	-0.191851	0.813680
H194	H	0.504174	0.261500	0.386067
H195	H	0.272631	-0.106839	0.898552
H196	H	-0.063643	0.165665	1.171161
Cl197	Cl	-0.053887	-0.191826	0.813683
Cl198	Cl	-0.153746	-0.191830	0.813700
H199	H	0.505497	0.255879	0.536695
Cl200	Cl	0.398355	0.166596	0.663560
H201	H	0.192393	0.106839	1.485690
Cl202	Cl	0.340266	0.475570	1.138313
