data_functionalizedCrystal
_audit_creation_method	'MofGen! by Chris Wilmer'
_symmetry_space_group_name_H-M	'P1'
_symmetry_Int_Tables_number	1
_symmetry_cell_setting	triclinic
loop_
_symmetry_equiv_pos_as_xyz
  x,y,z
_cell_length_a	18.266242
_cell_length_b	10.489741
_cell_length_c	10.489741
_cell_angle_alpha	84.539174
_cell_angle_beta	89.993983
_cell_angle_gamma	89.993673
loop_
_atom_site_label
_atom_site_type_symbol
_atom_site_fract_x
_atom_site_fract_y
_atom_site_fract_z
O1	O	0.060835	-1.694062	-0.179970
O2	O	0.560835	-1.194062	0.320030
O3	O	0.060847	-1.322866	-0.196863
O4	O	0.560847	-0.822866	0.303137
O5	O	0.060836	-1.516910	-0.002819
O6	O	0.560836	-1.016910	0.497181
O7	O	0.060846	-1.500018	-0.374014
O8	O	0.560846	-1.000018	0.125986
O9	O	-0.060926	-1.516877	-0.002808
O10	O	0.439074	-1.016877	0.497192
O11	O	-0.060915	-1.322833	-0.196852
O12	O	0.439085	-0.822833	0.303148
O13	O	-0.060927	-1.694029	-0.179960
O14	O	0.439073	-1.194029	0.320040
Zn15	Zn	-0.080253	-1.508425	-0.188404
Zn16	Zn	0.419747	-1.008425	0.311596
Zn17	Zn	0.080173	-1.508469	-0.188418
Zn18	Zn	0.580173	-1.008469	0.311582
O19	O	-0.060916	-1.499984	-0.374004
O20	O	0.439084	-0.999984	0.125996
C21	C	-0.000033	-1.275318	-0.195582
C22	C	0.499967	-0.775318	0.304418
C23	C	-0.000029	-1.133688	-0.191765
C24	C	0.499971	-0.633688	0.308235
N25	N	-0.189740	-1.508405	-0.188394
N26	N	0.310260	-1.008405	0.311606
C27	C	-0.000044	-1.515618	0.044718
C28	C	0.499956	-1.015618	0.544718
C29	C	-0.000043	-1.511801	0.186348
C30	C	0.499957	-1.011801	0.686348
C31	C	-0.228054	-1.594356	-0.102514
C32	C	0.271946	-1.094356	0.397486
C33	C	-0.304699	-1.594365	-0.102508
C34	C	0.195301	-1.094365	0.397492
C35	C	-0.343027	-1.508433	-0.188405
C36	C	0.156973	-1.008433	0.311595
C37	C	-0.304705	-1.422465	-0.274291
C38	C	0.195295	-0.922465	0.225709
C39	C	-0.228061	-1.422451	-0.274286
C40	C	0.271939	-0.922451	0.225714
N41	N	-0.463356	-1.493234	-0.301127
N42	N	0.036644	-0.993234	0.198873
N43	N	-0.536165	-1.493255	-0.301128
N44	N	-0.036165	-0.993255	0.198872
C45	C	-0.573950	-1.508469	-0.188424
C46	C	-0.073950	-1.008469	0.311576
N47	N	-0.536176	-1.523687	-0.075715
N48	N	-0.036176	-1.023687	0.424285
N49	N	-0.463361	-1.523672	-0.075715
N50	N	0.036639	-1.023672	0.424285
C51	C	-0.426134	-1.508439	-0.188419
C52	C	0.073866	-1.008439	0.311581
C53	C	-0.695370	-1.594434	-0.102530
C54	C	-0.195370	-1.094434	0.397470
C55	C	-0.772017	-1.594434	-0.102523
C56	C	-0.272017	-1.094434	0.397477
C57	C	-0.772021	-1.422541	-0.274316
C58	C	-0.272021	-0.922541	0.225684
C59	C	-0.695376	-1.422535	-0.274313
C60	C	-0.195376	-0.922535	0.225687
C61	C	-0.657055	-1.508489	-0.188421
C62	C	-0.157055	-1.008489	0.311579
N63	N	0.189660	-1.508500	-0.188418
N64	N	0.689660	-1.008500	0.311582
C65	C	-0.000046	-1.741577	-0.181241
C66	C	0.499954	-1.241577	0.318759
C67	C	-0.000045	-1.883206	-0.185058
C68	C	0.499955	-1.383206	0.314942
C69	C	-0.000039	-1.065548	-0.068300
C70	C	0.499961	-0.565548	0.431700
C71	C	0.059996	-0.973438	-0.126629
C72	C	0.559996	-0.473438	0.373371
C73	C	-0.060052	-0.973439	-0.126648
C74	C	0.439948	-0.473439	0.373352
C75	C	0.060056	-1.043443	-0.250144
C76	C	0.560056	-0.543443	0.249856
C77	C	-0.060046	-1.043454	-0.250146
C78	C	0.439954	-0.543454	0.249854
C79	C	0.000004	-0.951371	-0.308564
C80	C	0.500004	-0.451371	0.191436
C81	C	-0.000034	-1.501277	-0.421541
C82	C	0.499966	-1.001277	0.078459
C83	C	-0.000031	-1.505094	-0.563170
C84	C	0.499969	-1.005094	-0.063170
C85	C	-0.000034	-1.388336	0.254488
C86	C	0.499966	-0.888336	0.754488
C87	C	-0.060070	-1.446643	0.346615
C88	C	0.439930	-0.946643	0.846615
C89	C	0.059977	-1.446705	0.346580
C90	C	0.559977	-0.946705	0.846580
C91	C	-0.060129	-1.570159	0.276610
C92	C	0.439871	-1.070159	0.776610
C93	C	0.059973	-1.570204	0.276565
C94	C	0.559973	-1.070204	0.776565
C95	C	-0.000079	-1.628600	0.368665
C96	C	0.499921	-1.128600	0.868665
H97	H	-0.196855	-1.664342	-0.032573
H98	H	0.303145	-1.164342	0.467427
Br99	Br	-0.144665	-1.359555	0.398310
Br100	Br	0.355335	-0.859555	0.898310
Br101	Br	0.144592	-0.921773	-0.039573
Br102	Br	0.644592	-0.421773	0.460427
Br103	Br	0.144569	-1.359621	0.398221
Br104	Br	0.644569	-0.859621	0.898221
H105	H	0.110868	-1.074285	-0.302348
H106	H	0.610868	-0.574285	0.197652
H107	H	0.000039	-0.901947	-0.410168
H108	H	0.500039	-0.401947	0.089832
H109	H	0.000034	-1.115238	0.033196
H110	H	0.500034	-0.615238	0.533196
H111	H	-0.803212	-1.664422	-0.032582
H112	H	-0.303212	-1.164422	0.467418
H113	H	-0.664168	-1.664419	-0.032588
H114	H	-0.164168	-1.164419	0.467412
H115	H	-0.664179	-1.352550	-0.344250
H116	H	-0.164179	-0.852550	0.155750
H117	H	-0.803227	-1.352569	-0.344250
H118	H	-0.303227	-0.852569	0.155750
H119	H	-0.000115	-1.730204	0.418089
H120	H	0.499885	-1.230204	0.918089
Br121	Br	0.144570	-1.657229	0.224811
Br122	Br	0.644570	-1.157229	0.724811
H123	H	-0.335915	-1.352497	-0.344227
H124	H	0.164085	-0.852497	0.155773
H125	H	-0.110802	-1.074486	-0.302340
H126	H	0.389198	-0.574486	0.197660
Br127	Br	-0.144647	-0.921783	-0.039537
Br128	Br	0.355353	-0.421783	0.460463
Br129	Br	-0.000122	-1.219144	0.171734
Br130	Br	0.499878	-0.719144	0.671734
H131	H	-0.110942	-1.622340	0.245782
H132	H	0.389058	-1.122340	0.745782
Br133	Br	-0.176060	-1.305792	-0.390845
Br134	Br	0.323940	-0.805792	0.109155
Br135	Br	-0.356705	-1.711022	0.014055
Br136	Br	0.143295	-1.211022	0.514055
