data_functionalizedCrystal
_audit_creation_method	'MofGen! by Chris Wilmer'
_symmetry_space_group_name_H-M	'P1'
_symmetry_Int_Tables_number	1
_symmetry_cell_setting	triclinic
loop_
_symmetry_equiv_pos_as_xyz
  x,y,z
_cell_length_a	10.540510
_cell_length_b	10.540539
_cell_length_c	16.176319
_cell_angle_alpha	90.001289
_cell_angle_beta	90.006236
_cell_angle_gamma	84.519401
loop_
_atom_site_label
_atom_site_type_symbol
_atom_site_fract_x
_atom_site_fract_y
_atom_site_fract_z
O1	O	1.685912	0.178718	0.068747
O2	O	1.316494	0.195613	0.068748
O3	O	1.509631	0.002458	0.068747
O4	O	1.492775	0.371873	0.068749
O5	O	1.509608	0.002457	-0.068747
O6	O	1.316471	0.195612	-0.068746
O7	O	1.685889	0.178717	-0.068746
Cu8	Cu	1.501178	0.187165	-0.081300
Cu9	Cu	1.501205	0.187165	0.081302
O10	O	1.492752	0.371872	-0.068745
C11	C	1.269179	0.194354	0.000001
C12	C	1.128229	0.190587	0.000001
C13	C	0.910774	0.324771	0.000318
C14	C	1.057370	0.328789	0.000003
C15	C	1.083457	0.119840	-0.078513
C16	C	0.936696	0.116801	-0.078573
C17	C	0.936915	0.113924	0.077782
C18	C	1.083257	0.120479	0.078815
C19	C	1.508356	-0.044845	0.000001
C20	C	1.504574	-0.185793	0.000006
C21	C	1.359655	-0.369204	0.000314
C22	C	1.363489	-0.222587	0.000005
C23	C	1.572457	-0.247458	-0.078510
C24	C	1.567642	-0.394002	-0.078576
C25	C	1.570538	-0.394520	0.077780
C26	C	1.571837	-0.247538	0.078818
C27	C	1.733204	0.179976	0.000003
C28	C	1.874154	0.183743	0.000008
C29	C	1.494028	0.419175	0.000002
C30	C	1.497810	0.560123	0.000003
N31	N	1.501169	0.187163	-0.195665
C32	C	1.578853	0.264895	-0.238925
C33	C	1.578867	0.264890	-0.325472
C34	C	1.501188	0.187160	-0.368758
C35	C	1.423500	0.109419	-0.325491
C36	C	1.423494	0.109418	-0.238946
C37	C	1.423524	0.109421	-0.674520
C38	C	1.423533	0.109431	-0.761071
C39	C	1.578896	0.264893	-0.761046
C40	C	1.578890	0.264892	-0.674501
C41	C	1.501208	0.187147	-0.631242
C42	C	1.501196	0.187151	-0.537398
C43	C	1.501192	0.187161	-0.462600
N44	N	1.501225	0.187157	0.195667
H45	H	0.867258	0.378303	-0.055669
H46	H	1.085764	0.384471	-0.056373
H47	H	1.360270	0.046116	-0.639309
H48	H	1.309680	-0.180825	-0.056372
H49	H	1.525283	-0.204854	-0.136938
H50	H	1.642101	0.328200	-0.203689
F51	F	1.340853	0.026694	-0.807137
H52	H	0.894377	0.157507	0.137292
F53	F	1.340831	0.026689	-0.371561
F54	F	1.340822	0.026675	-0.192906
H55	H	1.304140	-0.399406	-0.055675
F56	F	0.906633	-0.018300	-0.083273
F57	F	1.120719	0.187728	0.154738
H58	H	1.642128	0.328185	-0.360691
F59	F	1.507425	-0.193532	0.154749
H60	H	0.896469	0.165149	-0.137263
F61	F	1.502038	-0.430858	-0.155288
H62	H	1.674700	-0.223328	0.083559
H63	H	0.868830	0.378613	0.056625
H64	H	1.524885	-0.426068	0.137289
H65	H	1.676066	-0.225115	-0.081429
F66	F	1.700262	-0.456718	-0.083240
H67	H	1.642140	0.328193	-0.639262
H68	H	1.642153	0.328194	-0.796278
H69	H	1.672443	-0.441757	0.078308
F70	F	1.095742	0.401137	0.073568
H71	H	1.130846	0.018099	-0.081433
H72	H	1.114301	0.168972	-0.136942
H73	H	1.132325	0.019581	0.083556
F74	F	0.907966	-0.021702	0.078474
H75	H	1.303932	-0.397798	0.056619
F76	F	1.293671	-0.166889	0.073571
