data_functionalizedCrystal
_audit_creation_method	'MofGen! by Chris Wilmer'
_symmetry_space_group_name_H-M	'P1'
_symmetry_Int_Tables_number	1
_symmetry_cell_setting	triclinic
loop_
_symmetry_equiv_pos_as_xyz
  x,y,z
_cell_length_a	17.077404
_cell_length_b	12.645330
_cell_length_c	17.077396
_cell_angle_alpha	89.973796
_cell_angle_beta	89.981638
_cell_angle_gamma	90.010616
loop_
_atom_site_label
_atom_site_type_symbol
_atom_site_fract_x
_atom_site_fract_y
_atom_site_fract_z
Zn1	Zn	1.200110	-0.422097	-0.443831
Zn2	Zn	1.700110	0.077903	0.056169
Zn3	Zn	1.200041	-0.599382	-0.312570
Zn4	Zn	1.700041	-0.099382	0.187430
Zn5	Zn	1.068842	-0.422127	-0.312582
Zn6	Zn	1.568842	0.077873	0.187418
Zn7	Zn	1.068834	-0.599312	-0.443797
Zn8	Zn	1.568834	-0.099312	0.056203
O9	O	1.134457	-0.510730	-0.378195
O10	O	1.634457	-0.010730	0.121805
O11	O	1.309948	-0.445631	-0.426429
O12	O	1.809948	0.054369	0.073571
O13	O	1.182612	-0.575911	-0.202725
O14	O	1.682612	-0.075911	0.297275
O15	O	1.086288	-0.273776	-0.330012
O16	O	1.586288	0.226224	0.169988
O17	O	1.309897	-0.575882	-0.329992
O18	O	1.809897	-0.075882	0.170008
O19	O	1.182730	-0.273754	-0.426440
O20	O	1.682730	0.226246	0.073560
O21	O	1.086221	-0.445682	-0.202733
O22	O	1.586221	0.054318	0.297267
O23	O	0.958994	-0.445614	-0.329978
O24	O	1.458994	0.054386	0.170022
O25	O	1.086273	-0.575762	-0.553648
O26	O	1.586273	-0.075762	-0.053648
O27	O	0.958988	-0.575792	-0.426381
O28	O	1.458988	-0.075792	0.073619
O29	O	1.182722	-0.445563	-0.553674
O30	O	1.682722	0.054437	-0.053674
O31	O	1.182603	-0.747720	-0.329959
O32	O	1.682603	-0.247720	0.170041
O33	O	1.086206	-0.747669	-0.426370
O34	O	1.586206	-0.247669	0.073630
C35	C	0.930509	-0.510700	-0.378177
C36	C	1.430509	-0.010700	0.121823
C37	C	0.843259	-0.510712	-0.378189
C38	C	1.343259	-0.010712	0.121811
C39	C	0.802296	-0.443011	-0.428480
C40	C	1.302296	0.056989	0.071520
C41	C	0.720316	-0.443018	-0.428483
C42	C	1.220316	0.056982	0.071517
C43	C	0.679300	-0.510732	-0.378199
C44	C	1.179300	-0.010732	0.121801
C45	C	0.720268	-0.578436	-0.327902
C46	C	1.220268	-0.078436	0.172098
C47	C	0.802247	-0.578423	-0.327895
C48	C	1.302247	-0.078423	0.172105
C49	C	0.549398	-0.578460	-0.327922
C50	C	1.049398	-0.078460	0.172078
C51	C	0.467414	-0.578475	-0.327930
C52	C	0.967414	-0.078475	0.172070
C53	C	0.467467	-0.443055	-0.428510
C54	C	0.967467	0.056945	0.071490
C55	C	0.549446	-0.443042	-0.428503
C56	C	1.049446	0.056958	0.071497
C57	C	0.590409	-0.510748	-0.378207
C58	C	1.090409	-0.010748	0.121793
C59	C	1.134418	-0.786159	-0.378177
C60	C	1.634418	-0.286159	0.121823
C61	C	1.134473	-0.903989	-0.378195
C62	C	1.634473	-0.403989	0.121805
C63	C	1.195019	-1.071541	-0.317419
C64	C	1.695019	-0.571541	0.182581
C65	C	1.195216	-0.948981	-0.317568
C66	C	1.695216	-0.448981	0.182432
C67	C	1.156905	-0.948374	-0.460938
C68	C	1.656905	-0.448374	0.039062
C69	C	1.157385	-1.070972	-0.460616
C70	C	1.657385	-0.570972	0.039384
C71	C	1.051470	-1.071312	-0.357042
C72	C	1.551470	-0.571312	0.142958
C73	C	1.051868	-0.948708	-0.355187
C74	C	1.551868	-0.448708	0.144813
C75	C	1.339201	-0.510761	-0.378213
C76	C	1.839201	-0.010761	0.121787
C77	C	1.426451	-0.510774	-0.378221
C78	C	1.926451	-0.010774	0.121779
C79	C	1.134504	-0.510651	-0.582939
C80	C	1.634504	-0.010651	-0.082939
C81	C	1.134525	-0.510618	-0.670189
C82	C	1.634525	-0.010618	-0.170189
C83	C	1.134518	-0.234224	-0.378231
C84	C	1.634518	0.265776	0.121769
C85	C	1.134544	-0.116394	-0.378246
C86	C	1.634544	0.383606	0.121754
C87	C	1.184747	-0.442818	-0.711194
C88	C	1.684747	0.057182	-0.211194
C89	C	1.184757	-0.442782	-0.793174
C90	C	1.684757	0.057218	-0.293174
C91	C	1.134547	-0.510554	-0.834149
C92	C	1.634547	-0.010554	-0.334149
C93	C	1.084319	-0.578357	-0.793138
C94	C	1.584319	-0.078357	-0.293138
C95	C	1.084306	-0.578386	-0.711159
C96	C	1.584306	-0.078386	-0.211159
C97	C	1.084350	-0.578294	-0.964009
C98	C	1.584350	-0.078294	-0.464009
C99	C	1.084364	-0.578266	-1.045993
C100	C	1.584364	-0.078266	-0.545993
C101	C	1.184801	-0.442689	-1.046024
C102	C	1.684801	0.057311	-0.546024
C103	C	1.184788	-0.442719	-0.964045
C104	C	1.684788	0.057281	-0.464045
C105	C	1.134561	-0.510524	-0.923040
C106	C	1.634561	-0.010524	-0.423040
C107	C	1.134455	-0.510731	-0.174247
C108	C	1.634455	-0.010731	0.325753
C109	C	1.134587	-0.510466	-0.086998
C110	C	1.634587	-0.010466	0.413002
H111	H	0.686968	-0.387891	-0.469437
H112	H	1.186968	0.112109	0.030563
N113	N	1.033017	-0.647647	-0.669259
N114	N	1.533017	-0.147647	-0.169259
N115	N	1.033012	-0.647664	-0.596065
N116	N	1.533012	-0.147664	-0.096065
H117	H	0.996787	-0.696579	-0.566472
H118	H	1.496787	-0.196579	-0.066472
N119	N	1.103341	-0.911828	-0.519331
N120	N	1.603341	-0.411828	-0.019331
N121	N	1.064165	-0.976796	-0.558144
N122	N	1.564165	-0.476796	-0.058144
H123	H	1.026335	-0.950985	-0.599385
H124	H	1.526335	-0.450985	-0.099385
N125	N	1.033040	-0.647455	-1.087837
N126	N	1.533040	-0.147455	-0.587837
N127	N	0.988173	-0.707953	-1.051219
N128	N	1.488173	-0.207953	-0.551219
H129	H	0.951912	-0.756803	-1.080771
H130	H	1.451912	-0.256803	-0.580771
H131	H	1.115267	-1.100638	-0.507498
H132	H	1.615267	-0.600638	-0.007498
H133	H	1.256746	-0.919576	-0.331593
H134	H	1.756746	-0.419576	0.168407
H135	H	0.835598	-0.633552	-0.286943
H136	H	1.335598	-0.133552	0.213057
H137	H	1.218108	-1.099488	-0.478577
H138	H	1.718108	-0.599488	0.021423
N139	N	0.591244	-0.647602	-0.276535
N140	N	1.091244	-0.147602	0.223465
N141	N	0.582062	-0.640445	-0.204112
N142	N	1.082062	-0.140445	0.295888
H143	H	0.611616	-0.689276	-0.167822
H144	H	1.111616	-0.189276	0.332178
N145	N	1.236071	-0.373545	-0.835062
N146	N	1.736071	0.126455	-0.335062
N147	N	1.286087	-0.410842	-0.880810
N148	N	1.786087	0.089158	-0.380810
H149	H	1.322330	-0.361941	-0.910394
H150	H	1.822330	0.138059	-0.410394
H151	H	0.686867	-0.633565	-0.286956
H152	H	1.186867	-0.133565	0.213044
H153	H	1.181181	-0.918976	-0.256215
H154	H	1.681181	-0.418976	0.243785
N155	N	0.844190	-0.373825	-0.479833
N156	N	1.344190	0.126175	0.020167
N157	N	0.889924	-0.306217	-0.452293
N158	N	1.389924	0.193783	0.047707
H159	H	0.919510	-0.257348	-0.488559
H160	H	1.419510	0.242652	0.011441
H161	H	1.181160	-1.101092	-0.255887
H162	H	1.681160	-0.601092	0.244113
N163	N	1.271790	-1.110102	-0.334820
N164	N	1.771790	-0.610102	0.165180
N165	N	1.282158	-1.170473	-0.391824
N166	N	1.782158	-0.670473	0.108176
H167	H	1.336377	-1.197709	-0.404116
H168	H	1.836377	-0.697709	0.095884
H169	H	1.216941	-0.917589	-0.479198
H170	H	1.716941	-0.417589	0.020802
N171	N	1.236035	-0.373574	-0.669356
N172	N	1.736035	0.126426	-0.169356
N173	N	1.230848	-0.275751	-0.678529
N174	N	1.730848	0.224249	-0.178529
H175	H	1.267069	-0.226841	-0.648983
H176	H	1.767069	0.273159	-0.148983
H177	H	1.031071	-1.102319	-0.297757
H178	H	1.531071	-0.602319	0.202243
N179	N	1.030658	-0.912332	-0.278795
N180	N	1.530658	-0.412332	0.221205
N181	N	1.076166	-0.853687	-0.241393
N182	N	1.576166	-0.353687	0.258607
H183	H	1.061190	-0.827992	-0.187440
H184	H	1.561190	-0.327992	0.312560
N185	N	1.033034	-0.647553	-0.922134
N186	N	1.533034	-0.147553	-0.422134
N187	N	0.988208	-0.708059	-0.958725
N188	N	1.488208	-0.208059	-0.458725
H189	H	0.951967	-0.756975	-0.929152
H190	H	1.451967	-0.256975	-0.429152
N191	N	0.992298	-0.910294	-0.406692
N192	N	1.492298	-0.410294	0.093308
N193	N	1.009833	-0.849064	-0.461442
N194	N	1.509833	-0.349064	0.038558
H195	H	0.967763	-0.821936	-0.497826
H196	H	1.467763	-0.321936	0.002174
N197	N	0.425635	-0.373899	-0.479896
N198	N	0.925635	0.126101	0.020104
N199	N	0.379909	-0.411284	-0.529876
N200	N	0.879909	0.088716	-0.029876
H201	H	0.350365	-0.362447	-0.566170
H202	H	0.850365	0.137553	-0.066170
H203	H	1.006411	-1.100319	-0.401345
H204	H	1.506411	-0.600319	0.098655
N205	N	1.236088	-0.373498	-0.922201
N206	N	1.736088	0.126502	-0.422201
N207	N	1.280931	-0.312966	-0.958819
N208	N	1.780931	0.187034	-0.458819
H209	H	1.317163	-0.264076	-0.929267
H210	H	1.817163	0.235924	-0.429267
H211	H	0.434021	-0.633614	-0.286984
H212	H	0.934021	-0.133614	0.213016
H213	H	1.043434	-0.633534	-0.826506
H214	H	1.543434	-0.133534	-0.326506
N215	N	0.591332	-0.373880	-0.479880
N216	N	1.091332	0.126120	0.020120
N217	N	0.554752	-0.313438	-0.524784
N218	N	1.054752	0.186562	-0.024784
H219	H	0.584333	-0.264590	-0.561070
H220	H	1.084333	0.235410	-0.061070
N221	N	1.236104	-0.373435	-1.087916
N222	N	1.736104	0.126565	-0.587916
N223	N	1.236109	-0.373413	-1.161111
N224	N	1.736109	0.126587	-0.661111
H225	H	1.272343	-0.324508	-1.190702
H226	H	1.772343	0.175492	-0.690702
