data_functionalizedCrystal
_audit_creation_method	'MofGen! by Chris Wilmer'
_symmetry_space_group_name_H-M	'P1'
_symmetry_Int_Tables_number	1
_symmetry_cell_setting	triclinic
loop_
_symmetry_equiv_pos_as_xyz
  x,y,z
_cell_length_a	8.497374
_cell_length_b	8.497374
_cell_length_c	25.639242
_cell_angle_alpha	90.003377
_cell_angle_beta	90.012325
_cell_angle_gamma	90.005237
loop_
_atom_site_label
_atom_site_type_symbol
_atom_site_fract_x
_atom_site_fract_y
_atom_site_fract_z
Zn1	Zn	0.892552	0.628518	0.799311
Zn2	Zn	0.628818	0.892263	0.799307
Zn3	Zn	0.628731	0.628471	0.711902
Zn4	Zn	0.892501	0.892229	0.711890
O5	O	0.760651	0.760370	0.755602
O6	O	0.857626	0.663538	0.872476
O7	O	0.408044	0.857265	0.787716
O8	O	0.663713	0.407715	0.723504
O9	O	0.663861	0.857311	0.872473
O10	O	0.857541	0.407749	0.787723
O11	O	0.407980	0.663458	0.723500
O12	O	0.663663	0.663425	0.638735
O13	O	1.113270	0.857252	0.723483
O14	O	0.857453	0.857207	0.638726
O15	O	1.113308	0.663505	0.787711
O16	O	0.663811	1.113021	0.787704
O17	O	0.857538	1.112996	0.723479
C18	C	0.760544	0.760308	0.619760
C19	C	0.760535	0.760319	0.561646
C20	C	1.172131	0.760372	0.755599
C21	C	1.350775	0.760389	0.755600
C22	C	0.760673	1.170250	0.755596
C23	C	0.760648	1.348894	0.755610
C24	C	0.861462	0.861441	0.201287
C25	C	0.861487	0.861451	0.146683
O26	O	0.947207	0.947351	0.118449
N27	N	0.760754	0.760414	0.119363
C28	C	0.660000	0.659349	0.146651
O29	O	0.574322	0.573409	0.118400
C30	C	0.659985	0.659333	0.201255
C31	C	0.760713	0.760388	0.228571
C32	C	0.962183	0.962487	0.228603
C33	C	0.962156	0.962479	0.283204
C34	C	0.861407	0.861425	0.310488
C35	C	0.760686	0.760380	0.283171
C36	C	0.559240	0.558261	0.228541
C37	C	0.559234	0.558252	0.283149
C38	C	0.659963	0.659308	0.310465
C39	C	0.659909	0.659318	0.365056
N40	N	0.760642	0.760355	0.392375
C41	C	0.861391	0.861409	0.365091
C42	C	0.660043	0.659389	0.031981
C43	C	0.660050	0.659412	-0.022622
C44	C	0.861538	0.861513	-0.022587
C45	C	0.861523	0.861496	0.032017
C46	C	0.760776	0.760426	0.059300
C47	C	0.861325	0.861385	0.479756
C48	C	0.861284	0.861373	0.534362
C49	C	0.659802	0.659268	0.534322
C50	C	0.659836	0.659285	0.479721
C51	C	0.760611	0.760349	0.452440
O52	O	0.574237	0.573457	0.393324
O53	O	0.947070	0.947320	0.393349
C54	C	0.760759	0.760434	0.891975
C55	C	0.760805	0.760461	0.950089
H56	H	0.943311	0.943670	0.556600
H57	H	1.044183	1.044765	0.305440
H58	H	0.943389	0.943678	0.457550
O59	O	0.561926	0.561390	0.058458
C60	C	0.293676	0.484340	0.075096
C61	C	0.404610	0.595443	0.045091
H62	H	0.166465	0.511810	0.064291
H63	H	0.310813	0.501676	0.118822
H64	H	0.321647	0.357190	0.064360
H65	H	0.376708	0.722636	0.055782
H66	H	0.387453	0.577971	0.001372
O67	O	0.959469	0.959819	-0.049015
C68	C	1.159395	1.160197	-0.043233
C69	C	1.048554	1.048981	-0.013237
H70	H	1.231473	1.232290	-0.014319
H71	H	1.086930	1.242680	-0.068789
H72	H	1.241923	1.087863	-0.068804
H73	H	0.966005	1.121187	0.012363
H74	H	1.121118	0.966493	0.012286
O75	O	1.060105	1.060812	0.202185
C76	C	1.259995	1.261217	0.208002
C77	C	1.149157	1.149951	0.237979
H78	H	1.332045	1.333292	0.236928
H79	H	1.187529	1.343714	0.182451
H80	H	1.342548	1.188923	0.182427
H81	H	1.066582	1.222117	0.263582
H82	H	1.221721	1.067449	0.263496
H83	H	0.577812	0.577001	0.457479
O84	O	0.959457	0.959431	0.058607
C85	C	1.172487	0.980971	0.120246
C86	C	1.061642	0.869884	0.090178
H87	H	1.255153	0.908615	0.145770
H88	H	1.100026	1.063319	0.145843
H89	H	1.244415	1.053231	0.091350
H90	H	0.989690	0.797521	0.119036
H91	H	1.134193	0.787640	0.064572
O92	O	0.562091	0.561156	0.560912
C93	C	0.472735	0.471642	0.645023
C94	C	0.583486	0.582818	0.614973
H95	H	0.489971	0.489141	0.688737
H96	H	0.500646	0.344447	0.634326
H97	H	0.345501	0.499112	0.634246
H98	H	0.710757	0.555491	0.625734
H99	H	0.555440	0.709980	0.625673
O100	O	0.561995	0.561500	-0.049172
C101	C	0.349065	0.539979	-0.110849
C102	C	0.460000	0.651047	-0.080811
H103	H	0.266597	0.612331	-0.136445
H104	H	0.276944	0.467806	-0.081982
H105	H	0.421618	0.457550	-0.136389
H106	H	0.387570	0.733571	-0.055271
H107	H	0.532127	0.723109	-0.109707
O108	O	0.461509	0.460125	0.309731
C109	C	0.372094	0.370592	0.393833
C110	C	0.482873	0.481768	0.363795
H111	H	0.389304	0.388076	0.437549
H112	H	0.400000	0.243398	0.383133
H113	H	0.244869	0.398077	0.383049
H114	H	0.610135	0.454426	0.374563
H115	H	0.454832	0.608929	0.374497
H116	H	0.477212	0.475975	0.206310
