data_functionalizedCrystal
_audit_creation_method	'MofGen! by Chris Wilmer'
_symmetry_space_group_name_H-M	'P1'
_symmetry_Int_Tables_number	1
_symmetry_cell_setting	triclinic
loop_
_symmetry_equiv_pos_as_xyz
  x,y,z
_cell_length_a	19.188925
_cell_length_b	19.188925
_cell_length_c	9.016244
_cell_angle_alpha	89.998107
_cell_angle_beta	89.991721
_cell_angle_gamma	83.142549
loop_
_atom_site_label
_atom_site_type_symbol
_atom_site_fract_x
_atom_site_fract_y
_atom_site_fract_z
O1	O	0.926149	0.087147	-0.123371
O2	O	0.722837	0.098885	-0.123367
O3	O	0.830362	-0.008640	-0.123361
O4	O	0.818624	0.194672	-0.123377
O5	O	0.830346	-0.008638	0.123320
O6	O	0.722821	0.098888	0.123314
O7	O	0.926133	0.087149	0.123310
Cu8	Cu	0.824476	0.093019	0.145836
Cu9	Cu	0.824494	0.093016	-0.145893
O10	O	0.818608	0.194674	0.123304
C11	C	0.696818	0.098507	-0.000026
C12	C	0.619313	0.097368	-0.000024
C13	C	0.057542	0.152832	-0.000032
C14	C	0.130365	0.153908	-0.000040
C15	C	0.175301	0.090816	-0.000032
C16	C	0.147408	0.026642	-0.000055
C17	C	0.074586	0.025568	-0.000061
N18	N	0.295973	0.045141	0.083943
N19	N	0.365151	0.046166	0.083953
C20	C	0.394710	0.094050	-0.000015
N21	N	0.352477	0.140881	-0.083975
N22	N	0.283293	0.139858	-0.083978
C23	C	0.254265	0.091974	-0.000026
C24	C	0.501557	0.159387	-0.000012
C25	C	0.574382	0.160461	-0.000030
C26	C	0.591424	0.033193	-0.000029
C27	C	0.518600	0.032121	-0.000027
C28	C	0.473671	0.095220	-0.000011
C29	C	0.829974	-0.034650	-0.000021
C30	C	0.828835	-0.112155	-0.000024
C31	C	0.884299	-0.673926	-0.000063
C32	C	0.885376	-0.601103	-0.000050
C33	C	0.822284	-0.556167	-0.000049
C34	C	0.758110	-0.584060	-0.000023
C35	C	0.757035	-0.656882	-0.000022
N36	N	0.776613	-0.435487	-0.084011
N37	N	0.777638	-0.366309	-0.084016
C38	C	0.825518	-0.336758	-0.000050
N39	N	0.872344	-0.378999	0.083902
N40	N	0.871321	-0.448183	0.083900
C41	C	0.823442	-0.477203	-0.000049
C42	C	0.890854	-0.229910	-0.000050
C43	C	0.891928	-0.157085	-0.000028
C44	C	0.764661	-0.140044	-0.000016
C45	C	0.763589	-0.212867	-0.000024
C46	C	0.826688	-0.257797	-0.000048
C47	C	0.952152	0.087528	-0.000035
C48	C	1.029657	0.088667	-0.000046
C49	C	0.818995	0.220684	-0.000039
C50	C	0.820134	0.298189	-0.000046
N51	N	0.824468	0.093020	0.351022
N52	N	0.824508	0.093008	-0.351079
C53	C	0.766777	0.150351	0.586051
C54	C	0.766900	0.150561	0.414160
C55	C	0.897272	0.108709	0.413357
C56	C	0.896956	0.109114	0.585302
C57	C	0.810081	0.019807	0.585572
C58	C	0.808400	0.020303	0.413618
H59	H	0.495897	-0.020129	-0.000029
H60	H	0.935680	-0.710503	-0.000074
H61	H	0.020964	0.204212	-0.000027
O62	O	0.696777	-0.540483	-0.000226
C63	C	0.657817	-0.553083	-0.127997
H64	H	0.675130	-0.608381	-0.170586
H65	H	0.599567	-0.547777	-0.099257
H66	H	0.667247	-0.513281	-0.217464
H67	H	0.910325	0.161480	0.370275
H68	H	0.944181	-0.134384	-0.000032
H69	H	0.704783	-0.679584	-0.000005
O70	O	0.952209	-0.273460	0.000005
C71	C	1.009076	-0.233228	-0.000031
H72	H	0.991186	-0.178821	0.046681
H73	H	1.053266	-0.260231	0.071579
H74	H	1.028761	-0.228098	-0.118377
O75	O	0.703436	-0.096303	-0.000083
C76	C	0.718142	-0.026047	-0.000045
H77	H	0.772977	-0.023424	-0.046750
H78	H	0.677916	0.007072	-0.071661
H79	H	0.715424	-0.004979	0.118301
O80	O	0.912066	0.172796	0.633321
C81	C	0.855736	0.204962	0.719096
H82	H	0.824245	0.163036	0.764982
H83	H	0.877072	0.234901	0.814869
H84	H	0.820341	0.242961	0.646799
H85	H	0.758162	0.004664	0.629022
H86	H	0.153074	0.206161	-0.000015
O87	O	0.701197	-0.239843	-0.000090
C88	C	0.645739	-0.184568	-0.000048
H89	H	0.665160	-0.135156	-0.046751
H90	H	0.600928	-0.199649	-0.071662
H91	H	0.626282	-0.174205	0.118299
O92	O	0.947770	-0.574122	-0.000150
C93	C	1.003231	-0.629393	-0.000134
H94	H	0.983811	-0.678808	-0.046814
H95	H	1.048039	-0.614311	-0.071782
H96	H	1.022690	-0.639754	0.118202
H97	H	0.712481	0.141191	0.627447
O98	O	0.777483	0.214798	0.637733
C99	C	0.718175	0.243730	0.718904
H100	H	0.688136	0.199727	0.760134
H101	H	0.735784	0.274291	0.817740
H102	H	0.682648	0.280567	0.644480
O103	O	0.777774	0.215425	0.365236
C104	C	0.723681	0.265490	0.417944
H105	H	0.699209	0.244284	0.521275
H106	H	0.746272	0.316124	0.446661
H107	H	0.681824	0.276545	0.328520
O108	O	0.702323	0.139575	0.363718
C109	C	0.674195	0.197409	0.277239
H110	H	0.718686	0.225989	0.233115
H111	H	0.643526	0.178171	0.180234
H112	H	0.637627	0.234834	0.348433
H113	H	0.183999	-0.024728	-0.000053
H114	H	0.941245	0.068984	0.626887
O115	O	0.457936	0.220695	-0.000280
C116	C	0.470567	0.259674	-0.128024
H117	H	0.495579	0.222737	-0.217316
H118	H	0.418813	0.287828	-0.170912
H119	H	0.507520	0.299976	-0.099145
O120	O	0.744562	0.005969	0.364951
C121	C	0.752679	-0.056822	0.282196
H122	H	0.803573	-0.089818	0.315928
H123	H	0.706452	-0.087501	0.304805
H124	H	0.754574	-0.043921	0.158942
O125	O	0.949656	0.060165	0.364375
C126	C	0.921170	0.011138	0.272839
H127	H	0.868803	0.035800	0.225874
H128	H	0.958976	-0.004772	0.177870
H129	H	0.912699	-0.037256	0.340752
H130	H	0.852184	-0.022863	0.626226
O131	O	0.047611	-0.036827	-0.000001
C132	C	0.102884	-0.092285	-0.000042
H133	H	0.152295	-0.072868	0.046659
H134	H	0.087798	-0.137100	0.071574
H135	H	0.113256	-0.111735	-0.118389
O136	O	0.601588	0.222733	-0.000111
C137	C	0.675497	0.210154	-0.000095
H138	H	0.692767	0.155612	-0.046783
H139	H	0.697731	0.251196	-0.071735
H140	H	0.695759	0.213482	0.118243
O141	O	0.635036	-0.028115	-0.000286
C142	C	0.622421	-0.067094	-0.128026
H143	H	0.597424	-0.030156	-0.217322
H144	H	0.674180	-0.095252	-0.170910
H145	H	0.585461	-0.107393	-0.099144
O146	O	0.855241	-0.033057	0.362443
C147	C	0.838874	-0.097202	0.421345
H148	H	0.781159	-0.091695	0.454601
H149	H	0.849312	-0.140175	0.334087
H150	H	0.872915	-0.111605	0.522970
