data_functionalizedCrystal
_audit_creation_method	'MofGen! by Chris Wilmer'
_symmetry_space_group_name_H-M	'P1'
_symmetry_Int_Tables_number	1
_symmetry_cell_setting	triclinic
loop_
_symmetry_equiv_pos_as_xyz
  x,y,z
_cell_length_a	23.532407
_cell_length_b	14.971486
_cell_length_c	13.448316
_cell_angle_alpha	90.001801
_cell_angle_beta	89.988737
_cell_angle_gamma	96.768596
loop_
_atom_site_label
_atom_site_type_symbol
_atom_site_fract_x
_atom_site_fract_y
_atom_site_fract_z
O1	O	0.074216	-1.186163	-0.082588
O2	O	0.083104	-0.925669	-0.082616
O3	O	-0.004238	-1.063771	-0.082583
O4	O	0.161558	-1.048061	-0.082621
O5	O	-0.004243	-1.063754	0.082801
O6	O	0.083099	-0.925652	0.082767
O7	O	0.074211	-1.186146	0.082796
Cu8	Cu	0.078654	-1.055897	0.097882
Cu9	Cu	0.078661	-1.055918	-0.097703
O10	O	0.161553	-1.048044	0.082763
C11	C	0.082704	-0.892340	0.000072
C12	C	0.081513	-0.793056	0.000062
C13	C	0.074611	-1.219475	0.000105
C14	C	0.075802	-1.318760	0.000109
C15	C	-0.025458	-1.063363	0.000111
C16	C	-0.088680	-1.062160	0.000119
C17	C	-0.487466	-1.136342	0.000072
C18	C	-0.546871	-1.135224	0.000065
O19	O	-0.583321	-1.203992	0.000035
N20	N	-0.569849	-1.053123	0.000056
C21	C	-0.533418	-0.972133	0.000046
O22	O	-0.558417	-0.902196	0.000037
C23	C	-0.474014	-0.973251	0.000046
C24	C	-0.451040	-1.055358	0.000065
C25	C	-0.464491	-1.218442	0.000090
C26	C	-0.405090	-1.219559	0.000099
C27	C	-0.368664	-1.138576	0.000091
C28	C	-0.391639	-1.056475	0.000074
C29	C	-0.437584	-0.892263	0.000029
C30	C	-0.378177	-0.893388	0.000028
C31	C	-0.355203	-0.975495	0.000047
C32	C	-0.295812	-0.976609	0.000076
N33	N	-0.272834	-1.058711	0.000084
C34	C	-0.309260	-1.139694	0.000092
C35	C	-0.658170	-0.969791	0.000043
C36	C	-0.717573	-0.968671	0.000049
C37	C	-0.731022	-1.131763	0.000066
C38	C	-0.671618	-1.132882	0.000067
C39	C	-0.635193	-1.051892	0.000051
C40	C	-0.184513	-1.142034	0.000113
C41	C	-0.125106	-1.143143	0.000126
C42	C	-0.111663	-0.980052	0.000104
C43	C	-0.171064	-0.978942	0.000096
C44	C	-0.207489	-1.059940	0.000097
O45	O	-0.259327	-0.907878	0.000101
O46	O	-0.284253	-1.209619	0.000087
C47	C	0.182773	-1.048453	0.000066
C48	C	0.245996	-1.049655	0.000052
N49	N	0.078650	-1.055890	0.235447
C50	C	0.132824	-0.735288	0.000052
C51	C	0.131701	-0.642001	0.000067
C52	C	0.079267	-0.606482	0.000085
C53	C	0.027952	-0.664257	0.000099
C54	C	0.029075	-0.757543	0.000091
C55	C	0.025615	-0.469819	0.000113
C56	C	0.024491	-0.376527	0.000119
C57	C	0.128241	-0.354277	0.000089
C58	C	0.129364	-0.447563	0.000081
C59	C	0.078049	-0.505331	0.000093
N60	N	0.078661	-1.055933	-0.235267
C61	C	0.039991	-1.117060	0.287502
C62	C	0.039990	-1.117066	0.391605
C63	C	0.078652	-1.055904	0.443651
C64	C	0.117313	-0.994728	0.391589
C65	C	0.117310	-0.994718	0.287488
C66	C	0.117317	-0.994752	0.608569
C67	C	0.117320	-0.994762	0.712678
C68	C	0.039997	-1.117100	0.712686
C69	C	0.039994	-1.117090	0.608585
C70	C	0.078656	-1.055914	0.556530
H71	H	-0.106405	-1.210008	0.000144
H72	H	0.008517	-1.166911	0.755076
H73	H	-0.456279	-0.825402	0.000008
N74	N	0.156810	-0.932254	0.555410
N75	N	0.191328	-0.877652	0.601888
H76	H	0.219222	-0.833515	0.564345
N77	N	-0.501702	-1.301164	0.000117
N78	N	-0.554741	-1.300175	0.000126
H79	H	-0.581020	-1.358602	0.000155
N80	N	-0.023337	-0.816555	0.000121
N81	N	-0.058194	-0.813589	0.069851
H82	H	-0.095211	-0.855267	0.069879
N83	N	-0.029067	-0.340241	0.000164
N84	N	-0.041260	-0.290667	0.069887
H85	H	-0.079086	-0.265038	0.069921
H86	H	-0.016172	-0.516853	0.000124
H87	H	0.008510	-1.166868	0.245133
H88	H	0.008515	-1.166897	0.566209
N89	N	0.156809	-0.932273	0.765828
N90	N	0.191317	-0.877646	0.719342
H91	H	0.219204	-0.833507	0.756879
N92	N	0.180661	-0.295279	0.000109
N93	N	0.215515	-0.298263	0.069815
H94	H	0.252537	-0.256594	0.069829
H95	H	0.008511	-1.166875	0.433988
H96	H	0.148790	-0.944924	0.433971
N97	N	-0.194532	-0.895071	0.000066
N98	N	-0.226162	-0.876255	-0.069663
H99	H	-0.242732	-0.817019	-0.069693
N100	N	-0.221706	-1.224778	0.000132
N101	N	-0.219574	-1.279486	0.069859
H102	H	-0.245841	-1.337925	0.069879
N103	N	0.182917	-0.483863	0.000053
N104	N	0.195115	-0.533437	-0.069667
H105	H	0.232937	-0.559078	-0.069685
H106	H	0.148789	-0.944906	0.245105
H107	H	-0.386390	-1.286419	0.000110
N108	N	0.186390	-0.771550	0.000024
N109	N	0.232199	-0.719957	0.000017
H110	H	0.270032	-0.745563	-0.000001
H111	H	0.173484	-0.594969	0.000057
N112	N	-0.648163	-1.216759	0.000090
N113	N	-0.680699	-1.289055	0.000105
H114	H	-0.664137	-1.348298	0.000121
N115	N	-0.768229	-1.214497	0.000053
N116	N	-0.747714	-1.287802	0.000056
H117	H	-0.773992	-1.346230	0.000046
N118	N	-0.741047	-0.884809	0.000052
N119	N	-0.772704	-0.865981	0.069760
H120	H	-0.789281	-0.806751	0.069759
N121	N	-0.620973	-0.887048	0.000030
N122	N	-0.641502	-0.813754	0.000021
H123	H	-0.615234	-0.755317	0.000010
N124	N	-0.340978	-0.810648	0.000000
N125	N	-0.361504	-0.737352	-0.000022
H126	H	-0.335234	-0.678917	-0.000042
H127	H	-0.014741	-0.635331	0.000128
H128	H	-0.081994	-0.914118	0.000101
