data_functionalizedCrystal
_audit_creation_method	'MofGen! by Chris Wilmer'
_symmetry_space_group_name_H-M	'P1'
_symmetry_Int_Tables_number	1
_symmetry_cell_setting	triclinic
loop_
_symmetry_equiv_pos_as_xyz
  x,y,z
_cell_length_a	6.817900
_cell_length_b	9.582889
_cell_length_c	14.125465
_cell_angle_alpha	93.994381
_cell_angle_beta	100.398878
_cell_angle_gamma	111.207298
loop_
_atom_site_label
_atom_site_type_symbol
_atom_site_fract_x
_atom_site_fract_y
_atom_site_fract_z
V1	V	-4.031036	-0.205771	-0.299801
V2	V	-3.697703	0.127562	0.033532
V3	V	-3.364369	0.460896	0.366865
O4	O	-3.977344	0.011211	-0.294276
O5	O	-3.644011	0.344544	0.039058
O6	O	-3.310678	0.677878	0.372391
O7	O	-4.022075	-0.409281	-0.297577
O8	O	-3.688742	-0.075948	0.035757
O9	O	-3.355409	0.257385	0.369090
O10	O	-3.966455	-0.202025	-0.430635
O11	O	-3.633122	0.131308	-0.097301
O12	O	-3.299789	0.464641	0.236032
O13	O	-4.033349	-0.197480	-0.160296
O14	O	-3.700016	0.135853	0.173037
O15	O	-3.366683	0.469187	0.506370
V16	V	-4.511650	-0.179886	-0.283137
V17	V	-4.178317	0.153447	0.050197
V18	V	-3.844984	0.486781	0.383530
O19	O	-4.298675	-0.262552	-0.336357
O20	O	-3.965342	0.070782	-0.003023
O21	O	-3.632009	0.404115	0.330310
O22	O	-4.694209	-0.123105	-0.246581
O23	O	-4.360875	0.210228	0.086752
O24	O	-4.027542	0.543561	0.420086
O25	O	-4.297405	0.023625	-0.285361
O26	O	-3.964071	0.356958	0.047972
O27	O	-3.630738	0.690291	0.381305
O28	O	-4.682739	-0.396868	-0.288662
O29	O	-4.349406	-0.063535	0.044671
O30	O	-4.016073	0.269799	0.378004
O31	O	-4.626734	-0.188177	-0.422641
O32	O	-4.293401	0.145156	-0.089308
O33	O	-3.960067	0.478490	0.244025
O34	O	-4.353025	-0.183632	-0.152303
O35	O	-4.019691	0.149702	0.181030
O36	O	-3.686358	0.483035	0.514363
C37	C	-3.877194	-0.458911	-0.292802
C38	C	-3.543861	-0.125578	0.040531
C39	C	-3.210528	0.207756	0.373865
C40	C	-3.951047	-0.625280	-0.291855
C41	C	-3.617713	-0.291947	0.041478
C42	C	-3.284380	0.041387	0.374812
C43	C	-3.806244	-0.194533	-0.462530
C44	C	-3.472911	0.138800	-0.129196
C45	C	-3.139577	0.472133	0.204137
C46	C	-3.834986	-0.192817	-0.569485
C47	C	-3.501653	0.140516	-0.236152
C48	C	-3.168320	0.473849	0.097181
C49	C	-3.887669	-0.189671	-0.765311
C50	C	-3.554336	0.143662	-0.431978
C51	C	-3.221003	0.476996	-0.098644
C52	C	-4.074385	-0.195983	-0.817627
C53	C	-3.741052	0.137350	-0.484294
C54	C	-3.407719	0.470684	-0.150960
C55	C	-4.103701	-0.194232	-0.926591
C56	C	-3.770367	0.139101	-0.593258
C57	C	-3.437034	0.472435	-0.259924
C58	C	-3.858346	-0.191422	-0.656337
C59	C	-3.525013	0.141912	-0.323003
C60	C	-3.191679	0.475245	0.010330
C61	C	-4.105630	0.073246	-0.290133
C62	C	-3.772296	0.406580	0.043200
C63	C	-3.438963	0.739913	0.376533
C64	C	-4.011015	0.239614	-0.291086
C65	C	-3.677682	0.572947	0.042247
C66	C	-3.344348	0.906280	0.375580
C67	C	-4.176580	-0.191128	-0.120403
C68	C	-3.843246	0.142205	0.212930
C69	C	-3.509913	0.475538	0.546263
C70	C	-4.127074	-0.192837	-0.013447
C71	C	-3.793741	0.140497	0.319887
C72	C	-3.460408	0.473830	0.653220
H73	H	-4.212229	-0.202717	-0.780583
H74	H	-3.878895	0.130616	-0.447249
H75	H	-3.545562	0.463949	-0.113916
H76	H	-3.749846	-0.182954	-0.802355
H77	H	-3.416512	0.150379	-0.469021
H78	H	-3.083179	0.483713	-0.135688
