data_functionalizedCrystal
_audit_creation_method	'MofGen! by Chris Wilmer'
_symmetry_space_group_name_H-M	'P1'
_symmetry_Int_Tables_number	1
_symmetry_cell_setting	triclinic
loop_
_symmetry_equiv_pos_as_xyz
  x,y,z
_cell_length_a	6.817900
_cell_length_b	19.551823
_cell_length_c	10.992410
_cell_angle_alpha	94.485119
_cell_angle_beta	108.764651
_cell_angle_gamma	101.663376
loop_
_atom_site_label
_atom_site_type_symbol
_atom_site_fract_x
_atom_site_fract_y
_atom_site_fract_z
V1	V	-4.078420	-0.096675	-0.401194
O2	O	-4.074098	0.004646	-0.392939
O3	O	-4.020787	-0.191690	-0.399044
O4	O	-4.056564	-0.095188	-0.575897
O5	O	-4.038073	-0.092525	-0.214862
V6	V	-4.559806	-0.084556	-0.378835
O7	O	-4.344369	-0.123259	-0.450240
O8	O	-4.744055	-0.057972	-0.329788
O9	O	-4.394233	0.010459	-0.380984
O10	O	-4.681525	-0.185876	-0.387090
O11	O	-4.717550	-0.088706	-0.565167
O12	O	-4.358456	-0.086043	-0.204132
C13	C	-3.862682	-0.214853	-0.392869
C14	C	-3.897024	-0.292529	-0.392276
C15	C	-4.095899	-0.332575	-0.398422
C16	C	-4.128173	-0.405561	-0.397879
C17	C	-3.961548	-0.438496	-0.391162
C18	C	-3.762648	-0.398442	-0.385022
C19	C	-3.730386	-0.325458	-0.385579
C20	C	-3.835941	-0.544984	-0.309690
C21	C	-3.868206	-0.617965	-0.309125
C22	C	-4.061050	-0.663602	-0.389449
C23	C	-4.221650	-0.636247	-0.470323
C24	C	-4.189388	-0.563263	-0.470880
C25	C	-3.996510	-0.517634	-0.390558
C26	C	-4.294934	-0.782788	-0.395008
C27	C	-4.327205	-0.855776	-0.394472
C28	C	-3.961667	-0.848654	-0.381602
C29	C	-3.929408	-0.775669	-0.382152
C30	C	-4.096046	-0.742740	-0.388849
C31	C	-3.908318	-0.091754	-0.618460
C32	C	-3.971670	-0.091166	-0.761285
C33	C	-3.840776	-0.085817	-0.956375
C34	C	-3.774892	-0.086717	-0.807897
C35	C	-4.144154	-0.160061	-0.838817
C36	C	-4.208693	-0.159452	-0.987380
C37	C	-4.135899	-0.026047	-0.948519
C38	C	-4.065311	-0.025720	-0.799504
C39	C	-4.215678	0.033618	-0.387156
C40	C	-4.160576	0.111294	-0.387757
C41	C	-4.170042	-0.089479	-0.161562
C42	C	-4.085929	-0.090063	-0.018736
H43	H	-4.430619	-0.755975	-0.400459
H44	H	-3.737440	-0.640231	-0.243265
H45	H	-3.767460	-0.743062	-0.377138
O46	O	-4.164232	-0.223649	-1.049065
H47	H	-4.258681	-0.272203	-1.029870
H48	H	-3.742058	-0.035938	-0.974894
O49	O	-3.582935	-0.433964	-0.377783
H50	H	-3.439222	-0.393854	-0.373615
H51	H	-4.489161	-0.888381	-0.399486
O52	O	-4.446831	-0.167390	-1.043917
H53	H	-4.515431	-0.171652	-0.965126
O54	O	-4.429651	-0.685464	-0.556965
H55	H	-4.563318	-0.671842	-0.531371
O56	O	-3.781935	-0.884165	-0.374360
H57	H	-3.837774	-0.941643	-0.374999
H58	H	-4.292401	-0.165805	-0.810050
O59	O	-3.627941	-0.495762	-0.223042
H60	H	-3.521707	-0.527042	-0.166697
O61	O	-3.515871	-0.282258	-0.378941
H62	H	-3.405417	-0.317418	-0.374175
O63	O	-3.602534	-0.021107	-0.736819
H64	H	-3.565591	0.011551	-0.808431
O65	O	-4.059692	-0.224430	-0.805325
H66	H	-4.019936	-0.225787	-0.699512
H67	H	-4.052374	0.026270	-0.968552
H68	H	-3.940945	0.025245	-0.746830
O69	O	-3.785135	-0.146742	-1.020310
H70	H	-3.931327	-0.180035	-1.096306
O71	O	-4.253912	-0.024626	-0.756398
H72	H	-4.284001	-0.070924	-0.706853
H73	H	-4.290126	-0.438172	-0.402883
O74	O	-3.676260	-0.148490	-0.775392
H75	H	-3.675509	-0.177841	-0.865787
O76	O	-4.371742	-0.029348	-1.002646
H77	H	-4.453055	-0.076327	-1.079180
H78	H	-4.320154	-0.540994	-0.536731
O79	O	-4.275663	-0.297074	-0.405674
H80	H	-4.227047	-0.256534	-0.318214
