data_functionalizedCrystal
_audit_creation_method	'MofGen! by Chris Wilmer'
_symmetry_space_group_name_H-M	'P1'
_symmetry_Int_Tables_number	1
_symmetry_cell_setting	triclinic
loop_
_symmetry_equiv_pos_as_xyz
  x,y,z
_cell_length_a	15.995350
_cell_length_b	10.654550
_cell_length_c	9.130313
_cell_angle_alpha	90.000110
_cell_angle_beta	89.996588
_cell_angle_gamma	83.988639
loop_
_atom_site_label
_atom_site_type_symbol
_atom_site_fract_x
_atom_site_fract_y
_atom_site_fract_z
O1	O	-1.111921	-0.161867	-0.121671
O2	O	-0.868262	-0.181857	-0.121701
O3	O	-0.995693	0.010950	-0.121680
O4	O	-0.984489	-0.354674	-0.121692
O5	O	-0.995692	0.010945	0.121919
O6	O	-0.868260	-0.181862	0.121898
O7	O	-1.111919	-0.161873	0.121927
Cu8	Cu	-0.990089	-0.171868	0.144155
Cu9	Cu	-0.990091	-0.171862	-0.143929
O10	O	-0.984487	-0.354680	0.121906
C11	C	-0.837061	-0.181033	0.000095
C12	C	-0.744096	-0.178555	0.000083
C13	C	-0.994870	0.057735	0.000117
C14	C	-0.992409	0.197146	0.000112
C15	C	-1.143119	-0.162696	0.000129
C16	C	-1.236084	-0.165174	0.000130
C17	C	-0.406297	-0.169658	0.000114
C18	C	-0.452934	-0.032344	0.000662
C19	C	-0.549639	-0.034822	0.000103
C20	C	-0.573883	-0.174071	0.000100
C21	C	-0.533190	-0.241796	-0.139004
C22	C	-0.436535	-0.238347	-0.139110
C23	C	-0.436210	-0.241190	0.137907
C24	C	-0.533156	-0.241157	0.139736
C25	C	-0.668595	-0.176573	0.000086
C26	C	-0.311585	-0.167161	0.000117
C27	C	-0.985311	-0.401464	0.000106
C28	C	-0.987772	-0.540875	0.000101
N29	N	-0.990094	-0.171871	0.346778
C30	C	-1.067438	0.277612	0.000126
C31	C	-1.065121	0.408603	0.000115
C32	C	-0.912737	0.378648	0.000084
C33	C	-0.915055	0.247660	0.000084
C34	C	-1.155416	0.294907	0.000150
C35	C	-1.153098	0.425897	0.000140
N36	N	-0.990093	-0.171848	-0.346551
C37	C	-1.046536	-0.086525	0.423439
C38	C	-1.046533	-0.086510	0.576776
C39	C	-0.933646	-0.257198	0.576777
C40	C	-0.933644	-0.257206	0.423443
C41	C	-1.111713	0.012017	0.423440
C42	C	-1.111711	0.012032	0.576777
H43	H	-0.577758	0.018413	0.099818
H44	H	-1.097417	0.108363	0.381821
H45	H	-0.887685	-0.326675	0.639214
H46	H	-0.405037	-0.342430	0.138846
N47	N	-1.187964	-0.025405	0.363796
N48	N	-1.245068	-0.053417	0.447354
H49	H	-1.298917	-0.079865	0.405231
N50	N	-0.838407	0.165484	0.000044
N51	N	-0.769351	0.210606	0.000019
H52	H	-0.715213	0.152570	-0.000010
N53	N	-0.551656	-0.370133	-0.145483
N54	N	-0.595118	-0.413216	-0.047418
H55	H	-0.608161	-0.503855	-0.051989
N56	N	-1.086193	0.126121	0.636463
N57	N	-1.082997	0.140381	0.772165
H58	H	-1.064969	0.220950	0.814324
H59	H	-1.176054	-0.008646	0.618400
H60	H	-1.189828	0.266000	-0.101784
N61	N	-0.568471	-0.182806	-0.268863
N62	N	-0.623572	-0.090901	-0.259325
H63	H	-0.648498	-0.049243	-0.351035
H64	H	-0.849758	0.419794	0.000059
H65	H	-1.179687	0.471890	-0.105036
H66	H	-0.434092	0.022541	0.100419
N67	N	-1.194679	0.478816	0.128036
N68	N	-1.225869	0.408679	0.218159
H69	H	-1.255233	0.446051	0.308485
N70	N	-0.584217	0.032397	-0.125203
N71	N	-0.661740	0.042250	-0.147390
H72	H	-0.686162	0.089727	-0.235892
N73	N	-1.190546	0.250656	0.132108
N74	N	-1.156730	0.268642	0.252653
H75	H	-1.181538	0.237389	0.345853
H76	H	-0.433024	0.022293	-0.098541
H77	H	-0.417940	-0.188954	-0.243091
H78	H	-0.404872	-0.339160	-0.145425
H79	H	-0.887678	-0.326691	0.361026
H80	H	-0.415414	-0.196301	0.243344
H81	H	-0.560185	-0.191718	0.242644
H82	H	-0.549110	-0.342702	0.148136
