data_functionalizedCrystal
_audit_creation_method	'MofGen! by Chris Wilmer'
_symmetry_space_group_name_H-M	'P1'
_symmetry_Int_Tables_number	1
_symmetry_cell_setting	triclinic
loop_
_symmetry_equiv_pos_as_xyz
  x,y,z
_cell_length_a	14.971486
_cell_length_b	14.044220
_cell_length_c	14.048226
_cell_angle_alpha	89.992807
_cell_angle_beta	89.998499
_cell_angle_gamma	88.401503
loop_
_atom_site_label
_atom_site_type_symbol
_atom_site_fract_x
_atom_site_fract_y
_atom_site_fract_z
O1	O	1.196679	0.123538	-0.079053
O2	O	1.696679	0.623538	0.420947
O3	O	0.937444	0.138332	-0.079079
O4	O	1.437444	0.638332	0.420921
O5	O	1.063171	-0.007054	-0.079057
O6	O	1.563171	0.492946	0.420943
O7	O	1.070953	0.268924	-0.079075
O8	O	1.570953	0.768924	0.420925
O9	O	1.063153	-0.007063	0.079264
O10	O	1.563153	0.492937	0.579264
O11	O	0.937427	0.138323	0.079242
O12	O	1.437427	0.638323	0.579242
O13	O	1.196662	0.123529	0.079268
O14	O	1.696662	0.623529	0.579268
Zn15	Zn	1.067042	0.130925	0.104392
Zn16	Zn	1.567042	0.630925	0.604392
Zn17	Zn	1.067064	0.130936	-0.104203
Zn18	Zn	1.567064	0.630936	0.395797
O19	O	1.070936	0.268915	0.079246
O20	O	1.570936	0.768915	0.579246
C21	C	0.904059	0.137666	0.000078
C22	C	1.404059	0.637666	0.500078
C23	C	0.804606	0.135683	0.000069
C24	C	1.304606	0.635683	0.500069
C25	C	0.754109	0.221093	0.000064
C26	C	1.254109	0.721093	0.500064
C27	C	0.660662	0.219225	0.000079
C28	C	1.160662	0.719225	0.500079
C29	C	0.617714	0.131945	0.000090
C30	C	1.117714	0.631945	0.500090
C31	C	0.668218	0.046528	0.000097
C32	C	1.168218	0.546528	0.500097
C33	C	0.761663	0.048398	0.000090
C34	C	1.261663	0.548398	0.500090
C35	C	0.473449	0.042638	0.000111
C36	C	0.973449	0.542638	0.500111
C37	C	0.379997	0.040767	0.000117
C38	C	0.879997	0.540767	0.500117
C39	C	0.372448	0.213465	0.000100
C40	C	0.872448	0.713465	0.500100
C41	C	0.465893	0.215334	0.000092
C42	C	0.965893	0.715334	0.500092
C43	C	0.516390	0.129917	0.000097
C44	C	1.016390	0.629917	0.500097
C45	C	1.059755	-0.042377	0.000104
C46	C	1.559755	0.457623	0.500104
C47	C	1.049594	-0.147614	0.000104
C48	C	1.549594	0.352386	0.500104
C49	C	1.031018	-0.340297	0.000088
C50	C	1.531018	0.159703	0.500088
C51	C	1.103085	-0.397848	0.000093
C52	C	1.603085	0.102152	0.500093
C53	C	1.092748	-0.505063	0.000084
C54	C	1.592748	-0.005063	0.500084
C55	C	1.041353	-0.233071	0.000097
C56	C	1.541353	0.266929	0.500097
C57	C	1.230047	0.124195	0.000109
C58	C	1.730047	0.624195	0.500109
C59	C	1.329501	0.126178	0.000112
C60	C	1.829501	0.626178	0.500112
C61	C	1.074351	0.304238	0.000083
C62	C	1.574351	0.804238	0.500083
C63	C	1.084512	0.409475	0.000077
C64	C	1.584512	0.909475	0.500077
N65	N	1.067033	0.130916	0.246753
N66	N	1.567033	0.630916	0.746753
N67	N	1.067080	0.130937	-0.246564
N68	N	1.567080	0.630937	0.253436
C69	C	1.122726	0.066566	0.296581
C70	C	1.622726	0.566566	0.796581
C71	C	1.122732	0.066566	0.396238
C72	C	1.622732	0.566566	0.896238
C73	C	1.067049	0.130921	0.446066
C74	C	1.567049	0.630921	0.946066
C75	C	1.011350	0.195274	0.396232
C76	C	1.511350	0.695274	0.896232
C77	C	1.011340	0.195269	0.296576
C78	C	1.511340	0.695269	0.796576
C79	C	1.011376	0.195281	0.603946
C80	C	1.511376	0.695281	1.103946
C81	C	1.011387	0.195287	0.703609
C82	C	1.511387	0.695287	1.203609
C83	C	1.122768	0.066577	0.703608
C84	C	1.622768	0.566577	1.203608
C85	C	1.122758	0.066573	0.603953
C86	C	1.622758	0.566573	1.103953
C87	C	1.067060	0.130927	0.554125
C88	C	1.567060	0.630927	1.054125
H89	H	0.514561	-0.026919	0.000117
H90	H	1.014561	0.473081	0.500117
H91	H	0.802776	-0.021152	0.000093
H92	H	1.302776	0.478848	0.500093
C93	C	0.945034	-0.482063	0.000087
C94	C	1.445034	0.017937	0.500087
C95	C	0.937251	-0.382476	0.000087
C96	C	1.437251	0.117524	0.500087
H97	H	0.887147	-0.508109	0.000096
H98	H	1.387147	-0.008109	0.500096
H99	H	0.976606	-0.502803	-0.055121
H100	H	1.476606	-0.002803	0.444879
H101	H	0.976617	-0.502817	0.055299
H102	H	1.476617	-0.002817	0.555299
H103	H	0.905675	-0.361722	-0.055129
H104	H	1.405675	0.138278	0.444871
H105	H	0.905666	-0.361727	0.055302
H106	H	1.405666	0.138273	0.555302
C107	C	0.566578	0.317618	-0.081342
C108	C	1.066578	0.817618	0.418658
C109	C	0.513095	0.311278	0.000059
C110	C	1.013095	0.811278	0.500059
H111	H	0.595710	0.376854	-0.081367
H112	H	1.095710	0.876854	0.418633
H113	H	0.610026	0.267027	-0.081328
H114	H	1.110026	0.767027	0.418672
H115	H	0.530263	0.313286	-0.136537
H116	H	1.030263	0.813286	0.363463
H117	H	0.549410	0.315602	0.055254
H118	H	1.049410	0.815602	0.555254
H119	H	0.469641	0.361883	0.000054
H120	H	0.969641	0.861883	0.500054
H121	H	1.168073	0.014165	0.256017
H122	H	1.668073	0.514165	0.756017
H123	H	0.965988	0.247669	0.256007
H124	H	1.465988	0.747669	0.756007
C125	C	0.225856	0.287291	0.000111
C126	C	0.725856	0.787291	0.500111
C127	C	0.316945	0.307358	0.000095
C128	C	0.816945	0.807358	0.500095
H129	H	0.191590	0.345256	0.000109
H130	H	0.691590	0.845256	0.500109
H131	H	0.212095	0.251510	-0.055088
H132	H	0.712095	0.751510	0.444912
H133	H	0.212106	0.251509	0.055333
H134	H	0.712106	0.751509	0.555333
H135	H	0.330697	0.343134	-0.055131
H136	H	0.830697	0.843134	0.444869
H137	H	0.330712	0.343155	0.055299
H138	H	0.830712	0.843155	0.555299
C139	C	1.261494	-0.429680	0.000121
C140	C	1.761494	0.070320	0.500121
C141	C	1.196858	-0.355671	0.000115
C142	C	1.696858	0.144329	0.500115
H143	H	1.319382	-0.403637	0.000132
H144	H	1.819382	0.096363	0.500132
H145	H	1.254461	-0.467804	0.055322
H146	H	1.754461	0.032196	0.555322
H147	H	1.254480	-0.467783	-0.055099
H148	H	1.754480	0.032217	0.444901
H149	H	1.203867	-0.317572	0.055339
H150	H	1.703867	0.182428	0.555339
H151	H	1.203894	-0.317532	-0.055092
H152	H	1.703894	0.182468	0.444908
H153	H	1.168080	0.014166	0.436808
H154	H	1.668080	0.514166	0.936808
H155	H	1.168104	0.014175	0.563383
H156	H	1.668104	0.514175	1.063383
C157	C	0.901290	0.322520	0.613951
C158	C	1.401290	0.822520	1.113951
C159	C	0.950157	0.266025	0.549173
C160	C	1.450157	0.766025	1.049173
H161	H	0.863505	0.366199	0.580134
H162	H	1.363505	0.866199	1.080134
H163	H	0.865967	0.283007	0.652828
H164	H	1.365967	0.783007	1.152828
H165	H	0.941259	0.356679	0.652813
H166	H	1.441259	0.856679	1.152813
H167	H	0.910187	0.231860	0.510315
H168	H	1.410187	0.731860	1.010315
H169	H	0.985482	0.305543	0.510280
H170	H	1.485482	0.805543	1.010280
H171	H	0.619551	0.288775	0.000074
H172	H	1.119551	0.788775	0.500074
H173	H	1.168119	0.014178	0.744184
H174	H	1.668119	0.514178	1.244184
H175	H	0.789070	0.292167	0.000054
H176	H	1.289070	0.792167	0.500054
H177	H	0.966043	0.247691	0.744173
H178	H	1.466043	0.747691	1.244173
H179	H	0.345032	-0.030303	0.000127
H180	H	0.845032	0.469697	0.500127
C181	C	0.567516	-0.055758	-0.081278
C182	C	1.067516	0.444242	0.418722
C183	C	0.621012	-0.049413	0.000108
C184	C	1.121012	0.450587	0.500108
H185	H	0.538379	-0.114992	-0.081274
H186	H	1.038379	0.385008	0.418726
H187	H	0.524071	-0.005164	-0.081272
H188	H	1.024071	0.494836	0.418728
H189	H	0.603822	-0.051435	-0.136483
H190	H	1.103822	0.448565	0.363517
H191	H	0.584704	-0.053729	0.055313
H192	H	1.084704	0.446271	0.555313
H193	H	0.664462	-0.100021	0.000111
H194	H	1.164462	0.399979	0.500111
H195	H	0.966007	0.247670	0.436807
H196	H	1.466007	0.747670	0.936807
