data_functionalizedCrystal
_audit_creation_method	'MofGen! by Chris Wilmer'
_symmetry_space_group_name_H-M	'P1'
_symmetry_Int_Tables_number	1
_symmetry_cell_setting	triclinic
loop_
_symmetry_equiv_pos_as_xyz
  x,y,z
_cell_length_a	23.532407
_cell_length_b	14.044220
_cell_length_c	22.010155
_cell_angle_alpha	89.998205
_cell_angle_beta	90.009040
_cell_angle_gamma	88.018778
loop_
_atom_site_label
_atom_site_type_symbol
_atom_site_fract_x
_atom_site_fract_y
_atom_site_fract_z
O1	O	-0.761502	-0.114999	-0.050450
O2	O	-0.596540	-0.131640	-0.050468
O3	O	-0.676545	0.014642	-0.050454
O4	O	-0.681497	-0.261280	-0.050465
O5	O	-0.676520	0.014625	0.050597
O6	O	-0.596516	-0.131657	0.050582
O7	O	-0.761477	-0.115016	0.050600
Cu8	Cu	-0.678994	-0.123338	0.059818
Cu9	Cu	-0.679023	-0.123318	-0.059686
O10	O	-0.681472	-0.261298	0.050585
C11	C	-0.575289	-0.131224	0.000054
C12	C	-0.512003	-0.129950	0.000048
C13	C	-0.782728	-0.115431	0.000076
C14	C	-0.846014	-0.116705	0.000078
C15	C	-0.674365	0.049928	0.000071
C16	C	-0.667899	0.155093	0.000072
C17	C	-0.117159	-0.208526	0.000072
C18	C	-0.057694	-0.207342	0.000076
O19	O	-0.024898	-0.280182	0.000095
N20	N	-0.030354	-0.120378	0.000078
C21	C	-0.062482	-0.034591	0.000083
O22	O	-0.033767	0.039488	0.000087
C23	C	-0.121946	-0.035776	0.000084
C24	C	-0.149282	-0.122746	0.000075
C25	C	-0.144495	-0.295489	0.000064
C26	C	-0.203956	-0.296672	0.000059
C27	C	-0.236079	-0.210892	0.000062
C28	C	-0.208742	-0.123929	0.000070
C29	C	-0.154072	0.050010	0.000093
C30	C	-0.213539	0.048818	0.000094
C31	C	-0.240876	-0.038152	0.000086
C32	C	-0.300326	-0.039332	0.000069
N33	N	-0.327666	-0.126297	0.000066
C34	C	-0.295542	-0.212076	0.000063
C35	C	0.062395	-0.032110	0.000083
C36	C	0.121857	-0.030925	0.000078
C37	C	0.126641	-0.203676	0.000072
C38	C	0.067178	-0.204861	0.000072
C39	C	0.035055	-0.119075	0.000081
C40	C	-0.420413	-0.214555	0.000052
C41	C	-0.479879	-0.215730	0.000045
C42	C	-0.484658	-0.042979	0.000054
C43	C	-0.425198	-0.041803	0.000058
C44	C	-0.393076	-0.127599	0.000059
O45	O	-0.333159	0.033470	0.000052
O46	O	-0.324265	-0.286143	0.000068
C47	C	-0.683652	-0.296583	0.000059
C48	C	-0.690118	-0.401748	0.000055
N49	N	-0.678978	-0.123351	0.143870
C50	C	-0.656078	0.347643	0.000061
C51	C	-0.701937	0.405708	0.000065
C52	C	-0.695359	0.512849	0.000059
C53	C	-0.662654	0.240491	0.000067
N54	N	-0.679043	-0.123296	-0.143739
C55	C	-0.641567	-0.066139	0.436474
C56	C	-0.641563	-0.066144	0.372866
O57	O	-0.609733	-0.017502	0.339967
N58	N	-0.678999	-0.123322	0.341054
C59	C	-0.716446	-0.180492	0.372853
O60	O	-0.748288	-0.229127	0.339954
C61	C	-0.716453	-0.180482	0.436460
C62	C	-0.679011	-0.123307	0.468268
C63	C	-0.604128	-0.008968	0.468282
C64	C	-0.604133	-0.008966	0.531885
C65	C	-0.641576	-0.066134	0.563680
C66	C	-0.679015	-0.123305	0.531872
C67	C	-0.753903	-0.237647	0.468258
C68	C	-0.753907	-0.237631	0.531869
C69	C	-0.716464	-0.180457	0.563677
C70	C	-0.716462	-0.180470	0.627269
N71	N	-0.679026	-0.123292	0.659081
C72	C	-0.641583	-0.066124	0.627286
C73	C	-0.716429	-0.180508	0.239276
C74	C	-0.716419	-0.180524	0.175670
C75	C	-0.641536	-0.066173	0.175687
C76	C	-0.641544	-0.066163	0.239294
C77	C	-0.678993	-0.123330	0.271087
C78	C	-0.641594	-0.066123	0.760858
C79	C	-0.641600	-0.066128	0.824467
C80	C	-0.716485	-0.180474	0.824444
C81	C	-0.716477	-0.180473	0.760841
C82	C	-0.679030	-0.123290	0.729049
O83	O	-0.748277	-0.229084	0.660208
O84	O	-0.609751	-0.017488	0.660193
H85	H	-0.502134	-0.286555	0.000037
C86	C	-0.520005	0.051374	0.000065
N87	N	-0.546630	0.122441	0.000079
H88	H	-0.746958	-0.227043	0.734941
C89	C	-0.562945	0.053936	0.566866
N90	N	-0.531921	0.101318	0.593210
C91	C	-0.596368	0.389190	0.000063
N92	N	-0.551395	0.420494	0.000069
H93	H	-0.118346	-0.365345	0.000064
C94	C	-0.234018	-0.392347	0.000062
N95	N	-0.256657	-0.464414	0.000070
C96	C	-0.757605	-0.243428	0.140688
N97	N	-0.788630	-0.290804	0.114342
C98	C	-0.757616	-0.243422	0.274243
N99	N	-0.788636	-0.290814	0.300577
H100	H	-0.611048	-0.019624	0.149788
C101	C	0.027065	0.062268	0.000082
N102	N	0.000457	0.133353	0.000081
H103	H	-0.746969	-0.227021	0.850343
H104	H	0.044924	-0.275679	0.000069
C105	C	-0.385089	-0.308934	0.000050
N106	N	-0.358483	-0.380021	0.000043
C107	C	-0.600409	-0.003228	0.859452
N108	N	-0.569386	0.044148	0.885801
H109	H	-0.784393	-0.284203	0.442370
H110	H	-0.611101	-0.019559	0.734981
H111	H	-0.573637	0.037590	0.442402
C112	C	-0.600358	-0.003262	0.274277
N113	N	-0.569336	0.044121	0.300623
H114	H	0.152807	-0.273523	0.000072
C115	C	0.151920	0.064749	0.000084
N116	N	0.174562	0.136814	0.000093
C117	C	-0.124016	0.145685	0.000115
N118	N	-0.101378	0.217754	0.000136
C119	C	-0.761651	0.364161	0.000080
N120	N	-0.806626	0.332864	0.000094
C121	C	-0.795102	-0.300526	0.566838
N122	N	-0.826128	-0.347902	0.593175
H123	H	-0.239691	0.118677	0.000102
H124	H	-0.402939	0.029015	0.000057
