data_functionalizedCrystal
_audit_creation_method	'MofGen! by Chris Wilmer'
_symmetry_space_group_name_H-M	'P1'
_symmetry_Int_Tables_number	1
_symmetry_cell_setting	triclinic
loop_
_symmetry_equiv_pos_as_xyz
  x,y,z
_cell_length_a	16.120530
_cell_length_b	18.101395
_cell_length_c	16.120297
_cell_angle_alpha	87.130194
_cell_angle_beta	89.871860
_cell_angle_gamma	87.127367
loop_
_atom_site_label
_atom_site_type_symbol
_atom_site_fract_x
_atom_site_fract_y
_atom_site_fract_z
Zn1	Zn	1.247379	-0.375189	0.534544
Zn2	Zn	1.580712	-0.041855	0.867877
Zn3	Zn	1.914046	0.291478	1.201211
Zn4	Zn	1.254311	-0.493081	0.395480
Zn5	Zn	1.587644	-0.159747	0.728813
Zn6	Zn	1.920977	0.173586	1.062147
Zn7	Zn	1.115371	-0.362675	0.388463
Zn8	Zn	1.448705	-0.029341	0.721796
Zn9	Zn	1.782038	0.303992	1.055129
Zn10	Zn	1.108267	-0.492399	0.527449
Zn11	Zn	1.441600	-0.159065	0.860783
Zn12	Zn	1.774934	0.174268	1.194116
O13	O	1.181332	-0.430836	0.461484
O14	O	1.514665	-0.097502	0.794817
O15	O	1.847999	0.235831	1.128151
O16	O	1.364664	-0.396350	0.522003
O17	O	1.697997	-0.063017	0.855336
O18	O	2.031331	0.270317	1.188669
O19	O	1.241754	-0.470830	0.278184
O20	O	1.575087	-0.137497	0.611517
O21	O	1.908421	0.195836	0.944851
O22	O	1.132955	-0.260707	0.407873
O23	O	1.466288	0.072627	0.741207
O24	O	1.799622	0.405960	1.074540
O25	O	1.369756	-0.482965	0.419833
O26	O	1.703090	-0.149631	0.753166
O27	O	2.036423	0.183702	1.086500
O28	O	1.229940	-0.269901	0.515199
O29	O	1.563274	0.063433	0.848532
O30	O	1.896607	0.396766	1.181865
O31	O	1.139676	-0.375022	0.273028
O32	O	1.473009	-0.041688	0.606362
O33	O	1.806343	0.291645	0.939695
O34	O	0.998064	-0.374360	0.400994
O35	O	1.331397	-0.041027	0.734327
O36	O	1.664730	0.292306	1.067660
O37	O	1.120847	-0.481802	0.644756
O38	O	1.454180	-0.148469	0.978089
O39	O	1.787513	0.184864	1.311422
O40	O	0.992844	-0.469668	0.503107
O41	O	1.326177	-0.136335	0.836440
O42	O	1.659511	0.196999	1.169773
O43	O	1.223051	-0.395689	0.649968
O44	O	1.556385	-0.062355	0.983301
O45	O	1.889718	0.270978	1.316635
O46	O	1.234865	-0.596619	0.412954
O47	O	1.568199	-0.263285	0.746287
O48	O	1.901532	0.070048	1.079620
O49	O	1.127568	-0.596117	0.509911
O50	O	1.460901	-0.262784	0.843244
O51	O	1.794234	0.070549	1.176577
C52	C	0.965282	-0.420583	0.450519
C53	C	1.298615	-0.087249	0.783853
C54	C	1.631948	0.246084	1.117186
C55	C	0.872853	-0.416215	0.445848
C56	C	1.206187	-0.082882	0.779182
C57	C	1.539520	0.250452	1.112515
C58	C	0.703625	-0.408224	0.437327
C59	C	1.036958	-0.074891	0.770661
C60	C	1.370292	0.258443	1.103994
C61	C	0.659876	-0.453505	0.485701
C62	C	0.993210	-0.120171	0.819035
C63	C	1.326543	0.213162	1.152368
C64	C	0.565712	-0.449058	0.480960
C65	C	0.899045	-0.115725	0.814294
C66	C	1.232379	0.217608	1.147627
C67	C	0.797798	-0.412669	0.442067
C68	C	1.131131	-0.079336	0.775401
C69	C	1.464465	0.253997	1.108734
C70	C	1.181219	-0.623239	0.461443
C71	C	1.514553	-0.289906	0.794776
C72	C	1.847886	0.043427	1.128110
C73	C	1.181246	-0.705555	0.461457
C74	C	1.514579	-0.372222	0.794790
C75	C	1.847912	-0.038889	1.128124
C76	C	1.181340	-0.856270	0.461495
C77	C	1.514673	-0.522936	0.794828
C78	C	1.848006	-0.189603	1.128162
C79	C	1.113800	-0.887336	0.522447
C80	C	1.447134	-0.554002	0.855780
C81	C	1.780467	-0.220669	1.189114
C82	C	1.114030	-0.972977	0.522730
C83	C	1.447363	-0.639643	0.856063
C84	C	1.780696	-0.306310	1.189397
C85	C	1.181431	-1.004658	0.461532
C86	C	1.514764	-0.671325	0.794866
C87	C	1.848097	-0.337991	1.128199
C88	C	1.267903	-0.978638	0.489547
C89	C	1.601237	-0.645305	0.822880
C90	C	1.934570	-0.311971	1.156214
C91	C	1.267455	-0.892992	0.489973
C92	C	1.600788	-0.559659	0.823306
C93	C	1.934122	-0.226325	1.156640
C94	C	1.163200	-0.883074	0.372414
C95	C	1.496534	-0.549740	0.705748
C96	C	1.829867	-0.216407	1.039081
C97	C	1.161296	-0.968658	0.372806
C98	C	1.494629	-0.635324	0.706140
C99	C	1.827962	-0.301991	1.039473
C100	C	1.181487	-1.088521	0.461552
C101	C	1.514821	-0.755188	0.794886
C102	C	1.848154	-0.421854	1.128219
C103	C	1.181289	-0.772407	0.461477
C104	C	1.514622	-0.439074	0.794811
C105	C	1.847955	-0.105740	1.128144
C106	C	1.398226	-0.441129	0.472492
C107	C	1.731559	-0.107796	0.805825
C108	C	2.064893	0.225537	1.139159
C109	C	1.490653	-0.445516	0.477183
C110	C	1.823987	-0.112183	0.810516
C111	C	2.157320	0.221151	1.143850
C112	C	1.170383	-0.440065	0.678378
C113	C	1.503717	-0.106732	1.011711
C114	C	1.837050	0.226601	1.345044
C115	C	1.165718	-0.443999	0.770805
C116	C	1.499051	-0.110665	1.104138
C117	C	1.832384	0.222668	1.437471
C118	C	1.181467	-0.237683	0.461545
C119	C	1.514800	0.095651	0.794878
C120	C	1.848134	0.428984	1.128211
C121	C	1.181524	-0.155372	0.461570
C122	C	1.514858	0.177961	0.794904
C123	C	1.848191	0.511294	1.128237
C124	C	1.192286	-0.421591	0.245437
C125	C	1.525619	-0.088258	0.578770
C126	C	1.858953	0.245076	0.912103
C127	C	1.197113	-0.417457	0.153018
C128	C	1.530446	-0.084123	0.486351
C129	C	1.863779	0.249210	0.819685
C130	C	1.157169	-0.451162	0.940029
C131	C	1.490502	-0.117828	1.273362
C132	C	1.823835	0.215505	1.606696
C133	C	1.205659	-0.410296	0.983799
C134	C	1.538992	-0.076963	1.317132
C135	C	1.872326	0.256371	1.650466
C136	C	1.200902	-0.414281	1.077961
C137	C	1.534236	-0.080948	1.411295
C138	C	1.867569	0.252385	1.744628
C139	C	1.161924	-0.447177	0.845858
C140	C	1.495258	-0.113844	1.179192
C141	C	1.828591	0.219490	1.512525
H142	H	1.049777	-0.990355	0.504703
H143	H	1.383110	-0.657021	0.838036
H144	H	1.716443	-0.323688	1.171369
C145	C	1.032681	-0.806106	0.428377
C146	C	1.366014	-0.472773	0.761710
C147	C	1.699347	-0.139439	1.095044
C148	C	1.026735	-0.854613	0.498332
C149	C	1.360068	-0.521280	0.831666
C150	C	1.693401	-0.187946	1.164999
H151	H	0.978928	-0.785898	0.413494
H152	H	1.312261	-0.452565	0.746827
H153	H	1.645595	-0.119231	1.080161
H154	H	1.055741	-0.832304	0.383490
H155	H	1.389074	-0.498970	0.716823
H156	H	1.722408	-0.165637	1.050156
H157	H	1.067396	-0.767212	0.440712
H158	H	1.400729	-0.433878	0.774045
H159	H	1.734062	-0.100545	1.107378
H160	H	0.992024	-0.893511	0.485996
H161	H	1.325358	-0.560177	0.819329
H162	H	1.658691	-0.226844	1.152662
H163	H	1.003662	-0.828415	0.543229
H164	H	1.336996	-0.495081	0.876563
H165	H	1.670329	-0.161748	1.209896
C166	C	1.310449	-0.322014	0.997661
C167	C	1.643782	0.011320	1.330995
C168	C	1.977116	0.344653	1.664328
C169	C	1.266531	-0.359027	0.938927
C170	C	1.599864	-0.025694	1.272260
C171	C	1.933197	0.307639	1.605594
H172	H	1.348024	-0.290363	0.969955
H173	H	1.681357	0.042971	1.303288
H174	H	2.014691	0.376304	1.636621
H175	H	1.340550	-0.357195	1.033153
H176	H	1.673883	-0.023862	1.366487
H177	H	2.007217	0.309471	1.699820
H178	H	1.272555	-0.293370	1.029700
H179	H	1.605888	0.039964	1.363033
H180	H	1.939222	0.373297	1.696366
H181	H	1.304424	-0.387676	0.906892
H182	H	1.637758	-0.054342	1.240226
H183	H	1.971091	0.278991	1.573559
H184	H	1.236428	-0.323841	0.903421
H185	H	1.569761	0.009493	1.236754
H186	H	1.903095	0.342826	1.570087
H187	H	0.693142	-0.495609	0.530678
H188	H	1.026475	-0.162276	0.864011
H189	H	1.359808	0.171058	1.197344
H190	H	1.319267	-0.872671	0.447739
H191	H	1.652600	-0.539338	0.781072
H192	H	1.985933	-0.206004	1.114406
H193	H	1.284165	-1.003677	0.554112
H194	H	1.617498	-0.670343	0.887446
H195	H	1.950832	-0.337010	1.220779
H196	H	1.101426	-0.857643	0.347722
H197	H	1.434760	-0.524310	0.681055
H198	H	1.768093	-0.190977	1.014389
H199	H	0.670362	-0.366123	0.392355
H200	H	1.003695	-0.032789	0.725688
H201	H	1.337028	0.300544	1.059022
H202	H	1.125310	-0.869239	0.587984
H203	H	1.458644	-0.535905	0.921317
H204	H	1.791977	-0.202572	1.254650
H205	H	1.319432	-0.999364	0.446722
H206	H	1.652765	-0.666031	0.780055
H207	H	1.986098	-0.332698	1.113389
C208	C	1.103331	-0.496510	1.070849
C209	C	1.436664	-0.163177	1.404183
C210	C	1.769998	0.170157	1.737516
C211	C	1.096313	-0.502437	0.984903
C212	C	1.429647	-0.169103	1.318236
C213	C	1.762980	0.164230	1.651570
H214	H	1.065767	-0.528170	1.098558
H215	H	1.399100	-0.194837	1.431891
H216	H	1.732433	0.138497	1.765225
H217	H	1.090487	-0.446771	1.084416
H218	H	1.423820	-0.113437	1.417749
H219	H	1.757153	0.219896	1.751083
H220	H	1.158498	-0.510582	1.087862
H221	H	1.491832	-0.177249	1.421196
H222	H	1.825165	0.156084	1.754529
H223	H	1.041147	-0.488359	0.967889
H224	H	1.374480	-0.155026	1.301222
H225	H	1.707814	0.178308	1.634556
H226	H	1.109152	-0.552187	0.971330
H227	H	1.442486	-0.218853	1.304663
H228	H	1.775819	0.114480	1.637997
H229	H	1.125755	-0.996915	0.588651
H230	H	1.459088	-0.663581	0.921985
H231	H	1.792422	-0.330248	1.255318
H232	H	1.283324	-0.876618	0.555216
H233	H	1.616657	-0.543285	0.888550
H234	H	1.949990	-0.209951	1.221883
H235	H	1.097679	-0.985231	0.351756
H236	H	1.431013	-0.651898	0.685090
H237	H	1.764346	-0.318564	1.018423
H238	H	1.207258	-0.989944	0.324630
H239	H	1.540592	-0.656610	0.657963
H240	H	1.873925	-0.323277	0.991296
H241	H	1.212441	-0.862953	0.326948
H242	H	1.545774	-0.529620	0.660281
H243	H	1.879108	-0.196286	0.993614
