data_functionalizedCrystal
_audit_creation_method	'MofGen! by Chris Wilmer'
_symmetry_space_group_name_H-M	'P1'
_symmetry_Int_Tables_number	1
_symmetry_cell_setting	triclinic
loop_
_symmetry_equiv_pos_as_xyz
  x,y,z
_cell_length_a	25.639243
_cell_length_b	21.295418
_cell_length_c	21.295411
_cell_angle_alpha	90.017488
_cell_angle_beta	90.027104
_cell_angle_gamma	90.031110
loop_
_atom_site_label
_atom_site_type_symbol
_atom_site_fract_x
_atom_site_fract_y
_atom_site_fract_z
Zn1	Zn	0.799320	-0.250635	0.355972
Zn2	Zn	1.132653	0.082698	0.689306
Zn3	Zn	1.465987	0.416032	1.022639
Zn4	Zn	0.799242	-0.355887	0.250705
Zn5	Zn	1.132576	-0.022554	0.584039
Zn6	Zn	1.465909	0.310780	0.917372
Zn7	Zn	0.711879	-0.250641	0.250713
Zn8	Zn	1.045213	0.082693	0.584046
Zn9	Zn	1.378546	0.416026	0.917379
Zn10	Zn	0.711857	-0.355875	0.355932
Zn11	Zn	1.045190	-0.022542	0.689266
Zn12	Zn	1.378524	0.310791	1.022599
O13	O	0.755575	-0.303260	0.303331
O14	O	1.088908	0.030074	0.636664
O15	O	1.422241	0.363407	0.969997
O16	O	0.872475	-0.264600	0.342022
O17	O	1.205808	0.068734	0.675355
O18	O	1.539142	0.402067	1.008689
O19	O	0.787630	-0.341933	0.162617
O20	O	1.120963	-0.008600	0.495950
O21	O	1.454297	0.324734	0.829284
O22	O	0.723520	-0.162551	0.264695
O23	O	1.056854	0.170783	0.598029
O24	O	1.390187	0.504116	0.931362
O25	O	0.872418	-0.341928	0.264683
O26	O	1.205751	-0.008594	0.598016
O27	O	1.539084	0.324739	0.931350
O28	O	0.787763	-0.162546	0.342029
O29	O	1.121096	0.170787	0.675363
O30	O	1.454429	0.504120	1.008696
O31	O	0.723445	-0.264609	0.162622
O32	O	1.056778	0.068724	0.495956
O33	O	1.390112	0.402058	0.829289
O34	O	0.638711	-0.264598	0.264657
O35	O	0.972044	0.068736	0.597990
O36	O	1.305378	0.402069	0.931323
O37	O	0.723483	-0.341908	0.444027
O38	O	1.056816	-0.008575	0.777360
O39	O	1.390149	0.324759	1.110694
O40	O	0.638695	-0.341913	0.341961
O41	O	0.972028	-0.008580	0.675294
O42	O	1.305362	0.324753	1.008628
O43	O	0.787741	-0.264588	0.444056
O44	O	1.121074	0.068745	0.777390
O45	O	1.454408	0.402078	1.110723
O46	O	0.787609	-0.443975	0.264644
O47	O	1.120942	-0.110642	0.597978
O48	O	1.454275	0.222692	0.931311
O49	O	0.723407	-0.443966	0.341954
O50	O	1.056740	-0.110633	0.675287
O51	O	1.390074	0.222700	1.008621
C52	C	0.619732	-0.303255	0.303306
C53	C	0.953065	0.030078	0.636639
C54	C	1.286399	0.363411	0.969972
C55	C	0.561618	-0.303269	0.303310
C56	C	0.894951	0.030065	0.636643
C57	C	1.228285	0.363398	0.969977
C58	C	0.755511	-0.466811	0.303308
C59	C	1.088844	-0.133478	0.636641
C60	C	1.422178	0.199855	0.969974
C61	C	0.755532	-0.536779	0.303319
C62	C	1.088865	-0.203446	0.636652
C63	C	1.422198	0.129887	0.969986
C64	C	0.789091	-1.036182	0.343679
C65	C	1.122424	-0.702849	0.677012
C66	C	1.455757	-0.369515	1.010346
C67	C	0.789075	-0.970439	0.343669
C68	C	1.122409	-0.637106	0.677002
C69	C	1.455742	-0.303773	1.010336
C70	C	0.755646	-0.937619	0.303370
C71	C	1.088979	-0.604285	0.636703
C72	C	1.422313	-0.270952	0.970037
C73	C	0.722239	-0.970546	0.263066
C74	C	1.055572	-0.637213	0.596400
C75	C	1.388905	-0.303879	0.929733
C76	C	0.722259	-1.036287	0.263073
C77	C	1.055592	-0.702954	0.596406
C78	C	1.388925	-0.369620	0.929740
N79	N	0.709850	-0.834451	0.298477
N80	N	1.043183	-0.501118	0.631810
N81	N	1.376517	-0.167784	0.965143
N82	N	0.709832	-0.771999	0.298474
N83	N	1.043166	-0.438666	0.631807
N84	N	1.376499	-0.105333	0.965141
C85	C	0.755584	-0.739544	0.303346
C86	C	1.088918	-0.406211	0.636680
C87	C	1.422251	-0.072877	0.970013
N88	N	0.801356	-0.771899	0.308234
N89	N	1.134689	-0.438566	0.641567
N90	N	1.468022	-0.105233	0.974901
N91	N	0.801373	-0.834356	0.308240
N92	N	1.134706	-0.501023	0.641573
N93	N	1.468039	-0.167690	0.974906
C94	C	0.755621	-0.866333	0.303358
C95	C	1.088954	-0.533000	0.636691
C96	C	1.422287	-0.199667	0.970025
C97	C	0.788975	-0.635339	0.343634
C98	C	1.122309	-0.302006	0.676967
C99	C	1.455642	0.031328	1.010300
C100	C	0.788961	-0.569595	0.343619
C101	C	1.122294	-0.236262	0.676953
C102	C	1.455628	0.097071	1.010286
C103	C	0.722120	-0.569703	0.263020
C104	C	1.055453	-0.236370	0.596353
C105	C	1.388786	0.096963	0.929686
C106	C	0.722139	-0.635446	0.263031
C107	C	1.055472	-0.302112	0.596364
C108	C	1.388805	0.031221	0.929697
C109	C	0.755566	-0.668260	0.303341
C110	C	1.088899	-0.334926	0.636674
C111	C	1.422233	-0.001593	0.970008
C112	C	0.201279	-0.263058	0.343668
C113	C	0.534613	0.070275	0.677002
C114	C	0.867946	0.403609	1.010335
C115	C	0.146675	-0.263058	0.343672
C116	C	0.480008	0.070276	0.677006
C117	C	0.813342	0.403609	1.010339
O118	O	0.118459	-0.228857	0.377955
O119	O	0.451792	0.104476	0.711289
O120	O	0.785125	0.437809	1.044622
N121	N	0.119336	-0.303258	0.303348
N122	N	0.452669	0.030076	0.636681
N123	N	0.786002	0.363409	0.970015
C124	C	0.146603	-0.343457	0.263013
C125	C	0.479937	-0.010123	0.596346
C126	C	0.813270	0.323210	0.929679
O127	O	0.118335	-0.377649	0.228714
O128	O	0.451669	-0.044316	0.562047
O129	O	0.785002	0.289017	0.895380
C130	C	0.201207	-0.343453	0.263006
C131	C	0.534540	-0.010120	0.596339
C132	C	0.867873	0.323213	0.929673
C133	C	0.228543	-0.303255	0.303337
C134	C	0.561877	0.030078	0.636671
C135	C	0.895210	0.363412	0.970004
C136	C	0.228616	-0.222863	0.383996
C137	C	0.561949	0.110471	0.717329
C138	C	0.895282	0.443804	1.050663
C139	C	0.283216	-0.222864	0.383993
C140	C	0.616550	0.110469	0.717326
C141	C	0.949883	0.443803	1.050659
C142	C	0.310480	-0.263061	0.343662
C143	C	0.643814	0.070272	0.676995
C144	C	0.977147	0.403606	1.010329
C145	C	0.283144	-0.303257	0.303334
C146	C	0.616477	0.030077	0.636668
C147	C	0.949810	0.363410	0.970001
C148	C	0.228474	-0.383649	0.222668
C149	C	0.561807	-0.050315	0.556001
C150	C	0.895140	0.283018	0.889335
C151	C	0.283081	-0.383642	0.222665
C152	C	0.616414	-0.050308	0.555998
C153	C	0.949747	0.283025	0.889331
C154	C	0.310417	-0.343443	0.262996
C155	C	0.643750	-0.010110	0.596329
C156	C	0.977084	0.323223	0.929663
C157	C	0.365008	-0.343455	0.263000
C158	C	0.698342	-0.010122	0.596333
C159	C	1.031675	0.323211	0.929667
N160	N	0.392348	-0.303255	0.303324
N161	N	0.725681	0.030078	0.636658
N162	N	1.059014	0.363412	0.969991
C163	C	0.365084	-0.263058	0.343655
C164	C	0.698417	0.070275	0.676989
C165	C	1.031750	0.403609	1.010322
C166	C	0.031933	-0.343459	0.263029
C167	C	0.365266	-0.010126	0.596362
C168	C	0.698599	0.323207	0.929696
C169	C	-0.022670	-0.343466	0.263038
C170	C	0.310664	-0.010133	0.596371
C171	C	0.643997	0.323201	0.929705
C172	C	-0.022594	-0.263066	0.343697
C173	C	0.310739	0.070267	0.677030
C174	C	0.644072	0.403601	1.010364
C175	C	0.032009	-0.263063	0.343690
C176	C	0.365342	0.070270	0.677024
C177	C	0.698676	0.403604	1.010357
C178	C	0.059272	-0.303259	0.303353
C179	C	0.392605	0.030074	0.636686
C180	C	0.725939	0.363408	0.970020
C181	C	0.479749	-0.263065	0.343646
C182	C	0.813082	0.070269	0.676979
C183	C	1.146415	0.403602	1.010312
C184	C	0.534354	-0.263072	0.343641
C185	C	0.867687	0.070262	0.676974
C186	C	1.201021	0.403595	1.010307
C187	C	0.534274	-0.343469	0.262980
C188	C	0.867607	-0.010136	0.596313
C189	C	1.200941	0.323198	0.929647
C190	C	0.479673	-0.343465	0.262987
C191	C	0.813007	-0.010131	0.596320
C192	C	1.146340	0.323202	0.929654
C193	C	0.452412	-0.303257	0.303322
C194	C	0.785745	0.030076	0.636655
C195	C	1.119079	0.363409	0.969989
O196	O	0.393259	-0.377636	0.228733
O197	O	0.726593	-0.044303	0.562066
O198	O	1.059926	0.289031	0.895399
O199	O	0.393358	-0.228865	0.377943
O200	O	0.726692	0.104468	0.711276
O201	O	1.060025	0.437802	1.044609
C202	C	0.891948	-0.303264	0.303356
C203	C	1.225281	0.030069	0.636689
C204	C	1.558614	0.363402	0.970023
C205	C	0.950062	-0.303266	0.303367
C206	C	1.283395	0.030067	0.636700
C207	C	1.616728	0.363400	0.970034
C208	C	0.755618	-0.303246	0.467521
C209	C	1.088951	0.030087	0.800854
C210	C	1.422285	0.363420	1.134188
C211	C	0.755637	-0.303241	0.537489
C212	C	1.088970	0.030093	0.870822
C213	C	1.422303	0.363426	1.204156
C214	C	0.755653	-0.139069	0.303368
C215	C	1.088986	0.194264	0.636701
C216	C	1.422319	0.527597	0.970034
C217	C	0.755686	-0.069101	0.303383
C218	C	1.089019	0.264232	0.636717
C219	C	1.422353	0.597566	0.970050
C220	C	0.755562	-0.303227	0.139779
C221	C	1.088895	0.030106	0.473112
C222	C	1.422228	0.363439	0.806446
C223	C	0.755644	-0.303056	0.069811
C224	C	1.088978	0.030278	0.403145
C225	C	1.422311	0.363611	0.736478
C226	C	0.789095	-0.262978	0.570372
C227	C	1.122428	0.070355	0.903705
C228	C	1.455761	0.403688	1.237039
C229	C	0.789094	-0.262951	0.636115
C230	C	1.122427	0.070382	0.969448
C231	C	1.455760	0.403715	1.302781
C232	C	0.755641	-0.303197	0.668972
C233	C	1.088974	0.030136	1.002305
C234	C	1.422307	0.363469	1.335638
C235	C	0.722176	-0.343462	0.636081
C236	C	1.055509	-0.010129	0.969414
C237	C	1.388843	0.323204	1.302748
C238	C	0.722174	-0.343484	0.570340
C239	C	1.055507	-0.010151	0.903673
C240	C	1.388841	0.323183	1.237006
N241	N	0.751608	-0.358265	0.772191
N242	N	1.084942	-0.024932	1.105524
N243	N	1.418275	0.308401	1.438858
N244	N	0.751613	-0.358243	0.834642
N245	N	1.084947	-0.024910	1.167976
N246	N	1.418280	0.308424	1.501309
C247	C	0.755644	-0.303133	0.867047
C248	C	1.088977	0.030200	1.200380
C249	C	1.422311	0.363533	1.533713
N250	N	0.759679	-0.248046	0.834640
N251	N	1.093013	0.085287	1.167973
N252	N	1.426346	0.418621	1.501307
N253	N	0.759677	-0.248069	0.772183
N254	N	1.093010	0.085264	1.105516
N255	N	1.426344	0.418598	1.438849
C256	C	0.755639	-0.303178	0.740257
C257	C	1.088972	0.030155	1.073590
C258	C	1.422306	0.363489	1.406924
C259	C	0.789103	-0.262838	0.971215
C260	C	1.122436	0.070495	1.304548
C261	C	1.455770	0.403828	1.637882
C262	C	0.789099	-0.262810	1.036959
C263	C	1.122432	0.070523	1.370292
C264	C	1.455765	0.403857	1.703625
C265	C	0.722184	-0.343327	1.036924
C266	C	1.055517	-0.009993	1.370257
C267	C	1.388850	0.323340	1.703590
C268	C	0.722185	-0.343349	0.971181
C269	C	1.055518	-0.010016	1.304515
C270	C	1.388852	0.323317	1.637848
C271	C	0.755648	-0.303106	0.938331
C272	C	1.088981	0.030227	1.271664
C273	C	1.422314	0.363561	1.604998
H274	H	0.816314	-1.062895	0.376498
H275	H	1.149647	-0.729562	0.709831
H276	H	1.482981	-0.396228	1.043165
F277	F	0.824631	-0.935397	0.386559
F278	F	1.157965	-0.602064	0.719892
F279	F	1.491298	-0.268730	1.053225
H280	H	0.695021	-0.943820	0.230253
H281	H	1.028354	-0.610487	0.563586
H282	H	1.361687	-0.277153	0.896920
H283	H	0.816190	-0.662058	0.376461
H284	H	1.149523	-0.328724	0.709795
H285	H	1.482857	0.004609	1.043128
F286	F	0.686703	-1.071323	0.220183
F287	F	1.020036	-0.737990	0.553516
F288	F	1.353369	-0.404657	0.886850
H289	H	0.816342	-0.230208	0.543629
H290	H	1.149675	0.103125	0.876963
H291	H	1.483008	0.436458	1.210296
F292	F	0.824520	-0.534560	0.386507
F293	F	1.157853	-0.201227	0.719840
F294	F	1.491186	0.132106	1.053174
F295	F	0.686545	-0.534777	0.220125
F296	F	1.019878	-0.201444	0.553459
F297	F	1.353212	0.131889	0.886792
H298	H	0.694935	-0.662249	0.230220
H299	H	1.028268	-0.328916	0.563553
H300	H	1.361601	0.004418	0.896887
F301	F	0.563444	-0.220287	0.386570
F302	F	0.896778	0.113047	0.719904
F303	F	1.230111	0.446380	1.053237
H304	H	0.457559	-0.230322	0.376489
H305	H	0.790892	0.103011	0.709822
H306	H	1.124226	0.436344	1.043155
H307	H	0.305469	-0.190130	0.416834
H308	H	0.638802	0.143204	0.750167
H309	H	0.972135	0.476537	1.083500
H310	H	0.206423	-0.190126	0.416838
H311	H	0.539756	0.143207	0.750172
H312	H	0.873090	0.476541	1.083505
H313	H	0.054127	-0.376197	0.230183
H314	H	0.387460	-0.042864	0.563516
H315	H	0.720794	0.290469	0.896850
H316	H	0.054263	-0.230329	0.376531
H317	H	0.387596	0.103005	0.709864
H318	H	0.720929	0.436338	1.043197
F319	F	-0.051620	-0.220282	0.386619
F320	F	0.281713	0.113051	0.719952
F321	F	0.615046	0.446384	1.053286
H322	H	-0.044922	-0.376207	0.230203
H323	H	0.288411	-0.042873	0.563537
H324	H	0.621744	0.290460	0.896870
F325	F	0.199392	-0.426424	0.179731
F326	F	0.532725	-0.093091	0.513065
F327	F	0.866058	0.240242	0.846398
F328	F	0.824717	-0.219962	1.071955
F329	F	1.158050	0.113371	1.405288
F330	F	1.491384	0.446704	1.738622
H331	H	0.305275	-0.416374	0.189815
H332	H	0.638609	-0.083041	0.523149
H333	H	0.971942	0.250293	0.856482
H334	H	0.457415	-0.376205	0.230153
H335	H	0.790748	-0.042871	0.563486
H336	H	1.124082	0.290462	0.896820
H337	H	0.694940	-0.376089	1.063675
H338	H	1.028273	-0.042756	1.397009
H339	H	1.361607	0.290577	1.730342
F340	F	0.563300	-0.386248	0.220060
F341	F	0.896633	-0.052915	0.553393
F342	F	1.229967	0.280418	0.886727
F343	F	0.824697	-0.220087	0.671118
F344	F	1.158031	0.113247	1.004452
F345	F	1.491364	0.446580	1.337785
H346	H	0.694937	-0.376229	0.662837
H347	H	1.028270	-0.042895	0.996171
H348	H	1.361603	0.290438	1.329504
H349	H	0.816347	-0.230066	0.944467
H350	H	1.149680	0.103267	1.277800
H351	H	1.483014	0.436600	1.611133
F352	F	0.686562	-0.386338	0.535342
F353	F	1.019895	-0.053005	0.868675
F354	F	1.353228	0.280328	1.202009
F355	F	0.686576	-0.386205	0.936183
F356	F	1.019909	-0.052871	1.269517
F357	F	1.353243	0.280462	1.602850
