data_functionalizedCrystal
_audit_creation_method	'MofGen! by Chris Wilmer'
_symmetry_space_group_name_H-M	'P1'
_symmetry_Int_Tables_number	1
_symmetry_cell_setting	triclinic
loop_
_symmetry_equiv_pos_as_xyz
  x,y,z
_cell_length_a	15.297475
_cell_length_b	16.959454
_cell_length_c	15.297908
_cell_angle_alpha	99.655881
_cell_angle_beta	72.640407
_cell_angle_gamma	80.323279
loop_
_atom_site_label
_atom_site_type_symbol
_atom_site_fract_x
_atom_site_fract_y
_atom_site_fract_z
Zn1	Zn	1.512718	-0.661370	-0.771455
Zn2	Zn	2.012718	-0.161370	-0.271455
Zn3	Zn	1.485714	-0.765878	-0.615943
Zn4	Zn	1.985714	-0.265878	-0.115943
Zn5	Zn	1.330301	-0.606047	-0.589099
Zn6	Zn	1.830301	-0.106047	-0.089099
Zn7	Zn	1.357164	-0.765808	-0.744542
Zn8	Zn	1.857164	-0.265808	-0.244542
O9	O	1.421474	-0.699776	-0.680260
O10	O	1.921474	-0.199776	-0.180260
O11	O	1.639276	-0.698416	-0.773324
O12	O	2.139276	-0.198416	-0.273324
O13	O	1.442555	-0.721552	-0.482246
O14	O	1.942555	-0.221552	0.017754
O15	O	1.354558	-0.502788	-0.613318
O16	O	1.854558	-0.002788	-0.113318
O17	O	1.619437	-0.775197	-0.659069
O18	O	2.119437	-0.275197	-0.159069
O19	O	1.488579	-0.543434	-0.747294
O20	O	1.988579	-0.043434	-0.247294
O21	O	1.328374	-0.604125	-0.462523
O22	O	1.828374	-0.104125	0.037477
O23	O	1.203724	-0.604057	-0.587221
O24	O	1.703724	-0.104057	-0.087221
O25	O	1.400342	-0.775078	-0.878248
O26	O	1.900342	-0.275078	-0.378248
O27	O	1.223460	-0.721433	-0.701425
O28	O	1.723460	-0.221433	-0.201425
O29	O	1.514626	-0.698348	-0.898022
O30	O	2.014626	-0.198348	-0.398022
O31	O	1.468603	-0.876466	-0.632973
O32	O	1.968603	-0.376466	-0.132973
O33	O	1.374158	-0.876415	-0.727454
O34	O	1.874158	-0.376415	-0.227454
C35	C	1.179848	-0.656735	-0.638490
C36	C	1.679848	-0.156735	-0.138490
C37	C	1.076484	-0.638344	-0.620643
C38	C	1.576484	-0.138344	-0.120643
C39	C	0.826256	-0.831220	-0.807818
C40	C	1.326256	-0.331220	-0.307818
C41	C	0.923372	-0.848504	-0.824584
C42	C	1.423372	-0.348504	-0.324584
C43	C	0.961655	-0.795965	-0.773601
C44	C	1.461655	-0.295965	-0.273601
C45	C	0.902812	-0.726140	-0.705848
C46	C	1.402812	-0.226140	-0.205848
C47	C	0.805685	-0.708858	-0.689075
C48	C	1.305685	-0.208858	-0.189075
C49	C	0.941084	-0.673603	-0.654858
C50	C	1.441084	-0.173603	-0.154858
C51	C	0.882241	-0.603778	-0.587105
C52	C	1.382241	-0.103778	-0.087105
C53	C	0.785125	-0.586499	-0.570336
C54	C	1.285125	-0.086499	-0.070336
C55	C	0.746842	-0.639037	-0.621319
C56	C	1.246842	-0.139037	-0.121319
C57	C	1.038211	-0.690886	-0.671630
C58	C	1.538211	-0.190886	-0.171630
C59	C	1.017640	-0.568524	-0.552887
C60	C	1.517640	-0.068524	-0.052887
C61	C	0.920524	-0.551240	-0.536121
C62	C	1.420524	-0.051240	-0.036121
C63	C	1.421394	-0.905125	-0.680230
C64	C	1.921394	-0.405125	-0.180230
C65	C	1.421450	-0.992996	-0.680264
C66	C	1.921450	-0.492996	-0.180264
C67	C	1.372382	-1.364492	-0.729465
C68	C	1.872382	-0.864492	-0.229465
C69	C	1.470842	-1.364520	-0.631194
C70	C	1.970842	-0.864520	-0.131194
C71	C	1.470808	-1.281967	-0.631180
C72	C	1.970808	-0.781967	-0.131180
C73	C	1.421559	-1.240672	-0.680308
C74	C	1.921559	-0.740672	-0.180308
C75	C	1.372344	-1.281930	-0.729450
C76	C	1.872344	-0.781930	-0.229450
C77	C	1.520015	-1.240700	-0.582031
C78	C	2.020015	-0.740700	-0.082031
C79	C	1.519982	-1.158141	-0.582014
C80	C	2.019982	-0.658141	-0.082014
C81	C	1.470738	-1.116847	-0.631148
C82	C	1.970738	-0.616847	-0.131148
C83	C	1.421521	-1.158110	-0.680293
C84	C	1.921521	-0.658110	-0.180293
C85	C	1.372272	-1.116815	-0.729421
C86	C	1.872272	-0.616815	-0.229421
C87	C	1.323061	-1.158079	-0.778572
C88	C	1.823061	-0.658079	-0.278572
C89	C	1.323100	-1.240635	-0.778584
C90	C	1.823100	-0.740635	-0.278584
C91	C	1.470699	-1.034290	-0.631136
C92	C	1.970699	-0.534290	-0.131136
C93	C	1.372235	-1.034254	-0.729406
C94	C	1.872235	-0.534254	-0.229406
C95	C	1.664044	-0.742986	-0.722193
C96	C	2.164044	-0.242986	-0.222193
C97	C	1.767412	-0.761399	-0.740062
C98	C	2.267412	-0.261399	-0.240062
C99	C	1.463493	-0.742876	-0.922821
C100	C	1.963493	-0.242876	-0.422821
C101	C	1.481398	-0.761243	-1.026187
C102	C	1.981398	-0.261243	-0.526187
C103	C	1.421584	-0.493632	-0.680314
C104	C	1.921584	0.006368	-0.180314
C105	C	1.421631	-0.405786	-0.680337
C106	C	1.921631	0.094214	-0.180337
C107	C	1.294088	-0.568468	-1.276493
C108	C	1.794088	-0.068468	-0.776493
C109	C	1.277266	-0.551204	-1.179376
C110	C	1.777266	-0.051204	-0.679376
C111	C	1.328297	-0.603712	-1.141074
C112	C	1.828297	-0.103712	-0.641074
C113	C	1.396154	-0.673487	-1.199898
C114	C	1.896154	-0.173487	-0.699898
C115	C	1.412982	-0.690750	-1.297025
C116	C	1.912982	-0.190750	-0.797025
C117	C	1.447192	-0.725994	-1.161606
C118	C	1.947192	-0.225994	-0.661606
C119	C	1.515048	-0.795769	-1.220430
C120	C	2.015048	-0.295769	-0.720430
C121	C	1.531873	-0.813029	-1.317547
C122	C	2.031873	-0.313029	-0.817547
C123	C	1.480842	-0.760520	-1.355850
C124	C	1.980842	-0.260520	-0.855850
C125	C	1.430363	-0.708732	-1.064479
C126	C	1.930363	-0.208732	-0.564479
C127	C	1.549258	-0.831014	-1.085011
C128	C	2.049258	-0.331014	-0.585011
C129	C	1.566080	-0.848278	-1.182128
C130	C	2.066080	-0.348278	-0.682128
C131	C	1.379673	-0.656796	-0.438651
C132	C	1.879673	-0.156796	0.061349
C133	C	1.361948	-0.638238	-0.335317
C134	C	1.861948	-0.138238	0.164683
H135	H	0.795075	-0.873993	-0.849316
H136	H	1.295075	-0.373993	-0.349316
H137	H	1.560102	-1.274326	-0.542026
H138	H	2.060102	-0.774326	-0.042026
H139	H	1.332134	-1.000638	-0.769416
H140	H	1.832134	-0.500638	-0.269416
H141	H	1.621330	-0.905089	-1.230036
H142	H	2.121330	-0.405089	-0.730036
H143	H	1.314597	-0.589652	-1.061997
H144	H	1.814597	-0.089652	-0.561997
Br145	Br	1.618524	-0.902276	-1.033039
Br146	Br	2.118524	-0.402276	-0.533039
Br147	Br	1.185183	-0.456511	-1.099551
Br148	Br	1.685183	0.043489	-0.599551
H149	H	1.252550	-0.525720	-1.307689
H150	H	1.752550	-0.025720	-0.807689
Br151	Br	1.586775	-1.102150	-0.515319
Br152	Br	2.086775	-0.602150	-0.015319
H153	H	1.332318	-1.398093	-0.769485
H154	H	1.832318	-0.898093	-0.269485
H155	H	1.086112	-0.747738	-0.726796
H156	H	1.586112	-0.247738	-0.226796
H157	H	0.667763	-0.624967	-0.607674
H158	H	1.167763	-0.124967	-0.107674
H159	H	1.040731	-0.810042	-0.787256
H160	H	1.540731	-0.310042	-0.287256
H161	H	1.494529	-0.774577	-1.434928
H162	H	1.994529	-0.274577	-0.934928
H163	H	1.587134	-0.869840	-1.365441
H164	H	2.087134	-0.369840	-0.865441
H165	H	0.971274	-0.905357	-0.879746
H166	H	1.471274	-0.405357	-0.379746
H167	H	0.737215	-0.529649	-0.515158
H168	H	1.237215	-0.029649	-0.015158
H169	H	1.282957	-1.124446	-0.818567
H170	H	1.782957	-0.624446	-0.318567
H171	H	0.872601	-0.494387	-0.480956
H172	H	1.372601	0.005613	0.019044
Br173	Br	1.256319	-1.296640	-0.845282
Br174	Br	1.756319	-0.796640	-0.345282
H175	H	1.510932	-1.398145	-0.591190
H176	H	2.010932	-0.898145	-0.091190
Br177	Br	1.338277	-0.614039	-0.984659
Br178	Br	1.838277	-0.114039	-0.484659
Br179	Br	1.069585	-0.497222	-0.483683
Br180	Br	1.569585	0.002778	0.016317
H181	H	1.510761	-1.000696	-0.591113
H182	H	2.010761	-0.500696	-0.091113
