data_functionalizedCrystal
_audit_creation_method	'MofGen! by Chris Wilmer'
_symmetry_space_group_name_H-M	'P1'
_symmetry_Int_Tables_number	1
_symmetry_cell_setting	triclinic
loop_
_symmetry_equiv_pos_as_xyz
  x,y,z
_cell_length_a	18.101398
_cell_length_b	13.033615
_cell_length_c	18.101380
_cell_angle_alpha	82.750301
_cell_angle_beta	89.934607
_cell_angle_gamma	97.179417
loop_
_atom_site_label
_atom_site_type_symbol
_atom_site_fract_x
_atom_site_fract_y
_atom_site_fract_z
Zn1	Zn	1.095111	-0.415655	-0.381460
Zn2	Zn	1.079213	-0.590608	-0.241885
Zn3	Zn	0.971164	-0.415844	-0.257604
Zn4	Zn	0.955538	-0.590364	-0.365696
O5	O	1.025256	-0.503118	-0.311661
O6	O	1.196633	-0.438886	-0.362964
O7	O	1.064767	-0.567606	-0.140321
O8	O	1.000798	-0.269563	-0.287210
O9	O	1.184953	-0.567423	-0.260419
O10	O	1.091861	-0.269424	-0.378206
O11	O	0.985383	-0.439208	-0.151869
O12	O	0.865460	-0.438971	-0.271924
O13	O	0.974166	-0.567007	-0.471436
O14	O	0.853980	-0.567190	-0.351338
O15	O	1.076709	-0.438649	-0.483018
O16	O	1.049615	-0.736831	-0.245133
O17	O	0.958751	-0.736652	-0.336096
C18	C	1.000782	-0.774664	-0.287214
C19	C	0.990380	-0.890832	-0.276780
C20	C	0.832849	-0.503075	-0.311626
C21	C	0.750535	-0.503082	-0.311627
C22	C	1.025468	-0.502780	-0.504854
C23	C	1.025558	-0.502636	-0.587181
C24	C	0.451438	-0.503147	-0.311683
C25	C	0.489998	-0.422071	-0.262033
C26	C	0.575597	-0.422289	-0.261771
C27	C	0.599823	-0.503114	-0.311655
C28	C	0.558805	-0.613240	-0.280427
C29	C	0.473200	-0.612790	-0.280072
C30	C	0.485631	-0.475054	-0.392609
C31	C	0.571501	-0.472603	-0.392402
C32	C	0.683684	-0.503102	-0.311640
C33	C	0.367577	-0.503167	-0.311696
C34	C	1.218414	-0.503161	-0.311696
C35	C	1.300727	-0.503179	-0.311712
C36	C	1.049846	-0.230511	-0.336220
C37	C	1.060325	-0.114342	-0.346685
C38	C	1.019940	-0.062619	-0.306328
C39	C	1.030770	0.057447	-0.317143
C40	C	1.025095	-0.503379	-0.119227
C41	C	1.025175	-0.503228	-0.036926
C42	C	1.025430	-0.502834	0.262129
C43	C	0.974774	-0.422958	0.223576
C44	C	0.974896	-0.422752	0.137939
C45	C	1.025303	-0.503030	0.113764
C46	C	1.105976	-0.472299	0.141883
C47	C	1.105766	-0.471605	0.227465
C48	C	0.996053	-0.613676	0.240762
C49	C	0.994304	-0.613223	0.155073
C50	C	1.025235	-0.503142	0.029915
C51	C	1.025503	-0.502719	0.345977
H52	H	0.603977	-0.340630	-0.282481
O53	O	0.969081	-0.115940	-0.255646
C54	C	0.915631	-0.178980	-0.292162
H55	H	0.940354	-0.195131	-0.346847
H56	H	0.864521	-0.136948	-0.304044
C57	C	0.862522	-0.262965	-0.174964
C58	C	0.892890	-0.282809	-0.242126
H59	H	0.848491	-0.327010	-0.144099
H60	H	0.898530	-0.220492	-0.150362
H61	H	0.819934	-0.227937	-0.184876
H62	H	0.935482	-0.317825	-0.232214
H63	H	0.856888	-0.325291	-0.266725
H64	H	0.995054	-0.340704	0.109903
H65	H	1.073362	0.102049	-0.359708
H66	H	0.947780	0.064566	-0.234223
O67	O	0.581808	-0.642265	-0.210250
C68	C	0.613989	-0.735614	-0.208458
H69	H	0.633900	-0.744184	-0.266875
H70	H	0.570776	-0.804604	-0.187712
C71	C	0.656161	-0.722289	-0.083862
C72	C	0.680622	-0.732810	-0.155611
H73	H	0.697262	-0.720563	-0.051262
H74	H	0.634478	-0.659400	-0.085068
H75	H	0.620150	-0.779783	-0.066584
H76	H	0.716625	-0.675311	-0.172891
H77	H	0.702313	-0.795690	-0.154407
O78	O	0.474159	-0.324421	-0.286675
C79	C	0.427992	-0.327932	-0.349220
H80	H	0.397319	-0.409969	-0.348450
H81	H	0.463502	-0.306481	-0.402279
C82	C	0.408699	-0.149168	-0.347851
C83	C	0.371021	-0.249925	-0.346903
H84	H	0.373558	-0.101046	-0.346425
H85	H	0.439805	-0.146800	-0.305715
H86	H	0.438289	-0.131306	-0.392068
H87	H	0.341439	-0.267789	-0.302682
H88	H	0.339909	-0.252294	-0.389031
O89	O	1.111230	-0.061253	-0.397414
C90	C	1.182643	-0.087872	-0.378852
H91	H	1.177048	-0.167206	-0.343286
H92	H	1.213044	-0.026527	-0.346272
C93	C	1.234011	0.004789	-0.494314
C94	C	1.227140	-0.092654	-0.450637
H95	H	1.261461	0.001844	-0.538594
H96	H	1.185900	0.022727	-0.506819
H97	H	1.259343	0.055900	-0.467155
H98	H	1.201800	-0.143760	-0.477792
H99	H	1.275248	-0.110601	-0.438138
H100	H	0.599131	-0.391562	-0.415769
H101	H	0.915121	-0.442017	0.246028
H102	H	0.451009	-0.636601	-0.220616
O103	O	1.039865	-0.684825	0.271280
C104	C	1.013003	-0.783928	0.251779
H105	H	0.979080	-0.774390	0.198887
H106	H	0.976229	-0.829694	0.298978
C107	C	1.120828	-0.854959	0.303132
C108	C	1.079168	-0.843245	0.238165
H109	H	1.161640	-0.891551	0.294737
H110	H	1.138924	-0.788193	0.316272
H111	H	1.090174	-0.893094	0.342458
H112	H	1.109819	-0.805099	0.198843
H113	H	1.061078	-0.910006	0.225017
H114	H	1.145109	-0.528698	0.126614
O115	O	0.903862	-0.445953	0.115214
C116	C	0.874028	-0.545326	0.150221
H117	H	0.905401	-0.565097	0.203661
H118	H	0.879952	-0.606050	0.111174
C119	C	0.752525	-0.520855	0.103383
C120	C	0.791054	-0.545135	0.169023
H121	H	0.701341	-0.520740	0.114978
H122	H	0.772624	-0.453908	0.079796
H123	H	0.757469	-0.571462	0.070851
H124	H	0.786116	-0.494521	0.201550
H125	H	0.770951	-0.612074	0.192616
O126	O	0.462197	-0.443876	-0.191186
C127	C	0.429473	-0.357930	-0.172111
H128	H	0.413403	-0.309084	-0.225000
H129	H	0.470973	-0.308203	-0.139873
C130	C	0.379109	-0.457197	-0.058420
C131	C	0.359367	-0.397208	-0.123379
H132	H	0.335867	-0.481424	-0.028357
H133	H	0.401158	-0.515099	-0.071268
H134	H	0.413694	-0.415748	-0.031564
H135	H	0.324790	-0.438660	-0.150238
H136	H	0.337310	-0.339313	-0.110533
H137	H	0.937784	-0.641424	0.265012
H138	H	1.027726	-0.676046	0.139373
H139	H	0.573630	-0.675271	-0.315024
O140	O	0.998733	-0.325620	0.240331
C141	C	1.061058	-0.329397	0.286786
H142	H	1.089056	-0.401016	0.278977
H143	H	1.042263	-0.334122	0.347386
C144	C	1.082320	-0.142428	0.275811
C145	C	1.116711	-0.230388	0.266215
H146	H	1.116649	-0.081354	0.263125
H147	H	1.040329	-0.139883	0.244515
H148	H	1.066659	-0.146381	0.326312
H149	H	1.132364	-0.226441	0.215713
H150	H	1.158707	-0.232930	0.297502
O151	O	1.134715	-0.376762	0.107544
C152	C	1.207172	-0.350331	0.133444
H153	H	1.231377	-0.424427	0.156153
H154	H	1.204813	-0.298749	0.179569
C155	C	1.227082	-0.200040	0.040860
C156	C	1.256813	-0.291047	0.068745
H157	H	1.257702	-0.163467	0.000952
H158	H	1.178265	-0.217845	0.023412
H159	H	1.225117	-0.157068	0.079304
H160	H	1.258768	-0.334023	0.030303
H161	H	1.305631	-0.273248	0.086185
O162	O	0.468277	-0.381002	-0.424290
C163	C	0.427651	-0.393879	-0.489604
H164	H	0.399964	-0.477863	-0.486417
H165	H	0.466989	-0.375325	-0.540068
C166	C	0.401542	-0.216411	-0.500997
C167	C	0.367530	-0.319560	-0.497081
H168	H	0.364458	-0.170565	-0.505612
H169	H	0.428915	-0.207734	-0.456996
H170	H	0.434323	-0.200964	-0.543051
H171	H	0.334757	-0.335010	-0.455022
H172	H	0.340150	-0.328238	-0.541075
O173	O	0.591336	-0.537893	-0.439806
C174	C	0.669579	-0.532593	-0.442721
H175	H	0.693881	-0.503844	-0.389864
H176	H	0.692389	-0.476310	-0.493264
C177	C	0.661557	-0.676976	-0.513948
C178	C	0.691405	-0.641675	-0.449026
H179	H	0.675021	-0.744261	-0.517840
H180	H	0.608843	-0.680545	-0.511987
H181	H	0.680569	-0.630064	-0.556060
H182	H	0.672386	-0.688579	-0.406914
H183	H	0.744116	-0.638116	-0.450979
O184	O	1.134262	-0.374989	0.242443
C185	C	1.198111	-0.382337	0.286377
H186	H	1.222593	-0.456607	0.278098
H187	H	1.182183	-0.384553	0.347562
C188	C	1.226232	-0.195825	0.273071
C189	C	1.256304	-0.287040	0.262897
H190	H	1.262128	-0.137040	0.258591
H191	H	1.183214	-0.190873	0.243474
H192	H	1.212960	-0.197686	0.324059
H193	H	1.269567	-0.285184	0.211909
H194	H	1.299326	-0.291989	0.292485
H195	H	0.594341	-0.440870	-0.202006
H196	H	1.145309	-0.527194	0.253208
O197	O	0.923459	-0.641030	0.133479
C198	C	0.920115	-0.734087	0.100781
H199	H	0.968118	-0.778288	0.121561
H200	H	0.924565	-0.714712	0.037609
C201	C	0.786649	-0.747912	0.096807
C202	C	0.845603	-0.802205	0.122334
H203	H	0.740686	-0.789930	0.110098
H204	H	0.788902	-0.685216	0.118833
H205	H	0.790368	-0.731770	0.044164
H206	H	0.841889	-0.818335	0.174976
H207	H	0.843348	-0.864906	0.100317
O208	O	0.441907	-0.687238	-0.320786
C209	C	0.470060	-0.665501	-0.394513
H210	H	0.526207	-0.614775	-0.395425
H211	H	0.429433	-0.622490	-0.430891
C212	C	0.410890	-0.830684	-0.423553
C213	C	0.479853	-0.768388	-0.424673
H214	H	0.416927	-0.894148	-0.442160
H215	H	0.391920	-0.845327	-0.373883
H216	H	0.377040	-0.794829	-0.453868
H217	H	0.513697	-0.804237	-0.394351
H218	H	0.498829	-0.753753	-0.474338
H219	H	0.460104	-0.534106	-0.429725
