data_functionalizedCrystal
_audit_creation_method	'MofGen! by Chris Wilmer'
_symmetry_space_group_name_H-M	'P1'
_symmetry_Int_Tables_number	1
_symmetry_cell_setting	triclinic
loop_
_symmetry_equiv_pos_as_xyz
  x,y,z
_cell_length_a	6.817900
_cell_length_b	19.551823
_cell_length_c	14.858572
_cell_angle_alpha	95.601378
_cell_angle_beta	104.524003
_cell_angle_gamma	101.663376
loop_
_atom_site_label
_atom_site_type_symbol
_atom_site_fract_x
_atom_site_fract_y
_atom_site_fract_z
V1	V	-4.029316	-0.097115	-0.290397
V2	V	-3.529316	0.402885	0.209603
O3	O	-4.026003	0.004214	-0.284422
O4	O	-3.526003	0.504214	0.215578
O5	O	-3.971945	-0.192128	-0.288841
O6	O	-3.471945	0.307872	0.211159
O7	O	-3.986076	-0.095820	-0.416853
O8	O	-3.486076	0.404180	0.083147
O9	O	-4.011775	-0.092761	-0.155524
O10	O	-3.511775	0.407239	0.344476
V11	V	-4.513437	-0.084972	-0.274213
V12	V	-4.013437	0.415028	0.225787
O13	O	-4.289261	-0.123753	-0.325898
O14	O	-3.789261	0.376247	0.174102
O15	O	-4.703689	-0.058334	-0.238711
O16	O	-4.203689	0.441666	0.261289
O17	O	-4.347601	0.010041	-0.275769
O18	O	-3.847601	0.510041	0.224231
O19	O	-4.634147	-0.186301	-0.280188
O20	O	-4.134147	0.313699	0.219812
O21	O	-4.648375	-0.089326	-0.409086
O22	O	-4.148375	0.410674	0.090914
O23	O	-4.333471	-0.086267	-0.147757
O24	O	-3.833471	0.413733	0.352243
C25	C	-3.814596	-0.215284	-0.284371
C26	C	-3.314596	0.284716	0.215629
C27	C	-3.849010	-0.292959	-0.283942
C28	C	-3.349010	0.207041	0.216058
C29	C	-4.047133	-0.333012	-0.288391
C30	C	-3.547133	0.166988	0.211609
C31	C	-4.079474	-0.405997	-0.287997
C32	C	-3.579474	0.094003	0.212003
C33	C	-3.913671	-0.438925	-0.283136
C34	C	-3.413671	0.061075	0.216864
C35	C	-3.715522	-0.398864	-0.278691
C36	C	-3.215522	0.101136	0.221309
C37	C	-3.683192	-0.325881	-0.279095
C38	C	-3.183192	0.174119	0.220905
C39	C	-3.798036	-0.545324	-0.224164
C40	C	-3.298036	-0.045324	0.275836
C41	C	-3.830370	-0.618305	-0.223755
C42	C	-3.330370	-0.118305	0.276245
C43	C	-4.013382	-0.664029	-0.281896
C44	C	-3.513382	-0.164029	0.218104
C45	C	-4.164084	-0.636763	-0.340435
C46	C	-3.664084	-0.136763	0.159565
C47	C	-4.131754	-0.563780	-0.340838
C48	C	-3.631754	-0.063780	0.159162
C49	C	-3.948707	-0.518063	-0.282698
C50	C	-3.448707	-0.018063	0.217302
C51	C	-4.246586	-0.783221	-0.285920
C52	C	-3.746586	-0.283221	0.214080
C53	C	-4.278923	-0.856209	-0.285531
C54	C	-3.778923	-0.356209	0.214469
C55	C	-3.914960	-0.849073	-0.276216
C56	C	-3.414960	-0.349073	0.223784
C57	C	-3.882634	-0.776088	-0.276614
C58	C	-3.382634	-0.276088	0.223386
C59	C	-4.048452	-0.743166	-0.281461
C60	C	-3.548452	-0.243166	0.218539
C61	C	-3.832621	-0.092433	-0.447661
C62	C	-3.332621	0.407567	0.052339
C63	C	-3.878491	-0.092002	-0.551043
C64	C	-3.378491	0.407998	-0.051043
C65	C	-4.046379	-0.090429	-0.929604
C66	C	-3.546379	0.409571	-0.429604
C67	C	-3.999659	-0.090867	-0.824276
C68	C	-3.499659	0.409133	-0.324276
C69	C	-3.962437	-0.091216	-0.740327
C70	C	-3.462437	0.408784	-0.240327
C71	C	-3.915714	-0.091653	-0.634992
C72	C	-3.415714	0.408347	-0.134992
C73	C	-4.168291	0.033193	-0.280236
C74	C	-3.668291	0.533193	0.219764
C75	C	-4.113116	0.110868	-0.280671
C76	C	-3.613116	0.610868	0.219329
C77	C	-4.150267	-0.089657	-0.116943
C78	C	-3.650267	0.410343	0.383057
C79	C	-4.083635	-0.090083	-0.013561
C80	C	-3.583635	0.409917	0.486439
H81	H	-4.240815	-0.438614	-0.291620
H82	H	-3.740815	0.061386	0.208380
H83	H	-3.648991	-0.508100	-0.176821
H84	H	-3.148991	-0.008100	0.323179
F85	F	-3.539065	-0.433910	-0.273521
F86	F	-3.039065	0.066090	0.226479
H87	H	-4.182162	-0.306212	-0.292344
H88	H	-3.682162	0.193788	0.207656
F89	F	-4.292131	-0.534764	-0.403142
F90	F	-3.792131	-0.034764	0.096858
F91	F	-3.472314	-0.283253	-0.274358
F92	F	-2.972314	0.216747	0.225642
H93	H	-4.312934	-0.674002	-0.387907
H94	H	-3.812934	-0.174002	0.112093
F95	F	-4.423068	-0.748183	-0.291095
F96	F	-3.923068	-0.248183	0.208905
F97	F	-3.738501	-0.884114	-0.271051
F98	F	-3.238501	-0.384114	0.228949
H99	H	-3.721299	-0.743476	-0.272985
H100	H	-3.221299	-0.243476	0.227015
F101	F	-4.489805	-0.898837	-0.290273
F102	F	-3.989805	-0.398837	0.209727
H103	H	-3.707665	-0.640498	-0.176083
H104	H	-3.207665	-0.140498	0.323917
