data_functionalizedCrystal
_audit_creation_method	'MofGen! by Chris Wilmer'
_symmetry_space_group_name_H-M	'P1'
_symmetry_Int_Tables_number	1
_symmetry_cell_setting	triclinic
loop_
_symmetry_equiv_pos_as_xyz
  x,y,z
_cell_length_a	19.188933
_cell_length_b	19.188930
_cell_length_c	10.065875
_cell_angle_alpha	98.754308
_cell_angle_beta	81.284263
_cell_angle_gamma	83.145175
loop_
_atom_site_label
_atom_site_type_symbol
_atom_site_fract_x
_atom_site_fract_y
_atom_site_fract_z
O1	O	0.936388	0.076883	-0.113461
O2	O	0.733078	0.088614	-0.113476
O3	O	0.840598	-0.018904	-0.113441
O4	O	0.828868	0.184402	-0.113495
O5	O	0.820095	0.001680	0.113541
O6	O	0.712575	0.109199	0.113507
O7	O	0.915885	0.097467	0.113521
Zn8	Zn	0.810975	0.106601	0.149552
Zn9	Zn	0.837988	0.079480	-0.149506
O10	O	0.808366	0.204986	0.113487
C11	C	0.696816	0.098526	0.000014
C12	C	0.619312	0.097385	0.000010
C13	C	0.077231	0.078020	-0.123702
C14	C	0.150056	0.079088	-0.123707
C15	C	0.175297	0.090846	0.000020
C16	C	0.127709	0.101519	0.123762
C17	C	0.054886	0.100444	0.123764
N18	N	0.275999	0.140615	0.092105
N19	N	0.345177	0.141637	0.092095
C20	C	0.394705	0.094084	0.000022
N21	N	0.372442	0.045477	-0.092062
N22	N	0.303257	0.044458	-0.092055
C23	C	0.254259	0.092012	0.000032
C24	C	0.521250	0.084564	-0.123719
C25	C	0.594076	0.085628	-0.123719
C26	C	0.571726	0.108066	0.123754
C27	C	0.498902	0.106995	0.123751
C28	C	0.473668	0.095247	0.000011
C29	C	0.829966	-0.034623	0.000054
C30	C	0.828824	-0.112126	0.000066
C31	C	0.891914	-0.157049	0.000077
C32	C	0.890844	-0.229875	0.000055
C33	C	0.826679	-0.257772	0.000049
C34	C	0.763581	-0.212841	0.000030
C35	C	0.764654	-0.140018	0.000039
N36	N	0.770654	-0.358773	0.077292
N37	N	0.769639	-0.427952	0.077287
C38	C	0.823443	-0.477183	0.000021
N39	N	0.878309	-0.454623	-0.077222
N40	N	0.879326	-0.385437	-0.077211
C41	C	0.825509	-0.336736	0.000039
C42	C	0.885378	-0.601073	0.000007
C43	C	0.884306	-0.673900	-0.000024
C44	C	0.757040	-0.656863	-0.000034
C45	C	0.758115	-0.584039	-0.000018
C46	C	0.822285	-0.556147	0.000009
C47	C	0.952148	0.087555	0.000029
C48	C	1.029653	0.088696	0.000024
C49	C	0.818998	0.220704	-0.000011
C50	C	0.820140	0.298207	-0.000032
N51	N	0.792544	0.125110	0.353652
N52	N	0.856425	0.060966	-0.353606
C53	C	0.831571	0.085916	0.421443
C54	C	0.817392	0.100166	0.578606
H55	H	0.188801	0.070398	-0.224463
C56	C	0.890231	0.027156	0.343914
C57	C	0.955732	0.041250	0.378612
C58	C	1.009790	-0.012868	0.307252
H59	H	0.892096	0.025329	0.248587
H60	H	0.880608	-0.017291	0.367320
H61	H	0.965353	0.085685	0.355196
H62	H	0.953890	0.043070	0.473926
H63	H	1.000167	-0.057315	0.330659
H64	H	1.011649	-0.014691	0.211929
H65	H	1.054238	-0.003317	0.330794
C66	C	0.154996	0.114402	0.258199
C67	C	0.122486	0.180952	0.332857
C68	C	0.147597	0.192836	0.456718
H69	H	0.205169	0.113569	0.240673
H70	H	0.143896	0.078155	0.309116
H71	H	0.133591	0.217189	0.281950
H72	H	0.072314	0.181802	0.350419
H73	H	0.136498	0.156590	0.507635
H74	H	0.197770	0.192000	0.439179
H75	H	0.125539	0.237988	0.507394
H76	H	0.592277	0.117637	0.224495
C77	C	0.049980	0.065207	-0.258187
C78	C	0.107243	0.056065	-0.366543
C79	C	0.082167	0.044247	-0.490450
H80	H	0.016602	0.104995	-0.263539
H81	H	0.027513	0.023591	-0.263393
H82	H	0.129699	0.097677	-0.361340
H83	H	0.140627	0.016277	-0.361237
H84	H	0.059700	0.002631	-0.495656
H85	H	0.048789	0.084037	-0.495788
H86	H	0.121017	0.038037	-0.563985
C87	C	0.693920	-0.243112	-0.000257
C88	C	0.666352	-0.230858	-0.117058
C89	C	0.602185	-0.258742	-0.117386
H90	H	0.660723	-0.220534	0.078800
H91	H	0.702294	-0.292926	-0.000331
H92	H	0.657975	-0.181053	-0.116971
H93	H	0.699529	-0.253437	-0.196133
H94	H	0.610559	-0.308556	-0.117460
H95	H	0.568994	-0.236161	-0.038324
H96	H	0.583476	-0.250437	-0.196639
H97	H	0.460162	0.115691	0.224502
H98	H	0.016146	0.109140	0.224520
C99	C	0.959414	-0.278537	0.000141
C100	C	1.015837	-0.238521	0.000197
C101	C	1.079011	-0.283320	0.000296
H102	H	0.968891	-0.314485	-0.078991
H103	H	0.954519	-0.300113	0.079326
H104	H	1.020732	-0.216956	-0.078980
H105	H	1.006384	-0.202575	0.079324
H106	H	1.074116	-0.304897	0.079481
H107	H	1.088481	-0.319266	-0.078838
H108	H	1.117300	-0.256175	0.000346
H109	H	0.937629	-0.578363	0.000022
C110	C	0.687308	-0.687013	-0.000111
C111	C	0.632286	-0.632082	-0.000144
C112	C	0.568039	-0.659835	-0.000239
H113	H	0.676996	-0.707890	0.079016
H114	H	0.691359	-0.722220	-0.079302
H115	H	0.628234	-0.596889	0.079039
H116	H	0.642574	-0.611201	-0.079265
H117	H	0.572091	-0.695041	-0.079430
H118	H	0.557734	-0.680711	0.078889
H119	H	0.530701	-0.622570	-0.000274
H120	H	0.706739	-0.547461	-0.000019
H121	H	0.944167	-0.134345	0.000094
C122	C	0.758731	0.158894	0.656270
C123	C	0.693212	0.144802	0.621662
C124	C	0.639158	0.198879	0.693193
H125	H	0.768297	0.203368	0.632968
H126	H	0.756934	0.160652	0.751581
H127	H	0.695010	0.143051	0.526371
H128	H	0.683623	0.100338	0.644967
H129	H	0.637361	0.200637	0.788505
H130	H	0.648731	0.243349	0.669886
H131	H	0.594696	0.189322	0.669731
C132	C	0.696199	-0.091231	-0.000247
C133	C	0.703641	-0.059515	-0.117033
C134	C	0.640591	-0.014575	-0.117348
H135	H	0.686762	-0.055242	0.078820
H136	H	0.657816	-0.118256	-0.000331
H137	H	0.742011	-0.032492	-0.116935
H138	H	0.713067	-0.095487	-0.196118
H139	H	0.602208	-0.041600	-0.117433
H140	H	0.631159	0.021410	-0.038277
H141	H	0.645629	0.006944	-0.196592
H142	H	0.900335	0.016855	0.588087
C143	C	0.733886	0.183835	0.431321
C144	C	0.668367	0.169743	0.396713
C145	C	0.614313	0.223820	0.468244
H146	H	0.743452	0.228309	0.408019
H147	H	0.732090	0.185593	0.526632
H148	H	0.670165	0.167993	0.301422
H149	H	0.658779	0.125279	0.420018
H150	H	0.612516	0.225578	0.563556
H151	H	0.623886	0.268291	0.444937
H152	H	0.569851	0.214263	0.444782
H153	H	0.935684	-0.710477	-0.000022
H154	H	0.500704	0.074996	-0.224475
H155	H	0.632816	0.076929	-0.224476
