data_functionalizedCrystal
_audit_creation_method	'MofGen! by Chris Wilmer'
_symmetry_space_group_name_H-M	'P1'
_symmetry_Int_Tables_number	1
_symmetry_cell_setting	triclinic
loop_
_symmetry_equiv_pos_as_xyz
  x,y,z
_cell_length_a	10.654550
_cell_length_b	14.586319
_cell_length_c	10.654550
_cell_angle_alpha	89.987822
_cell_angle_beta	95.515069
_cell_angle_gamma	90.004939
loop_
_atom_site_label
_atom_site_type_symbol
_atom_site_fract_x
_atom_site_fract_y
_atom_site_fract_z
O1	O	1.667847	0.076172	-0.176412
O2	O	1.302368	0.076188	-0.193218
O3	O	1.493510	0.076174	-0.002076
O4	O	1.476704	0.076186	-0.367555
O5	O	1.493483	-0.076307	-0.002043
O6	O	1.302341	-0.076292	-0.193186
O7	O	1.667819	-0.076309	-0.176380
Cu8	Cu	1.485077	-0.090223	-0.184780
Cu9	Cu	1.485110	0.090103	-0.184818
O10	O	1.476677	-0.076295	-0.367522
C11	C	1.255556	-0.000050	-0.191968
C12	C	1.116113	-0.000044	-0.188276
N13	N	1.485064	-0.217055	-0.184752
C14	C	1.036628	-0.000042	-0.300818
C15	C	0.905607	-0.000058	-0.297341
C16	C	0.933570	-0.000073	-0.068772
C17	C	1.064588	-0.000063	-0.072250
C18	C	1.408272	-0.548083	-0.107927
C19	C	1.408262	-0.452102	-0.107909
C20	C	1.561934	-0.452044	-0.261664
C21	C	1.561950	-0.548024	-0.261674
C22	C	1.485112	-0.596041	-0.184808
C23	C	1.485086	-0.404080	-0.184780
C24	C	1.485075	-0.300013	-0.184762
C25	C	1.485123	-0.700114	-0.184824
C26	C	1.714631	-0.000069	-0.177630
C27	C	1.854074	-0.000069	-0.181322
N28	N	1.485134	0.216935	-0.184836
C29	C	1.492263	-0.000066	0.044738
C30	C	1.488571	-0.000064	0.184181
C31	C	1.477925	-0.000053	-0.414336
C32	C	1.481616	-0.000048	-0.553779
C33	C	1.601112	-0.000069	0.263667
C34	C	1.597636	-0.000058	0.394688
C35	C	1.369066	-0.000041	0.366725
C36	C	1.372544	-0.000045	0.235706
H37	H	1.078574	-0.000033	-0.395294
O38	O	1.644795	-0.400248	-0.344573
H39	H	1.698239	-0.449724	-0.398027
O40	O	0.819871	-0.000054	-0.418724
H41	H	0.877716	-0.000033	-0.499983
H42	H	0.891602	-0.000095	0.025693
O43	O	1.726250	-0.000082	0.208090
H44	H	1.733305	0.062061	0.149037
O45	O	1.150335	-0.000067	0.049139
H46	H	1.092498	-0.000070	0.130404
O47	O	1.243931	-0.000041	0.422305
H48	H	1.236890	0.062103	0.481323
O49	O	1.644828	-0.599760	-0.344602
H50	H	1.698241	-0.550248	-0.398065
H51	H	1.689279	-0.000060	0.459401
O52	O	1.251155	-0.000051	0.149960
H53	H	1.169891	-0.000054	0.207797
H54	H	1.345706	-0.587176	-0.045336
H55	H	1.345693	-0.413059	-0.045304
