data_functionalizedCrystal
_audit_creation_method	'MofGen! by Chris Wilmer'
_symmetry_space_group_name_H-M	'P1'
_symmetry_Int_Tables_number	1
_symmetry_cell_setting	triclinic
loop_
_symmetry_equiv_pos_as_xyz
  x,y,z
_cell_length_a	29.839134
_cell_length_b	12.759394
_cell_length_c	29.839125
_cell_angle_alpha	89.987891
_cell_angle_beta	90.021980
_cell_angle_gamma	89.990301
loop_
_atom_site_label
_atom_site_type_symbol
_atom_site_fract_x
_atom_site_fract_y
_atom_site_fract_z
Zn1	Zn	0.686803	0.418558	0.254143
Zn2	Zn	0.686770	0.594215	0.179020
Zn3	Zn	0.611685	0.418535	0.179012
Zn4	Zn	0.611668	0.594180	0.254108
O5	O	0.649231	0.506372	0.216571
O6	O	0.749665	0.441884	0.244195
O7	O	0.676803	0.570916	0.116152
O8	O	0.621671	0.271517	0.188989
O9	O	0.749641	0.570938	0.189003
O10	O	0.676859	0.271534	0.244187
O11	O	0.621639	0.441844	0.116146
O12	O	0.548816	0.441810	0.188956
O13	O	0.621641	0.570878	0.316980
O14	O	0.548803	0.570856	0.244129
O15	O	0.676842	0.441849	0.317005
O16	O	0.676786	0.741231	0.188969
O17	O	0.621609	0.741205	0.244136
C18	C	0.649204	0.779339	0.216560
C19	C	0.649234	0.896116	0.216570
C20	C	0.532509	0.506327	0.216538
C21	C	0.482574	0.506333	0.216535
C22	C	0.649244	0.506362	0.333749
C23	C	0.649249	0.506358	0.383683
C24	C	0.172934	0.573665	0.245264
C25	C	-0.014739	0.573695	0.245284
O26	O	-0.039002	0.630893	0.269691
N27	N	-0.038211	0.506410	0.216605
C28	C	-0.014761	0.439109	0.187920
O29	O	-0.039031	0.381872	0.163530
C30	C	0.172911	0.439075	0.187903
C31	C	0.196380	0.506371	0.216581
C32	C	0.196403	0.640955	0.273940
C33	C	0.243318	0.640951	0.273933
C34	C	0.266765	0.573657	0.245250
C35	C	0.243296	0.506367	0.216574
C36	C	0.196360	0.371769	0.159221
C37	C	0.243281	0.371764	0.159220
C38	C	0.266750	0.439061	0.187898
C39	C	0.313658	0.439069	0.187884
N40	N	0.337129	0.506353	0.216563
C41	C	0.313683	0.573647	0.245246
C42	C	-0.113292	0.439133	0.187931
C43	C	-0.160209	0.439143	0.187934
C44	C	-0.160184	0.573727	0.245299
C45	C	-0.113266	0.573722	0.245293
C46	C	-0.089820	0.506417	0.216610
C47	C	0.412208	0.573634	0.245229
C48	C	0.459128	0.573627	0.245218
C49	C	0.459099	0.439039	0.187856
C50	C	0.412183	0.439050	0.187865
C51	C	0.388739	0.506351	0.216555
O52	O	0.337949	0.381892	0.163493
O53	O	0.337961	0.630859	0.269640
C54	C	0.126018	0.573669	0.245271
C55	C	0.102549	0.506379	0.216595
C56	C	0.125996	0.439085	0.187912
C57	C	0.055632	0.506389	0.216599
C58	C	0.032185	0.573683	0.245282
C59	C	0.055657	0.640967	0.273961
C60	C	0.102572	0.640963	0.273954
C61	C	0.102524	0.371801	0.159232
C62	C	0.055609	0.371811	0.159241
C63	C	0.032162	0.439105	0.187924
C64	C	0.766410	0.506417	0.216603
C65	C	0.816344	0.506437	0.216617
C66	C	0.649271	0.232338	0.216591
C67	C	0.649287	0.115562	0.216600
C68	C	0.706733	0.896090	0.159168
C69	C	0.735494	0.950937	0.130472
C70	C	0.735520	1.060659	0.130484
C71	C	0.706783	1.115535	0.159196
C72	C	0.678022	1.060688	0.187892
C73	C	0.677998	0.950964	0.187876
C74	C	0.620526	1.060714	0.245296
C75	C	0.620497	0.950992	0.245282
C76	C	0.591790	1.115590	0.274008
C77	C	0.563025	1.060743	0.302703
C78	C	0.563000	0.951015	0.302689
C79	C	0.591736	0.896145	0.273978
C80	C	0.649245	0.506305	0.099848
C81	C	0.649327	0.506013	0.049914
C82	C	0.678022	0.438997	0.693343
C83	C	0.678044	0.438908	0.881016
O84	O	0.702475	0.381734	0.905295
N85	N	0.649308	0.506077	0.904469
C86	C	0.620562	0.573269	0.881000
O87	O	0.596118	0.630391	0.905254
C88	C	0.620538	0.573352	0.693328
C89	C	0.649279	0.506186	0.669878
C90	C	0.706761	0.371836	0.669893
C91	C	0.706757	0.371863	0.622978
C92	C	0.678014	0.439051	0.599512
C93	C	0.649275	0.506213	0.622962
C94	C	0.591790	0.640538	0.669860
C95	C	0.591786	0.640551	0.622939
C96	C	0.620527	0.573384	0.599489
C97	C	0.620529	0.573429	0.552582
N98	N	0.649265	0.506259	0.529129
C99	C	0.678007	0.439071	0.552594
C100	C	0.620578	0.573221	0.979531
C101	C	0.620584	0.573202	1.026449
C102	C	0.678066	0.438839	1.026462
C103	C	0.678061	0.438865	0.979543
C104	C	0.649314	0.506052	0.956078
C105	C	0.677997	0.439133	0.454068
C106	C	0.677991	0.439170	0.407149
C107	C	0.620508	0.573528	0.407140
C108	C	0.620515	0.573496	0.454056
C109	C	0.649261	0.506290	0.477519
O110	O	0.596107	0.630564	0.528274
O111	O	0.702441	0.381941	0.528332
C112	C	0.678026	0.438970	0.740259
C113	C	0.649288	0.506132	0.763709
C114	C	0.620545	0.573320	0.740243
C115	C	0.649294	0.506112	0.810627
C116	C	0.678037	0.438924	0.834092
C117	C	0.706773	0.371754	0.810639
C118	C	0.706769	0.371781	0.763724
C119	C	0.591809	0.640490	0.763696
C120	C	0.591816	0.640458	0.810611
C121	C	0.620558	0.573269	0.834077
H122	H	0.478234	0.628432	0.268572
H123	H	0.597169	0.627940	0.960430
C124	C	0.766643	0.891167	0.099316
C125	C	0.760458	0.783338	0.105436
C126	C	0.789141	0.728250	0.076740
H127	H	0.796847	0.908964	0.105894
H128	H	0.760086	0.909136	0.069117
H129	H	0.767019	0.765376	0.135628
H130	H	0.730260	0.765510	0.098855
H131	H	0.782583	0.746219	0.046541
H132	H	0.819343	0.746055	0.083320
H133	H	0.784945	0.655083	0.080886
C134	C	0.531800	0.891601	0.333920
C135	C	0.541558	0.918244	0.378381
C136	C	0.512823	0.863547	0.407163
H137	H	0.535871	0.818379	0.329862
H138	H	0.501616	0.909666	0.327346
H139	H	0.571736	0.900172	0.384952
H140	H	0.537485	0.991456	0.382453
H141	H	0.482638	0.881611	0.400590
H142	H	0.516895	0.790328	0.403102
H143	H	0.519437	0.881623	0.437333
H144	H	0.597185	0.627907	1.045538
C145	C	0.591866	1.234717	0.274108
C146	C	0.603322	1.270949	0.316892
C147	C	0.603401	1.380682	0.317000
H148	H	0.562900	1.259730	0.266343
H149	H	0.613123	1.259565	0.252927
H150	H	0.582065	1.246112	0.338067
H151	H	0.632287	1.245965	0.324666
H152	H	0.624659	1.405530	0.295819
H153	H	0.574435	1.405685	0.309234
H154	H	0.611178	1.405279	0.346027
H155	H	0.568371	0.695253	0.603837
C156	C	0.531757	1.120187	0.333848
C157	C	0.487306	1.093575	0.324025
C158	C	0.458489	1.148307	0.352711
H159	H	0.535832	1.193404	0.329777
H160	H	0.538281	1.102131	0.364045
H161	H	0.480784	1.111638	0.293836
H162	H	0.483216	1.020367	0.328099
H163	H	0.465013	1.130250	0.382908
H164	H	0.462568	1.221521	0.348638
H165	H	0.428326	1.130251	0.346054
H166	H	0.758942	1.105316	0.107119
H167	H	0.591715	0.806804	0.273961
C168	C	0.709214	0.366124	0.381770
C169	C	0.734376	0.307258	0.412366
C170	C	0.763136	0.239949	0.389006
H171	H	0.728822	0.406211	0.363472
H172	H	0.692043	0.320293	0.363472
H173	H	0.751545	0.353083	0.430657
H174	H	0.714779	0.267150	0.430665
H175	H	0.745966	0.194118	0.370708
H176	H	0.782741	0.280045	0.370709
H177	H	0.780209	0.199994	0.409762
C178	C	0.386671	0.366156	0.156680
C179	C	0.359716	0.425521	0.127837
C180	C	0.336214	0.358395	0.099107
H181	H	0.368349	0.320428	0.173859
H182	H	0.407338	0.326088	0.139568
H183	H	0.339052	0.465571	0.144947
H184	H	0.378027	0.471246	0.110648
H185	H	0.356881	0.318327	0.081996
H186	H	0.317894	0.312670	0.116291
H187	H	0.317925	0.398664	0.079532
H188	H	0.262368	0.316949	0.135865
H189	H	0.597108	0.628234	0.388026
C190	C	0.709133	0.366042	0.479561
C191	C	0.683714	0.298648	0.506480
C192	C	0.712382	0.231298	0.529966
H193	H	0.728714	0.406104	0.497906
H194	H	0.726238	0.325991	0.458884
H195	H	0.666616	0.338694	0.527155
H196	H	0.664134	0.258562	0.488147
H197	H	0.729487	0.191248	0.509289
H198	H	0.731962	0.271369	0.548308
H199	H	0.695139	0.185557	0.548230
C200	C	0.560532	0.713496	0.695231
C201	C	0.535353	0.772306	0.664630
C202	C	0.506546	0.839517	0.687984
H203	H	0.577656	0.759375	0.713541
H204	H	0.540941	0.673309	0.713517
H205	H	0.554942	0.812490	0.646352
H206	H	0.518220	0.726454	0.646319
H207	H	0.486954	0.799330	0.706270
H208	H	0.523673	0.885390	0.706293
H209	H	0.489455	0.879421	0.667225
C210	C	0.589387	0.646547	0.479544
C211	C	0.614812	0.713898	0.506485
C212	C	0.586148	0.781205	0.529964
H213	H	0.569811	0.606452	0.497874
H214	H	0.572276	0.686630	0.458863
H215	H	0.631916	0.673818	0.527163
H216	H	0.634387	0.754016	0.488167
H217	H	0.569037	0.821288	0.509283
H218	H	0.566574	0.741101	0.548291
H219	H	0.603395	0.826916	0.548243
H220	H	0.730160	0.317167	0.603889
H221	H	0.177318	0.695754	0.297300
C222	C	0.738021	0.298844	0.695284
C223	C	0.763191	0.240060	0.664696
C224	C	0.792002	0.172821	0.688065
H225	H	0.720901	0.252951	0.713586
H226	H	0.757619	0.339011	0.713579
H227	H	0.743596	0.199896	0.646408
H228	H	0.780321	0.285925	0.646393
H229	H	0.811600	0.212988	0.706360
H230	H	0.774878	0.126935	0.706366
H231	H	0.809086	0.132935	0.667315
H232	H	0.262423	0.695749	0.297287
H233	H	0.121676	0.695763	0.297307
H234	H	0.701464	0.384170	0.960453
C235	C	0.737929	0.298841	0.836203
C236	C	0.731768	0.313184	0.882309
C237	C	0.760453	0.246024	0.905874
H238	H	0.768131	0.314156	0.828581
H239	H	0.731357	0.228229	0.828539
H240	H	0.738344	0.383780	0.889970
H241	H	0.701572	0.297861	0.889945
H242	H	0.753880	0.175412	0.898210
H243	H	0.790653	0.261344	0.898249
H244	H	0.756274	0.255740	0.937160
H245	H	-0.094206	0.384324	0.164572
H246	H	0.177260	0.316971	0.135867
C247	C	0.706865	1.234662	0.159131
C248	C	0.738197	1.270950	0.127850
C249	C	0.738280	1.380683	0.127774
H250	H	0.714637	1.259563	0.188107
H251	H	0.677893	1.259584	0.151313
H252	H	0.767163	1.246039	0.135670
H253	H	0.730432	1.246077	0.098869
H254	H	0.709308	1.405605	0.119957
H255	H	0.746051	1.405574	0.156752
H256	H	0.759536	1.405318	0.106548
C257	C	0.030050	0.298879	0.128109
C258	C	-0.016058	0.313301	0.134237
C259	C	-0.039615	0.246152	0.105561
H260	H	0.037691	0.228264	0.134699
H261	H	0.037703	0.314177	0.097905
H262	H	-0.023708	0.297996	0.164435
H263	H	-0.023712	0.383903	0.127644
H264	H	-0.031962	0.261450	0.075357
H265	H	-0.031971	0.175541	0.112154
H266	H	-0.070901	0.255935	0.109713
C267	C	0.560559	0.713428	0.835987
C268	C	0.535380	0.772248	0.805389
C269	C	0.506576	0.839458	0.828747
H270	H	0.577684	0.759300	0.854299
H271	H	0.540967	0.673239	0.854272
H272	H	0.554969	0.812433	0.787113
H273	H	0.518245	0.726403	0.787077
H274	H	0.486984	0.799270	0.847032
H275	H	0.523705	0.885324	0.847058
H276	H	0.489485	0.879368	0.807990
H277	H	0.393126	0.628435	0.268593
H278	H	0.730173	0.317087	0.744635
C279	C	0.030219	0.714201	0.305051
C280	C	0.041607	0.818123	0.295188
C281	C	0.018177	0.885604	0.323816
H282	H	0.037905	0.699065	0.335262
H283	H	-0.001088	0.704630	0.300942
H284	H	0.072908	0.827689	0.299301
H285	H	0.033921	0.833292	0.264983
H286	H	-0.013130	0.876033	0.319707
H287	H	0.025865	0.870459	0.354025
H288	H	0.025898	0.956123	0.317125
H289	H	0.706708	0.806748	0.159149
H290	H	0.478197	0.384253	0.164501
H291	H	0.701470	0.384132	1.045575
H292	H	-0.094160	0.628519	0.268645
H293	H	0.568403	0.695205	0.744595
C294	C	-0.185727	0.646671	0.276427
C295	C	-0.231837	0.632247	0.270297
C296	C	-0.255383	0.699403	0.298969
H297	H	-0.178101	0.717284	0.269834
H298	H	-0.178050	0.631380	0.306632
H299	H	-0.239511	0.647545	0.240099
H300	H	-0.239476	0.561647	0.276893
H301	H	-0.247706	0.684112	0.329174
H302	H	-0.247754	0.770012	0.292374
H303	H	-0.286671	0.689619	0.294817
H304	H	0.121610	0.317000	0.135875
C305	C	-0.185606	0.365971	0.156777
C306	C	-0.155025	0.307020	0.131668
C307	C	-0.178402	0.239587	0.102967
H308	H	-0.203921	0.405972	0.137133
H309	H	-0.203888	0.320199	0.173987
H310	H	-0.136750	0.352786	0.114459
H311	H	-0.136708	0.266998	0.151300
H312	H	-0.196684	0.193814	0.120177
H313	H	-0.196716	0.279596	0.083326
H314	H	-0.157656	0.199573	0.085930
