data_functionalizedCrystal
_audit_creation_method	'MofGen! by Chris Wilmer'
_symmetry_space_group_name_H-M	'P1'
_symmetry_Int_Tables_number	1
_symmetry_cell_setting	triclinic
loop_
_symmetry_equiv_pos_as_xyz
  x,y,z
_cell_length_a	14.519709
_cell_length_b	13.330367
_cell_length_c	14.519731
_cell_angle_alpha	89.994378
_cell_angle_beta	83.684499
_cell_angle_gamma	89.998062
loop_
_atom_site_label
_atom_site_type_symbol
_atom_site_fract_x
_atom_site_fract_y
_atom_site_fract_z
O1	O	1.223881	-0.083295	0.120889
O2	O	1.557214	0.250038	0.454223
O3	O	1.890548	0.583372	0.787556
O4	O	0.955405	-0.083326	0.135126
O5	O	1.288738	0.250007	0.468459
O6	O	1.622072	0.583341	0.801792
O7	O	1.096751	-0.083301	-0.006230
O8	O	1.430084	0.250033	0.327104
O9	O	1.763418	0.583366	0.660437
O10	O	1.082535	-0.083321	0.262245
O11	O	1.415868	0.250013	0.595578
O12	O	1.749202	0.583346	0.928911
O13	O	1.096730	0.083546	-0.006233
O14	O	1.430064	0.416880	0.327101
O15	O	1.763397	0.750213	0.660434
O16	O	0.955385	0.083521	0.135123
O17	O	1.288718	0.416854	0.468456
O18	O	1.622051	0.750188	0.801789
O19	O	1.223860	0.083552	0.120886
O20	O	1.557194	0.416885	0.454220
O21	O	1.890527	0.750219	0.787553
Cu22	Cu	1.089621	0.098771	0.128004
Cu23	Cu	1.422954	0.432104	0.461337
Cu24	Cu	1.756287	0.765438	0.794671
Cu25	Cu	1.089645	-0.098545	0.128008
Cu26	Cu	1.422978	0.234788	0.461341
Cu27	Cu	1.756312	0.568122	0.794675
O28	O	1.082514	0.083527	0.262242
O29	O	1.415848	0.416860	0.595575
O30	O	1.749181	0.750193	0.928908
C31	C	0.921035	0.000094	0.134461
C32	C	1.254368	0.333427	0.467794
C33	C	1.587702	0.666760	0.801127
C34	C	0.818654	0.000082	0.132473
C35	C	1.151987	0.333415	0.465806
C36	C	1.485320	0.666749	0.799139
N37	N	1.089610	0.237552	0.128001
N38	N	1.422944	0.570886	0.461334
N39	N	1.756277	0.904219	0.794668
C40	C	1.096075	0.000123	-0.040591
C41	C	1.429408	0.333456	0.292743
C42	C	1.762741	0.666790	0.626076
C43	C	1.094079	0.000123	-0.142971
C44	C	1.427412	0.333457	0.190363
C45	C	1.760745	0.666790	0.523696
C46	C	0.443757	0.000128	0.125153
C47	C	0.777091	0.333462	0.458486
C48	C	1.110424	0.666795	0.791820
C49	C	0.548065	0.000115	0.127186
C50	C	0.881399	0.333448	0.460519
C51	C	1.214732	0.666782	0.793852
C52	C	0.631202	0.000104	0.128813
C53	C	0.964535	0.333438	0.462146
C54	C	1.297869	0.666771	0.795479
C55	C	0.735517	0.000093	0.130846
C56	C	1.068850	0.333426	0.464179
C57	C	1.402183	0.666760	0.797512
C58	C	1.258230	0.000130	0.121551
C59	C	1.591564	0.333463	0.454885
C60	C	1.924897	0.666797	0.788218
C61	C	1.360612	0.000135	0.123539
C62	C	1.693945	0.333468	0.456873
C63	C	2.027279	0.666802	0.790206
N64	N	1.089662	-0.237327	0.128004
N65	N	1.422996	0.096007	0.461337
N66	N	1.756329	0.429340	0.794670
C67	C	1.027054	0.710164	0.190575
C68	C	1.360387	1.043497	0.523909
C69	C	1.693721	1.376831	0.857242
C70	C	1.152260	0.710155	0.065433
C71	C	1.485594	1.043488	0.398767
C72	C	1.818927	1.376821	0.732100
C73	C	1.152250	0.605136	0.065430
C74	C	1.485583	0.938470	0.398764
C75	C	1.818917	1.271803	0.732097
C76	C	1.089642	0.552627	0.128002
C77	C	1.422975	0.885960	0.461335
C78	C	1.756308	1.219294	0.794669
C79	C	1.027044	0.605136	0.190576
C80	C	1.360377	0.938469	0.523910
C81	C	1.693710	1.271803	0.857243
C82	C	1.214853	0.552619	0.002863
C83	C	1.548186	0.885953	0.336197
C84	C	1.881520	1.219286	0.669530
C85	C	1.214846	0.447595	0.002859
C86	C	1.548179	0.780928	0.336192
C87	C	1.881513	1.114261	0.669525
C88	C	1.152232	0.395083	0.065427
C89	C	1.485566	0.728417	0.398760
C90	C	1.818899	1.061750	0.732093
C91	C	1.089631	0.447599	0.128003
C92	C	1.422964	0.780932	0.461336
C93	C	1.756298	1.114266	0.794670
C94	C	1.027023	0.395090	0.190574
C95	C	1.360356	0.728423	0.523908
C96	C	1.693689	1.061756	0.857241
C97	C	0.964416	0.447603	0.253147
C98	C	1.297750	0.780937	0.586480
C99	C	1.631083	1.114270	0.919814
C100	C	0.964430	0.552625	0.253144
C101	C	1.297763	0.885958	0.586478
C102	C	1.631097	1.219292	0.919811
C103	C	1.152219	0.290062	0.065429
C104	C	1.485552	0.623395	0.398763
C105	C	1.818885	0.956728	0.732096
C106	C	1.027012	0.290062	0.190575
C107	C	1.360346	0.623395	0.523909
C108	C	1.693679	0.956728	0.857242
C109	C	1.092457	0.000121	-0.226115
C110	C	1.425790	0.333454	0.107218
C111	C	1.759123	0.666788	0.440552
C112	C	1.090430	0.000113	-0.330424
C113	C	1.423763	0.333446	0.002910
C114	C	1.757097	0.666780	0.336243
C115	C	1.088822	0.000106	-0.413563
C116	C	1.422155	0.333440	-0.080229
C117	C	1.755488	0.666773	0.253104
C118	C	1.086795	0.000100	-0.517878
C119	C	1.420129	0.333434	-0.184545
C120	C	1.753462	0.666767	0.148789
C121	C	1.083191	0.000101	0.296603
C122	C	1.416524	0.333434	0.629936
C123	C	1.749858	0.666767	0.963269
C124	C	1.085187	0.000094	0.398983
C125	C	1.418520	0.333427	0.732316
C126	C	1.751854	0.666760	1.065649
H127	H	0.913444	0.404838	0.304097
H128	H	1.246777	0.738171	0.637431
H129	H	1.580111	1.071505	0.970764
H130	H	1.203196	0.247310	0.014488
H131	H	1.536529	0.580643	0.347821
H132	H	1.869862	0.913977	0.681154
H133	H	1.203239	0.752911	0.014494
H134	H	1.536572	1.086244	0.347827
H135	H	1.869906	1.419578	0.681160
H136	H	0.913459	0.595388	0.304089
H137	H	1.246792	0.928721	0.637423
H138	H	1.580126	1.262055	0.970756
N139	N	1.282355	0.390955	-0.064634
N140	N	1.615688	0.724288	0.268699
N141	N	1.949022	1.057622	0.602032
H142	H	1.323241	0.347366	-0.029306
H143	H	1.656574	0.680700	0.304028
H144	H	1.989908	1.014033	0.637361
H145	H	1.321956	0.440217	-0.104258
H146	H	1.655289	0.773551	0.229075
H147	H	1.988622	1.106884	0.562409
N148	N	0.959476	0.233429	0.258057
N149	N	1.292809	0.566762	0.591390
N150	N	1.626143	0.900095	0.924724
H151	H	0.919820	0.282634	0.297691
H152	H	1.253153	0.615967	0.631024
H153	H	1.586487	0.949301	0.964357
H154	H	0.994840	0.189846	0.298912
H155	H	1.328174	0.523179	0.632245
H156	H	1.661507	0.856512	0.965579
N157	N	1.282384	0.609250	-0.064613
N158	N	1.615718	0.942584	0.268720
N159	N	1.949051	1.275917	0.602054
H160	H	1.272887	0.683749	-0.055120
H161	H	1.606221	1.017083	0.278213
H162	H	1.939554	1.350416	0.611547
H163	H	1.271627	0.590902	-0.130063
H164	H	1.604960	0.924235	0.203271
H165	H	1.938293	1.257569	0.536604
H166	H	0.976078	0.752923	0.241519
H167	H	1.309412	1.086257	0.574852
H168	H	1.642745	1.419590	0.908185
