data_functionalizedCrystal
_audit_creation_method	'MofGen! by Chris Wilmer'
_symmetry_space_group_name_H-M	'P1'
_symmetry_Int_Tables_number	1
_symmetry_cell_setting	triclinic
loop_
_symmetry_equiv_pos_as_xyz
  x,y,z
_cell_length_a	18.215407
_cell_length_b	18.215404
_cell_length_c	18.215399
_cell_angle_alpha	89.972485
_cell_angle_beta	89.983140
_cell_angle_gamma	90.019956
loop_
_atom_site_label
_atom_site_type_symbol
_atom_site_fract_x
_atom_site_fract_y
_atom_site_fract_z
Zn1	Zn	-1.125077	0.293068	0.416060
Zn2	Zn	-0.791744	0.626401	0.749393
Zn3	Zn	-0.458411	0.959734	1.082726
Zn4	Zn	-1.124988	0.416139	0.292994
Zn5	Zn	-0.791655	0.749472	0.626328
Zn6	Zn	-0.458321	1.082806	0.959661
Zn7	Zn	-1.002010	0.293083	0.293013
Zn8	Zn	-0.668677	0.626416	0.626347
Zn9	Zn	-0.335343	0.959749	0.959680
Zn10	Zn	-1.001978	0.416089	0.416026
Zn11	Zn	-0.668645	0.749422	0.749359
Zn12	Zn	-0.335311	1.082755	1.082692
O13	O	-1.063513	0.354595	0.354523
O14	O	-0.730180	0.687928	0.687857
O15	O	-0.396847	1.021261	1.021190
O16	O	-1.228050	0.309408	0.399741
O17	O	-0.894716	0.642742	0.733074
O18	O	-0.561383	0.976075	1.066408
O19	O	-1.108651	0.399843	0.190013
O20	O	-0.775317	0.733176	0.523346
O21	O	-0.441984	1.066509	0.856679
O22	O	-1.018386	0.190096	0.309358
O23	O	-0.685052	0.523430	0.642691
O24	O	-0.351719	0.856763	0.976025
O25	O	-1.227984	0.399828	0.309325
O26	O	-0.894651	0.733162	0.642659
O27	O	-0.561317	1.066495	0.975992
O28	O	-1.108803	0.190085	0.399760
O29	O	-0.775470	0.523419	0.733093
O30	O	-0.442136	0.856752	1.066426
O31	O	-1.018299	0.309434	0.190027
O32	O	-0.684966	0.642767	0.523360
O33	O	-0.351632	0.976100	0.856693
O34	O	-0.899021	0.309385	0.309325
O35	O	-0.565688	0.642718	0.642658
O36	O	-0.232355	0.976051	0.975992
O37	O	-1.018332	0.399743	0.519014
O38	O	-0.684998	0.733076	0.852348
O39	O	-0.351665	1.066409	1.185681
O40	O	-0.898998	0.399757	0.399702
O41	O	-0.565665	0.733090	0.733035
O42	O	-0.232331	1.066424	1.066368
O43	O	-1.108772	0.309360	0.519039
O44	O	-0.775439	0.642693	0.852373
O45	O	-0.442105	0.976026	1.185706
O46	O	-1.108620	0.519117	0.309292
O47	O	-0.775286	0.852450	0.642626
O48	O	-0.441953	1.185783	0.975959
O49	O	-1.018245	0.519080	0.399683
O50	O	-0.684912	0.852413	0.733016
O51	O	-0.351578	1.185746	1.066350
C52	C	-0.872307	0.354568	0.354512
C53	C	-0.538974	0.687901	0.687845
C54	C	-0.205640	1.021234	1.021179
C55	C	-0.790508	0.354574	0.354525
C56	C	-0.457175	0.687907	0.687858
C57	C	-0.123842	1.021240	1.021191
C58	C	-0.525458	0.401716	0.401518
C59	C	-0.192124	0.735049	0.734851
C60	C	0.141209	1.068383	1.068185
C61	C	-0.602316	0.401712	0.401514
C62	C	-0.268983	0.735045	0.734848
C63	C	0.064350	1.068378	1.068181
C64	C	-0.602310	0.307466	0.307542
C65	C	-0.268977	0.640800	0.640875
C66	C	0.064356	0.974133	0.974209
C67	C	-0.525453	0.307475	0.307542
C68	C	-0.192120	0.640808	0.640876
C69	C	0.141214	0.974142	0.974209
C70	C	-0.487029	0.354599	0.354535
C71	C	-0.153695	0.687932	0.687868
C72	C	0.179638	1.021266	1.021201
C73	C	-0.640745	0.354586	0.354531
C74	C	-0.307411	0.687919	0.687864
C75	C	0.025922	1.021252	1.021197
C76	C	-0.724078	0.354580	0.354526
C77	C	-0.390745	0.687914	0.687860
C78	C	-0.057412	1.021247	1.021193
C79	C	-0.403690	0.354605	0.354538
C80	C	-0.070356	0.687939	0.687872
C81	C	0.262977	1.021272	1.021205
C82	C	-1.063439	0.545801	0.354498
C83	C	-0.730106	0.879134	0.687831
C84	C	-0.396772	1.212468	1.021165
C85	C	-1.063475	0.627600	0.354512
C86	C	-0.730141	0.960933	0.687845
C87	C	-0.396808	1.294266	1.021178
C88	C	-1.063558	0.354544	0.546476
C89	C	-0.730225	0.687877	0.879810
C90	C	-0.396891	1.021210	1.213143
C91	C	-1.063577	0.354522	0.628275
C92	C	-0.730244	0.687856	0.961609
C93	C	-0.396911	1.021189	1.294942
C94	C	-0.255466	0.354616	0.354535
C95	C	0.077867	0.687950	0.687868
C96	C	0.411200	1.021283	1.021202
C97	C	-0.337265	0.354611	0.354541
C98	C	-0.003932	0.687944	0.687874
C99	C	0.329402	1.021277	1.021207
C100	C	-1.110647	0.815788	0.307542
C101	C	-0.777314	1.149122	0.640875
C102	C	-0.443980	1.482455	0.974209
C103	C	-1.110681	0.892647	0.307564
C104	C	-0.777348	1.225980	0.640897
C105	C	-0.444015	1.559314	0.974231
C106	C	-1.016492	0.892649	0.401610
C107	C	-0.683159	1.225982	0.734944
C108	C	-0.349826	1.559315	1.068277
C109	C	-1.016462	0.815791	0.401592
C110	C	-0.683129	1.149125	0.734925
C111	C	-0.349796	1.482458	1.068258
C112	C	-1.063539	0.777363	0.354553
C113	C	-0.730205	1.110697	0.687887
C114	C	-0.396872	1.444030	1.021220
C115	C	-1.063603	0.931079	0.354594
C116	C	-0.730270	1.264413	0.687927
C117	C	-0.396936	1.597746	1.021261
C118	C	-1.063640	1.014413	0.354618
C119	C	-0.730306	1.347746	0.687951
C120	C	-0.396973	1.681080	1.021285
C121	C	-1.063503	0.694024	0.354530
C122	C	-0.730169	1.027358	0.687863
C123	C	-0.396836	1.360691	1.021197
C124	C	-1.063612	1.162642	0.354578
C125	C	-0.730279	1.495975	0.687911
C126	C	-0.396946	1.829308	1.021245
C127	C	-1.063667	1.080843	0.354635
C128	C	-0.730333	1.414176	0.687969
C129	C	-0.397000	1.747509	1.021302
C130	C	-1.063511	0.354592	0.163317
C131	C	-0.730178	0.687925	0.496650
C132	C	-0.396844	1.021259	0.829984
C133	C	-1.063635	0.354406	0.081519
C134	C	-0.730301	0.687740	0.414852
C135	C	-0.396968	1.021073	0.748185
C136	C	-1.110687	0.307416	0.816483
C137	C	-0.777353	0.640749	1.149817
C138	C	-0.444020	0.974082	1.483150
C139	C	-1.110695	0.307394	0.893342
C140	C	-0.777362	0.640728	1.226676
C141	C	-0.444029	0.974061	1.560009
C142	C	-1.016520	0.401515	0.893305
C143	C	-0.683187	0.734848	1.226638
C144	C	-0.349853	1.068182	1.559972
C145	C	-1.016508	0.401532	0.816448
C146	C	-0.683175	0.734865	1.149781
C147	C	-0.349841	1.068199	1.483114
C148	C	-1.063596	0.354484	0.778039
C149	C	-0.730262	0.687817	1.111372
C150	C	-0.396929	1.021150	1.444705
C151	C	-1.063616	0.354445	0.931755
C152	C	-0.730283	0.687778	1.265088
C153	C	-0.396950	1.021112	1.598422
C154	C	-1.063625	0.354422	1.015089
C155	C	-0.730292	0.687755	1.348422
C156	C	-0.396959	1.021089	1.681755
C157	C	-1.063586	0.354505	0.694700
C158	C	-0.730252	0.687839	1.028033
C159	C	-0.396919	1.021172	1.361366
H160	H	-0.494163	0.269105	0.269279
H161	H	-0.160830	0.602439	0.602613
H162	H	0.172504	0.935772	0.935946
H163	H	-1.149043	0.923930	0.269284
H164	H	-0.815709	1.257263	0.602617
H165	H	-0.482376	1.590596	0.935950
C166	C	-0.644584	0.255622	0.255865
C167	C	-0.311251	0.588955	0.589198
C168	C	0.022083	0.922288	0.922531
N169	N	-0.676424	0.216567	0.216945
N170	N	-0.343091	0.549900	0.550278
N171	N	-0.009757	0.883233	0.883611
H172	H	-0.978156	0.439860	0.785145
H173	H	-0.644822	0.773193	1.118478
H174	H	-0.311489	1.106526	1.451812
H175	H	-1.148980	0.784502	0.269242
H176	H	-0.815647	1.117835	0.602575
H177	H	-0.482314	1.451169	0.935908
H178	H	-1.149026	0.269104	0.785213
H179	H	-0.815693	0.602437	1.118547
H180	H	-0.482360	0.935771	1.451880
C181	C	-0.964725	0.453264	0.935562
C182	C	-0.631392	0.786597	1.268895
C183	C	-0.298059	1.119931	1.602228
N184	N	-0.925712	0.492242	0.967389
N185	N	-0.592379	0.825576	1.300722
N186	N	-0.259045	1.158909	1.634055
H187	H	-0.978164	0.923946	0.439906
H188	H	-0.644830	1.257280	0.773240
H189	H	-0.311497	1.590613	1.106573
H190	H	-0.978101	0.784503	0.439877
H191	H	-0.644768	1.117837	0.773211
H192	H	-0.311434	1.451170	1.106544
H193	H	-0.494175	0.440088	0.439782
H194	H	-0.160842	0.773421	0.773115
H195	H	0.172492	1.106754	1.106449
C196	C	-1.162501	0.255618	0.935628
C197	C	-0.829168	0.588951	1.268961
C198	C	-0.495834	0.922284	1.602295
N199	N	-1.201523	0.216617	0.967477
N200	N	-0.868190	0.549950	1.300810
N201	N	-0.534857	0.883284	1.634144
H202	H	-0.633602	0.440080	0.439772
H203	H	-0.300269	0.773413	0.773106
H204	H	0.033065	1.106747	1.106439
