data_functionalizedCrystal
_audit_creation_method	'MofGen! by Chris Wilmer'
_symmetry_space_group_name_H-M	'P1'
_symmetry_Int_Tables_number	1
_symmetry_cell_setting	triclinic
loop_
_symmetry_equiv_pos_as_xyz
  x,y,z
_cell_length_a	15.995350
_cell_length_b	12.837942
_cell_length_c	11.295483
_cell_angle_alpha	85.469583
_cell_angle_beta	85.900966
_cell_angle_gamma	90.839342
loop_
_atom_site_label
_atom_site_type_symbol
_atom_site_fract_x
_atom_site_fract_y
_atom_site_fract_z
O1	O	1.126720	-0.126650	-0.098846
O2	O	1.626720	0.373350	0.401154
O3	O	0.884263	-0.143147	-0.098887
O4	O	1.384263	0.356853	0.401113
O5	O	1.000115	0.016004	-0.098860
O6	O	1.500115	0.516004	0.401140
O7	O	1.010868	-0.285801	-0.098873
O8	O	1.510868	0.214199	0.401127
O9	O	0.989938	0.002047	0.099189
O10	O	1.489938	0.502047	0.599189
O11	O	0.874086	-0.157104	0.099162
O12	O	1.374086	0.342896	0.599162
O13	O	1.116543	-0.140607	0.099203
O14	O	1.616543	0.359393	0.599203
Cu15	Cu	0.994385	-0.150130	0.117266
Cu16	Cu	1.494385	0.349870	0.617266
Cu17	Cu	1.006421	-0.133624	-0.116950
Cu18	Cu	1.506421	0.366376	0.383050
O19	O	1.000691	-0.299758	0.099176
O20	O	1.500691	0.200242	0.599176
C21	C	0.991394	0.047646	0.000163
C22	C	1.491394	0.547646	0.500163
C23	C	0.980561	0.162723	0.000159
C24	C	1.480561	0.662723	0.500159
C25	C	0.847926	-0.149443	0.000132
C26	C	1.347926	0.350557	0.500132
C27	C	0.754813	-0.147397	0.000117
C28	C	1.254813	0.352603	0.500117
C29	C	1.152881	-0.134311	0.000181
C30	C	1.652881	0.365689	0.500181
C31	C	1.245994	-0.136356	0.000189
C32	C	1.745994	0.363644	0.500189
C33	C	1.584330	-0.143697	0.000140
C34	C	2.084330	0.356303	0.500140
C35	C	1.545916	-0.257074	0.000583
C36	C	2.045916	0.242926	0.500583
C37	C	1.449085	-0.254998	0.000149
C38	C	1.949085	0.245002	0.500149
C39	C	1.416477	-0.140056	0.000165
C40	C	1.916477	0.359944	0.500165
C41	C	1.458889	-0.076179	-0.112930
C42	C	1.958889	0.423821	0.387070
C43	C	1.555757	-0.079019	-0.113037
C44	C	2.055757	0.420981	0.386963
C45	C	1.544389	-0.092550	0.112181
C46	C	2.044389	0.407450	0.612181
C47	C	1.447369	-0.092683	0.113688
C48	C	1.947369	0.407317	0.613688
C49	C	1.321615	-0.137992	0.000175
C50	C	1.821615	0.362008	0.500175
C51	C	1.679193	-0.145758	0.000123
C52	C	2.179193	0.354242	0.500123
C53	C	1.009412	-0.331400	0.000150
C54	C	1.509412	0.168600	0.500150
C55	C	1.020246	-0.446477	0.000146
C56	C	1.520246	0.053523	0.500146
N57	N	0.985926	-0.161739	0.282000
N58	N	1.485926	0.338261	0.782000
C59	C	1.110799	0.403682	0.000156
C60	C	1.610799	0.903682	0.500156
C61	C	1.100624	0.511808	0.000153
C62	C	1.600624	1.011808	0.500153
C63	C	0.950038	0.487104	0.000140
C64	C	1.450038	0.987104	0.500140
C65	C	0.960213	0.378978	0.000143
C66	C	1.460213	0.878978	0.500143
C67	C	1.040596	0.337271	0.000154
C68	C	1.540596	0.837271	0.500154
C69	C	1.050769	0.229142	0.000166
C70	C	1.550769	0.729142	0.500166
C71	C	0.900184	0.204441	0.000144
C72	C	1.400184	0.704441	0.500144
C73	C	0.890009	0.312567	0.000141
C74	C	1.390009	0.812567	0.500141
N75	N	1.014886	-0.122007	-0.281684
N76	N	1.514886	0.377993	0.218316
C77	C	1.075776	-0.038384	0.531310
C78	C	1.575776	0.461616	1.031310
C79	C	1.069390	-0.047164	0.655972
C80	C	1.569390	0.452836	1.155972
C81	C	0.966764	-0.188073	0.655989
C82	C	1.466764	0.311927	1.155989
C83	C	0.973150	-0.179293	0.531327
C84	C	1.473150	0.320707	1.031327
C85	C	1.027659	-0.104447	0.468992
C86	C	1.527659	0.395553	0.968992
C87	C	1.034049	-0.095673	0.344327
C88	C	1.534049	0.404327	0.844327
C89	C	0.931419	-0.236576	0.344346
C90	C	1.431419	0.263424	0.844346
C91	C	0.925032	-0.245357	0.469008
C92	C	1.425032	0.254643	0.969008
H93	H	1.420016	-0.304662	0.081216
H94	H	1.920016	0.195338	0.581216
Br95	Br	0.851055	-0.346925	0.553612
Br96	Br	1.351055	0.153075	1.053612
Br97	Br	0.866122	-0.326247	0.259760
Br98	Br	1.366122	0.173753	0.759760
Br99	Br	1.576556	-0.342395	0.135153
Br100	Br	2.076556	0.157605	0.635153
H101	H	0.922378	-0.249005	0.706758
H102	H	1.422378	0.250995	1.206758
H103	H	1.078435	-0.034732	0.293575
H104	H	1.578435	0.465268	0.793575
H105	H	1.581643	-0.113831	-0.197582
H106	H	2.081643	0.386169	0.302418
Br107	Br	1.159858	0.172539	0.000192
Br108	Br	1.659858	0.672539	0.500192
H109	H	1.157791	0.565877	0.000151
H110	H	1.657791	1.065877	0.500151
H111	H	1.581630	0.004559	-0.118182
H112	H	2.081630	0.504559	0.381818
H113	H	0.843019	0.150357	0.000151
H114	H	1.343019	0.650357	0.500151
Br115	Br	1.134690	0.042502	0.740546
Br116	Br	1.634690	0.542502	1.240546
H117	H	1.120165	0.022552	0.480556
H118	H	1.620165	0.522552	0.980556
H119	H	1.573241	-0.296492	-0.080073
H120	H	2.073241	0.203508	0.419927
Br121	Br	1.424478	0.065065	-0.119929
Br122	Br	1.924478	0.565065	0.380071
H123	H	1.563495	-0.135648	0.197894
H124	H	2.063495	0.364352	0.697894
Br125	Br	1.415453	-0.319191	-0.135207
Br126	Br	1.915453	0.180809	0.364793
H127	H	1.437893	-0.109052	-0.197092
H128	H	1.937893	0.390948	0.302908
Br129	Br	0.840957	0.543729	0.000083
Br130	Br	1.340957	1.043729	0.500083
H131	H	1.419040	-0.139402	0.197354
H132	H	1.919040	0.360598	0.697354
H133	H	1.569440	-0.009033	0.112943
H134	H	2.069440	0.490967	0.612943
Br135	Br	1.410031	0.046222	0.125098
Br136	Br	1.910031	0.546222	0.625098
Br137	Br	0.780924	0.369181	0.000112
Br138	Br	1.280924	0.869181	0.500112
Br139	Br	1.219884	0.347071	0.000207
Br140	Br	1.719884	0.847071	0.500207
