data_functionalizedCrystal
_audit_creation_method	'MofGen! by Chris Wilmer'
_symmetry_space_group_name_H-M	'P1'
_symmetry_Int_Tables_number	1
_symmetry_cell_setting	triclinic
loop_
_symmetry_equiv_pos_as_xyz
  x,y,z
_cell_length_a	14.519731
_cell_length_b	16.109301
_cell_length_c	14.586319
_cell_angle_alpha	89.998857
_cell_angle_beta	89.998350
_cell_angle_gamma	96.424782
loop_
_atom_site_label
_atom_site_type_symbol
_atom_site_fract_x
_atom_site_fract_y
_atom_site_fract_z
O1	O	-0.118540	1.103344	-0.076179
O2	O	-0.133292	0.861309	-0.076190
O3	O	0.008335	0.988734	-0.076191
O4	O	-0.260166	0.975918	-0.076178
O5	O	0.008337	0.988725	0.076290
O6	O	-0.133289	0.861300	0.076291
O7	O	-0.118538	1.103335	0.076302
Cu8	Cu	-0.125913	0.982317	0.090219
Cu9	Cu	-0.125916	0.982327	-0.090107
O10	O	-0.260164	0.975909	0.076303
C11	C	-0.132693	0.830328	0.000048
C12	C	-0.130901	0.738030	0.000044
C13	C	-0.209083	0.429172	0.000063
C14	C	-0.210775	0.515895	0.000058
C15	C	-0.042740	0.535466	0.000038
C16	C	-0.041049	0.448744	0.000037
C17	C	-0.124223	0.395599	0.000054
C18	C	-0.127606	0.569044	0.000050
C19	C	-0.129440	0.663074	0.000044
C20	C	-0.122389	0.301564	0.000058
C21	C	-0.294524	0.976514	0.000064
C22	C	-0.396900	0.978314	0.000069
C23	C	-0.480041	0.979776	0.000065
C24	C	-0.584346	0.981603	0.000057
C25	C	-0.667482	0.983053	0.000049
C26	C	-0.771793	0.984880	0.000042
C27	C	0.042694	0.988129	0.000046
C28	C	0.145071	0.986330	0.000035
C29	C	-0.119136	1.134316	0.000061
C30	C	-0.120928	1.226614	0.000060
N31	N	-0.125911	0.982315	0.217051
N32	N	-0.125911	0.982335	-0.216939
C33	C	-0.063220	1.038758	0.452057
C34	C	-0.063218	1.038761	0.548038
C35	C	-0.188605	0.925886	0.548048
C36	C	-0.188602	0.925880	0.452069
C37	C	-0.125911	0.982321	0.404076
C38	C	-0.125911	0.982329	0.596036
C39	C	-0.125909	0.982331	0.700103
C40	C	-0.125911	0.982318	0.300002
H41	H	0.024978	0.578747	0.000026
H42	H	-0.012168	1.084716	0.587102
O43	O	-0.249472	0.871148	0.594813
C44	C	-0.305015	0.821102	0.742678
C45	C	-0.236045	0.883149	0.689835
H46	H	-0.294171	0.830772	0.819513
H47	H	-0.378904	0.832050	0.723871
H48	H	-0.292988	0.754503	0.723760
H49	H	-0.247988	0.949773	0.708725
H50	H	-0.162181	0.872129	0.708646
H51	H	-0.239653	0.879919	0.413000
H52	H	-0.279876	0.543226	0.000065
O53	O	-0.002229	1.093608	0.405578
C54	C	0.122106	1.205593	0.415703
C55	C	0.053095	1.143508	0.468450
H56	H	0.166840	1.245965	0.466512
H57	H	0.168253	1.169668	0.370797
H58	H	0.082262	1.247148	0.370738
H59	H	0.092862	1.101937	0.513465
H60	H	0.006949	1.179485	0.513299
H61	H	-0.276809	0.385903	0.000077
H62	H	0.028058	0.421410	0.000026
