data_functionalizedCrystal
_audit_creation_method	'MofGen! by Chris Wilmer'
_symmetry_space_group_name_H-M	'P1'
_symmetry_Int_Tables_number	1
_symmetry_cell_setting	triclinic
loop_
_symmetry_equiv_pos_as_xyz
  x,y,z
_cell_length_a	10.654550
_cell_length_b	10.654550
_cell_length_c	9.730223
_cell_angle_alpha	90.004253
_cell_angle_beta	90.006811
_cell_angle_gamma	84.484916
loop_
_atom_site_label
_atom_site_type_symbol
_atom_site_fract_x
_atom_site_fract_y
_atom_site_fract_z
O1	O	-1.667839	-0.176398	-0.114403
O2	O	-1.302361	-0.193204	-0.114381
O3	O	-1.493503	-0.002062	-0.114383
O4	O	-1.476697	-0.367541	-0.114400
O5	O	-1.493491	-0.002057	0.114196
O6	O	-1.302348	-0.193199	0.114199
O7	O	-1.667827	-0.176393	0.114177
Zn8	Zn	-1.485086	-0.184795	0.150480
Zn9	Zn	-1.485102	-0.184802	-0.150684
O10	O	-1.476684	-0.367535	0.114180
C11	C	-1.255556	-0.191968	-0.000088
C12	C	-1.116113	-0.188276	-0.000079
C13	C	-1.492263	0.044739	-0.000094
C14	C	-1.488571	0.184182	-0.000096
C15	C	-1.714631	-0.177630	-0.000119
C16	C	-1.854074	-0.181321	-0.000136
C17	C	-1.036628	-0.300817	-0.000104
C18	C	-0.905607	-0.297341	-0.000128
C19	C	-0.933570	-0.068771	-0.000107
C20	C	-1.064588	-0.072249	-0.000074
C21	C	-1.088152	-0.416844	-0.000110
C22	C	-1.008665	-0.529395	-0.000136
C23	C	-0.877645	-0.525918	-0.000160
C24	C	-0.826111	-0.409891	-0.000157
C25	C	-1.477925	-0.414336	-0.000112
C26	C	-1.481617	-0.553779	-0.000119
N27	N	-1.485084	-0.184790	0.356017
C28	C	-1.601112	0.263667	-0.000103
C29	C	-1.597636	0.394688	-0.000120
C30	C	-1.369066	0.366725	-0.000116
C31	C	-1.372544	0.235707	-0.000109
N32	N	-1.485114	-0.184798	-0.356220
C33	C	-1.569750	-0.100188	0.427941
C34	C	-1.569763	-0.100188	0.571824
C35	C	-1.400438	-0.269404	0.571845
C36	C	-1.400420	-0.269396	0.427965
H37	H	-1.050633	-0.623860	-0.000127
N38	N	-1.243931	0.422304	-0.000102
H39	H	-1.173164	0.352065	-0.000098
H40	H	-1.237512	0.476050	-0.084839
H41	H	-1.280893	0.170986	-0.000108
N42	N	-1.229464	-0.420603	-0.000074
H43	H	-1.266486	-0.376576	0.084674
H44	H	-1.266436	-0.376589	-0.084851
H45	H	-1.638705	-0.031297	0.630381
H46	H	-0.812929	-0.617562	-0.000168
N47	N	-0.877978	0.056357	-0.000119
H48	H	-0.906918	0.105715	-0.084845
H49	H	-0.906873	0.105619	0.084681
H50	H	-0.719424	-0.407069	-0.000155
H51	H	-1.638687	-0.031295	0.369364
H52	H	-1.331508	-0.338290	0.630440
H53	H	-1.129308	0.019392	-0.000057
N54	N	-1.309084	-0.360647	0.350389
H55	H	-1.324315	-0.449924	0.375403
H56	H	-1.321958	-0.347692	0.248348
N57	N	-1.726249	0.208090	-0.000091
H58	H	-1.797015	0.278330	-0.000100
H59	H	-1.732677	0.154328	-0.084824
N60	N	-1.719016	0.480426	-0.000121
H61	H	-1.769597	0.463725	-0.084850
H62	H	-1.769471	0.463708	0.084675
