data_functionalizedCrystal
_audit_creation_method	'MofGen! by Chris Wilmer'
_symmetry_space_group_name_H-M	'P1'
_symmetry_Int_Tables_number	1
_symmetry_cell_setting	triclinic
loop_
_symmetry_equiv_pos_as_xyz
  x,y,z
_cell_length_a	21.395361
_cell_length_b	12.827893
_cell_length_c	21.395356
_cell_angle_alpha	90.023519
_cell_angle_beta	89.969319
_cell_angle_gamma	89.971273
loop_
_atom_site_label
_atom_site_type_symbol
_atom_site_fract_x
_atom_site_fract_y
_atom_site_fract_z
Zn1	Zn	-0.249488	-1.597582	-0.354247
Zn2	Zn	0.250512	-1.097582	0.145753
Zn3	Zn	-0.354264	-1.597423	-0.249464
Zn4	Zn	0.145736	-1.097423	0.250536
Zn5	Zn	-0.249501	-1.422817	-0.249484
Zn6	Zn	0.250499	-0.922817	0.250516
Zn7	Zn	-0.354228	-1.422762	-0.354204
Zn8	Zn	0.145772	-0.922762	0.145796
O9	O	-0.301870	-1.510146	-0.301850
O10	O	0.198130	-1.010146	0.198150
O11	O	-0.263396	-1.743797	-0.340357
O12	O	0.236604	-1.243797	0.159643
O13	O	-0.340388	-1.574217	-0.161789
O14	O	0.159612	-1.074217	0.338211
O15	O	-0.161821	-1.446089	-0.263407
O16	O	0.338179	-0.946089	0.236593
O17	O	-0.340375	-1.743680	-0.263373
O18	O	0.159625	-1.243680	0.236627
O19	O	-0.161811	-1.574489	-0.340376
O20	O	0.338189	-1.074489	0.159624
O21	O	-0.263419	-1.445934	-0.161803
O22	O	0.236581	-0.945934	0.338197
O23	O	-0.263383	-1.276573	-0.263366
O24	O	0.236617	-0.776573	0.236634
O25	O	-0.340313	-1.445997	-0.441888
O26	O	0.159687	-0.945997	0.058112
O27	O	-0.340326	-1.276534	-0.340304
O28	O	0.159674	-0.776534	0.159696
O29	O	-0.263361	-1.574436	-0.441919
O30	O	0.236639	-1.074436	0.058081
O31	O	-0.441937	-1.574164	-0.263332
O32	O	0.058063	-1.074164	0.236668
O33	O	-0.441910	-1.445842	-0.340284
O34	O	0.058090	-0.945842	0.159716
C35	C	-0.301852	-1.238636	-0.301833
C36	C	0.198148	-0.738636	0.198167
C37	C	-0.301860	-1.122483	-0.301840
C38	C	0.198140	-0.622483	0.198160
C39	C	-0.339992	-1.070706	-0.339851
C40	C	0.160008	-0.570706	0.160149
C41	C	-0.340001	-0.950656	-0.339860
C42	C	0.159999	-0.450656	0.160140
C43	C	-0.464658	-1.510008	-0.301815
C44	C	0.035342	-1.010008	0.198185
C45	C	-0.534299	-1.510045	-0.301821
C46	C	-0.034299	-1.010045	0.198179
C47	C	-0.567005	-1.576921	-0.261793
C48	C	-0.067005	-1.076921	0.238207
C49	C	-0.632441	-1.576970	-0.261807
C50	C	-0.132441	-1.076970	0.238193
C51	C	-0.665167	-1.510123	-0.301843
C52	C	-0.165167	-1.010123	0.198157
C53	C	-0.632453	-1.443242	-0.341878
C54	C	-0.132453	-0.943242	0.158122
C55	C	-0.567019	-1.443203	-0.341868
C56	C	-0.067019	-0.943203	0.158132
C57	C	-0.768880	-1.416030	-0.306753
C58	C	-0.268880	-0.916030	0.193247
C59	C	-0.834313	-1.416068	-0.306759
C60	C	-0.334313	-0.916068	0.193241
C61	C	-0.866988	-1.510245	-0.301879
C62	C	-0.366988	-1.010245	0.198121
C63	C	-0.834222	-1.604387	-0.296980
C64	C	-0.334222	-1.104387	0.203020
C65	C	-0.768788	-1.604348	-0.296970
C66	C	-0.268788	-1.104348	0.203030
C67	C	-0.736120	-1.510159	-0.301859
C68	C	-0.236120	-1.010159	0.198141
C69	C	-0.970647	-1.577180	-0.261864
C70	C	-0.470647	-1.077180	0.238136
C71	C	-1.036083	-1.577230	-0.261883
C72	C	-0.536083	-1.077230	0.238117
C73	C	-1.036094	-1.443493	-0.341951
C74	C	-0.536094	-0.943493	0.158049
C75	C	-0.970659	-1.443452	-0.341936
C76	C	-0.470659	-0.943452	0.158064
C77	C	-0.937939	-1.510294	-0.301889
C78	C	-0.437939	-1.010294	0.198111
C79	C	-0.138447	-1.510313	-0.301899
C80	C	0.361553	-1.010313	0.198101
C81	C	-0.068805	-1.510384	-0.301919
C82	C	0.431195	-1.010384	0.198081
C83	C	-0.301831	-1.510228	-0.465273
C84	C	0.198169	-1.010228	0.034727
C85	C	-0.301815	-1.510263	-0.534915
C86	C	0.198185	-1.010263	-0.034915
C87	C	-0.301883	-0.782716	-0.301863
C88	C	0.198117	-0.282716	0.198137
C89	C	-0.301875	-0.898869	-0.301855
C90	C	0.198125	-0.398869	0.198145
C91	C	-0.261732	-1.443485	-0.567625
C92	C	0.238268	-0.943485	-0.067625
C93	C	-0.261721	-1.443481	-0.633061
C94	C	0.238279	-0.943481	-0.133061
C95	C	-0.301785	-1.510275	-0.665783
C96	C	0.198215	-1.010275	-0.165783
C97	C	-0.341875	-1.577058	-0.633064
C98	C	0.158125	-1.077058	-0.133064
C99	C	-0.341890	-1.577052	-0.567630
C100	C	0.158110	-1.077052	-0.067630
C101	C	-0.306713	-1.604430	-0.769469
C102	C	0.193287	-1.104430	-0.269469
C103	C	-0.306693	-1.604437	-0.834902
C104	C	0.193307	-1.104437	-0.334902
C105	C	-0.301743	-1.510292	-0.867604
C106	C	0.198257	-1.010292	-0.367604
C107	C	-0.296798	-1.416136	-0.834865
C108	C	0.203202	-0.916136	-0.334865
C109	C	-0.296813	-1.416130	-0.769430
C110	C	0.203187	-0.916130	-0.269430
C111	C	-0.301773	-1.510288	-0.736735
C112	C	0.198227	-1.010288	-0.236735
C113	C	-0.261645	-1.443504	-0.971267
C114	C	0.238355	-0.943504	-0.471267
C115	C	-0.261638	-1.443498	-1.036704
C116	C	0.238362	-0.943498	-0.536704
C117	C	-0.341789	-1.577085	-1.036706
C118	C	0.158211	-1.077085	-0.536706
C119	C	-0.341800	-1.577081	-0.971271
C120	C	0.158200	-1.077081	-0.471271
C121	C	-0.301725	-1.510292	-0.938555
C122	C	0.198275	-1.010292	-0.438555
C123	C	-0.301863	-1.510124	-0.139062
C124	C	0.198137	-1.010124	0.360938
C125	C	-0.301704	-1.510292	-0.069421
C126	C	0.198296	-1.010292	0.430579
H127	H	-0.269230	-0.943389	-0.269308
H128	H	0.230770	-0.443389	0.230692
H129	H	-0.944005	-1.631610	-0.229258
H130	H	-0.444005	-1.131610	0.270742
H131	H	-0.269218	-1.077934	-0.269306
H132	H	0.230782	-0.577934	0.230694
H133	H	-0.944028	-1.388990	-0.374528
H134	H	-0.444028	-0.888990	0.125472
Cl135	Cl	-0.211314	-1.359547	-0.674192
Cl136	Cl	0.288686	-0.859547	-0.174192
H137	H	-0.374409	-1.631472	-1.063348
H138	H	0.125591	-1.131472	-0.563348
H139	H	-0.310717	-1.681105	-0.861553
H140	H	0.189283	-1.181105	-0.361553
H141	H	-0.540366	-1.631350	-0.229186
H142	H	-0.040366	-1.131350	0.270814
Cl143	Cl	-0.392282	-1.661012	-0.526506
Cl144	Cl	0.107718	-1.161012	-0.026506
H145	H	-0.372629	-1.115255	-0.372390
H146	H	0.127371	-0.615255	0.127610
H147	H	-0.310739	-1.681101	-0.742848
H148	H	0.189261	-1.181101	-0.242848
H149	H	-0.659075	-1.631432	-0.229212
H150	H	-0.159075	-1.131432	0.270788
Cl151	Cl	-1.077201	-1.661319	-0.211562
Cl152	Cl	-0.577201	-1.161319	0.288438
Cl153	Cl	-1.077230	-1.359463	-0.392286
Cl154	Cl	-0.577230	-0.859463	0.107714
H155	H	-0.292788	-1.339466	-0.742777
H156	H	0.207212	-0.839466	-0.242777
Cl157	Cl	-0.392188	-1.661044	-0.930146
Cl158	Cl	0.107812	-1.161044	-0.430146
H159	H	-0.374496	-1.631442	-0.659711
H160	H	0.125504	-1.131442	-0.159711
H161	H	-0.860825	-1.681076	-0.293007
H162	H	-0.360825	-1.181076	0.206993
Cl163	Cl	-0.390410	-0.881916	-0.390103
Cl164	Cl	0.109590	-0.381916	0.109897
Cl165	Cl	-0.727599	-1.722693	-0.290817
Cl166	Cl	-0.227599	-1.222693	0.209183
Cl167	Cl	-0.875497	-1.297719	-0.312916
Cl168	Cl	-0.375497	-0.797719	0.187084
Cl169	Cl	-0.673594	-1.359211	-0.392212
Cl170	Cl	-0.173594	-0.859211	0.107788
Cl171	Cl	-0.727809	-1.297624	-0.312888
Cl172	Cl	-0.227809	-0.797624	0.187112
H173	H	-0.540389	-1.388743	-0.374464
H174	H	-0.040389	-0.888743	0.125536
H175	H	-0.229000	-1.389112	-1.063336
H176	H	0.271000	-0.889112	-0.563336
Cl177	Cl	-0.211355	-1.359516	-0.526501
Cl178	Cl	0.288645	-0.859516	-0.026501
H179	H	-0.292762	-1.339475	-0.861489
H180	H	0.207238	-0.839475	-0.361489
Cl181	Cl	-0.211270	-1.359536	-0.930136
Cl182	Cl	0.288730	-0.859536	-0.430136
