data_functionalizedCrystal
_audit_creation_method	'MofGen! by Chris Wilmer'
_symmetry_space_group_name_H-M	'P1'
_symmetry_Int_Tables_number	1
_symmetry_cell_setting	triclinic
loop_
_symmetry_equiv_pos_as_xyz
  x,y,z
_cell_length_a	29.839135
_cell_length_b	21.295418
_cell_length_c	21.295411
_cell_angle_alpha	90.017488
_cell_angle_beta	90.027776
_cell_angle_gamma	90.030917
loop_
_atom_site_label
_atom_site_type_symbol
_atom_site_fract_x
_atom_site_fract_y
_atom_site_fract_z
Zn1	Zn	0.686815	-0.250638	0.355984
Zn2	Zn	0.686748	-0.355890	0.250717
Zn3	Zn	0.611681	-0.250644	0.250723
Zn4	Zn	0.611662	-0.355878	0.355942
O5	O	0.649227	-0.303263	0.303341
O6	O	0.749673	-0.264603	0.342034
O7	O	0.676770	-0.341936	0.162628
O8	O	0.621684	-0.162553	0.264706
O9	O	0.749624	-0.341931	0.264695
O10	O	0.676884	-0.162550	0.342040
O11	O	0.621619	-0.264612	0.162633
O12	O	0.548812	-0.264600	0.264666
O13	O	0.621652	-0.341911	0.444037
O14	O	0.548798	-0.341916	0.341970
O15	O	0.676866	-0.264592	0.444068
O16	O	0.676752	-0.443978	0.264655
O17	O	0.621587	-0.443969	0.341964
C18	C	0.532504	-0.303258	0.303314
C19	C	0.482570	-0.303271	0.303318
C20	C	0.649172	-0.466814	0.303318
C21	C	0.649190	-0.536782	0.303330
C22	C	0.678025	-1.036185	0.343690
C23	C	0.678012	-0.970443	0.343680
C24	C	0.649288	-0.937622	0.303381
C25	C	0.620583	-0.970549	0.263076
C26	C	0.620600	-1.036290	0.263083
N27	N	0.609938	-0.834454	0.298487
N28	N	0.609923	-0.772002	0.298484
C29	C	0.649235	-0.739547	0.303357
N30	N	0.688564	-0.771902	0.308245
N31	N	0.688578	-0.834360	0.308251
C32	C	0.649266	-0.866336	0.303369
C33	C	0.677926	-0.635342	0.343645
C34	C	0.677914	-0.569599	0.343630
C35	C	0.620480	-0.569706	0.263030
C36	C	0.620497	-0.635449	0.263041
C37	C	0.649219	-0.668263	0.303352
C38	C	0.172949	-0.263059	0.343671
C39	C	-0.014724	-0.263063	0.343689
O40	O	-0.038970	-0.228859	0.377969
N41	N	-0.038215	-0.303263	0.303364
C42	C	-0.014786	-0.343462	0.263030
O43	O	-0.039073	-0.377650	0.228727
C44	C	0.172887	-0.343454	0.263009
C45	C	0.196375	-0.303256	0.303341
C46	C	0.196438	-0.222864	0.383999
C47	C	0.243353	-0.222865	0.383997
C48	C	0.266780	-0.263062	0.343666
C49	C	0.243291	-0.303258	0.303338
C50	C	0.196316	-0.383649	0.222671
C51	C	0.243237	-0.383643	0.222669
C52	C	0.266726	-0.343445	0.263000
C53	C	0.313633	-0.343457	0.263005
N54	N	0.337124	-0.303257	0.303330
C55	C	0.313698	-0.263059	0.343660
C56	C	-0.113316	-0.343464	0.263044
C57	C	-0.160234	-0.343467	0.263050
C58	C	-0.160169	-0.263067	0.343709
C59	C	-0.113251	-0.263068	0.343706
C60	C	-0.089825	-0.303264	0.303369
C61	C	0.412223	-0.263067	0.343653
C62	C	0.459143	-0.263074	0.343648
C63	C	0.459074	-0.343471	0.262987
C64	C	0.412159	-0.343467	0.262994
C65	C	0.388735	-0.303259	0.303328
O66	O	0.337908	-0.377638	0.228738
O67	O	0.337993	-0.228867	0.377948
C68	C	0.126033	-0.263057	0.343674
C69	C	0.102545	-0.303253	0.303346
C70	C	0.125971	-0.343450	0.263015
C71	C	0.055627	-0.303255	0.303351
C72	C	0.032200	-0.263058	0.343682
C73	C	0.055691	-0.222858	0.384007
C74	C	0.102607	-0.222860	0.384004
C75	C	0.102480	-0.383650	0.222691
C76	C	0.055564	-0.383645	0.222697
C77	C	0.032138	-0.343448	0.263027
C78	C	0.766405	-0.303268	0.303369
C79	C	0.816339	-0.303270	0.303380
C80	C	0.649264	-0.303249	0.467532
C81	C	0.649280	-0.303244	0.537500
C82	C	0.649294	-0.139072	0.303378
C83	C	0.649322	-0.069104	0.303394
C84	C	0.649215	-0.303230	0.139790
C85	C	0.649287	-0.303059	0.069822
C86	C	0.678029	-0.262982	0.570383
C87	C	0.678028	-0.262954	0.636126
C88	C	0.649283	-0.303200	0.668982
C89	C	0.620529	-0.343465	0.636091
C90	C	0.620527	-0.343487	0.570350
N91	N	0.645819	-0.358268	0.772201
N92	N	0.645823	-0.358246	0.834653
C93	C	0.649286	-0.303136	0.867057
N94	N	0.652754	-0.248049	0.834651
N95	N	0.652752	-0.248072	0.772194
C96	C	0.649282	-0.303181	0.740268
C97	C	0.678036	-0.262842	0.971226
C98	C	0.678032	-0.262813	1.036970
C99	C	0.620535	-0.343330	1.036934
C100	C	0.620537	-0.343352	0.971191
C101	C	0.649289	-0.303109	0.938342
H102	H	0.701417	-1.062898	0.376510
O103	O	0.589637	-1.071795	0.219618
H104	H	0.609766	-1.101731	0.187621
O105	O	0.589519	-0.386911	0.534872
H106	H	0.566677	-0.358735	0.504910
O107	O	0.589534	-0.670961	0.219585
H108	H	0.569554	-0.637096	0.191564
H109	H	0.701441	-0.230212	0.543641
O110	O	0.708882	-0.534097	0.387091
H111	H	0.688759	-0.504149	0.419084
H112	H	0.701310	-0.662061	0.376473
O113	O	0.589529	-0.386733	1.072367
H114	H	0.569535	-0.414732	1.038452
O115	O	0.709040	-0.219533	0.671606
H116	H	0.729035	-0.191557	0.637718
O117	O	0.127742	-0.427011	0.179190
H118	H	0.149115	-0.398794	0.147205
O119	O	0.709042	-0.219436	0.935786
H120	H	0.701354	-0.170026	0.948389
O121	O	0.589524	-0.386873	0.671523
H122	H	0.594357	-0.380098	0.722763
H123	H	0.478266	-0.230339	0.376494
H124	H	0.701442	-0.230023	1.063743
H125	H	0.393033	-0.376206	0.230160
O126	O	0.589517	-0.386761	0.935717
H127	H	0.569525	-0.414738	0.969607
O128	O	0.708973	-0.934927	0.387144
H129	H	0.688843	-0.904985	0.419132
O130	O	0.386961	-0.219705	0.387159
H131	H	0.411183	-0.191763	0.415201
O132	O	0.589600	-0.935155	0.219610
H133	H	0.594406	-0.883910	0.226380
O134	O	-0.185563	-0.386828	0.219550
H135	H	-0.206937	-0.418906	0.247664
H136	H	0.597094	-0.542984	0.230215
H137	H	0.262474	-0.190131	0.416838
O138	O	0.171174	-0.179506	0.427504
H139	H	0.195397	-0.151563	0.455543
O140	O	0.030234	-0.427001	0.179187
H141	H	0.039226	-0.476424	0.189885
O142	O	-0.087919	-0.219702	0.387198
H143	H	-0.096911	-0.230567	0.436585
O144	O	-0.185440	-0.219703	0.387204
H145	H	-0.222010	-0.226458	0.380423
O146	O	-0.088052	-0.386822	0.219536
H147	H	-0.112273	-0.414775	0.191504
O148	O	0.170988	-0.426997	0.179161
H149	H	0.195167	-0.454935	0.151112
O150	O	0.268504	-0.426999	0.179163
H151	H	0.244285	-0.454951	0.151125
H152	H	0.478157	-0.376200	0.230153
O153	O	0.127939	-0.179495	0.427496
H154	H	0.103761	-0.151542	0.455532
H155	H	0.036609	-0.190130	0.416847
