data_functionalizedCrystal
_audit_creation_method	'MofGen! by Chris Wilmer'
_symmetry_space_group_name_H-M	'P1'
_symmetry_Int_Tables_number	1
_symmetry_cell_setting	triclinic
loop_
_symmetry_equiv_pos_as_xyz
  x,y,z
_cell_length_a	13.897449
_cell_length_b	21.295417
_cell_length_c	13.897441
_cell_angle_alpha	90.036423
_cell_angle_beta	90.020733
_cell_angle_gamma	90.031786
loop_
_atom_site_label
_atom_site_type_symbol
_atom_site_fract_x
_atom_site_fract_y
_atom_site_fract_z
Zn1	Zn	1.474617	-0.250568	0.545342
Zn2	Zn	1.807950	0.082766	0.878675
Zn3	Zn	2.141283	0.416099	1.212009
Zn4	Zn	1.474475	-0.355847	0.384027
Zn5	Zn	1.807808	-0.022513	0.717360
Zn6	Zn	2.141141	0.310820	1.050694
Zn7	Zn	1.313306	-0.250598	0.384060
Zn8	Zn	1.646639	0.082736	0.717394
Zn9	Zn	1.979973	0.416069	1.050727
Zn10	Zn	1.313252	-0.355805	0.545280
Zn11	Zn	1.646585	-0.022472	0.878613
Zn12	Zn	1.979918	0.310861	1.211946
O13	O	1.393912	-0.303204	0.464677
O14	O	1.727246	0.030129	0.798011
O15	O	2.060579	0.363462	1.131344
O16	O	1.609579	-0.264538	0.523955
O17	O	1.942913	0.068795	0.857289
O18	O	2.276246	0.402129	1.190622
O19	O	1.453059	-0.341915	0.249050
O20	O	1.786392	-0.008582	0.582383
O21	O	2.119725	0.324752	0.915716
O22	O	1.334786	-0.162504	0.405495
O23	O	1.668120	0.170829	0.738828
O24	O	2.001453	0.504162	1.072162
O25	O	1.609475	-0.341886	0.405438
O26	O	1.942808	-0.008553	0.738771
O27	O	2.276142	0.324781	1.072105
O28	O	1.453301	-0.162482	0.523988
O29	O	1.786634	0.170851	0.857321
O30	O	2.119967	0.504184	1.190655
O31	O	1.334649	-0.264589	0.249074
O32	O	1.667982	0.068744	0.582408
O33	O	2.001315	0.402078	0.915741
O34	O	1.178317	-0.264549	0.405434
O35	O	1.511650	0.068784	0.738768
O36	O	1.844984	0.402118	1.072101
O37	O	1.334694	-0.341815	0.680270
O38	O	1.668027	-0.008482	1.013603
O39	O	2.001360	0.324851	1.346936
O40	O	1.178277	-0.341844	0.523881
O41	O	1.511610	-0.008511	0.857215
O42	O	1.844944	0.324822	1.190548
O43	O	1.453248	-0.264498	0.680316
O44	O	1.786581	0.068836	1.013649
O45	O	2.119915	0.402169	1.346982
O46	O	1.453006	-0.443931	0.405378
O47	O	1.786339	-0.110597	0.738711
O48	O	2.119672	0.222736	1.072044
O49	O	1.334556	-0.443900	0.523849
O50	O	1.667889	-0.110567	0.857182
O51	O	2.001223	0.222766	1.190516
C52	C	1.143298	-0.303196	0.464655
C53	C	1.476631	0.030137	0.797989
C54	C	1.809965	0.363471	1.131322
C55	C	1.036084	-0.303207	0.464669
C56	C	1.369417	0.030126	0.798002
C57	C	1.702751	0.363459	1.131336
C58	C	1.393786	-0.466756	0.464624
C59	C	1.727119	-0.133423	0.797957
C60	C	2.060452	0.199911	1.131291
C61	C	1.393820	-0.536724	0.464633
C62	C	1.727153	-0.203391	0.797967
C63	C	2.060487	0.129943	1.131300
C64	C	0.839789	-0.303210	0.464694
C65	C	1.173122	0.030124	0.798027
C66	C	1.506455	0.363457	1.131361
C67	C	0.949021	-0.303207	0.464677
C68	C	1.282355	0.030127	0.798011
C69	C	1.615688	0.363460	1.131344
C70	C	1.455552	-0.569586	0.403008
C71	C	1.788885	-0.236252	0.736342
C72	C	2.122218	0.097081	1.069675
C73	C	1.455597	-0.635328	0.403030
C74	C	1.788930	-0.301995	0.736363
C75	C	2.122263	0.031339	1.069697
C76	C	1.393893	-0.668207	0.464667
C77	C	1.727226	-0.334873	0.798000
C78	C	2.060560	-0.001540	1.131333
C79	C	1.332157	-0.635337	0.526304
C80	C	1.665490	-0.302004	0.859637
C81	C	1.998824	0.031330	1.192970
C82	C	1.332120	-0.569596	0.526287
C83	C	1.665454	-0.236262	0.859620
C84	C	1.998787	0.097071	1.192954
N85	N	1.309512	-0.771473	0.472013
N86	N	1.642845	-0.438140	0.805346
N87	N	1.976179	-0.104806	1.138679
N88	N	1.309550	-0.833925	0.472023
N89	N	1.642883	-0.500591	0.805356
N90	N	1.976216	-0.167258	1.138690
C91	C	1.394001	-0.866281	0.464722
C92	C	1.727334	-0.532948	0.798055
C93	C	2.060668	-0.199615	1.131389
N94	N	1.478416	-0.833827	0.457392
N95	N	1.811749	-0.500494	0.790725
N96	N	2.145082	-0.167160	1.124058
N97	N	1.478377	-0.771370	0.457376
N98	N	1.811710	-0.438037	0.790710
N99	N	2.145044	-0.104703	1.124043
C100	C	1.393926	-0.739492	0.464692
C101	C	1.727260	-0.406159	0.798025
C102	C	2.060593	-0.072825	1.131359
C103	C	1.455787	-0.970428	0.403117
C104	C	1.789120	-0.637095	0.736451
C105	C	2.122454	-0.303762	1.069784
C106	C	1.455834	-1.036172	0.403146
C107	C	1.789167	-0.702839	0.736479
C108	C	2.122501	-0.369505	1.069812
C109	C	1.332386	-1.036180	0.526414
C110	C	1.665719	-0.702846	0.859747
C111	C	1.999052	-0.369513	1.193081
C112	C	1.332347	-0.970437	0.526391
C113	C	1.665681	-0.637104	0.859724
C114	C	1.999014	-0.303771	1.193057
C115	C	1.394047	-0.937565	0.464737
C116	C	1.727380	-0.604232	0.798070
C117	C	2.060713	-0.270899	1.131404
C118	C	1.645505	-0.303213	0.464700
C119	C	1.978838	0.030120	0.798033
C120	C	2.312172	0.363453	1.131367
C121	C	1.752719	-0.303217	0.464710
C122	C	2.086052	0.030116	0.798043
C123	C	2.419386	0.363450	1.131376
C124	C	1.393981	-0.303149	0.716270
C125	C	1.727314	0.030185	1.049604
C126	C	2.060647	0.363518	1.382937
C127	C	1.394010	-0.303125	0.823484
C128	C	1.727343	0.030208	1.156818
C129	C	2.060676	0.363542	1.490151
C130	C	1.394065	-0.139014	0.464752
C131	C	1.727399	0.194319	0.798085
C132	C	2.060732	0.527653	1.131419
C133	C	1.394131	-0.069046	0.464784
C134	C	1.727464	0.264287	0.798117
C135	C	2.060797	0.597621	1.131451
C136	C	1.393900	-0.303214	0.214063
C137	C	1.727233	0.030119	0.547396
C138	C	2.060566	0.363452	0.880730
C139	C	1.394057	-0.303061	0.106850
C140	C	1.727391	0.030273	0.440183
C141	C	2.060724	0.363606	0.773516
C142	C	1.394036	-0.303082	1.019780
C143	C	1.727369	0.030251	1.353113
C144	C	2.060703	0.363584	1.686446
C145	C	1.394018	-0.303108	0.910547
C146	C	1.727352	0.030226	1.243881
C147	C	2.060685	0.363559	1.577214
H148	H	1.505793	-0.542823	0.352809
H149	H	1.839126	-0.209490	0.686142
H150	H	2.172460	0.123843	1.019476
H151	H	1.282075	-0.943680	0.576567
H152	H	1.615409	-0.610346	0.909901
H153	H	1.948742	-0.277013	1.243234
H154	H	1.282149	-1.062949	0.576604
H155	H	1.615483	-0.729615	0.909937
H156	H	1.948816	-0.396282	1.243271
C157	C	1.285100	-0.655527	0.689597
C158	C	1.618433	-0.322193	1.022931
C159	C	1.951766	0.011140	1.356264
C160	C	1.264333	-0.671476	0.594057
C161	C	1.597666	-0.338142	0.927390
C162	C	1.930999	-0.004809	1.260723
H163	H	1.243232	-0.677840	0.731428
H164	H	1.576565	-0.344507	1.064761
H165	H	1.909899	-0.011174	1.398094
H166	H	1.276239	-0.611676	0.698403
H167	H	1.609572	-0.278343	1.031736
H168	H	1.942905	0.054991	1.365069
H169	H	1.349911	-0.666258	0.703759
H170	H	1.683244	-0.332925	1.037093
H171	H	2.016578	0.000408	1.370426
H172	H	1.199523	-0.660740	0.579893
H173	H	1.532857	-0.327406	0.913226
H174	H	1.866190	0.005927	1.246559
H175	H	1.273186	-0.715336	0.585247
H176	H	1.606519	-0.382003	0.918580
H177	H	1.939852	-0.048670	1.251914
H178	H	1.505870	-0.662089	0.352848
H179	H	1.839203	-0.328756	0.686181
H180	H	2.172536	0.004577	1.019515
C181	C	1.469215	-0.896560	0.273353
C182	C	1.802548	-0.563226	0.606687
C183	C	2.135881	-0.229893	0.940020
C184	C	1.523611	-0.934289	0.335358
C185	C	1.856944	-0.600956	0.668691
C186	C	2.190278	-0.267623	1.002024
H187	H	1.511088	-0.874253	0.231519
H188	H	1.844421	-0.540920	0.564853
H189	H	2.177755	-0.207587	0.898186
H190	H	1.432446	-0.867581	0.310050
H191	H	1.765779	-0.534248	0.643383
H192	H	2.099113	-0.200915	0.976717
H193	H	1.427230	-0.922260	0.236429
H194	H	1.760563	-0.588927	0.569762
H195	H	2.093896	-0.255593	0.903095
H196	H	1.565591	-0.908588	0.372288
H197	H	1.898925	-0.575255	0.705621
H198	H	2.232258	-0.241922	1.038955
H199	H	1.560396	-0.963271	0.298657
H200	H	1.893729	-0.629938	0.631991
H201	H	2.227063	-0.296604	0.965324
C202	C	1.318608	-0.495605	0.656005
C203	C	1.651942	-0.162271	0.989339
C204	C	1.985275	0.171062	1.322672
C205	C	1.264257	-0.533471	0.594027
C206	C	1.597590	-0.200137	0.927360
C207	C	1.930923	0.133196	1.260694
H208	H	1.276709	-0.473305	0.697827
H209	H	1.610042	-0.139972	1.031161
H210	H	1.943376	0.193361	1.364494
H211	H	1.355339	-0.466620	0.619289
H212	H	1.688672	-0.133287	0.952622
H213	H	2.022005	0.200046	1.285955
H214	H	1.360627	-0.521212	0.692944
H215	H	1.693961	-0.187878	1.026277
H216	H	2.027294	0.145455	1.359611
H217	H	1.222242	-0.507863	0.557083
H218	H	1.555576	-0.174530	0.890416
H219	H	1.888909	0.158804	1.223750
H220	H	1.227510	-0.562458	0.630747
H221	H	1.560843	-0.229125	0.964081
H222	H	1.894176	0.104208	1.297414
C223	C	1.577834	-1.029557	0.281282
C224	C	1.911167	-0.696224	0.614616
C225	C	2.244500	-0.362890	0.947949
C226	C	1.523694	-1.072296	0.335400
C227	C	1.857027	-0.738963	0.668734
C228	C	2.190361	-0.405630	1.002067
H229	H	1.619723	-1.051860	0.239455
H230	H	1.953056	-0.718527	0.572788
H231	H	2.286389	-0.385194	0.906122
H232	H	1.614695	-1.003871	0.323330
H233	H	1.948029	-0.670538	0.656663
H234	H	2.281362	-0.337205	0.989996
H235	H	1.535796	-1.003960	0.244347
H236	H	1.869130	-0.670627	0.577680
H237	H	2.202463	-0.337294	0.911014
H238	H	1.565731	-1.097890	0.372341
H239	H	1.899064	-0.764557	0.705675
H240	H	2.232398	-0.431223	1.039008
H241	H	1.486830	-1.097993	0.293348
H242	H	1.820163	-0.764659	0.626681
H243	H	2.153496	-0.431326	0.960014
