data_functionalizedCrystal
_audit_creation_method	'MofGen! by Chris Wilmer'
_symmetry_space_group_name_H-M	'P1'
_symmetry_Int_Tables_number	1
_symmetry_cell_setting	triclinic
loop_
_symmetry_equiv_pos_as_xyz
  x,y,z
_cell_length_a	18.215407
_cell_length_b	10.686203
_cell_length_c	18.215399
_cell_angle_alpha	94.390030
_cell_angle_beta	89.983176
_cell_angle_gamma	94.365226
loop_
_atom_site_label
_atom_site_type_symbol
_atom_site_fract_x
_atom_site_fract_y
_atom_site_fract_z
Zn1	Zn	1.147603	0.502315	-0.393721
Zn2	Zn	1.156992	0.713340	-0.261246
Zn3	Zn	1.024544	0.502365	-0.270666
Zn4	Zn	1.033972	0.713261	-0.384275
O5	O	1.090778	0.607821	-0.327477
O6	O	1.251833	0.530320	-0.376159
O7	O	1.139406	0.685408	-0.159509
O8	O	1.032993	0.325783	-0.294885
O9	O	1.258731	0.685360	-0.278830
O10	O	1.123404	0.325746	-0.385293
O11	O	1.042097	0.530406	-0.166430
O12	O	0.922810	0.530329	-0.285725
O13	O	1.049062	0.685225	-0.488514
O14	O	0.929737	0.685273	-0.369193
O15	O	1.132546	0.530244	-0.495454
O16	O	1.148549	0.889906	-0.269671
O17	O	1.058166	0.889847	-0.360059
C18	C	0.899571	0.607799	-0.327457
C19	C	0.817773	0.607820	-0.327464
C20	C	0.633210	0.688627	-0.370861
C21	C	0.556352	0.688631	-0.370870
C22	C	0.549098	0.527037	-0.284108
C23	C	0.625955	0.527028	-0.284103
C24	C	0.668010	0.607830	-0.327478
C25	C	0.514294	0.607843	-0.327492
C26	C	0.430961	0.607847	-0.327501
C27	C	0.751348	0.607825	-0.327470
C28	C	1.105419	0.935661	-0.312834
C29	C	1.111750	1.075912	-0.306594
C30	C	1.282732	0.607843	-0.327497
C31	C	1.364531	0.607853	-0.327506
C32	C	1.090808	0.607720	-0.519434
C33	C	1.090821	0.607677	-0.601235
C34	C	1.076092	1.278700	-0.342201
C35	C	1.069816	1.138449	-0.348495
C36	C	1.040189	0.526913	-0.793036
C37	C	1.040201	0.526887	-0.869896
C38	C	1.141534	0.688291	-0.862679
C39	C	1.141518	0.688321	-0.785820
C40	C	1.090847	0.607625	-0.751001
C41	C	1.090874	0.607569	-0.904720
C42	C	1.090887	0.607542	-0.988055
C43	C	1.090833	0.607654	-0.667661
C44	C	1.090786	0.607830	-0.136270
C45	C	1.090900	0.607517	-0.054486
H46	H	0.528022	0.754422	-0.406198
H47	H	0.654289	0.461226	-0.248776
H48	H	0.514848	0.461253	-0.248792
O49	O	1.021312	1.074270	-0.397075
C50	C	1.059777	0.997901	-0.447992
H51	H	1.119506	1.037612	-0.450844
H52	H	1.033051	0.996250	-0.504677
H53	H	1.057876	0.898090	-0.429631
H54	H	1.152493	1.129674	-0.265938
O55	O	0.990893	0.448498	-0.759327
C56	C	0.946195	0.377235	-0.812915
H57	H	0.945968	0.428898	-0.865389
H58	H	0.887605	0.363789	-0.791308
H59	H	0.968866	0.281397	-0.825379
H60	H	0.998950	0.461164	-0.904118
H61	H	1.182771	0.754052	-0.751594
O62	O	0.673950	0.767145	-0.413068
C63	C	0.626751	0.838478	-0.451347
H64	H	0.569657	0.786805	-0.456252
H65	H	0.649583	0.852050	-0.508711
H66	H	0.622847	0.934259	-0.420034
O67	O	1.190727	0.766550	-0.896623
C68	C	1.179869	0.749239	-0.973474
H69	H	1.151424	0.651854	-0.988328
H70	H	1.235382	0.757790	-1.002305
H71	H	1.144022	0.824072	-0.991933
