data_functionalizedCrystal
_audit_creation_method	'MofGen! by Chris Wilmer'
_symmetry_space_group_name_H-M	'P1'
_symmetry_Int_Tables_number	1
_symmetry_cell_setting	triclinic
loop_
_symmetry_equiv_pos_as_xyz
  x,y,z
_cell_length_a	12.837943
_cell_length_b	23.532407
_cell_length_c	11.295483
_cell_angle_alpha	94.064566
_cell_angle_beta	85.461227
_cell_angle_gamma	88.838809
loop_
_atom_site_label
_atom_site_type_symbol
_atom_site_fract_x
_atom_site_fract_y
_atom_site_fract_z
O1	O	1.380948	0.144513	-0.099028
O2	O	1.079219	0.137204	-0.099034
O3	O	1.239181	0.058450	-0.099009
O4	O	1.220986	0.223267	-0.099053
O5	O	1.225131	0.065355	0.099039
O6	O	1.065169	0.144109	0.099014
O7	O	1.366899	0.151419	0.099020
Cu8	Cu	1.214751	0.148394	0.117101
Cu9	Cu	1.231366	0.140228	-0.117115
O10	O	1.206937	0.230173	0.098995
C11	C	1.033599	0.138187	-0.000010
C12	C	0.918597	0.130823	-0.000012
C13	C	0.676728	0.219356	-0.000018
C14	C	0.568673	0.212439	-0.000018
C15	C	0.594431	0.110073	-0.000004
C16	C	0.702485	0.116990	-0.000004
C17	C	0.743630	0.171633	-0.000013
C18	C	0.851687	0.178549	-0.000021
C19	C	0.877442	0.076184	0.000002
C20	C	0.769387	0.069267	0.000002
C21	C	1.231692	0.040660	0.000018
C22	C	1.230298	-0.022637	0.000027
C23	C	1.316228	-0.416812	-0.000037
C24	C	1.314934	-0.476287	-0.000046
O25	O	1.394590	-0.508463	-0.000088
N26	N	1.219836	-0.504370	-0.000047
C27	C	1.126025	-0.472975	-0.000051
O28	O	1.045018	-0.502323	-0.000053
C29	C	1.127321	-0.413501	-0.000050
C30	C	1.222424	-0.385421	-0.000037
C31	C	1.411324	-0.388732	-0.000025
C32	C	1.412617	-0.329261	-0.000014
C33	C	1.318814	-0.297871	-0.000014
C34	C	1.223717	-0.325951	-0.000026
C35	C	1.033512	-0.382108	-0.000063
C36	C	1.034816	-0.322631	-0.000063
C37	C	1.129920	-0.294551	-0.000050
C38	C	1.131207	-0.235089	-0.000015
N39	N	1.226306	-0.207006	-0.000014
C40	C	1.320109	-0.238397	-0.000013
C41	C	1.123313	-0.597873	-0.000054
C42	C	1.122016	-0.657345	-0.000046
C43	C	1.310925	-0.660653	-0.000043
C44	C	1.312220	-0.601180	-0.000043
C45	C	1.218411	-0.569790	-0.000053
C46	C	1.322817	-0.113504	0.000011
C47	C	1.324101	-0.054028	0.000027
C48	C	1.135193	-0.050725	0.000019
C49	C	1.133908	-0.110196	0.000009
C50	C	1.227729	-0.141584	0.000001
O51	O	1.051593	-0.202877	0.000023
O52	O	1.401104	-0.209042	-0.000026
C53	C	1.412519	0.150435	-0.000006
C54	C	1.527521	0.157799	-0.000013
C55	C	1.214425	0.247962	-0.000035
C56	C	1.215820	0.311259	-0.000052
N57	N	1.203072	0.154138	0.281835
N58	N	1.243053	0.134480	-0.281849
C59	C	1.327124	0.093101	0.531144
C60	C	1.318306	0.097446	0.655806
C61	C	1.176612	0.167170	0.655824
C62	C	1.185431	0.162825	0.531162
C63	C	1.260690	0.125790	0.468826
C64	C	1.269513	0.121448	0.344162
C65	C	1.127815	0.191169	0.344182
C66	C	1.118997	0.195514	0.468844
H67	H	1.399215	-0.139054	0.000000
H68	H	1.330795	0.091294	0.293409
H69	H	0.710228	0.263848	-0.000027
C70	C	1.007940	-0.525529	0.101762
C71	C	1.020189	-0.563370	-0.000047
H72	H	0.944279	-0.504229	0.101758
H73	H	1.006465	-0.546397	0.170811
H74	H	1.064762	-0.500292	0.101749
H75	H	0.963370	-0.588609	-0.000030
H76	H	1.021654	-0.542500	-0.069114
C77	C	0.879337	-0.401118	-0.101910
C78	C	0.928970	-0.412963	-0.000089
H79	H	0.814796	-0.420169	-0.101929
H80	H	0.866703	-0.361208	-0.101895
H81	H	0.922849	-0.413954	-0.170959
H82	H	0.885461	-0.400123	0.068960
H83	H	0.941601	-0.452881	-0.000093
C84	C	0.765295	-0.023658	-0.101802
C85	C	0.724157	0.009205	0.000006
H86	H	0.737377	-0.060739	-0.101797
H87	H	0.747186	-0.006165	-0.170852
H88	H	0.839224	-0.026364	-0.101790
H89	H	0.650229	0.011914	-0.000011
H90	H	0.742259	-0.008292	0.069074
H91	H	1.372402	0.070827	0.706542
C92	C	1.416064	-0.532681	0.101769
C93	C	1.416762	-0.570319	-0.000038
H94	H	1.480611	-0.513634	0.101770
H95	H	1.360399	-0.505471	0.101757
H96	H	1.406727	-0.553414	0.170827
H97	H	1.426091	-0.549585	-0.069096
H98	H	1.472443	-0.597532	-0.000037
C99	C	1.015623	-0.171620	0.101805
C100	C	1.029367	-0.141062	0.000007
H101	H	0.951080	-0.190668	0.101797
H102	H	1.071293	-0.198828	0.101789
H103	H	1.015160	-0.146083	0.170869
H104	H	1.029838	-0.166599	-0.069058
H105	H	0.973682	-0.113850	0.000012
H106	H	0.885184	0.223042	-0.000026
C107	C	0.994200	0.192131	0.694263
C108	C	1.093882	0.207867	0.724367
H109	H	0.943124	0.217252	0.736588
H110	H	0.989945	0.194233	0.611113
H111	H	0.981921	0.154237	0.714691
H112	H	1.106164	0.245760	0.703931
H113	H	1.098139	0.205770	0.807536
C114	C	1.054518	0.041329	0.000001
C115	C	0.950985	0.023722	0.000007
H116	H	1.099918	0.008942	0.000006
H117	H	1.071824	0.061084	-0.069060
H118	H	1.062031	0.065897	0.069068
H119	H	0.943470	-0.000843	-0.069065
H120	H	0.933674	0.003958	0.069076
H121	H	1.401549	-0.031168	0.000041
H122	H	1.073723	0.217788	0.293429
C123	C	1.478186	0.083582	0.390957
C124	C	1.409877	0.052406	0.462634
H125	H	1.529285	0.058461	0.348675
H126	H	1.439880	0.102413	0.335992
H127	H	1.511732	0.111010	0.439600
H128	H	1.376325	0.024981	0.413990
H129	H	1.448188	0.033566	0.517605
C130	C	1.054425	0.292067	0.507214
C131	C	1.036271	0.236221	0.537364
H132	H	1.003347	0.317197	0.549507
H133	H	1.122048	0.302728	0.527639
H134	H	1.050174	0.294149	0.424047
H135	H	1.040529	0.234138	0.620529
H136	H	0.968631	0.225557	0.516946
C137	C	0.554073	0.314316	-0.000046
C138	C	0.495134	0.264897	-0.000034
H139	H	0.508670	0.346702	-0.000062
H140	H	0.591850	0.317292	0.069016
H141	H	0.601658	0.312473	-0.069112
H142	H	0.447554	0.266738	0.069037
H143	H	0.457339	0.261921	-0.069103
C144	C	0.590316	0.017144	-0.101794
C145	C	0.549189	0.050014	0.000010
H146	H	0.562387	-0.019935	-0.101779
H147	H	0.572209	0.034635	-0.170846
H148	H	0.664244	0.014432	-0.101785
H149	H	0.475261	0.052729	-0.000003
H150	H	0.567289	0.032518	0.069081
C151	C	1.581247	-0.317328	-0.101831
C152	C	1.517160	-0.298402	-0.000017
H153	H	1.645789	-0.298277	-0.101837
H154	H	1.593883	-0.357237	-0.101823
H155	H	1.547537	-0.309297	-0.170884
H156	H	1.550867	-0.306437	0.069037
H157	H	1.504527	-0.258484	-0.000014
C158	C	1.526716	-0.461069	-0.101832
C159	C	1.514446	-0.423229	-0.000024
H160	H	1.590388	-0.482359	-0.101827
H161	H	1.469913	-0.486310	-0.101828
H162	H	1.528186	-0.440197	-0.170889
H163	H	1.512969	-0.444101	0.069034
H164	H	1.571264	-0.397984	-0.000018
H165	H	1.387305	-0.686223	-0.000047
C166	C	0.948334	-0.053415	-0.000003
C167	C	1.032088	-0.016213	0.000010
H168	H	0.884682	-0.032107	-0.000009
H169	H	0.956660	-0.079083	-0.069062
H170	H	0.946850	-0.074278	0.069067
H171	H	1.033576	0.004646	-0.069065
H172	H	1.023759	0.009465	0.069076
C173	C	0.935421	-0.648087	-0.000051
C174	C	1.017474	-0.688206	-0.000050
H175	H	0.870882	-0.667139	-0.000067
H176	H	0.934959	-0.622560	0.069014
H177	H	0.944769	-0.627359	-0.069115
H178	H	1.008130	-0.708931	0.069018
H179	H	1.017935	-0.713743	-0.069122
C180	C	0.933892	-0.257373	-0.101879
C181	C	0.931695	-0.288128	-0.000073
H182	H	0.870227	-0.236077	-0.101885
H183	H	0.990702	-0.232137	-0.101861
H184	H	0.942221	-0.283051	-0.170938
H185	H	0.923374	-0.262450	0.068986
H186	H	0.874869	-0.313367	-0.000081
