data_functionalizedCrystal
_audit_creation_method	'MofGen! by Chris Wilmer'
_symmetry_space_group_name_H-M	'P1'
_symmetry_Int_Tables_number	1
_symmetry_cell_setting	triclinic
loop_
_symmetry_equiv_pos_as_xyz
  x,y,z
_cell_length_a	6.817900
_cell_length_b	15.866870
_cell_length_c	14.125465
_cell_angle_alpha	113.228420
_cell_angle_beta	100.398878
_cell_angle_gamma	102.655915
loop_
_atom_site_label
_atom_site_type_symbol
_atom_site_fract_x
_atom_site_fract_y
_atom_site_fract_z
V1	V	-4.011086	-0.131684	-0.346677
O2	O	-3.978431	0.007174	-0.291722
O3	O	-3.982395	-0.261921	-0.390814
O4	O	-3.946868	-0.129287	-0.476657
O5	O	-4.014203	-0.126378	-0.205284
V6	V	-4.494210	-0.115118	-0.324116
O7	O	-4.273220	-0.168021	-0.396168
O8	O	-4.682273	-0.078781	-0.274625
O9	O	-4.299695	0.015119	-0.279979
O10	O	-4.644262	-0.253977	-0.379072
O11	O	-4.608490	-0.120424	-0.465510
O12	O	-4.335221	-0.117516	-0.194136
C13	C	-3.832702	-0.293681	-0.397345
C14	C	-3.890424	-0.400149	-0.434299
C15	C	-3.787383	-0.124492	-0.506846
C16	C	-3.816292	-0.123394	-0.613411
C17	C	-3.921038	-0.683174	-0.091525
C18	C	-3.975283	-0.783222	-0.126281
C19	C	-4.038973	-0.810065	-0.312008
C20	C	-3.984723	-0.710017	-0.277268
C21	C	-3.925761	-0.646580	-0.167026
C22	C	-3.989445	-0.673422	-0.352768
C23	C	-3.935210	-0.573384	-0.318031
C24	C	-3.876253	-0.509940	-0.207793
C25	C	-3.871526	-0.546541	-0.132288
C26	C	-4.048422	-0.736862	-0.463011
C27	C	-4.053145	-0.700267	-0.538511
C28	C	-3.998894	-0.600227	-0.503774
C29	C	-3.939937	-0.536783	-0.393536
C30	C	-4.003621	-0.563626	-0.579279
C31	C	-3.949386	-0.463587	-0.544541
C32	C	-3.885702	-0.436744	-0.358798
C33	C	-3.869280	-0.121380	-0.808519
C34	C	-4.055384	-0.125420	-0.862273
C35	C	-4.084869	-0.124299	-0.970839
C36	C	-3.839787	-0.122501	-0.699944
C37	C	-4.112731	0.046874	-0.273447
C38	C	-4.034246	0.153341	-0.236501
C39	C	-4.158049	-0.122313	-0.163944
C40	C	-4.108378	-0.123406	-0.057376
H41	H	-3.837657	-0.385088	-0.269027
C42	C	-4.238275	-0.130966	-0.814880
C43	C	-4.306058	-0.050845	-0.800788
C44	C	-4.474504	-0.055920	-0.757116
H45	H	-4.350929	-0.188785	-0.862562
H46	H	-4.193888	-0.130920	-0.747116
H47	H	-4.350452	-0.050900	-0.868542
H48	H	-4.193457	0.006986	-0.753099
H49	H	-4.430116	-0.055874	-0.689351
H50	H	-4.587142	-0.113742	-0.804803
H51	H	-4.520503	-0.001555	-0.747540
C52	C	-4.067607	-0.632662	-0.698916
C53	C	-4.114058	-0.728103	-0.713176
C54	C	-4.172983	-0.791722	-0.823371
H55	H	-4.188465	-0.625016	-0.735672
H56	H	-3.955180	-0.618730	-0.727235
H57	H	-4.226475	-0.742030	-0.684871
H58	H	-3.993229	-0.735779	-0.676446
H59	H	-4.060556	-0.777791	-0.851690
H60	H	-4.293836	-0.784068	-0.860117
H61	H	-4.204488	-0.856486	-0.833060
C62	C	-3.817730	-0.401355	-0.170233
C63	C	-3.989153	-0.380160	-0.215524
C64	C	-3.935310	-0.280144	-0.180959
H65	H	-3.781995	-0.368704	-0.093785
H66	H	-3.700667	-0.380539	-0.192533
H67	H	-4.106179	-0.400965	-0.193218
H68	H	-4.024911	-0.412786	-0.291970
H69	H	-3.818247	-0.259328	-0.203259
H70	H	-3.899574	-0.247502	-0.104511
H71	H	-4.051603	-0.265751	-0.211691
H72	H	-3.823480	-0.494885	-0.042516
C73	C	-3.954535	-0.424033	-0.626673
C74	C	-4.017722	-0.500998	-0.730650
C75	C	-4.022475	-0.464598	-0.806337
H76	H	-4.051330	-0.388697	-0.621300
H77	H	-3.818075	-0.382478	-0.612864
H78	H	-4.154162	-0.542537	-0.744455
H79	H	-3.920949	-0.536342	-0.736058
H80	H	-3.886015	-0.423043	-0.792528
H81	H	-4.119268	-0.429262	-0.800955
H82	H	-4.065328	-0.516812	-0.876893
H83	H	-3.872993	-0.631518	-0.001754
H84	H	-3.732108	-0.117082	-0.844033
H85	H	-3.971427	-0.813012	-0.064791
H86	H	-4.086995	-0.861729	-0.401769
H87	H	-4.092584	-0.818319	-0.491291
H88	H	-4.101166	-0.751931	-0.628272
