data_functionalizedCrystal
_audit_creation_method	'MofGen! by Chris Wilmer'
_symmetry_space_group_name_H-M	'P1'
_symmetry_Int_Tables_number	1
_symmetry_cell_setting	triclinic
loop_
_symmetry_equiv_pos_as_xyz
  x,y,z
_cell_length_a	17.699083
_cell_length_b	16.776229
_cell_length_c	17.699083
_cell_angle_alpha	90.007545
_cell_angle_beta	83.283015
_cell_angle_gamma	90.001114
loop_
_atom_site_label
_atom_site_type_symbol
_atom_site_fract_x
_atom_site_fract_y
_atom_site_fract_z
O1	O	1.004078	0.066178	0.095713
O2	O	1.337412	0.399511	0.429046
O3	O	1.670745	0.732845	0.762380
O4	O	0.783700	0.066204	0.108165
O5	O	1.117033	0.399538	0.441499
O6	O	1.450367	0.732871	0.774832
O7	O	0.900116	0.066183	-0.008250
O8	O	1.233449	0.399517	0.325083
O9	O	1.566782	0.732850	0.658417
O10	O	0.887663	0.066199	0.212128
O11	O	1.220996	0.399532	0.545462
O12	O	1.554330	0.732866	0.878795
O13	O	0.900100	-0.066393	-0.008257
O14	O	1.233433	0.266940	0.325076
O15	O	1.566767	0.600274	0.658410
O16	O	0.783685	-0.066372	0.108158
O17	O	1.117018	0.266961	0.441492
O18	O	1.450351	0.600295	0.774825
O19	O	1.004063	-0.066398	0.095706
O20	O	1.337396	0.266935	0.429039
O21	O	1.670730	0.600268	0.762373
Zn22	Zn	0.893871	-0.087435	0.101931
Zn23	Zn	1.227205	0.245899	0.435264
Zn24	Zn	1.560538	0.579232	0.768598
Zn25	Zn	0.893892	0.087241	0.101940
Zn26	Zn	1.227225	0.420574	0.435274
Zn27	Zn	1.560558	0.753907	0.768607
O28	O	0.887648	-0.066378	0.212121
O29	O	1.220981	0.266956	0.545455
O30	O	1.554314	0.600289	0.878788
C31	C	0.755495	-0.000081	0.107716
C32	C	1.088829	0.333253	0.441049
C33	C	1.422162	0.666586	0.774382
C34	C	0.671477	-0.000071	0.106377
C35	C	1.004811	0.333263	0.439710
C36	C	1.338144	0.666596	0.773044
N37	N	0.893863	-0.206646	0.101924
N38	N	1.227196	0.126687	0.435257
N39	N	1.560530	0.460021	0.768591
C40	C	0.622856	-0.000066	0.174710
C41	C	0.956190	0.333267	0.508044
C42	C	1.289523	0.666600	0.841377
C43	C	0.543913	-0.000077	0.173448
C44	C	0.877246	0.333257	0.506782
C45	C	1.210580	0.666590	0.840115
C46	C	0.513592	-0.000086	0.103852
C47	C	0.846926	0.333247	0.437185
C48	C	1.180259	0.666581	0.770518
C49	C	0.562219	-0.000093	0.035513
C50	C	0.895553	0.333240	0.368846
C51	C	1.228886	0.666574	0.702180
C52	C	0.641161	-0.000088	0.036776
C53	C	0.974495	0.333245	0.370109
C54	C	1.307828	0.666579	0.703443
C55	C	0.243856	-0.000113	0.030418
C56	C	0.577190	0.333220	0.363751
C57	C	0.910523	0.666554	0.697085
C58	C	0.164908	-0.000115	0.029160
C59	C	0.498242	0.333218	0.362493
C60	C	0.831575	0.666551	0.695827
C61	C	0.146608	-0.000101	0.167090
C62	C	0.479942	0.333232	0.500423
C63	C	0.813275	0.666565	0.833757
C64	C	0.225550	-0.000097	0.168353
C65	C	0.558883	0.333237	0.501686
C66	C	0.892217	0.666570	0.835020
C67	C	0.274170	-0.000108	0.100015
C68	C	0.607504	0.333226	0.433348
C69	C	0.940837	0.666559	0.766681
C70	C	0.359769	-0.000098	0.101384
C71	C	0.693103	0.333235	0.434718
C72	C	1.026436	0.666569	0.768051
C73	C	0.427995	-0.000090	0.102481
C74	C	0.761328	0.333243	0.435815
C75	C	1.094661	0.666577	0.769148
C76	C	0.945428	-0.248372	0.050396
C77	C	1.278761	0.084961	0.383730
C78	C	1.612094	0.418294	0.717063
C79	C	0.945432	-0.331824	0.050396
C80	C	1.278765	0.001509	0.383729
C81	C	1.612098	0.334842	0.717062
C82	C	0.893875	-0.373549	0.101927
C83	C	1.227208	-0.040215	0.435260
C84	C	1.560541	0.293118	0.768594
C85	C	0.842305	-0.331817	0.153457
C86	C	1.175638	0.001517	0.486790
C87	C	1.508971	0.334850	0.820124
C88	C	0.842297	-0.248366	0.153454
C89	C	1.175631	0.084967	0.486787
C90	C	1.508964	0.418301	0.820120
C91	C	0.842332	-0.668364	0.153472
C92	C	1.175665	-0.335030	0.486805
C93	C	1.508999	-0.001697	0.820139
C94	C	0.842345	-0.751820	0.153473
C95	C	1.175678	-0.418487	0.486806
C96	C	1.509011	-0.085154	0.820140
C97	C	0.945466	-0.751822	0.050414
C98	C	1.278800	-0.418489	0.383748
C99	C	1.612133	-0.085156	0.717081
C100	C	0.945459	-0.668372	0.050411
C101	C	1.278792	-0.335038	0.383744
C102	C	1.612126	-0.001705	0.717077
C103	C	0.893887	-0.626647	0.101938
C104	C	1.227220	-0.293313	0.435271
C105	C	1.560554	0.040020	0.768604
C106	C	0.893882	-0.536158	0.101937
C107	C	1.227215	-0.202825	0.435270
C108	C	1.560549	0.130508	0.768603
C109	C	0.893882	-0.464036	0.101932
C110	C	1.227216	-0.130702	0.435265
C111	C	1.560549	0.202631	0.768599
C112	C	1.032268	-0.000112	0.096156
C113	C	1.365601	0.333222	0.429489
C114	C	1.698934	0.666555	0.762822
C115	C	1.116286	-0.000116	0.097494
C116	C	1.449619	0.333217	0.430828
C117	C	1.782953	0.666550	0.764161
C118	C	0.899662	-0.000105	-0.036451
C119	C	1.232995	0.333228	0.296883
C120	C	1.566328	0.666562	0.630216
C121	C	0.898323	-0.000105	-0.120469
C122	C	1.231656	0.333228	0.212865
C123	C	1.564990	0.666562	0.546198
N124	N	0.893906	0.206452	0.101941
N125	N	1.227239	0.539785	0.435275
N126	N	1.560573	0.873118	0.768608
C127	C	0.966656	-0.000114	-0.169090
C128	C	1.299990	0.333219	0.164244
C129	C	1.633323	0.666552	0.497577
C130	C	0.965394	-0.000107	-0.248033
C131	C	1.298727	0.333226	0.085300
C132	C	1.632061	0.666560	0.418634
C133	C	0.895798	-0.000096	-0.278354
C134	C	1.229131	0.333237	0.054980
C135	C	1.562464	0.666570	0.388313
C136	C	0.827459	-0.000085	-0.229727
C137	C	1.160792	0.333249	0.103607
C138	C	1.494126	0.666582	0.436940
C139	C	0.828722	-0.000086	-0.150785
C140	C	1.162055	0.333247	0.182549
C141	C	1.495389	0.666580	0.515882
C142	C	0.822364	-0.000078	-0.548090
C143	C	1.155697	0.333256	-0.214756
C144	C	1.489030	0.666589	0.118577
C145	C	0.821106	-0.000078	-0.627038
C146	C	1.154439	0.333255	-0.293704
C147	C	1.487773	0.666588	0.039629
C148	C	0.959036	-0.000099	-0.645338
C149	C	1.292369	0.333235	-0.312004
C150	C	1.625703	0.666568	0.021329
C151	C	0.960299	-0.000100	-0.566396
C152	C	1.293632	0.333233	-0.233063
C153	C	1.626966	0.666567	0.100271
C154	C	0.891961	-0.000084	-0.517776
C155	C	1.225294	0.333249	-0.184442
C156	C	1.558627	0.666582	0.148891
C157	C	0.893330	-0.000090	-0.432177
C158	C	1.226664	0.333243	-0.098843
C159	C	1.559997	0.666576	0.234490
C160	C	0.894427	-0.000096	-0.363951
C161	C	1.227761	0.333238	-0.030618
C162	C	1.561094	0.666571	0.302715
C163	C	0.888102	-0.000087	0.240322
C164	C	1.221435	0.333246	0.573655
C165	C	1.554768	0.666579	0.906989
C166	C	0.889440	-0.000082	0.324340
C167	C	1.222773	0.333251	0.657673
C168	C	1.556107	0.666585	0.991007
H169	H	0.504328	-0.000072	0.229092
H170	H	0.837662	0.333261	0.562426
H171	H	1.170995	0.666595	0.895759
O172	O	1.001058	-0.376819	-0.005180
O173	O	1.334391	-0.043486	0.328153
O174	O	1.667724	0.289847	0.661487
H175	H	0.969281	-0.414844	-0.041938
H176	H	1.302614	-0.081510	0.291395
H177	H	1.635948	0.251823	0.624728
H178	H	0.647537	-0.000058	0.231384
H179	H	0.980870	0.333275	0.564717
H180	H	1.314204	0.666609	0.898051
O181	O	1.035366	-0.000100	-0.533697
O182	O	1.368699	0.333233	-0.200363
O183	O	1.702032	0.666567	0.132970
H184	H	1.068197	-0.054133	-0.553247
H185	H	1.401530	0.279200	-0.219914
H186	H	1.734863	0.612534	0.113419
H187	H	0.766718	-0.000065	-0.508512
H188	H	1.100052	0.333268	-0.175179
H189	H	1.433385	0.666602	0.158155
H190	H	0.987414	-0.214406	0.008437
H191	H	1.320748	0.118928	0.341770
H192	H	1.654081	0.452261	0.675104
O193	O	1.039096	-0.000130	-0.300477
O194	O	1.372429	0.333203	0.032856
O195	O	1.705762	0.666536	0.366190
H196	H	1.087702	-0.000153	-0.266131
H197	H	1.421036	0.333181	0.067203
H198	H	1.754369	0.666514	0.400536
H199	H	0.987444	-0.634402	0.008452
H200	H	1.320777	-0.301069	0.341785
H201	H	1.654111	0.032264	0.675118
O202	O	1.001087	-0.796824	-0.005172
O203	O	1.334421	-0.463491	0.328161
O204	O	1.667754	-0.130157	0.661494
H205	H	0.992428	-0.861862	0.003478
H206	H	1.325761	-0.528529	0.336811
H207	H	1.659095	-0.195196	0.670144
O208	O	0.746034	-0.000062	-0.659738
O209	O	1.079368	0.333272	-0.326405
O210	O	1.412701	0.666605	0.006929
H211	H	0.742149	-0.054103	-0.695264
H212	H	1.075482	0.279231	-0.361931
H213	H	1.408816	0.612564	-0.028597
H214	H	0.250232	-0.000085	0.225025
H215	H	0.583566	0.333248	0.558359
H216	H	0.916899	0.666581	0.891692
H217	H	0.140225	-0.000124	-0.027517
H218	H	0.473558	0.333209	0.305816
H219	H	0.806892	0.666543	0.639150
O220	O	0.094169	-0.000107	0.240803
O221	O	0.427502	0.333227	0.574136
O222	O	0.760836	0.666560	0.907469
H223	H	0.034181	-0.000123	0.228237
H224	H	0.367514	0.333210	0.561570
H225	H	0.700848	0.666543	0.894904
O226	O	0.786697	-0.376813	0.209043
O227	O	1.120030	-0.043480	0.542376
O228	O	1.453364	0.289853	0.875710
H229	H	0.795370	-0.441852	0.200396
H230	H	1.128704	-0.108519	0.533730
H231	H	1.462037	0.224814	0.867063
O232	O	0.296293	-0.000125	-0.043286
O233	O	0.629626	0.333209	0.290048
O234	O	0.962959	0.666542	0.623381
H235	H	0.261944	-0.000125	-0.091890
H236	H	0.595277	0.333208	0.241443
H237	H	0.928610	0.666542	0.574777
H238	H	1.023330	-0.000128	-0.144409
H239	H	1.356663	0.333205	0.188924
H240	H	1.689997	0.666539	0.522258
H241	H	0.537526	-0.000112	-0.021154
H242	H	0.870859	0.333222	0.312180
H243	H	1.204193	0.666555	0.645513
O244	O	0.786746	-0.796828	0.209067
O245	O	1.120079	-0.463495	0.542400
O246	O	1.453413	-0.130162	0.875733
H247	H	0.750883	-0.753795	0.244897
H248	H	1.084217	-0.420462	0.578231
H249	H	1.417550	-0.087129	0.911564
H250	H	0.800308	-0.214393	0.195412
H251	H	1.133641	0.118940	0.528745
H252	H	1.466974	0.452274	0.862078
H253	H	0.800342	-0.634398	0.195428
H254	H	1.133675	-0.301065	0.528762
H255	H	1.467008	0.032269	0.862095
H256	H	1.014680	-0.000107	-0.684934
H257	H	1.348013	0.333226	-0.351601
H258	H	1.681347	0.666559	-0.018268
H259	H	0.770792	-0.000071	-0.254420
H260	H	1.104126	0.333262	0.078913
H261	H	1.437459	0.666596	0.412247
H262	H	0.773078	-0.000078	-0.111198
H263	H	1.106411	0.333255	0.222136
H264	H	1.439745	0.666588	0.555469
H265	H	0.680748	-0.000091	-0.018868
H266	H	1.014082	0.333242	0.314465
H267	H	1.347415	0.666575	0.647799
