data_functionalizedCrystal
_audit_creation_method	'MofGen! by Chris Wilmer'
_symmetry_space_group_name_H-M	'P1'
_symmetry_Int_Tables_number	1
_symmetry_cell_setting	triclinic
loop_
_symmetry_equiv_pos_as_xyz
  x,y,z
_cell_length_a	23.532407
_cell_length_b	23.532407
_cell_length_c	22.010155
_cell_angle_alpha	90.003069
_cell_angle_beta	89.999577
_cell_angle_gamma	97.151322
loop_
_atom_site_label
_atom_site_type_symbol
_atom_site_fract_x
_atom_site_fract_y
_atom_site_fract_z
O1	O	0.069127	-0.755264	-0.050455
O2	O	0.402460	-0.421930	0.282878
O3	O	0.735794	-0.088597	0.616211
O4	O	0.079130	-0.589400	-0.050474
O5	O	0.412463	-0.256067	0.282859
O6	O	0.745797	0.077266	0.616193
O7	O	-0.008803	-0.677334	-0.050453
O8	O	0.324530	-0.344000	0.282880
O9	O	0.657863	-0.010667	0.616214
O10	O	0.157060	-0.667330	-0.050476
O11	O	0.490393	-0.333997	0.282857
O12	O	0.823727	-0.000664	0.616190
O13	O	-0.008790	-0.677318	0.050597
O14	O	0.324543	-0.343984	0.383931
O15	O	0.657877	-0.010651	0.717264
O16	O	0.079143	-0.589384	0.050576
O17	O	0.412477	-0.256051	0.383910
O18	O	0.745810	0.077282	0.717243
O19	O	0.069140	-0.755248	0.050595
O20	O	0.402473	-0.421914	0.383928
O21	O	0.735807	-0.088581	0.717262
Cu22	Cu	0.074143	-0.672315	0.059812
Cu23	Cu	0.407476	-0.338981	0.393146
Cu24	Cu	0.740810	-0.005648	0.726479
Cu25	Cu	0.074127	-0.672333	-0.059691
Cu26	Cu	0.407461	-0.339000	0.273642
Cu27	Cu	0.740794	-0.005667	0.606975
O28	O	0.157073	-0.667314	0.050574
O29	O	0.490407	-0.333981	0.383907
O30	O	0.823740	-0.000648	0.717241
C31	C	0.078882	-0.568176	0.000049
C32	C	0.412215	-0.234843	0.333382
C33	C	0.745549	0.098490	0.666715
C34	C	0.078116	-0.504959	0.000042
C35	C	0.411449	-0.171626	0.333375
C36	C	0.744783	0.161707	0.666709
C37	C	-0.030013	-0.677071	0.000074
C38	C	0.303321	-0.343738	0.333407
C39	C	0.636654	-0.010404	0.666740
C40	C	-0.093230	-0.676305	0.000078
C41	C	0.240104	-0.342972	0.333412
C42	C	0.573437	-0.009638	0.666745
C43	C	0.069388	-0.776472	0.000071
C44	C	0.402722	-0.443138	0.333404
C45	C	0.736055	-0.109805	0.666737
C46	C	0.070154	-0.839689	0.000073
C47	C	0.403487	-0.506355	0.333407
C48	C	0.736821	-0.173022	0.666740
C49	C	-0.492333	-0.723539	0.000050
C50	C	-0.158999	-0.390205	0.333384
C51	C	0.174334	-0.056872	0.666717
C52	C	-0.551733	-0.722827	0.000046
C53	C	-0.218400	-0.389494	0.333379
C54	C	0.114934	-0.056160	0.666712
O55	O	-0.588478	-0.766613	0.000028
O56	O	-0.255144	-0.433280	0.333361
O57	O	0.078189	-0.099946	0.666695
N58	N	-0.574359	-0.670551	0.000040
N59	N	-0.241026	-0.337217	0.333373
N60	N	0.092307	-0.003884	0.666707
C61	C	-0.537582	-0.618983	0.000033
C62	C	-0.204248	-0.285649	0.333366
C63	C	0.129085	0.047684	0.666700
O64	O	-0.562281	-0.574452	0.000027
O65	O	-0.228948	-0.241119	0.333361
O66	O	0.104385	0.092215	0.666694
C67	C	-0.478182	-0.619695	0.000033
C68	C	-0.144849	-0.286361	0.333367
C69	C	0.188484	0.046972	0.666700
C70	C	-0.455560	-0.671974	0.000045
C71	C	-0.122227	-0.338641	0.333378
C72	C	0.211107	-0.005308	0.666712
C73	C	-0.469710	-0.775814	0.000061
C74	C	-0.136376	-0.442481	0.333394
C75	C	0.196957	-0.109147	0.666728
C76	C	-0.410313	-0.776525	0.000067
C77	C	-0.076980	-0.443192	0.333400
C78	C	0.256353	-0.109859	0.666734
C79	C	-0.373540	-0.724961	0.000062
C80	C	-0.040207	-0.391628	0.333395
C81	C	0.293126	-0.058294	0.666729
C82	C	-0.396164	-0.672685	0.000051
C83	C	-0.062830	-0.339352	0.333384
C84	C	0.270503	-0.006019	0.666718
C85	C	-0.441406	-0.568127	0.000022
C86	C	-0.108073	-0.234794	0.333356
C87	C	0.225261	0.098540	0.666689
C88	C	-0.382004	-0.568844	0.000022
C89	C	-0.048670	-0.235510	0.333355
C90	C	0.284663	0.097823	0.666689
C91	C	-0.359381	-0.621123	0.000034
C92	C	-0.026048	-0.287790	0.333367
C93	C	0.307286	0.045543	0.666700
C94	C	-0.299995	-0.621832	0.000052
C95	C	0.033339	-0.288499	0.333385
C96	C	0.366672	0.044834	0.666718
N97	N	-0.277368	-0.674109	0.000057
N98	N	0.055965	-0.340775	0.333390
N99	N	0.389298	-0.007442	0.666724
C100	C	-0.314141	-0.725673	0.000062
C101	C	0.019192	-0.392340	0.333396
C102	C	0.352525	-0.059006	0.666729
C103	C	-0.662324	-0.617491	0.000031
C104	C	-0.328991	-0.284158	0.333365
C105	C	0.004343	0.049176	0.666698
C106	C	-0.721722	-0.616778	0.000035
C107	C	-0.388389	-0.283445	0.333369
C108	C	-0.055055	0.049888	0.666702
C109	C	-0.735869	-0.720623	0.000047
C110	C	-0.402536	-0.387290	0.333380
C111	C	-0.069203	-0.053957	0.666713
C112	C	-0.676470	-0.721335	0.000047
C113	C	-0.343137	-0.388002	0.333380
C114	C	-0.009804	-0.054669	0.666714
C115	C	-0.639698	-0.669767	0.000037
C116	C	-0.306365	-0.336434	0.333370
C117	C	0.026969	-0.003101	0.666703
C118	C	-0.189405	-0.727163	0.000075
C119	C	0.143929	-0.393829	0.333408
C120	C	0.477262	-0.060496	0.666742
C121	C	-0.130003	-0.727869	0.000083
C122	C	0.203331	-0.394536	0.333417
C123	C	0.536664	-0.061203	0.666750
C124	C	-0.115860	-0.624025	0.000069
C125	C	0.217473	-0.290692	0.333402
C126	C	0.550806	0.042642	0.666736
C127	C	-0.175257	-0.623318	0.000064
C128	C	0.158076	-0.289985	0.333397
C129	C	0.491409	0.043349	0.666730
C130	C	-0.212029	-0.674891	0.000065
C131	C	0.121305	-0.341558	0.333398
C132	C	0.454638	-0.008225	0.666731
O133	O	-0.263215	-0.578070	0.000067
O134	O	0.070118	-0.244736	0.333400
O135	O	0.403451	0.088597	0.666733
O136	O	-0.289433	-0.770196	0.000060
O137	O	0.043900	-0.436863	0.333393
O138	O	0.377233	-0.103529	0.666727
C139	C	0.178283	-0.667577	0.000046
C140	C	0.511616	-0.334244	0.333379
C141	C	0.844949	-0.000910	0.666712
C142	C	0.241500	-0.668343	0.000037
C143	C	0.574833	-0.335010	0.333371
C144	C	0.908167	-0.001676	0.666704
N145	N	0.074153	-0.672305	0.143865
N146	N	0.407487	-0.338972	0.477198
N147	N	0.740820	-0.005639	0.810531
C148	C	0.125350	-0.105856	0.000063
C149	C	0.458683	0.227477	0.333396
C150	C	0.792016	0.560810	0.666730
C151	C	0.124638	-0.046456	0.000067
C152	C	0.457971	0.286877	0.333400
C153	C	0.791305	0.620211	0.666733
O154	O	0.168424	-0.009711	0.000083
O155	O	0.501757	0.323622	0.333416
O156	O	0.835091	0.656955	0.666749
N157	N	0.072362	-0.023830	0.000073
N158	N	0.405695	0.309504	0.333407
N159	N	0.739028	0.642837	0.666740
C160	C	0.020794	-0.060607	0.000082
C161	C	0.354127	0.272726	0.333415
C162	C	0.687460	0.606059	0.666749
O163	O	-0.023737	-0.035908	0.000088
O164	O	0.309596	0.297426	0.333422
O165	O	0.642930	0.630759	0.666755
C166	C	0.021506	-0.120006	0.000082
C167	C	0.354839	0.213327	0.333416
C168	C	0.688172	0.546660	0.666749
C169	C	0.073785	-0.142629	0.000070
C170	C	0.407119	0.190704	0.333403
C171	C	0.740452	0.524038	0.666737
C172	C	0.177625	-0.128479	0.000051
C173	C	0.510958	0.204854	0.333385
C174	C	0.844292	0.538187	0.666718
C175	C	0.178336	-0.187876	0.000046
C176	C	0.511670	0.145458	0.333380
C177	C	0.845003	0.478791	0.666713
C178	C	0.126772	-0.224649	0.000053
C179	C	0.460105	0.108685	0.333386
C180	C	0.793439	0.442018	0.666720
C181	C	0.074497	-0.202025	0.000065
C182	C	0.407830	0.131308	0.333398
C183	C	0.741163	0.464641	0.666732
C184	C	-0.030062	-0.156783	0.000096
C185	C	0.303271	0.176550	0.333429
C186	C	0.636605	0.509884	0.666762
C187	C	-0.029345	-0.216185	0.000097
C188	C	0.303988	0.117148	0.333430
C189	C	0.637321	0.450481	0.666763
C190	C	0.022934	-0.238808	0.000084
C191	C	0.356268	0.094525	0.333417
C192	C	0.689601	0.427859	0.666751
C193	C	0.023643	-0.298194	0.000067
C194	C	0.356977	0.035139	0.333400
C195	C	0.690310	0.368472	0.666734
N196	N	0.075920	-0.320820	0.000061
N197	N	0.409253	0.012513	0.333394
N198	N	0.742586	0.345846	0.666727
C199	C	0.127484	-0.284048	0.000054
C200	C	0.460817	0.049286	0.333387
C201	C	0.794151	0.382619	0.666720
C202	C	0.019302	0.064135	0.000082
C203	C	0.352635	0.397468	0.333415
C204	C	0.685969	0.730802	0.666749
C205	C	0.018589	0.123533	0.000077
C206	C	0.351923	0.456866	0.333410
C207	C	0.685256	0.790200	0.666744
C208	C	0.122434	0.137680	0.000063
C209	C	0.455768	0.471014	0.333396
C210	C	0.789101	0.804347	0.666730
C211	C	0.123146	0.078281	0.000064
C212	C	0.456480	0.411615	0.333397
C213	C	0.789813	0.744948	0.666730
C214	C	0.071578	0.041509	0.000076
C215	C	0.404912	0.374842	0.333409
C216	C	0.738245	0.708176	0.666742
C217	C	0.128974	-0.408784	0.000043
C218	C	0.462307	-0.075451	0.333376
C219	C	0.795640	0.257882	0.666709
C220	C	0.129680	-0.468186	0.000035
C221	C	0.463014	-0.134853	0.333369
C222	C	0.796347	0.198480	0.666702
C223	C	0.025836	-0.482329	0.000052
C224	C	0.359169	-0.148995	0.333386
C225	C	0.692503	0.184338	0.666719
C226	C	0.025129	-0.422932	0.000057
C227	C	0.358462	-0.089598	0.333390
C228	C	0.691796	0.243735	0.666723
C229	C	0.076702	-0.386160	0.000054
C230	C	0.410036	-0.052827	0.333387
C231	C	0.743369	0.280506	0.666721
O232	O	-0.020119	-0.334974	0.000054
O233	O	0.313214	-0.001640	0.333387
O234	O	0.646547	0.331693	0.666720
O235	O	0.172007	-0.308755	0.000055
O236	O	0.505340	0.024578	0.333389
O237	O	0.838674	0.357911	0.666722
N238	N	0.074112	-0.672347	-0.143744
N239	N	0.407445	-0.339014	0.189589
N240	N	0.740779	-0.005680	0.522923
C241	C	0.035196	-0.711273	0.563653
C242	C	0.368529	-0.377939	0.896987
C243	C	0.701863	-0.044606	1.230320
C244	C	0.035192	-0.711275	0.627261
C245	C	0.368525	-0.377942	0.960594
C246	C	0.701859	-0.044609	1.293928
O247	O	0.002076	-0.744384	0.660160
O248	O	0.335410	-0.411050	0.993494
O249	O	0.668743	-0.077717	1.326827
N250	N	0.074115	-0.672333	0.659072
N251	N	0.407449	-0.339000	0.992405
N252	N	0.740782	-0.005667	1.325739
C253	C	0.113041	-0.633382	0.627272
C254	C	0.446375	-0.300049	0.960605
C255	C	0.779708	0.033285	1.293938
O256	O	0.146148	-0.600259	0.660170
O257	O	0.479481	-0.266925	0.993503
O258	O	0.812815	0.066408	1.326837
C259	C	0.113042	-0.633377	0.563665
C260	C	0.446375	-0.300044	0.896999
C261	C	0.779709	0.033289	1.230332
C262	C	0.074120	-0.672326	0.531858
C263	C	0.407453	-0.338992	0.865191
C264	C	0.740787	-0.005659	1.198524
C265	C	-0.003723	-0.750217	0.531846
C266	C	0.329610	-0.416884	0.865179
C267	C	0.662943	-0.083551	1.198513
C268	C	-0.003719	-0.750215	0.468243
C269	C	0.329615	-0.416882	0.801576
C270	C	0.662948	-0.083549	1.134909
C271	C	0.035205	-0.711268	0.436447
C272	C	0.368539	-0.377935	0.769780
C273	C	0.701872	-0.044602	1.103114
C274	C	0.074125	-0.672324	0.468255
C275	C	0.407458	-0.338990	0.801588
C276	C	0.740791	-0.005657	1.134921
C277	C	0.151965	-0.594424	0.531866
C278	C	0.485298	-0.261091	0.865200
C279	C	0.818632	0.072243	1.198533
C280	C	0.151962	-0.594422	0.468256
C281	C	0.485295	-0.261089	0.801589
C282	C	0.818629	0.072245	1.134922
C283	C	0.113040	-0.633370	0.436448
C284	C	0.446373	-0.300037	0.769781
C285	C	0.779707	0.033296	1.103115
C286	C	0.113054	-0.633374	0.372856
C287	C	0.446387	-0.300041	0.706189
C288	C	0.779720	0.033292	1.039522
N289	N	0.074130	-0.672317	0.341045
N290	N	0.407464	-0.338983	0.674378
N291	N	0.740797	-0.005650	1.007712
C292	C	0.035206	-0.711263	0.372841
C293	C	0.368540	-0.377930	0.706174
C294	C	0.701873	-0.044597	1.039507
C295	C	0.113036	-0.633395	0.760850
C296	C	0.446369	-0.300061	1.094183
C297	C	0.779703	0.033272	1.427516
C298	C	0.113039	-0.633402	0.824455
C299	C	0.446372	-0.300069	1.157788
C300	C	0.779705	0.033265	1.491122
C301	C	0.035188	-0.711294	0.824440
C302	C	0.368522	-0.377961	1.157773
C303	C	0.701855	-0.044628	1.491106
C304	C	0.035189	-0.711290	0.760833
C305	C	0.368522	-0.377956	1.094167
C306	C	0.701856	-0.044623	1.427500
C307	C	0.074113	-0.672337	0.729039
C308	C	0.407446	-0.339003	1.062372
C309	C	0.740779	-0.005670	1.395705
C310	C	0.035220	-0.711256	0.239269
C311	C	0.368553	-0.377923	0.572603
C312	C	0.701886	-0.044590	0.905936
C313	C	0.035229	-0.711252	0.175660
C314	C	0.368563	-0.377919	0.508994
C315	C	0.701896	-0.044586	0.842327
C316	C	0.113077	-0.633358	0.175681
C317	C	0.446411	-0.300025	0.509014
C318	C	0.779744	0.033309	0.842348
C319	C	0.113070	-0.633364	0.239284
C320	C	0.446403	-0.300031	0.572618
C321	C	0.779736	0.033303	0.905951
C322	C	0.074136	-0.672315	0.271077
C323	C	0.407469	-0.338982	0.604410
C324	C	0.740803	-0.005649	0.937744
O325	O	0.146151	-0.600282	0.339916
O326	O	0.479484	-0.266948	0.673249
O327	O	0.812818	0.066385	1.006583
O328	O	0.002100	-0.744376	0.339935
O329	O	0.335433	-0.411043	0.673268
O330	O	0.668767	-0.077710	1.006601
H331	H	-0.111587	-0.770443	0.000094
H332	H	0.221746	-0.437110	0.333428
H333	H	0.555080	-0.103777	0.666761
H334	H	0.183658	-0.562700	0.442372
H335	H	0.516991	-0.229367	0.775705
H336	H	0.850325	0.103967	1.109038
H337	H	-0.632386	-0.575496	0.000028
H338	H	-0.299053	-0.242162	0.333362
H339	H	0.034280	0.091171	0.666695
C340	C	0.155886	-0.590516	0.140698
C341	C	0.489220	-0.257183	0.474031
C342	C	0.822553	0.076151	0.807364
H343	H	0.150306	-0.596091	0.098261
H344	H	0.483639	-0.262758	0.431595
H345	H	0.816973	0.070576	0.764928
H346	H	0.193869	-0.596475	0.151117
H347	H	0.527202	-0.263142	0.484450
H348	H	0.860535	0.070192	0.817783
H349	H	0.149883	-0.552544	0.151125
H350	H	0.483217	-0.219211	0.484459
H351	H	0.816550	0.114123	0.817792
H352	H	-0.459814	-0.525555	0.000009
H353	H	-0.126481	-0.192222	0.333342
H354	H	0.206852	0.141111	0.666676
C355	C	-0.007629	-0.754128	0.725851
C356	C	0.325704	-0.420795	1.059184
C357	C	0.659038	-0.087461	1.392517
H358	H	-0.030811	-0.777320	0.753902
H359	H	0.302523	-0.443986	1.087236
H360	H	0.635856	-0.110653	1.420569
H361	H	0.012734	-0.777717	0.701032
H362	H	0.346068	-0.444383	1.034365
H363	H	0.679401	-0.111050	1.367698
H364	H	-0.031237	-0.733772	0.701044
H365	H	0.302096	-0.400439	1.034378
H366	H	0.635429	-0.067106	1.367711
C367	C	0.179156	0.178136	0.000060
C368	C	0.512489	0.511469	0.333393
C369	C	0.845823	0.844802	0.666727
H370	H	0.210396	0.156159	0.000051
H371	H	0.543729	0.489492	0.333384
H372	H	0.877062	0.822825	0.666717
H373	H	0.181037	0.201603	0.035299
H374	H	0.514371	0.534936	0.368632
H375	H	0.847704	0.868269	0.701966
H376	H	0.181030	0.201599	-0.035182
H377	H	0.514363	0.534933	0.298151
H378	H	0.847697	0.868266	0.631484
H379	H	-0.740136	-0.574207	0.000036
H380	H	-0.406802	-0.240874	0.333370
H381	H	-0.073469	0.092460	0.666703
C382	C	-0.229845	-0.783892	0.000081
C383	C	0.103489	-0.450559	0.333415
C384	C	0.436822	-0.117225	0.666748
H385	H	-0.207856	-0.815123	0.000094
H386	H	0.125477	-0.481790	0.333428
H387	H	0.458810	-0.148457	0.666761
H388	H	-0.253311	-0.785787	-0.035157
H389	H	0.080022	-0.452453	0.298176
H390	H	0.413356	-0.119120	0.631509
H391	H	-0.253310	-0.785768	0.035324
H392	H	0.080024	-0.452434	0.368658
H393	H	0.413357	-0.119101	0.701991
C394	C	-0.038918	0.148412	0.000085
C395	C	0.294415	0.481745	0.333418
C396	C	0.627749	0.815078	0.666751
H397	H	-0.069523	0.117999	0.000092
H398	H	0.263811	0.451332	0.333426
H399	H	0.597144	0.784666	0.666759
H400	H	-0.041363	0.171289	-0.035151
H401	H	0.291971	0.504623	0.298183
H402	H	0.625304	0.837956	0.631516
H403	H	-0.041351	0.171287	0.035331
H404	H	0.291982	0.504620	0.368664
H405	H	0.625316	0.837954	0.701997
C406	C	0.155861	-0.590501	0.274274
C407	C	0.489194	-0.257167	0.607607
C408	C	0.822528	0.076166	0.940941
H409	H	0.179034	-0.567297	0.246225
H410	H	0.512368	-0.233963	0.579559
H411	H	0.845701	0.099370	0.912892
H412	H	0.179473	-0.610823	0.299105
H413	H	0.512807	-0.277490	0.632439
H414	H	0.846140	0.055843	0.965772
H415	H	0.135461	-0.566919	0.299068
H416	H	0.468795	-0.233586	0.632401
H417	H	0.802128	0.099748	0.965735
C418	C	-0.385436	-0.834033	0.000068
C419	C	-0.052103	-0.500700	0.333402
C420	C	0.281231	-0.167367	0.666735
H421	H	-0.415850	-0.864637	0.000063
H422	H	-0.082517	-0.531303	0.333397
H423	H	0.250816	-0.197970	0.666730
H424	H	-0.362558	-0.836473	0.035305
H425	H	-0.029224	-0.503140	0.368638
H426	H	0.304109	-0.169807	0.701972
H427	H	-0.362562	-0.836474	-0.035176
H428	H	-0.029228	-0.503140	0.298157
H429	H	0.304105	-0.169807	0.631490
C430	C	0.235844	-0.212753	0.000044
C431	C	0.569178	0.120580	0.333378
C432	C	0.902511	0.453914	0.666711
H433	H	0.266448	-0.182339	0.000048
H434	H	0.599781	0.150995	0.333381
H435	H	0.933114	0.484328	0.666715
H436	H	0.238286	-0.235634	-0.035192
H437	H	0.571619	0.097700	0.298141
H438	H	0.904952	0.431033	0.631474
H439	H	0.238283	-0.235625	0.035289
H440	H	0.571617	0.097708	0.368623
H441	H	0.904950	0.431042	0.701956
H442	H	-0.499645	-0.817806	0.000063
H443	H	-0.166312	-0.484473	0.333396
H444	H	0.167022	-0.151140	0.666730
H445	H	-0.658056	-0.763906	0.000056
H446	H	-0.324722	-0.430573	0.333389
H447	H	0.008611	-0.097239	0.666723
C448	C	-0.037426	0.023690	0.000082
C449	C	0.295907	0.357023	0.333415
C450	C	0.629240	0.690357	0.666748
H451	H	-0.068658	0.045677	0.000079
H452	H	0.264675	0.379010	0.333413
H453	H	0.598008	0.712344	0.666746
H454	H	-0.039310	0.000223	0.035318
H455	H	0.294023	0.333557	0.368652
H456	H	0.627356	0.666890	0.701985
H457	H	-0.039311	0.000225	-0.035163
H458	H	0.294023	0.333559	0.298170
H459	H	0.627356	0.666892	0.631504
C460	C	-0.075406	-0.567307	0.000059
C461	C	0.257928	-0.233974	0.333393
C462	C	0.591261	0.099359	0.666726
H463	H	-0.097383	-0.536068	0.000055
H464	H	0.235950	-0.202734	0.333389
H465	H	0.569284	0.130599	0.666722
H466	H	-0.051940	-0.565439	-0.035179
H467	H	0.281393	-0.232106	0.298154
H468	H	0.614726	0.101227	0.631488
H469	H	-0.051940	-0.565420	0.035302
H470	H	0.281393	-0.232087	0.368636
H471	H	0.614726	0.101247	0.701969
C472	C	-0.776327	-0.777344	0.000041
C473	C	-0.442994	-0.444010	0.333374
C474	C	-0.109660	-0.110677	0.666708
H475	H	-0.814942	-0.769428	0.000031
H476	H	-0.481608	-0.436094	0.333364
H477	H	-0.148275	-0.102761	0.666697
H478	H	-0.769508	-0.798796	0.035279
H479	H	-0.436174	-0.465463	0.368612
H480	H	-0.102841	-0.132129	0.701946
H481	H	-0.769498	-0.798794	-0.035202
H482	H	-0.436165	-0.465460	0.298131
H483	H	-0.102831	-0.132127	0.631464
H484	H	-0.352066	-0.526850	0.000013
H485	H	-0.018732	-0.193516	0.333346
H486	H	0.314601	0.139817	0.666680
H487	H	0.170970	-0.378851	0.000042
H488	H	0.504303	-0.045518	0.333376
H489	H	0.837637	0.287815	0.666709
H490	H	0.144737	-0.601676	0.734966
H491	H	0.478070	-0.268343	1.068299
H492	H	0.811404	0.064991	1.401632
C493	C	-0.087571	-0.131911	0.000118
C494	C	0.245763	0.201422	0.333451
C495	C	0.579096	0.534756	0.666784
H496	H	-0.118173	-0.162326	0.000131
H497	H	0.215160	0.171007	0.333464
H498	H	0.548494	0.504340	0.666797
H499	H	-0.090024	-0.109034	-0.035117
H500	H	0.243309	0.224300	0.298217
H501	H	0.576643	0.557633	0.631550
H502	H	-0.089999	-0.109036	0.035365
H503	H	0.243334	0.224297	0.368698
H504	H	0.576667	0.557630	0.702031
C505	C	-0.086072	-0.256632	0.000103
C506	C	0.247262	0.076701	0.333436
C507	C	0.580595	0.410035	0.666770
H508	H	-0.117306	-0.234647	0.000105
H509	H	0.216028	0.098686	0.333438
H510	H	0.549361	0.432019	0.666771
H511	H	-0.087951	-0.280100	0.035338
H512	H	0.245382	0.053233	0.368671
H513	H	0.578715	0.386567	0.702005
H514	H	-0.087957	-0.280095	-0.035143
H515	H	0.245376	0.053238	0.298190
H516	H	0.578709	0.386572	0.631523
H517	H	0.172255	-0.486602	0.000025
H518	H	0.505588	-0.153269	0.333358
H519	H	0.838921	0.180065	0.666691
H520	H	0.219617	-0.098544	0.000048
H521	H	0.552951	0.234789	0.333381
H522	H	0.886284	0.568123	0.666714
H523	H	-0.193677	-0.580748	0.000071
H524	H	0.139656	-0.247414	0.333404
H525	H	0.472989	0.085919	0.666738
C526	C	-0.046541	-0.793066	0.566811
C527	C	0.286793	-0.459732	0.900145
C528	C	0.620126	-0.126399	1.233478
H529	H	-0.069713	-0.816258	0.538750
H530	H	0.263621	-0.482925	0.872083
H531	H	0.596954	-0.149591	1.205416
H532	H	-0.070151	-0.772726	0.591630
H533	H	0.263182	-0.439393	0.924963
H534	H	0.596516	-0.106060	1.258297
H535	H	-0.026170	-0.816661	0.591617
H536	H	0.307164	-0.483328	0.924950
H537	H	0.640497	-0.149994	1.258283
C538	C	-0.032377	-0.398045	0.000064
C539	C	0.300957	-0.064712	0.333397
C540	C	0.634290	0.268621	0.666731
H541	H	-0.062984	-0.428456	0.000069
H542	H	0.270349	-0.095122	0.333402
H543	H	0.603683	0.238211	0.666736
H544	H	-0.034819	-0.375165	-0.035170
H545	H	0.298515	-0.041831	0.298163
H546	H	0.631848	0.291502	0.631497
H547	H	-0.034809	-0.375172	0.035311
H548	H	0.298525	-0.041838	0.368645
H549	H	0.631858	0.291495	0.701978
C550	C	0.180653	0.053402	0.000055
C551	C	0.513986	0.386735	0.333388
C552	C	0.847320	0.720068	0.666722
H553	H	0.211258	0.083814	0.000054
H554	H	0.544591	0.417148	0.333387
H555	H	0.877925	0.750481	0.666721
H556	H	0.183088	0.030520	-0.035182
H557	H	0.516421	0.363853	0.298152
H558	H	0.849755	0.697187	0.631485
H559	H	0.183096	0.030530	0.035300
H560	H	0.516429	0.363863	0.368633
H561	H	0.849763	0.697197	0.701966
C562	C	-0.030880	-0.522786	0.000065
C563	C	0.302453	-0.189452	0.333398
C564	C	0.635786	0.143881	0.666731
H565	H	-0.022964	-0.561400	0.000068
H566	H	0.310369	-0.228067	0.333401
H567	H	0.643702	0.105266	0.666735
H568	H	-0.052342	-0.515965	-0.035167
H569	H	0.280991	-0.182632	0.298167
H570	H	0.614324	0.150702	0.631500
H571	H	-0.052320	-0.515957	0.035315
H572	H	0.281013	-0.182624	0.368648
H573	H	0.614346	0.150709	0.701981
C574	C	-0.007589	-0.754095	0.140676
C575	C	0.325744	-0.420761	0.474009
C576	C	0.659078	-0.087428	0.807342
H577	H	-0.030775	-0.777285	0.168725
H578	H	0.302559	-0.443952	0.502059
H579	H	0.635892	-0.110619	0.835392
H580	H	0.012777	-0.777685	0.115861
H581	H	0.346110	-0.444352	0.449194
H582	H	0.679443	-0.111018	0.782527
H583	H	-0.031194	-0.733740	0.115865
H584	H	0.302139	-0.400406	0.449198
H585	H	0.635472	-0.067073	0.782531
C586	C	-0.007604	-0.754104	0.274232
C587	C	0.325729	-0.420771	0.607566
C588	C	0.659063	-0.087437	0.940899
H589	H	-0.030776	-0.777298	0.246172
H590	H	0.302557	-0.443965	0.579505
H591	H	0.635891	-0.110631	0.912838
H592	H	-0.031214	-0.733760	0.299047
H593	H	0.302119	-0.400427	0.632380
H594	H	0.635453	-0.067094	0.965713
H595	H	0.012764	-0.777698	0.299042
H596	H	0.346098	-0.444365	0.632375
H597	H	0.679431	-0.111031	0.965708
C598	C	-0.046540	-0.793052	0.433262
C599	C	0.286793	-0.459719	0.766596
C600	C	0.620127	-0.126386	1.099929
H601	H	-0.069723	-0.816240	0.461316
H602	H	0.263610	-0.482907	0.794649
H603	H	0.596943	-0.149574	1.127983
H604	H	-0.026180	-0.816645	0.408444
H605	H	0.307153	-0.483311	0.741778
H606	H	0.640487	-0.149978	1.075111
H607	H	-0.070147	-0.772695	0.408455
H608	H	0.263187	-0.439362	0.741789
H609	H	0.596520	-0.106029	1.075122
H610	H	0.003493	-0.743006	0.850339
H611	H	0.336827	-0.409673	1.183673
H612	H	0.670160	-0.076340	1.517006
C613	C	0.155853	-0.590559	0.859436
C614	C	0.489187	-0.257226	1.192770
C615	C	0.822520	0.076107	1.526103
H616	H	0.179030	-0.567362	0.831385
H617	H	0.512363	-0.234029	1.164718
H618	H	0.845696	0.099305	1.498051
H619	H	0.179459	-0.610904	0.884252
H620	H	0.512793	-0.277570	1.217585
H621	H	0.846126	0.055763	1.550919
H622	H	0.135479	-0.566968	0.884246
H623	H	0.468812	-0.233635	1.217579
H624	H	0.802145	0.099699	1.550913
H625	H	0.183658	-0.562708	0.557755
H626	H	0.516992	-0.229375	0.891089
H627	H	0.850325	0.103958	1.224422
