data_functionalizedCrystal
_audit_creation_method	'MofGen! by Chris Wilmer'
_symmetry_space_group_name_H-M	'P1'
_symmetry_Int_Tables_number	1
_symmetry_cell_setting	triclinic
loop_
_symmetry_equiv_pos_as_xyz
  x,y,z
_cell_length_a	27.732048
_cell_length_b	14.044220
_cell_length_c	13.101039
_cell_angle_alpha	86.332523
_cell_angle_beta	86.675896
_cell_angle_gamma	92.084234
loop_
_atom_site_label
_atom_site_type_symbol
_atom_site_fract_x
_atom_site_fract_y
_atom_site_fract_z
O1	O	0.648645	-0.107455	-0.085084
O2	O	0.508657	-0.124591	-0.085115
O3	O	0.576549	0.021930	-0.085090
O4	O	0.580752	-0.253976	-0.085109
O5	O	0.571679	0.011400	0.085338
O6	O	0.503786	-0.135121	0.085313
O7	O	0.643774	-0.117985	0.085344
Zn8	Zn	0.573007	-0.128225	0.112388
Zn9	Zn	0.579424	-0.114351	-0.112159
O10	O	0.575882	-0.264506	0.085319
C11	C	0.488198	-0.129496	0.000095
C12	C	0.434492	-0.128412	0.000083
C13	C	0.099419	-0.208180	0.000122
C14	C	-0.102429	-0.204161	0.000132
O15	O	-0.130263	-0.277104	0.000171
N16	N	-0.125630	-0.117280	0.000136
C17	C	-0.098366	-0.031397	0.000144
O18	O	-0.122732	0.042593	0.000159
C19	C	0.103481	-0.035417	0.000142
C20	C	0.126680	-0.122304	0.000128
C21	C	0.122618	-0.295060	0.000109
C22	C	0.173077	-0.296063	0.000101
C23	C	0.200338	-0.210187	0.000106
C24	C	0.177139	-0.123307	0.000120
C25	C	0.130744	0.050464	0.000158
C26	C	0.181209	0.049452	0.000160
C27	C	0.204407	-0.037435	0.000146
C28	C	0.254859	-0.038434	0.000117
N29	N	0.278060	-0.125316	0.000113
C30	C	0.250799	-0.211192	0.000108
C31	C	-0.204339	-0.029292	0.000143
C32	C	-0.254801	-0.028287	0.000142
C33	C	-0.258860	-0.201052	0.000131
C34	C	-0.208397	-0.202056	0.000125
C35	C	-0.181138	-0.116174	0.000139
C36	C	0.356768	-0.213293	0.000090
C37	C	0.407232	-0.214288	0.000078
C38	C	0.411287	-0.041524	0.000094
C39	C	0.360827	-0.040528	0.000101
C40	C	0.333569	-0.126420	0.000102
O41	O	0.282722	0.034469	0.000090
O42	O	0.275174	-0.285173	0.000116
C43	C	0.048960	-0.207177	0.000130
C44	C	0.025761	-0.120297	0.000144
C45	C	0.053022	-0.034420	0.000149
C46	C	-0.024700	-0.119291	0.000142
C47	C	-0.051961	-0.205168	0.000137
C48	C	-0.028760	-0.292050	0.000132
C49	C	0.021700	-0.293053	0.000124
C50	C	0.029821	0.052461	0.000153
C51	C	-0.020639	0.053458	0.000160
C52	C	-0.047899	-0.032419	0.000155
C53	C	0.572274	0.051953	0.000124
C54	C	0.566787	0.157098	0.000124
C55	C	0.664233	-0.113080	0.000132
C56	C	0.717939	-0.114163	0.000137
C57	C	0.580157	-0.294528	0.000103
C58	C	0.585644	-0.399673	0.000096
N59	N	0.568631	-0.137693	0.265634
C60	C	0.556756	0.349614	0.000107
C61	C	0.595673	0.407817	0.000113
C62	C	0.590091	0.514939	0.000103
C63	C	0.562337	0.242481	0.000117
N64	N	0.583803	-0.104876	-0.265406
C65	C	0.562678	-0.150583	0.474675
C66	C	0.589755	-0.091989	0.525561
C67	C	0.586443	-0.099161	0.641878
C68	C	0.565990	-0.143412	0.358347
H69	H	0.426118	-0.285045	0.000065
C70	C	0.620864	-0.024022	0.360994
C71	C	0.624297	-0.016795	0.466451
H72	H	0.642156	0.022454	0.324501
H73	H	0.588628	-0.013433	0.343604
H74	H	0.629487	-0.085988	0.343355
H75	H	0.615670	0.045169	0.484090
H76	H	0.656540	-0.027377	0.483847
H77	H	0.519250	0.380234	0.000096
H78	H	0.537010	-0.206130	0.518462
H79	H	0.334580	-0.283235	0.000094
C80	C	0.078576	-0.389014	-0.087516
C81	C	0.047192	-0.388566	0.000103
H82	H	0.094308	-0.447987	-0.087532
H83	H	0.102039	-0.338032	-0.087502
H84	H	0.060663	-0.381342	-0.146936
H85	H	0.065105	-0.396231	0.059523
H86	H	0.023726	-0.439562	0.000099
C87	C	-0.205406	0.141580	0.000144
C88	C	-0.174379	0.065119	0.000147
H89	H	-0.186910	0.199865	0.000137
H90	H	-0.226866	0.134705	0.059573
H91	H	-0.223478	0.142032	-0.059292
H92	H	-0.156309	0.064663	0.059587
H93	H	-0.152911	0.071997	-0.059288
H94	H	0.203401	0.119389	0.000173
C95	C	0.163980	-0.466728	0.000108
C96	C	0.198572	-0.391574	0.000103
H97	H	0.179718	-0.525695	0.000119
H98	H	0.146081	-0.459071	-0.059323
H99	H	0.142686	-0.466394	0.059542
H100	H	0.219865	-0.391904	-0.059335
H101	H	0.216479	-0.399233	0.059539
C102	C	0.139846	0.221124	0.000208
C103	C	0.105253	0.145974	0.000189
H104	H	0.124108	0.280090	0.000237
H105	H	0.161134	0.220815	-0.059226
H106	H	0.157751	0.213440	0.059639
H107	H	0.087350	0.153655	-0.059245
H108	H	0.083956	0.146285	0.059630
C109	C	-0.096186	0.131734	0.000175
C110	C	-0.046136	0.148973	0.000170
H111	H	-0.111924	0.190700	0.000180
H112	H	-0.106982	0.092740	0.059600
H113	H	-0.103594	0.100082	-0.059265
H114	H	-0.038727	0.180618	0.059613
H115	H	-0.035336	0.187982	-0.059262
C116	C	-0.217490	-0.372721	0.000115
C117	C	-0.182900	-0.297564	0.000121
H118	H	-0.201751	-0.431686	0.000121
H119	H	-0.235389	-0.365061	-0.059316
H120	H	-0.238786	-0.372395	0.059549
H121	H	-0.161607	-0.297886	-0.059317
H122	H	-0.164994	-0.305227	0.059558
H123	H	0.100428	-0.364995	0.000108
H124	H	-0.273684	0.042466	0.000138
C125	C	-0.338021	-0.276208	0.000137
C126	C	-0.288832	-0.295450	0.000132
H127	H	-0.356525	-0.334484	0.000148
H128	H	-0.343756	-0.236891	-0.059294
H129	H	-0.347143	-0.244212	0.059571
H130	H	-0.279709	-0.327440	-0.059306
H131	H	-0.283094	-0.334783	0.059569
H132	H	0.341938	0.030223	0.000098
H133	H	-0.050964	-0.361973	0.000124
C134	C	0.490447	0.033627	0.000110
C135	C	0.441258	0.052868	0.000109
H136	H	0.508950	0.091901	0.000131
H137	H	0.499574	0.001656	-0.059327
H138	H	0.496179	-0.005714	0.059538
H139	H	0.435526	0.092203	-0.059323
H140	H	0.432128	0.084854	0.059552
C141	C	0.642112	0.266825	0.000152
C142	C	0.646310	0.366485	0.000140
H143	H	0.673372	0.241307	0.000177
H144	H	0.626765	0.249452	-0.059283
H145	H	0.623356	0.242129	0.059581
H146	H	0.665063	0.391182	-0.059294
H147	H	0.661664	0.383866	0.059581
H148	H	0.052011	0.122394	0.000160
