data_functionalizedCrystal
_audit_creation_method	'MofGen! by Chris Wilmer'
_symmetry_space_group_name_H-M	'P1'
_symmetry_Int_Tables_number	1
_symmetry_cell_setting	triclinic
loop_
_symmetry_equiv_pos_as_xyz
  x,y,z
_cell_length_a	12.837942
_cell_length_b	15.944545
_cell_length_c	11.892113
_cell_angle_alpha	94.364702
_cell_angle_beta	93.960375
_cell_angle_gamma	89.162556
loop_
_atom_site_label
_atom_site_type_symbol
_atom_site_fract_x
_atom_site_fract_y
_atom_site_fract_z
O1	O	0.139572	1.130480	0.093929
O2	O	0.156064	0.887250	0.093947
O3	O	-0.003085	1.003471	0.093932
O4	O	0.298721	1.014259	0.093945
O5	O	-0.014915	0.992931	-0.094075
O6	O	0.144234	0.876710	-0.094060
O7	O	0.127743	1.119940	-0.094078
Zn8	Zn	0.134110	0.996652	-0.123919
Zn9	Zn	0.149696	1.010538	0.123788
O10	O	0.286892	1.003719	-0.094062
C11	C	0.149465	0.850631	-0.000054
C12	C	0.147417	0.757221	-0.000047
C13	C	-0.047621	0.994557	-0.000071
C14	C	-0.162698	0.983689	-0.000068
C15	C	0.042646	0.478207	-0.000064
C16	C	0.087325	0.527632	-0.092762
C17	C	0.140109	0.420992	-0.000067
C18	C	0.099014	0.538006	0.092599
C19	C	0.143694	0.586193	-0.000055
C20	C	0.184757	0.469183	-0.092841
C21	C	0.196437	0.479557	0.092602
C22	C	0.241186	0.528954	-0.000118
C23	C	0.138041	0.325824	-0.000074
C24	C	0.145770	0.681358	-0.000056
C25	C	-0.403650	1.114343	-0.000055
C26	C	-0.511777	1.104136	-0.000052
C27	C	-0.487078	0.953069	-0.000052
C28	C	-0.378952	0.963276	-0.000055
C29	C	-0.337243	1.043916	-0.000058
C30	C	-0.229115	1.054122	-0.000069
C31	C	-0.204418	0.903056	-0.000061
C32	C	-0.312544	0.892849	-0.000058
C33	C	0.331427	1.012633	-0.000057
C34	C	0.446505	1.023501	-0.000052
C35	C	0.134341	1.156559	-0.000074
C36	C	0.136390	1.249969	-0.000074
N37	N	0.123472	0.987180	-0.292973
C38	C	0.234400	1.085916	-0.529624
C39	C	0.226955	1.079302	-0.647965
C40	C	0.101134	0.967342	-0.648000
C41	C	0.108578	0.973956	-0.529658
C42	C	0.175215	1.033244	-0.470474
C43	C	0.182664	1.039854	-0.352131
C44	C	0.056838	0.927899	-0.352167
C45	C	0.049393	0.921284	-0.470509
N46	N	0.160326	1.020016	0.292842
H47	H	-0.041295	0.455834	-0.000157
H48	H	-0.150337	0.845708	-0.000072
C49	C	0.027838	0.902131	-0.713123
N50	N	-0.027366	0.853011	-0.762175
H51	H	-0.369691	1.180002	-0.000068
C52	C	0.354660	0.558965	-0.000188
N53	N	0.440126	0.581572	-0.000247
C54	C	-0.023898	0.856067	-0.535625
N55	N	-0.079099	0.806941	-0.584669
H56	H	0.220951	0.439266	-0.171294
H57	H	0.041233	0.548877	-0.171134
C58	C	0.258653	0.450824	0.198485
N59	N	0.305506	0.429181	0.278245
C60	C	0.292076	1.137236	-0.713026
N61	N	0.341131	1.180873	-0.762029
C62	C	0.050049	0.578554	0.198468
N63	N	0.013162	0.609091	0.278205
H64	H	0.236927	1.088126	-0.303945
C65	C	-0.532979	0.864371	-0.000060
N66	N	-0.567554	0.797563	-0.000074
H67	H	0.008650	0.885006	-0.303995
H68	H	0.288668	1.134183	-0.481435
H69	H	-0.195158	1.119782	-0.000075
H70	H	-0.565843	1.161485	-0.000046
H71	H	-0.346519	0.827194	-0.000052
