data_functionalizedCrystal
_audit_creation_method	'MofGen! by Chris Wilmer'
_symmetry_space_group_name_H-M	'P1'
_symmetry_Int_Tables_number	1
_symmetry_cell_setting	triclinic
loop_
_symmetry_equiv_pos_as_xyz
  x,y,z
_cell_length_a	8.559649
_cell_length_b	13.101039
_cell_length_c	8.559649
_cell_angle_alpha	87.109304
_cell_angle_beta	110.221336
_cell_angle_gamma	87.116543
loop_
_atom_site_label
_atom_site_type_symbol
_atom_site_fract_x
_atom_site_fract_y
_atom_site_fract_z
O1	O	-2.136905	0.085216	-0.065084
O2	O	-1.803571	0.418549	0.268249
O3	O	-1.470238	0.751882	0.601583
O4	O	-1.661420	0.085216	0.018697
O5	O	-1.328087	0.418549	0.352030
O6	O	-0.994753	0.751882	0.685364
O7	O	-1.941053	0.085215	-0.260936
O8	O	-1.607719	0.418548	0.072398
O9	O	-1.274386	0.751881	0.405731
O10	O	-1.857272	0.085217	0.214549
O11	O	-1.523939	0.418550	0.547882
O12	O	-1.190605	0.751883	0.881215
O13	O	-1.920986	-0.085215	-0.240843
O14	O	-1.587652	0.248118	0.092490
O15	O	-1.254319	0.581451	0.425824
O16	O	-1.641353	-0.085214	0.038790
O17	O	-1.308020	0.248119	0.372123
O18	O	-0.974686	0.581453	0.705457
O19	O	-2.116838	-0.085214	-0.044991
O20	O	-1.783504	0.248119	0.288342
O21	O	-1.450171	0.581452	0.621675
Zn22	Zn	-1.875909	-0.112273	0.000090
Zn23	Zn	-1.542576	0.221060	0.333423
Zn24	Zn	-1.209243	0.554393	0.666756
Zn25	Zn	-1.902348	0.112275	-0.026384
Zn26	Zn	-1.569015	0.445608	0.306950
Zn27	Zn	-1.235682	0.778942	0.640283
O28	O	-1.837205	-0.085213	0.234642
O29	O	-1.503872	0.248120	0.567975
O30	O	-1.170538	0.581454	0.901308
C31	C	-1.591077	0.000001	0.035093
C32	C	-1.257744	0.333334	0.368426
C33	C	-0.924411	0.666668	0.701759
C34	C	-1.411378	0.000001	0.053992
C35	C	-1.078045	0.333335	0.387325
C36	C	-0.744712	0.666668	0.720658
N37	N	-1.857877	-0.265522	0.018154
N38	N	-1.524544	0.067811	0.351488
N39	N	-1.191211	0.401145	0.684821
C40	C	-1.833342	-0.474564	0.042747
C41	C	-1.500009	-0.141231	0.376081
C42	C	-1.166675	0.192102	0.709414
C43	C	-1.944924	-0.525441	-0.069050
C44	C	-1.611591	-0.192107	0.264284
C45	C	-1.278257	0.141226	0.597617
C46	C	-1.931272	-0.641759	-0.055366
C47	C	-1.597939	-0.308426	0.277967
C48	C	-1.264606	0.024908	0.611301
C49	C	-1.846991	-0.358236	0.029066
C50	C	-1.513658	-0.024902	0.362399
C51	C	-1.180325	0.308431	0.695732
C52	C	-1.187180	0.000001	-0.061387
C53	C	-0.853847	0.333334	0.271946
C54	C	-0.520514	0.666668	0.605280
C55	C	-1.366880	0.000001	-0.080286
C56	C	-1.033546	0.333335	0.253047
C57	C	-0.700213	0.666668	0.586381
C58	C	-1.937369	0.000002	-0.311199
C59	C	-1.604035	0.333335	0.022135
C60	C	-1.270702	0.666668	0.355468
C61	C	-1.956269	0.000007	-0.490899
C62	C	-1.622935	0.333341	-0.157565
C63	C	-1.289602	0.666674	0.175768
N64	N	-1.920395	0.265524	-0.044463
N65	N	-1.587062	0.598857	0.288870
N66	N	-1.253728	0.932190	0.622204
C67	C	-1.840889	0.000002	0.284904
C68	C	-1.507556	0.333336	0.618238
C69	C	-1.174223	0.666669	0.951571
C70	C	-1.821990	0.000003	0.464603
C71	C	-1.488657	0.333337	0.797937
C72	C	-1.155324	0.666670	1.131270
H73	H	-1.311991	0.000007	0.183419
H74	H	-0.978657	0.333340	0.516752
H75	H	-0.645324	0.666673	0.850086
H76	H	-1.727569	-0.518361	0.148730
H77	H	-1.394236	-0.185028	0.482064
H78	H	-1.060903	0.148306	0.815397
C79	C	-1.647153	0.000013	-0.401155
C80	C	-1.313819	0.333346	-0.067822
C81	C	-0.980486	0.666680	0.265512
H82	H	-1.656960	0.000027	-0.293938
H83	H	-1.323627	0.333360	0.039395
H84	H	-0.990293	0.666694	0.372728
H85	H	-1.581313	-0.059418	-0.406327
H86	H	-1.247980	0.273915	-0.072994
H87	H	-0.914646	0.607249	0.260340
H88	H	-1.595330	0.059455	-0.420363
H89	H	-1.261997	0.392788	-0.087029
H90	H	-0.928663	0.726121	0.246304
H91	H	-2.085696	-0.000001	-0.590286
H92	H	-1.752362	0.333332	-0.256952
H93	H	-1.419029	0.666666	0.076381
H94	H	-1.466258	0.000007	-0.209706
H95	H	-1.132925	0.333340	0.123627
H96	H	-0.799592	0.666673	0.456961
H97	H	-2.050706	-0.481639	-0.175038
H98	H	-1.717372	-0.148305	0.158296
H99	H	-1.384039	0.185028	0.491629
