data_functionalizedCrystal
_audit_creation_method	'MofGen! by Chris Wilmer'
_symmetry_space_group_name_H-M	'P1'
_symmetry_Int_Tables_number	1
_symmetry_cell_setting	triclinic
loop_
_symmetry_equiv_pos_as_xyz
  x,y,z
_cell_length_a	19.188930
_cell_length_b	19.188930
_cell_length_c	10.268362
_cell_angle_alpha	90.006464
_cell_angle_beta	90.018480
_cell_angle_gamma	83.144779
loop_
_atom_site_label
_atom_site_type_symbol
_atom_site_fract_x
_atom_site_fract_y
_atom_site_fract_z
O1	O	0.926145	0.087164	0.108733
O2	O	0.722834	0.098898	0.108646
O3	O	0.830357	-0.008624	0.108667
O4	O	0.818623	0.194687	0.108713
O5	O	0.830347	-0.008621	-0.107934
O6	O	0.722824	0.098902	-0.107955
O7	O	0.926135	0.087168	-0.107867
Cu8	Cu	0.824478	0.093035	-0.127688
Cu9	Cu	0.824491	0.093031	0.128467
O10	O	0.818612	0.194691	-0.107888
C11	C	0.696818	0.098520	0.000334
C12	C	0.619313	0.097380	0.000300
C13	C	0.829972	-0.034634	0.000363
C14	C	0.828831	-0.112138	0.000351
C15	C	0.574389	0.160470	0.000334
C16	C	0.501566	0.159399	0.000349
C17	C	0.473669	0.095233	0.000354
C18	C	0.518603	0.032133	0.000312
C19	C	0.591425	0.033207	0.000285
N20	N	0.365692	0.046184	0.074114
N21	N	0.296514	0.045169	0.074143
C22	C	0.254260	0.091994	0.000433
N23	N	0.283798	0.139884	-0.073290
N24	N	0.352982	0.140902	-0.073313
C25	C	0.394707	0.094062	0.000383
C26	C	0.130372	0.153928	0.000481
C27	C	0.057547	0.152853	0.000487
C28	C	0.074586	0.025586	0.000464
C29	C	0.147409	0.026662	0.000445
C30	C	0.175298	0.090835	0.000460
C31	C	0.891922	-0.157062	0.000372
C32	C	0.890850	-0.229886	0.000392
C33	C	0.826684	-0.257782	0.000366
C34	C	0.763585	-0.212849	0.000352
C35	C	0.764658	-0.140026	0.000345
N36	N	0.777633	-0.365786	-0.073369
N37	N	0.776618	-0.434965	-0.073365
C38	C	0.823446	-0.477191	0.000391
N39	N	0.871339	-0.447627	0.074125
N40	N	0.872356	-0.378442	0.074115
C41	C	0.825513	-0.336745	0.000374
C42	C	0.885379	-0.601079	0.000435
C43	C	0.884305	-0.673904	0.000464
C44	C	0.757038	-0.656865	0.000411
C45	C	0.758114	-0.584042	0.000395
C46	C	0.822286	-0.556154	0.000401
C47	C	0.952151	0.087546	0.000448
C48	C	1.029656	0.088687	0.000490
C49	C	0.818997	0.220700	0.000419
C50	C	0.820138	0.298204	0.000439
N51	N	0.824475	0.093038	-0.307854
C52	C	0.824480	0.093038	-0.425696
C53	C	0.824489	0.093032	-0.573534
N54	N	0.824500	0.093023	0.308633
H55	H	0.597091	0.212725	0.000349
H56	H	0.713281	-0.103449	0.000327
O57	O	0.157504	0.216243	0.000705
C58	C	0.199161	0.220667	0.112853
H59	H	0.182069	0.184239	0.191268
H60	H	0.192467	0.276959	0.150508
H61	H	0.256633	0.204382	0.087472
O62	O	0.952120	-0.273565	0.000634
C63	C	0.955310	-0.316205	0.112797
H64	H	0.919537	-0.289419	0.191200
H65	H	1.011581	-0.324569	0.150458
H66	H	0.937393	-0.369106	0.087432
H67	H	0.628003	-0.018171	0.000257
H68	H	0.944176	-0.134360	0.000381
H69	H	0.020970	0.204232	0.000508
O70	O	0.696845	-0.540371	0.000591
C71	C	0.693670	-0.497716	0.112748
H72	H	0.729460	-0.524488	0.191172
H73	H	0.637406	-0.489354	0.150380
H74	H	0.711577	-0.444816	0.087387
H75	H	0.051874	-0.026659	0.000549
H76	H	0.464982	0.210776	0.000373
O77	O	0.190953	-0.034689	0.000483
C78	C	0.150718	-0.091556	0.000457
H79	H	0.096322	-0.073668	0.041487
H80	H	0.177734	-0.135749	0.063326
H81	H	0.145564	-0.111234	-0.103458
O82	O	0.701298	-0.240027	0.000498
C83	C	0.696869	-0.281619	0.112693
H84	H	0.751958	-0.299921	0.150113
H85	H	0.669183	-0.329225	0.087456
H86	H	0.665886	-0.249346	0.191233
O87	O	0.947774	-0.574099	0.000522
C88	C	1.003232	-0.629371	0.000531
H89	H	0.983812	-0.678780	0.041532
H90	H	1.048045	-0.614282	0.063442
H91	H	1.022685	-0.639745	-0.103370
O92	O	0.694688	-0.683921	0.000617
C93	C	0.656239	-0.660917	0.112762
H94	H	0.693770	-0.645875	0.191180
H95	H	0.626670	-0.704939	0.150413
H96	H	0.617186	-0.613337	0.087377
H97	H	0.935683	-0.710481	0.000488
H98	H	0.495885	-0.020111	0.000334
