data_functionalizedCrystal
_audit_creation_method	'MofGen! by Chris Wilmer'
_symmetry_space_group_name_H-M	'P1'
_symmetry_Int_Tables_number	1
_symmetry_cell_setting	triclinic
loop_
_symmetry_equiv_pos_as_xyz
  x,y,z
_cell_length_a	25.639243
_cell_length_b	25.639240
_cell_length_c	25.639233
_cell_angle_alpha	89.974071
_cell_angle_beta	89.984038
_cell_angle_gamma	90.035481
loop_
_atom_site_label
_atom_site_type_symbol
_atom_site_fract_x
_atom_site_fract_y
_atom_site_fract_z
Zn1	Zn	0.799247	-0.208176	-0.295630
Zn2	Zn	0.799179	-0.295595	-0.208183
Zn3	Zn	0.711823	-0.208180	-0.208203
Zn4	Zn	0.711777	-0.295587	-0.295582
O5	O	0.755506	-0.251885	-0.251900
O6	O	0.872403	-0.219775	-0.284041
O7	O	0.787582	-0.284004	-0.135020
O8	O	0.723467	-0.135014	-0.219829
O9	O	0.872353	-0.284001	-0.219794
O10	O	0.787697	-0.135012	-0.284061
O11	O	0.723402	-0.219781	-0.135035
O12	O	0.638652	-0.219772	-0.219783
O13	O	0.723389	-0.283987	-0.368754
O14	O	0.638618	-0.283990	-0.283980
O15	O	0.787653	-0.219767	-0.368789
O16	O	0.787538	-0.368759	-0.219749
O17	O	0.723324	-0.368753	-0.283960
C18	C	0.619664	-0.251881	-0.251879
C19	C	0.561550	-0.251892	-0.251882
C20	C	0.201207	-0.218495	-0.285409
C21	C	0.146603	-0.218494	-0.285412
O22	O	0.118383	-0.190088	-0.313891
N23	N	0.119267	-0.251883	-0.251914
C24	C	0.146539	-0.285271	-0.218407
O25	O	0.118274	-0.313670	-0.189914
C26	C	0.201142	-0.285268	-0.218401
C27	C	0.228475	-0.251881	-0.251905
C28	C	0.228540	-0.185109	-0.318909
C29	C	0.283140	-0.185111	-0.318907
C30	C	0.310408	-0.218497	-0.285403
C31	C	0.283076	-0.251882	-0.251903
C32	C	0.228413	-0.318653	-0.184892
C33	C	0.283020	-0.318647	-0.184889
C34	C	0.310353	-0.285260	-0.218393
C35	C	0.364944	-0.285270	-0.218396
N36	N	0.392279	-0.251881	-0.251894
C37	C	0.365011	-0.218494	-0.285398
C38	C	0.031869	-0.285273	-0.218420
C39	C	-0.022734	-0.285279	-0.218428
C40	C	-0.022667	-0.218501	-0.285432
C41	C	0.031937	-0.218498	-0.285427
C42	C	0.059204	-0.251884	-0.251918
C43	C	0.479676	-0.218500	-0.285390
C44	C	0.534282	-0.218506	-0.285386
C45	C	0.534210	-0.285281	-0.218380
C46	C	0.479609	-0.285278	-0.218385
C47	C	0.452344	-0.251883	-0.251892
O48	O	0.393198	-0.313659	-0.189930
O49	O	0.393283	-0.190095	-0.313881
C50	C	0.755433	-0.387727	-0.251859
C51	C	0.755449	-0.445841	-0.251859
C52	C	0.788967	-0.806164	-0.285405
C53	C	0.788983	-0.860769	-0.285416
O54	O	0.817394	-0.888972	-0.313897
N55	N	0.755579	-0.888124	-0.251950
C56	C	0.722154	-0.860871	-0.218475
O57	O	0.693742	-0.889153	-0.190011
C58	C	0.722136	-0.806268	-0.218467
C59	C	0.755546	-0.778916	-0.251932
C60	C	0.822374	-0.778812	-0.318867
C61	C	0.822359	-0.724212	-0.318856
C62	C	0.788938	-0.696963	-0.285383
C63	C	0.755531	-0.724315	-0.251920
C64	C	0.688708	-0.779017	-0.184996
C65	C	0.688693	-0.724410	-0.184991
C66	C	0.722103	-0.697058	-0.218455
C67	C	0.722095	-0.642466	-0.218435
N68	N	0.755499	-0.615112	-0.251901
C69	C	0.788920	-0.642360	-0.285375
C70	C	0.722193	-0.975542	-0.218494
C71	C	0.722213	-1.030144	-0.218499
C72	C	0.789041	-1.030038	-0.285441
C73	C	0.789024	-0.975435	-0.285433
C74	C	0.755597	-0.948187	-0.251960
C75	C	0.788887	-0.527695	-0.285348
C76	C	0.788870	-0.473090	-0.285332
C77	C	0.722040	-0.473201	-0.218392
C78	C	0.722058	-0.527801	-0.218406
C79	C	0.755483	-0.555047	-0.251888
O80	O	0.693697	-0.614229	-0.189971
O81	O	0.817322	-0.614072	-0.313839
C82	C	0.891879	-0.251888	-0.251921
C83	C	0.949993	-0.251890	-0.251930
C84	C	0.755523	-0.251875	-0.388273
C85	C	0.755530	-0.251871	-0.446387
C86	C	0.755595	-0.115511	-0.251952
C87	C	0.755633	-0.057397	-0.251975
C88	C	0.789035	-0.218333	-0.806774
C89	C	0.789041	-0.218318	-0.861378
O90	O	0.817486	-0.189864	-0.889635
N91	N	0.755588	-0.251749	-0.888669
C92	C	0.722122	-0.285192	-0.861354
O93	O	0.693668	-0.313626	-0.889581
C94	C	0.722114	-0.285204	-0.806750
C95	C	0.755573	-0.251775	-0.779462
C96	C	0.822491	-0.184906	-0.779485
C97	C	0.822485	-0.184921	-0.724884
C98	C	0.789023	-0.218363	-0.697572
C99	C	0.755567	-0.251790	-0.724861
C100	C	0.688646	-0.318644	-0.779436
C101	C	0.688640	-0.318653	-0.724828
C102	C	0.722099	-0.285223	-0.697540
C103	C	0.722099	-0.285247	-0.642949
N104	N	0.755552	-0.251817	-0.615657
C105	C	0.789014	-0.218375	-0.642969
C106	C	0.722143	-0.285165	-0.976024
C107	C	0.722154	-0.285157	-1.030627
C108	C	0.789072	-0.218282	-1.030647
C109	C	0.789063	-0.218293	-0.976044
C110	C	0.755596	-0.251735	-0.948733
C111	C	0.789000	-0.218410	-0.528304
C112	C	0.788992	-0.218429	-0.473699
C113	C	0.722072	-0.285302	-0.473683
C114	C	0.722081	-0.285285	-0.528283
C115	C	0.755547	-0.251834	-0.555593
O116	O	0.693668	-0.313686	-0.614657
O117	O	0.817459	-0.189941	-0.614735
C118	C	0.755520	-0.251856	-0.116057
C119	C	0.755614	-0.251713	-0.057943
H120	H	0.305389	-0.157922	-0.346188
C121	C	0.858650	-0.694614	-0.355250
C122	C	0.887909	-0.730174	-0.384573
C123	C	0.921341	-0.702931	-0.418112
H124	H	0.881488	-0.673302	-0.335331
H125	H	0.838640	-0.673330	-0.378038
H126	H	0.907917	-0.751449	-0.361788
H127	H	0.865085	-0.751486	-0.404503
H128	H	0.901331	-0.681647	-0.440901
H129	H	0.944175	-0.681621	-0.398189
H130	H	0.941193	-0.727054	-0.438015
H131	H	0.694830	-0.312531	-0.451436
H132	H	0.694830	-0.451006	-0.191137
H133	H	0.816241	-0.191207	-0.451483
H134	H	0.849730	-0.157699	-0.702671
H135	H	0.556534	-0.191317	-0.312670
H136	H	0.457354	-0.312470	-0.191110
H137	H	0.816254	-1.052233	-0.312698
C138	C	0.450174	-0.182227	-0.321829
C139	C	0.485806	-0.153004	-0.351174
C140	C	0.458648	-0.119593	-0.384754
H141	H	0.428878	-0.159366	-0.301939
H142	H	0.428881	-0.202250	-0.344602
H143	H	0.507090	-0.132983	-0.328404
H144	H	0.507104	-0.175852	-0.371075
H145	H	0.437356	-0.139617	-0.407527
H146	H	0.437353	-0.096735	-0.364860
H147	H	0.482821	-0.099765	-0.404672
C148	C	0.199035	-0.148840	-0.355347
C149	C	0.234669	-0.119616	-0.384689
C150	C	0.207513	-0.086205	-0.418271
H151	H	0.177736	-0.125979	-0.335458
H152	H	0.177744	-0.168864	-0.378122
H153	H	0.255950	-0.099594	-0.361917
H154	H	0.255969	-0.142463	-0.404588
H155	H	0.186223	-0.106229	-0.441046
H156	H	0.186215	-0.063348	-0.398378
H157	H	0.231686	-0.066376	-0.438187
C158	C	0.685854	-1.059808	-0.182226
C159	C	0.634113	-1.046570	-0.193569
C160	C	0.600602	-1.073889	-0.160171
H161	H	0.693459	-1.050896	-0.147084
H162	H	0.690610	-1.096237	-0.187027
H163	H	0.629360	-1.010150	-0.188764
H164	H	0.626492	-1.055484	-0.228705
H165	H	0.605357	-1.110317	-0.164972
H166	H	0.608211	-1.064974	-0.125032
H167	H	0.565492	-1.064914	-0.167866
H168	H	0.849590	-0.800992	-0.346129
H169	H	0.816249	-0.191169	-0.550533
H170	H	0.054187	-0.191310	-0.312708
C171	C	-0.052473	-0.321449	-0.182027
C172	C	-0.083824	-0.291799	-0.148581
C173	C	-0.111230	-0.325100	-0.115043
H174	H	-0.028469	-0.341344	-0.162026
H175	H	-0.073811	-0.344252	-0.201970
H176	H	-0.062487	-0.269005	-0.128640
H177	H	-0.107837	-0.271905	-0.168568
H178	H	-0.132568	-0.347904	-0.134986
H179	H	-0.087222	-0.344994	-0.095045
H180	H	-0.132508	-0.304989	-0.092349
C181	C	0.825312	-0.945835	-0.321828
C182	C	0.854574	-0.981392	-0.351150
C183	C	0.888003	-0.954147	-0.384691
H184	H	0.848148	-0.924520	-0.301909
H185	H	0.805300	-0.924553	-0.344617
H186	H	0.874585	-1.002664	-0.328365
H187	H	0.831752	-1.002708	-0.371080
H188	H	0.867991	-0.932866	-0.407479
H189	H	0.910835	-0.932833	-0.364768
H190	H	0.907857	-0.978268	-0.404593
H191	H	-0.044878	-0.191315	-0.312711
C192	C	0.061376	-0.321587	-0.182023
C193	C	0.025745	-0.350835	-0.152702
C194	C	0.052905	-0.384297	-0.119174
H195	H	0.082683	-0.301615	-0.159229
H196	H	0.082658	-0.344426	-0.201966
H197	H	0.004472	-0.327999	-0.132761
H198	H	0.004437	-0.370818	-0.175483
H199	H	0.074187	-0.407136	-0.139117
H200	H	0.074211	-0.364321	-0.096383
H201	H	0.028733	-0.404149	-0.099279
C202	C	0.198842	-0.354919	-0.148454
C203	C	0.234420	-0.384139	-0.119104
C204	C	0.207199	-0.417548	-0.085523
H205	H	0.177530	-0.377782	-0.168345
H206	H	0.177559	-0.334894	-0.125685
H207	H	0.255693	-0.404162	-0.141870
H208	H	0.255732	-0.361290	-0.099203
H209	H	0.185916	-0.397523	-0.062754
H210	H	0.185888	-0.440408	-0.105418
H211	H	0.231334	-0.437374	-0.065602
H212	H	0.661471	-0.702227	-0.157734
H213	H	0.816101	-0.549872	-0.312616
H214	H	0.305218	-0.345834	-0.157601
C215	C	0.858884	-0.148576	-0.809038
C216	C	0.888186	-0.119319	-0.773442
C217	C	0.921727	-0.085852	-0.800642
H218	H	0.838967	-0.125739	-0.830345
H219	H	0.881686	-0.168561	-0.830323
H220	H	0.865387	-0.099335	-0.752166
H221	H	0.908113	-0.142142	-0.752133
H222	H	0.944529	-0.105837	-0.821927
H223	H	0.901806	-0.063019	-0.821948
H224	H	0.941615	-0.066001	-0.776495
H225	H	0.694974	-0.953360	-0.191232
H226	H	0.816308	-0.191071	-0.953829
H227	H	0.661503	-0.801277	-0.157745
H228	H	0.694857	-0.550072	-0.191153
C229	C	0.825339	-0.181985	-1.060401
C230	C	0.818169	-0.189120	-1.114060
C231	C	0.851560	-0.155688	-1.141486
H232	H	0.860487	-0.189599	-1.051525
H233	H	0.817698	-0.146847	-1.051488
H234	H	0.825813	-0.224250	-1.122969
H235	H	0.783028	-0.181502	-1.122952
H236	H	0.843919	-0.120551	-1.132574
H237	H	0.886706	-0.163306	-1.132606
H238	H	0.846696	-0.160522	-1.177897
C239	C	0.685773	-0.321476	-1.060156
C240	C	0.656461	-0.350755	-1.024544
C241	C	0.622934	-0.384211	-1.051725
H242	H	0.705701	-0.344300	-1.081458
H243	H	0.662977	-0.301482	-1.081445
H244	H	0.679254	-0.370747	-1.003264
H245	H	0.636523	-0.327945	-1.003241
H246	H	0.600138	-0.364217	-1.073014
H247	H	0.642866	-0.407031	-1.073026
H248	H	0.603039	-0.404077	-1.027566
H249	H	0.661400	-0.345866	-0.801645
H250	H	0.694889	-0.312400	-0.953791
H251	H	0.661380	-0.345880	-0.702595
C252	C	0.563916	-0.321469	-0.182024
C253	C	0.617584	-0.314308	-0.189185
C254	C	0.644967	-0.347627	-0.155695
H255	H	0.555016	-0.356633	-0.189569
H256	H	0.554991	-0.313756	-0.146899
H257	H	0.626505	-0.322024	-0.224302
H258	H	0.626500	-0.279150	-0.181635
H259	H	0.636042	-0.339914	-0.120570
H260	H	0.636062	-0.382789	-0.163243
H261	H	0.681383	-0.342769	-0.160545
H262	H	0.816079	-0.450821	-0.312583
C263	C	0.685702	-0.321602	-0.557820
C264	C	0.656389	-0.350885	-0.522211
C265	C	0.622862	-0.384338	-0.549397
H266	H	0.705629	-0.344423	-0.579125
H267	H	0.662906	-0.301606	-0.579107
H268	H	0.679182	-0.370880	-0.500934
H269	H	0.636451	-0.328078	-0.500906
H270	H	0.600067	-0.364342	-0.570683
H271	H	0.642794	-0.407156	-0.570701
H272	H	0.602967	-0.404207	-0.525241
