data_functionalizedCrystal
_audit_creation_method	'MofGen! by Chris Wilmer'
_symmetry_space_group_name_H-M	'P1'
_symmetry_Int_Tables_number	1
_symmetry_cell_setting	triclinic
loop_
_symmetry_equiv_pos_as_xyz
  x,y,z
_cell_length_a	8.597213
_cell_length_b	9.482944
_cell_length_c	8.559648
_cell_angle_alpha	78.530290
_cell_angle_beta	102.373954
_cell_angle_gamma	107.918937
loop_
_atom_site_label
_atom_site_type_symbol
_atom_site_fract_x
_atom_site_fract_y
_atom_site_fract_z
O1	O	2.115126	0.385767	-0.309874
O2	O	1.646653	0.327090	-0.317209
O3	O	1.922168	0.361635	-0.082541
O4	O	1.839611	0.351223	-0.544542
O5	O	1.882917	0.114934	-0.036598
O6	O	1.607402	0.080389	-0.271266
O7	O	2.075875	0.139066	-0.263931
Cu8	Cu	1.838054	0.087202	-0.263403
Cu9	Cu	1.884474	0.378955	-0.317736
O10	O	1.800360	0.104522	-0.498599
C11	C	1.567608	0.196298	-0.290890
C12	C	1.390559	0.174124	-0.280899
N13	N	1.805417	-0.118000	-0.225188
C14	C	1.874836	-0.181518	-0.306463
C15	C	1.847696	-0.352329	-0.274652
C16	C	2.154921	0.269862	-0.290250
C17	C	2.331971	0.292045	-0.300243
C18	C	1.908800	0.239080	-0.000283
C19	C	1.927427	0.241450	0.176371
N20	N	1.917125	0.584158	-0.355940
C21	C	1.813735	0.227121	0.419135
C22	C	1.795130	0.224884	0.242457
H23	H	1.305260	0.056201	-0.256697
H24	H	1.417256	0.409960	-0.324462
H25	H	1.667616	0.208896	0.163889
H26	H	1.768172	-0.424400	-0.181509
C27	C	1.980705	-0.085633	-0.430876
C28	C	1.911337	-0.131294	-0.582495
C29	C	2.008831	-0.043016	-0.697141
H30	H	1.984920	0.016431	-0.435968
H31	H	2.089684	-0.096863	-0.400712
H32	H	1.802386	-0.120050	-0.612652
H33	H	1.907125	-0.233344	-0.577456
H34	H	2.117810	-0.054247	-0.666978
H35	H	2.013039	0.059043	-0.702219
H36	H	1.961787	-0.073994	-0.800025
H37	H	2.054946	0.257423	0.254950
C38	C	2.023460	-0.319794	-0.479917
C39	C	2.183961	-0.336545	-0.434938
C40	C	2.281964	-0.248073	-0.549093
H41	H	1.976829	-0.350463	-0.582982
H42	H	2.027720	-0.217734	-0.484777
H43	H	2.179695	-0.438584	-0.430096
H44	H	2.230641	-0.305866	-0.331892
H45	H	2.286224	-0.146012	-0.553953
H46	H	2.235318	-0.278749	-0.652151
H47	H	2.390878	-0.259415	-0.518583
C48	C	1.699364	-0.214352	-0.101124
C49	C	1.693178	-0.364661	-0.094534
C50	C	1.595478	-0.453461	0.019722
H51	H	1.746224	-0.183931	0.002017
H52	H	1.590406	-0.203068	-0.131252
H53	H	1.802115	-0.375938	-0.064397
H54	H	1.646303	-0.395128	-0.197646
H55	H	1.486519	-0.442177	-0.010406
H56	H	1.642348	-0.423027	0.122854
H57	H	1.591255	-0.555456	0.024198
