data_functionalizedCrystal
_audit_creation_method	'MofGen! by Chris Wilmer'
_symmetry_space_group_name_H-M	'P1'
_symmetry_Int_Tables_number	1
_symmetry_cell_setting	triclinic
loop_
_symmetry_equiv_pos_as_xyz
  x,y,z
_cell_length_a	14.971486
_cell_length_b	14.971486
_cell_length_c	13.448316
_cell_angle_alpha	89.993189
_cell_angle_beta	89.998199
_cell_angle_gamma	83.614129
loop_
_atom_site_label
_atom_site_type_symbol
_atom_site_fract_x
_atom_site_fract_y
_atom_site_fract_z
O1	O	1.186947	0.116565	-0.082578
O2	O	1.686947	0.616565	0.417422
O3	O	0.926547	0.130524	-0.082605
O4	O	1.426547	0.630524	0.417395
O5	O	1.063727	-0.006656	-0.082584
O6	O	1.563727	0.493344	0.417416
O7	O	1.049768	0.253744	-0.082599
O8	O	1.549768	0.753744	0.417401
O9	O	1.063709	-0.006664	0.082800
O10	O	1.563709	0.493336	0.582800
O11	O	0.926530	0.130515	0.082779
O12	O	1.426530	0.630515	0.582779
O13	O	1.186930	0.116556	0.082806
O14	O	1.686930	0.616556	0.582806
Cu15	Cu	1.056728	0.123535	0.097893
Cu16	Cu	1.556728	0.623535	0.597893
Cu17	Cu	1.056749	0.123545	-0.097692
Cu18	Cu	1.556749	0.623545	0.402308
O19	O	1.049751	0.253736	0.082784
O20	O	1.549751	0.753736	0.582784
C21	C	0.893214	0.129895	0.000083
C22	C	1.393214	0.629895	0.500083
C23	C	0.793917	0.128024	0.000073
C24	C	1.293917	0.628024	0.500073
C25	C	1.063094	-0.039985	0.000108
C26	C	1.563094	0.460015	0.500108
C27	C	1.061223	-0.139282	0.000107
C28	C	1.561223	0.360718	0.500107
C29	C	0.736692	0.208614	0.000070
C30	C	1.236692	0.708614	0.500070
C31	C	0.643392	0.206850	0.000085
C32	C	1.143392	0.706850	0.500085
C33	C	0.607320	0.124497	0.000096
C34	C	1.107320	0.624497	0.500096
C35	C	0.664552	0.043902	0.000102
C36	C	1.164552	0.543902	0.500102
C37	C	0.757850	0.045666	0.000095
C38	C	1.257850	0.545666	0.500095
C39	C	0.470090	0.040231	0.000116
C40	C	0.970090	0.540231	0.500116
C41	C	0.376786	0.038466	0.000122
C42	C	0.876786	0.538466	0.500122
C43	C	0.355632	0.201415	0.000106
C44	C	0.855632	0.701415	0.500106
C45	C	0.448930	0.203179	0.000099
C46	C	0.948930	0.703179	0.500099
C47	C	0.506156	0.122584	0.000103
C48	C	1.006156	0.622584	0.500103
C49	C	1.141812	-0.196507	0.000116
C50	C	1.641812	0.303493	0.500116
C51	C	1.140049	-0.289807	0.000106
C52	C	1.640049	0.210193	0.500106
C53	C	1.057696	-0.325879	0.000093
C54	C	1.557696	0.174121	0.500093
C55	C	0.977101	-0.268646	0.000081
C56	C	1.477101	0.231354	0.500081
C57	C	0.978865	-0.175349	0.000084
C58	C	1.478865	0.324651	0.500084
C59	C	0.973430	-0.463109	0.000077
C60	C	1.473430	0.036891	0.500077
C61	C	0.971665	-0.556413	0.000076
C62	C	1.471665	-0.056413	0.500076
C63	C	1.134614	-0.577567	0.000099
C64	C	1.634614	-0.077567	0.500099
C65	C	1.136378	-0.484269	0.000102
C66	C	1.636378	0.015731	0.500102
C67	C	1.055782	-0.427043	0.000091
C68	C	1.555782	0.072957	0.500091
C69	C	1.220263	0.117185	0.000115
C70	C	1.720263	0.617185	0.500115
C71	C	1.319561	0.119056	0.000119
C72	C	1.819561	0.619056	0.500119
C73	C	1.050384	0.287065	0.000091
C74	C	1.550384	0.787065	0.500091
C75	C	1.052254	0.386362	0.000085
C76	C	1.552254	0.886362	0.500085
N77	N	1.056721	0.123527	0.235457
N78	N	1.556721	0.623527	0.735457
N79	N	1.056764	0.123545	-0.235257
N80	N	1.556764	0.623545	0.264743
C81	C	1.117483	0.062809	0.287507
C82	C	1.617483	0.562809	0.787507
C83	C	1.117488	0.062809	0.391610
C84	C	1.617488	0.562809	0.891610
C85	C	1.056735	0.123531	0.443662
C86	C	1.556735	0.623531	0.943662
C87	C	0.995967	0.184252	0.391605
C88	C	1.495967	0.684252	0.891605
C89	C	0.995958	0.184248	0.287504
C90	C	1.495958	0.684248	0.787504
C91	C	0.995992	0.184258	0.608585
C92	C	1.495992	0.684258	1.108585
C93	C	0.996002	0.184264	0.712693
C94	C	1.496002	0.684264	1.212693
C95	C	1.117522	0.062819	0.712692
C96	C	1.617522	0.562819	1.212692
C97	C	1.117513	0.062815	0.608591
C98	C	1.617513	0.562815	1.108591
C99	C	1.056745	0.123537	0.556541
C100	C	1.556745	0.623537	1.056541
H101	H	0.766054	0.275675	0.000060
H102	H	1.266054	0.775675	0.500060
H103	H	0.478296	0.270239	0.000080
H104	H	0.978296	0.770239	0.500080
H105	H	1.205673	-0.336396	0.000115
H106	H	1.705673	0.163604	0.500115
C107	C	0.580448	0.295499	0.000078
C108	C	1.080448	0.795499	0.500078
H109	H	0.615294	0.344797	0.000057
H110	H	1.115294	0.844797	0.500057
H111	H	0.543616	0.298200	0.057754
H112	H	1.043616	0.798200	0.557754
H113	H	0.543610	0.298197	-0.057599
H114	H	1.043610	0.798197	0.442401
H115	H	0.516682	-0.025399	0.000121
H116	H	1.016682	0.474601	0.500121
C117	C	1.223268	-0.640511	0.000092
C118	C	1.723268	-0.140511	0.500092
H119	H	1.210425	-0.701242	0.000073
H120	H	1.710425	-0.201242	0.500073
H121	H	1.257031	-0.629582	0.057767
H122	H	1.757031	-0.129582	0.557767
H123	H	1.257032	-0.629553	-0.057586
H124	H	1.757032	-0.129553	0.442414
H125	H	0.804443	-0.019958	0.000097
H126	H	1.304443	0.480042	0.500097
H127	H	0.946530	0.233709	0.755069
H128	H	1.446530	0.733709	1.255069
C129	C	0.929112	0.251020	0.448854
C130	C	1.429112	0.751020	0.948854
H131	H	0.892909	0.287168	0.402942
H132	H	1.392909	0.787168	0.902942
H133	H	0.961299	0.288321	0.489468
H134	H	1.461299	0.788321	0.989468
H135	H	0.891860	0.218751	0.489459
H136	H	1.391860	0.718751	0.989459
H137	H	0.913240	-0.128756	0.000077
H138	H	1.413240	0.371244	0.500077
H139	H	0.910047	-0.298024	0.000065
H140	H	1.410047	0.201976	0.500065
H141	H	1.203437	-0.454903	0.000119
H142	H	1.703437	0.045097	0.500119
H143	H	0.946478	0.233689	0.245125
H144	H	1.446478	0.733689	0.745125
C145	C	0.881081	-0.596096	0.000059
C146	C	1.381081	-0.096096	0.500059
H147	H	0.891577	-0.659857	0.000071
H148	H	1.391577	-0.159857	0.500071
H149	H	0.847902	-0.576458	-0.057620
H150	H	1.347902	-0.076458	0.442380
H151	H	0.847886	-0.576465	0.057733
H152	H	1.347886	-0.076465	0.557733
H153	H	1.166958	0.013366	0.245134
H154	H	1.666958	0.513366	0.745134
C155	C	0.884776	-0.400162	0.000068
C156	C	1.384776	0.099838	0.500068
H157	H	0.835476	-0.435006	0.000070
H158	H	1.335476	0.064994	0.500070
H159	H	0.882081	-0.363318	-0.057603
H160	H	1.382081	0.136682	0.442397
H161	H	0.882074	-0.363336	0.057750
H162	H	1.382074	0.136664	0.557750
C163	C	0.337103	-0.052117	0.000148
C164	C	0.837103	0.447883	0.500148
H165	H	0.273342	-0.041622	0.000143
H166	H	0.773342	0.458378	0.500143
H167	H	0.356739	-0.085300	0.057828
H168	H	0.856739	0.414700	0.557828
H169	H	0.356735	-0.085310	-0.057525
H170	H	0.856735	0.414690	0.442475
H171	H	0.309033	0.267039	0.000107
H172	H	0.809033	0.767039	0.500107
H173	H	0.635175	-0.023152	0.000126
H174	H	1.135175	0.476848	0.500126
H175	H	1.208874	-0.167145	0.000132
H176	H	1.708874	0.332855	0.500132
H177	H	1.166964	0.013367	0.433989
H178	H	1.666964	0.513367	0.933989
H179	H	1.166987	0.013374	0.566210
H180	H	1.666987	0.513374	1.066210
C181	C	1.184358	-0.003981	0.769942
C182	C	1.684358	0.496019	1.269942
H183	H	1.175657	0.004707	0.839396
H184	H	1.675657	0.504707	1.339396
H185	H	1.244060	0.005830	0.752875
H186	H	1.744060	0.505830	1.252875
H187	H	1.174577	-0.063697	0.752888
H188	H	1.674577	0.436303	1.252888
H189	H	0.946505	0.233702	0.566209
H190	H	1.446505	0.733702	1.066209
