data_functionalizedCrystal
_audit_creation_method	'MofGen! by Chris Wilmer'
_symmetry_space_group_name_H-M	'P1'
_symmetry_Int_Tables_number	1
_symmetry_cell_setting	triclinic
loop_
_symmetry_equiv_pos_as_xyz
  x,y,z
_cell_length_a	15.944551
_cell_length_b	10.654541
_cell_length_c	9.130307
_cell_angle_alpha	89.998751
_cell_angle_beta	89.995755
_cell_angle_gamma	83.991333
loop_
_atom_site_label
_atom_site_type_symbol
_atom_site_fract_x
_atom_site_fract_y
_atom_site_fract_z
O1	O	0.117965	1.666312	-0.121794
O2	O	0.617965	2.166312	0.378206
O3	O	0.129208	1.300688	-0.121800
O4	O	0.629208	1.800688	0.378200
O5	O	0.001369	1.493485	-0.121784
O6	O	0.501369	1.993485	0.378216
O7	O	0.245804	1.473516	-0.121810
O8	O	0.745804	1.973516	0.378190
O9	O	0.001368	1.493478	0.121815
O10	O	0.501368	1.993478	0.621815
O11	O	0.129206	1.300682	0.121799
O12	O	0.629206	1.800682	0.621799
O13	O	0.117964	1.666306	0.121805
O14	O	0.617964	2.166306	0.621805
Cu15	Cu	0.123585	1.483493	0.144045
Cu16	Cu	0.623585	1.983493	0.644045
Cu17	Cu	0.123587	1.483501	-0.144039
Cu18	Cu	0.623587	1.983501	0.355961
O19	O	0.245802	1.473509	0.121789
O20	O	0.745802	1.973509	0.621789
C21	C	0.128382	1.253897	-0.000001
C22	C	0.628382	1.753897	0.499999
C23	C	0.125914	1.114486	-0.000002
C24	C	0.625914	1.614486	0.499998
C25	C	-0.029930	1.492652	0.000016
C26	C	0.470070	1.992652	0.500016
C27	C	-0.123190	1.490167	0.000017
C28	C	0.376810	1.990167	0.500017
C29	C	0.118790	1.713097	0.000002
C30	C	0.618790	2.213097	0.500002
C31	C	0.121258	1.852508	-0.000006
C32	C	0.621258	2.352508	0.499994
C33	C	-0.338772	1.364722	-0.000005
C34	C	0.161228	1.864722	0.499995
C35	C	-0.399453	1.422972	0.120105
C36	C	0.100547	1.922972	0.620105
C37	C	-0.293942	1.485671	0.000006
C38	C	0.206058	1.985671	0.500006
C39	C	-0.399435	1.423006	-0.120065
C40	C	0.100565	1.923006	0.379935
C41	C	-0.458880	1.481319	-0.000012
C42	C	0.041120	1.981319	0.499988
C43	C	-0.353395	1.543954	0.120215
C44	C	0.146605	2.043954	0.620215
C45	C	-0.353371	1.543971	-0.120063
C46	C	0.146629	2.043971	0.379937
C47	C	-0.414034	1.602309	0.000076
C48	C	0.085966	2.102309	0.500076
C49	C	-0.198925	1.488175	0.000017
C50	C	0.301075	1.988175	0.500017
C51	C	-0.553896	1.478825	-0.000012
C52	C	-0.053896	1.978825	0.499988
C53	C	0.277102	1.474342	-0.000014
C54	C	0.777102	1.974342	0.499986
C55	C	0.370362	1.476827	-0.000025
C56	C	0.870362	1.976827	0.499975
N57	N	0.123584	1.483497	0.346667
N58	N	0.623584	1.983497	0.846667
C59	C	-0.031607	1.882457	-0.000007
C60	C	0.468393	2.382457	0.499993
C61	C	-0.106876	1.962925	-0.000015
C62	C	0.393124	2.462925	0.499985
C63	C	-0.104552	2.093913	-0.000021
C64	C	0.395448	2.593913	0.499979
C65	C	-0.026950	2.144434	-0.000013
C66	C	0.473050	2.644434	0.499987
C67	C	0.048320	2.063966	-0.000005
C68	C	0.548320	2.563966	0.499995
C69	C	0.045987	1.932977	-0.000004
C70	C	0.545987	2.432977	0.499996
C71	C	0.201183	2.034018	0.000006
C72	C	0.701183	2.534018	0.500006
C73	C	0.198860	1.903029	0.000002
C74	C	0.698860	2.403029	0.500002
C75	C	0.278785	2.084539	0.000014
C76	C	0.778785	2.584539	0.500014
C77	C	0.354057	2.004070	0.000012
C78	C	0.854057	2.504070	0.500012
C79	C	0.351729	1.873075	0.000016
C80	C	0.851729	2.373075	0.500016
C81	C	0.274130	1.822561	0.000010
C82	C	0.774130	2.322561	0.500010
N83	N	0.123582	1.483507	-0.346662
N84	N	0.623582	1.983507	0.153338
C85	C	0.010416	1.654288	0.346671
C86	C	0.510416	2.154288	0.846671
C87	C	-0.046165	1.739692	0.423340
C88	C	0.453835	2.239692	0.923340
C89	C	-0.046166	1.739704	0.576674
C90	C	0.453834	2.239704	1.076674
C91	C	0.010420	1.654301	0.653342
C92	C	0.510420	2.154301	1.153342
C93	C	0.067001	1.568898	0.576673
C94	C	0.567001	2.068898	1.076673
C95	C	0.066997	1.568897	0.423336
C96	C	0.566997	2.068897	0.923336
C97	C	0.180163	1.398103	0.576669
C98	C	0.680163	1.898103	1.076669
C99	C	0.180169	1.398094	0.423336
C100	C	0.680169	1.898094	0.923336
C101	C	0.236748	1.312700	0.653337
C102	C	0.736748	1.812700	1.153337
C103	C	0.293335	1.227301	0.576668
C104	C	0.793335	1.727301	1.076668
C105	C	0.293334	1.227292	0.423326
C106	C	0.793334	1.727292	0.923326
C107	C	0.236750	1.312691	0.346667
C108	C	0.736750	1.812691	0.846667
H109	H	-0.306045	1.264329	0.000113
H110	H	0.193955	1.764329	0.500113
H111	H	0.010418	1.654297	0.221819
H112	H	0.510418	2.154297	0.721819
H113	H	-0.419858	1.371812	0.221647
H114	H	0.080142	1.871812	0.721647
H115	H	-0.092242	1.809243	0.639098
H116	H	0.407758	2.309243	1.139098
H117	H	0.236747	1.312696	0.221815
H118	H	0.736747	1.812696	0.721815
H119	H	-0.025064	2.251093	0.000000
H120	H	0.474936	2.751093	0.500000
H121	H	0.413023	1.807564	0.000033
H122	H	0.913023	2.307564	0.500033
H123	H	-0.033507	1.775801	-0.000018
H124	H	0.466493	2.275801	0.499982
H125	H	-0.165843	2.159431	-0.000024
H126	H	0.334157	2.659431	0.499976
H127	H	-0.333109	1.595064	0.221869
H128	H	0.166891	2.095064	0.721869
H129	H	-0.446611	1.702790	0.000146
H130	H	0.053389	2.202790	0.500146
H131	H	-0.170059	1.921776	0.000000
H132	H	0.329941	2.421776	0.500000
H133	H	-0.332944	1.595086	-0.221610
H134	H	0.167056	2.095086	0.278390
H135	H	0.280673	2.191197	0.000018
H136	H	0.780673	2.691197	0.500018
H137	H	0.417234	2.045216	0.000027
H138	H	0.917234	2.545216	0.500027
H139	H	-0.419808	1.371837	-0.221615
H140	H	0.080192	1.871837	0.278385
H141	H	0.272227	1.715906	0.000007
H142	H	0.772227	2.215906	0.500007
H143	H	0.010409	1.654307	0.778194
H144	H	0.510409	2.154307	1.278194
H145	H	-0.092238	1.809224	0.360904
H146	H	0.407762	2.309224	0.860904
H147	H	0.339399	1.157766	0.639101
H148	H	0.839399	1.657766	1.139101
H149	H	0.339406	1.157742	0.360910
H150	H	0.839406	1.657742	0.860910
H151	H	0.236742	1.312709	0.778189
H152	H	0.736742	1.812709	1.278189
