data_functionalizedCrystal
_audit_creation_method	'MofGen! by Chris Wilmer'
_symmetry_space_group_name_H-M	'P1'
_symmetry_Int_Tables_number	1
_symmetry_cell_setting	triclinic
loop_
_symmetry_equiv_pos_as_xyz
  x,y,z
_cell_length_a	14.044220
_cell_length_b	14.519709
_cell_length_c	13.596369
_cell_angle_alpha	89.993066
_cell_angle_beta	89.999747
_cell_angle_gamma	88.434511
loop_
_atom_site_label
_atom_site_type_symbol
_atom_site_fract_x
_atom_site_fract_y
_atom_site_fract_z
O1	O	1.258085	0.222370	-0.081691
O2	O	1.591418	0.555703	0.251642
O3	O	1.924751	0.889037	0.584976
O4	O	0.982102	0.214346	-0.081716
O5	O	1.315435	0.547679	0.251618
O6	O	1.648768	0.881012	0.584951
O7	O	1.127410	0.084710	-0.081694
O8	O	1.460744	0.418043	0.251640
O9	O	1.794077	0.751376	0.584973
O10	O	1.112776	0.352006	-0.081713
O11	O	1.446109	0.685339	0.251620
O12	O	1.779443	1.018673	0.584954
O13	O	1.127396	0.084701	0.081889
O14	O	1.460729	0.418034	0.415222
O15	O	1.794063	0.751368	0.748556
O16	O	0.982087	0.214337	0.081867
O17	O	1.315421	0.547670	0.415201
O18	O	1.648754	0.881004	0.748534
O19	O	1.258070	0.222361	0.081892
O20	O	1.591403	0.555695	0.415225
O21	O	1.924737	0.889028	0.748559
Zn22	Zn	1.120076	0.218348	0.107852
Zn23	Zn	1.453410	0.551681	0.441185
Zn24	Zn	1.786743	0.885014	0.774519
Zn25	Zn	1.120095	0.218359	-0.107676
Zn26	Zn	1.453429	0.551693	0.225658
Zn27	Zn	1.786762	0.885026	0.558991
O28	O	1.112761	0.351997	0.081870
O29	O	1.446095	0.685331	0.415203
O30	O	1.779428	1.018664	0.748537
C31	C	1.126721	0.050290	0.000098
C32	C	1.460054	0.383624	0.333431
C33	C	1.793388	0.716957	0.666764
C34	C	1.124677	-0.052256	0.000098
C35	C	1.458011	0.281078	0.333431
C36	C	1.791344	0.614411	0.666765
C37	C	0.946774	0.210829	0.000073
C38	C	1.280107	0.544162	0.333406
C39	C	1.613441	0.877496	0.666739
C40	C	0.841531	0.200352	0.000064
C41	C	1.174864	0.533685	0.333397
C42	C	1.508197	0.867018	0.666730
C43	C	1.117153	-0.427758	0.000072
C44	C	1.450487	-0.094425	0.333405
C45	C	1.783820	0.238908	0.666739
C46	C	1.119243	-0.323282	0.000079
C47	C	1.452576	0.010051	0.333413
C48	C	1.785909	0.343385	0.666746
C49	C	1.120915	-0.240010	0.000086
C50	C	1.454248	0.093323	0.333419
C51	C	1.787582	0.426656	0.666753
C52	C	1.123005	-0.135527	0.000092
C53	C	1.456338	0.197806	0.333425
C54	C	1.789672	0.531139	0.666758
C55	C	0.648837	0.181197	0.000084
C56	C	0.982170	0.514531	0.333418
C57	C	1.315503	0.847864	0.666751
C58	C	0.591329	0.255505	0.000083
C59	C	0.924663	0.588839	0.333417
C60	C	1.257996	0.922172	0.666750
C61	C	0.484108	0.244848	0.000095
C62	C	0.817441	0.578181	0.333428
C63	C	1.150775	0.911514	0.666762
C64	C	0.756068	0.191854	0.000073
C65	C	1.089402	0.525187	0.333406
C66	C	1.422735	0.858520	0.666739
C67	C	1.293398	0.225878	0.000101
C68	C	1.626731	0.559211	0.333435
C69	C	1.960064	0.892545	0.666768
C70	C	1.398641	0.236355	0.000104
C71	C	1.731975	0.569689	0.333437
C72	C	2.065308	0.903022	0.666771
C73	C	1.113451	0.386416	0.000076
C74	C	1.446784	0.719750	0.333410
C75	C	1.780117	1.053083	0.666743
C76	C	1.115494	0.488963	0.000070
C77	C	1.448828	0.822296	0.333403
C78	C	1.782161	1.155629	0.666736
N79	N	1.120070	0.218340	0.254944
N80	N	1.453404	0.551673	0.588277
N81	N	1.786737	0.885007	0.921610
N82	N	1.120109	0.218360	-0.254767
N83	N	1.453442	0.551694	0.078566
N84	N	1.786776	0.885027	0.411899
C85	C	1.120094	0.218360	0.656235
C86	C	1.453428	0.551693	0.989568
C87	C	1.786761	0.885027	1.322901
C88	C	1.120085	0.218357	0.544583
C89	C	1.453418	0.551691	0.877917
C90	C	1.786751	0.885024	1.211250
C91	C	1.120083	0.218351	0.455593
C92	C	1.453416	0.551684	0.788926
C93	C	1.786749	0.885017	1.122259
C94	C	1.120072	0.218347	0.343934
C95	C	1.453406	0.551680	0.677268
C96	C	1.786739	0.885013	1.010601
H97	H	0.622622	0.327127	0.000073
H98	H	0.955955	0.660460	0.333407
H99	H	1.289289	0.993794	0.666740
N100	N	0.609573	0.091360	0.000098
N101	N	0.942907	0.424693	0.333431
N102	N	1.276240	0.758026	0.666765
N103	N	0.521263	0.082722	0.000106
N104	N	0.854597	0.416056	0.333439
N105	N	1.187930	0.749389	0.666773
H106	H	0.493522	0.019275	0.000113
H107	H	0.826855	0.352609	0.333446
H108	H	1.160189	0.685942	0.666780
