data_functionalizedCrystal
_audit_creation_method	'MofGen! by Chris Wilmer'
_symmetry_space_group_name_H-M	'P1'
_symmetry_Int_Tables_number	1
_symmetry_cell_setting	triclinic
loop_
_symmetry_equiv_pos_as_xyz
  x,y,z
_cell_length_a	16.956995
_cell_length_b	23.532357
_cell_length_c	16.053802
_cell_angle_alpha	92.543277
_cell_angle_beta	87.607939
_cell_angle_gamma	79.441381
loop_
_atom_site_label
_atom_site_type_symbol
_atom_site_fract_x
_atom_site_fract_y
_atom_site_fract_z
O1	O	1.061232	0.021053	-0.069490
O2	O	1.394565	0.354387	0.263844
O3	O	1.727899	0.687720	0.597177
O4	O	0.828911	0.041055	-0.069482
O5	O	1.162244	0.374388	0.263852
O6	O	1.495578	0.707722	0.597185
O7	O	0.952097	-0.052181	-0.069469
O8	O	1.285430	0.281152	0.263865
O9	O	1.618764	0.614485	0.597198
O10	O	0.938046	0.114290	-0.069503
O11	O	1.271379	0.447623	0.263831
O12	O	1.604712	0.780956	0.597164
O13	O	0.945317	-0.047069	0.069389
O14	O	1.278650	0.286264	0.402723
O15	O	1.611983	0.619597	0.736056
O16	O	0.822131	0.046167	0.069377
O17	O	1.155464	0.379500	0.402710
O18	O	1.488797	0.712834	0.736043
O19	O	1.054452	0.026165	0.069368
O20	O	1.387785	0.359499	0.402702
O21	O	1.721118	0.692832	0.736035
Zn22	Zn	0.937214	0.036978	0.091419
Zn23	Zn	1.270548	0.370311	0.424753
Zn24	Zn	1.603881	0.703645	0.758086
Zn25	Zn	0.946148	0.030242	-0.091532
Zn26	Zn	1.279481	0.363576	0.241801
Zn27	Zn	1.612815	0.696909	0.575134
O28	O	0.931265	0.119402	0.069356
O29	O	1.264599	0.452735	0.402689
O30	O	1.597932	0.786068	0.736022
C31	C	0.795804	0.044635	-0.000051
C32	C	1.129138	0.377968	0.333282
C33	C	1.462471	0.711302	0.666615
C34	C	0.707259	0.047680	-0.000047
C35	C	1.040592	0.381013	0.333286
C36	C	1.373925	0.714347	0.666619
C37	C	0.207774	0.070456	-0.000083
C38	C	0.541107	0.403789	0.333250
C39	C	0.874441	0.737122	0.666584
C40	C	0.290973	0.067591	-0.000082
C41	C	0.624306	0.400924	0.333251
C42	C	0.957639	0.734257	0.666585
C43	C	0.342499	0.013810	-0.000065
C44	C	0.675833	0.347143	0.333269
C45	C	1.009166	0.680476	0.666602
C46	C	0.310825	-0.037110	-0.000057
C47	C	0.644158	0.296223	0.333276
C48	C	0.977491	0.629557	0.666610
C49	C	0.227628	-0.034244	-0.000064
C50	C	0.560961	0.299089	0.333269
C51	C	0.894294	0.632422	0.666602
C52	C	0.592387	-0.000374	-0.000047
C53	C	0.925720	0.332959	0.333286
C54	C	1.259054	0.666293	0.666620
C55	C	0.675589	-0.003236	-0.000037
C56	C	1.008922	0.330098	0.333296
C57	C	1.342255	0.663431	0.666629
C58	C	0.655731	0.101465	-0.000064
C59	C	0.989064	0.434799	0.333270
C60	C	1.322398	0.768132	0.666603
C61	C	0.572533	0.104326	-0.000066
C62	C	0.905867	0.437659	0.333267
C63	C	1.239200	0.770993	0.666601
C64	C	0.540866	0.053407	-0.000063
C65	C	0.874199	0.386740	0.333271
C66	C	1.207532	0.720073	0.666604
N67	N	0.427542	0.010880	-0.000061
N68	N	0.760875	0.344213	0.333273
N69	N	1.094209	0.677546	0.666606
N70	N	0.455825	0.056337	-0.000073
N71	N	0.789158	0.389670	0.333261
N72	N	1.122492	0.723003	0.666594
C73	C	0.948355	-0.070827	-0.000037
C74	C	1.281688	0.262507	0.333296
C75	C	1.615022	0.595840	0.666630
C76	C	0.947298	-0.133999	-0.000029
C77	C	1.280631	0.199334	0.333304
C78	C	1.613965	0.532667	0.666637
C79	C	0.944362	-0.528514	-0.075766
C80	C	1.277695	-0.195180	0.257568
C81	C	1.611028	0.138153	0.590901
C82	C	0.943357	-0.587870	-0.075770
C83	C	1.276690	-0.254537	0.257563
C84	C	1.610024	0.078797	0.590896
O85	O	0.945954	-0.620933	-0.140143
O86	O	1.279287	-0.287599	0.193190
O87	O	1.612620	0.045734	0.526524
N88	N	0.939163	-0.614773	-0.000080
N89	N	1.272496	-0.281440	0.333254
N90	N	1.605830	0.051894	0.666587
C91	C	0.935965	-0.582315	0.075621
C92	C	1.269298	-0.248982	0.408954
C93	C	1.602632	0.084351	0.742287
O94	O	0.932305	-0.610649	0.140001
O95	O	1.265638	-0.277316	0.473334
O96	O	1.598971	0.056018	0.806667
C97	C	0.936964	-0.522959	0.075624
C98	C	1.270297	-0.189626	0.408958
C99	C	1.603630	0.143707	0.742291
C100	C	0.941166	-0.496061	-0.000071
C101	C	1.274499	-0.162727	0.333262
C102	C	1.607833	0.170606	0.666595
C103	C	0.948563	-0.501614	-0.151455
C104	C	1.281896	-0.168281	0.181878
C105	C	1.615229	0.165052	0.515212
C106	C	0.949569	-0.442262	-0.151450
C107	C	1.282902	-0.108929	0.181883
C108	C	1.616235	0.224404	0.515217
C109	C	0.946373	-0.409809	-0.075756
C110	C	1.279706	-0.076476	0.257578
C111	C	1.613040	0.256857	0.590911
C112	C	0.942172	-0.436709	-0.000066
C113	C	1.275505	-0.103375	0.333267
C114	C	1.608839	0.229958	0.666601
C115	C	0.933760	-0.490502	0.151324
C116	C	1.267093	-0.157169	0.484657
C117	C	1.600427	0.176165	0.817990
C118	C	0.934758	-0.431142	0.151321
C119	C	1.268092	-0.097809	0.484654
C120	C	1.601425	0.235525	0.817988
C121	C	0.938961	-0.404243	0.075626
C122	C	1.272294	-0.070910	0.408959
C123	C	1.605627	0.262423	0.742292
C124	C	0.939982	-0.344904	0.075633
C125	C	1.273316	-0.011570	0.408967
C126	C	1.606649	0.321763	0.742300
N127	N	0.944176	-0.318000	-0.000057
N128	N	1.277510	0.015333	0.333276
N129	N	1.610843	0.348666	0.666609
C130	C	0.947372	-0.350453	-0.075752
C131	C	1.280705	-0.017120	0.257582
C132	C	1.614038	0.316213	0.590915
C133	C	0.933867	-0.706967	0.075607
C134	C	1.267200	-0.373634	0.408940
C135	C	1.600533	-0.040301	0.742273
C136	C	0.932874	-0.766323	0.075604
C137	C	1.266207	-0.432990	0.408937
C138	C	1.599540	-0.099656	0.742270
C139	C	0.940264	-0.771873	-0.075788
C140	C	1.273598	-0.438540	0.257546
C141	C	1.606931	-0.105206	0.590879
C142	C	0.941263	-0.712517	-0.075784
C143	C	1.274596	-0.379184	0.257550
C144	C	1.607930	-0.045850	0.590883
C145	C	0.938061	-0.680064	-0.000084
C146	C	1.271394	-0.346731	0.333249
C147	C	1.604727	-0.013397	0.666583
C148	C	0.949484	-0.225809	-0.075735
C149	C	1.282818	0.107524	0.257598
C150	C	1.616151	0.440857	0.590931
C151	C	0.950493	-0.166452	-0.075724
C152	C	1.283827	0.166881	0.257610
C153	C	1.617160	0.500214	0.590943
C154	C	0.943098	-0.160907	0.075667
C155	C	1.276432	0.172427	0.409000
C156	C	1.609765	0.505760	0.742334
C157	C	0.942094	-0.220259	0.075656
C158	C	1.275427	0.113074	0.408989
C159	C	1.608760	0.446407	0.742322
C160	C	0.945284	-0.252709	-0.000052
C161	C	1.278618	0.080624	0.333281
C162	C	1.611951	0.413958	0.666614
O163	O	0.937385	-0.311804	0.139973
O164	O	1.270718	0.021529	0.473307
O165	O	1.604051	0.354863	0.806640
O166	O	0.951021	-0.322111	-0.140121
O167	O	1.284355	0.011223	0.193212
O168	O	1.617688	0.344556	0.526545
C169	C	1.087558	0.022585	-0.000064
C170	C	1.420892	0.355919	0.333270
C171	C	1.754225	0.689252	0.666603
C172	C	1.176104	0.019540	-0.000073
C173	C	1.509437	0.352874	0.333260
C174	C	1.842771	0.686207	0.666594
C175	C	0.935007	0.138047	-0.000078
C176	C	1.268341	0.471380	0.333255
C177	C	1.601674	0.804714	0.666589
C178	C	0.936065	0.201220	-0.000091
C179	C	1.269398	0.534553	0.333242
C180	C	1.602731	0.867886	0.666575
N181	N	0.931124	0.041574	0.216279
N182	N	1.264457	0.374907	0.549612
N183	N	1.597790	0.708241	0.882946
N184	N	0.952245	0.025641	-0.216392
N185	N	1.285579	0.358975	0.116941
N186	N	1.618912	0.692308	0.450275
C187	C	0.983558	0.001914	0.259978
C188	C	1.316892	0.335248	0.593312
C189	C	1.650225	0.668581	0.926645
C190	C	0.979305	0.005134	0.347385
C191	C	1.312638	0.338468	0.680718
C192	C	1.645972	0.671801	1.014051
C193	C	0.922620	0.048017	0.391090
C194	C	1.255953	0.381351	0.724423
C195	C	1.589287	0.714684	1.057757
C196	C	0.870180	0.087679	0.347384
C197	C	1.203513	0.421012	0.680718
C198	C	1.536846	0.754346	1.014051
C199	C	0.874430	0.084456	0.259980
C200	C	1.207763	0.417789	0.593313
C201	C	1.541097	0.751123	0.926646
C202	C	0.904055	0.062080	0.652498
C203	C	1.237388	0.395413	0.985831
C204	C	1.570722	0.728747	1.319164
C205	C	0.899810	0.065301	0.739909
C206	C	1.233144	0.398635	1.073242
C207	C	1.566477	0.731968	1.406575
C208	C	1.008935	-0.017244	0.739903
C209	C	1.342268	0.316089	1.073236
C210	C	1.675602	0.649422	1.406569
C211	C	1.013183	-0.020462	0.652496
C212	C	1.346517	0.312872	0.985830
C213	C	1.679850	0.646205	1.319163
C214	C	0.960740	0.019198	0.608798
C215	C	1.294074	0.352532	0.942132
C216	C	1.627407	0.685865	1.275465
N217	N	0.918273	0.051311	0.480433
N218	N	1.251606	0.384644	0.813767
N219	N	1.584939	0.717978	1.147100
N220	N	0.965084	0.015902	0.519457
N221	N	1.298418	0.349235	0.852790
N222	N	1.631751	0.682568	1.186123
H223	H	0.316754	0.109051	-0.000098
H224	H	0.650087	0.442384	0.333235
H225	H	0.983421	0.775718	0.666569
F226	F	0.517700	0.161567	-0.000089
F227	F	0.851033	0.494900	0.333244
F228	F	1.184367	0.828234	0.666577
H229	H	0.824022	0.122594	0.382974
H230	H	1.157355	0.455927	0.716308
H231	H	1.490688	0.789260	1.049641
F232	F	0.931349	-0.396606	0.231894
F233	F	1.264683	-0.063273	0.565227
F234	F	1.598016	0.270060	0.898560
F235	F	1.035111	-0.037077	0.393893
F236	F	1.368444	0.296257	0.727226
F237	F	1.701777	0.629590	1.060560
H238	H	0.201844	-0.075705	-0.000058
H239	H	0.535178	0.257628	0.333276
H240	H	0.868511	0.590961	0.666609
H241	H	0.831731	0.116750	0.224400
H242	H	1.165064	0.450084	0.557734
H243	H	1.498398	0.783417	0.891067
H244	H	0.681524	0.142921	-0.000067
H245	H	1.014857	0.476254	0.333266
H246	H	1.348191	0.809588	0.666599
F247	F	1.064743	-0.059452	0.786414
F248	F	1.398077	0.273882	1.119748
F249	F	1.731410	0.607215	1.453081
F250	F	0.928415	-0.794946	0.156169
F251	F	1.261749	-0.461613	0.489502
F252	F	1.595082	-0.128279	0.822836
H253	H	0.717542	-0.047033	-0.000027
H254	H	1.050875	0.286300	0.333306
H255	H	1.384208	0.619634	0.666639
H256	H	0.953917	-0.144555	-0.137367
H257	H	1.287251	0.188779	0.195967
H258	H	1.620584	0.522112	0.529300
H259	H	0.952079	-0.252223	-0.137384
H260	H	1.285412	0.081111	0.195949
H261	H	1.618745	0.414444	0.529283
F262	F	0.951964	-0.536145	-0.232027
F263	F	1.285297	-0.202811	0.101307
F264	F	1.618630	0.130522	0.434640
H265	H	0.165825	0.114250	-0.000091
H266	H	0.499159	0.447584	0.333243
H267	H	0.832492	0.780917	0.666576
F268	F	0.945734	-0.683895	-0.156348
F269	F	1.279068	-0.350561	0.176985
F270	F	1.612401	-0.017228	0.510318
H271	H	0.566614	-0.041836	-0.000042
H272	H	0.899947	0.291497	0.333291
H273	H	1.233280	0.624830	0.666624
F274	F	0.839476	0.110947	0.786418
F275	F	1.172809	0.444280	1.119751
F276	F	1.506142	0.777614	1.453084
H277	H	0.861355	0.094374	0.616926
H278	H	1.194688	0.427707	0.950259
H279	H	1.528022	0.761040	1.283592
F280	F	0.937636	-0.248890	0.156219
F281	F	1.270969	0.084443	0.489552
F282	F	1.604302	0.417777	0.822885
F283	F	0.954036	-0.413641	-0.232016
F284	F	1.287369	-0.080308	0.101317
F285	F	1.620703	0.253025	0.434650
F286	F	0.365666	-0.094348	-0.000042
F287	F	0.698999	0.238985	0.333292
F288	F	1.032332	0.572318	0.666625
H289	H	1.059341	-0.055380	0.616913
H290	H	1.392674	0.277953	0.950246
H291	H	1.726007	0.611286	1.283580
H292	H	0.942864	-0.798307	-0.137422
H293	H	1.276197	-0.464974	0.195911
H294	H	1.609530	-0.131640	0.529244
H295	H	1.029720	-0.033003	0.224399
H296	H	1.363054	0.300330	0.557733
H297	H	1.696387	0.633663	0.891066
F298	F	0.930464	-0.672434	0.156182
F299	F	1.263798	-0.339100	0.489515
F300	F	1.597131	-0.005767	0.822849
H301	H	0.940500	-0.134474	0.137296
H302	H	1.273834	0.198860	0.470629
H303	H	1.607167	0.532193	0.803962
H304	H	0.930339	-0.512393	0.212963
H305	H	1.263673	-0.179059	0.546297
H306	H	1.597006	0.154274	0.879630
