data_functionalizedCrystal
_audit_creation_method	'MofGen! by Chris Wilmer'
_symmetry_space_group_name_H-M	'P1'
_symmetry_Int_Tables_number	1
_symmetry_cell_setting	triclinic
loop_
_symmetry_equiv_pos_as_xyz
  x,y,z
_cell_length_a	14.560438
_cell_length_b	12.477989
_cell_length_c	14.560438
_cell_angle_alpha	90.001137
_cell_angle_beta	59.996693
_cell_angle_gamma	64.370485
loop_
_atom_site_label
_atom_site_type_symbol
_atom_site_fract_x
_atom_site_fract_y
_atom_site_fract_z
Zr1	Zr	1.114213	0.973046	-0.175043
O2	O	1.287774	0.811764	-0.312679
O3	O	0.928137	1.022487	-0.132842
O4	O	1.119748	1.022483	-0.324458
O5	O	1.096161	0.811772	0.030078
O6	O	1.138350	1.188703	-0.333760
O7	O	1.096163	0.811768	-0.121062
O8	O	0.795593	1.188710	0.009007
O9	O	1.438918	0.811765	-0.312688
O10	O	1.023191	1.167622	-0.121796
O11	O	1.009306	1.043577	-0.002059
O12	O	1.234904	1.043573	-0.227663
O13	O	1.221019	0.919527	-0.107927
Zr14	Zr	1.143878	1.238155	0.051173
Zr15	Zr	1.143881	1.238148	-0.189878
Zr16	Zr	1.114210	0.973053	0.066009
Zr17	Zr	1.355270	0.973048	-0.175059
Zr18	Zr	0.902821	1.238153	0.051189
O19	O	1.329954	1.188714	0.008972
O20	O	1.329959	1.188705	-0.333773
O21	O	1.287769	0.811773	0.030066
O22	O	0.970317	1.399437	0.188809
O23	O	0.970322	1.399428	-0.153936
O24	O	0.928132	1.022496	0.209903
O25	O	1.161930	1.399429	-0.153948
O26	O	1.138343	1.188718	0.200588
O27	O	1.119741	1.022498	0.209890
O28	O	1.161928	1.399433	-0.002808
O29	O	1.462500	1.022486	-0.324480
O30	O	0.795591	1.188715	0.200611
O31	O	0.819173	1.399436	0.188819
O32	O	0.819176	1.399431	-0.002785
O33	O	1.438915	0.811770	-0.121084
O34	O	1.462498	1.022491	-0.132876
O35	O	1.023187	1.167628	0.103793
O36	O	1.037072	1.291674	-0.015943
O37	O	1.248785	1.167624	-0.121810
O38	O	1.234900	1.043579	-0.002074
C39	C	0.827520	1.105598	-0.061915
C40	C	0.725185	1.105597	-0.061909
C41	C	0.750151	1.014021	-0.140067
C42	C	0.654012	1.014026	-0.140096
C43	C	0.507941	1.197190	0.016201
C44	C	0.604080	1.197188	0.016224
C45	C	1.091935	0.773998	-0.043378
C46	C	1.079340	0.661456	-0.037080
C47	C	1.430571	1.105603	-0.061954
C48	C	1.532906	1.105604	-0.061961
C49	C	1.129050	1.105592	-0.363454
C50	C	1.129051	1.105589	-0.465787
C51	C	1.166156	1.437203	-0.080492
C52	C	1.178751	1.549745	-0.086790
C53	C	1.239561	1.040838	-0.569125
C54	C	1.239557	1.040852	-0.665274
C55	C	1.018522	1.170371	-0.554734
C56	C	1.018528	1.170363	-0.458588
C57	C	1.129041	1.105609	0.239584
C58	C	1.129040	1.105612	0.341917
C59	C	0.864630	1.437200	-0.080472
C60	C	0.774890	1.549742	-0.086764
C61	C	0.827516	1.105606	0.239604
C62	C	0.725179	1.105608	0.341943
C63	C	0.864626	1.437209	0.221047
C64	C	0.774885	1.549753	0.317088
C65	C	1.393465	0.773992	-0.344917
C66	C	1.483206	0.661448	-0.440958
C67	C	1.393460	0.774001	-0.043398
C68	C	1.483201	0.661459	-0.037106
C69	C	1.430575	1.105595	-0.363473
C70	C	1.532912	1.105592	-0.465813
C71	C	0.725502	1.537839	-0.144982
C72	C	0.641194	1.643574	-0.150915
C73	C	0.606269	1.761211	-0.098623
C74	C	0.655667	1.773111	-0.040402
C75	C	0.739980	1.667377	-0.034476
C76	C	0.739990	1.667367	0.299689
C77	C	0.655683	1.773125	0.389920
C78	C	0.606266	1.761267	0.497550
C79	C	0.641169	1.643641	0.514948
C80	C	0.725481	1.537885	0.424718
C81	C	1.518113	0.543834	-0.423558
C82	C	1.602450	0.438076	-0.513790
C83	C	1.651872	0.449934	-0.621420
C84	C	1.616963	0.567560	-0.638818
C85	C	1.532634	0.673316	-0.548588
C86	C	1.532599	0.673361	0.021102
C87	C	1.616934	0.567627	0.027009
C88	C	1.651862	0.449990	-0.025287
C89	C	1.602459	0.438090	-0.083503
C90	C	1.518133	0.543824	-0.089416
C91	C	0.684345	1.170362	0.445276
C92	C	0.588196	1.170350	0.541432
C93	C	0.573721	1.040829	0.430907
C94	C	0.669873	1.040835	0.334754
H95	H	0.674352	0.939456	-0.203741
Br96	Br	0.574091	1.627568	0.661026
H97	H	0.528678	0.988095	0.425068
H98	H	1.720536	0.363812	-0.694882
Br99	Br	0.772821	1.378271	0.448352
Br100	Br	1.336675	0.533834	-0.165773
Br101	Br	0.772883	1.378203	-0.215965
H102	H	0.627219	1.868905	0.002171
H103	H	1.477875	0.534155	-0.335928
Br104	Br	0.921408	0.677367	0.041885
H105	H	0.600983	1.633861	-0.198324
Br106	Br	0.725307	0.952936	0.194505
Br107	Br	1.649805	0.278457	-0.490152
H108	H	0.409328	1.271759	0.079814
Br109	Br	0.532788	1.258225	0.681671
Br110	Br	0.868539	1.258247	-0.318331
H111	H	0.583741	1.271768	0.079871
Br112	Br	1.389556	0.952940	-0.578897
Br113	Br	1.389542	0.952978	-0.805519
H114	H	0.928538	1.223106	-0.548886
Br115	Br	0.491841	1.904696	-0.106676
Br116	Br	0.806992	1.683554	0.044548
H117	H	1.657213	0.577201	-0.726461
H118	H	0.780214	1.677046	0.212058
Br119	Br	0.491842	1.904806	0.619996
Br120	Br	0.914505	0.889722	-0.246106
H121	H	1.657144	0.577340	0.074418
Br122	Br	1.649871	0.278430	-0.154467
Br123	Br	1.485265	0.832930	-0.572222
H124	H	1.720527	0.363905	-0.020464
H125	H	1.477913	0.534115	-0.136812
H126	H	0.627274	1.868892	0.375734
Br127	Br	0.759401	1.258268	0.455034
Br128	Br	1.485221	0.832998	0.092082
