data_functionalizedCrystal
_audit_creation_method	'MofGen! by Chris Wilmer'
_symmetry_space_group_name_H-M	'P1'
_symmetry_Int_Tables_number	1
_symmetry_cell_setting	triclinic
loop_
_symmetry_equiv_pos_as_xyz
  x,y,z
_cell_length_a	10.654550
_cell_length_b	12.503552
_cell_length_c	14.044220
_cell_angle_alpha	93.839943
_cell_angle_beta	91.163096
_cell_angle_gamma	93.554123
loop_
_atom_site_label
_atom_site_type_symbol
_atom_site_fract_x
_atom_site_fract_y
_atom_site_fract_z
O1	O	1.687865	0.089243	-0.127801
O2	O	2.021198	0.422576	0.205532
O3	O	2.354532	0.755910	0.538866
O4	O	1.323664	0.089263	-0.140493
O5	O	1.656997	0.422596	0.192840
O6	O	1.990330	0.755930	0.526174
O7	O	1.500297	0.089243	0.003873
O8	O	1.833630	0.422576	0.337206
O9	O	2.166964	0.755909	0.670540
O10	O	1.511232	0.089263	-0.272167
O11	O	1.844565	0.422597	0.061166
O12	O	2.177898	0.755930	0.394500
O13	O	1.486997	-0.089398	-0.006994
O14	O	1.820331	0.243935	0.326340
O15	O	2.153664	0.577268	0.659673
O16	O	1.310364	-0.089378	-0.151360
O17	O	1.643697	0.243955	0.181974
O18	O	1.977031	0.577289	0.515307
O19	O	1.674566	-0.089398	-0.138668
O20	O	2.007899	0.243935	0.194666
O21	O	2.341232	0.577269	0.527999
Cu22	Cu	1.491251	-0.105699	-0.146006
Cu23	Cu	1.824584	0.227634	0.187327
Cu24	Cu	2.157917	0.560967	0.520661
Cu25	Cu	1.506979	0.105564	-0.133155
Cu26	Cu	1.840312	0.438898	0.200179
Cu27	Cu	2.173645	0.772231	0.533512
O28	O	1.497932	-0.089378	-0.283034
O29	O	1.831266	0.243956	0.050300
O30	O	2.164599	0.577289	0.383633
C31	C	1.270122	-0.000055	-0.144994
C32	C	1.603456	0.333278	0.188339
C33	C	1.936789	0.666612	0.521672
C34	C	1.130400	-0.000048	-0.142205
C35	C	1.463733	0.333286	0.191128
C36	C	1.797066	0.666619	0.524461
C37	C	1.059456	-0.000044	-0.227206
C38	C	1.392789	0.333289	0.106127
C39	C	1.726123	0.666622	0.439460
C40	C	0.928170	-0.000063	-0.224582
C41	C	1.261503	0.333270	0.108752
C42	C	1.594837	0.666603	0.442085
C43	C	0.938783	-0.000084	-0.051948
C44	C	1.272117	0.333249	0.281386
C45	C	1.605450	0.666582	0.614719
C46	C	1.070066	-0.000073	-0.054574
C47	C	1.403400	0.333260	0.278760
C48	C	1.736733	0.666594	0.612093
N49	N	1.480197	-0.254291	-0.155044
N50	N	1.813531	0.079043	0.178289
N51	N	2.146864	0.412376	0.511623
C52	C	1.534294	-0.526730	-0.110810
C53	C	1.867627	-0.193397	0.222523
C54	C	2.200961	0.139937	0.555856
C55	C	1.463948	-0.473398	-0.168340
C56	C	1.797281	-0.140065	0.164994
C57	C	2.130615	0.193269	0.498327
C58	C	1.472991	-0.351475	-0.160940
C59	C	1.806325	-0.018142	0.172393
C60	C	2.139658	0.315191	0.505726
C61	C	1.525252	-0.648664	-0.118209
C62	C	1.858586	-0.315330	0.215125
C63	C	2.191919	0.018003	0.548458
C64	C	1.728107	-0.000078	-0.134166
C65	C	2.061440	0.333256	0.199167
C66	C	2.394774	0.666589	0.532500
C67	C	1.867830	-0.000078	-0.136955
C68	C	2.201164	0.333255	0.196379
C69	C	2.534497	0.666589	0.529712
C70	C	1.488861	-0.000078	0.033785
C71	C	1.822195	0.333255	0.367119
C72	C	2.155528	0.666589	0.700452
C73	C	1.474586	-0.000079	0.139105
C74	C	1.807919	0.333255	0.472438
C75	C	2.141252	0.666588	0.805772
N76	N	1.518041	0.254156	-0.124109
N77	N	1.851374	0.587489	0.209224
N78	N	2.184708	0.920822	0.542558
C79	C	1.509368	-0.000055	-0.312946
C80	C	1.842701	0.333279	0.020387
C81	C	2.176035	0.666612	0.353721
C82	C	1.523644	-0.000047	-0.418265
C83	C	1.856978	0.333286	-0.084932
C84	C	2.190311	0.666620	0.248401
C85	C	1.448488	-0.000062	0.331939
C86	C	1.781822	0.333272	0.665272
C87	C	2.115155	0.666605	0.998606
C88	C	1.549736	-0.000064	0.388906
C89	C	1.883069	0.333269	0.722240
C90	C	2.216403	0.666603	1.055573
C91	C	1.535215	-0.000055	0.496206
C92	C	1.868548	0.333279	0.829539
C93	C	2.201882	0.666612	1.162873
C94	C	1.463007	-0.000071	0.224630
C95	C	1.796341	0.333262	0.557963
C96	C	2.129674	0.666596	0.891296
H97	H	0.889643	-0.000112	0.019399
H98	H	1.222977	0.333222	0.352732
H99	H	1.556310	0.666555	0.686066
H100	H	1.350909	-0.000054	0.363750
H101	H	1.684243	0.333280	0.697084
H102	H	2.017576	0.666613	1.030417
H103	H	1.647328	0.000003	0.357098
H104	H	1.980662	0.333336	0.690431
H105	H	2.313995	0.666669	1.023765
H106	H	0.870413	-0.000063	-0.293798
H107	H	1.203746	0.333270	0.039535
H108	H	1.537079	0.666604	0.372868
N109	N	1.623078	-0.465928	-0.038225
N110	N	1.956411	-0.132595	0.295108
N111	N	2.289745	0.200738	0.628441
H112	H	1.668775	-0.518505	-0.000861
H113	H	2.002108	-0.185171	0.332472
H114	H	2.335442	0.148162	0.665805
H115	H	1.573650	-0.419267	0.006813
H116	H	1.906984	-0.085933	0.340146
H117	H	2.240317	0.247400	0.673480
H118	H	1.396932	-0.519306	-0.223150
H119	H	1.730265	-0.185973	0.110183
H120	H	2.063599	0.147361	0.443517
H121	H	1.108574	-0.000032	-0.298562
H122	H	1.441908	0.333301	0.034771
H123	H	1.775241	0.666635	0.368104
H124	H	1.127831	-0.000079	0.014649
H125	H	1.461164	0.333254	0.347982
H126	H	1.794497	0.666588	0.681315
