data_functionalizedCrystal
_audit_creation_method	'MofGen! by Chris Wilmer'
_symmetry_space_group_name_H-M	'P1'
_symmetry_Int_Tables_number	1
_symmetry_cell_setting	triclinic
loop_
_symmetry_equiv_pos_as_xyz
  x,y,z
_cell_length_a	12.827893
_cell_length_b	13.032721
_cell_length_c	12.827885
_cell_angle_alpha	82.850965
_cell_angle_beta	90.019272
_cell_angle_gamma	97.204267
loop_
_atom_site_label
_atom_site_type_symbol
_atom_site_fract_x
_atom_site_fract_y
_atom_site_fract_z
Zn1	Zn	1.544798	-0.415987	0.643644
Zn2	Zn	1.878131	-0.082654	0.976977
Zn3	Zn	2.211465	0.250680	1.310310
Zn4	Zn	1.522478	-0.590766	0.491086
Zn5	Zn	1.855811	-0.257433	0.824419
Zn6	Zn	2.189145	0.075901	1.157753
Zn7	Zn	1.370033	-0.416038	0.468924
Zn8	Zn	1.703366	-0.082705	0.802257
Zn9	Zn	2.036700	0.250629	1.135590
Zn10	Zn	1.347821	-0.590688	0.665776
Zn11	Zn	1.681154	-0.257355	0.999109
Zn12	Zn	2.014487	0.075978	1.332443
O13	O	1.446282	-0.503370	0.567357
O14	O	1.779616	-0.170037	0.900691
O15	O	2.112949	0.163297	1.234024
O16	O	1.688072	-0.439183	0.623419
O17	O	2.021405	-0.105850	0.956752
O18	O	2.354739	0.227483	1.290086
O19	O	1.502211	-0.567642	0.341917
O20	O	1.835544	-0.234309	0.675250
O21	O	2.168878	0.099025	1.008584
O22	O	1.411853	-0.269794	0.473563
O23	O	1.745186	0.063539	0.806897
O24	O	2.078520	0.396873	1.140230
O25	O	1.671673	-0.567593	0.511336
O26	O	2.005007	-0.234259	0.844669
O27	O	2.338340	0.099074	1.178002
O28	O	1.540252	-0.269756	0.601929
O29	O	1.873586	0.063577	0.935263
O30	O	2.206919	0.396910	1.268596
O31	O	1.390210	-0.439270	0.325634
O32	O	1.723544	-0.105937	0.658968
O33	O	2.056877	0.227397	0.992301
O34	O	1.220852	-0.439194	0.495024
O35	O	1.554185	-0.105861	0.828358
O36	O	1.887519	0.227472	1.161691
O37	O	1.373995	-0.567460	0.809070
O38	O	1.707328	-0.234127	1.142403
O39	O	2.040662	0.099207	1.475736
O40	O	1.204532	-0.567509	0.639651
O41	O	1.537866	-0.234176	0.972984
O42	O	1.871199	0.099157	1.306317
O43	O	1.518714	-0.439108	0.792809
O44	O	1.852047	-0.105774	1.126142
O45	O	2.185380	0.227559	1.459476
O46	O	1.480672	-0.736993	0.532797
O47	O	1.814006	-0.403660	0.866130
O48	O	2.147339	-0.070327	1.199463
O49	O	1.352352	-0.736936	0.661141
O50	O	1.685686	-0.403603	0.994474
O51	O	2.019019	-0.070269	1.327807
C52	C	1.174775	-0.503350	0.567335
C53	C	1.508108	-0.170016	0.900668
C54	C	1.841442	0.163317	1.234002
C55	C	1.058620	-0.503366	0.567353
C56	C	1.391953	-0.170033	0.900687
C57	C	1.725287	0.163300	1.234020
C58	C	0.998775	-0.566960	0.638834
C59	C	1.332108	-0.233626	0.972167
C60	C	1.665441	0.099707	1.305501
C61	C	0.878722	-0.566978	0.638854
C62	C	1.212055	-0.233645	0.972188
C63	C	1.545389	0.099688	1.305521
C64	C	1.411708	-0.774882	0.601798
C65	C	1.745042	-0.441549	0.935131
C66	C	2.078375	-0.108216	1.268465
C67	C	1.397013	-0.891037	0.616567
C68	C	1.730346	-0.557703	0.949900
C69	C	2.063679	-0.224370	1.283233
C70	C	1.454008	-0.942815	0.559696
C71	C	1.787341	-0.609482	0.893030
C72	C	2.120674	-0.276149	1.226363
C73	C	1.438821	-1.062867	0.574959
C74	C	1.772154	-0.729533	0.908293
C75	C	2.105487	-0.396200	1.241626
C76	C	1.718850	-0.503391	0.567381
C77	C	2.052183	-0.170058	0.900714
C78	C	2.385517	0.163276	1.234047
C79	C	1.835002	-0.503400	0.567391
C80	C	2.168335	-0.170066	0.900724
C81	C	2.501669	0.163267	1.234057
C82	C	1.446366	-0.503270	0.839915
C83	C	1.779700	-0.169936	1.173248
C84	C	2.113033	0.163397	1.506582
C85	C	1.446402	-0.503227	0.956063
C86	C	1.779735	-0.169893	1.289396
C87	C	2.113069	0.163440	1.622729
C88	C	1.481020	-0.230797	0.532805
C89	C	1.814354	0.102536	0.866139
C90	C	2.147687	0.435869	1.199472
C91	C	1.495823	-0.114643	0.518081
C92	C	1.829157	0.218690	0.851414
C93	C	2.162490	0.552024	1.184748
C94	C	1.446269	-0.503394	0.295851
C95	C	1.779602	-0.170061	0.629184
C96	C	2.112935	0.163272	0.962517
C97	C	1.446473	-0.503143	0.179666
C98	C	1.779806	-0.169809	0.512999
C99	C	2.113139	0.163524	0.846333
C100	C	1.518022	-0.439702	0.999800
C101	C	1.851355	-0.106368	1.333133
C102	C	2.184689	0.226965	1.666466
C103	C	1.518061	-0.439656	1.119844
C104	C	1.851394	-0.106323	1.453178
C105	C	2.184727	0.227011	1.786511
H106	H	1.036418	-0.621387	0.700019
H107	H	1.369751	-0.288054	1.033352
H108	H	1.703085	0.045280	1.366685
H109	H	1.514051	-0.898270	0.499712
H110	H	1.847384	-0.564937	0.833045
H111	H	2.180718	-0.231603	1.166378
O112	O	0.810605	-0.639100	0.719928
O113	O	1.143938	-0.305766	1.053261
O114	O	1.477272	0.027567	1.386595
H115	H	0.727002	-0.627790	0.707227
H116	H	1.060335	-0.294457	1.040561
H117	H	1.393668	0.038876	1.373894
H118	H	1.336978	-0.935584	0.676559
H119	H	1.670312	-0.602251	1.009892
H120	H	2.003645	-0.268918	1.343226
O121	O	1.359275	-1.121856	0.654421
O122	O	1.692608	-0.788522	0.987754
O123	O	2.025941	-0.455189	1.321087
H124	H	1.359819	-1.206891	0.653930
H125	H	1.693152	-0.873558	0.987264
H126	H	2.026486	-0.540225	1.320597
H127	H	1.555870	-1.070100	0.458092
H128	H	1.889204	-0.736767	0.791426
H129	H	2.222537	-0.403434	1.124759
H130	H	0.886429	-0.448956	0.506187
H131	H	1.219763	-0.115623	0.839520
H132	H	1.553096	0.217711	1.172854
H133	H	1.579380	-0.385273	1.157488
H134	H	1.912713	-0.051940	1.490822
H135	H	2.246047	0.281394	1.824155
O136	O	1.599218	-0.367706	0.931694
O137	O	1.932552	-0.034373	1.265027
O138	O	2.265885	0.298961	1.598360
H139	H	1.586453	-0.379048	0.848094
H140	H	1.919787	-0.045715	1.181428
H141	H	2.253120	0.287618	1.514761
O142	O	1.008758	-0.431281	0.486296
O143	O	1.342091	-0.097948	0.819629
O144	O	1.675425	0.235385	1.152962
H145	H	0.965788	-0.378226	0.526467
H146	H	1.299121	-0.044893	0.859801
H147	H	1.632455	0.288441	1.193134
O148	O	1.365227	-0.575185	1.129832
O149	O	1.698560	-0.241851	1.463165
O150	O	2.031894	0.091482	1.796499
H151	H	1.405240	-0.628335	1.086835
H152	H	1.738573	-0.295002	1.420168
H153	H	2.071907	0.038331	1.753501
O154	O	1.365208	-0.575220	1.024174
O155	O	1.698541	-0.241886	1.357507
O156	O	2.031874	0.091447	1.690841
H157	H	1.372639	-0.657267	1.013686
H158	H	1.705973	-0.323934	1.347019
H159	H	2.039306	0.009400	1.680353
