data_functionalizedCrystal
_audit_creation_method	'MofGen! by Chris Wilmer'
_symmetry_space_group_name_H-M	'P1'
_symmetry_Int_Tables_number	1
_symmetry_cell_setting	triclinic
loop_
_symmetry_equiv_pos_as_xyz
  x,y,z
_cell_length_a	14.044220
_cell_length_b	10.654541
_cell_length_c	9.730217
_cell_angle_alpha	90.003041
_cell_angle_beta	89.996545
_cell_angle_gamma	88.836403
loop_
_atom_site_label
_atom_site_type_symbol
_atom_site_fract_x
_atom_site_fract_y
_atom_site_fract_z
O1	O	-1.259692	-0.302984	-0.114143
O2	O	-0.983651	-0.292051	-0.114178
O3	O	-1.128020	-0.115416	-0.114151
O4	O	-1.115324	-0.479619	-0.114169
O5	O	-1.128015	-0.115414	0.114429
O6	O	-0.983647	-0.292048	0.114403
O7	O	-1.259688	-0.302982	0.114437
Zn8	Zn	-1.121667	-0.297515	0.150712
Zn9	Zn	-1.121673	-0.297518	-0.150452
O10	O	-1.115320	-0.479617	0.114411
C11	C	-0.948303	-0.287264	0.000108
C12	C	-0.842984	-0.272988	0.000095
C13	C	-1.295036	-0.307769	0.000149
C14	C	-1.400356	-0.322044	0.000153
C15	C	-0.650151	-0.246889	0.000123
C16	C	-0.593183	-0.348138	0.000124
C17	C	-0.485884	-0.333616	0.000140
C18	C	-0.757460	-0.261409	0.000108
C19	C	-1.127086	-0.068523	0.000138
C20	C	-1.124298	0.071201	0.000135
C21	C	-1.116253	-0.526510	0.000119
C22	C	-1.119041	-0.666233	0.000112
N23	N	-1.121670	-0.297513	0.356248
C24	C	-1.296930	0.081824	0.000175
C25	C	-1.381932	0.152776	0.000197
C26	C	-1.379307	0.284058	0.000192
C27	C	-1.291671	0.344390	0.000161
C28	C	-1.206668	0.273437	0.000139
C29	C	-1.209303	0.142153	0.000148
C30	C	-1.034039	0.262814	0.000090
C31	C	-1.036662	0.131533	0.000105
C32	C	-0.946402	0.323146	0.000059
C33	C	-0.861398	0.252194	0.000047
C34	C	-0.864026	0.120904	0.000053
C35	C	-0.951659	0.060580	0.000082
N36	N	-1.121677	-0.297511	-0.355989
C37	C	-1.249561	-0.141158	0.356263
C38	C	-1.313512	-0.062984	0.428210
C39	C	-1.313522	-0.062985	0.572089
C40	C	-1.249571	-0.141164	0.644025
C41	C	-1.185619	-0.219337	0.572079
C42	C	-1.185618	-0.219331	0.428195
C43	C	-1.057725	-0.375684	0.572064
C44	C	-1.057719	-0.375692	0.428185
C45	C	-0.993774	-0.453863	0.644000
C46	C	-0.929826	-0.532045	0.572053
C47	C	-0.929819	-0.532042	0.428165
C48	C	-0.993767	-0.453865	0.356238
H49	H	-0.624995	-0.445725	0.000113
C50	C	-0.637437	-0.049789	-0.117387
C51	C	-0.607215	-0.115154	0.000122
H52	H	-0.610925	0.031539	-0.117385
H53	H	-0.616926	-0.094164	-0.197077
H54	H	-0.704957	-0.042396	-0.117378
H55	H	-0.539694	-0.122556	0.000108
H56	H	-0.627720	-0.070769	0.079833
C57	C	-1.552313	0.176462	0.000229
C58	C	-1.478261	0.086459	0.000221
H59	H	-1.611781	0.135521	0.000230
H60	H	-1.547694	0.227445	0.079935
H61	H	-1.547693	0.227444	-0.079488
H62	H	-1.482877	0.035482	0.079943
H63	H	-1.482882	0.035454	-0.079493
C64	C	-0.800923	-0.544725	0.733858
C65	C	-0.859538	-0.617968	0.651131
H66	H	-0.757535	-0.597775	0.782687
H67	H	-0.766465	-0.488579	0.677724
H68	H	-0.839021	-0.498165	0.797285
H69	H	-0.821440	-0.664521	0.587697
H70	H	-0.893999	-0.674137	0.707270
C71	C	-0.791392	-0.085057	0.000034
C72	C	-0.770588	0.042916	0.000023
H73	H	-0.733705	-0.133197	0.000006
H74	H	-0.827270	-0.104378	0.079754
H75	H	-0.827300	-0.104387	-0.079668
H76	H	-0.734686	0.062248	0.079730
H77	H	-0.734695	0.062245	-0.079706
C78	C	-1.439940	0.091575	0.557667
C79	C	-1.383813	0.022950	0.651182
H80	H	-1.483335	0.144623	0.606499
H81	H	-1.400162	0.141237	0.501554
H82	H	-1.474399	0.035402	0.501543
H83	H	-1.349348	0.079123	0.707300
H84	H	-1.423595	-0.026715	0.707319
H85	H	-0.953808	-0.046316	0.000096
H86	H	-1.299076	-0.025072	0.000197
H87	H	-0.944271	0.430043	0.000047
H88	H	-0.993771	-0.453861	0.239083
C89	C	-1.179938	-0.226276	0.850127
C90	C	-1.249571	-0.141153	0.802180
H91	H	-1.179933	-0.226261	0.947766
H92	H	-1.193445	-0.308057	0.817587
H93	H	-1.119207	-0.202225	0.817561
H94	H	-1.310303	-0.165209	0.834738
H95	H	-1.236069	-0.059354	0.834735
H96	H	-1.448524	0.341828	0.000199
C97	C	-1.334919	0.535321	-0.117356
C98	C	-1.288788	0.488697	0.000142
H99	H	-1.333143	0.624411	-0.117361
H100	H	-1.303634	0.503654	-0.197054
H101	H	-1.399271	0.509532	-0.117323
H102	H	-1.224434	0.514478	0.000105
H103	H	-1.320071	0.520377	0.079861
H104	H	-0.790051	0.301327	0.000013
C105	C	-1.339089	-0.176614	0.150161
C106	C	-1.249558	-0.141164	0.198108
H107	H	-1.339088	-0.176609	0.052523
H108	H	-1.352575	-0.258398	0.182706
H109	H	-1.386320	-0.118861	0.182723
H110	H	-1.202328	-0.198922	0.165554
H111	H	-1.236061	-0.059368	0.165549
H112	H	-0.993781	-0.453854	0.761155
C113	C	-0.875519	-0.743320	0.383856
C114	C	-0.859523	-0.617977	0.349083
H115	H	-0.832123	-0.796372	0.335030
H116	H	-0.866368	-0.754494	0.479830
H117	H	-0.938912	-0.764104	0.360268
H118	H	-0.796131	-0.597190	0.372681
H119	H	-0.868665	-0.606797	0.253088
C120	C	-1.333060	0.105660	0.266319
C121	C	-1.383832	0.022876	0.349093
H122	H	-1.376481	0.158641	0.217462
H123	H	-1.293326	0.155389	0.322424
H124	H	-1.294950	0.059089	0.202916
H125	H	-1.421937	0.069447	0.412502
H126	H	-1.423582	-0.026858	0.292982
