data_functionalizedCrystal
_audit_creation_method	'MofGen! by Chris Wilmer'
_symmetry_space_group_name_H-M	'P1'
_symmetry_Int_Tables_number	1
_symmetry_cell_setting	triclinic
loop_
_symmetry_equiv_pos_as_xyz
  x,y,z
_cell_length_a	12.837943
_cell_length_b	12.811415
_cell_length_c	9.130313
_cell_angle_alpha	84.564622
_cell_angle_beta	89.997654
_cell_angle_gamma	89.411917
loop_
_atom_site_label
_atom_site_type_symbol
_atom_site_fract_x
_atom_site_fract_y
_atom_site_fract_z
O1	O	1.376630	0.272977	-0.158026
O2	O	1.074767	0.259493	-0.156244
O3	O	1.233292	0.114202	-0.136935
O4	O	1.218104	0.418268	-0.177335
O5	O	1.233282	0.114196	0.106665
O6	O	1.074756	0.259487	0.087356
O7	O	1.376619	0.272972	0.085574
Cu8	Cu	1.225687	0.266229	0.108707
Cu9	Cu	1.225699	0.266236	-0.179377
O10	O	1.218093	0.418262	0.066264
C11	C	1.036121	0.254935	-0.033840
C12	C	0.920985	0.241348	-0.032039
C13	C	0.680732	0.404679	-0.053719
C14	C	0.572551	0.391918	-0.052026
C15	C	0.596440	0.203068	-0.026950
C16	C	0.704621	0.215828	-0.028643
C17	C	0.746763	0.316637	-0.042030
C18	C	0.854946	0.329397	-0.043733
C19	C	0.878833	0.140547	-0.018646
C20	C	0.770652	0.127787	-0.016953
C21	C	1.232436	0.075010	-0.009931
C22	C	1.229887	-0.041763	0.005575
C23	C	1.225090	-0.261177	-0.230891
C24	C	1.222695	-0.370896	-0.216328
C25	C	1.222695	-0.370922	0.049260
C26	C	1.225090	-0.261203	0.034698
C27	C	1.226289	-0.206334	-0.105382
C28	C	1.228691	-0.096614	-0.119943
C29	C	1.228683	-0.096642	0.145644
C30	C	1.226288	-0.206360	0.160206
C31	C	1.415265	0.277530	-0.036833
C32	C	1.530401	0.291116	-0.038644
C33	C	1.218950	0.457455	-0.060742
C34	C	1.221499	0.574228	-0.076258
N35	N	1.225685	0.266224	0.311331
N36	N	1.225709	0.266233	-0.382000
C37	C	1.295904	0.201922	0.396528
C38	C	1.295914	0.201923	0.549865
C39	C	1.155483	0.330538	0.532792
C40	C	1.155468	0.330531	0.379459
H41	H	0.562109	0.120994	-0.015930
F42	F	1.221417	-0.429259	-0.349912
F43	F	0.949117	0.046841	-0.006223
H44	H	1.353091	0.149560	0.619230
F45	F	1.080759	0.398977	0.605308
F46	F	0.725791	0.020504	-0.002702
F47	F	1.226381	-0.202780	-0.379971
H48	H	0.715043	0.486761	-0.064622
F49	F	1.229972	-0.038220	-0.269026
H50	H	1.098283	0.382893	0.310085
F51	F	1.221393	-0.429333	0.198330
H52	H	0.518791	0.463611	-0.061541
F53	F	1.225003	-0.264766	0.309281
F54	F	1.229968	-0.038267	0.279228
H55	H	1.353077	0.149558	0.341063
H56	H	0.889255	0.411480	-0.054631
