data_functionalizedCrystal
_audit_creation_method	'MofGen! by Chris Wilmer'
_symmetry_space_group_name_H-M	'P1'
_symmetry_Int_Tables_number	1
_symmetry_cell_setting	triclinic
loop_
_symmetry_equiv_pos_as_xyz
  x,y,z
_cell_length_a	14.971482
_cell_length_b	11.792254
_cell_length_c	14.048226
_cell_angle_alpha	89.993407
_cell_angle_beta	89.994098
_cell_angle_gamma	83.905603
loop_
_atom_site_label
_atom_site_type_symbol
_atom_site_fract_x
_atom_site_fract_y
_atom_site_fract_z
O1	O	1.187547	0.147888	-0.079149
O2	O	1.687547	0.647888	0.420851
O3	O	0.927218	0.165605	-0.079153
O4	O	1.427218	0.665605	0.420847
O5	O	1.063694	-0.008464	-0.079144
O6	O	1.563694	0.491536	0.420856
O7	O	1.051071	0.321957	-0.079158
O8	O	1.551071	0.821957	0.420842
O9	O	1.063677	-0.008474	0.079177
O10	O	1.563677	0.491526	0.579177
O11	O	0.927201	0.165595	0.079168
O12	O	1.427201	0.665595	0.579168
O13	O	1.187530	0.147878	0.079173
O14	O	1.687530	0.647878	0.579173
Zn15	Zn	1.057363	0.156735	0.104307
Zn16	Zn	1.557363	0.656735	0.604307
Zn17	Zn	1.057385	0.156748	-0.104288
Zn18	Zn	1.557385	0.656748	0.395712
O19	O	1.051054	0.321947	0.079163
O20	O	1.551054	0.821947	0.579163
C21	C	0.893882	0.164808	0.000007
C22	C	1.393882	0.664808	0.500007
C23	C	0.794575	0.162436	0.000005
C24	C	1.294575	0.662436	0.500005
C25	C	0.747917	0.161313	0.086307
C26	C	1.247917	0.661313	0.586307
C27	C	0.654609	0.159066	0.086308
C28	C	1.154609	0.659066	0.586308
C29	C	0.607961	0.157950	0.000006
C30	C	1.107961	0.657950	0.500006
C31	C	0.654626	0.159070	-0.086302
C32	C	1.154626	0.659070	0.413698
C33	C	0.747932	0.161309	-0.086302
C34	C	1.247932	0.661309	0.413698
C35	C	0.460145	0.154406	-0.086296
C36	C	0.960145	0.654406	0.413704
C37	C	0.366832	0.152169	-0.086296
C38	C	0.866832	0.652169	0.413704
C39	C	0.366822	0.152164	0.086315
C40	C	0.866822	0.652164	0.586315
C41	C	0.460128	0.154403	0.086315
C42	C	0.960128	0.654403	0.586315
C43	C	0.506787	0.155524	0.000006
C44	C	1.006787	0.655524	0.500006
C45	C	1.062891	-0.050755	0.000016
C46	C	1.562891	0.449245	0.500016
C47	C	1.060510	-0.176752	0.000015
C48	C	1.560510	0.323248	0.500015
C49	C	1.058577	-0.279076	0.000012
C50	C	1.558577	0.220924	0.500012
C51	C	1.056159	-0.407447	0.000003
C52	C	1.556159	0.092553	0.500003
C53	C	1.220867	0.148675	0.000010
C54	C	1.720867	0.648675	0.500010
C55	C	1.320173	0.151047	0.000006
C56	C	1.820173	0.651047	0.500006
C57	C	1.051858	0.364237	0.000001
C58	C	1.551858	0.864237	0.500001
C59	C	1.054238	0.490235	-0.000004
C60	C	1.554238	0.990235	0.499996
N61	N	1.057355	0.156725	0.246668
N62	N	1.557355	0.656725	0.746668
N63	N	1.057400	0.156749	-0.246649
N64	N	1.557400	0.656749	0.253351
C65	C	1.117806	0.079679	0.296490
C66	C	1.617806	0.579679	0.796490
C67	C	1.117812	0.079678	0.396148
C68	C	1.617812	0.579678	0.896148
C69	C	1.057371	0.156730	0.445981
C70	C	1.557371	0.656730	0.945981
C71	C	0.996913	0.233779	0.396152
C72	C	1.496913	0.733779	0.896152
C73	C	0.996904	0.233773	0.296496
C74	C	1.496904	0.733773	0.796496
C75	C	0.996939	0.233787	0.603867
C76	C	1.496939	0.733787	1.103867
C77	C	0.996950	0.233795	0.703529
C78	C	1.496950	0.733795	1.203529
C79	C	1.117847	0.079692	0.703518
C80	C	1.617847	0.579692	1.203518
C81	C	1.117838	0.079687	0.603862
C82	C	1.617838	0.579687	1.103862
C83	C	1.057381	0.156738	0.554040
C84	C	1.557381	0.656738	1.054040
H85	H	0.498106	0.155318	0.156589
H86	H	0.998106	0.655318	0.656589
H87	H	0.785890	0.162231	0.156584
H88	H	1.285890	0.662231	0.656584
H89	H	0.328828	0.151251	0.156591
H90	H	0.828828	0.651251	0.656591
H91	H	1.167035	0.016941	0.436712
H92	H	1.667035	0.516941	0.936712
C93	C	1.184320	-0.005068	0.549046
C94	C	1.684320	0.494932	1.049046
H95	H	1.220321	-0.050964	0.592989
H96	H	1.720321	0.449036	1.092989
H97	H	1.221744	0.035836	0.510153
H98	H	1.721744	0.535836	1.010153
H99	H	1.151904	-0.052386	0.510187
H100	H	1.651904	0.447614	1.010187
C101	C	1.184291	-0.005081	0.241681
C102	C	1.684291	0.494919	0.741681
H103	H	1.220287	-0.050973	0.285631
H104	H	1.720287	0.449027	0.785631
H105	H	1.221718	0.035819	0.202790
H106	H	1.721718	0.535819	0.702790
H107	H	1.151877	-0.052400	0.202823
H108	H	1.651877	0.447600	0.702823
H109	H	0.498131	0.155320	-0.156578
H110	H	0.998131	0.655320	0.343422
C111	C	0.603288	0.157840	0.181240
C112	C	1.103288	0.657840	0.681240
H113	H	0.644432	0.158841	0.232638
H114	H	1.144432	0.658841	0.732638
H115	H	0.573390	0.090833	0.184839
H116	H	1.073390	0.590833	0.684839
H117	H	0.560387	0.223110	0.184819
H118	H	1.060387	0.723110	0.684819
C119	C	0.930464	0.318542	0.758349
C120	C	1.430464	0.818542	1.258349
H121	H	0.939138	0.307515	0.824836
H122	H	1.439138	0.807515	1.324836
H123	H	0.870710	0.306084	0.742038
H124	H	1.370710	0.806084	1.242038
H125	H	0.940541	0.394317	0.742005
H126	H	1.440541	0.894317	1.242005
C127	C	1.184341	-0.005071	0.758318
C128	C	1.684341	0.494929	1.258318
H129	H	1.175684	0.005954	0.824806
H130	H	1.675684	0.505954	1.324806
H131	H	1.244093	0.007378	0.741974
H132	H	1.744093	0.507378	1.241974
H133	H	1.174253	-0.080844	0.741993
H134	H	1.674253	0.419156	1.241993
H135	H	0.947677	0.296511	0.255932
H136	H	1.447677	0.796511	0.755932
H137	H	0.328853	0.151262	-0.156571
H138	H	0.828853	0.651262	0.343429
H139	H	0.616638	0.158153	-0.156571
H140	H	1.116638	0.658153	0.343429
H141	H	0.947696	0.296512	0.436733
H142	H	1.447696	0.796512	0.936733
C143	C	0.799256	0.162551	-0.181234
C144	C	1.299256	0.662551	0.318766
H145	H	0.758110	0.161578	-0.232633
H146	H	1.258110	0.661578	0.267367
H147	H	0.842157	0.097292	-0.184821
H148	H	1.342157	0.597292	0.315179
H149	H	0.829150	0.229569	-0.184823
H150	H	1.329150	0.729569	0.315177
C151	C	0.930442	0.318547	0.549064
C152	C	1.430442	0.818547	1.049064
H153	H	0.894454	0.364446	0.593014
H154	H	1.394454	0.864446	1.093014
H155	H	0.893007	0.277645	0.510199
H156	H	1.393007	0.777645	1.010199
H157	H	0.962852	0.365860	0.510178
H158	H	1.462852	0.865860	1.010178
