data_functionalizedCrystal
_audit_creation_method	'MofGen! by Chris Wilmer'
_symmetry_space_group_name_H-M	'P1'
_symmetry_Int_Tables_number	1
_symmetry_cell_setting	triclinic
loop_
_symmetry_equiv_pos_as_xyz
  x,y,z
_cell_length_a	14.908558
_cell_length_b	14.908178
_cell_length_c	17.077396
_cell_angle_alpha	86.673435
_cell_angle_beta	86.688248
_cell_angle_gamma	89.819838
loop_
_atom_site_label
_atom_site_type_symbol
_atom_site_fract_x
_atom_site_fract_y
_atom_site_fract_z
Zn1	Zn	1.353996	-0.437468	-0.489714
Zn2	Zn	1.345225	-0.587844	-0.350454
Zn3	Zn	1.203631	-0.428806	-0.351362
Zn4	Zn	1.194934	-0.579101	-0.474585
O5	O	1.274446	-0.508305	-0.416529
O6	O	1.478657	-0.464700	-0.477192
O7	O	1.326411	-0.566781	-0.240724
O8	O	1.230887	-0.304123	-0.376427
O9	O	1.472213	-0.575181	-0.374878
O10	O	1.341359	-0.310487	-0.478073
O11	O	1.222382	-0.449936	-0.241391
O12	O	1.076652	-0.441458	-0.361757
O13	O	1.216065	-0.560279	-0.586442
O14	O	1.070262	-0.551880	-0.452288
O15	O	1.332927	-0.456222	-0.597557
O16	O	1.317978	-0.712516	-0.360208
O17	O	1.207560	-0.706093	-0.451407
C18	C	1.040832	-0.494781	-0.405480
C19	C	0.940889	-0.489017	-0.400771
C20	C	1.260898	-0.741933	-0.404086
C21	C	1.255185	-0.841884	-0.398792
C22	C	0.803330	-0.423319	-0.347085
C23	C	0.897235	-0.428730	-0.351507
C24	C	0.890632	-0.543896	-0.445617
C25	C	0.796726	-0.538484	-0.441196
C26	C	0.753079	-0.478195	-0.391927
C27	C	0.659172	-0.472789	-0.387501
C28	C	0.652570	-0.587950	-0.481615
C29	C	0.746475	-0.593361	-0.486037
C30	C	1.359396	-1.036176	-0.494794
C31	C	1.354031	-1.130090	-0.489823
C32	C	1.239085	-1.123627	-0.383885
C33	C	1.244450	-1.029714	-0.388856
C34	C	1.304609	-0.985992	-0.444311
C35	C	1.309978	-0.892076	-0.449277
C36	C	1.195028	-0.885615	-0.343343
C37	C	1.189663	-0.979529	-0.338373
C38	C	1.508973	-0.521882	-0.427621
C39	C	1.608914	-0.527667	-0.432348
C40	C	1.274504	-0.508242	-0.621279
C41	C	1.274529	-0.508215	-0.708532
C42	C	1.288072	-0.273766	-0.429039
C43	C	1.293878	-0.173819	-0.434370
C44	C	1.335382	-0.454027	-0.755311
C45	C	1.335394	-0.453998	-0.837294
C46	C	1.274558	-0.508161	-0.872495
C47	C	1.213699	-0.562351	-0.825710
C48	C	1.213683	-0.562375	-0.743729
C49	C	1.213738	-0.562299	-0.996584
C50	C	1.213755	-0.562276	-1.078571
C51	C	1.335450	-0.453922	-1.090149
C52	C	1.335433	-0.453946	-1.008168
C53	C	1.274576	-0.508137	-0.961388
C54	C	1.274444	-0.508306	-0.212581
C55	C	1.274608	-0.508089	-0.125350
H56	H	0.623636	-0.423698	-0.347385
C57	C	0.951954	-0.369196	-0.302910
C58	C	1.043537	-0.386821	-0.317339
C59	C	1.093971	-0.331984	-0.272592
H60	H	0.935890	-0.381341	-0.248703
H61	H	0.940117	-0.307892	-0.316988
H62	H	1.055368	-0.448111	-0.303256
H63	H	1.059629	-0.374671	-0.371537
H64	H	1.082134	-0.270680	-0.286670
H65	H	1.077899	-0.344133	-0.218388
H66	H	1.156115	-0.343929	-0.282382
C67	C	1.147764	-0.621270	-0.692835
C68	C	1.195323	-0.681845	-0.645091
C69	C	1.134626	-0.736104	-0.598189
H70	H	1.111506	-0.653615	-0.725439
H71	H	1.110594	-0.584637	-0.660788
H72	H	1.232478	-0.718474	-0.677135
H73	H	1.231577	-0.649526	-0.612471
H74	H	1.097456	-0.699471	-0.566142
H75	H	1.098372	-0.768442	-0.630799
H76	H	1.166886	-0.777205	-0.565785
H77	H	1.140681	-1.015140	-0.293224
C78	C	1.135581	-0.830967	-0.288625
C79	C	1.153139	-0.739361	-0.304856
C80	C	1.098391	-0.688992	-0.254473
H81	H	1.147847	-0.847042	-0.235673
H82	H	1.074260	-0.842854	-0.296402
H83	H	1.214447	-0.727480	-0.297073
H84	H	1.140869	-0.723258	-0.357799
H85	H	1.037069	-0.700879	-0.262250
H86	H	1.110661	-0.705076	-0.201523
H87	H	1.110290	-0.626833	-0.265483
H88	H	1.384948	-0.409876	-0.875378
C89	C	0.756102	-0.357781	-0.293576
C90	C	0.820211	-0.310868	-0.255261
C91	C	0.776741	-0.250479	-0.205968
H92	H	0.717467	-0.389921	-0.255709
H93	H	0.721772	-0.316485	-0.324003
H94	H	0.854526	-0.352158	-0.224835
H95	H	0.858850	-0.278709	-0.293108
H96	H	0.742410	-0.209182	-0.236396
H97	H	0.738106	-0.282626	-0.168106
H98	H	0.820232	-0.218635	-0.179971
C99	C	0.937994	-0.609226	-0.499244
C100	C	0.916339	-0.588428	-0.576904
C101	C	0.959964	-0.648582	-0.626328
H102	H	0.919153	-0.668780	-0.483838
H103	H	1.001126	-0.604573	-0.495508
H104	H	0.853221	-0.593090	-0.580637
H105	H	0.935182	-0.528885	-0.592334
H106	H	1.023095	-0.643928	-0.622592
H107	H	0.941119	-0.708132	-0.610915
H108	H	0.945283	-0.634474	-0.679026
H109	H	0.782026	-0.642444	-0.526152
H110	H	1.384924	-0.409924	-0.726656
C111	C	0.597854	-0.647427	-0.530274
C112	C	0.506274	-0.629773	-0.515871
C113	C	0.455843	-0.684538	-0.560684
H114	H	0.609637	-0.708744	-0.516250
H115	H	0.613976	-0.635219	-0.584473
H116	H	0.490158	-0.641987	-0.461684
H117	H	0.494463	-0.568466	-0.529898
H118	H	0.471965	-0.672331	-0.614883
H119	H	0.467634	-0.745853	-0.546657
H120	H	0.393701	-0.672563	-0.550924
H121	H	1.398640	-1.170947	-0.530936
C122	C	1.375310	-0.844767	-0.509567
C123	C	1.422121	-0.908822	-0.552730
C124	C	1.482301	-0.865277	-0.608287
H125	H	1.416687	-0.810387	-0.483460
H126	H	1.342995	-0.806167	-0.544094
H127	H	1.454434	-0.947407	-0.518209
H128	H	1.380768	-0.943206	-0.578854
H129	H	1.449987	-0.826677	-0.642813
H130	H	1.523672	-0.830898	-0.582173
H131	H	1.514064	-0.908731	-0.637584
H132	H	1.384976	-0.409847	-0.979510
H133	H	1.408386	-1.000578	-0.539943
C134	C	1.401413	-0.395099	-1.141070
C135	C	1.388386	-0.406642	-1.220400
C136	C	1.449122	-0.352461	-1.267334
H137	H	1.461103	-0.411700	-1.129900
H138	H	1.391746	-0.333907	-1.130273
H139	H	1.398059	-0.467820	-1.231194
H140	H	1.328708	-0.390035	-1.231595
H141	H	1.439456	-0.291269	-1.256537
H142	H	1.508808	-0.369066	-1.256157
H143	H	1.440286	-0.360279	-1.321165
C144	C	1.173827	-1.170990	-0.323563
C145	C	1.194749	-1.149314	-0.248046
C146	C	1.134645	-1.192915	-0.192459
H147	H	1.178417	-1.234120	-0.327724
H148	H	1.114269	-1.152125	-0.332915
H149	H	1.254293	-1.168184	-0.238698
H150	H	1.190154	-1.086192	-0.243860
H151	H	1.075087	-1.174050	-0.201810
H152	H	1.139239	-1.256043	-0.196627
H153	H	1.148827	-1.178208	-0.141215
C154	C	1.147601	-0.621105	-1.116644
C155	C	1.094279	-0.668545	-1.058132
C156	C	1.033320	-0.722738	-1.093175
H157	H	1.179620	-0.662343	-1.148156
H158	H	1.110386	-0.584442	-1.148587
H159	H	1.131489	-0.705206	-1.026203
H160	H	1.062241	-0.627330	-1.026616
H161	H	0.996105	-0.686074	-1.125118
H162	H	1.065347	-0.763970	-1.124687
H163	H	0.997129	-0.754926	-1.053481
C164	C	1.147816	-0.621198	-0.945689
C165	C	1.195386	-0.681768	-0.897950
C166	C	1.134698	-0.736034	-0.851045
H167	H	1.111559	-0.653545	-0.978291
H168	H	1.110645	-0.584569	-0.913639
H169	H	1.232541	-0.718393	-0.929997
H170	H	1.231639	-0.649446	-0.865332
H171	H	1.097526	-0.699405	-0.818995
H172	H	1.098444	-0.768375	-0.883653
H173	H	1.166964	-0.777132	-0.818643
H174	H	1.164162	-0.606448	-0.854377
