data_functionalizedCrystal
_audit_creation_method	'MofGen! by Chris Wilmer'
_symmetry_space_group_name_H-M	'P1'
_symmetry_Int_Tables_number	1
_symmetry_cell_setting	triclinic
loop_
_symmetry_equiv_pos_as_xyz
  x,y,z
_cell_length_a	14.044191
_cell_length_b	27.731996
_cell_length_c	12.503572
_cell_angle_alpha	93.487301
_cell_angle_beta	86.162165
_cell_angle_gamma	87.906582
loop_
_atom_site_label
_atom_site_type_symbol
_atom_site_fract_x
_atom_site_fract_y
_atom_site_fract_z
O1	O	1.261462	0.113918	-0.089295
O2	O	1.594796	0.447252	0.244039
O3	O	1.928129	0.780585	0.577372
O4	O	0.985557	0.109712	-0.089307
O5	O	1.318890	0.443045	0.244026
O6	O	1.652223	0.776378	0.577359
O7	O	1.132103	0.041821	-0.089277
O8	O	1.465436	0.375154	0.244056
O9	O	1.798770	0.708487	0.577389
O10	O	1.114916	0.181809	-0.089325
O11	O	1.448250	0.515143	0.244009
O12	O	1.781583	0.848476	0.577342
O13	O	1.121082	0.046936	0.089362
O14	O	1.454415	0.380269	0.422696
O15	O	1.787748	0.713602	0.756029
O16	O	0.974535	0.114827	0.089332
O17	O	1.307869	0.448160	0.422666
O18	O	1.641202	0.781493	0.755999
O19	O	1.250441	0.119033	0.089345
O20	O	1.583774	0.452367	0.422678
O21	O	1.917108	0.785700	0.756012
Cu22	Cu	1.111482	0.117397	0.105650
Cu23	Cu	1.444815	0.450730	0.438983
Cu24	Cu	1.778149	0.784064	0.772317
Cu25	Cu	1.124516	0.111348	-0.105612
Cu26	Cu	1.457849	0.444681	0.227721
Cu27	Cu	1.791183	0.778015	0.561055
O28	O	1.103895	0.186924	0.089315
O29	O	1.437228	0.520258	0.422648
O30	O	1.770562	0.853591	0.755982
C31	C	0.944759	0.110429	0.000011
C32	C	1.278093	0.443763	0.333345
C33	C	1.611426	0.777096	0.666678
C34	C	0.839616	0.104941	0.000008
C35	C	1.172949	0.438274	0.333341
C36	C	1.506283	0.771607	0.666674
C37	C	0.588896	0.133832	0.000009
C38	C	0.922229	0.467166	0.333342
C39	C	1.255562	0.800499	0.666675
C40	C	0.647108	0.094915	0.000020
C41	C	0.980442	0.428248	0.333353
C42	C	1.313775	0.761581	0.666687
C43	C	0.754229	0.100494	0.000013
C44	C	1.087563	0.433828	0.333346
C45	C	1.420896	0.767161	0.666680
C46	C	0.481765	0.128253	0.000015
C47	C	0.815098	0.461587	0.333349
C48	C	1.148431	0.794920	0.666682
C49	C	1.126239	0.026354	0.000046
C50	C	1.459572	0.359688	0.333380
C51	C	1.792906	0.693021	0.666713
C52	C	1.125175	-0.027352	0.000057
C53	C	1.458508	0.305982	0.333390
C54	C	1.791841	0.639315	0.666724
C55	C	1.124494	-0.363172	-0.097372
C56	C	1.457827	-0.029838	0.235961
C57	C	1.791161	0.303495	0.569294
C58	C	1.120456	-0.565020	-0.097391
C59	C	1.453790	-0.231687	0.235942
C60	C	1.787123	0.101647	0.569275
O61	O	1.125003	-0.593489	-0.180207
O62	O	1.458336	-0.260155	0.153126
O63	O	1.791669	0.073178	0.486460
N64	N	1.113947	-0.587473	-0.000016
N65	N	1.447280	-0.254139	0.333318
N66	N	1.780614	0.079194	0.666651
C67	C	1.108441	-0.559460	0.097372
C68	C	1.441774	-0.226126	0.430705
C69	C	1.775107	0.107207	0.764038
O70	O	1.102802	-0.583188	0.180195
O71	O	1.436135	-0.249855	0.513528
O72	O	1.769468	0.083479	0.846862
C73	C	1.112472	-0.357612	0.097390
C74	C	1.445805	-0.024279	0.430723
C75	C	1.779138	0.309055	0.764056
C76	C	1.118991	-0.335163	0.000008
C77	C	1.452324	-0.001829	0.333341
C78	C	1.785657	0.331504	0.666674
C79	C	1.131012	-0.340722	-0.194746
C80	C	1.464345	-0.007389	0.138587
C81	C	1.797678	0.325945	0.471921
C82	C	1.132026	-0.290263	-0.194740
C83	C	1.465360	0.043070	0.138593
C84	C	1.798693	0.376404	0.471926
C85	C	1.126523	-0.262254	-0.097361
C86	C	1.459856	0.071080	0.235973
C87	C	1.793190	0.404413	0.569306
C88	C	1.120005	-0.284704	0.000013
C89	C	1.453339	0.048630	0.333347
C90	C	1.786672	0.381963	0.666680
C91	C	1.106958	-0.329600	0.194776
C92	C	1.440292	0.003734	0.528109
C93	C	1.773625	0.337067	0.861442
C94	C	1.107964	-0.279135	0.194771
C95	C	1.441297	0.054198	0.528105
C96	C	1.774631	0.387532	0.861438
C97	C	1.114483	-0.256685	0.097390
C98	C	1.447817	0.076648	0.430723
C99	C	1.781150	0.409981	0.764056
C100	C	1.115517	-0.206235	0.097399
C101	C	1.448850	0.127098	0.430732
C102	C	1.782183	0.460431	0.764065
N103	N	1.122026	-0.183783	0.000023
N104	N	1.455359	0.149550	0.333357
N105	N	1.788692	0.482884	0.666690
C106	C	1.127529	-0.211792	-0.097356
C107	C	1.460862	0.121541	0.235977
C108	C	1.794196	0.454875	0.569310
C109	C	1.106327	-0.665433	0.097355
C110	C	1.439660	-0.332099	0.430689
C111	C	1.772993	0.001234	0.764022
C112	C	1.105321	-0.715894	0.097351
C113	C	1.438654	-0.382561	0.430684
C114	C	1.771987	-0.049228	0.764018
C115	C	1.117335	-0.721451	-0.097412
C116	C	1.450668	-0.388118	0.235921
C117	C	1.784001	-0.054785	0.569255
C118	C	1.118347	-0.670989	-0.097407
C119	C	1.451681	-0.337656	0.235927
C120	C	1.785014	-0.004322	0.569260
C121	C	1.112836	-0.642980	-0.000020
C122	C	1.446169	-0.309647	0.333313
C123	C	1.779503	0.023686	0.666646
C124	C	1.129660	-0.105824	-0.097337
C125	C	1.462993	0.227509	0.235996
C126	C	1.796327	0.560842	0.569330
C127	C	1.130678	-0.055361	-0.097323
C128	C	1.464011	0.277972	0.236011
C129	C	1.797345	0.611306	0.569344
C130	C	1.118659	-0.049808	0.097440
C131	C	1.451992	0.283525	0.430773
C132	C	1.785325	0.616859	0.764107
C133	C	1.117646	-0.100267	0.097426
C134	C	1.450979	0.233066	0.430760
C135	C	1.784313	0.566399	0.764093
C136	C	1.123144	-0.128275	0.000029
C137	C	1.456477	0.205059	0.333362
C138	C	1.789810	0.538392	0.666696
O139	O	1.110963	-0.177737	0.180171
O140	O	1.444296	0.155596	0.513504
O141	O	1.777629	0.488930	0.846838
O142	O	1.133146	-0.188054	-0.180168
O143	O	1.466480	0.145279	0.153166
O144	O	1.799813	0.478613	0.486499
C145	C	1.123480	-0.413631	-0.097378
C146	C	1.456813	-0.080297	0.235955
C147	C	1.790146	0.253036	0.569289
C148	C	1.116962	-0.436081	-0.000004
C149	C	1.450295	-0.102747	0.333329
C150	C	1.783628	0.230586	0.666663
C151	C	1.111459	-0.408071	0.097376
C152	C	1.444792	-0.074738	0.430709
C153	C	1.778125	0.258595	0.764042
C154	C	1.115956	-0.486542	-0.000008
C155	C	1.449289	-0.153209	0.333325
C156	C	1.782622	0.180124	0.666659
C157	C	1.121459	-0.514551	-0.097388
C158	C	1.454792	-0.181218	0.235945
C159	C	1.788126	0.152115	0.569279
C160	C	1.127968	-0.492099	-0.194763
C161	C	1.461302	-0.158766	0.138570
C162	C	1.794635	0.174568	0.471903
C163	C	1.128983	-0.441640	-0.194758
C164	C	1.462316	-0.108307	0.138576
C165	C	1.795649	0.225027	0.471909
C166	C	1.104949	-0.430524	0.194751
C167	C	1.438283	-0.097190	0.528085
C168	C	1.771616	0.236143	0.861418
C169	C	1.103936	-0.480983	0.194738
C170	C	1.437270	-0.147650	0.528071
C171	C	1.770603	0.185684	0.861404
C172	C	1.109440	-0.508992	0.097358
C173	C	1.442773	-0.175659	0.430691
C174	C	1.776106	0.157674	0.764025
C175	C	1.291239	0.118316	0.000024
C176	C	1.624572	0.451649	0.333357
C177	C	1.957905	0.784982	0.666691
C178	C	1.396382	0.123804	0.000021
C179	C	1.729716	0.457137	0.333354
C180	C	2.063049	0.790471	0.666688
C181	C	1.109759	0.202391	-0.000011
C182	C	1.443092	0.535724	0.333323
C183	C	1.776426	0.869057	0.666656
C184	C	1.110824	0.256096	-0.000029
C185	C	1.444157	0.589430	0.333305
C186	C	1.777490	0.922763	0.666638
N187	N	1.102322	0.121652	0.254240
N188	N	1.435655	0.454985	0.587574
N189	N	1.768988	0.788318	0.920907
N190	N	1.133684	0.107090	-0.254203
N191	N	1.467017	0.440423	0.079131
N192	N	1.800351	0.773756	0.412464
C193	C	1.088846	0.127915	0.473353
C194	C	1.422179	0.461248	0.806686
C195	C	1.755513	0.794581	1.140020
C196	C	1.147156	0.100828	0.526692
C197	C	1.480490	0.434162	0.860025
C198	C	1.813823	0.767495	1.193359
C199	C	1.139658	0.104313	0.648614
C200	C	1.472992	0.437646	0.981947
C201	C	1.806325	0.770980	1.315280
C202	C	1.096343	0.124430	0.351420
C203	C	1.429676	0.457764	0.684754
C204	C	1.763009	0.791097	1.018087
H205	H	0.619507	0.171338	-0.000007
H206	H	0.952841	0.504672	0.333326
H207	H	1.286174	0.838005	0.666659
Cl208	Cl	1.233284	0.061186	0.455830
Cl209	Cl	1.566618	0.394519	0.789163
Cl210	Cl	1.899951	0.727852	1.122496
Cl211	Cl	1.003085	0.167757	0.544215
Cl212	Cl	1.336418	0.501091	0.877548
Cl213	Cl	1.669751	0.834424	1.210881
H214	H	0.616500	0.057403	-0.000043
H215	H	0.949833	0.390737	0.333290
H216	H	1.283167	0.724070	0.666624
Cl217	Cl	1.138876	-0.027142	-0.219755
Cl218	Cl	1.472210	0.306191	0.113578
Cl219	Cl	1.805543	0.639525	0.446912
H220	H	1.134132	-0.128622	-0.176647
H221	H	1.467465	0.204711	0.156686
H222	H	1.800799	0.538045	0.490020
H223	H	1.137331	-0.271989	-0.274039
H224	H	1.470665	0.061344	0.059294
H225	H	1.803998	0.394677	0.392628
Cl226	Cl	1.095745	-0.509199	0.317174
Cl227	Cl	1.429078	-0.175865	0.650507
Cl228	Cl	1.762411	0.157468	0.983841
H229	H	1.135490	-0.363522	-0.274049
H230	H	1.468823	-0.030189	0.059284
H231	H	1.802157	0.303145	0.392618
H232	H	1.123655	-0.652714	-0.176704
H233	H	1.456988	-0.319381	0.156629
H234	H	1.790321	0.013953	0.489963
H235	H	1.121816	-0.744265	-0.176703
H236	H	1.455150	-0.410932	0.156631
H237	H	1.788483	-0.077599	0.489964
Cl238	Cl	1.099392	-0.630228	0.219797
Cl239	Cl	1.432726	-0.296895	0.553131
Cl240	Cl	1.766059	0.036438	0.886464
Cl241	Cl	1.097143	-0.744111	0.219779
Cl242	Cl	1.430476	-0.410777	0.553113
Cl243	Cl	1.763810	-0.077444	0.886446
H244	H	1.101651	-0.347869	0.274075
H245	H	1.434984	-0.014536	0.607408
H246	H	1.768318	0.318797	0.940741
H247	H	1.103462	-0.256332	0.274077
H248	H	1.436795	0.077001	0.607411
H249	H	1.770128	0.410335	0.940744
H250	H	1.112346	-0.118547	0.176722
H251	H	1.445679	0.214787	0.510056
H252	H	1.779013	0.548120	0.843389
H253	H	1.114183	-0.026994	0.176724
H254	H	1.447516	0.306339	0.510057
H255	H	1.780849	0.639673	0.843391
Cl256	Cl	1.134891	-0.527320	-0.317182
Cl257	Cl	1.468224	-0.193987	0.016151
Cl258	Cl	1.801558	0.139346	0.349484
Cl259	Cl	1.137177	-0.413425	-0.317188
Cl260	Cl	1.470510	-0.080092	0.016146
Cl261	Cl	1.803843	0.253241	0.349479
H262	H	1.100469	-0.407723	0.274051
H263	H	1.433803	-0.074390	0.607385
H264	H	1.767136	0.258943	0.940718
