data_functionalizedCrystal
_audit_creation_method	'MofGen! by Chris Wilmer'
_symmetry_space_group_name_H-M	'P1'
_symmetry_Int_Tables_number	1
_symmetry_cell_setting	triclinic
loop_
_symmetry_equiv_pos_as_xyz
  x,y,z
_cell_length_a	10.540539
_cell_length_b	14.519709
_cell_length_c	9.016244
_cell_angle_alpha	90.006926
_cell_angle_beta	89.999043
_cell_angle_gamma	95.897182
loop_
_atom_site_label
_atom_site_type_symbol
_atom_site_fract_x
_atom_site_fract_y
_atom_site_fract_z
O1	O	1.684558	-0.129970	-0.123274
O2	O	2.184558	0.370030	0.376726
O3	O	1.315019	-0.142215	-0.123293
O4	O	1.815019	0.357785	0.376707
O5	O	1.509586	-0.001907	-0.123269
O6	O	2.009586	0.498093	0.376731
O7	O	1.489991	-0.270278	-0.123297
O8	O	1.989991	0.229722	0.376703
O9	O	1.509575	-0.001898	0.123411
O10	O	2.009575	0.498102	0.623411
O11	O	1.315009	-0.142207	0.123388
O12	O	1.815009	0.357793	0.623388
O13	O	1.684547	-0.129961	0.123407
O14	O	2.184547	0.370039	0.623407
Cu15	Cu	1.499777	-0.136083	0.145921
Cu16	Cu	1.999777	0.363917	0.645921
Cu17	Cu	1.499790	-0.136093	-0.145807
Cu18	Cu	1.999790	0.363907	0.354193
O19	O	1.489980	-0.270270	0.123384
O20	O	1.989980	0.229730	0.623384
C21	C	1.267720	-0.141293	0.000046
C22	C	1.767720	0.358707	0.500046
C23	C	1.126800	-0.138545	0.000039
C24	C	1.626800	0.361455	0.500039
C25	C	1.508668	0.032462	0.000071
C26	C	2.008668	0.532462	0.500071
C27	C	1.505931	0.134858	0.000072
C28	C	2.005931	0.634858	0.500072
N29	N	1.499777	-0.136076	0.351108
N30	N	1.999777	0.363924	0.851108
C31	C	0.944448	-0.033266	0.000626
C32	C	1.444448	0.466734	0.500626
C33	C	1.091038	-0.036051	0.000054
C34	C	1.591038	0.463949	0.500054
C35	C	1.064631	-0.187874	-0.140828
C36	C	1.564631	0.312126	0.359172
C37	C	0.918122	-0.184376	-0.140930
C38	C	1.418122	0.315624	0.359070
C39	C	0.917600	-0.186452	0.139592
C40	C	1.417600	0.313548	0.639592
C41	C	1.064572	-0.187396	0.141438
C42	C	1.564572	0.312604	0.641438
C43	C	1.731846	-0.130884	0.000065
C44	C	2.231846	0.369116	0.500065
C45	C	1.872766	-0.133631	0.000062
C46	C	2.372766	0.366369	0.500062
C47	C	1.490899	-0.304639	0.000040
C48	C	1.990899	0.195361	0.500040
C49	C	1.493635	-0.407035	0.000029
C50	C	1.993635	0.092965	0.500029
C51	C	1.495856	0.509808	0.000033
C52	C	1.995856	1.009808	0.500033
C53	C	1.498654	0.405485	0.000044
C54	C	1.998654	0.905485	0.500044
C55	C	1.500893	0.322337	0.000054
C56	C	2.000893	0.822337	0.500054
C57	C	1.503692	0.218007	0.000062
C58	C	2.003692	0.718007	0.500062
N59	N	1.499799	-0.136093	-0.350993
N60	N	1.999799	0.363907	0.149007
C61	C	1.603915	-0.061029	0.414044
C62	C	2.103915	0.438971	0.914044
C63	C	1.604298	-0.061237	0.585935
C64	C	2.104298	0.438763	1.085935
C65	C	1.528392	-0.232626	0.586568
C66	C	2.028392	0.267374	1.086568
C67	C	1.529127	-0.232176	0.414624
C68	C	2.029127	0.267824	0.914624
C69	C	1.366737	-0.115457	0.414492
C70	C	1.866737	0.384543	0.914492
C71	C	1.367637	-0.113287	0.586448
C72	C	1.867637	0.386713	1.086448
H73	H	1.134044	0.002763	0.101034
H74	H	1.634044	0.502763	0.601034
C75	C	1.147990	0.016727	-0.136595
C76	C	1.647990	0.516727	0.363405
H77	H	1.237880	0.015208	-0.137406
H78	H	1.737880	0.515208	0.362594
H79	H	1.112446	-0.011646	-0.224213
H80	H	1.612446	0.488354	0.275787
H81	H	1.128796	0.079187	-0.132457
H82	H	1.628796	0.579187	0.367543
H83	H	1.289245	-0.170171	0.373789
H84	H	1.789245	0.329829	0.873789
C85	C	1.329499	-0.022300	0.355956
C86	C	1.829499	0.477700	0.855956
H87	H	1.248939	-0.011182	0.395532
H88	H	1.748939	0.488818	0.895532
H89	H	1.391991	0.026054	0.385431
H90	H	1.891991	0.526054	0.885431
H91	H	1.324579	-0.024306	0.250778
H92	H	1.824579	0.475694	0.750778
C93	C	1.093798	-0.289552	-0.147948
C94	C	1.593798	0.210448	0.352052
H95	H	1.055318	-0.318064	-0.233948
H96	H	1.555318	0.181936	0.266052
H97	H	1.183458	-0.291896	-0.152182
H98	H	1.683458	0.208104	0.347818
H99	H	1.060592	-0.321430	-0.062111
H100	H	1.560592	0.178570	0.437889
H101	H	1.455937	-0.289626	0.372987
H102	H	1.955937	0.210374	0.872987
H103	H	0.916272	0.007229	0.101649
H104	H	1.416272	0.507229	0.601649
H105	H	0.890288	-0.147925	-0.246221
H106	H	1.390288	0.352075	0.253779
H107	H	1.345932	-0.042267	0.627259
H108	H	1.845932	0.457733	1.127259
C109	C	1.657958	-0.257473	0.644718
C110	C	2.157958	0.242527	1.144718
H111	H	1.694792	-0.209151	0.707028
H112	H	2.194792	0.290849	1.207028
H113	H	1.645812	-0.313521	0.699619
H114	H	2.145812	0.186479	1.199619
H115	H	1.713217	-0.265057	0.563368
H116	H	2.213217	0.234943	1.063368
H117	H	1.107573	-0.153614	-0.245656
H118	H	1.607573	0.346386	0.254344
C119	C	0.852297	-0.283949	-0.149616
C120	C	1.352297	0.216051	0.350384
H121	H	0.915132	-0.326356	-0.153078
H122	H	1.415132	0.173644	0.346922
H123	H	0.799995	-0.296334	-0.064680
H124	H	1.299995	0.203666	0.435320
H125	H	0.801173	-0.290588	-0.236489
H126	H	1.301173	0.209412	0.263511
C127	C	0.875438	-0.141641	0.283838
C128	C	1.375438	0.358359	0.783838
H129	H	0.830096	-0.090292	0.260310
H130	H	1.330096	0.409708	0.760310
H131	H	0.821761	-0.185788	0.338830
H132	H	1.321761	0.314212	0.838830
H133	H	0.948456	-0.121177	0.341348
H134	H	1.448456	0.378823	0.841348
H135	H	0.914657	0.007051	-0.099827
H136	H	1.414657	0.507051	0.400173
H137	H	1.105897	-0.151359	0.245651
H138	H	1.605897	0.348641	0.745651
C139	C	1.096261	-0.288344	0.152924
C140	C	1.596261	0.211656	0.652924
H141	H	1.148080	-0.302082	0.071263
H142	H	1.648080	0.197918	0.571263
H143	H	1.140773	-0.296440	0.242827
H144	H	1.640773	0.203560	0.742827
H145	H	1.019471	-0.328793	0.151733
H146	H	1.519471	0.171207	0.651733
H147	H	1.626142	-0.250156	0.374511
H148	H	2.126142	0.249844	0.874511
C149	C	1.428652	-0.309966	0.641758
C150	C	1.928652	0.190034	1.141758
H151	H	1.368545	-0.284009	0.703523
H152	H	1.868545	0.215991	1.203523
H153	H	1.385834	-0.339541	0.559194
H154	H	1.885834	0.160459	1.059194
H155	H	1.470048	-0.354055	0.696637
H156	H	1.970048	0.145945	1.196637
H157	H	1.286539	-0.164315	0.629376
H158	H	1.786539	0.335685	1.129376
H159	H	0.869617	-0.260483	0.140536
H160	H	1.369617	0.239517	0.640536
H161	H	1.587232	0.010925	0.372686
H162	H	2.087232	0.510925	0.872686
C163	C	1.581395	0.035649	0.642976
C164	C	2.081395	0.535649	1.142976
H165	H	1.571776	0.075491	0.561062
H166	H	2.071776	0.575491	1.061062
H167	H	1.506205	0.031307	0.701721
H168	H	2.006205	0.531307	1.201721
H169	H	1.652108	0.059934	0.701314
H170	H	2.152108	0.559934	1.201314
C171	C	1.736542	-0.078736	0.355646
C172	C	2.236542	0.421264	0.855646
H173	H	1.728728	-0.131670	0.293084
H174	H	2.228728	0.368330	0.793084
H175	H	1.772013	-0.026387	0.300955
H176	H	2.272013	0.473613	0.800955
H177	H	1.790702	-0.089091	0.436870
H178	H	2.290702	0.410909	0.936870
H179	H	1.703036	-0.074544	0.627062
H180	H	2.203036	0.425456	1.127062
