data_functionalizedCrystal
_audit_creation_method	'MofGen! by Chris Wilmer'
_symmetry_space_group_name_H-M	'P1'
_symmetry_Int_Tables_number	1
_symmetry_cell_setting	triclinic
loop_
_symmetry_equiv_pos_as_xyz
  x,y,z
_cell_length_a	11.792241
_cell_length_b	11.792241
_cell_length_c	26.210047
_cell_angle_alpha	89.993828
_cell_angle_beta	89.980398
_cell_angle_gamma	84.193416
loop_
_atom_site_label
_atom_site_type_symbol
_atom_site_fract_x
_atom_site_fract_y
_atom_site_fract_z
O1	O	-1.506942	-0.155567	0.042372
O2	O	-1.176601	-0.171600	0.042386
O3	O	-1.349788	0.001587	0.042375
O4	O	-1.333755	-0.328754	0.042383
O5	O	-1.349707	0.001590	-0.042483
O6	O	-1.176520	-0.171596	-0.042472
O7	O	-1.506861	-0.155564	-0.042486
Cu8	Cu	-1.341683	-0.163580	-0.050227
Cu9	Cu	-1.341779	-0.163583	0.050127
O10	O	-1.333674	-0.328751	-0.042475
C11	C	-1.134269	-0.170591	-0.000042
C12	C	-1.008255	-0.167576	-0.000037
C13	C	-0.777543	-0.162034	-0.000050
C14	C	-0.905928	-0.165113	-0.000043
N15	N	-1.341624	-0.163577	-0.120811
C16	C	-1.348740	0.043880	-0.000054
C17	C	-1.345726	0.169894	-0.000053
C18	C	-0.549192	-0.156572	-0.000056
C19	C	-0.675206	-0.159587	-0.000054
C20	C	-1.334721	-0.371043	-0.000045
C21	C	-1.337736	-0.497057	-0.000043
C22	C	-1.340183	0.400606	-0.000045
C23	C	-1.343262	0.272221	-0.000049
C24	C	-1.265017	-0.240233	-0.526774
C25	C	-1.264962	-0.240233	-0.313115
O26	O	-1.199693	-0.305396	-0.285493
N27	N	-1.341660	-0.163573	-0.286395
C28	C	-1.418371	-0.086903	-0.313093
O29	O	-1.483598	-0.021692	-0.285463
C30	C	-1.418420	-0.086899	-0.526750
C31	C	-1.341725	-0.163571	-0.553468
C32	C	-1.188327	-0.316898	-0.553492
C33	C	-1.188346	-0.316902	-0.606903
C34	C	-1.265054	-0.240240	-0.633597
C35	C	-1.341743	-0.163575	-0.606879
C36	C	-1.495125	-0.010224	-0.553447
C37	C	-1.495128	-0.010228	-0.606865
C38	C	-1.418434	-0.086900	-0.633582
C39	C	-1.418470	-0.086916	-0.686985
N40	N	-1.341772	-0.163576	-0.713705
C41	C	-1.265064	-0.240238	-0.687011
C42	C	-1.418342	-0.086913	-0.200919
C43	C	-1.418332	-0.086915	-0.147505
C44	C	-1.264921	-0.240243	-0.147532
C45	C	-1.264937	-0.240246	-0.200947
C46	C	-1.341645	-0.163572	-0.227640
C47	C	-1.265110	-0.240240	-0.799179
C48	C	-1.265138	-0.240239	-0.852595
C49	C	-1.418545	-0.086907	-0.852564
C50	C	-1.418521	-0.086911	-0.799153
C51	C	-1.341794	-0.163581	-0.772461
O52	O	-1.483697	-0.021778	-0.714640
O53	O	-1.199830	-0.305422	-0.714650
C54	C	-1.264998	-0.240229	-0.473363
C55	C	-1.341688	-0.163564	-0.446645
C56	C	-1.418396	-0.086902	-0.473339
C57	C	-1.341677	-0.163567	-0.393231
C58	C	-1.264969	-0.240228	-0.366537
C59	C	-1.188271	-0.316888	-0.393257
C60	C	-1.188290	-0.316891	-0.446669
C61	C	-1.495093	-0.010243	-0.446618
C62	C	-1.495069	-0.010247	-0.393207
C63	C	-1.418361	-0.086908	-0.366513
N64	N	-1.341847	-0.163578	0.120711
H65	H	-1.202684	-0.302679	-0.874347
F66	F	-1.106636	-0.398481	-0.364839
H67	H	-1.480809	-0.024474	-0.222649
H68	H	-1.557557	0.052186	-0.468348
H69	H	-1.125838	-0.379325	-0.468418
F70	F	-1.500161	-0.005319	-0.770719
F71	F	-1.576753	0.071382	-0.525022
F72	F	-1.183448	-0.321841	-0.770780
F73	F	-1.106712	-0.398501	-0.635333
F74	F	-1.106676	-0.398498	-0.525089
F75	F	-1.183308	-0.321849	-0.229377
H76	H	-1.202463	-0.302666	-0.125789
F77	F	-1.576710	0.071359	-0.364777
F78	F	-1.500183	-0.005324	-0.880982
H79	H	-1.480796	-0.024493	-0.125755
F80	F	-1.576771	0.071384	-0.635270
