data_functionalizedCrystal
_audit_creation_method	'MofGen! by Chris Wilmer'
_symmetry_space_group_name_H-M	'P1'
_symmetry_Int_Tables_number	1
_symmetry_cell_setting	triclinic
loop_
_symmetry_equiv_pos_as_xyz
  x,y,z
_cell_length_a	15.500227
_cell_length_b	14.519731
_cell_length_c	14.519709
_cell_angle_alpha	83.684499
_cell_angle_beta	92.832432
_cell_angle_gamma	87.149950
loop_
_atom_site_label
_atom_site_type_symbol
_atom_site_fract_x
_atom_site_fract_y
_atom_site_fract_z
O1	O	-0.071948	1.228138	0.116711
O2	O	0.428052	1.728138	0.616711
O3	O	-0.071949	0.959664	0.130927
O4	O	0.428051	1.459664	0.630927
O5	O	-0.071941	1.101019	-0.010419
O6	O	0.428059	1.601019	0.489581
O7	O	-0.071956	1.086784	0.258056
O8	O	0.428044	1.586784	0.758056
O9	O	0.071947	1.092441	-0.001875
O10	O	0.571947	1.592441	0.498125
O11	O	0.071939	0.951086	0.139470
O12	O	0.571939	1.451086	0.639470
O13	O	0.071940	1.219561	0.125254
O14	O	0.571940	1.719561	0.625254
Cu15	Cu	0.085078	1.084540	0.133142
Cu16	Cu	0.585078	1.584540	0.633142
Cu17	Cu	-0.085087	1.094685	0.123038
Cu18	Cu	0.414913	1.594685	0.623038
O19	O	0.071932	1.078206	0.266600
O20	O	0.571932	1.578206	0.766600
C21	C	-0.000005	0.921016	0.134532
C22	C	0.499995	1.421016	0.634532
C23	C	-0.000006	0.818636	0.132536
C24	C	0.499994	1.318636	0.632536
N25	N	0.204762	1.077412	0.140248
N26	N	0.704762	1.577412	0.640248
N27	N	-0.204771	1.101820	0.115925
N28	N	0.295229	1.601820	0.615925
C29	C	-0.000009	0.735492	0.130914
C30	C	0.499991	1.235492	0.630914
C31	C	-0.000009	0.631183	0.128887
C32	C	0.499991	1.131183	0.628887
C33	C	-0.000009	0.548044	0.127279
C34	C	0.499991	1.048044	0.627279
C35	C	-0.000011	0.443729	0.125252
C36	C	0.499989	0.943729	0.625252
C37	C	0.250043	1.137330	0.080377
C38	C	0.750043	1.637330	0.580377
C39	C	0.340615	1.131947	0.085760
C40	C	0.840615	1.631947	0.585760
C41	C	0.385906	1.066651	0.151018
C42	C	0.885906	1.566651	0.651018
C43	C	0.340619	1.006727	0.210892
C44	C	0.840619	1.506727	0.710892
C45	C	0.250048	1.012105	0.205504
C46	C	0.750048	1.512105	0.705504
C47	C	0.659371	1.047275	0.170411
C48	C	1.159371	1.547275	0.670411
C49	C	0.749949	1.041902	0.175796
C50	C	1.249949	1.541902	0.675796
C51	C	0.749938	1.167122	0.050662
C52	C	1.249938	1.667122	0.550662
C53	C	0.659366	1.172499	0.045284
C54	C	1.159366	1.672499	0.545284
C55	C	0.614087	1.112572	0.105155
C56	C	1.114087	1.612572	0.605155
C57	C	0.478485	1.061150	0.156523
C58	C	0.978485	1.561150	0.656523
C59	C	0.521509	1.118069	0.099644
C60	C	1.021509	1.618069	0.599644
C61	C	0.000004	1.096067	-0.040507
C62	C	0.500004	1.596067	0.459493
C63	C	0.000004	1.094078	-0.142888
C64	C	0.500004	1.594078	0.357112
C65	C	-0.000005	1.258209	0.121648
C66	C	0.499995	1.758209	0.621648
C67	C	-0.000011	1.360590	0.123644
C68	C	0.499989	1.860590	0.623644
C69	C	-0.000019	1.086760	-0.517786
C70	C	0.499981	1.586760	-0.017786
C71	C	-0.000012	1.088793	-0.413478
C72	C	0.499988	1.588793	0.086522
C73	C	-0.000006	1.090419	-0.330340
C74	C	0.499994	1.590419	0.169660
C75	C	-0.000002	1.092452	-0.226025
C76	C	0.499998	1.592452	0.273975
C77	C	-0.000014	1.083158	0.296687
C78	C	0.499986	1.583158	0.796687
C79	C	-0.000021	1.085147	0.399069
C80	C	0.499979	1.585147	0.899069
H81	H	0.213173	1.190505	0.027241
H82	H	0.713173	1.690505	0.527241
Cl83	Cl	0.397540	1.207273	0.010491
Cl84	Cl	0.897540	1.707273	0.510491
H85	H	0.622492	1.225669	-0.007854
H86	H	1.122492	1.725669	0.492146
H87	H	0.515368	1.007985	0.209660
H88	H	1.015368	1.507985	0.709660
Cl89	Cl	0.806864	1.242452	-0.024602
Cl90	Cl	1.306864	1.742452	0.475398
Cl91	Cl	0.193125	0.936773	0.280771
Cl92	Cl	0.693125	1.436773	0.780771
H93	H	0.484631	1.171231	0.046507
H94	H	0.984631	1.671231	0.546507
H95	H	0.786820	0.988727	0.228941
H96	H	1.286820	1.488727	0.728941
Cl97	Cl	0.602456	0.971943	0.245678
Cl98	Cl	1.102456	1.471943	0.745678
H99	H	0.377500	0.953556	0.264024
H100	H	0.877500	1.453556	0.764024
