data_functionalizedCrystal
_audit_creation_method	'MofGen! by Chris Wilmer'
_symmetry_space_group_name_H-M	'P1'
_symmetry_Int_Tables_number	1
_symmetry_cell_setting	triclinic
loop_
_symmetry_equiv_pos_as_xyz
  x,y,z
_cell_length_a	25.639242
_cell_length_b	19.805406
_cell_length_c	19.805399
_cell_angle_alpha	90.014352
_cell_angle_beta	90.027395
_cell_angle_gamma	89.995496
loop_
_atom_site_label
_atom_site_type_symbol
_atom_site_fract_x
_atom_site_fract_y
_atom_site_fract_z
Zn1	Zn	0.799393	-0.269560	0.382923
Zn2	Zn	0.799367	-0.382748	0.269761
Zn3	Zn	0.711961	-0.269569	0.269732
Zn4	Zn	0.711973	-0.382703	0.382892
O5	O	0.755674	-0.326145	0.326327
O6	O	0.872555	-0.284589	0.367937
O7	O	0.787757	-0.367757	0.175041
O8	O	0.723565	-0.174851	0.284748
O9	O	0.872536	-0.367748	0.284797
O10	O	0.787800	-0.174844	0.367909
O11	O	0.723540	-0.284606	0.175020
O12	O	0.638798	-0.284562	0.284718
O13	O	0.723585	-0.367671	0.477613
O14	O	0.638806	-0.367681	0.367857
O15	O	0.787812	-0.284545	0.477636
O16	O	0.787769	-0.477458	0.284767
O17	O	0.723561	-0.477426	0.367884
C18	C	0.619831	-0.326118	0.326281
C19	C	0.561717	-0.326123	0.326278
C20	C	0.755684	-0.149602	0.326329
C21	C	0.755688	-0.074370	0.326330
C22	C	0.755678	-0.502001	0.326340
C23	C	0.755727	-0.577233	0.326369
C24	C	0.201368	-0.369497	0.369576
C25	C	0.146763	-0.369501	0.369587
O26	O	0.118538	-0.406346	0.406362
N27	N	0.119435	-0.326164	0.326371
C28	C	0.146713	-0.282814	0.283147
O29	O	0.118454	-0.245952	0.246390
C30	C	0.201316	-0.282807	0.283140
C31	C	0.228642	-0.326152	0.326354
C32	C	0.228693	-0.412839	0.412787
C33	C	0.283294	-0.412835	0.412775
C34	C	0.310569	-0.369490	0.369553
C35	C	0.283243	-0.326149	0.326342
C36	C	0.228594	-0.239454	0.239920
C37	C	0.283201	-0.239451	0.239917
C38	C	0.310527	-0.282796	0.283131
C39	C	0.365118	-0.282801	0.283108
N40	N	0.392447	-0.326139	0.326324
C41	C	0.365172	-0.369483	0.369546
C42	C	0.032042	-0.282831	0.283166
C43	C	-0.022560	-0.282841	0.283168
C44	C	-0.022506	-0.369528	0.369609
C45	C	0.032097	-0.369521	0.369602
C46	C	0.059371	-0.326169	0.326381
C47	C	0.479837	-0.369473	0.369518
C48	C	0.534442	-0.369468	0.369500
C49	C	0.534384	-0.282779	0.283062
C50	C	0.479783	-0.282787	0.283077
C51	C	0.452511	-0.326136	0.326310
O52	O	0.393378	-0.245972	0.246354
O53	O	0.393438	-0.406333	0.406303
C54	C	0.892047	-0.326172	0.326374
C55	C	0.950161	-0.326184	0.326393
C56	C	0.755703	-0.326102	0.502870
C57	C	0.755715	-0.326084	0.578102
C58	C	0.722248	-0.039029	0.283034
C59	C	0.722252	0.031660	0.283041
C60	C	0.755698	0.067005	0.326341
C61	C	0.789139	0.031659	0.369642
C62	C	0.789133	-0.039028	0.369637
C63	C	0.789165	0.316732	0.369662
C64	C	0.789170	0.387424	0.369661
C65	C	0.722284	0.387420	0.283066
C66	C	0.722277	0.316733	0.283061
C67	C	0.755717	0.281393	0.326364
C68	C	0.755712	0.204744	0.326356
C69	C	0.755706	0.143652	0.326346
C70	C	0.755675	-0.326139	0.150471
C71	C	0.755763	-0.325966	0.075240
C72	C	0.789159	-0.282798	0.613459
C73	C	0.789164	-0.282779	0.684148
C74	C	0.755728	-0.326049	0.719478
C75	C	0.722281	-0.369337	0.684116
C76	C	0.722274	-0.369352	0.613429
C77	C	0.722311	-0.369274	0.969189
C78	C	0.722322	-0.369256	1.039881
C79	C	0.789202	-0.282700	1.039908
C80	C	0.789194	-0.282716	0.969221
C81	C	0.755745	-0.326000	0.933865
C82	C	0.755739	-0.326020	0.857217
C83	C	0.755737	-0.326033	0.796125
H84	H	0.556689	-0.404768	0.404690
H85	H	0.816388	-0.247565	0.584698
H86	H	0.556601	-0.247491	0.247869
H87	H	0.305538	-0.448130	0.447965
F88	F	0.824800	-0.236629	1.077542
F89	F	0.686655	0.069270	0.236967
F90	F	0.686681	0.279119	0.236973
F91	F	-0.051636	-0.236715	0.237166
H92	H	0.695014	-0.067802	0.247771
F93	F	0.312224	-0.193307	0.193915
H94	H	0.816399	-0.247533	0.712932
F95	F	0.824783	-0.236664	0.931624
H96	H	0.695092	-0.404493	1.068645
H97	H	0.816370	0.060441	0.404901
F98	F	0.199674	-0.458976	0.458795
H99	H	0.695054	0.416202	0.247808
F100	F	0.686711	-0.415341	0.931570
F101	F	0.824724	-0.076641	0.415719
F102	F	0.686694	-0.415386	0.721719
F103	F	0.686677	-0.415421	0.575799
H104	H	0.816399	0.287967	0.404914
F105	F	0.450820	-0.415611	0.415531
F106	F	0.061175	-0.415654	0.415597
H107	H	-0.044723	-0.404820	0.404805
H108	H	0.054245	-0.247529	0.247965
H109	H	0.457533	-0.247493	0.247887
F110	F	0.824769	0.425040	0.415750
F111	F	0.199523	-0.193316	0.193929
