data_functionalizedCrystal
_audit_creation_method	'MofGen! by Chris Wilmer'
_symmetry_space_group_name_H-M	'P1'
_symmetry_Int_Tables_number	1
_symmetry_cell_setting	triclinic
loop_
_symmetry_equiv_pos_as_xyz
  x,y,z
_cell_length_a	8.497367
_cell_length_b	8.497374
_cell_length_c	18.215407
_cell_angle_alpha	90.001682
_cell_angle_beta	90.038963
_cell_angle_gamma	90.038609
loop_
_atom_site_label
_atom_site_type_symbol
_atom_site_fract_x
_atom_site_fract_y
_atom_site_fract_z
Zn1	Zn	0.628561	0.892471	1.125253
Zn2	Zn	1.128561	1.392471	1.625253
Zn3	Zn	0.892307	0.628890	1.125322
Zn4	Zn	1.392307	1.128890	1.625322
Zn5	Zn	0.628509	0.628698	1.002221
Zn6	Zn	1.128509	1.128698	1.502221
Zn7	Zn	0.892268	0.892622	1.002277
Zn8	Zn	1.392268	1.392622	1.502277
O9	O	0.760412	0.760670	1.063768
O10	O	1.260412	1.260670	1.563768
O11	O	0.663586	0.857523	1.228247
O12	O	1.163586	1.357523	1.728247
O13	O	0.857309	0.408102	1.108997
O14	O	1.357309	0.908102	1.608997
O15	O	0.407754	0.663545	1.018489
O16	O	0.907754	1.163545	1.518489
O17	O	0.857359	0.663872	1.228297
O18	O	1.357359	1.163872	1.728297
O19	O	0.407792	0.857337	1.108881
O20	O	0.907792	1.357337	1.608881
O21	O	0.663497	0.407961	1.018555
O22	O	1.163497	0.907961	1.518555
O23	O	0.663460	0.663691	0.899244
O24	O	1.163460	1.163691	1.399244
O25	O	0.857292	1.113364	1.018585
O26	O	1.357292	1.613364	1.518585
O27	O	0.857242	0.857594	0.899285
O28	O	1.357242	1.357594	1.399285
O29	O	0.663548	1.113253	1.108935
O30	O	1.163548	1.613253	1.608935
O31	O	1.113065	0.664018	1.109052
O32	O	1.613065	1.164018	1.609052
O33	O	1.113036	0.857780	1.018652
O34	O	1.613036	1.357780	1.518652
C35	C	0.760342	0.760639	0.872562
C36	C	1.260342	1.260639	1.372562
C37	C	0.760350	0.760663	0.790763
C38	C	1.260350	1.260663	1.290763
C39	C	1.348931	0.760524	1.063717
C40	C	1.848931	1.260524	1.563717
C41	C	1.170287	0.760813	1.063810
C42	C	1.670287	1.260813	1.563810
C43	C	0.659708	0.861665	0.525674
C44	C	1.159708	1.361665	1.025674
C45	C	0.659683	0.861660	0.602533
C46	C	1.159683	1.361660	1.102533
C47	C	0.861166	0.659709	0.602604
C48	C	1.361166	1.159709	1.102604
C49	C	0.861198	0.659723	0.525747
C50	C	1.361198	1.159723	1.025747
C51	C	0.760460	0.760699	0.487284
C52	C	1.260460	1.260699	0.987284
C53	C	0.760403	0.760680	0.641000
C54	C	1.260403	1.260680	1.141000
C55	C	0.760376	0.760674	0.724333
C56	C	1.260376	1.260674	1.224333
C57	C	0.760489	0.760708	0.403945
C58	C	1.260489	1.260708	0.903945
C59	C	0.760414	1.172150	1.063763
C60	C	1.260414	1.672150	1.563763
C61	C	0.760431	1.350794	1.063764
C62	C	1.260431	1.850794	1.563764
C63	C	0.760482	0.760702	1.255721
C64	C	1.260482	1.260702	1.755721
C65	C	0.760513	0.760716	1.337520
C66	C	1.260513	1.260716	1.837520
H67	H	0.577681	0.943886	0.494359
H68	H	1.077681	1.443886	0.994359
H69	H	0.577642	0.943879	0.633786
H70	H	1.077642	1.443879	1.133786
H71	H	0.943251	0.577503	0.494488
H72	H	1.443251	1.077503	0.994488
H73	H	0.943180	0.577495	0.633930
H74	H	1.443180	1.077495	1.133930
