data_functionalizedCrystal
_audit_creation_method	'MofGen! by Chris Wilmer'
_symmetry_space_group_name_H-M	'P1'
_symmetry_Int_Tables_number	1
_symmetry_cell_setting	triclinic
loop_
_symmetry_equiv_pos_as_xyz
  x,y,z
_cell_length_a	33.510554
_cell_length_b	33.509711
_cell_length_c	33.506470
_cell_angle_alpha	60.004186
_cell_angle_beta	60.008358
_cell_angle_gamma	59.994760
loop_
_atom_site_label
_atom_site_type_symbol
_atom_site_fract_x
_atom_site_fract_y
_atom_site_fract_z
O1	O	0.055430	-0.583081	0.487524
O2	O	0.555430	-0.083081	0.987524
O3	O	0.020931	-0.453975	0.392819
O4	O	0.520931	0.046025	0.892819
O5	O	0.102693	-0.535652	0.392731
O6	O	0.602693	-0.035652	0.892731
O7	O	-0.026332	-0.501404	0.487613
O8	O	0.473668	-0.001404	0.987613
O9	O	0.129823	-0.508526	0.419767
O10	O	0.629823	-0.008526	0.919767
O11	O	0.048062	-0.426850	0.419856
O12	O	0.548062	0.073150	0.919856
O13	O	0.082561	-0.555956	0.514561
O14	O	0.582561	-0.055956	1.014561
Cu15	Cu	0.067789	-0.488926	0.469677
Cu16	Cu	0.567789	0.011074	0.969677
Cu17	Cu	0.035703	-0.521005	0.437703
Cu18	Cu	0.535703	-0.021005	0.937703
O19	O	0.000799	-0.474279	0.514649
O20	O	0.500799	0.025721	1.014649
N21	N	0.090357	-0.466366	0.492168
N22	N	0.590357	0.033634	0.992168
N23	N	0.013139	-0.543569	0.415212
N24	N	0.513139	-0.043569	0.915212
C25	C	0.143028	-0.279707	0.544737
C26	C	0.643028	0.220293	1.044737
C27	C	0.143165	-0.413746	0.678712
C28	C	0.643165	0.086254	1.178712
C29	C	0.143043	-0.413725	0.544739
C30	C	0.643043	0.086275	1.044739
C31	C	0.277090	-0.413694	0.544637
C32	C	0.777090	0.086306	1.044637
C33	C	0.157791	-0.323929	0.559462
C34	C	0.657791	0.176071	1.059462
C35	C	0.157869	-0.398994	0.634489
C36	C	0.657869	0.101006	1.134489
C37	C	0.232865	-0.398963	0.559407
C38	C	0.732865	0.101037	1.059407
C39	C	0.157801	-0.398982	0.559463
C40	C	0.657801	0.101018	1.059463
C41	C	0.124237	-0.223419	0.525994
C42	C	0.624237	0.276581	1.025994
C43	C	0.124262	-0.432490	0.525997
C44	C	0.624262	0.067510	1.025997
C45	C	0.176583	-0.380217	0.578205
C46	C	0.676583	0.119783	1.078205
C47	C	0.358938	-0.399566	0.501510
C48	C	0.858938	0.100434	1.001510
C49	C	0.410104	-0.416609	0.484423
C50	C	0.910104	0.083391	0.984423
C51	C	0.410135	-0.499402	0.515995
C52	C	0.910135	0.000598	1.015995
C53	C	0.358969	-0.482358	0.533084
C54	C	0.858969	0.017642	1.033084
C55	C	0.136554	-0.197822	0.475693
C56	C	0.636554	0.302178	0.975693
C57	C	0.119469	-0.146653	0.458657
C58	C	0.619469	0.353347	0.958657
C59	C	0.077755	-0.146680	0.542223
C60	C	0.577755	0.353320	1.042223
C61	C	0.094840	-0.197850	0.559260
C62	C	0.594840	0.302150	1.059260
C63	C	0.073954	-0.420144	0.538396
C64	C	0.573954	0.079856	1.038396
C65	C	0.056884	-0.437203	0.521352
C66	C	0.556884	0.062797	1.021352
C67	C	0.140427	-0.478952	0.479524
C68	C	0.640427	0.021048	0.979524
C69	C	0.157498	-0.461894	0.496561
C70	C	0.657498	0.038106	0.996561
C71	C	0.074158	-0.420182	0.760618
C72	C	0.574158	0.079818	1.260618
C73	C	0.057149	-0.437256	0.811786
C74	C	0.557149	0.062744	1.311786
C75	C	0.140732	-0.479014	0.811717
C76	C	0.640732	0.020986	1.311717
C77	C	0.157740	-0.461942	0.760547
C78	C	0.657740	0.038058	1.260547
C79	C	0.124452	-0.432525	0.734999
C80	C	0.624452	0.067475	1.234999
C81	C	0.333372	-0.432439	0.525839
C82	C	0.833372	0.067561	1.025839
C83	C	-0.020612	-0.577650	0.170305
C84	C	0.479388	-0.077650	0.670305
C85	C	-0.020943	-0.788098	0.380897
C86	C	0.479057	-0.288098	0.880897
C87	C	-0.020912	-0.577638	0.380991
C88	C	0.479088	-0.077638	0.880991
C89	C	-0.231336	-0.577418	0.380585
C90	C	0.268664	-0.077418	0.880585
C91	C	-0.129735	-0.611383	0.346870
C92	C	0.370265	-0.111383	0.846870
C93	C	-0.054722	-0.611464	0.347017
C94	C	0.445278	-0.111464	0.847017
C95	C	-0.073450	-0.630202	0.328195
C96	C	0.426550	-0.130202	0.828195
C97	C	-0.087616	-0.712029	0.371239
C98	C	0.412384	-0.212029	0.871239
C99	C	-0.070599	-0.763199	0.388315
C100	C	0.429401	-0.263199	0.888315
C101	C	0.012191	-0.763282	0.356872
C102	C	0.512191	-0.263282	0.856872
C103	C	-0.004828	-0.712113	0.339795
C104	C	0.495172	-0.212113	0.839795
C105	C	-0.155381	-0.623711	0.397158
C106	C	0.344619	-0.123711	0.897158
C107	C	-0.206547	-0.606601	0.414133
C108	C	0.293453	-0.106601	0.914133
C109	C	-0.206417	-0.564839	0.330529
C110	C	0.293583	-0.064839	0.830529
C111	C	-0.155251	-0.581949	0.313554
C112	C	0.344749	-0.081949	0.813554
C113	C	-0.067051	-0.561160	0.334643
C114	C	0.432949	-0.061160	0.834643
C115	C	-0.050026	-0.544131	0.351759
C116	C	0.449974	-0.044131	0.851759
C117	C	-0.008343	-0.627704	0.393612
C118	C	0.491657	-0.127704	0.893612
C119	C	-0.025368	-0.644736	0.376502
C120	C	0.474632	-0.144736	0.876502
C121	C	-0.066922	-0.561168	0.246303
C122	C	0.433078	-0.061168	0.746303
C123	C	-0.049794	-0.544141	0.195134
C124	C	0.450206	-0.044141	0.695134
C125	C	-0.008048	-0.627719	0.195183
C126	C	0.491952	-0.127719	0.695183
C127	C	-0.025175	-0.644745	0.246352
C128	C	0.474825	-0.144745	0.746352
C129	C	-0.054614	-0.611468	0.271911
C130	C	0.445386	-0.111468	0.771911
C131	C	-0.054732	-0.686488	0.346980
C132	C	0.445268	-0.186488	0.846980
C133	C	-0.002117	-0.558258	0.114025
C134	C	0.497883	-0.058258	0.614025
C135	C	-0.002879	-0.844379	0.399940
C136	C	0.497121	-0.344379	0.899940
C137	C	-0.002504	-0.558243	0.399473
C138	C	0.497496	-0.058243	0.899473
C139	C	-0.287615	-0.558285	0.398601
C140	C	0.212385	-0.058285	0.898601
N141	N	0.434975	-0.466279	0.491900
N142	N	0.934975	0.033721	0.991900
O143	O	0.591199	-0.470749	0.375150
O144	O	1.091199	0.029251	0.875150
O145	O	0.591395	-0.565767	0.504116
O146	O	1.091395	-0.065767	1.004116
O147	O	0.591311	-0.565550	0.422329
O148	O	1.091311	-0.065550	0.922329
O149	O	0.591283	-0.470966	0.456937
O150	O	1.091283	0.029034	0.956937
O151	O	0.510024	-0.538522	0.449509
O152	O	1.010024	-0.038522	0.949509
O153	O	0.510108	-0.538739	0.531297
O154	O	1.010108	-0.038739	1.031297
O155	O	0.509913	-0.443721	0.402330
O156	O	1.009913	0.056279	0.902330
Cu157	Cu	0.502588	-0.488762	0.469295
Cu158	Cu	1.002588	0.011238	0.969295
Cu159	Cu	0.598719	-0.520726	0.437151
Cu160	Cu	1.098719	-0.020726	0.937151
O161	O	0.509997	-0.443938	0.484117
O162	O	1.009997	0.056062	0.984117
N163	N	0.666332	-0.543209	0.414541
N164	N	1.166332	-0.043209	0.914541
N165	N	0.090323	-0.121809	0.492157
N166	N	0.590323	0.378191	0.992157
O167	O	-0.026342	0.034503	0.487582
O168	O	0.473658	0.534503	0.987582
O169	O	0.102626	0.034543	0.392540
O170	O	0.602626	0.534543	0.892540
O171	O	0.020797	0.034507	0.392812
O172	O	0.520797	0.534507	0.892812
O173	O	0.055487	0.034539	0.487310
O174	O	0.555487	0.534539	0.987310
O175	O	0.047933	-0.046785	0.419900
O176	O	0.547933	0.453215	0.919900
O177	O	0.129763	-0.046749	0.419628
O178	O	0.629763	0.453251	0.919628
O179	O	0.000794	-0.046789	0.514670
O180	O	0.500794	0.453211	1.014670
Cu181	Cu	0.067756	-0.054192	0.469623
Cu182	Cu	0.567756	0.445808	0.969623
Cu183	Cu	0.035664	0.041946	0.437588
Cu184	Cu	0.535664	0.541946	0.937588
O185	O	0.082623	-0.046753	0.514399
O186	O	0.582623	0.453247	1.014399
N187	N	0.013091	0.109564	0.415054
N188	N	0.513091	0.609564	0.915054
N189	N	0.090671	-0.466416	0.836606
N190	N	0.590671	0.033584	1.336606
O191	O	0.086120	-0.583065	0.992910
O192	O	0.586120	-0.083065	1.492910
O193	O	-0.008880	-0.454051	0.992954
O194	O	0.491120	0.045949	1.492954
O195	O	-0.008658	-0.535864	0.992931
O196	O	0.491342	-0.035864	1.492931
O197	O	0.085897	-0.501252	0.992933
O198	O	0.585897	-0.001252	1.492933
O199	O	0.018407	-0.508749	0.911642
O200	O	0.518407	-0.008749	1.411642
O201	O	0.018185	-0.426936	0.911665
O202	O	0.518185	0.073064	1.411665
O203	O	0.113185	-0.555949	0.911621
O204	O	0.613185	-0.055949	1.411621
Cu205	Cu	0.068156	-0.488967	0.904221
Cu206	Cu	0.568156	0.011033	1.404221
Cu207	Cu	0.036148	-0.521034	1.000355
Cu208	Cu	0.536148	-0.021034	1.500355
O209	O	0.112963	-0.474136	0.911644
O210	O	0.612963	0.025864	1.411644
N211	N	0.013633	-0.543590	1.067970
N212	N	0.513633	-0.043590	1.567970
C213	C	0.031262	-0.424144	0.393290
C214	C	0.531262	0.075856	0.893290
C215	C	0.132513	-0.525291	0.393180
C216	C	0.632513	-0.025291	0.893180
C217	C	0.072229	-0.585787	0.514090
C218	C	0.572229	-0.085787	1.014090
C219	C	-0.029022	-0.484640	0.514200
C220	C	0.470978	0.015360	1.014200
C221	C	0.550775	-0.565338	0.533954
C222	C	1.050775	-0.065338	1.033954
C223	C	0.550672	-0.565070	0.432670
C224	C	1.050672	-0.065070	0.932670
C225	C	0.550530	-0.444149	0.372492
C226	C	1.050530	0.055851	0.872492
C227	C	0.550635	-0.444418	0.473776
C228	C	1.050635	0.055582	0.973776
C229	C	0.132408	-0.005998	0.392963
C230	C	0.632408	0.494002	0.892963
C231	C	0.031106	-0.006142	0.393333
C232	C	0.531106	0.493858	0.893333
C233	C	-0.029021	-0.006147	0.514213
C234	C	0.470979	0.493853	1.014213
C235	C	0.072314	-0.006104	0.513878
C236	C	0.572314	0.493896	1.013878
C237	C	-0.008430	-0.424240	0.952316
C238	C	0.491570	0.075760	1.452316
C239	C	-0.008150	-0.525550	0.952271
C240	C	0.491850	-0.025550	1.452271
C241	C	0.112735	-0.585760	0.952260
C242	C	0.612735	-0.085760	1.452260
C243	C	0.112461	-0.484444	0.952286
C244	C	0.612461	0.015556	1.452286
H245	H	0.016194	-0.427197	0.832639
H246	H	0.516194	0.072803	1.332639
H247	H	0.550467	-0.414317	0.335455
H248	H	1.050467	0.085683	0.835455
O249	O	-0.073171	-0.006243	0.549851
O250	O	0.426829	0.493757	1.049851
C251	C	-0.066699	-0.048335	0.591037
C252	C	0.433301	0.451665	1.091037
H253	H	-0.030909	-0.077757	0.579251
H254	H	0.469091	0.422243	1.079251
H255	H	-0.065556	-0.038807	0.618613
H256	H	0.434444	0.461193	1.118613
C257	C	-0.153476	-0.031303	0.629172
C258	C	0.346524	0.468697	1.129172
C259	C	-0.109521	-0.067441	0.614695
C260	C	0.390479	0.432559	1.114695
H261	H	-0.179892	-0.043088	0.643767
H262	H	0.320108	0.456912	1.143767
H263	H	-0.157837	-0.002944	0.601425
H264	H	0.342163	0.497056	1.101425
H265	H	-0.152517	-0.023366	0.652149
H266	H	0.347483	0.476634	1.152149
H267	H	-0.110478	-0.075373	0.591714
H268	H	0.389522	0.424627	1.091714
H269	H	-0.105161	-0.095802	0.642439
H270	H	0.394839	0.404198	1.142439
O271	O	0.550821	-0.600974	0.578120
O272	O	1.050821	-0.100974	1.078120
C273	C	0.550863	-0.643061	0.578100
C274	C	1.050863	-0.143061	1.078100
H275	H	0.535435	-0.632233	0.549180
H276	H	1.035435	-0.132233	1.049180
H277	H	0.589874	-0.669602	0.569524
H278	H	1.089874	-0.169602	1.069524
C279	C	0.537999	-0.681105	0.664247
C280	C	1.037999	-0.181105	1.164247
C281	C	0.519046	-0.667806	0.628730
C282	C	1.019046	-0.167806	1.128730
H283	H	0.518375	-0.696371	0.695478
H284	H	1.018375	-0.196371	1.195478
H285	H	0.537973	-0.652752	0.664261
H286	H	1.037973	-0.152752	1.164261
H287	H	0.570508	-0.703220	0.657094
H288	H	1.070508	-0.203220	1.157094
H289	H	0.486540	-0.645686	0.635880
H290	H	0.986540	-0.145686	1.135880
H291	H	0.519066	-0.696156	0.628719
H292	H	1.019066	-0.196156	1.128719
O293	O	0.550689	-0.409030	0.482643
O294	O	1.050689	0.090970	0.982643
C295	C	0.592824	-0.425834	0.494086
C296	C	1.092824	0.074166	0.994086
H297	H	0.606902	-0.467499	0.508101
H298	H	1.106902	0.032501	1.008101
H299	H	0.622263	-0.411875	0.459916
H300	H	1.122263	0.088125	0.959916
C301	C	0.562776	-0.355590	0.516601
C302	C	1.062776	0.144410	1.016601
C303	C	0.580064	-0.406764	0.533818
C304	C	1.080064	0.093236	1.033818
H305	H	0.554906	-0.343825	0.541107
H306	H	1.054906	0.156175	1.041107
H307	H	0.534389	-0.344267	0.508889
H308	H	1.034389	0.155733	1.008889
H309	H	0.587311	-0.343964	0.488126
H310	H	1.087311	0.156036	0.988126
H311	H	0.555527	-0.418389	0.562289
H312	H	1.055527	0.081611	1.062289
H313	H	0.608446	-0.418088	0.541535
H314	H	1.108446	0.081912	1.041535
H315	H	0.550685	-0.594783	0.425263
H316	H	1.050685	-0.094783	0.925263
H317	H	-0.038255	-0.387188	0.952329
H318	H	0.461745	0.112812	1.452329
O319	O	0.080945	-0.629997	0.549638
O320	O	0.580945	-0.129997	1.049638
C321	C	0.038954	-0.630126	0.591790
C322	C	0.538954	-0.130126	1.091790
H323	H	0.015642	-0.590953	0.591316
H324	H	0.515642	-0.090953	1.091316
H325	H	0.016873	-0.647641	0.592399
H326	H	0.516873	-0.147641	1.092399
C327	C	0.083034	-0.707636	0.638232
C328	C	0.583034	-0.207636	1.138232
C329	C	0.054405	-0.659523	0.637653
C330	C	0.554405	-0.159523	1.137653
H331	H	0.092564	-0.725771	0.666523
H332	H	0.592564	-0.225771	1.166523
H333	H	0.111324	-0.707550	0.609834
H334	H	0.611324	-0.207550	1.109834
H335	H	0.064629	-0.722225	0.638738
H336	H	0.564629	-0.222225	1.138738
H337	H	0.072812	-0.644933	0.637141
H338	H	0.572812	-0.144933	1.137141
H339	H	0.026118	-0.659607	0.666052
H340	H	0.526118	-0.159607	1.166052
O341	O	0.020483	-0.660092	0.170413
O342	O	0.520483	-0.160092	0.670413
C343	C	-0.005374	-0.689626	0.182858
C344	C	0.494626	-0.189626	0.682858
H345	H	-0.035199	-0.690089	0.219979
H346	H	0.464801	-0.190089	0.719979
H347	H	-0.022687	-0.674225	0.154010
H348	H	0.477313	-0.174225	0.654010
C349	C	0.066691	-0.741500	0.139686
C350	C	0.566691	-0.241500	0.639686
C351	C	0.030061	-0.742071	0.185280
C352	C	0.530061	-0.242071	0.685280
H353	H	0.088548	-0.773850	0.141179
H354	H	0.588548	-0.273850	0.641179
H355	H	0.084111	-0.721601	0.131300
H356	H	0.584111	-0.221601	0.631300
H357	H	0.052257	-0.728663	0.115651
H358	H	0.552257	-0.228663	0.615651
H359	H	0.044495	-0.754902	0.209314
H360	H	0.544495	-0.254902	0.709314
H361	H	0.012645	-0.761973	0.193671
H362	H	0.512645	-0.261973	0.693671
H363	H	0.142166	-0.477036	0.952281
H364	H	0.642166	0.022964	1.452281
H365	H	0.023675	-0.006147	0.363643
H366	H	0.523675	0.493853	0.863643
H367	H	0.079744	-0.006095	0.543566
H368	H	0.579744	0.493905	1.043566
O369	O	0.022507	-0.379942	0.357741
O370	O	0.522507	0.120058	0.857741
C371	C	0.027924	-0.386320	0.316563
C372	C	0.527924	0.113680	0.816563
H373	H	0.052411	-0.425284	0.317007
H374	H	0.552411	0.074716	0.817007
H375	H	-0.009456	-0.379379	0.317535
H376	H	0.490544	0.120621	0.817535
C377	C	0.021183	-0.302171	0.269124
C378	C	0.521183	0.197829	0.769124
C379	C	0.051262	-0.350027	0.269668
C380	C	0.551262	0.149973	0.769668
H381	H	0.035577	-0.279783	0.240197
H382	H	0.535577	0.220217	0.740197
H383	H	0.017532	-0.297874	0.296867
H384	H	0.517532	0.202126	0.796867
H385	H	-0.009965	-0.296395	0.269936
H386	H	0.490035	0.203605	0.769936
H387	H	0.082408	-0.355805	0.268862
H388	H	0.582408	0.144195	0.768862
H389	H	0.054920	-0.354325	0.241923
H390	H	0.554920	0.145675	0.741923
O391	O	0.176525	-0.005807	0.357294
O392	O	0.676525	0.494193	0.857294
C393	C	0.198319	-0.047813	0.343977
C394	C	0.698319	0.452187	0.843977
H395	H	0.182363	-0.077402	0.375317
H396	H	0.682363	0.422598	0.875317
H397	H	0.190762	-0.038253	0.310075
H398	H	0.690762	0.461747	0.810075
C399	C	0.273487	-0.030301	0.294397
C400	C	0.773487	0.469699	0.794397
C401	C	0.253892	-0.066644	0.332891
C402	C	0.753892	0.433356	0.832891
H403	H	0.307767	-0.041916	0.287556
H404	H	0.807767	0.458084	0.787556
H405	H	0.258804	-0.001999	0.303367
H406	H	0.758804	0.498001	0.803367
H407	H	0.267184	-0.022338	0.266150
H408	H	0.767184	0.477662	0.766150
H409	H	0.260189	-0.074602	0.361139
H410	H	0.760189	0.425398	0.861139
H411	H	0.268578	-0.094947	0.323925
H412	H	0.768578	0.405053	0.823925
O413	O	0.041754	-0.391626	0.735878
O414	O	0.541754	0.108374	1.235878
C415	C	-0.006284	-0.384383	0.769464
C416	C	0.493716	0.115617	1.269464
H417	H	-0.006156	-0.415240	0.805927
H418	H	0.493844	0.084760	1.305927
H419	H	-0.020944	-0.347935	0.774917
H420	H	0.479056	0.152065	1.274917
C421	C	-0.039289	-0.346122	0.704744
C422	C	0.460711	0.153878	1.204744
C423	C	-0.039131	-0.384024	0.749527
C424	C	0.460869	0.115976	1.249527
H425	H	-0.059551	-0.345898	0.692446
H426	H	0.440449	0.154102	1.192446
H427	H	-0.006925	-0.351000	0.682116
H428	H	0.493075	0.149000	1.182116
H429	H	-0.051504	-0.315753	0.709294
H430	H	0.448496	0.184247	1.209294
H431	H	-0.026910	-0.414392	0.744976
H432	H	0.473090	0.085608	1.244976
H433	H	-0.071494	-0.379150	0.772154
H434	H	0.428506	0.120850	1.272154
H435	H	-0.066081	-0.477343	0.543993
H436	H	0.433919	0.022657	1.043993
O437	O	-0.043514	-0.534441	0.952208
O438	O	0.456486	-0.034441	1.452208
C439	C	-0.025708	-0.582487	0.952192
C440	C	0.474292	-0.082487	1.452192
H441	H	0.015924	-0.595354	0.936819
H442	H	0.515924	-0.095354	1.436819
H443	H	-0.038077	-0.607782	0.991179
H444	H	0.461923	-0.107782	1.491179
C445	C	-0.096921	-0.567617	0.939154
C446	C	0.403079	-0.067617	1.439154
C447	C	-0.045788	-0.583419	0.920269
C448	C	0.454212	-0.083419	1.420269
H449	H	-0.109308	-0.568193	0.919465
H450	H	0.390692	-0.068193	1.419465
H451	H	-0.108918	-0.535248	0.939166
H452	H	0.391082	-0.035248	1.439166
H453	H	-0.107221	-0.588698	0.971643
H454	H	0.392779	-0.088698	1.471643
H455	H	-0.035488	-0.562334	0.887783
H456	H	0.464512	-0.062334	1.387783
H457	H	-0.033789	-0.615785	0.920251
H458	H	0.466211	-0.115785	1.420251
H459	H	0.142562	-0.622811	0.952240
H460	H	0.642562	-0.122811	1.452240
O461	O	0.176718	-0.534073	0.357649
O462	O	0.676718	-0.034073	0.857649
C463	C	0.185451	-0.573621	0.346356
C464	C	0.685451	-0.073621	0.846356
H465	H	0.162617	-0.597110	0.378683
H466	H	0.662617	-0.097110	0.878683
H467	H	0.174939	-0.559099	0.312839
H468	H	0.674939	-0.059099	0.812839
C469	C	0.268079	-0.575860	0.295924
C470	C	0.768079	-0.075860	0.795924
C471	C	0.240037	-0.604711	0.335630
C472	C	0.740037	-0.104711	0.835630
H473	H	0.301750	-0.595037	0.289305
H474	H	0.801750	-0.095037	0.789305
H475	H	0.262195	-0.549214	0.303530
H476	H	0.762195	-0.049214	0.803530
H477	H	0.259314	-0.563760	0.267998
H478	H	0.759314	-0.063760	0.767998
H479	H	0.248798	-0.616805	0.363556
H480	H	0.748798	-0.116805	0.863556
H481	H	0.245923	-0.631360	0.328028
H482	H	0.745923	-0.131360	0.828028
O483	O	0.173134	-0.507600	0.836459
O484	O	0.673134	-0.007600	1.336459
C485	C	0.221173	-0.514823	0.802875
C486	C	0.721173	-0.014823	1.302875
H487	H	0.221047	-0.509093	0.766410
H488	H	0.721047	-0.009093	1.266410
H489	H	0.235830	-0.487587	0.797428
H490	H	0.735830	0.012413	1.297428
C491	C	0.254174	-0.574282	0.867597
C492	C	0.754174	-0.074282	1.367597
C493	C	0.254020	-0.567248	0.822810
C494	C	0.754020	-0.067248	1.322810
H495	H	0.274437	-0.606619	0.879894
H496	H	0.774437	-0.106619	1.379894
H497	H	0.221810	-0.569414	0.890223
H498	H	0.721810	-0.069414	1.390223
H499	H	0.266387	-0.551581	0.863051
H500	H	0.766387	-0.051581	1.363051
H501	H	0.241801	-0.589944	0.827358
H502	H	0.741801	-0.089944	1.327358
H503	H	0.286383	-0.572121	0.800185
H504	H	0.786383	-0.072121	1.300185
H505	H	-0.090949	-0.534065	0.310634
H506	H	0.409051	-0.034065	0.810634
H507	H	0.046887	-0.396202	0.562361
H508	H	0.546887	0.103798	1.062361
O509	O	0.206583	-0.473905	0.735587
O510	O	0.706583	0.026095	1.235587
C511	C	0.214460	-0.452521	0.684946
C512	C	0.714460	0.047479	1.184946
H513	H	0.180869	-0.444813	0.677987
H514	H	0.680869	0.055187	1.177987
H515	H	0.221264	-0.416821	0.670424
H516	H	0.721264	0.083179	1.170424
C517	C	0.300505	-0.497266	0.667196
C518	C	0.800505	0.002734	1.167196
C519	C	0.259250	-0.487803	0.658648
C520	C	0.759250	0.012197	1.158648
H521	H	0.328135	-0.519028	0.650973
H522	H	0.828135	-0.019028	1.150973
H523	H	0.295199	-0.511671	0.701314
H524	H	0.795199	-0.011671	1.201314
H525	H	0.306169	-0.467513	0.655094
H526	H	0.806169	0.032487	1.155094
H527	H	0.253584	-0.517554	0.670755
H528	H	0.753584	-0.017554	1.170755
H529	H	0.264557	-0.473403	0.624532
H530	H	0.764557	0.026597	1.124532
O531	O	0.008011	-0.425275	0.533479
O532	O	0.508011	0.074725	1.033479
C533	C	-0.013193	-0.442788	0.584732
C534	C	0.486807	0.057212	1.084732
H535	H	0.015969	-0.474342	0.601195
H536	H	0.515969	0.025658	1.101195
H537	H	-0.029345	-0.412099	0.599901
H538	H	0.470655	0.087901	1.099901
C539	C	-0.089748	-0.421995	0.577770
C540	C	0.410252	0.078005	1.077770
C541	C	-0.053931	-0.460753	0.597990
C542	C	0.446069	0.039247	1.097990
H543	H	-0.114879	-0.433075	0.585948
H544	H	0.385121	0.066925	1.085948
H545	H	-0.075463	-0.410194	0.543239
H546	H	0.424537	0.089806	1.043239
H547	H	-0.103202	-0.396425	0.590412
H548	H	0.396798	0.103575	1.090412
H549	H	-0.040473	-0.486320	0.585342
H550	H	0.459527	0.013680	1.085342
H551	H	-0.068215	-0.472558	0.632518
H552	H	0.431785	0.027442	1.132518
O553	O	0.172783	-0.507496	0.450919
O554	O	0.672783	-0.007496	0.950919
C555	C	0.220846	-0.514746	0.443645
C556	C	0.720846	-0.014746	0.943645
H557	H	0.220757	-0.483897	0.449361
H558	H	0.720757	0.016103	0.949361
H559	H	0.235536	-0.551200	0.470862
H560	H	0.735536	-0.051200	0.970862
C561	C	0.253733	-0.552981	0.384194
C562	C	0.753733	-0.052981	0.884194
C563	C	0.253624	-0.515090	0.391210
C564	C	0.753624	-0.015090	0.891210
H565	H	0.273953	-0.553196	0.351850
H566	H	0.773953	-0.053196	0.851850
H567	H	0.221352	-0.548099	0.389096
H568	H	0.721352	-0.048099	0.889096
H569	H	0.265973	-0.583356	0.406878
H570	H	0.765973	-0.083356	0.906878
H571	H	0.241378	-0.484716	0.368530
H572	H	0.741378	0.015284	0.868530
H573	H	0.286004	-0.519967	0.386303
H574	H	0.786004	-0.019967	0.886303
H575	H	0.198463	-0.471942	0.486461
H576	H	0.698463	0.028058	0.986461
H577	H	0.338156	-0.509129	0.552896
H578	H	0.838156	-0.009129	1.052896
H579	H	0.430920	-0.389838	0.464614
H580	H	0.930920	0.110162	0.964614
O581	O	0.434924	-0.547911	0.523089
O582	O	0.934924	-0.047911	1.023089
C583	C	0.401387	-0.573271	0.548216
C584	C	0.901387	-0.073271	1.048216
H585	H	0.364921	-0.550958	0.569201
H586	H	0.864921	-0.050958	1.069201
H587	H	0.395920	-0.579193	0.520853
H588	H	0.895920	-0.079193	1.020853
C589	C	0.466187	-0.650521	0.558504
C590	C	0.966187	-0.150521	1.058504
C591	C	0.421399	-0.623118	0.584281
C592	C	0.921399	-0.123118	1.084281
H593	H	0.478531	-0.681270	0.580749
H594	H	0.978531	-0.181270	1.080749
H595	H	0.488781	-0.633436	0.541574
H596	H	0.988781	-0.133436	1.041574
H597	H	0.461625	-0.655451	0.535703
H598	H	0.961625	-0.155451	1.035703
H599	H	0.425963	-0.618183	0.607077
H600	H	0.925963	-0.118183	1.107077
H601	H	0.398806	-0.640204	0.601216
H602	H	0.898806	-0.140204	1.101216
H603	H	0.338097	-0.358917	0.495611
H604	H	0.838097	0.141083	0.995611
H605	H	0.129496	-0.125810	0.417697
H606	H	0.629496	0.374190	0.917697
O607	O	0.165085	-0.222583	0.443312
O608	O	0.665085	0.277417	0.943312
C609	C	0.172298	-0.189017	0.395261
C610	C	0.672298	0.310983	0.895261
H611	H	0.141437	-0.152550	0.395376
H612	H	0.641437	0.347450	0.895376
H613	H	0.208743	-0.183560	0.380573
H614	H	0.708743	0.316440	0.880573
C615	C	0.210535	-0.253773	0.362316
C616	C	0.710535	0.246227	0.862316
C617	C	0.172630	-0.208985	0.362456
C618	C	0.672630	0.291015	0.862456
H619	H	0.210742	-0.266091	0.342080
H620	H	0.710742	0.233909	0.842080
H621	H	0.205678	-0.276388	0.394689
H622	H	0.705678	0.223612	0.894689
H623	H	0.240902	-0.249220	0.350078
H624	H	0.740902	0.250780	0.850078
H625	H	0.142263	-0.213540	0.374700
H626	H	0.642263	0.286460	0.874700
H627	H	0.177482	-0.186371	0.330085
H628	H	0.677482	0.313629	0.830085
H629	H	0.053825	-0.125861	0.569312
H630	H	0.553825	0.374139	1.069312
H631	H	0.084809	-0.218687	0.600218
H632	H	0.584809	0.281313	1.100218
H633	H	-0.090896	-0.534066	0.267110
H634	H	0.409104	-0.034066	0.767110
O635	O	-0.061823	-0.495259	0.170339
O636	O	0.438177	0.004741	0.670339
C637	C	-0.091469	-0.469544	0.203873
C638	C	0.408531	0.030456	0.703873
H639	H	-0.110114	-0.493923	0.240329
H640	H	0.389886	0.006077	0.740329
H641	H	-0.067884	-0.458534	0.209369
H642	H	0.432116	0.041466	0.709369
C643	C	-0.107627	-0.393452	0.139057
C644	C	0.392373	0.106548	0.639057
C645	C	-0.130530	-0.423393	0.183832
C646	C	0.369470	0.076607	0.683832
H647	H	-0.131720	-0.364983	0.126694
H648	H	0.368280	0.135017	0.626694
H649	H	-0.087653	-0.410777	0.116464
H650	H	0.412347	0.089223	0.616464
H651	H	-0.087974	-0.384283	0.143643
H652	H	0.412026	0.115717	0.643643
H653	H	-0.150178	-0.432567	0.179245
H654	H	0.349822	0.067433	0.679245
H655	H	-0.150509	-0.406069	0.206424
H656	H	0.349491	0.093931	0.706424
H657	H	-0.015148	-0.685706	0.267200
H658	H	0.484852	-0.185706	0.767200
H659	H	-0.060067	-0.503170	0.341685
H660	H	0.439933	-0.003170	0.841685
H661	H	0.015562	-0.654800	0.417614
H662	H	0.515562	-0.154800	0.917614
O663	O	-0.013414	-0.693609	0.388587
O664	O	0.486586	-0.193609	0.888587
C665	C	-0.030989	-0.714854	0.439830
C666	C	0.469011	-0.214854	0.939830
H667	H	-0.036021	-0.690615	0.457774
H668	H	0.463979	-0.190615	0.957774
H669	H	-0.067556	-0.718614	0.451333
H670	H	0.432444	-0.218614	0.951333
C671	C	0.012188	-0.795495	0.433990
C672	C	0.512188	-0.295495	0.933990
C673	C	0.006012	-0.765727	0.456029
C674	C	0.506012	-0.265727	0.956029
H675	H	0.035010	-0.826877	0.443983
H676	H	0.535010	-0.326877	0.943983
H677	H	0.024027	-0.781182	0.399466
H678	H	0.524027	-0.281182	0.899466
H679	H	-0.018287	-0.798623	0.443578
H680	H	0.481713	-0.298623	0.943578
H681	H	0.036486	-0.762595	0.446437
H682	H	0.536486	-0.262595	0.946437
H683	H	-0.005821	-0.780041	0.490552
H684	H	0.494179	-0.280041	0.990552
O685	O	0.027181	-0.687377	0.316259
O686	O	0.527181	-0.187377	0.816259
C687	C	0.074878	-0.720969	0.313572
C688	C	0.574878	-0.220969	0.813572
H689	H	0.072887	-0.757429	0.343796
H690	H	0.572887	-0.257429	0.843796
H691	H	0.094450	-0.726431	0.276496
H692	H	0.594450	-0.226431	0.776496
C693	C	0.105674	-0.656251	0.282773
C694	C	0.605674	-0.156251	0.782773
C695	C	0.103230	-0.701030	0.319897
C696	C	0.603230	-0.201030	0.819897
H697	H	0.123164	-0.643951	0.286672
H698	H	0.623164	-0.143951	0.786672
H699	H	0.073541	-0.633619	0.284581
H700	H	0.573541	-0.133619	0.784581
H701	H	0.121984	-0.660809	0.251880
H702	H	0.621984	-0.160809	0.751880
H703	H	0.086915	-0.696470	0.350789
H704	H	0.586915	-0.196470	0.850789
H705	H	0.135362	-0.723661	0.318094
H706	H	0.635362	-0.223661	0.818094
H707	H	0.052828	-0.784146	0.351024
H708	H	0.552828	-0.284146	0.851024
O709	O	-0.231231	-0.536318	0.298189
O710	O	0.268769	-0.036318	0.798189
C711	C	-0.260847	-0.559528	0.305508
C712	C	0.239153	-0.059528	0.805508
H713	H	-0.245470	-0.600551	0.324103
H714	H	0.254530	-0.100551	0.824103
H715	H	-0.299638	-0.544399	0.329611
H716	H	0.200362	-0.044399	0.829611
C717	C	-0.280453	-0.499516	0.232985
C718	C	0.219547	0.000484	0.732985
C719	C	-0.261565	-0.549902	0.255821
C720	C	0.238435	-0.049902	0.755821
H721	H	-0.280898	-0.493576	0.202336
H722	H	0.219102	0.006424	0.702336
H723	H	-0.260502	-0.483877	0.228055
H724	H	0.239498	0.016123	0.728055
H725	H	-0.312777	-0.486915	0.253076
H726	H	0.187223	0.013085	0.753076
H727	H	-0.229239	-0.562500	0.235733
H728	H	0.270761	-0.062500	0.735733
H729	H	-0.281510	-0.565542	0.260746
H730	H	0.218490	-0.065542	0.760746
O731	O	-0.102619	-0.787935	0.411946
O732	O	0.397381	-0.287935	0.911946
C733	C	-0.150319	-0.754345	0.414647
C734	C	0.349681	-0.254345	0.914647
H735	H	-0.152275	-0.717863	0.411239
H736	H	0.347725	-0.217863	0.911239
H737	H	-0.159878	-0.748936	0.383661
H738	H	0.340122	-0.248936	0.883661
C739	C	-0.184465	-0.819048	0.468245
C740	C	0.315535	-0.319048	0.968245
C741	C	-0.186869	-0.774242	0.464063
C742	C	0.313131	-0.274242	0.964063
H743	H	-0.207012	-0.831321	0.498726
H744	H	0.292988	-0.331321	0.998726
H745	H	-0.152329	-0.841679	0.466424
H746	H	0.347671	-0.341679	0.966424
H747	H	-0.192431	-0.814534	0.442420
H748	H	0.307569	-0.314534	0.942420
H749	H	-0.178898	-0.778757	0.489884
H750	H	0.321102	-0.278757	0.989884
H751	H	-0.219005	-0.751612	0.465889
H752	H	0.280995	-0.251612	0.965889
H753	H	-0.134607	-0.647683	0.424287
H754	H	0.365393	-0.147683	0.924287
O755	O	-0.231444	-0.618660	0.462990
O756	O	0.268556	-0.118660	0.962990
C757	C	-0.218977	-0.669908	0.484254
C758	C	0.281023	-0.169908	0.984254
H759	H	-0.204872	-0.686410	0.455114
H760	H	0.295128	-0.186410	0.955114
H761	H	-0.189320	-0.685090	0.500475
H762	H	0.310680	-0.185090	1.000475
C763	C	-0.281797	-0.662822	0.560727
C764	C	0.218203	-0.162822	1.060727
C765	C	-0.264477	-0.683089	0.524936
C766	C	0.235523	-0.183089	1.024936
H767	H	-0.309862	-0.670954	0.585823
H768	H	0.190138	-0.170954	1.085823
H769	H	-0.290195	-0.628296	0.546401
H770	H	0.209805	-0.128296	1.046401
H771	H	-0.257078	-0.675476	0.574238
H772	H	0.242922	-0.175476	1.074238
H773	H	-0.289192	-0.670431	0.511422
H774	H	0.210808	-0.170431	1.011422
H775	H	-0.256084	-0.717614	0.539260
H776	H	0.243916	-0.217614	1.039260
O777	O	-0.130355	-0.570035	0.264697
O778	O	0.369645	-0.070035	0.764697
C779	C	-0.142834	-0.587505	0.243396
C780	C	0.357166	-0.087505	0.743396
H781	H	-0.156945	-0.619036	0.272511
H782	H	0.343055	-0.119036	0.772511
H783	H	-0.172488	-0.556785	0.227185
H784	H	0.327512	-0.056785	0.727185
C785	C	-0.080011	-0.566768	0.166938
C786	C	0.419989	-0.066768	0.666938
C787	C	-0.097339	-0.605497	0.202696
C788	C	0.402661	-0.105497	0.702696
H789	H	-0.051948	-0.577864	0.141831
H790	H	0.448052	-0.077864	0.641831
H791	H	-0.071605	-0.554996	0.181288
H792	H	0.428395	-0.054996	0.681288
H793	H	-0.104727	-0.541171	0.153434
H794	H	0.395273	-0.041171	0.653434
H795	H	-0.072625	-0.631090	0.216203
H796	H	0.427375	-0.131090	0.716203
H797	H	-0.105740	-0.617273	0.188348
H798	H	0.394260	-0.117273	0.688348
H799	H	-0.128252	-0.691169	0.377093
H800	H	0.371748	-0.191169	0.877093
