data_functionalizedCrystal
_audit_creation_method	'MofGen! by Chris Wilmer'
_symmetry_space_group_name_H-M	'P1'
_symmetry_Int_Tables_number	1
_symmetry_cell_setting	triclinic
loop_
_symmetry_equiv_pos_as_xyz
  x,y,z
_cell_length_a	10.654550
_cell_length_b	14.853567
_cell_length_c	9.730223
_cell_angle_alpha	90.002458
_cell_angle_beta	89.996251
_cell_angle_gamma	84.059917
loop_
_atom_site_label
_atom_site_type_symbol
_atom_site_fract_x
_atom_site_fract_y
_atom_site_fract_z
O1	O	1.666519	0.126622	-0.114390
O2	O	1.300915	0.138686	-0.114367
O3	O	1.493482	0.001477	-0.114383
O4	O	1.473951	0.263832	-0.114374
O5	O	1.493480	0.001480	0.114197
O6	O	1.300912	0.138690	0.114213
O7	O	1.666516	0.126625	0.114190
Zn8	Zn	1.483714	0.132658	0.150493
Zn9	Zn	1.483717	0.132654	-0.150671
O10	O	1.473949	0.263835	0.114206
C11	C	1.254125	0.137802	-0.000074
C12	C	1.114709	0.135152	-0.000066
C13	C	1.492596	-0.032115	-0.000097
C14	C	1.489944	-0.132213	-0.000109
C15	C	1.034384	0.215939	-0.000083
C16	C	0.903389	0.213443	-0.000107
C17	C	0.933057	0.049367	-0.000102
C18	C	1.064050	0.051863	-0.000068
C19	C	1.017254	0.310667	-0.000091
C20	C	0.886260	0.308171	-0.000115
C21	C	1.364344	-0.545419	-0.000075
C22	C	1.593119	-0.565475	-0.000090
C23	C	1.595613	-0.471428	-0.000098
C24	C	1.482470	-0.414372	-0.000093
C25	C	1.366834	-0.451363	-0.000079
C26	C	1.711247	-0.434430	-0.000097
C27	C	1.713745	-0.340378	-0.000104
C28	C	1.600601	-0.283320	-0.000109
C29	C	1.484961	-0.320316	-0.000097
C30	C	1.371818	-0.263260	-0.000091
C31	C	1.256176	-0.300254	-0.000089
C32	C	1.253691	-0.394305	-0.000084
C33	C	1.603087	-0.189269	-0.000114
C34	C	1.374308	-0.169204	-0.000096
C35	C	1.713306	0.127510	-0.000106
C36	C	1.852722	0.130160	-0.000123
C37	C	1.474835	0.297427	-0.000083
C38	C	1.477487	0.397525	-0.000080
N39	N	1.483721	0.132661	0.356030
N40	N	1.483720	0.132644	-0.356207
C41	C	1.569012	0.071925	0.427949
C42	C	1.569009	0.071914	0.571832
C43	C	1.398420	0.193382	0.571864
C44	C	1.398418	0.193388	0.427984
C45	C	1.667504	0.001799	0.427931
C46	C	1.667501	0.001788	0.571814
H47	H	1.129447	-0.013921	-0.000035
H48	H	0.891794	-0.018444	-0.000125
H49	H	1.807907	-0.310265	-0.000108
C50	C	1.640109	-0.090625	0.375752
C51	C	1.741636	-0.128186	0.295879
C52	C	1.716444	-0.213325	0.247799
H53	H	1.565640	-0.084360	0.321436
H54	H	1.628640	-0.129174	0.451645
H55	H	1.753089	-0.089647	0.219997
H56	H	1.816116	-0.134474	0.350166
H57	H	1.704976	-0.251874	0.323693
H58	H	1.641973	-0.207051	0.193489
H59	H	1.785330	-0.238825	0.193611
C60	C	1.627950	-0.085530	0.631528
C61	C	1.725959	-0.127225	0.712456
C62	C	1.689568	-0.207652	0.767513
H63	H	1.610030	-0.125027	0.558967
H64	H	1.554706	-0.072303	0.686567
H65	H	1.799181	-0.140455	0.657420
H66	H	1.743892	-0.087754	0.785039
H67	H	1.616324	-0.194425	0.822552
H68	H	1.671648	-0.247142	0.694943
H69	H	1.756056	-0.235948	0.822439
C70	C	1.306011	0.259376	0.349729
C71	C	1.372987	0.315007	0.267109
C72	C	1.287902	0.375802	0.194990
H73	H	1.255182	0.295627	0.413039
H74	H	1.253702	0.226621	0.293518
H75	H	1.425275	0.347759	0.323314
H76	H	1.423813	0.278781	0.203774
H77	H	1.235593	0.343047	0.138779
H78	H	1.237077	0.412047	0.258310
H79	H	1.333333	0.413549	0.138915
H80	H	1.046200	0.347716	0.095576
C81	C	1.064140	0.350954	-0.131741
C82	C	0.961674	0.375090	-0.218997
C83	C	1.004816	0.412212	-0.340278
H84	H	1.122179	0.307562	-0.176189
H85	H	1.104856	0.403169	-0.110372
H86	H	0.920978	0.322881	-0.240368
H87	H	0.903626	0.418490	-0.174592
H88	H	1.045532	0.464428	-0.318909
H89	H	1.062855	0.368816	-0.384714
H90	H	0.935300	0.428600	-0.399491
C91	C	0.825179	0.346420	0.131534
C92	C	0.918241	0.374296	0.218781
C93	C	0.862018	0.409542	0.340058
H94	H	0.783176	0.301129	0.175992
H95	H	0.765924	0.396727	0.110157
H96	H	0.977474	0.323994	0.240160
H97	H	0.960250	0.419596	0.174367
H98	H	0.802763	0.459849	0.318681
H99	H	0.820017	0.364246	0.384503
H100	H	0.925150	0.428467	0.399265
C101	C	1.305872	0.259459	0.649811
C102	C	1.326355	0.348192	0.614805
C103	C	1.241110	0.409087	0.686563
H104	H	1.317991	0.250883	0.745823
H105	H	1.222023	0.249159	0.626199
H106	H	1.410183	0.358488	0.638426
H107	H	1.314225	0.356797	0.518805
H108	H	1.157261	0.398787	0.662951
H109	H	1.253236	0.400503	0.782572
H110	H	1.254988	0.469298	0.662812
H111	H	1.758459	0.023756	0.383300
H112	H	1.763852	0.017235	0.610859
C113	C	1.133379	-0.238258	-0.000366
C114	C	1.128126	-0.183693	-0.117978
C115	C	1.015021	-0.126576	-0.118289
H116	H	1.129478	-0.201067	0.079255
H117	H	1.064112	-0.273723	-0.000440
H118	H	1.197373	-0.148232	-0.117891
H119	H	1.132005	-0.220860	-0.197618
H120	H	0.945754	-0.162041	-0.118363
H121	H	1.011130	-0.089392	-0.038663
H122	H	1.011437	-0.089554	-0.198093
H123	H	0.844157	0.343862	-0.095782
H124	H	1.159541	-0.424435	-0.000080
H125	H	1.282173	-0.122754	-0.000097
H126	H	1.270191	-0.575545	-0.000079
H127	H	1.685234	-0.611936	-0.000083
H128	H	1.803361	-0.480892	-0.000089
H129	H	1.697240	-0.159152	-0.000107
