data_functionalizedCrystal
_audit_creation_method	'MofGen! by Chris Wilmer'
_symmetry_space_group_name_H-M	'P1'
_symmetry_Int_Tables_number	1
_symmetry_cell_setting	triclinic
loop_
_symmetry_equiv_pos_as_xyz
  x,y,z
_cell_length_a	26.210047
_cell_length_b	27.732048
_cell_length_c	27.732048
_cell_angle_alpha	82.642655
_cell_angle_beta	89.999521
_cell_angle_gamma	89.996535
loop_
_atom_site_label
_atom_site_type_symbol
_atom_site_fract_x
_atom_site_fract_y
_atom_site_fract_z
O1	O	0.042369	-0.640931	-0.057510
O2	O	0.375702	-0.307598	0.275823
O3	O	0.709035	0.025736	0.609157
O4	O	0.042385	-0.500138	-0.066256
O5	O	0.375718	-0.166804	0.267078
O6	O	0.709052	0.166529	0.600411
O7	O	0.042367	-0.574907	0.008514
O8	O	0.375700	-0.241574	0.341847
O9	O	0.709033	0.091760	0.675181
O10	O	0.042387	-0.566162	-0.132279
O11	O	0.375720	-0.232828	0.201054
O12	O	0.709054	0.100505	0.534387
O13	O	-0.042491	-0.574893	0.008502
O14	O	0.290842	-0.241559	0.341836
O15	O	0.624175	0.091774	0.675169
O16	O	-0.042473	-0.500123	-0.066267
O17	O	0.290860	-0.166790	0.267066
O18	O	0.624194	0.166543	0.600399
O19	O	-0.042489	-0.640917	-0.057522
O20	O	0.290844	-0.307583	0.275812
O21	O	0.624177	0.025750	0.609145
Cu22	Cu	-0.050229	-0.570519	-0.061896
Cu23	Cu	0.283104	-0.237185	0.271438
Cu24	Cu	0.616437	0.096148	0.604771
Cu25	Cu	0.050125	-0.570536	-0.061882
Cu26	Cu	0.383458	-0.237202	0.271452
Cu27	Cu	0.716792	0.096131	0.604785
O28	O	-0.042471	-0.566147	-0.132291
O29	O	0.290862	-0.232814	0.201042
O30	O	0.624196	0.100519	0.534375
C31	C	-0.000042	-0.482124	-0.066078
C32	C	0.333291	-0.148790	0.267256
C33	C	0.666624	0.184543	0.600589
C34	C	-0.000036	-0.428469	-0.065525
C35	C	0.333297	-0.095135	0.267808
C36	C	0.666630	0.238198	0.601142
N37	N	-0.120813	-0.570510	-0.061905
N38	N	0.212520	-0.237177	0.271428
N39	N	0.545853	0.096156	0.604762
C40	C	-0.000064	-0.574716	0.026515
C41	C	0.333269	-0.241383	0.359848
C42	C	0.666603	0.091950	0.693182
C43	C	-0.000068	-0.574164	0.080170
C44	C	0.333265	-0.240830	0.413503
C45	C	0.666599	0.092503	0.746837
C46	C	-0.473336	-0.603640	-0.028781
C47	C	-0.140002	-0.270307	0.304552
C48	C	0.193331	0.063026	0.637885
C49	C	-0.686994	-0.603651	-0.028774
C50	C	-0.353661	-0.270318	0.304559
C51	C	-0.020327	0.063016	0.637892
O52	O	-0.714623	-0.631801	-0.000614
O53	O	-0.381290	-0.298467	0.332720
O54	O	-0.047956	0.034866	0.666053
N55	N	-0.713707	-0.570538	-0.061871
N56	N	-0.380374	-0.237205	0.271462
N57	N	-0.047041	0.096128	0.604796
C58	C	-0.687003	-0.537419	-0.094970
C59	C	-0.353669	-0.204085	0.238364
C60	C	-0.020336	0.129248	0.571697
O61	O	-0.714626	-0.509251	-0.123117
O62	O	-0.381293	-0.175918	0.210216
O63	O	-0.047960	0.157415	0.543550
C64	C	-0.473345	-0.537406	-0.094974
C65	C	-0.140012	-0.204073	0.238360
C66	C	0.193322	0.129261	0.571693
C67	C	-0.446635	-0.570524	-0.061878
C68	C	-0.113301	-0.237191	0.271455
C69	C	0.220032	0.096143	0.604788
C70	C	-0.446625	-0.636755	0.004312
C71	C	-0.113292	-0.303422	0.337645
C72	C	0.220042	0.029912	0.670979
C73	C	-0.393214	-0.636754	0.004308
C74	C	-0.059880	-0.303421	0.337642
C75	C	0.273453	0.029913	0.670975
C76	C	-0.366513	-0.603638	-0.028789
C77	C	-0.033179	-0.270304	0.304545
C78	C	0.300154	0.063029	0.637878
C79	C	-0.393223	-0.570523	-0.061882
C80	C	-0.059890	-0.237189	0.271451
C81	C	0.273444	0.096144	0.604785
C82	C	-0.446641	-0.504284	-0.128070
C83	C	-0.113308	-0.170951	0.205264
C84	C	0.220025	0.162382	0.538597
C85	C	-0.393223	-0.504283	-0.128067
C86	C	-0.059890	-0.170950	0.205266
C87	C	0.273443	0.162383	0.538600
C88	C	-0.366513	-0.537401	-0.094971
C89	C	-0.033180	-0.204068	0.238362
C90	C	0.300154	0.129265	0.571695
C91	C	-0.313111	-0.537405	-0.094983
C92	C	0.020223	-0.204072	0.238351
C93	C	0.353556	0.129261	0.571684
N94	N	-0.286397	-0.570518	-0.061886
N95	N	0.046936	-0.237185	0.271447
N96	N	0.380269	0.096149	0.604781
C97	C	-0.313098	-0.603634	-0.028789
C98	C	0.020235	-0.270301	0.304544
C99	C	0.353568	0.063033	0.637878
C100	C	-0.799176	-0.537428	-0.094966
C101	C	-0.465843	-0.204095	0.238368
C102	C	-0.132509	0.129238	0.571701
C103	C	-0.852590	-0.537432	-0.094965
C104	C	-0.519257	-0.204099	0.238368
C105	C	-0.185923	0.129235	0.571701
C106	C	-0.852578	-0.603664	-0.028769
C107	C	-0.519245	-0.270330	0.304564
C108	C	-0.185911	0.063003	0.637897
C109	C	-0.799163	-0.603662	-0.028773
C110	C	-0.465829	-0.270329	0.304561
C111	C	-0.132496	0.063005	0.637894
C112	C	-0.772463	-0.570541	-0.061869
C113	C	-0.439129	-0.237207	0.271464
C114	C	-0.105796	0.096126	0.604798
C115	C	-0.200931	-0.603629	-0.028800
C116	C	0.132403	-0.270296	0.304533
C117	C	0.465736	0.063037	0.637867
C118	C	-0.147514	-0.603626	-0.028808
C119	C	0.185819	-0.270293	0.304525
C120	C	0.519152	0.063040	0.637859
C121	C	-0.147531	-0.537393	-0.095002
C122	C	0.185802	-0.204060	0.238331
C123	C	0.519135	0.129274	0.571665
C124	C	-0.200943	-0.537397	-0.094996
C125	C	0.132391	-0.204064	0.238338
C126	C	0.465724	0.129269	0.571671
C127	C	-0.227641	-0.570517	-0.061891
C128	C	0.105692	-0.237184	0.271443
C129	C	0.439026	0.096149	0.604776
O130	O	-0.285449	-0.509267	-0.123125
O131	O	0.047884	-0.175933	0.210208
O132	O	0.381218	0.157400	0.543542
O133	O	-0.285466	-0.631790	-0.000639
O134	O	0.047868	-0.298457	0.332694
O135	O	0.381201	0.034877	0.666028
C136	C	-0.526747	-0.603641	-0.028777
C137	C	-0.193414	-0.270308	0.304556
C138	C	0.139920	0.063025	0.637889
C139	C	-0.553457	-0.570527	-0.061871
C140	C	-0.220124	-0.237193	0.271463
C141	C	0.113209	0.096140	0.604796
C142	C	-0.526756	-0.537410	-0.094968
C143	C	-0.193423	-0.204077	0.238366
C144	C	0.139910	0.129256	0.571699
C145	C	-0.606872	-0.570530	-0.061870
C146	C	-0.273538	-0.237197	0.271463
C147	C	0.059795	0.096136	0.604796
C148	C	-0.633573	-0.603646	-0.028773
C149	C	-0.300239	-0.270313	0.304560
C150	C	0.033094	0.063020	0.637893
C151	C	-0.606859	-0.636759	0.004323
C152	C	-0.273526	-0.303426	0.337657
C153	C	0.059807	0.029908	0.670990
C154	C	-0.553448	-0.636758	0.004320
C155	C	-0.220115	-0.303424	0.337653
C156	C	0.113219	0.029909	0.670986
C157	C	-0.553470	-0.504298	-0.128064
C158	C	-0.220136	-0.170965	0.205269
C159	C	0.113197	0.162369	0.538602
C160	C	-0.606881	-0.504302	-0.128058
C161	C	-0.273548	-0.170969	0.205275
C162	C	0.059786	0.162365	0.538609
C163	C	-0.633582	-0.537418	-0.094961
C164	C	-0.300249	-0.204085	0.238372
C165	C	0.033085	0.129248	0.571706
N166	N	0.120709	-0.570548	-0.061868
N167	N	0.454042	-0.237215	0.271465
N168	N	0.787376	0.096119	0.604798
C169	C	-0.000061	-0.658931	-0.057699
C170	C	0.333272	-0.325598	0.275634
C171	C	0.666606	0.007736	0.608967
C172	C	-0.000064	-0.712586	-0.058252
C173	C	0.333270	-0.379252	0.275081
C174	C	0.666603	-0.045919	0.608414
C175	C	-0.000053	-0.089654	-0.106229
C176	C	0.333281	0.243680	0.227105
C177	C	0.666614	0.577013	0.560438
C178	C	-0.000057	0.112006	-0.104178
C179	C	0.333276	0.445339	0.229156
C180	C	0.666609	0.778673	0.562489
O181	O	-0.000074	0.143262	-0.141398
O182	O	0.333259	0.476595	0.191935
O183	O	0.666592	0.809928	0.525268
N184	N	-0.000063	0.131130	-0.059843
N185	N	0.333270	0.464463	0.273491
N186	N	0.666604	0.797796	0.606824
C187	C	-0.000071	0.099835	-0.016017
C188	C	0.333263	0.433168	0.317316
C189	C	0.666596	0.766502	0.650650
O190	O	-0.000081	0.120728	0.021740
O191	O	0.333253	0.454062	0.355073
O192	O	0.666586	0.787395	0.688407
C193	C	-0.000069	-0.101824	-0.018068
C194	C	0.333264	0.231510	0.315265
C195	C	0.666597	0.564843	0.648598
C196	C	-0.000059	-0.120944	-0.062407
C197	C	0.333275	0.212389	0.270927
C198	C	0.666608	0.545722	0.604260
C199	C	-0.000043	-0.108775	-0.150563
C200	C	0.333291	0.224558	0.182770
C201	C	0.666624	0.557892	0.516103
C202	C	-0.000039	-0.159187	-0.151076
C203	C	0.333295	0.174147	0.182258
C204	C	0.666628	0.507480	0.515591
C205	C	-0.000045	-0.190477	-0.107253
C206	C	0.333289	0.142856	0.226080
C207	C	0.666622	0.476189	0.559413
C208	C	-0.000055	-0.171356	-0.062919
C209	C	0.333279	0.161977	0.270415
C210	C	0.666612	0.495310	0.603748
C211	C	-0.000081	-0.133117	0.025757
C212	C	0.333253	0.200216	0.359090
C213	C	0.666586	0.533549	0.692423
C214	C	-0.000082	-0.183535	0.025240
C215	C	0.333252	0.149799	0.358573
C216	C	0.666585	0.483132	0.691906
C217	C	-0.000071	-0.202655	-0.019098
C218	C	0.333262	0.130678	0.314235
C219	C	0.666596	0.464011	0.647568
C220	C	-0.000057	-0.253059	-0.019609
C221	C	0.333276	0.080275	0.313724
C222	C	0.666610	0.413608	0.647058
N223	N	-0.000051	-0.272183	-0.063944
N224	N	0.333282	0.061151	0.269389
N225	N	0.666615	0.394484	0.602723
C226	C	-0.000045	-0.240892	-0.107766
C227	C	0.333288	0.092441	0.225567
C228	C	0.666621	0.425775	0.558900
C229	C	-0.000070	0.205709	-0.014943
C230	C	0.333263	0.539043	0.318390
C231	C	0.666596	0.872376	0.651724
C232	C	-0.000070	0.256124	-0.014430
C233	C	0.333264	0.589457	0.318903
C234	C	0.666597	0.922790	0.652237
C235	C	-0.000057	0.268291	-0.102591
C236	C	0.333276	0.601624	0.230742
C237	C	0.666609	0.934958	0.564076
C238	C	-0.000054	0.217876	-0.103104
C239	C	0.333279	0.551209	0.230230
C240	C	0.666612	0.884542	0.563563
C241	C	-0.000065	0.186585	-0.059278
C242	C	0.333269	0.519919	0.274055
C243	C	0.666602	0.853252	0.607388
C244	C	-0.000036	-0.346761	-0.108839
C245	C	0.333297	-0.013428	0.224495
C246	C	0.666630	0.319906	0.557828
C247	C	-0.000030	-0.397178	-0.109347
C248	C	0.333303	-0.063845	0.223986
C249	C	0.666636	0.269489	0.557319
C250	C	-0.000045	-0.409341	-0.021186
C251	C	0.333288	-0.076008	0.312147
C252	C	0.666621	0.257326	0.645480
C253	C	-0.000049	-0.358929	-0.020678
C254	C	0.333285	-0.025595	0.312656
C255	C	0.666618	0.307738	0.645989
C256	C	-0.000046	-0.327639	-0.064508
C257	C	0.333287	0.005694	0.268825
C258	C	0.666621	0.339027	0.602159
O259	O	-0.000046	-0.284343	0.017592
O260	O	0.333287	0.048991	0.350925
O261	O	0.666621	0.382324	0.684259
O262	O	-0.000047	-0.261794	-0.145518
O263	O	0.333287	0.071539	0.187816
O264	O	0.666620	0.404872	0.521149
C265	C	-0.000057	-0.039242	-0.105716
C266	C	0.333277	0.294092	0.227617
C267	C	0.666610	0.627425	0.560950
C268	C	-0.000067	-0.020120	-0.061382
C269	C	0.333267	0.313213	0.271951
C270	C	0.666600	0.646546	0.605285
C271	C	-0.000073	-0.051411	-0.017560
C272	C	0.333260	0.281922	0.315774
C273	C	0.666594	0.615256	0.649107
C274	C	-0.000066	0.030294	-0.060869
C275	C	0.333267	0.363627	0.272464
C276	C	0.666601	0.696961	0.605798
C277	C	-0.000060	0.061585	-0.104691
C278	C	0.333273	0.394918	0.228642
C279	C	0.666607	0.728251	0.561975
C280	C	-0.000054	0.042461	-0.149026
C281	C	0.333279	0.375794	0.184307
C282	C	0.666612	0.709128	0.517640
C283	C	-0.000050	-0.007951	-0.149539
C284	C	0.333283	0.325382	0.183795
C285	C	0.666616	0.658716	0.517128
C286	C	-0.000078	-0.032287	0.026775
C287	C	0.333255	0.301046	0.360109
C288	C	0.666588	0.634379	0.693442
C289	C	-0.000082	0.018125	0.027284
C290	C	0.333251	0.351459	0.360617
C291	C	0.666585	0.684792	0.693951
C292	C	-0.000076	0.049416	-0.016538
C293	C	0.333258	0.382749	0.316795
C294	C	0.666591	0.716083	0.650129
C295	C	-0.000040	-0.566338	-0.150292
C296	C	0.333294	-0.233005	0.183041
C297	C	0.666627	0.100329	0.516374
C298	C	-0.000032	-0.566891	-0.203947
C299	C	0.333301	-0.233557	0.129386
C300	C	0.666635	0.099776	0.462720
C301	C	-0.000046	-0.614867	0.418985
C302	C	0.333287	-0.281534	0.752318
C303	C	0.666620	0.051799	1.085652
C304	C	-0.000039	-0.612816	0.620645
C305	C	0.333294	-0.279483	0.953978
C306	C	0.666628	0.053850	1.287311
O307	O	-0.000021	-0.650037	0.651900
O308	O	0.333312	-0.316704	0.985234
O309	O	0.666646	0.016630	1.318567
N310	N	-0.000034	-0.568481	0.639768
N311	N	0.333299	-0.235148	0.973102
N312	N	0.666632	0.098186	1.306435
C313	C	-0.000028	-0.524656	0.608474
C314	C	0.333305	-0.191322	0.941807
C315	C	0.666638	0.142011	1.275140
O316	O	-0.000019	-0.486899	0.629367
O317	O	0.333314	-0.153565	0.962700
O318	O	0.666648	0.179768	1.296033
C319	C	-0.000032	-0.526707	0.406815
C320	C	0.333301	-0.193374	0.740148
C321	C	0.666635	0.139960	1.073482
C322	C	-0.000042	-0.571045	0.387694
C323	C	0.333291	-0.237712	0.721028
C324	C	0.666625	0.095622	1.054361
C325	C	-0.000056	-0.659202	0.399864
C326	C	0.333278	-0.325868	0.733197
C327	C	0.666611	0.007465	1.066530
C328	C	-0.000060	-0.659714	0.349452
C329	C	0.333273	-0.326381	0.682785
C330	C	0.666606	0.006953	1.016118
C331	C	-0.000056	-0.615892	0.318161
C332	C	0.333278	-0.282559	0.651494
C333	C	0.666611	0.050775	0.984828
C334	C	-0.000046	-0.571557	0.337282
C335	C	0.333287	-0.238224	0.670616
C336	C	0.666620	0.095109	1.003949
C337	C	-0.000022	-0.482882	0.375521
C338	C	0.333311	-0.149549	0.708855
C339	C	0.666644	0.183785	1.042188
C340	C	-0.000022	-0.483399	0.325104
C341	C	0.333311	-0.150066	0.658437
C342	C	0.666645	0.183268	0.991771
C343	C	-0.000032	-0.527737	0.305983
C344	C	0.333302	-0.194404	0.639317
C345	C	0.666635	0.138930	0.972650
C346	C	-0.000046	-0.528247	0.255580
C347	C	0.333287	-0.194914	0.588913
C348	C	0.666620	0.138419	0.922246
N349	N	-0.000051	-0.572583	0.236456
N350	N	0.333282	-0.239249	0.569789
N351	N	0.666616	0.094084	0.903123
C352	C	-0.000056	-0.616405	0.267747
C353	C	0.333278	-0.283072	0.601080
C354	C	0.666611	0.050262	0.934413
C355	C	-0.000027	-0.523582	0.714348
C356	C	0.333306	-0.190248	1.047681
C357	C	0.666639	0.143085	1.381014
C358	C	-0.000027	-0.523069	0.764762
C359	C	0.333306	-0.189735	1.098096
C360	C	0.666639	0.143598	1.431429
C361	C	-0.000037	-0.611230	0.776930
C362	C	0.333296	-0.277896	1.110263
C363	C	0.666629	0.055437	1.443596
C364	C	-0.000041	-0.611742	0.726514
C365	C	0.333292	-0.278409	1.059848
C366	C	0.666626	0.054925	1.393181
C367	C	-0.000032	-0.567917	0.695224
C368	C	0.333301	-0.234583	1.028557
C369	C	0.666635	0.098750	1.361891
C370	C	-0.000066	-0.617477	0.161878
C371	C	0.333267	-0.284144	0.495211
C372	C	0.666601	0.049189	0.828544
C373	C	-0.000073	-0.617986	0.111461
C374	C	0.333261	-0.284652	0.444794
C375	C	0.666594	0.048681	0.778127
C376	C	-0.000060	-0.529825	0.099298
C377	C	0.333273	-0.196492	0.432631
C378	C	0.666607	0.136842	0.765964
C379	C	-0.000056	-0.529316	0.149710
C380	C	0.333277	-0.195983	0.483043
C381	C	0.666611	0.137350	0.816377
C382	C	-0.000057	-0.573147	0.180999
C383	C	0.333276	-0.239813	0.514333
C384	C	0.666609	0.093520	0.847666
O385	O	-0.000059	-0.491047	0.224296
O386	O	0.333275	-0.157713	0.557629
O387	O	0.666608	0.175620	0.890962
O388	O	-0.000054	-0.654156	0.246844
O389	O	0.333280	-0.320823	0.580177
O390	O	0.666613	0.012510	0.913511
C391	C	-0.000042	-0.614355	0.469397
C392	C	0.333291	-0.281022	0.802730
C393	C	0.666625	0.052312	1.136064
C394	C	-0.000033	-0.570021	0.488518
C395	C	0.333301	-0.236687	0.821852
C396	C	0.666634	0.096646	1.155185
C397	C	-0.000028	-0.526198	0.457228
C398	C	0.333305	-0.192865	0.790561
C399	C	0.666639	0.140468	1.123894
C400	C	-0.000033	-0.569508	0.538933
C401	C	0.333301	-0.236174	0.872266
C402	C	0.666634	0.097159	1.205599
C403	C	-0.000037	-0.613330	0.570223
C404	C	0.333296	-0.279996	0.903557
C405	C	0.666629	0.053337	1.236890
C406	C	-0.000042	-0.657665	0.551100
C407	C	0.333291	-0.324332	0.884433
C408	C	0.666625	0.009002	1.217766
C409	C	-0.000046	-0.658177	0.500688
C410	C	0.333287	-0.324844	0.834021
C411	C	0.666620	0.008489	1.167354
C412	C	-0.000023	-0.481863	0.476351
C413	C	0.333310	-0.148530	0.809685
C414	C	0.666643	0.184803	1.143018
C415	C	-0.000019	-0.481355	0.526764
C416	C	0.333314	-0.148021	0.860097
C417	C	0.666647	0.185312	1.193430
C418	C	-0.000024	-0.525177	0.558054
C419	C	0.333309	-0.191843	0.891388
C420	C	0.666643	0.141490	1.224721
H421	H	-0.125768	-0.630597	-0.001858
H422	H	0.207565	-0.297263	0.331476
H423	H	0.540898	0.036070	0.664809
F424	F	-0.635303	-0.469053	-0.163288
F425	F	-0.301970	-0.135720	0.170046
F426	F	0.031364	0.197613	0.503379
F427	F	-0.881012	-0.502189	-0.130196
F428	F	-0.547679	-0.168856	0.203137
F429	F	-0.214345	0.164477	0.536471
F430	F	-0.000053	-0.442651	0.025450
F431	F	0.333281	-0.109318	0.358783
F432	F	0.666614	0.224015	0.692116
F433	F	-0.000087	0.038469	0.074478
F434	F	0.333247	0.371802	0.407812
F435	F	0.666580	0.705135	0.741145
F436	F	-0.475059	-0.469035	-0.163294
F437	F	-0.141725	-0.135702	0.170040
F438	F	0.191608	0.197631	0.503373
H439	H	-0.222662	-0.630598	-0.001842
H440	H	0.110671	-0.297265	0.331491
H441	H	0.444004	0.036069	0.664825
F442	F	-0.000083	-0.665178	0.091114
F443	F	0.333251	-0.331845	0.424448
F444	F	0.666584	0.001488	0.757781
H445	H	-0.000090	-0.117558	0.061861
H446	H	0.333243	0.215775	0.395195
H447	H	0.666577	0.549108	0.728528
F448	F	-0.119106	-0.502151	-0.130226
F449	F	0.214227	-0.168817	0.203108
F450	F	0.547561	0.164516	0.536441
H451	H	-0.000079	0.180236	0.020747
H452	H	0.333255	0.513570	0.354080
H453	H	0.666588	0.846903	0.687414
H454	H	-0.000048	-0.693347	0.576585
H455	H	0.333285	-0.360013	0.909919
H456	H	0.666619	-0.026680	1.243252
F457	F	-0.000054	-0.705368	0.480345
F458	F	0.333279	-0.372035	0.813678
F459	F	0.666613	-0.038702	1.147011
H460	H	-0.000062	-0.493213	0.165279
H461	H	0.333271	-0.159879	0.498612
H462	H	0.666604	0.173454	0.831945
F463	F	-0.000044	0.197531	-0.150294
F464	F	0.333289	0.530864	0.183040
F465	F	0.666623	0.864197	0.516373
H466	H	-0.371487	-0.477311	-0.155018
H467	H	-0.038153	-0.143977	0.178316
H468	H	0.295180	0.189356	0.511649
H469	H	-0.000030	-0.174750	-0.187180
H470	H	0.333304	0.158583	0.146153
H471	H	0.666637	0.491917	0.479487
H472	H	-0.874327	-0.630629	-0.001821
H473	H	-0.540994	-0.297296	0.331512
H474	H	-0.207660	0.036038	0.664845
H475	H	-0.531734	-0.477330	-0.155015
H476	H	-0.198400	-0.143997	0.178318
H477	H	0.134933	0.189337	0.511651
H478	H	-0.000058	-0.494146	0.073812
H479	H	0.333275	-0.160813	0.407145
H480	H	0.666609	0.172520	0.740478
H481	H	-0.000070	0.271687	0.021674
H482	H	0.333263	0.605020	0.355008
H483	H	0.666596	0.938354	0.688341
F484	F	-0.770765	-0.502175	-0.130195
F485	F	-0.437432	-0.168842	0.203139
F486	F	-0.104098	0.164492	0.536472
H487	H	-0.000016	-0.445246	0.542327
H488	H	0.333318	-0.111913	0.875660
H489	H	0.666651	0.221420	1.208993
F490	F	-0.000034	-0.313468	-0.155488
F491	F	0.333299	0.019866	0.177846
F492	F	0.666633	0.353199	0.511179
H493	H	-0.000091	-0.209009	0.060929
H494	H	0.333243	0.124324	0.394262
H495	H	0.666576	0.457657	0.727595
H496	H	-0.000018	-0.446177	0.450879
H497	H	0.333315	-0.112844	0.784212
H498	H	0.666648	0.220490	1.117545
F499	F	-0.000060	-0.705848	0.433159
F500	F	0.333273	-0.372514	0.766492
F501	F	0.666606	-0.039181	1.099826
H502	H	-0.000039	-0.083302	-0.186251
H503	H	0.333294	0.250031	0.147083
H504	H	0.666627	0.583364	0.480416
F505	F	-0.000052	0.301601	-0.149230
F506	F	0.333282	0.634935	0.184103
F507	F	0.666615	0.968268	0.517437
H508	H	-0.000085	-0.057760	0.062462
H509	H	0.333249	0.275573	0.395795
H510	H	0.666582	0.608907	0.729128
F511	F	-0.000060	-0.338578	0.026511
F512	F	0.333273	-0.005245	0.359845
F513	F	0.666606	0.328089	0.693178
F514	F	-0.229369	-0.502154	-0.130225
F515	F	0.103964	-0.168821	0.203108
F516	F	0.437298	0.164513	0.536441
H517	H	-0.371469	-0.663720	0.031259
H518	H	-0.038136	-0.330387	0.364592
H519	H	0.295198	0.002947	0.697925
F520	F	-0.000041	-0.657869	0.810240
F521	F	0.333292	-0.324535	1.143573
F522	F	0.666626	0.008798	1.476907
F523	F	-0.475035	-0.672004	0.039542
F524	F	-0.141702	-0.338671	0.372875
F525	F	0.191632	-0.005338	0.706208
H526	H	-0.777418	-0.630629	-0.001823
H527	H	-0.444085	-0.297296	0.331510
H528	H	-0.110752	0.036038	0.664844
F529	F	-0.000017	-0.417524	-0.156540
F530	F	0.333316	-0.084191	0.176794
F531	F	0.666649	0.249142	0.510127
H532	H	-0.531704	-0.663725	0.031269
H533	H	-0.198371	-0.330392	0.364602
H534	H	0.134962	0.002941	0.697936
F535	F	-0.000011	-0.436752	0.291805
F536	F	0.333322	-0.103419	0.625138
F537	F	0.666655	0.229914	0.958472
H538	H	-0.000042	-0.023514	-0.185643
H539	H	0.333291	0.309819	0.147690
H540	H	0.666624	0.643153	0.481023
F541	F	-0.000026	-0.475878	0.785106
F542	F	0.333307	-0.142545	1.118439
F543	F	0.666641	0.190789	1.451773
H544	H	-0.628608	-0.663725	0.031271
H545	H	-0.295275	-0.330392	0.364604
H546	H	0.038059	0.002941	0.697937
F547	F	-0.000060	-0.706905	0.329109
F548	F	0.333274	-0.373572	0.662442
F549	F	0.666607	-0.040238	0.995775
F550	F	-0.000045	0.075772	-0.195665
F551	F	0.333288	0.409105	0.137668
F552	F	0.666621	0.742438	0.471001
H553	H	-0.000065	-0.653168	0.187348
H554	H	0.333269	-0.319835	0.520681
H555	H	0.666602	0.013499	0.854015
F556	F	-0.000051	-0.658932	0.706169
F557	F	0.333282	-0.325599	1.039503
F558	F	0.666615	0.007735	1.372836
F559	F	-0.000018	-0.476933	0.681052
F560	F	0.333315	-0.143600	1.014385
F561	F	0.666649	0.189733	1.347718
H562	H	-0.000011	-0.446777	0.391080
H563	H	0.333322	-0.113444	0.724414
H564	H	0.666655	0.219889	1.057747
