data_functionalizedCrystal
_audit_creation_method	'MofGen! by Chris Wilmer'
_symmetry_space_group_name_H-M	'P1'
_symmetry_Int_Tables_number	1
_symmetry_cell_setting	triclinic
loop_
_symmetry_equiv_pos_as_xyz
  x,y,z
_cell_length_a	14.519709
_cell_length_b	10.540514
_cell_length_c	13.596369
_cell_angle_alpha	89.997180
_cell_angle_beta	90.000291
_cell_angle_gamma	84.097652
loop_
_atom_site_label
_atom_site_type_symbol
_atom_site_fract_x
_atom_site_fract_y
_atom_site_fract_z
O1	O	1.224754	0.166402	-0.081656
O2	O	0.956381	0.185997	-0.081685
O3	O	1.096703	-0.008572	-0.081671
O4	O	1.084433	0.360971	-0.081670
O5	O	1.096688	-0.008582	0.081911
O6	O	0.956367	0.185987	0.081897
O7	O	1.224740	0.166391	0.081927
Zn8	Zn	1.090551	0.176188	0.107884
Zn9	Zn	1.090570	0.176201	-0.107643
O10	O	1.084419	0.360960	0.081913
C11	C	0.922010	0.185079	0.000102
C12	C	0.819614	0.182342	0.000091
C13	C	0.444664	0.172268	0.000135
C14	C	0.548987	0.175065	0.000123
C15	C	0.632136	0.177305	0.000112
C16	C	0.736465	0.180103	0.000101
C17	C	1.095780	-0.055871	0.000117
C18	C	1.093042	-0.196793	0.000110
C19	C	1.193398	-0.268523	0.000123
C20	C	1.190584	-0.415107	0.000501
C21	C	1.038456	-0.388577	0.093344
C22	C	1.041982	-0.242074	0.093416
C23	C	1.040513	-0.241648	-0.092615
C24	C	1.039545	-0.388617	-0.093834
C25	C	1.259112	0.167310	0.000137
C26	C	1.361507	0.170046	0.000142
C27	C	1.085341	0.408260	0.000122
C28	C	1.088079	0.549181	0.000123
N29	N	1.090545	0.176177	0.254976
N30	N	1.090583	0.176201	-0.254735
C31	C	1.090569	0.176202	0.656267
C32	C	1.090560	0.176200	0.544616
C33	C	1.090557	0.176191	0.455625
C34	C	1.090547	0.176186	0.343967
H35	H	1.229615	-0.458167	-0.066308
H36	H	0.964832	-0.412049	-0.099753
C37	C	1.248441	-0.230425	-0.090121
N38	N	1.289911	-0.201684	-0.158076
H39	H	1.233536	-0.238619	0.066834
H40	H	1.078212	-0.214222	0.163375
H41	H	1.229435	-0.457238	0.067728
C42	C	0.942397	-0.176201	0.098871
N43	N	0.867393	-0.126592	0.103021
C44	C	0.936740	-0.417659	0.097653
N45	N	0.860125	-0.439557	0.100892
H46	H	1.072491	-0.431486	0.162992
H47	H	1.075810	-0.429980	-0.162800
H48	H	0.966485	-0.193652	-0.093515
C49	C	1.085656	-0.199568	-0.188104
N50	N	1.119669	-0.167874	-0.260021
