data_functionalizedCrystal
_audit_creation_method	'MofGen! by Chris Wilmer'
_symmetry_space_group_name_H-M	'P1'
_symmetry_Int_Tables_number	1
_symmetry_cell_setting	triclinic
loop_
_symmetry_equiv_pos_as_xyz
  x,y,z
_cell_length_a	18.101398
_cell_length_b	18.050589
_cell_length_c	18.101389
_cell_angle_alpha	90.014016
_cell_angle_beta	90.024327
_cell_angle_gamma	90.023488
loop_
_atom_site_label
_atom_site_type_symbol
_atom_site_fract_x
_atom_site_fract_y
_atom_site_fract_z
Zn1	Zn	1.132136	-0.295831	0.418861
Zn2	Zn	1.632136	0.204169	0.918861
Zn3	Zn	1.132038	-0.420005	0.295029
Zn4	Zn	1.632038	0.079995	0.795029
Zn5	Zn	1.008295	-0.295823	0.295023
Zn6	Zn	1.508295	0.204177	0.795023
Zn7	Zn	1.008252	-0.419974	0.418818
Zn8	Zn	1.508252	0.080026	0.918818
O9	O	1.070180	-0.357908	0.356933
O10	O	1.570180	0.142092	0.856933
O11	O	1.235756	-0.312320	0.402456
O12	O	1.735756	0.187680	0.902456
O13	O	1.115600	-0.403542	0.191396
O14	O	1.615600	0.096458	0.691396
O15	O	1.024782	-0.191900	0.311465
O16	O	1.524782	0.308100	0.811465
O17	O	1.235684	-0.403550	0.311477
O18	O	1.735684	0.096450	0.811477
O19	O	1.115767	-0.191905	0.402449
O20	O	1.615767	0.308095	0.902449
O21	O	1.024687	-0.312306	0.191391
O22	O	1.524687	0.187694	0.691391
O23	O	0.904656	-0.312276	0.311423
O24	O	1.404656	0.187724	0.811423
O25	O	1.024708	-0.403496	0.522457
O26	O	1.524708	0.096504	1.022457
O27	O	0.904625	-0.403488	0.402375
O28	O	1.404625	0.096512	0.902375
O29	O	1.115725	-0.312289	0.522489
O30	O	1.615725	0.187711	1.022489
O31	O	1.115558	-0.523926	0.311435
O32	O	1.615558	-0.023926	0.811435
O33	O	1.024613	-0.523902	0.402382
O34	O	1.524613	-0.023902	0.902382
C35	C	0.877770	-0.357878	0.356894
C36	C	1.377770	0.142122	0.856894
C37	C	0.795455	-0.357883	0.356895
C38	C	1.295455	0.142117	0.856895
C39	C	1.070091	-0.550860	0.356921
C40	C	1.570091	-0.050860	0.856921
C41	C	1.070120	-0.633406	0.356940
C42	C	1.570120	-0.133406	0.856940
C43	C	0.496364	-0.357930	0.356957
C44	C	0.996364	0.142070	0.856957
C45	C	0.527685	-0.300254	0.300012
C46	C	1.027685	0.199746	0.800012
C47	C	0.613303	-0.300409	0.299769
C48	C	1.113303	0.199591	0.799769
C49	C	0.644747	-0.357906	0.356927
C50	C	1.144747	0.142094	0.856927
C51	C	0.613633	-0.436133	0.335608
C52	C	1.113633	0.063867	0.835608
C53	C	0.527988	-0.435813	0.335212
C54	C	1.027988	0.064187	0.835212
C55	C	0.527978	-0.338057	0.435355
C56	C	1.027978	0.161943	0.935355
C57	C	0.613629	-0.336315	0.434927
C58	C	1.113629	0.163685	0.934927
C59	C	0.728606	-0.357897	0.356910
C60	C	1.228606	0.142103	0.856910
C61	C	0.412505	-0.357943	0.356972
C62	C	0.912505	0.142057	0.856972
C63	C	1.020713	-0.832871	0.406380
C64	C	1.520713	-0.332871	0.906380
C65	C	1.002661	-0.882299	0.338801
C66	C	1.502661	-0.382299	0.838801
C67	C	1.070193	-0.784537	0.356950
C68	C	1.570193	-0.284537	0.856950
C69	C	1.088281	-0.882191	0.424536
C70	C	1.588281	-0.382191	0.924536
C71	C	1.070262	-0.930522	0.356965
C72	C	1.570262	-0.430522	0.856965
C73	C	1.052106	-0.832877	0.289335
C74	C	1.552106	-0.332877	0.789335
C75	C	1.137757	-0.832765	0.375116
C76	C	1.637757	-0.332765	0.875116
C77	C	1.119731	-0.882170	0.307491
C78	C	1.619731	-0.382170	0.807491
C79	C	1.070151	-0.700438	0.356942
C80	C	1.570151	-0.200438	0.856942
C81	C	1.070304	-1.014618	0.356965
C82	C	1.570304	-0.514618	0.856965
C83	C	1.263342	-0.357939	0.356972
C84	C	1.763342	0.142061	0.856972
C85	C	1.345656	-0.357952	0.356989
C86	C	1.845656	0.142048	0.856989
C87	C	1.070223	-0.357890	0.550095
C88	C	1.570223	0.142110	1.050095
C89	C	1.070241	-0.357882	0.632409
C90	C	1.570241	0.142118	1.132409
C91	C	1.070290	-0.164203	0.356961
C92	C	1.570290	0.335797	0.856961
C93	C	1.070337	-0.081657	0.356974
C94	C	1.570337	0.418343	0.856974
C95	C	1.070180	-0.357873	0.164522
C96	C	1.570180	0.142127	0.664522
C97	C	1.070305	-0.357672	0.082209
C98	C	1.570305	0.142328	0.582209
C99	C	1.070284	-0.357742	0.931500
C100	C	1.570284	0.142258	1.431500
C101	C	1.012822	-0.414945	0.900155
C102	C	1.512822	0.085055	1.400155
C103	C	1.012977	-0.415210	0.814536
C104	C	1.512977	0.084790	1.314536
C105	C	1.070262	-0.357811	0.783117
C106	C	1.570262	0.142189	1.283117
C107	C	1.148289	-0.379062	0.814225
C108	C	1.648289	0.120938	1.314225
C109	C	1.147969	-0.379437	0.899870
C110	C	1.647969	0.120563	1.399870
C111	C	1.050399	-0.279163	0.899918
C112	C	1.550399	0.220837	1.399918
C113	C	1.048663	-0.279616	0.814267
C114	C	1.548663	0.220384	1.314267
C115	C	1.070255	-0.357849	0.699258
C116	C	1.570255	0.142151	1.199258
C117	C	1.070297	-0.357706	1.015360
C118	C	1.570297	0.142294	1.515360
H119	H	0.634341	-0.242399	0.313131
H120	H	1.134341	0.257601	0.813131
C121	C	1.176298	-0.911236	0.250964
C122	C	1.676298	-0.411236	0.750964
N123	N	1.218900	-0.933131	0.208385
N124	N	1.718900	-0.433131	0.708385
H125	H	0.954788	-0.401782	0.920740
H126	H	1.454788	0.098218	1.420740
H127	H	1.194849	-0.810992	0.390500
H128	H	1.694849	-0.310992	0.890500
C129	C	0.925511	-0.911693	0.318046
C130	C	1.425511	-0.411693	0.818046
N131	N	0.867401	-0.933830	0.302418
N132	N	1.367401	-0.433830	0.802418
H133	H	1.192253	-0.338707	0.793876
H134	H	1.692253	0.161293	1.293876
C135	C	0.498562	-0.317789	0.221990
C136	C	0.998562	0.182211	0.721990
N137	N	0.476625	-0.330997	0.163225
N138	N	0.976625	0.169003	0.663225
H139	H	1.036768	-0.811305	0.232168
H140	H	1.536768	-0.311305	0.732168
C141	C	1.170736	-0.457042	0.926874
C142	C	1.670736	0.042958	1.426874
N143	N	1.187881	-0.515496	0.947210
N144	N	1.687881	-0.015496	1.447210
C145	C	1.108914	-0.911454	0.501744
C146	C	1.608914	-0.411454	1.001744
N147	N	1.124449	-0.933492	0.559899
N148	N	1.624449	-0.433492	1.059899
C149	C	0.640939	-0.318159	0.221289
C150	C	1.140939	0.181841	0.721289
N151	N	0.661754	-0.331532	0.162176
N152	N	1.161754	0.168468	0.662176
C153	C	0.500952	-0.458573	0.257783
C154	C	1.000952	0.041427	0.757783
N155	N	0.480592	-0.475713	0.199460
N156	N	0.980592	0.024287	0.699460
C157	C	0.499994	-0.495835	0.388796
C158	C	0.999994	0.004165	0.888796
N159	N	0.478913	-0.541045	0.429153
N160	N	0.978913	-0.041045	0.929153
H161	H	0.955117	-0.401912	0.793503
H162	H	1.455117	0.098088	1.293503
C163	C	1.030388	-0.493155	0.929229
C164	C	1.530388	0.006845	1.429229
N165	N	1.043624	-0.552064	0.951125
N166	N	1.543624	-0.052064	1.451125
H167	H	0.991242	-0.263592	0.793934
H168	H	1.491242	0.236408	1.293934
H169	H	0.978808	-0.811224	0.448122
H170	H	1.478808	-0.311224	0.948122
H171	H	1.026106	-0.473456	0.794059
H172	H	1.526106	0.026544	1.294059
H173	H	0.634000	-0.480257	0.375787
H174	H	1.134000	0.019743	0.875787
C175	C	1.207779	-0.325609	0.927887
C176	C	1.707779	0.174391	1.427887
N177	N	1.252833	-0.285071	0.948986
N178	N	1.752833	0.214929	1.448986
H179	H	1.165437	-0.435894	0.792787
H180	H	1.665437	0.064106	1.292787
C181	C	0.974865	-0.253013	0.929070
C182	C	1.474865	0.246987	1.429070
N183	N	0.917968	-0.233326	0.951026
N184	N	1.417968	0.266674	1.451026
H185	H	1.087462	-0.234735	0.792880
H186	H	1.587462	0.265265	1.292880
H187	H	1.092252	-0.236544	0.920191
H188	H	1.592252	0.263456	1.420191
H189	H	0.507112	-0.242068	0.313227
H190	H	1.007112	0.257932	0.813227
H191	H	0.635048	-0.453280	0.278915
H192	H	1.135048	0.046720	0.778915
C193	C	0.498839	-0.262332	0.461538
C194	C	0.998839	0.237668	0.961538
N195	N	0.476893	-0.205291	0.481250
N196	N	0.976893	0.294709	0.981250
H197	H	0.635036	-0.375263	0.479629
H198	H	1.135036	0.124737	0.979629
C199	C	0.500611	-0.394806	0.492677
C200	C	1.000611	0.105194	0.992677
N201	N	0.479994	-0.437550	0.535846
N202	N	0.979994	0.062450	1.035846
C203	C	0.641099	-0.258540	0.456641
C204	C	1.141099	0.241460	0.956641
N205	N	0.661792	-0.199958	0.472992
N206	N	1.161792	0.300042	0.972992
