data_functionalizedCrystal
_audit_creation_method	'MofGen! by Chris Wilmer'
_symmetry_space_group_name_H-M	'P1'
_symmetry_Int_Tables_number	1
_symmetry_cell_setting	triclinic
loop_
_symmetry_equiv_pos_as_xyz
  x,y,z
_cell_length_a	14.853567
_cell_length_b	8.559649
_cell_length_c	7.088929
_cell_angle_alpha	84.674985
_cell_angle_beta	83.771294
_cell_angle_gamma	103.293203
loop_
_atom_site_label
_atom_site_type_symbol
_atom_site_fract_x
_atom_site_fract_y
_atom_site_fract_z
O1	O	-0.020180	-2.103683	-0.158959
O2	O	0.026373	-1.638582	-0.158964
O3	O	-0.129002	-1.883556	-0.158967
O4	O	0.135195	-1.858710	-0.158956
O5	O	-0.149808	-1.916294	0.159008
O6	O	0.005566	-1.671320	0.159011
O7	O	-0.040986	-2.136422	0.159016
Cu8	Cu	-0.019609	-1.906860	0.188047
Cu9	Cu	0.004996	-1.868144	-0.187995
O10	O	0.114389	-1.891448	0.159019
C11	C	-0.172915	-1.898798	0.000015
C12	C	-0.272761	-1.895423	-0.000002
C13	C	0.019497	-1.595429	0.000023
C14	C	0.029999	-1.418072	0.000021
C15	C	-0.034110	-2.179574	0.000025
C16	C	-0.044611	-2.356930	0.000015
C17	C	-0.674122	-1.735645	0.000033
C18	C	-0.715759	-2.026680	0.000036
C19	C	-0.621946	-2.029851	0.000024
C20	C	-0.554217	-1.885917	0.000020
C21	C	-0.580300	-1.738813	0.000028
C22	C	-0.595857	-2.176955	0.000037
C23	C	-0.502039	-2.180133	0.000027
C24	C	-0.434307	-2.036196	0.000010
C25	C	-0.460395	-1.889085	0.000015
C26	C	-0.392666	-1.745151	0.000011
C27	C	-0.418751	-1.598037	0.000002
C28	C	-0.512568	-1.594876	0.000010
C29	C	-0.340490	-2.039357	0.000002
C30	C	-0.298844	-1.748318	0.000005
C31	C	0.158302	-1.876205	0.000033
C32	C	0.258149	-1.879579	0.000037
N33	N	-0.036917	-1.934103	0.452535
N34	N	0.022296	-1.840913	-0.452483
H35	H	-0.243703	-1.631107	-0.000006
H36	H	-0.116520	-1.440266	0.000002
Br37	Br	-0.139189	-2.095112	0.588617
H38	H	-0.363595	-1.480848	0.000012
H39	H	-0.533816	-1.475103	0.000005
H40	H	0.101914	-1.334725	0.000013
Br41	Br	-0.305093	-2.238998	0.000059
Br42	Br	-0.709518	-1.535997	-0.000006
Br43	Br	-0.807678	-2.222013	0.000082
Br44	Br	0.124575	-1.679937	0.411441
H45	H	-0.480810	-2.299921	0.000032
Br46	Br	-0.687779	-2.372287	0.000094
