data_functionalizedCrystal
_audit_creation_method	'MofGen! by Chris Wilmer'
_symmetry_space_group_name_H-M	'P1'
_symmetry_Int_Tables_number	1
_symmetry_cell_setting	triclinic
loop_
_symmetry_equiv_pos_as_xyz
  x,y,z
_cell_length_a	12.594517
_cell_length_b	21.295417
_cell_length_c	12.594509
_cell_angle_alpha	90.035198
_cell_angle_beta	90.022214
_cell_angle_gamma	90.029134
loop_
_atom_site_label
_atom_site_type_symbol
_atom_site_fract_x
_atom_site_fract_y
_atom_site_fract_z
Zn1	Zn	1.627166	-0.250600	0.601834
Zn2	Zn	1.627014	-0.355878	0.423833
Zn3	Zn	1.449170	-0.250626	0.423860
Zn4	Zn	1.449110	-0.355834	0.601761
O5	O	1.538115	-0.303235	0.512822
O6	O	1.776092	-0.264573	0.578241
O7	O	1.603385	-0.341946	0.274891
O8	O	1.472870	-0.162533	0.447510
O9	O	1.775980	-0.341921	0.447465
O10	O	1.603643	-0.162514	0.578267
O11	O	1.472723	-0.264618	0.274910
O12	O	1.300216	-0.264574	0.447439
O13	O	1.472767	-0.341845	0.750716
O14	O	1.300172	-0.341870	0.578142
O15	O	1.603585	-0.264530	0.750770
O16	O	1.603326	-0.443962	0.447394
O17	O	1.472621	-0.443929	0.578117
C18	C	1.261574	-0.303221	0.512786
C19	C	1.143269	-0.303230	0.512796
C20	C	1.003245	-0.261143	0.441869
C21	C	1.074110	-0.245805	0.538999
C22	C	1.073975	-0.318539	0.415678
C23	C	1.003348	-0.287888	0.610055
C24	C	1.003207	-0.360648	0.486668
C25	C	1.074040	-0.345333	0.583864
C26	C	1.537979	-0.466786	0.512768
C27	C	1.538019	-0.536754	0.512781
C28	C	1.606073	-0.569554	0.580914
C29	C	1.606111	-0.635296	0.580940
C30	C	1.538105	-0.668237	0.512814
C31	C	1.470037	-0.635429	0.444676
C32	C	1.469994	-0.569688	0.444659
N33	N	1.530063	-0.771503	0.419663
N34	N	1.530110	-0.833954	0.419682
C35	C	1.538229	-0.866311	0.512862
N36	N	1.546320	-0.833858	0.606024
N37	N	1.546278	-0.771401	0.606004
C38	C	1.538144	-0.739522	0.512825
C39	C	1.606328	-0.970396	0.581030
C40	C	1.606358	-1.036140	0.581058
C41	C	1.470290	-1.036272	0.444784
C42	C	1.470255	-0.970530	0.444765
C43	C	1.538279	-0.937596	0.512887
C44	C	1.815736	-0.303249	0.512858
C45	C	1.934041	-0.303255	0.512874
C46	C	1.538186	-0.303179	0.790443
C47	C	1.538217	-0.303156	0.908749
C48	C	1.538280	-0.139044	0.512899
C49	C	1.538351	-0.069076	0.512932
C50	C	1.538105	-0.303244	0.236281
C51	C	1.538281	-0.303090	0.117976
C52	C	1.467088	-0.345184	0.977973
C53	C	1.564202	-0.360565	1.048761
C54	C	1.441178	-0.287737	1.048759
C55	C	1.635382	-0.318567	0.977979
C56	C	1.512292	-0.245712	0.977970
C57	C	1.609474	-0.261072	1.048727
H58	H	1.661460	-0.542741	0.636385
H59	H	0.972163	-0.225514	0.381930
H60	H	1.490302	-0.197176	0.946852
C61	C	1.335534	-0.628958	0.309983
C62	C	1.395282	-0.671634	0.369790
H63	H	1.289375	-0.651310	0.263758
H64	H	1.381911	-0.603311	0.269306
H65	H	1.294781	-0.603317	0.356326
H66	H	1.436041	-0.697273	0.323447
H67	H	1.348899	-0.697292	0.410469
C68	C	1.386082	-0.392381	0.824854
C69	C	1.385948	-0.393233	0.936022
H70	H	1.335989	-0.422042	0.798957
H71	H	1.454856	-0.402914	0.799587
H72	H	1.367474	-0.351608	0.800626
H73	H	1.404563	-0.434004	0.960250
H74	H	1.317159	-0.382704	0.961298
C75	C	1.741350	-0.183952	1.004508
C76	C	1.690808	-0.213056	1.090406
H77	H	1.791570	-0.154315	1.030241
H78	H	1.690023	-0.163056	0.962051
H79	H	1.776752	-0.214748	0.962988
H80	H	1.655400	-0.182260	1.131922
H81	H	1.742143	-0.233952	1.132881
H82	H	1.359087	-0.274723	1.079850
H83	H	1.661520	-0.662007	0.636435
H84	H	1.105234	-0.197256	0.561150
H85	H	1.104927	-0.380935	0.643947
H86	H	1.717497	-0.331636	0.947019
H87	H	0.972452	-0.274893	0.692244
C88	C	1.740808	-0.976867	0.715753
C89	C	1.681078	-0.934190	0.655927
H90	H	1.786947	-0.954514	0.761997
H91	H	1.781571	-1.002505	0.669430
H92	H	1.694410	-1.002517	0.756418
H93	H	1.727476	-0.908543	0.615255
H94	H	1.640312	-0.908541	0.702255
C95	C	0.996705	-0.442092	0.354918
C96	C	0.961119	-0.426164	0.456744
H97	H	0.970713	-0.482537	0.336435
H98	H	1.072111	-0.442467	0.354037
H99	H	0.971405	-0.412076	0.305221
H100	H	0.986425	-0.456178	0.506443
H101	H	0.885697	-0.425794	0.457633
H102	H	1.414575	-0.542982	0.389175
C103	C	1.227028	-0.336362	0.306138
C104	C	1.115859	-0.336010	0.304760
H105	H	1.252879	-0.347140	0.237658
H106	H	1.251260	-0.366313	0.356459
H107	H	1.252335	-0.295867	0.325215
H108	H	1.090551	-0.376506	0.285690
H109	H	1.091617	-0.306057	0.254422
C110	C	1.510891	-0.449316	1.153480
C111	C	1.593847	-0.426104	1.090752
H112	H	1.529191	-0.489776	1.179405
H113	H	1.448089	-0.452177	1.111977
H114	H	1.499148	-0.421741	1.211613
H115	H	1.605585	-0.453677	1.032615
H116	H	1.656667	-0.423246	1.132257
C117	C	1.621130	-1.109989	0.724276
C118	C	1.681170	-1.072194	0.655960
H119	H	1.667319	-1.132244	0.770521
H120	H	1.580639	-1.139013	0.683713
H121	H	1.574724	-1.084340	0.764937
H122	H	1.727570	-1.097843	0.615293
H123	H	1.721679	-1.043166	0.696527
H124	H	1.414912	-1.063092	0.389321
C125	C	1.335778	-0.977266	0.310059
C126	C	1.395460	-0.934472	0.369855
H127	H	1.289606	-0.955004	0.263807
H128	H	1.295053	-1.002905	0.356399
H129	H	1.382205	-1.002904	0.269401
H130	H	1.349034	-0.908837	0.410519
H131	H	1.436188	-0.908822	0.323509
