data_functionalizedCrystal
_audit_creation_method	'MofGen! by Chris Wilmer'
_symmetry_space_group_name_H-M	'P1'
_symmetry_Int_Tables_number	1
_symmetry_cell_setting	triclinic
loop_
_symmetry_equiv_pos_as_xyz
  x,y,z
_cell_length_a	25.639242
_cell_length_b	29.839131
_cell_length_c	25.639234
_cell_angle_alpha	89.974578
_cell_angle_beta	89.973005
_cell_angle_gamma	90.036947
loop_
_atom_site_label
_atom_site_type_symbol
_atom_site_fract_x
_atom_site_fract_y
_atom_site_fract_z
Zn1	Zn	0.799240	-0.178936	-0.295739
Zn2	Zn	1.299240	0.321064	0.204261
Zn3	Zn	0.799152	-0.254058	-0.208302
Zn4	Zn	1.299152	0.245942	0.291698
Zn5	Zn	0.711809	-0.178937	-0.208303
Zn6	Zn	1.211809	0.321063	0.291697
Zn7	Zn	0.711757	-0.254034	-0.295692
Zn8	Zn	1.211757	0.245966	0.204308
O9	O	0.755490	-0.216491	-0.252009
O10	O	1.255490	0.283509	0.247991
O11	O	0.872394	-0.188911	-0.284160
O12	O	1.372394	0.311089	0.215840
O13	O	0.787551	-0.244104	-0.135137
O14	O	1.287551	0.255896	0.364863
O15	O	0.723465	-0.116070	-0.219922
O16	O	1.223465	0.383930	0.280078
O17	O	0.872329	-0.244102	-0.219920
O18	O	1.372329	0.255898	0.280080
O19	O	0.787701	-0.116069	-0.284161
O20	O	1.287701	0.383931	0.215839
O21	O	0.723380	-0.188912	-0.135138
O22	O	1.223380	0.311088	0.364862
O23	O	0.638637	-0.188889	-0.219876
O24	O	1.138637	0.311111	0.280124
O25	O	0.723377	-0.244061	-0.368864
O26	O	1.223377	0.255939	0.131136
O27	O	0.638599	-0.244062	-0.284081
O28	O	1.138599	0.255938	0.215919
O29	O	0.787651	-0.188887	-0.368898
O30	O	1.287651	0.311113	0.131102
O31	O	0.787500	-0.316922	-0.219875
O32	O	1.287500	0.183078	0.280125
O33	O	0.723292	-0.316904	-0.284080
O34	O	1.223292	0.183096	0.215920
C35	C	0.619647	-0.216473	-0.251974
C36	C	1.119647	0.283527	0.248026
C37	C	0.561533	-0.216477	-0.251971
C38	C	1.061533	0.283523	0.248029
C39	C	0.201159	-0.245268	-0.285409
C40	C	0.701159	0.254732	0.214591
C41	C	0.146555	-0.245270	-0.285417
C42	C	0.646555	0.254730	0.214583
O43	O	0.118309	-0.269728	-0.313817
O44	O	0.618309	0.230272	0.186183
N45	N	0.119251	-0.216503	-0.252043
N46	N	0.619251	0.283497	0.247957
C47	C	0.146553	-0.187728	-0.218663
C48	C	0.646553	0.312272	0.281337
O49	O	0.118315	-0.163260	-0.190277
O50	O	0.618315	0.336740	0.309723
C51	C	0.201157	-0.187724	-0.218658
C52	C	0.701157	0.312276	0.281342
C53	C	0.228458	-0.216496	-0.252030
C54	C	0.728458	0.283504	0.247970
C55	C	0.228460	-0.274037	-0.318778
C56	C	0.728460	0.225963	0.181222
C57	C	0.283061	-0.274035	-0.318769
C58	C	0.783061	0.225965	0.181231
C59	C	0.310360	-0.245263	-0.285391
C60	C	0.810360	0.254737	0.214609
C61	C	0.283059	-0.216494	-0.252021
C62	C	0.783059	0.283506	0.247979
C63	C	0.228459	-0.158947	-0.185281
C64	C	0.728459	0.341053	0.314719
C65	C	0.283066	-0.158944	-0.185279
C66	C	0.783066	0.341056	0.314721
C67	C	0.310367	-0.187717	-0.218651
C68	C	0.810367	0.312283	0.281349
C69	C	0.364958	-0.187720	-0.218633
C70	C	0.864958	0.312280	0.281367
N71	N	0.392263	-0.216487	-0.252006
N72	N	0.892263	0.283513	0.247994
C73	C	0.364963	-0.245258	-0.285385
C74	C	0.864963	0.254742	0.214615
C75	C	0.031883	-0.187740	-0.218677
C76	C	0.531883	0.312260	0.281323
C77	C	-0.022720	-0.187746	-0.218679
C78	C	0.477280	0.312254	0.281321
C79	C	-0.022714	-0.245288	-0.285434
C80	C	0.477286	0.254712	0.214566
C81	C	0.031889	-0.245283	-0.285429
C82	C	0.531889	0.254717	0.214571
C83	C	0.059187	-0.216507	-0.252051
C84	C	0.559187	0.283493	0.247949
C85	C	0.479629	-0.245252	-0.285363
C86	C	0.979629	0.254748	0.214637
C87	C	0.534234	-0.245248	-0.285350
C88	C	1.034234	0.254752	0.214650
C89	C	0.534224	-0.187705	-0.218597
C90	C	1.034224	0.312295	0.281403
C91	C	0.479623	-0.187710	-0.218609
C92	C	0.979623	0.312290	0.281391
C93	C	0.452327	-0.216485	-0.251996
C94	C	0.952327	0.283515	0.248004
O95	O	0.393239	-0.163273	-0.190249
O96	O	0.893239	0.336727	0.309751
O97	O	0.393208	-0.269719	-0.313771
O98	O	0.893208	0.230281	0.186229
C99	C	0.755395	-0.333214	-0.251983
C100	C	1.255395	0.166786	0.248017
C101	C	0.755403	-0.383148	-0.251990
C102	C	1.255403	0.116852	0.248010
C103	C	0.788984	-0.692788	-0.218627
C104	C	1.288984	-0.192788	0.281373
C105	C	0.789048	-0.880461	-0.218647
C106	C	1.289048	-0.380461	0.281353
O107	O	0.817525	-0.904723	-0.190260
O108	O	1.317525	-0.404723	0.309740
N109	N	0.755598	-0.903933	-0.252049
N110	N	1.255598	-0.403933	0.247951
C111	C	0.722132	-0.880484	-0.285450
C112	C	1.222132	-0.380484	0.214550
O113	O	0.693685	-0.904754	-0.313865
O114	O	1.193685	-0.404754	0.186135
C115	C	0.722070	-0.692812	-0.285432
C116	C	1.222070	-0.192812	0.214568
C117	C	0.755519	-0.669342	-0.252024
C118	C	1.255519	-0.169342	0.247976
C119	C	0.822430	-0.669318	-0.185222
C120	C	1.322430	-0.169318	0.314778
C121	C	0.822412	-0.622403	-0.185215
C122	C	1.322412	-0.122403	0.314785
C123	C	0.788947	-0.598957	-0.218613
C124	C	1.288947	-0.098957	0.281387
C125	C	0.755500	-0.622427	-0.252018
C126	C	1.255500	-0.122427	0.247982
C127	C	0.688607	-0.669363	-0.318836
C128	C	1.188607	-0.169363	0.181164
C129	C	0.688595	-0.622442	-0.318829
C130	C	1.188595	-0.122442	0.181171
C131	C	0.722044	-0.598973	-0.285422
C132	C	1.222044	-0.098973	0.214578
C133	C	0.722017	-0.552065	-0.285409
C134	C	1.222017	-0.052065	0.214591
N135	N	0.755467	-0.528593	-0.252007
N136	N	1.255467	-0.028593	0.247993
C137	C	0.788932	-0.552039	-0.218609
C138	C	1.288932	-0.052039	0.281391
C139	C	0.722166	-0.979014	-0.285457
C140	C	1.222166	-0.479014	0.214543
C141	C	0.722180	-1.025932	-0.285461
C142	C	1.222180	-0.525932	0.214539
C143	C	0.789098	-1.025906	-0.218658
C144	C	1.289098	-0.525906	0.281342
C145	C	0.789080	-0.978988	-0.218652
C146	C	1.289080	-0.478988	0.281348
C147	C	0.755616	-0.955542	-0.252055
C148	C	1.255616	-0.455542	0.247945
C149	C	0.788890	-0.453513	-0.218597
C150	C	1.288890	0.046487	0.281403
C151	C	0.788868	-0.406594	-0.218592
C152	C	1.288868	0.093406	0.281408
C153	C	0.721952	-0.406624	-0.285396
C154	C	1.221952	0.093376	0.214604
C155	C	0.721973	-0.453539	-0.285400
C156	C	1.221973	0.046461	0.214600
C157	C	0.755446	-0.476983	-0.251999
C158	C	1.255446	0.023017	0.248001
O159	O	0.693559	-0.527774	-0.313785
O160	O	1.193559	-0.027774	0.186215
O161	O	0.817382	-0.527761	-0.190207
O162	O	1.317382	-0.027761	0.309793
C163	C	0.789002	-0.739703	-0.218633
C164	C	1.289002	-0.239703	0.281367
C165	C	0.755556	-0.763173	-0.252038
C166	C	1.255556	-0.263173	0.247962
C167	C	0.722091	-0.739727	-0.285436
C168	C	1.222091	-0.239727	0.214564
C169	C	0.755570	-0.810091	-0.252042
C170	C	1.255570	-0.310091	0.247958
C171	C	0.789035	-0.833537	-0.218644
C172	C	1.289035	-0.333537	0.281356
C173	C	0.822486	-0.810065	-0.185242
C174	C	1.322486	-0.310065	0.314758
C175	C	0.822467	-0.763149	-0.185235
C176	C	1.322467	-0.263149	0.314765
C177	C	0.688641	-0.763199	-0.318838
C178	C	1.188641	-0.263199	0.181162
C179	C	0.688661	-0.810115	-0.318841
C180	C	1.188661	-0.310115	0.181159
C181	C	0.722126	-0.833560	-0.285443
C182	C	1.222126	-0.333560	0.214557
C183	C	0.891863	-0.216509	-0.252045
C184	C	1.391863	0.283491	0.247955
C185	C	0.949977	-0.216517	-0.252060
C186	C	1.449977	0.283483	0.247940
C187	C	0.755518	-0.216471	-0.388382
C188	C	1.255518	0.283529	0.111618
C189	C	0.755530	-0.216463	-0.446496
C190	C	1.255530	0.283537	0.053504
C191	C	0.755599	-0.099313	-0.252047
C192	C	1.255599	0.400687	0.247953
C193	C	0.755645	-0.049378	-0.252063
C194	C	1.255645	0.450622	0.247937
C195	C	0.788957	-0.245164	-0.697682
C196	C	1.288957	0.254836	-0.197682
C197	C	0.788952	-0.245173	-0.643078
C198	C	1.288952	0.254827	-0.143078
O199	O	0.817349	-0.269626	-0.614834
O200	O	1.317349	0.230374	-0.114834
N201	N	0.755541	-0.216441	-0.615770
N202	N	1.255541	0.283559	-0.115770
C203	C	0.722130	-0.187701	-0.643070
C204	C	1.222130	0.312299	-0.143070
O205	O	0.693711	-0.163263	-0.614829
O206	O	1.193711	0.336737	-0.114829
C207	C	0.722134	-0.187694	-0.697674
C208	C	1.222134	0.312306	-0.197674
C209	C	0.755550	-0.216425	-0.724978
C210	C	1.255550	0.283575	-0.224978
C211	C	0.822371	-0.273893	-0.724986
C212	C	1.322371	0.226107	-0.224986
C213	C	0.822377	-0.273883	-0.779587
C214	C	1.322377	0.226117	-0.279587
C215	C	0.788969	-0.245144	-0.806883
C216	C	1.288969	0.254856	-0.306883
C217	C	0.755556	-0.216415	-0.779579
C218	C	1.255556	0.283585	-0.279579
C219	C	0.688721	-0.158956	-0.724972
C220	C	1.188721	0.341044	-0.224972
C221	C	0.688726	-0.158952	-0.779579
C222	C	1.188726	0.341048	-0.279579
C223	C	0.722143	-0.187683	-0.806884
C224	C	1.222143	0.312317	-0.306884
C225	C	0.722155	-0.187666	-0.861475
C226	C	1.222155	0.312334	-0.361475
N227	N	0.755566	-0.216398	-0.888782
N228	N	1.255566	0.283602	-0.388782
C229	C	0.788973	-0.245137	-0.861486
C230	C	1.288973	0.254863	-0.361486
C231	C	0.722126	-0.187718	-0.528399
C232	C	1.222126	0.312282	-0.028399
C233	C	0.722125	-0.187722	-0.473797
C234	C	1.222125	0.312278	0.026203
C235	C	0.788945	-0.245195	-0.473808
C236	C	1.288945	0.254805	0.026192
C237	C	0.788949	-0.245188	-0.528412
C238	C	1.288949	0.254812	-0.028412
C239	C	0.755536	-0.216450	-0.555707
C240	C	1.255536	0.283550	-0.055707
C241	C	0.788983	-0.245113	-0.976152
C242	C	1.288983	0.254887	-0.476152
C243	C	0.788988	-0.245099	-1.030757
C244	C	1.288988	0.254901	-0.530757
C245	C	0.722165	-0.187628	-1.030741
C246	C	1.222165	0.312372	-0.530741
C247	C	0.722162	-0.187640	-0.976140
C248	C	1.222162	0.312360	-0.476140
C249	C	0.755573	-0.216386	-0.948847
C250	C	1.255573	0.283614	-0.448847
O251	O	0.693771	-0.163227	-0.889753
O252	O	1.193771	0.336773	-0.389753
O253	O	0.817382	-0.269575	-0.889734
O254	O	1.317382	0.230425	-0.389734
C255	C	0.755491	-0.216478	-0.116167
C256	C	1.255491	0.283522	0.383833
C257	C	0.755581	-0.216360	-0.058053
C258	C	1.255581	0.283640	0.441947
H259	H	-0.044951	-0.268714	-0.312615
H260	H	0.455049	0.231286	0.187385
H261	H	0.694938	-1.045037	-0.312660
H262	H	1.194938	-0.545037	0.187340
H263	H	0.849586	-0.297280	-0.801813
H264	H	1.349586	0.202720	-0.301813
H265	H	0.661367	-0.688464	-0.346038
H266	H	1.161367	-0.188464	0.153962
H267	H	0.849732	-0.829163	-0.158047
H268	H	1.349732	-0.329163	0.341953
H269	H	0.457394	-0.164282	-0.191433
H270	H	0.957394	0.335718	0.308567
F271	F	0.686562	-0.157127	-0.557444
F272	F	1.186562	0.342873	-0.057444
H273	H	0.305285	-0.297463	-0.345945
H274	H	0.805285	0.202537	0.154055
F275	F	0.312115	-0.128315	-0.149753
F276	F	0.812115	0.371685	0.350247
H277	H	0.849575	-0.297298	-0.702768
H278	H	1.349575	0.202702	-0.202768
H279	H	0.661508	-0.135561	-0.702750
H280	H	1.161508	0.364439	-0.202750
F281	F	0.563287	-0.275874	-0.320869
F282	F	1.063287	0.224126	0.179131
F283	F	0.858019	-0.597431	-0.149664
F284	F	1.358019	-0.097431	0.350336
H285	H	0.816193	-0.268518	-0.953936
H286	H	1.316193	0.231482	-0.453936
F287	F	0.858052	-0.694264	-0.149673
F288	F	1.358052	-0.194264	0.350327
F289	F	0.653165	-0.128362	-0.808626
F290	F	1.153165	0.371638	-0.308626
H291	H	-0.044944	-0.164322	-0.191499
H292	H	0.455056	0.335678	0.308501
F293	F	0.686565	-0.157136	-0.444744
F294	F	1.186565	0.342864	0.055256
H295	H	0.816105	-0.387486	-0.191385
H296	H	1.316105	0.112514	0.308615
H297	H	0.694959	-0.164239	-0.953908
H298	H	1.194959	0.335761	-0.453908
F299	F	0.199415	-0.304662	-0.354308
F300	F	0.699415	0.195338	0.145692
F301	F	0.824681	-0.954014	-0.183095
F302	F	1.324681	-0.454014	0.316905
H303	H	0.556461	-0.164281	-0.191419
H304	H	1.056461	0.335719	0.308581
F305	F	0.060940	-0.275906	-0.320948
F306	F	0.560940	0.224094	0.179052
H307	H	0.661345	-0.603356	-0.346032
H308	H	1.161345	-0.103356	0.153968
H309	H	0.816159	-0.268584	-0.550639
H310	H	1.316159	0.231416	-0.050639
H311	H	0.816149	-0.472596	-0.191400
H312	H	1.316149	0.027404	0.308600
F313	F	0.824712	-1.050867	-0.183112
F314	F	1.324712	-0.550867	0.316888
F315	F	0.686364	-0.478518	-0.320946
F316	F	1.186364	0.021482	0.179054
H317	H	0.694967	-0.164228	-1.052975
H318	H	1.194967	0.335772	-0.552975
F319	F	0.686545	-0.954068	-0.321011
F320	F	1.186545	-0.454068	0.178989
F321	F	0.060931	-0.157113	-0.183146
F322	F	0.560931	0.342887	0.316854
H323	H	0.206239	-0.135519	-0.158104
H324	H	0.706239	0.364481	0.341896
H325	H	0.694704	-0.387527	-0.312587
H326	H	1.194704	0.112473	0.187413
F327	F	0.858070	-0.738177	-0.149680
F328	F	1.358070	-0.238177	0.350320
H329	H	0.661419	-0.829220	-0.346045
H330	H	1.161419	-0.329220	0.153955
F331	F	0.824499	-0.275784	-0.444748
F332	F	1.324499	0.224216	0.055252
F333	F	0.653021	-0.738252	-0.354387
F334	F	1.153021	-0.238252	0.145613
H335	H	0.816202	-0.268496	-1.052986
H336	H	1.316202	0.231504	-0.552986
H337	H	0.457410	-0.268682	-0.312552
H338	H	0.957410	0.231318	0.187448
