data_functionalizedCrystal
_audit_creation_method	'MofGen! by Chris Wilmer'
_symmetry_space_group_name_H-M	'P1'
_symmetry_Int_Tables_number	1
_symmetry_cell_setting	triclinic
loop_
_symmetry_equiv_pos_as_xyz
  x,y,z
_cell_length_a	16.120490
_cell_length_b	16.120444
_cell_length_c	12.759393
_cell_angle_alpha	87.135249
_cell_angle_beta	92.918609
_cell_angle_gamma	90.165174
loop_
_atom_site_label
_atom_site_type_symbol
_atom_site_fract_x
_atom_site_fract_y
_atom_site_fract_z
Zn1	Zn	1.254499	-0.395628	0.699339
Zn2	Zn	1.247332	-0.534700	0.532073
Zn3	Zn	1.115430	-0.388601	0.514348
Zn4	Zn	1.108349	-0.527574	0.698384
O5	O	1.181403	-0.461626	0.611036
O6	O	1.369914	-0.420000	0.684969
O7	O	1.229800	-0.515361	0.382701
O8	O	1.139841	-0.273170	0.531870
O9	O	1.364649	-0.522175	0.562079
O10	O	1.242014	-0.278333	0.667782
O11	O	1.132892	-0.408022	0.369679
O12	O	0.998125	-0.401112	0.530943
O13	O	1.127771	-0.510030	0.845531
O14	O	0.992922	-0.503216	0.666153
O15	O	1.235147	-0.413090	0.846233
O16	O	1.222933	-0.650117	0.561153
O17	O	1.120822	-0.644882	0.683340
C18	C	0.965351	-0.450629	0.596522
C19	C	0.872922	-0.445944	0.590339
C20	C	0.659954	-0.485919	0.643110
C21	C	0.703699	-0.437399	0.579049
C22	C	0.797863	-0.442155	0.585333
C23	C	0.565781	-0.481164	0.636828
C24	C	1.170354	-0.677672	0.624091
C25	C	1.165703	-0.770102	0.629716
C26	C	1.205731	-0.983081	0.582096
C27	C	1.157228	-0.939327	0.639998
C28	C	1.161945	-0.845162	0.634275
C29	C	1.201015	-1.077255	0.587817
C30	C	1.398298	-0.472666	0.625608
C31	C	1.490725	-0.477371	0.631817
C32	C	1.181469	-0.461549	0.885069
C33	C	1.181497	-0.461516	1.001845
C34	C	1.192517	-0.244737	0.597955
C35	C	1.197253	-0.152312	0.592381
C36	C	1.181387	-0.461645	0.338069
C37	C	1.181532	-0.461451	0.221290
C38	C	1.237412	-0.411032	1.057074
C39	C	1.237428	-0.410996	1.166797
C40	C	1.125611	-0.511938	1.166053
C41	C	1.125592	-0.511968	1.056332
H42	H	0.670429	-0.392288	0.519486
H43	H	1.080053	-0.553078	1.011363
O44	O	0.699538	-0.539849	0.714110
C45	C	0.674172	-0.621658	0.694577
H46	H	0.610975	-0.620218	0.650166
H47	H	0.669441	-0.658882	0.772393
H48	H	0.721588	-0.652027	0.645380
O49	O	1.071198	-0.560856	1.218922
C50	C	0.989246	-0.538485	1.185421
H51	H	0.988446	-0.471849	1.150975
H52	H	0.947810	-0.543540	1.255246
H53	H	0.965214	-0.581976	1.122956
H54	H	1.112159	-0.972590	0.693867
O55	O	1.259606	-0.943451	0.517945
C56	C	1.341445	-0.968728	0.547777
H57	H	1.344450	-0.992827	0.633416
H58	H	1.385334	-0.913608	0.538110
H59	H	1.360730	-1.020186	0.495929
H60	H	1.282932	-0.369948	1.012715
O61	O	1.291826	-0.361935	1.220288
C62	C	1.341146	-0.317398	1.148662
H63	H	1.342265	-0.351629	1.072698
H64	H	1.407124	-0.311857	1.184238
H65	H	1.313933	-0.252696	1.131131
