data_functionalizedCrystal
_audit_creation_method	'MofGen! by Chris Wilmer'
_symmetry_space_group_name_H-M	'P1'
_symmetry_Int_Tables_number	1
_symmetry_cell_setting	triclinic
loop_
_symmetry_equiv_pos_as_xyz
  x,y,z
_cell_length_a	14.044220
_cell_length_b	14.044220
_cell_length_c	13.101039
_cell_angle_alpha	86.332523
_cell_angle_beta	86.335636
_cell_angle_gamma	86.811123
loop_
_atom_site_label
_atom_site_type_symbol
_atom_site_fract_x
_atom_site_fract_y
_atom_site_fract_z
O1	O	1.281975	-0.225342	-0.085218
O2	O	1.615308	0.107991	0.248116
O3	O	1.948641	0.441325	0.581449
O4	O	1.005303	-0.217036	-0.085220
O5	O	1.338637	0.116297	0.248113
O6	O	1.671970	0.449630	0.581447
O7	O	1.139486	-0.082854	-0.085209
O8	O	1.472819	0.250479	0.248125
O9	O	1.806152	0.583813	0.581458
O10	O	1.147792	-0.359524	-0.085229
O11	O	1.481126	-0.026191	0.248104
O12	O	1.814459	0.307142	0.581438
O13	O	1.129860	-0.092499	0.085220
O14	O	1.463193	0.240834	0.418554
O15	O	1.796526	0.574168	0.751887
O16	O	0.995677	-0.226681	0.085209
O17	O	1.329011	0.106652	0.418542
O18	O	1.662344	0.439986	0.751876
O19	O	1.272349	-0.234987	0.085211
O20	O	1.605682	0.098346	0.418545
O21	O	1.939015	0.431680	0.751878
Zn22	Zn	1.132485	-0.232365	0.112270
Zn23	Zn	1.465818	0.100968	0.445603
Zn24	Zn	1.799151	0.434301	0.778936
Zn25	Zn	1.145167	-0.219658	-0.112278
Zn26	Zn	1.478501	0.113675	0.221055
Zn27	Zn	1.811834	0.447009	0.554389
O28	O	1.138166	-0.369169	0.085200
O29	O	1.471500	-0.035836	0.418533
O30	O	1.804833	0.297497	0.751867
C31	C	0.964868	-0.218223	-0.000006
C32	C	1.298202	0.115110	0.333328
C33	C	1.631535	0.448444	0.666661
C34	C	0.858726	-0.207378	-0.000006
C35	C	1.192059	0.125955	0.333327
C36	C	1.525392	0.459288	0.666660
C37	C	1.131037	-0.052055	0.000006
C38	C	1.464370	0.281279	0.333340
C39	C	1.797704	0.614612	0.666673
C40	C	1.120192	0.054088	0.000007
C41	C	1.453526	0.387421	0.333341
C42	C	1.786859	0.720755	0.666674
C43	C	1.312784	-0.233800	-0.000005
C44	C	1.646117	0.099533	0.333328
C45	C	1.979450	0.432867	0.666662
C46	C	1.418927	-0.244644	-0.000011
C47	C	1.752260	0.088689	0.333322
C48	C	2.085593	0.422022	0.666655
C49	C	1.613264	-0.264471	-0.000012
C50	C	1.946598	0.068863	0.333322
C51	C	2.279931	0.402196	0.666655
C52	C	1.664394	-0.187556	-0.000006
C53	C	1.997727	0.145777	0.333328
C54	C	2.331061	0.479110	0.666661
C55	C	1.772530	-0.198588	-0.000006
C56	C	2.105863	0.134745	0.333327
C57	C	2.439197	0.468079	0.666661
C58	C	1.505118	-0.253440	-0.000012
C59	C	1.838452	0.079893	0.333322
C60	C	2.171785	0.413226	0.666655
C61	C	1.146615	-0.399968	-0.000017
C62	C	1.479948	-0.066635	0.333316
C63	C	1.813282	0.266698	0.666650
C64	C	1.157460	-0.506111	-0.000025
C65	C	1.490794	-0.172777	0.333308
C66	C	1.824127	0.160556	0.666642
N67	N	1.123836	-0.241038	0.265517
N68	N	1.457169	0.092295	0.598851
N69	N	1.790503	0.425629	0.932184
C70	C	1.100367	0.248427	-0.000008
C71	C	1.433700	0.581760	0.333326
C72	C	1.767033	0.915093	0.666659
C73	C	1.177281	0.299557	-0.000010
C74	C	1.510615	0.632890	0.333323
C75	C	1.843948	0.966223	0.666657
C76	C	1.166250	0.407693	-0.000018
C77	C	1.499584	0.741027	0.333315
C78	C	1.832917	1.074360	0.666648
C79	C	1.111396	0.140280	0.000001
C80	C	1.444730	0.473613	0.333334
C81	C	1.778063	0.806947	0.666667
N82	N	1.153823	-0.210978	-0.265526
N83	N	1.487156	0.122355	0.067807
N84	N	1.820489	0.455688	0.401141
C85	C	1.112070	-0.252846	0.474559
C86	C	1.445403	0.080487	0.807892
C87	C	1.778737	0.413821	1.141226
C88	C	1.165586	-0.199173	0.525439
C89	C	1.498919	0.134160	0.858772
C90	C	1.832253	0.467493	1.192106
C91	C	1.159039	-0.205743	0.641757
C92	C	1.492373	0.127590	0.975090
C93	C	1.825706	0.460923	1.308424
C94	C	1.118616	-0.246277	0.358230
C95	C	1.451949	0.087056	0.691564
C96	C	1.785282	0.420390	1.024897
H97	H	1.626959	-0.113419	-0.000075
H98	H	1.960292	0.219914	0.333259
H99	H	2.293625	0.553248	0.666592
H100	H	1.026239	0.285864	-0.000011
H101	H	1.359573	0.619197	0.333323
H102	H	1.692906	0.952530	0.666656
H103	H	1.650702	-0.338598	-0.000018
H104	H	1.984035	-0.005264	0.333315
H105	H	2.317368	0.328069	0.666649
C106	C	1.277428	0.248985	0.000014
C107	C	1.610762	0.582318	0.333347
C108	C	1.944095	0.915652	0.666680
H109	H	1.271803	0.181884	0.000031
H110	H	1.605136	0.515218	0.333364
H111	H	1.938469	0.848551	0.666697
H112	H	1.314500	0.270280	-0.059412
H113	H	1.647834	0.603613	0.273921
H114	H	1.981167	0.936946	0.607254
H115	H	1.307757	0.263577	0.059460
H116	H	1.641090	0.596910	0.392793
H117	H	1.974424	0.930244	0.726127
C118	C	1.234154	-0.130464	0.466279
C119	C	1.567488	0.202870	0.799613
C120	C	1.900821	0.536203	1.132946
H121	H	1.229635	-0.135022	0.394728
H122	H	1.562969	0.198312	0.728062
H123	H	1.896302	0.531645	1.061395
H124	H	1.217355	-0.066848	0.483790
H125	H	1.550688	0.266486	0.817123
H126	H	1.884021	0.599819	1.150456
H127	H	1.297791	-0.147158	0.483810
H128	H	1.631124	0.186175	0.817143
H129	H	1.964458	0.519508	1.150476
C130	C	1.043547	-0.321591	0.533718
C131	C	1.376880	0.011742	0.867052
C132	C	1.710214	0.345076	1.200385
H133	H	1.048091	-0.317050	0.605268
H134	H	1.381425	0.016283	0.938601
H135	H	1.714758	0.349617	1.271935
H136	H	0.979899	-0.304947	0.516212
H137	H	1.313233	0.028387	0.849545
H138	H	1.646566	0.361720	1.182879
H139	H	1.060394	-0.385199	0.516191
H140	H	1.393728	-0.051865	0.849525
H141	H	1.727061	0.281468	1.182858
