data_functionalizedCrystal
_audit_creation_method	'MofGen! by Chris Wilmer'
_symmetry_space_group_name_H-M	'P1'
_symmetry_Int_Tables_number	1
_symmetry_cell_setting	triclinic
loop_
_symmetry_equiv_pos_as_xyz
  x,y,z
_cell_length_a	10.489711
_cell_length_b	10.489716
_cell_length_c	14.048226
_cell_angle_alpha	89.997629
_cell_angle_beta	89.992023
_cell_angle_gamma	84.528072
loop_
_atom_site_label
_atom_site_type_symbol
_atom_site_fract_x
_atom_site_fract_y
_atom_site_fract_z
O1	O	1.694063	0.179792	-0.079186
O2	O	1.322861	0.196725	-0.079179
O3	O	1.516925	0.002658	-0.079186
O4	O	1.499999	0.373859	-0.079179
O5	O	1.516901	0.002646	0.079135
O6	O	1.322838	0.196713	0.079142
O7	O	1.694040	0.179780	0.079136
Zn8	Zn	1.508435	0.188245	0.104276
Zn9	Zn	1.508466	0.188260	-0.104319
O10	O	1.499976	0.373847	0.079142
C11	C	1.275317	0.195448	-0.000018
C12	C	1.133686	0.191646	-0.000016
C13	C	0.951289	0.308352	-0.000024
C14	C	1.043452	0.250061	-0.078085
C15	C	1.043402	0.250018	0.078008
C16	C	0.973512	0.126517	-0.078161
C17	C	0.973452	0.126491	0.078002
C18	C	1.065587	0.068111	-0.000078
C19	C	1.515642	-0.044880	-0.000028
C20	C	1.511837	-0.186511	-0.000037
C21	C	1.630843	-0.284198	-0.000030
C22	C	1.567969	-0.361546	-0.078087
C23	C	1.567918	-0.361521	0.078005
C24	C	1.449013	-0.261994	-0.078158
C25	C	1.448979	-0.261964	0.078004
C26	C	1.386018	-0.339263	-0.000072
C27	C	1.741584	0.181057	-0.000028
C28	C	1.883215	0.184859	-0.000036
C29	C	1.501259	0.421385	-0.000017
C30	C	1.505064	0.563016	-0.000015
N31	N	1.508423	0.188233	0.246636
N32	N	1.508488	0.188261	-0.246680
C33	C	1.594382	0.102337	0.296452
C34	C	1.594391	0.102336	0.396109
C35	C	1.508445	0.188239	0.445950
C36	C	1.422477	0.274140	0.396128
C37	C	1.422463	0.274134	0.296472
C38	C	1.422514	0.274150	0.603842
C39	C	1.422529	0.274158	0.703505
C40	C	1.594441	0.102352	0.703479
C41	C	1.594427	0.102345	0.603823
C42	C	1.508460	0.188248	0.554008
H43	H	1.115053	-0.033485	-0.000119
O44	O	1.628115	-0.413412	-0.156747
C45	C	1.757069	-0.385854	-0.156488
H46	H	1.787688	-0.365725	-0.080527
H47	H	1.820082	-0.471347	-0.185972
H48	H	1.767712	-0.298210	-0.202757
H49	H	1.618171	-0.405004	0.143995
H50	H	1.664384	0.032391	0.436668
O51	O	1.339094	0.357754	0.248121
C52	C	1.360950	0.484234	0.272475
H53	H	1.463084	0.485850	0.299851
H54	H	1.346846	0.548106	0.206934
H55	H	1.290597	0.521022	0.330331
O56	O	0.891781	0.429352	-0.000067
C57	C	0.757980	0.424071	0.000746
H58	H	0.734935	0.328191	0.031220
H59	H	0.711325	0.505122	0.046693
H60	H	0.719486	0.434630	-0.075017
H61	H	1.074452	0.302322	-0.144075
H62	H	1.398813	-0.218680	-0.144223
O63	O	1.677948	0.019039	0.247976
C64	C	1.757237	0.088060	0.190263
H65	H	1.760390	0.188674	0.220285
H66	H	1.858125	0.036933	0.189078
H67	H	1.717316	0.094383	0.114758
H68	H	0.942717	0.074318	-0.144233
O69	O	1.677898	0.018727	0.751756
C70	C	1.656011	-0.107755	0.727431
H71	H	1.606830	-0.108078	0.655085
H72	H	1.751329	-0.169638	0.724003
H73	H	1.592180	-0.147827	0.783534
O74	O	1.677603	0.018587	0.555411
C75	C	1.608326	-0.060765	0.497960
H76	H	1.509101	-0.010686	0.482946
H77	H	1.661353	-0.080846	0.427914
H78	H	1.598505	-0.154929	0.536563
O79	O	1.388909	-0.210170	0.156709
C80	C	1.260551	-0.239641	0.157378
H81	H	1.251352	-0.328698	0.112341
H82	H	1.230055	-0.258344	0.233612
H83	H	1.196454	-0.155716	0.126724
O84	O	1.262489	-0.368567	-0.000241
C85	C	1.240447	-0.441531	-0.081862
H86	H	1.335283	-0.490616	-0.108743
H87	H	1.173275	-0.517034	-0.063096
H88	H	1.194958	-0.375947	-0.139748
O89	O	1.080144	0.312536	0.156714
C90	C	1.021416	0.439168	0.156403
H91	H	0.931273	0.444434	0.110701
H92	H	0.994776	0.469487	0.232318
H93	H	1.090709	0.505981	0.125939
H94	H	1.352542	0.344108	0.744080
H95	H	0.942424	0.074277	0.143998
O96	O	1.754262	-0.254552	-0.000247
C97	C	1.776039	-0.181433	-0.081850
H98	H	1.681070	-0.132589	-0.108667
H99	H	1.842981	-0.105728	-0.063086
H100	H	1.821674	-0.246851	-0.139783
O101	O	1.338962	0.357721	0.555598
C102	C	1.263089	0.433526	0.620956
H103	H	1.315406	0.435473	0.691985
H104	H	1.244553	0.535210	0.592159
H105	H	1.167956	0.391197	0.631573
H106	H	1.352492	0.344080	0.436714
