data_functionalizedCrystal
_audit_creation_method	'MofGen! by Chris Wilmer'
_symmetry_space_group_name_H-M	'P1'
_symmetry_Int_Tables_number	1
_symmetry_cell_setting	triclinic
loop_
_symmetry_equiv_pos_as_xyz
  x,y,z
_cell_length_a	16.974885
_cell_length_b	10.654551
_cell_length_c	15.455313
_cell_angle_alpha	92.693835
_cell_angle_beta	90.969048
_cell_angle_gamma	83.937829
loop_
_atom_site_label
_atom_site_type_symbol
_atom_site_fract_x
_atom_site_fract_y
_atom_site_fract_z
O1	O	1.049940	0.160127	0.001509
O2	O	0.820615	0.179298	-0.014575
O3	O	0.940550	-0.013081	-0.006164
O4	O	0.930005	0.352506	-0.006903
O5	O	0.933691	-0.002125	0.137617
O6	O	0.813756	0.190254	0.129206
O7	O	1.043082	0.171083	0.145290
Cu8	Cu	0.927793	0.181668	0.150376
Cu9	Cu	0.935904	0.168712	-0.019662
O10	O	0.923147	0.363462	0.136879
C11	C	0.787821	0.183844	0.055256
C12	C	0.700325	0.181055	0.049119
C13	C	0.208223	0.164664	0.006102
C14	C	0.290434	0.167286	0.011880
C15	C	0.327792	0.174579	0.093145
C16	C	0.282936	0.179236	0.168637
C17	C	0.200726	0.176605	0.162858
C18	C	0.573259	0.183081	0.118832
C19	C	0.655474	0.185716	0.124605
C20	C	0.662967	0.173763	-0.032152
C21	C	0.580755	0.171140	-0.037924
C22	C	0.535907	0.175791	0.037568
N23	N	0.411825	0.177263	0.099053
N24	N	0.451876	0.173098	0.031659
C25	C	0.936346	-0.054393	0.065670
C26	C	0.934029	-0.193813	0.065502
C27	C	0.936681	-0.265286	-0.012948
C28	C	0.934497	-0.396283	-0.013097
C29	C	0.927013	-0.384324	0.143661
C30	C	0.929191	-0.253328	0.143809
C31	C	0.941519	-0.205771	-0.091254
C32	C	0.944172	-0.277244	-0.169710
C33	C	0.941988	-0.408242	-0.169860
C34	C	0.937151	-0.467766	-0.091553
C35	C	1.075875	0.166536	0.075457
C36	C	1.163372	0.169325	0.081588
C37	C	0.927350	0.404774	0.065042
C38	C	0.929667	0.544193	0.065205
N39	N	0.922093	0.190781	0.269972
N40	N	0.941609	0.159590	-0.139257
C41	C	0.973064	0.109081	0.318941
C42	C	0.968761	0.115984	0.409447
C43	C	0.913491	0.204593	0.450983
C44	C	0.862515	0.286295	0.402007
C45	C	0.866815	0.279386	0.311503
C46	C	0.894933	0.234383	0.721263
C47	C	0.890639	0.241289	0.811774
C48	C	0.996884	0.070975	0.819208
C49	C	1.001182	0.064079	0.728701
C50	C	0.950203	0.145777	0.679733
N51	N	0.909093	0.211653	0.543495
N52	N	0.954598	0.138710	0.587223
H53	H	0.550344	0.165200	-0.104098
H54	H	0.944140	-0.466430	-0.233743
C55	C	0.926279	-0.174705	0.230108
N56	N	0.924084	-0.115485	0.295110
C57	C	0.339768	0.162142	-0.071161
N58	N	0.376926	0.158260	-0.133712
C59	C	0.801710	0.383755	0.447699
N60	N	0.755909	0.457162	0.482114
C61	C	0.943847	-0.061656	-0.091102
N62	N	0.945574	0.046896	-0.090989
H63	H	0.177811	0.158735	-0.060073
H64	H	0.699492	0.169975	-0.093613
C65	C	0.810749	0.369272	0.257638
N66	N	0.768519	0.436978	0.217067
C67	C	1.033866	0.011603	0.273260
N68	N	1.079661	-0.061824	0.238856
H69	H	1.010265	0.049457	0.449317
C70	C	0.696567	0.193731	0.214006
N71	N	0.727518	0.199768	0.281340
C72	C	0.523933	0.188236	0.201876
N73	N	0.486777	0.192131	0.264429
C74	C	1.061980	-0.033404	0.683018
N75	N	1.107774	-0.106829	0.648610
C76	C	0.324028	0.187311	0.258029
N77	N	0.354977	0.193417	0.325361
C78	C	0.921698	-0.449807	0.229792
N79	N	0.917697	-0.499130	0.294669
C80	C	0.151390	0.181738	0.245899
N81	N	0.114231	0.185602	0.308448
H82	H	0.948103	-0.228769	-0.233465
C83	C	0.934749	-0.611868	-0.091721
N84	N	0.932945	-0.720406	-0.091849
H85	H	1.038388	0.004459	0.859085
C86	C	0.829832	0.338766	0.857461
N87	N	0.784035	0.412183	0.891873
H88	H	0.853425	0.300908	0.681400
