data_functionalizedCrystal
_audit_creation_method	'MofGen! by Chris Wilmer'
_symmetry_space_group_name_H-M	'P1'
_symmetry_Int_Tables_number	1
_symmetry_cell_setting	triclinic
loop_
_symmetry_equiv_pos_as_xyz
  x,y,z
_cell_length_a	15.711784
_cell_length_b	15.538191
_cell_length_c	8.140239
_cell_angle_alpha	89.999314
_cell_angle_beta	90.002442
_cell_angle_gamma	83.430448
loop_
_atom_site_label
_atom_site_type_symbol
_atom_site_fract_x
_atom_site_fract_y
_atom_site_fract_z
O1	O	1.000647	0.466244	0.136617
O2	O	1.500647	0.966244	0.636617
O3	O	0.769293	0.401513	0.136614
O4	O	1.269293	0.901513	0.636614
O5	O	0.930005	0.312268	0.136624
O6	O	1.430005	0.812268	0.636624
O7	O	0.839935	0.555489	0.136607
O8	O	1.339935	1.055489	0.636607
O9	O	0.930002	0.312266	-0.136603
O10	O	1.430002	0.812266	0.363397
O11	O	0.769289	0.401511	-0.136613
O12	O	1.269289	0.901511	0.363387
O13	O	1.000644	0.466242	-0.136610
O14	O	1.500644	0.966242	0.363390
Zn15	Zn	0.884966	0.433876	-0.179992
Zn16	Zn	1.384966	0.933876	0.320008
Zn17	Zn	0.884971	0.433879	0.179996
Zn18	Zn	1.384971	0.933879	0.679996
O19	O	0.839931	0.555487	-0.136620
O20	O	1.339931	1.055487	0.363380
C21	C	0.740405	0.390938	0.000000
C22	C	1.240405	0.890938	0.500000
C23	C	0.654335	0.359420	-0.000000
C24	C	1.154335	0.859420	0.500000
C25	C	0.566616	0.240766	0.000006
C26	C	1.066616	0.740766	0.500006
C27	C	0.647487	0.270391	0.000006
C28	C	1.147487	0.770391	0.500006
C29	C	0.580307	0.418861	0.000002
C30	C	1.080307	0.918861	0.500002
C31	C	0.499428	0.389249	0.000011
C32	C	0.999428	0.889249	0.500011
C33	C	0.492590	0.300200	0.000011
C34	C	0.992590	0.800200	0.500011
C35	C	0.425403	0.448683	0.000015
C36	C	0.925403	0.948683	0.500015
C37	C	0.344532	0.419073	0.000015
C38	C	0.844532	0.919073	0.500015
C39	C	0.337685	0.330028	0.000010
C40	C	0.837685	0.830028	0.500010
C41	C	0.411719	0.270590	0.000011
C42	C	0.911719	0.770590	0.500011
C43	C	0.432243	0.537731	0.000003
C44	C	0.932243	1.037731	0.500003
C45	C	0.358218	0.597165	0.000008
C46	C	0.858218	1.097165	0.500008
C47	C	0.277344	0.567555	0.000019
C48	C	0.777344	1.067555	0.500019
C49	C	0.270498	0.478511	0.000015
C50	C	0.770498	0.978511	0.500015
C51	C	0.203311	0.626993	0.000019
C52	C	0.703311	1.126993	0.500019
C53	C	0.122439	0.597383	0.000019
C54	C	0.622439	1.097383	0.500019
C55	C	0.189627	0.448901	0.000014
C56	C	0.689627	0.948901	0.500014
C57	C	0.939427	0.280419	0.000016
C58	C	1.439427	0.780419	0.500016
C59	C	0.967497	0.185518	0.000033
C60	C	1.467497	0.685518	0.500033
C61	C	0.688628	-0.198370	-0.000006
C62	C	1.188628	0.301630	0.499994
C63	C	0.715024	-0.287540	-0.000010
C64	C	1.215024	0.212460	0.499990
C65	C	0.863494	-0.258820	-0.000007
C66	C	1.363494	0.241180	0.499993
C67	C	0.837111	-0.169646	0.000005
C68	C	1.337111	0.330354	0.500005
C69	C	0.749677	-0.139429	0.000003
C70	C	1.249677	0.360571	0.500003
C71	C	0.898159	-0.110705	0.000014
C72	C	1.398159	0.389295	0.500014
C73	C	0.871778	-0.021538	0.000017
C74	C	1.371778	0.478462	0.500017
C75	C	0.784348	0.008686	0.000010
C76	C	1.284348	0.508686	0.500010
C77	C	0.723295	-0.050263	0.000006
C78	C	1.223295	0.449737	0.500006
C79	C	0.985593	-0.140924	0.000004
C80	C	1.485593	0.359076	0.500004
C81	C	1.046642	-0.081982	0.000013
C82	C	1.546642	0.418018	0.500013
C83	C	1.020260	0.007186	0.000027
C84	C	1.520260	0.507186	0.500027
C85	C	0.932830	0.037411	0.000021
C86	C	1.432830	0.537411	0.500021
C87	C	1.081313	0.066135	0.000032
C88	C	1.581313	0.566135	0.500032
C89	C	1.054931	0.155301	0.000034
C90	C	1.554931	0.655301	0.500034
C91	C	0.906449	0.126577	0.000024
C92	C	1.406449	0.626577	0.500024
C93	C	1.029532	0.476817	0.000008
C94	C	1.529532	0.976817	0.500008
C95	C	1.115601	0.508335	0.000019
C96	C	1.615601	1.008335	0.500019
C97	C	0.830510	0.587336	-0.000008
C98	C	1.330510	1.087336	0.499992
C99	C	0.802439	0.682237	-0.000014
C100	C	1.302439	1.182237	0.499986
N101	N	0.884969	0.433876	-0.425675
N102	N	1.384969	0.933876	0.074325
N103	N	0.884976	0.433875	0.425679
N104	N	1.384976	0.933875	0.925679
H105	H	0.585887	0.491364	-0.000004
H106	H	1.085887	0.991364	0.499996
H107	H	0.665304	-0.335530	-0.000041
H108	H	1.165304	0.164470	0.499959
H109	H	1.152501	0.041518	0.000017
H110	H	1.652501	0.541518	0.500017
H111	H	1.007070	-0.213529	0.000016
H112	H	1.507070	0.286471	0.500016
H113	H	0.498096	0.561836	-0.000003
H114	H	0.998096	1.061836	0.499997
H115	H	0.363798	0.669669	0.000002
H116	H	0.863798	1.169669	0.500002
H117	H	0.835251	0.151181	0.000034
H118	H	1.335251	0.651181	0.500034
H119	H	0.762869	0.081292	0.000003
H120	H	1.262869	0.581292	0.500003
H121	H	0.208892	0.699497	0.000003
H122	H	0.708892	1.199497	0.500003
H123	H	1.117831	-0.106598	0.000008
H124	H	1.617831	0.393402	0.500008
H125	H	0.062164	0.645781	0.000016
H126	H	0.562164	1.145781	0.500016
H127	H	0.934683	-0.283436	-0.000012
H128	H	1.434683	0.216564	0.499988
H129	H	1.104643	0.203294	0.000040
H130	H	1.604643	0.703294	0.500040
H131	H	0.184060	0.376389	0.000032
H132	H	0.684060	0.876389	0.500032
H133	H	0.271833	0.305921	-0.000005
H134	H	0.771833	0.805921	0.499995
H135	H	0.406152	0.198078	0.000028
H136	H	0.906152	0.698078	0.500028
H137	H	0.707761	0.221985	0.000008
H138	H	1.207761	0.721985	0.500008
H139	H	0.561049	0.168254	0.000024
H140	H	1.061049	0.668254	0.500024
H141	H	0.652098	-0.025659	0.000016
H142	H	1.152098	0.474341	0.500016
H143	H	0.617431	-0.173766	0.000004
H144	H	1.117431	0.326234	0.500004
