data_functionalizedCrystal
_audit_creation_method	'MofGen! by Chris Wilmer'
_symmetry_space_group_name_H-M	'P1'
_symmetry_Int_Tables_number	1
_symmetry_cell_setting	triclinic
loop_
_symmetry_equiv_pos_as_xyz
  x,y,z
_cell_length_a	10.723024
_cell_length_b	15.021413
_cell_length_c	15.944493
_cell_angle_alpha	90.002678
_cell_angle_beta	96.028543
_cell_angle_gamma	89.994702
loop_
_atom_site_label
_atom_site_type_symbol
_atom_site_fract_x
_atom_site_fract_y
_atom_site_fract_z
O1	O	-1.655664	0.074026	0.117818
O2	O	-1.292365	0.074025	0.129094
O3	O	-1.483973	0.074033	0.001235
O4	O	-1.464056	0.074018	0.245677
O5	O	-1.483956	-0.074031	0.001222
O6	O	-1.292349	-0.074039	0.129081
O7	O	-1.655647	-0.074038	0.117804
Zn8	Zn	-1.473995	-0.097547	0.123441
Zn9	Zn	-1.474017	0.097534	0.123458
O10	O	-1.464039	-0.074046	0.245664
C11	C	-1.245868	-0.000007	0.128267
C12	C	-1.107346	-0.000006	0.125812
C13	C	-0.916575	-0.000002	0.049543
C14	C	-1.059746	-0.000002	0.052079
N15	N	-1.473989	-0.230684	0.123428
C16	C	-1.561925	-0.529672	0.063829
C17	C	-1.587137	-0.470310	0.139645
C18	C	-1.474019	-0.587721	0.123454
C19	C	-1.448851	-0.470342	0.047627
C20	C	-1.474008	-0.412297	0.123437
C21	C	-1.499287	-0.529665	0.199309
C22	C	-1.360951	-0.529703	0.107240
C23	C	-1.386116	-0.470367	0.183112
C24	C	-1.474028	-0.688778	0.123462
C25	C	-1.473997	-0.311242	0.123437
C26	C	-0.702144	-0.000006	0.118632
C27	C	-0.840667	-0.000006	0.121087
C28	C	-1.483151	0.000005	-0.030071
C29	C	-1.480710	0.000016	-0.123334
N30	N	-1.474033	0.230672	0.123464
C31	C	-1.593495	-0.000000	-0.358448
C32	C	-1.532683	0.073003	-0.409358
C33	C	-1.476188	0.000005	-0.294081
C34	C	-1.532639	-0.072977	-0.409347
C35	C	-1.471829	-0.000009	-0.459015
C36	C	-1.415407	0.073068	-0.343762
C37	C	-1.415381	-0.072977	-0.343748
C38	C	-1.354482	0.000044	-0.394625
C39	C	-1.478703	0.000015	-0.199066
C40	C	-1.469305	-0.000012	-0.554027
C41	C	-1.464862	-0.000015	0.276970
C42	C	-1.467302	-0.000021	0.370233
H43	H	-1.124971	0.000007	-0.009167
H44	H	-0.875570	-0.000011	-0.013585
C45	C	-1.312405	-0.465535	0.330534
C46	C	-1.285750	-0.435425	0.251241
H47	H	-1.250451	-0.443956	0.372594
H48	H	-1.312325	-0.528762	0.331208
H49	H	-1.392511	-0.444293	0.341580
H50	H	-1.205648	-0.456672	0.240192
H51	H	-1.285817	-0.372185	0.250565
C52	C	-1.205758	-0.535067	0.009227
C53	C	-1.231920	-0.564959	0.088698
H54	H	-1.126103	-0.556839	-0.002227
H55	H	-1.205035	-0.471842	0.008576
H56	H	-1.268386	-0.556260	-0.032565
H57	H	-1.169297	-0.543759	0.130491
H58	H	-1.232633	-0.628197	0.089356
H59	H	-1.042128	-0.000007	0.187062
H60	H	-0.881672	-0.000015	0.184215
C61	C	-1.780672	-0.534851	0.013031
C62	C	-1.662347	-0.564836	-0.004152
H63	H	-1.842667	-0.556566	-0.028932
H64	H	-1.781856	-0.471625	0.012889
H65	H	-1.797745	-0.556040	0.066784
H66	H	-1.645270	-0.543641	-0.057903
H67	H	-1.661161	-0.628074	-0.004019
H68	H	-1.682751	-0.444221	0.153358
C69	C	-1.512295	-0.465107	-0.101252
C70	C	-1.420107	-0.435165	-0.038929
H71	H	-1.494551	-0.443396	-0.154689
H72	H	-1.591997	-0.443894	-0.089331
H73	H	-1.512842	-0.528341	-0.102012
H74	H	-1.419567	-0.371931	-0.038165
H75	H	-1.340385	-0.456374	-0.050854
C76	C	-1.791027	0.076677	-0.369786
C77	C	-1.729876	0.000120	-0.336520
H78	H	-1.875212	0.076761	-0.356231
H79	H	-1.790440	0.077191	-0.429312
H80	H	-1.748909	0.127999	-0.346363
H81	H	-1.771989	-0.051203	-0.359948
H82	H	-1.730470	-0.000403	-0.276983
C83	C	-1.539363	0.232725	-0.413632
C84	C	-1.599566	0.156322	-0.448044
H85	H	-1.580667	0.284160	-0.437509
H86	H	-1.454520	0.232801	-0.425771
H87	H	-1.542096	0.233037	-0.354275
H88	H	-1.596826	0.156007	-0.507401
H89	H	-1.684431	0.156247	-0.435911
H90	H	-1.520673	-0.555615	0.263444
C91	C	-1.351593	0.155763	-0.217659
C92	C	-1.348607	0.156490	-0.305242
H93	H	-1.310367	0.207269	-0.193880
H94	H	-1.310203	0.103998	-0.194631
H95	H	-1.436237	0.155545	-0.205068
H96	H	-1.263962	0.156702	-0.317832
H97	H	-1.389994	0.208269	-0.328277
H98	H	-1.253359	0.000083	-0.410670
H99	H	-1.365876	-0.134699	-0.315076
C100	C	-1.724603	-0.156143	-0.430118
C101	C	-1.599528	-0.156296	-0.448020
H102	H	-1.765898	-0.207580	-0.453988
H103	H	-1.765424	-0.104308	-0.453462
H104	H	-1.727307	-0.156450	-0.370759
H105	H	-1.596824	-0.155981	-0.507380
H106	H	-1.558696	-0.208144	-0.424679
