data_functionalizedCrystal
_audit_creation_method	'MofGen! by Chris Wilmer'
_symmetry_space_group_name_H-M	'P1'
_symmetry_Int_Tables_number	1
_symmetry_cell_setting	triclinic
loop_
_symmetry_equiv_pos_as_xyz
  x,y,z
_cell_length_a	27.731994
_cell_length_b	27.732048
_cell_length_c	16.776229
_cell_angle_alpha	89.988391
_cell_angle_beta	89.998937
_cell_angle_gamma	82.631595
loop_
_atom_site_label
_atom_site_type_symbol
_atom_site_fract_x
_atom_site_fract_y
_atom_site_fract_z
O1	O	0.640946	0.057393	-0.066183
O2	O	0.974279	0.390727	0.267150
O3	O	1.307613	0.724060	0.600484
O4	O	0.500149	0.066166	-0.066211
O5	O	0.833482	0.399500	0.267123
O6	O	1.166815	0.732833	0.600456
O7	O	0.574920	-0.008618	-0.066181
O8	O	0.908254	0.324716	0.267152
O9	O	1.241587	0.658049	0.600486
O10	O	0.566175	0.132177	-0.066213
O11	O	0.899508	0.465511	0.267120
O12	O	1.232841	0.798844	0.600454
O13	O	0.574910	-0.008622	0.066396
O14	O	0.908244	0.324711	0.399729
O15	O	1.241577	0.658044	0.733062
O16	O	0.500139	0.066162	0.066366
O17	O	0.833472	0.399495	0.399699
O18	O	1.166806	0.732828	0.733032
O19	O	0.640936	0.057389	0.066393
O20	O	0.974270	0.390722	0.399727
O21	O	1.307603	0.724056	0.733060
Zn22	Zn	0.570536	0.061775	0.087429
Zn23	Zn	0.903869	0.395108	0.420762
Zn24	Zn	1.237203	0.728441	0.754096
Zn25	Zn	0.570549	0.061781	-0.087246
Zn26	Zn	0.903882	0.395114	0.246087
Zn27	Zn	1.237216	0.728447	0.579420
O28	O	0.566165	0.132173	0.066364
O29	O	0.899498	0.465506	0.399697
O30	O	1.232831	0.798840	0.733030
C31	C	0.482137	0.065984	0.000074
C32	C	0.815470	0.399317	0.333408
C33	C	1.148803	0.732651	0.666741
C34	C	0.428480	0.065442	0.000064
C35	C	0.761814	0.398775	0.333398
C36	C	1.095147	0.732108	0.666731
C37	C	0.095756	0.062023	0.072363
C38	C	0.429090	0.395357	0.405697
C39	C	0.762423	0.728690	0.739030
C40	C	-0.105902	0.059962	0.072373
C41	C	0.227432	0.393295	0.405706
C42	C	0.560765	0.726628	0.739039
O43	O	-0.131979	0.059672	0.133833
O44	O	0.201354	0.393006	0.467167
O45	O	0.534688	0.726339	0.800500
N46	N	-0.131111	0.059708	0.000105
N47	N	0.202222	0.393042	0.333439
N48	N	0.535555	0.726375	0.666772
C49	C	-0.105903	0.059967	-0.072169
C50	C	0.227431	0.393300	0.261164
C51	C	0.560764	0.726634	0.594497
O52	O	-0.131971	0.059699	-0.133637
O53	O	0.201362	0.393032	0.199696
O54	O	0.534695	0.726366	0.533030
C55	C	0.095755	0.062025	-0.072178
C56	C	0.429088	0.395358	0.261155
C57	C	0.762422	0.728692	0.594489
C58	C	0.120961	0.062283	0.000094
C59	C	0.454295	0.395617	0.333427
C60	C	0.787628	0.728950	0.666761
C61	C	0.120963	0.062281	0.144629
C62	C	0.454296	0.395615	0.477963
C63	C	0.787629	0.728948	0.811296
C64	C	0.171374	0.062799	0.144626
C65	C	0.504707	0.396133	0.477960
C66	C	0.838041	0.729466	0.811293
C67	C	0.196579	0.063059	0.072357
C68	C	0.529912	0.396393	0.405690
C69	C	0.863245	0.729726	0.739024
C70	C	0.171372	0.062801	0.000091
C71	C	0.504706	0.396135	0.333424
C72	C	0.838039	0.729468	0.666758
C73	C	0.120963	0.062280	-0.144452
C74	C	0.454297	0.395613	0.188881
C75	C	0.787630	0.728947	0.522215
C76	C	0.171381	0.062793	-0.144448
C77	C	0.504714	0.396127	0.188885
C78	C	0.838048	0.729460	0.522219
C79	C	0.196587	0.063052	-0.072176
C80	C	0.529921	0.396385	0.261158
C81	C	0.863254	0.729719	0.594491
C82	C	0.246988	0.063580	-0.072182
C83	C	0.580322	0.396913	0.261152
C84	C	0.913655	0.730246	0.594485
N85	N	0.272198	0.063833	0.000086
N86	N	0.605531	0.397167	0.333419
N87	N	0.938865	0.730500	0.666752
C88	C	0.246993	0.063573	0.072355
C89	C	0.580326	0.396906	0.405688
C90	C	0.913660	0.730240	0.739022
C91	C	-0.211776	0.058887	-0.072160
C92	C	0.121557	0.392221	0.261174
C93	C	0.454891	0.725554	0.594507
C94	C	-0.262190	0.058374	-0.072158
C95	C	0.071143	0.391707	0.261176
C96	C	0.404476	0.725040	0.594509
C97	C	-0.262186	0.058368	0.072385
C98	C	0.071148	0.391701	0.405718
C99	C	0.404481	0.725034	0.739051
C100	C	-0.211771	0.058885	0.072382
C101	C	0.121562	0.392218	0.405715
C102	C	0.454896	0.725551	0.739049
C103	C	-0.186566	0.059141	0.000108
C104	C	0.146767	0.392474	0.333441
C105	C	0.480100	0.725807	0.666774
C106	C	0.352860	0.064661	0.072343
C107	C	0.686193	0.397995	0.405676
C108	C	1.019527	0.731328	0.739010
C109	C	0.403275	0.065181	0.072334
C110	C	0.736609	0.398515	0.405667
C111	C	1.069942	0.731848	0.739000
C112	C	0.403267	0.065185	-0.072208
C113	C	0.736600	0.398518	0.261125
C114	C	1.069933	0.731852	0.594458
C115	C	0.352856	0.064667	-0.072199
C116	C	0.686189	0.398001	0.261134
C117	C	1.019522	0.731334	0.594467
C118	C	0.327654	0.064404	0.000083
C119	C	0.660987	0.397737	0.333416
C120	C	0.994320	0.731071	0.666749
O121	O	0.273097	0.063864	-0.133610
O122	O	0.606431	0.397197	0.199723
O123	O	0.939764	0.730531	0.533057
O124	O	0.273072	0.063830	0.133813
O125	O	0.606405	0.397164	0.467147
O126	O	0.939739	0.730497	0.800480
C127	C	0.045345	0.061505	0.072366
C128	C	0.378679	0.394839	0.405700
C129	C	0.712012	0.728172	0.739033
C130	C	0.020139	0.061247	0.000100
C131	C	0.353472	0.394581	0.333434
C132	C	0.686806	0.727914	0.666767
C133	C	0.045344	0.061507	-0.072169
C134	C	0.378677	0.394841	0.261164
C135	C	0.712010	0.728174	0.594498
C136	C	-0.030275	0.060734	0.000102
C137	C	0.303058	0.394067	0.333435
C138	C	0.636391	0.727400	0.666769
C139	C	-0.055480	0.060474	0.072371
C140	C	0.277853	0.393807	0.405705
C141	C	0.611186	0.727140	0.739038
C142	C	-0.030271	0.060727	0.144639
C143	C	0.303063	0.394061	0.477972
C144	C	0.636396	0.727394	0.811305
C145	C	0.020140	0.061245	0.144636
C146	C	0.353474	0.394579	0.477969
C147	C	0.686807	0.727912	0.811302
C148	C	0.020134	0.061254	-0.144436
C149	C	0.353468	0.394587	0.188897
C150	C	0.686801	0.727921	0.522230
C151	C	-0.030277	0.060736	-0.144427
C152	C	0.303056	0.394070	0.188906
C153	C	0.636390	0.727403	0.522239
C154	C	-0.055482	0.060476	-0.072158
C155	C	0.277852	0.393810	0.261175
C156	C	0.611185	0.727143	0.594509
C157	C	0.574732	-0.026627	0.000110
C158	C	0.908065	0.306706	0.333443
C159	C	1.241398	0.640040	0.666776
C160	C	0.574179	-0.080282	0.000116
C161	C	0.907512	0.253052	0.333449
C162	C	1.240846	0.586385	0.666783
C163	C	0.614884	-0.419105	0.000083
C164	C	0.948217	-0.085771	0.333416
C165	C	1.281551	0.247562	0.666750
C166	C	0.612833	-0.620764	0.000072
C167	C	0.946166	-0.287431	0.333405
C168	C	1.279499	0.045903	0.666738
O169	O	0.650055	-0.652027	0.000044
O170	O	0.983388	-0.318693	0.333377
O171	O	1.316721	0.014640	0.666711
N172	N	0.568496	-0.639879	0.000064
N173	N	0.901830	-0.306546	0.333397
N174	N	1.235163	0.026788	0.666730
C175	C	0.524670	-0.608576	0.000053
C176	C	0.858003	-0.275242	0.333387
C177	C	1.191336	0.058091	0.666720
O178	O	0.486912	-0.629462	0.000038
O179	O	0.820245	-0.296128	0.333371
O180	O	1.153578	0.037205	0.666705
C181	C	0.526721	-0.406918	0.000059
C182	C	0.860055	-0.073584	0.333392
C183	C	1.193388	0.259749	0.666726
C184	C	0.571061	-0.387805	0.000075
C185	C	0.904394	-0.054472	0.333408
C186	C	1.237727	0.278861	0.666742
C187	C	0.659220	-0.399992	0.000098
C188	C	0.992553	-0.066659	0.333432
C189	C	1.325886	0.266675	0.666765
C190	C	0.659732	-0.349580	0.000106
C191	C	0.993065	-0.016247	0.333439
C192	C	1.326399	0.317086	0.666772
C193	C	0.615908	-0.318281	0.000098
C194	C	0.949242	0.015052	0.333431
C195	C	1.282575	0.348386	0.666764
C196	C	0.571573	-0.337394	0.000082
C197	C	0.904906	-0.004060	0.333416
C198	C	1.238239	0.329273	0.666749
C199	C	0.482895	-0.375615	0.000043
C200	C	0.816228	-0.042282	0.333376
C201	C	1.149562	0.291051	0.666710
C202	C	0.483412	-0.325198	0.000042
C203	C	0.816745	0.008135	0.333376
C204	C	1.150079	0.341468	0.666709
C205	C	0.527751	-0.306086	0.000059
C206	C	0.861084	0.027247	0.333392
C207	C	1.194418	0.360581	0.666725
C208	C	0.528262	-0.255683	0.000082
C209	C	0.861595	0.077651	0.333415
C210	C	1.194928	0.410984	0.666748
N211	N	0.572598	-0.236567	0.000090
N212	N	0.905931	0.096766	0.333423
N213	N	1.239265	0.430099	0.666756
C214	C	0.616421	-0.267867	0.000098
C215	C	0.949755	0.065467	0.333431
C216	C	1.283088	0.398800	0.666764
C217	C	0.523596	-0.714450	0.000052
C218	C	0.856929	-0.381116	0.333385
C219	C	1.190262	-0.047783	0.666718
C220	C	0.523083	-0.764864	0.000052
C221	C	0.856416	-0.431531	0.333385
C222	C	1.189749	-0.098197	0.666718
C223	C	0.611246	-0.777049	0.000069
C224	C	0.944579	-0.443715	0.333402
C225	C	1.277913	-0.110382	0.666735
C226	C	0.611759	-0.726633	0.000074
C227	C	0.945092	-0.393300	0.333408
C228	C	1.278425	-0.059967	0.666741
C229	C	0.567932	-0.695335	0.000060
C230	C	0.901265	-0.362001	0.333393
C231	C	1.234599	-0.028668	0.666726
C232	C	0.617494	-0.161998	0.000113
C233	C	0.950827	0.171336	0.333447
C234	C	1.284161	0.504669	0.666780
C235	C	0.618002	-0.111581	0.000124
C236	C	0.951336	0.221752	0.333457
C237	C	1.284669	0.555086	0.666791
C238	C	0.529839	-0.099401	0.000103
C239	C	0.863173	0.233933	0.333436
C240	C	1.196506	0.567266	0.666770
C241	C	0.529331	-0.149813	0.000097
C242	C	0.862664	0.183520	0.333430
C243	C	1.195997	0.516854	0.666763
C244	C	0.573162	-0.181111	0.000099
C245	C	0.906495	0.152222	0.333432
C246	C	1.239829	0.485556	0.666766
O247	O	0.491060	-0.224391	0.000100
O248	O	0.824393	0.108942	0.333434
O249	O	1.157727	0.442275	0.666767
O250	O	0.654174	-0.246971	0.000095
O251	O	0.987507	0.086362	0.333428
O252	O	1.320841	0.419695	0.666762
C253	C	0.614372	-0.469517	0.000076
C254	C	0.947705	-0.136183	0.333409
C255	C	1.281038	0.197150	0.666743
C256	C	0.570036	-0.488629	0.000061
C257	C	0.903369	-0.155296	0.333394
C258	C	1.236703	0.178037	0.666727
C259	C	0.526213	-0.457330	0.000053
C260	C	0.859546	-0.123997	0.333386
C261	C	1.192879	0.209337	0.666719
C262	C	0.569523	-0.539043	0.000061
C263	C	0.902856	-0.205710	0.333394
C264	C	1.236190	0.127623	0.666727
C265	C	0.613346	-0.570343	0.000069
C266	C	0.946680	-0.237009	0.333402
C267	C	1.280013	0.096324	0.666735
C268	C	0.657683	-0.551228	0.000077
C269	C	0.991016	-0.217894	0.333410
C270	C	1.324349	0.115439	0.666743
C271	C	0.658195	-0.500816	0.000084
C272	C	0.991528	-0.167482	0.333417
C273	C	1.324862	0.165851	0.666751
C274	C	0.481876	-0.476445	0.000045
C275	C	0.815209	-0.143112	0.333378
C276	C	1.148543	0.190222	0.666711
C277	C	0.481367	-0.526857	0.000038
C278	C	0.814701	-0.193524	0.333372
C279	C	1.148034	0.139809	0.666705
C280	C	0.525191	-0.558157	0.000046
C281	C	0.858524	-0.224823	0.333380
C282	C	1.191858	0.108510	0.666713
C283	C	0.658949	0.057571	0.000107
C284	C	0.992282	0.390904	0.333440
C285	C	1.325615	0.724238	0.666773
C286	C	0.712605	0.058114	0.000111
C287	C	1.045938	0.391447	0.333445
C288	C	1.379272	0.724780	0.666778
C289	C	0.566353	0.150182	0.000071
C290	C	0.899687	0.483515	0.333405
C291	C	1.233020	0.816849	0.666738
C292	C	0.566906	0.203837	0.000060
C293	C	0.900239	0.537170	0.333393
C294	C	1.233573	0.870503	0.666726
N295	N	0.570531	0.061770	0.206640
N296	N	0.903864	0.395104	0.539974
N297	N	1.237197	0.728437	0.873307
N298	N	0.570558	0.061781	-0.206457
N299	N	0.903892	0.395114	0.126876
N300	N	1.237225	0.728448	0.460209
C301	C	0.603650	0.028669	0.248371
C302	C	0.936983	0.362003	0.581704
C303	C	1.270316	0.695336	0.915037
C304	C	0.603652	0.028669	0.331823
C305	C	0.936986	0.362002	0.665156
C306	C	1.270319	0.695336	0.998489
C307	C	0.570538	0.061772	0.373543
C308	C	0.903871	0.395105	0.706876
C309	C	1.237205	0.728439	1.040210
C310	C	0.537416	0.094875	0.331807
C311	C	0.870749	0.428208	0.665140
C312	C	1.204082	0.761541	0.998474
C313	C	0.537411	0.094872	0.248356
C314	C	0.870745	0.428206	0.581690
C315	C	1.204078	0.761539	0.915023
C316	C	0.537433	0.094884	0.668354
C317	C	0.870767	0.428217	1.001687
C318	C	1.204100	0.761551	1.335021
C319	C	0.537441	0.094885	0.751811
C320	C	0.870775	0.428218	1.085144
C321	C	1.204108	0.761551	1.418477
C322	C	0.603674	0.028680	0.751821
C323	C	0.937008	0.362014	1.085154
C324	C	1.270341	0.695347	1.418487
C325	C	0.603670	0.028678	0.668370
C326	C	0.937003	0.362012	1.001703
C327	C	1.270336	0.695345	1.335037
C328	C	0.570546	0.061779	0.626641
C329	C	0.903879	0.395112	0.959974
C330	C	1.237213	0.728445	1.293308
C331	C	0.570543	0.061778	0.536153
C332	C	0.903876	0.395112	0.869486
C333	C	1.237209	0.728445	1.202819
C334	C	0.570543	0.061775	0.464030
C335	C	0.903876	0.395109	0.797363
C336	C	1.237210	0.728442	1.130697
H337	H	0.100446	0.062068	0.203483
H338	H	0.433780	0.395402	0.536816
H339	H	0.767113	0.728735	0.870150
H340	H	0.494160	-0.073908	0.000099
H341	H	0.827493	0.259425	0.333433
H342	H	1.160826	0.592759	0.666766
Cl343	Cl	0.667501	-0.702612	0.000094
Cl344	Cl	1.000835	-0.369279	0.333427
Cl345	Cl	1.334168	-0.035946	0.666760
H346	H	0.630644	0.001727	0.785805
H347	H	0.963977	0.335060	1.119139
H348	H	1.297311	0.668393	1.452472
Cl349	Cl	0.321185	0.064330	0.163213
Cl350	Cl	0.654519	0.397664	0.496547
Cl351	Cl	0.987852	0.730997	0.829880
Cl352	Cl	0.495808	0.136503	0.804258
Cl353	Cl	0.829142	0.469836	1.137592
Cl354	Cl	1.162475	0.803169	1.470925
H355	H	0.694301	-0.485260	0.000097
H356	H	1.027634	-0.151926	0.333430
H357	H	1.360967	0.181407	0.666763
H358	H	0.191900	0.063002	-0.203304
H359	H	0.525233	0.396336	0.130030
H360	H	0.858567	0.729669	0.463363
H361	H	0.693365	-0.576720	0.000087
H362	H	1.026699	-0.243387	0.333420
H363	H	1.360032	0.089946	0.666753
Cl364	Cl	0.495795	0.136497	0.615901
Cl365	Cl	0.829128	0.469830	0.949234
Cl366	Cl	1.162462	0.803163	1.282567
Cl367	Cl	0.495784	0.136489	0.384254
Cl368	Cl	0.829117	0.469822	0.717587
Cl369	Cl	1.162450	0.803155	1.050920
H370	H	0.423797	0.065399	-0.131048
H371	H	0.757131	0.398732	0.202285
H372	H	1.090464	0.732065	0.535618
H373	H	0.630620	0.001715	0.365799
H374	H	0.963953	0.335049	0.699133
H375	H	1.297286	0.668382	1.032466
Cl376	Cl	0.495772	0.136485	0.195896
Cl377	Cl	0.829106	0.469819	0.529229
Cl378	Cl	1.162439	0.803152	0.862563
H379	H	0.423796	0.065394	0.131189
H380	H	0.757129	0.398727	0.464522
H381	H	1.090462	0.732060	0.797855
Cl382	Cl	0.425621	-0.550877	0.000022
Cl383	Cl	0.758954	-0.217544	0.333355
Cl384	Cl	1.092287	0.115790	0.666689
Cl385	Cl	0.426778	-0.437104	0.000033
Cl386	Cl	0.760111	-0.103771	0.333367
Cl387	Cl	1.093445	0.229562	0.666700
H388	H	0.487905	-0.688970	0.000040
H389	H	0.821238	-0.355637	0.333373
H390	H	1.154571	-0.022303	0.666707
H391	H	0.446789	-0.391167	0.000025
H392	H	0.780123	-0.057834	0.333358
H393	H	1.113456	0.275499	0.666692
H394	H	0.447722	-0.299716	0.000029
H395	H	0.781055	0.033617	0.333363
H396	H	1.114389	0.366950	0.666696
Cl397	Cl	0.203055	0.063121	0.235488
Cl398	Cl	0.536388	0.396454	0.568821
Cl399	Cl	0.869721	0.729787	0.902155
Cl400	Cl	0.672597	-0.201336	0.000118
Cl401	Cl	1.005930	0.131997	0.333451
Cl402	Cl	1.339264	0.465331	0.666785
Cl403	Cl	0.666338	-0.816405	0.000075
Cl404	Cl	0.999671	-0.483072	0.333408
Cl405	Cl	1.333005	-0.149739	0.666741
Cl406	Cl	-0.061967	0.060402	0.235491
Cl407	Cl	0.271367	0.393735	0.568824
Cl408	Cl	0.604700	0.727069	0.902157
H409	H	-0.191252	0.059096	0.131232
H410	H	0.142082	0.392429	0.464566
H411	H	0.475415	0.725762	0.797899
Cl412	Cl	-0.293881	0.058039	0.163237
Cl413	Cl	0.039452	0.391373	0.496570
Cl414	Cl	0.372786	0.724706	0.829904
H415	H	-0.282710	0.058171	-0.131009
H416	H	0.050623	0.391504	0.202324
H417	H	0.383957	0.724838	0.535658
H418	H	0.630636	0.001724	0.634404
H419	H	0.963969	0.335057	0.967737
H420	H	1.297302	0.668391	1.301070
H421	H	-0.191259	0.059095	-0.131018
H422	H	0.142074	0.392429	0.202316
H423	H	0.475408	0.725762	0.535649
H424	H	0.100449	0.062069	-0.203304
H425	H	0.433782	0.395402	0.130029
H426	H	0.767116	0.728736	0.463363
H427	H	0.332331	0.064465	-0.131049
H428	H	0.665664	0.397798	0.202284
H429	H	0.998997	0.731131	0.535617
H430	H	0.040659	0.061456	0.203487
H431	H	0.373992	0.394789	0.536820
H432	H	0.707326	0.728122	0.870154
H433	H	-0.050796	0.060530	-0.203285
H434	H	0.282537	0.393863	0.130049
H435	H	0.615871	0.727197	0.463382
H436	H	0.040651	0.061464	-0.203288
H437	H	0.373985	0.394798	0.130045
H438	H	0.707318	0.728131	0.463379
H439	H	0.654110	-0.096023	0.000139
H440	H	0.987444	0.237310	0.333472
H441	H	1.320777	0.570644	0.666806
H442	H	0.486977	-0.780420	0.000053
H443	H	0.820311	-0.447087	0.333386
H444	H	1.153644	-0.113754	0.666719
Cl445	Cl	0.714320	-0.439332	0.000110
Cl446	Cl	1.047653	-0.105998	0.333443
Cl447	Cl	1.380986	0.227335	0.666776
Cl448	Cl	0.715476	-0.325562	0.000103
Cl449	Cl	1.048809	0.007772	0.333436
Cl450	Cl	1.382142	0.341105	0.666770
Cl451	Cl	0.645284	-0.012947	0.195931
Cl452	Cl	0.978617	0.320387	0.529264
Cl453	Cl	1.311950	0.653720	0.862598
Cl454	Cl	0.473589	-0.173841	0.000091
Cl455	Cl	0.806923	0.159493	0.333425
Cl456	Cl	1.140256	0.492826	0.666758
