data_functionalizedCrystal
_audit_creation_method	'MofGen! by Chris Wilmer'
_symmetry_space_group_name_H-M	'P1'
_symmetry_Int_Tables_number	1
_symmetry_cell_setting	triclinic
loop_
_symmetry_equiv_pos_as_xyz
  x,y,z
_cell_length_a	16.959455
_cell_length_b	18.050590
_cell_length_c	16.959447
_cell_angle_alpha	90.031775
_cell_angle_beta	90.016723
_cell_angle_gamma	90.017500
loop_
_atom_site_label
_atom_site_type_symbol
_atom_site_fract_x
_atom_site_fract_y
_atom_site_fract_z
Zn1	Zn	1.208392	-0.295666	0.446951
Zn2	Zn	1.708392	0.204334	0.946951
Zn3	Zn	1.208318	-0.419867	0.314769
Zn4	Zn	1.708318	0.080133	0.814769
Zn5	Zn	1.076221	-0.295693	0.314783
Zn6	Zn	1.576221	0.204307	0.814783
Zn7	Zn	1.076189	-0.419816	0.446902
Zn8	Zn	1.576189	0.080184	0.946902
O9	O	1.142280	-0.357761	0.380852
O10	O	1.642280	0.142239	0.880852
O11	O	1.318993	-0.312151	0.429432
O12	O	1.818993	0.187849	0.929432
O13	O	1.190777	-0.403428	0.204160
O14	O	1.690777	0.096572	0.704160
O15	O	1.093798	-0.191765	0.332342
O16	O	1.593798	0.308235	0.832342
O17	O	1.318939	-0.403401	0.332318
O18	O	1.818939	0.096599	0.832318
O19	O	1.190904	-0.191745	0.429445
O20	O	1.690904	0.308255	0.929445
O21	O	1.093726	-0.312198	0.204171
O22	O	1.593726	0.187802	0.704171
O23	O	0.965606	-0.312149	0.332295
O24	O	1.465606	0.187851	0.832295
O25	O	1.093743	-0.403314	0.557520
O26	O	1.593743	0.096686	1.057520
O27	O	0.965582	-0.403341	0.429362
O28	O	1.465582	0.096659	0.929362
O29	O	1.190873	-0.312101	0.557556
O30	O	1.690873	0.187899	1.057556
O31	O	1.190747	-0.523785	0.332271
O32	O	1.690747	-0.023785	0.832271
O33	O	1.093672	-0.523747	0.429349
O34	O	1.593672	-0.023747	0.929349
C35	C	0.936914	-0.357743	0.380825
C36	C	1.436914	0.142257	0.880825
C37	C	0.849057	-0.357753	0.380832
C38	C	1.349057	0.142247	0.880832
C39	C	0.807772	-0.310206	0.330375
C40	C	1.307772	0.189794	0.830375
C41	C	0.807789	-0.405306	0.431301
C42	C	1.307789	0.094694	0.931301
C43	C	0.725243	-0.405315	0.431313
C44	C	1.225243	0.094685	0.931313
C45	C	0.683958	-0.357767	0.380856
C46	C	1.183958	0.142233	0.880856
C47	C	0.725218	-0.310211	0.330386
C48	C	1.225218	0.189789	0.830386
C49	C	0.683976	-0.452864	0.481787
C50	C	1.183976	0.047136	0.981787
C51	C	0.601425	-0.452874	0.481801
C52	C	1.101425	0.047126	0.981801
C53	C	0.560138	-0.405330	0.431339
C54	C	1.060138	0.094670	0.931339
C55	C	0.601404	-0.357773	0.380867
C56	C	1.101404	0.142227	0.880867
C57	C	0.560119	-0.310225	0.330410
C58	C	1.060119	0.189775	0.830410
C59	C	0.601383	-0.262671	0.279933
C60	C	1.101383	0.237329	0.779933
C61	C	0.683931	-0.262667	0.279924
C62	C	1.183931	0.237333	0.779924
C63	C	0.477590	-0.405334	0.431348
C64	C	0.977590	0.094666	0.931348
C65	C	0.477565	-0.310231	0.330421
C66	C	0.977565	0.189769	0.830421
C67	C	1.142219	-0.550713	0.380820
C68	C	1.642219	-0.050713	0.880820
C69	C	1.142265	-0.633258	0.380833
C70	C	1.642265	-0.133258	0.880833
C71	C	1.195165	-0.832702	0.328116
C72	C	1.695165	-0.332702	0.828116
C73	C	1.214468	-0.882031	0.400257
C74	C	1.714468	-0.382031	0.900257
C75	C	1.142310	-0.784389	0.380865
C76	C	1.642310	-0.284389	0.880865
C77	C	1.123088	-0.882141	0.308756
C78	C	1.623088	-0.382141	0.808756
C79	C	1.142355	-0.930374	0.380889
C80	C	1.642355	-0.430374	0.880889
C81	C	1.161650	-0.832630	0.453044
C82	C	1.661650	-0.332630	0.953044
C83	C	1.070237	-0.832736	0.361494
C84	C	1.570237	-0.332736	0.861494
C85	C	1.089513	-0.882043	0.433685
C86	C	1.589513	-0.382043	0.933685
C87	C	1.142287	-0.700290	0.380850
C88	C	1.642287	-0.200290	0.880850
C89	C	1.142379	-1.014470	0.380912
C90	C	1.642379	-0.514470	0.880912
C91	C	1.348448	-0.357779	0.380879
C92	C	1.848448	0.142221	0.880879
C93	C	1.436305	-0.357787	0.380891
C94	C	1.936305	0.142213	0.880891
C95	C	1.142313	-0.357699	0.587020
C96	C	1.642313	0.142301	1.087020
C97	C	1.142327	-0.357673	0.674877
C98	C	1.642327	0.142327	1.174877
C99	C	1.142362	-0.164055	0.380901
C100	C	1.642362	0.335945	0.880901
C101	C	1.142398	-0.081509	0.380921
C102	C	1.642398	0.418491	0.880921
C103	C	1.142293	-0.357768	0.175485
C104	C	1.642293	0.142232	0.675485
C105	C	1.142432	-0.357585	0.087629
C106	C	1.642432	0.142415	0.587629
C107	C	1.091850	-0.405085	1.046336
C108	C	1.591850	0.094915	1.546336
C109	C	1.192992	-0.310104	1.046369
C110	C	1.692992	0.189896	1.546369
C111	C	1.192971	-0.310120	0.963823
C112	C	1.692971	0.189880	1.463823
C113	C	1.142390	-0.357620	0.922530
C114	C	1.642390	0.142380	1.422530
C115	C	1.091830	-0.405104	0.963783
C116	C	1.591830	0.094896	1.463783
C117	C	1.243536	-0.262642	0.922564
C118	C	1.743536	0.237358	1.422564
C119	C	1.243518	-0.262657	0.840013
C120	C	1.743518	0.237343	1.340013
C121	C	1.192932	-0.310153	0.798718
C122	C	1.692932	0.189847	1.298718
C123	C	1.142369	-0.357638	0.839976
C124	C	1.642369	0.142362	1.339976
C125	C	1.091788	-0.405138	0.798683
C126	C	1.591788	0.094862	1.298683
C127	C	1.041220	-0.452620	0.839940
C128	C	1.541220	0.047380	1.339940
C129	C	1.041244	-0.452600	0.922488
C130	C	1.541244	0.047400	1.422488
C131	C	1.192908	-0.310173	0.716170
C132	C	1.692908	0.189827	1.216170
C133	C	1.091767	-0.405157	0.716130
C134	C	1.591767	0.094843	1.216130
H135	H	0.567835	-0.491597	0.522901
H136	H	1.067835	0.008403	1.022901
H137	H	1.009285	-0.811065	0.345072
H138	H	1.509285	-0.311065	0.845072
C139	C	0.934300	-0.267965	0.285535
C140	C	1.434300	0.232035	0.785535
C141	C	0.853125	-0.257933	0.274895
C142	C	1.353125	0.242067	0.774895
H143	H	0.962297	-0.235690	0.251287
H144	H	1.462297	0.264310	0.751287
H145	H	0.947806	-0.317844	0.273870
H146	H	1.447806	0.182156	0.773870
H147	H	0.947849	-0.257153	0.338663
H148	H	1.447849	0.242847	0.838663
H149	H	0.839574	-0.268750	0.221768
H150	H	1.339574	0.231250	0.721768
H151	H	0.839613	-0.208043	0.286555
H152	H	1.339613	0.291957	0.786555
H153	H	1.239877	-0.811037	0.283554
H154	H	1.739877	-0.311037	0.783554
H155	H	1.275438	-0.903687	0.416657
H156	H	1.775438	-0.403687	0.916657
C157	C	1.237791	-0.268037	0.589644
C158	C	1.737791	0.231963	1.089644
C159	C	1.248490	-0.257991	0.670820
C160	C	1.748490	0.242009	1.170820
H161	H	1.272111	-0.235822	0.561649
H162	H	1.772111	0.264178	1.061649
H163	H	1.184691	-0.257158	0.576122
H164	H	1.684691	0.242842	1.076122
H165	H	1.249328	-0.317943	0.576107
H166	H	1.749328	0.182057	1.076107
H167	H	1.236946	-0.208086	0.684357
H168	H	1.736946	0.291914	1.184357
H169	H	1.301601	-0.268865	0.684347
H170	H	1.801601	0.231135	1.184347
C171	C	1.183539	-0.725835	0.534635
C172	C	1.683539	-0.225835	1.034635
C173	C	1.183728	-0.803404	0.535404
C174	C	1.683728	-0.303404	1.035404
H175	H	1.197176	-0.707792	0.585478
H176	H	1.697176	-0.207792	1.085478
H177	H	1.132489	-0.708552	0.520788
H178	H	1.632489	-0.208552	1.020788
H179	H	1.220834	-0.708555	0.497124
H180	H	1.720834	-0.208555	0.997124
H181	H	1.146428	-0.820684	0.572911
H182	H	1.646428	-0.320684	1.072911
H183	H	1.234785	-0.820694	0.549260
H184	H	1.734785	-0.320694	1.049260
H185	H	0.443957	-0.271512	0.289331
H186	H	0.943957	0.228488	0.789331
H187	H	1.044835	-0.903571	0.478354
H188	H	1.544835	-0.403571	0.978354
C189	C	1.156516	-0.886585	0.171276
C190	C	1.656516	-0.386585	0.671276
C191	C	1.101106	-0.911496	0.226421
C192	C	1.601106	-0.411496	0.726421
H193	H	1.142946	-0.904702	0.120445
H194	H	1.642946	-0.404702	0.620445
H195	H	1.207362	-0.904192	0.185407
H196	H	1.707362	-0.404192	0.685407
H197	H	1.156809	-0.833963	0.170568
H198	H	1.656809	-0.333963	0.670568
H199	H	1.100818	-0.964118	0.227132
H200	H	1.600818	-0.464118	0.727132
H201	H	1.050247	-0.893893	0.212286
H202	H	1.550247	-0.393893	0.712286
C203	C	0.991801	-0.499050	0.724390
C204	C	1.491801	0.000950	1.224390
C205	C	1.036172	-0.457378	0.670743
C206	C	1.536172	0.042622	1.170743
H207	H	0.957485	-0.531293	0.696369
H208	H	1.457485	-0.031293	1.196369
H209	H	0.961583	-0.466683	0.756588
H210	H	1.461583	0.033317	1.256588
H211	H	1.026244	-0.527445	0.756587
H212	H	1.526244	-0.027445	1.256587
H213	H	1.001729	-0.428979	0.638550
H214	H	1.501729	0.071021	1.138550
H215	H	1.066392	-0.489749	0.638531
H216	H	1.566392	0.010251	1.138531
C217	C	0.474828	-0.220462	0.235143
C218	C	0.974828	0.279538	0.735143
C219	C	0.555996	-0.210411	0.224467
C220	C	1.055996	0.289589	0.724467
H221	H	0.446808	-0.188204	0.200897
H222	H	0.946808	0.311796	0.700897
H223	H	0.461336	-0.209646	0.288267
H224	H	0.961336	0.290354	0.788267
H225	H	0.461293	-0.270353	0.223491
H226	H	0.961293	0.229647	0.723491
H227	H	0.569533	-0.160521	0.236124
H228	H	1.069533	0.339479	0.736124
H229	H	0.569494	-0.221222	0.171331
H230	H	1.069494	0.278778	0.671331
H231	H	0.841408	-0.444014	0.472385
H232	H	1.341408	0.055986	0.972385
C233	C	1.002693	-0.578346	0.947859
C234	C	1.502693	-0.078346	1.447859
C235	C	0.985669	-0.504793	0.967839
C236	C	1.485669	-0.004793	1.467839
H237	H	0.968381	-0.610567	0.975857
H238	H	1.468381	-0.110567	1.475857
H239	H	1.055795	-0.589209	0.961385
H240	H	1.555795	-0.089209	1.461385
H241	H	0.995434	-0.585146	0.892786
H242	H	1.495434	-0.085146	1.392786
H243	H	0.992934	-0.497992	1.022911
H244	H	1.492934	0.002008	1.522911
H245	H	0.932554	-0.493927	0.954318
H246	H	1.432554	0.006073	1.454318
H247	H	0.717536	-0.223950	0.238830
H248	H	1.217536	0.276050	0.738830
C249	C	1.046965	-0.447234	1.172857
C250	C	1.546965	0.052766	1.672857
C251	C	1.036270	-0.457278	1.091681
C252	C	1.536270	0.042722	1.591681
H253	H	1.012654	-0.479460	1.200850
H254	H	1.512654	0.020540	1.700850
H255	H	1.035418	-0.397337	1.186397
H256	H	1.535418	0.102663	1.686397
H257	H	1.100074	-0.458105	1.186380
H258	H	1.600074	0.041895	1.686380
H259	H	0.983163	-0.446400	1.078157
H260	H	1.483163	0.053600	1.578157
H261	H	1.047811	-0.507185	1.078136
H262	H	1.547811	-0.007185	1.578136
C263	C	0.810526	-0.495087	0.526565
C264	C	1.310526	0.004913	1.026565
C265	C	0.729357	-0.505130	0.537243
C266	C	1.229357	-0.005130	1.037243
H267	H	0.838543	-0.527361	0.560799
H268	H	1.338543	-0.027361	1.060799
H269	H	0.824070	-0.445208	0.538226
H270	H	1.324070	0.054792	1.038226
H271	H	0.824013	-0.505896	0.473430
H272	H	1.324013	-0.005896	0.973430
H273	H	0.715868	-0.494315	0.590377
H274	H	1.215868	0.005685	1.090377
H275	H	0.715807	-0.555020	0.525588
H276	H	1.215807	-0.055020	1.025588
H277	H	1.000040	-0.491298	0.806308
H278	H	1.500040	0.008702	1.306308
H279	H	1.234177	-0.271436	1.079994
H280	H	1.734177	0.228564	1.579994
H281	H	1.284721	-0.223975	0.956190
H282	H	1.784721	0.276025	1.456190
H283	H	0.443996	-0.444047	0.472450
H284	H	0.943996	0.055953	0.972450
H285	H	1.284692	-0.223993	0.806429
H286	H	1.784692	0.276007	1.306429
