data_functionalizedCrystal
_audit_creation_method	'MofGen! by Chris Wilmer'
_symmetry_space_group_name_H-M	'P1'
_symmetry_Int_Tables_number	1
_symmetry_cell_setting	triclinic
loop_
_symmetry_equiv_pos_as_xyz
  x,y,z
_cell_length_a	19.288865
_cell_length_b	17.766277
_cell_length_c	19.288865
_cell_angle_alpha	89.988397
_cell_angle_beta	83.136247
_cell_angle_gamma	89.992086
loop_
_atom_site_label
_atom_site_type_symbol
_atom_site_fract_x
_atom_site_fract_y
_atom_site_fract_z
O1	O	0.921353	-0.062577	0.086649
O2	O	0.719092	-0.062585	0.098337
O3	O	0.826067	-0.062566	-0.008637
O4	O	0.814378	-0.062596	0.193623
O5	O	0.826048	0.062622	-0.008643
O6	O	0.719074	0.062603	0.098332
O7	O	0.921334	0.062611	0.086643
Cu8	Cu	0.820202	0.074038	0.092487
Cu9	Cu	0.820224	-0.074012	0.092494
O10	O	0.814360	0.062592	0.193618
C11	C	0.693207	0.000008	0.097959
C12	C	0.616103	0.000005	0.096830
C13	C	0.825682	0.000030	-0.034516
C14	C	0.824553	0.000037	-0.111620
C15	C	0.947220	0.000016	0.087022
C16	C	1.024324	0.000014	0.088151
N17	N	0.820192	0.178168	0.092482
C18	C	1.069020	0.000017	0.025383
C19	C	1.141467	0.000021	0.026444
C20	C	1.169215	0.000007	0.090276
C21	C	1.124508	0.000009	0.153052
C22	C	1.052063	0.000012	0.151990
C23	C	1.277498	-0.043864	0.140457
C24	C	1.349942	-0.043872	0.141517
C25	C	1.392660	0.000000	0.093556
C26	C	1.362926	0.043871	0.044523
C27	C	1.290481	0.043874	0.043460
C28	C	1.247769	0.000004	0.091435
C29	C	1.515912	0.000009	0.031934
C30	C	1.588361	0.000018	0.032997
C31	C	1.571400	-0.000002	0.159607
C32	C	1.498954	-0.000003	0.158542
C33	C	1.471215	-0.000001	0.094703
N34	N	0.820240	-0.178142	0.092493
C35	C	0.867575	0.217564	0.045137
C36	C	0.867579	0.296366	0.045134
C37	C	0.820206	0.335769	0.092488
C38	C	0.772814	0.296364	0.139837
C39	C	0.772807	0.217564	0.139834
C40	C	0.810908	0.460597	0.155775
C41	C	0.810920	0.539396	0.155779
C42	C	0.820225	0.578815	0.092496
C43	C	0.829533	0.539426	0.029207
C44	C	0.829525	0.460626	0.029204
C45	C	0.820209	0.421215	0.092496
C46	C	0.867616	0.703657	0.045143
C47	C	0.867615	0.782460	0.045139
C48	C	0.772852	0.782457	0.139848
C49	C	0.772850	0.703655	0.139846
C50	C	0.820235	0.664260	0.092495
C51	C	0.887320	0.000043	-0.156316
C52	C	0.886260	0.000031	-0.228763
C53	C	0.822428	0.000028	-0.256511
C54	C	0.759651	0.000018	-0.211805
C55	C	0.760714	0.000022	-0.139359
C56	C	0.772242	0.043877	-0.364800
C57	C	0.771182	0.043877	-0.437245
C58	C	0.819148	0.000011	-0.479956
C59	C	0.868186	-0.043845	-0.450216
C60	C	0.869248	-0.043841	-0.377771
C61	C	0.821268	0.000023	-0.335065
C62	C	0.880770	0.000003	-0.603209
C63	C	0.879707	-0.000013	-0.675657
C64	C	0.753097	-0.000019	-0.658697
C65	C	0.754162	-0.000010	-0.586250
C66	C	0.818000	0.000005	-0.558511
C67	C	0.814745	-0.000006	0.219497
C68	C	0.815874	-0.000018	0.296601
H69	H	1.046440	0.000021	-0.026599
Cl70	Cl	0.841237	0.588972	-0.050355
H71	H	1.624752	0.000026	-0.018118
H72	H	0.906198	0.814536	0.006581
Cl73	Cl	0.927140	0.168039	-0.014393
Cl74	Cl	0.927181	0.654130	-0.014388
Cl75	Cl	1.197667	0.000022	-0.052470
H76	H	0.733180	0.079602	-0.330029
Cl77	Cl	1.159390	-0.000005	0.233298
Cl78	Cl	1.606276	-0.000007	0.239854
Cl79	Cl	0.927153	0.345900	-0.014391
H80	H	0.734241	0.328450	0.178392
Cl81	Cl	0.799274	0.411050	0.235341
Cl82	Cl	0.713235	0.168034	0.199359
H83	H	0.837102	0.428558	-0.022328
Cl84	Cl	0.967575	0.000041	-0.121448
Cl85	Cl	1.253101	0.099039	-0.018165
H86	H	0.731249	0.079583	-0.461453
Cl87	Cl	1.416621	0.099020	-0.015783
Cl88	Cl	0.672850	-0.000028	-0.693572
Cl89	Cl	0.961022	0.000026	-0.568333
H90	H	0.734278	0.814538	0.178402
Cl91	Cl	0.713283	0.654124	0.199373
Cl92	Cl	0.681799	0.000015	-0.083166
H93	H	1.493326	0.000014	-0.020048
H94	H	1.462561	-0.000010	0.209654
H95	H	0.937375	0.000033	-0.265162
Cl96	Cl	0.799224	0.588906	0.235342
Cl97	Cl	0.930889	-0.098977	-0.340385
H98	H	0.907245	-0.079566	-0.484991
H99	H	0.930822	-0.000012	-0.712049
Cl100	Cl	0.679405	0.000008	-0.246686
H101	H	0.703049	-0.000011	-0.549857
H102	H	1.374147	-0.079599	0.181438
H103	H	1.242722	-0.079589	0.179519
H104	H	1.015670	0.000010	0.203105
