data_functionalizedCrystal
_audit_creation_method	'MofGen! by Chris Wilmer'
_symmetry_space_group_name_H-M	'P1'
_symmetry_Int_Tables_number	1
_symmetry_cell_setting	triclinic
loop_
_symmetry_equiv_pos_as_xyz
  x,y,z
_cell_length_a	17.699077
_cell_length_b	18.266242
_cell_length_c	17.699083
_cell_angle_alpha	89.992757
_cell_angle_beta	96.718205
_cell_angle_gamma	90.008479
loop_
_atom_site_label
_atom_site_type_symbol
_atom_site_fract_x
_atom_site_fract_y
_atom_site_fract_z
O1	O	1.004083	0.060873	-0.095691
O2	O	0.783704	0.060876	-0.108148
O3	O	0.900120	0.060868	0.008270
O4	O	0.887668	0.060881	-0.212109
O5	O	0.900101	-0.060894	0.008276
O6	O	0.783685	-0.060886	-0.108142
O7	O	1.004064	-0.060889	-0.095685
Zn8	Zn	0.893871	-0.080220	-0.101913
Zn9	Zn	0.893897	0.080207	-0.101920
O10	O	0.887648	-0.060881	-0.212103
C11	C	0.755498	-0.000004	-0.107700
C12	C	0.671479	-0.000003	-0.106363
N13	N	0.893859	-0.189707	-0.101907
C14	C	0.632001	-0.066376	-0.105730
C15	C	0.553059	-0.066377	-0.104461
C16	C	0.513595	-0.000004	-0.103832
C17	C	0.553079	0.066375	-0.104463
C18	C	0.632021	0.066375	-0.105725
C19	C	0.234716	0.066376	-0.099369
C20	C	0.155768	0.066370	-0.098109
C21	C	0.155753	-0.066376	-0.098105
C22	C	0.234695	-0.066376	-0.099368
C23	C	0.274173	0.000002	-0.099995
C24	C	0.359772	0.000002	-0.101369
C25	C	0.427997	-0.000003	-0.102464
C26	C	0.945425	-0.228019	-0.050382
C27	C	0.945430	-0.304664	-0.050379
C28	C	0.893876	-0.342994	-0.101913
C29	C	0.842300	-0.304672	-0.153441
C30	C	0.842292	-0.228028	-0.153438
N31	N	0.884119	-0.463322	-0.168902
N32	N	0.884132	-0.536130	-0.168902
C33	C	0.893897	-0.573916	-0.101924
N34	N	0.903664	-0.536143	-0.034943
N35	N	0.903656	-0.463329	-0.034943
C36	C	0.893879	-0.426101	-0.101921
C37	C	0.945471	-0.695336	-0.050391
C38	C	0.945470	-0.771982	-0.050386
C39	C	0.842345	-0.771988	-0.153456
C40	C	0.842342	-0.695343	-0.153454
C41	C	0.893909	-0.657022	-0.101922
C42	C	1.032271	-0.000007	-0.096133
C43	C	1.116289	-0.000004	-0.097470
C44	C	0.899664	-0.000013	0.036470
C45	C	0.898326	-0.000013	0.120488
N46	N	0.893915	0.189694	-0.101920
C47	C	0.888104	0.000002	-0.240303
C48	C	0.889443	0.000007	-0.324321
C49	C	0.966659	-0.000016	0.169110
C50	C	0.965397	-0.000009	0.248054
C51	C	0.895800	-0.000006	0.278373
C52	C	0.827461	-0.000001	0.229744
C53	C	0.828724	-0.000002	0.150803
C54	C	0.822366	0.000005	0.548107
C55	C	0.821108	0.000004	0.627055
C56	C	0.959039	-0.000002	0.645358
C57	C	0.960302	-0.000003	0.566417
C58	C	0.891963	0.000005	0.517795
C59	C	0.893333	-0.000000	0.432196
C60	C	0.894430	-0.000005	0.363971
H61	H	0.664126	-0.120425	-0.106248
H62	H	0.800323	-0.335883	-0.195400
Cl63	Cl	0.777529	-0.820168	-0.218236
H64	H	0.520921	-0.120425	-0.103933
H65	H	0.520942	0.120417	-0.103945
H66	H	0.800300	-0.196833	-0.195397
Cl67	Cl	0.106157	0.149818	-0.097316
Cl68	Cl	1.010246	-0.179844	0.014403
H69	H	0.987458	-0.664133	-0.008428
Cl70	Cl	1.010297	-0.820150	0.014397
Cl71	Cl	0.284302	-0.149820	-0.100164
Cl72	Cl	1.044951	-0.000009	0.706488
Cl73	Cl	0.742816	0.000003	0.089676
Cl74	Cl	0.106120	-0.149824	-0.097313
Cl75	Cl	0.777517	-0.647174	-0.218235
H76	H	0.664163	0.120423	-0.106243
H77	H	0.266849	0.120425	-0.099877
Cl78	Cl	1.010262	-0.352837	0.014401
Cl79	Cl	1.054157	-0.000027	0.131003
H80	H	1.021041	-0.000012	0.287639
H81	H	1.016974	-0.000009	0.541735
Cl82	Cl	0.733608	0.000010	0.665169
H83	H	0.766721	0.000011	0.508528
H84	H	0.770794	0.000006	0.254436
