data_functionalizedCrystal
_audit_creation_method	'MofGen! by Chris Wilmer'
_symmetry_space_group_name_H-M	'P1'
_symmetry_Int_Tables_number	1
_symmetry_cell_setting	triclinic
loop_
_symmetry_equiv_pos_as_xyz
  x,y,z
_cell_length_a	14.395555
_cell_length_b	14.560438
_cell_length_c	14.395555
_cell_angle_alpha	59.998079
_cell_angle_beta	89.999455
_cell_angle_gamma	59.999305
loop_
_atom_site_label
_atom_site_type_symbol
_atom_site_fract_x
_atom_site_fract_y
_atom_site_fract_z
Zr1	Zr	0.894918	1.005240	-0.121842
O2	O	0.746591	1.196854	-0.270176
O3	O	0.940388	0.813636	-0.076372
O4	O	0.940392	1.005245	-0.270170
O5	O	0.746584	1.005238	0.076496
O6	O	1.093266	1.005238	-0.270161
O7	O	0.746587	1.005245	-0.076378
O8	O	1.093259	0.662484	0.076508
O9	O	0.746591	1.347992	-0.270173
O10	O	1.073869	0.892437	-0.056970
O11	O	0.959779	0.892437	0.057112
O12	O	0.959784	1.118032	-0.171060
O13	O	0.845693	1.118032	-0.056978
Zr14	Zr	1.138731	1.005219	0.121988
Zr15	Zr	1.138735	1.005229	-0.121829
Zr16	Zr	0.894914	1.005229	0.121975
Zr17	Zr	0.894919	1.246288	-0.121837
Zr18	Zr	1.138730	0.764171	0.121983
O19	O	1.093261	1.196823	0.076518
O20	O	1.093267	1.196839	-0.270158
O21	O	0.746585	1.196839	0.076499
O22	O	1.287058	0.813605	0.270323
O23	O	1.287064	0.813620	-0.076353
O24	O	0.940382	0.813620	0.270304
O25	O	1.287064	1.005221	-0.076349
O26	O	1.093257	1.005214	0.270316
O27	O	0.940383	1.005221	0.270308
O28	O	1.287062	1.005214	0.076525
O29	O	0.940393	1.347984	-0.270163
O30	O	1.093256	0.662475	0.270309
O31	O	1.287058	0.662467	0.270320
O32	O	1.287061	0.662475	0.076518
O33	O	0.746588	1.347984	-0.076372
O34	O	0.940389	1.347975	-0.076361
O35	O	1.073865	0.892427	0.171206
O36	O	1.187956	0.892427	0.057124
O37	O	1.073870	1.118022	-0.056966
O38	O	0.959780	1.118022	0.057116
C39	C	1.016824	0.703716	0.000067
C40	C	1.016824	0.601385	0.000066
C41	C	1.076375	0.553308	-0.059484
C42	C	1.076380	0.457149	-0.059474
C43	C	0.957272	0.457154	0.059638
C44	C	0.957275	0.553305	0.059633
C45	C	0.711847	1.005243	0.000057
C46	C	0.608341	1.005248	0.000051
C47	C	0.485547	1.128252	-0.062146
C48	C	0.454712	1.066765	-0.107223
C49	C	0.454752	1.066730	0.045121
C50	C	0.578869	0.943760	-0.045089
C51	C	0.578906	0.943742	0.107315
C52	C	0.548144	0.882165	0.062264
C53	C	1.321802	1.005216	0.000089
C54	C	1.425308	1.005211	0.000095
C55	C	1.016830	1.005243	-0.304904
C56	C	1.016832	1.005248	-0.408411
C57	C	1.016825	1.306743	0.000079
C58	C	1.016825	1.409074	0.000081
C59	C	0.954615	1.128252	-0.531206
C60	C	1.061884	1.066758	-0.562041
C61	C	0.909568	1.066736	-0.561999
C62	C	1.124164	0.943753	-0.437882
C63	C	0.971771	0.943749	-0.437843
C64	C	1.079104	0.882165	-0.468605
C65	C	1.016819	1.005216	0.305051
C66	C	1.016817	1.005211	0.408557
C67	C	1.321801	0.703702	0.000084
C68	C	1.425307	0.601366	0.000087
C69	C	1.016819	0.703702	0.305045
C70	C	1.016816	0.601366	0.408549
C71	C	1.321796	0.703688	0.305061
C72	C	1.425300	0.601348	0.408571
C73	C	0.711853	1.306770	-0.304915
C74	C	0.608349	1.409111	-0.408425
C75	C	0.711848	1.306757	0.000063
C76	C	0.608341	1.409092	0.000059
C77	C	1.016830	1.306757	-0.304898
C78	C	1.016832	1.409092	-0.408403
C79	C	1.414386	0.553292	-0.059465
C80	C	1.511645	0.457144	-0.059465
C81	C	1.630744	0.457151	0.059647
C82	C	1.533486	0.553303	0.059640
C83	C	1.076366	0.553282	0.516732
C84	C	1.076351	0.457135	0.613982
C85	C	0.957235	0.457163	0.494852
C86	C	0.957244	0.553314	0.397605
C87	C	1.533481	0.553266	0.397654
C88	C	1.630730	0.457115	0.494916
C89	C	1.511605	0.457132	0.614010
C90	C	1.414358	0.553288	0.516749
H91	H	1.124866	0.592450	-0.107986
H92	H	0.933635	0.891809	-0.384328
H93	H	1.502743	0.418008	-0.107960
H94	H	0.401246	1.118737	0.083219
O95	O	1.499813	0.405282	0.730690
H96	H	1.408247	0.454883	0.721938
H97	H	1.718832	0.418004	0.108135
H98	H	1.542396	0.592396	0.309574
O99	O	0.893024	0.405320	0.123864
H100	H	0.953134	0.299248	0.189687
O101	O	0.893180	0.605023	0.280908
H102	H	0.851829	0.555384	0.289634
H103	H	1.099992	1.118743	-0.615563
O104	O	1.297664	0.605144	0.528516
H105	H	1.306390	0.555554	0.620077
O106	O	0.582102	0.744289	0.131936
H107	H	0.633998	0.692938	0.220548
O108	O	0.885035	1.266022	-0.564899
H109	H	0.922695	1.316780	-0.615399
H110	H	1.214912	0.891794	-0.384519
O111	O	0.893036	0.605175	0.123860
H112	H	0.851612	0.555606	0.165266
H113	H	1.124874	0.418007	-0.107963
H114	H	0.460105	1.232264	-0.114824
O115	O	1.148875	0.744283	-0.434631
H116	H	1.147771	0.745246	-0.512216
H117	H	0.401196	1.118755	-0.197917
O118	O	1.545257	0.605159	0.123881
H119	H	1.636817	0.555570	0.165309
H120	H	0.632229	0.891813	-0.083292
O121	O	0.892991	0.405333	0.483039
H122	H	0.927408	0.361550	0.435801
O123	O	1.747414	0.405243	0.483145
H124	H	1.738679	0.454812	0.391582
H125	H	0.818863	1.118750	-0.615504
O126	O	0.649786	0.874893	0.227439
H127	H	0.599096	0.926147	0.264666
H128	H	1.326306	0.592433	-0.107968
O129	O	1.140608	0.605121	0.528528
H130	H	1.182006	0.555535	0.620096
H131	H	1.124841	0.417991	0.702066
