data_functionalizedCrystal
_audit_creation_method	'MofGen! by Chris Wilmer'
_symmetry_space_group_name_H-M	'P1'
_symmetry_Int_Tables_number	1
_symmetry_cell_setting	triclinic
loop_
_symmetry_equiv_pos_as_xyz
  x,y,z
_cell_length_a	18.101398
_cell_length_b	18.101396
_cell_length_c	18.101389
_cell_angle_alpha	89.983791
_cell_angle_beta	90.024327
_cell_angle_gamma	89.967710
loop_
_atom_site_label
_atom_site_type_symbol
_atom_site_fract_x
_atom_site_fract_y
_atom_site_fract_z
Zn1	Zn	1.132091	0.295001	0.418850
Zn2	Zn	1.131974	0.418826	0.295013
Zn3	Zn	1.008249	0.294993	0.295011
Zn4	Zn	1.008187	0.418795	0.418802
O5	O	1.070125	0.356904	0.356919
O6	O	1.235708	0.311443	0.402444
O7	O	1.115538	0.402410	0.191380
O8	O	1.024752	0.191361	0.311458
O9	O	1.235622	0.402417	0.311462
O10	O	1.115738	0.191367	0.402442
O11	O	1.024639	0.311430	0.191379
O12	O	0.904608	0.311399	0.311411
O13	O	1.024646	0.402363	0.522441
O14	O	0.904563	0.402356	0.402360
O15	O	1.115677	0.311412	0.522477
O16	O	1.115478	0.522455	0.311415
O17	O	1.024533	0.522432	0.402362
C18	C	0.877715	0.356874	0.356880
C19	C	0.795401	0.356879	0.356882
C20	C	1.070006	0.549314	0.356899
C21	C	1.070023	0.631628	0.356916
C22	C	0.496310	0.356925	0.356944
C23	C	0.527639	0.299412	0.300001
C24	C	0.613257	0.299566	0.299758
C25	C	0.644692	0.356901	0.356913
C26	C	0.613566	0.434909	0.335591
C27	C	0.527921	0.434590	0.335195
C28	C	0.527926	0.337109	0.435342
C29	C	0.613577	0.335371	0.434914
C30	C	0.728552	0.356893	0.356897
C31	C	0.412450	0.356939	0.356958
C32	C	1.070155	0.930719	0.356959
C33	C	1.013070	0.899410	0.414322
C34	C	1.012808	0.813792	0.414142
C35	C	1.070089	0.782337	0.356938
C36	C	1.048957	0.813472	0.278887
C37	C	1.048580	0.899117	0.279231
C38	C	1.148500	0.899073	0.376960
C39	C	1.148048	0.813422	0.378670
C40	C	1.070054	0.698477	0.356922
C41	C	1.070189	1.014579	0.356970
C42	C	1.263287	0.356934	0.356958
C43	C	1.345601	0.356948	0.356975
C44	C	1.070168	0.356885	0.550081
C45	C	1.070186	0.356877	0.632395
C46	C	1.070239	1.163742	0.356958
C47	C	1.070221	1.081428	0.356981
C48	C	1.070125	0.356869	0.164509
C49	C	1.070251	0.356668	0.082195
C50	C	1.070229	0.356738	0.931486
C51	C	1.012758	0.413780	0.900139
C52	C	1.012913	0.414045	0.814521
C53	C	1.070207	0.356807	0.783104
C54	C	1.148231	0.377998	0.814210
C55	C	1.147910	0.378372	0.899855
C56	C	1.050356	0.278379	0.899908
C57	C	1.048620	0.278832	0.814257
C58	C	1.070200	0.356845	0.699244
C59	C	1.070242	0.356702	1.015346
H60	H	0.634304	0.241719	0.313122
H61	H	0.507665	0.378999	0.477770
H62	H	0.994451	0.259074	0.921493
H63	H	1.163984	0.793071	0.436112
H64	H	1.026033	0.472127	0.794040
H65	H	1.087426	0.234076	0.792871
Cl66	Cl	0.961478	0.780450	0.252260
H67	H	0.991311	0.919153	0.262290
Cl68	Cl	1.216121	0.315871	0.782798
Cl69	Cl	1.032768	0.502898	0.933429
H70	H	0.506360	0.281216	0.454728
Cl71	Cl	1.033217	0.781286	0.503495
H72	H	1.164759	0.435654	0.919841
Cl73	Cl	1.114983	0.212763	0.931208
Cl74	Cl	0.646621	0.461310	0.248059
H75	H	0.955352	0.920990	0.401240
Cl76	Cl	0.644839	0.319786	0.210066
Cl77	Cl	0.645009	0.246749	0.459748
H78	H	1.089231	0.793097	0.234981
H79	H	1.165370	0.434671	0.792770
Cl80	Cl	1.033268	0.931155	0.503968
Cl81	Cl	0.495890	0.209824	0.320403
Cl82	Cl	1.216222	0.316972	0.931878
H83	H	0.955056	0.400784	0.793487
Cl84	Cl	0.959966	0.254161	0.782875
Cl85	Cl	1.178238	0.932358	0.463337
H86	H	1.192833	0.792007	0.339935
Cl87	Cl	1.214167	0.930346	0.312468
H88	H	0.954741	0.793362	0.400892
Cl89	Cl	0.644989	0.502843	0.397625
H90	H	0.954726	0.400655	0.920724
H91	H	1.088354	0.919830	0.235034
H92	H	0.506088	0.312363	0.242246
H93	H	0.634978	0.374209	0.479615
H94	H	0.507907	0.451397	0.277882
H95	H	0.507194	0.478892	0.374862
