data_functionalizedCrystal
_audit_creation_method	'MofGen! by Chris Wilmer'
_symmetry_space_group_name_H-M	'P1'
_symmetry_Int_Tables_number	1
_symmetry_cell_setting	triclinic
loop_
_symmetry_equiv_pos_as_xyz
  x,y,z
_cell_length_a	10.489741
_cell_length_b	10.723024
_cell_length_c	9.198806
_cell_angle_alpha	89.998639
_cell_angle_beta	90.001007
_cell_angle_gamma	95.496478
loop_
_atom_site_label
_atom_site_type_symbol
_atom_site_fract_x
_atom_site_fract_y
_atom_site_fract_z
O1	O	-1.693940	0.176061	-0.120795
O2	O	-1.193940	0.676061	0.379205
O3	O	-1.322734	0.192587	-0.120817
O4	O	-0.822734	0.692587	0.379183
O5	O	-1.516899	0.002753	-0.120804
O6	O	-1.016899	0.502753	0.379196
O7	O	-1.499774	0.365895	-0.120809
O8	O	-0.999774	0.865895	0.379191
O9	O	-1.516885	0.002752	0.120981
O10	O	-1.016885	0.502752	0.620981
O11	O	-1.322719	0.192586	0.120968
O12	O	-0.822719	0.692586	0.620968
O13	O	-1.693925	0.176059	0.120990
O14	O	-1.193925	0.676059	0.620990
Cu15	Cu	-1.508321	0.184322	0.143056
Cu16	Cu	-1.008321	0.684322	0.643056
Cu17	Cu	-1.508338	0.184324	-0.142883
Cu18	Cu	-1.008338	0.684324	0.357117
O19	O	-1.499760	0.365893	0.120976
O20	O	-0.999760	0.865893	0.620976
C21	C	-1.275196	0.191338	0.000072
C22	C	-0.775196	0.691338	0.500072
C23	C	-1.133569	0.187604	0.000064
C24	C	-0.633569	0.687604	0.500064
C25	C	-1.515646	-0.043748	0.000086
C26	C	-1.015646	0.456252	0.500086
C27	C	-1.511917	-0.182305	0.000078
C28	C	-1.011917	0.317695	0.500078
C29	C	-1.741464	0.177308	0.000097
C30	C	-1.241464	0.677308	0.500097
C31	C	-1.883091	0.181043	0.000096
C32	C	-1.383091	0.681043	0.500096
C33	C	-1.065506	0.066818	0.000079
C34	C	-0.565506	0.566818	0.500079
C35	C	-0.973349	0.123877	-0.119131
C36	C	-0.473349	0.623877	0.380869
C37	C	-0.973369	0.123904	0.119250
C38	C	-0.473369	0.623904	0.619250
C39	C	-1.043278	0.244712	-0.119245
C40	C	-0.543278	0.744712	0.380755
C41	C	-1.043307	0.244723	0.119243
C42	C	-0.543307	0.744723	0.619243
C43	C	-0.951178	0.301869	0.000004
C44	C	-0.451178	0.801869	0.500004
C45	C	-1.501013	0.412395	0.000083
C46	C	-1.001013	0.912395	0.500083
C47	C	-1.504742	0.550951	0.000082
C48	C	-1.004742	1.050951	0.500082
N49	N	-1.508318	0.184320	0.344170
N50	N	-1.008318	0.684320	0.844170
C51	C	-1.396097	0.625867	0.000074
C52	C	-0.896097	1.125867	0.500074
C53	C	-1.399948	0.769073	0.000072
C54	C	-0.899948	1.269073	0.500072
N55	N	-1.508351	0.184316	-0.343997
N56	N	-1.008351	0.684316	0.156003
C57	C	-1.590044	0.104442	0.583776
C58	C	-1.090044	0.604442	1.083776
C59	C	-1.590027	0.104443	0.416364
C60	C	-1.090027	0.604443	0.916364
H61	H	-1.115259	-0.032476	-0.000068
H62	H	-0.615259	0.467524	0.499932
H63	H	-1.074314	0.295788	0.220032
H64	H	-0.574314	0.795788	0.720032
H65	H	-0.942374	0.072770	-0.219915
H66	H	-0.442374	0.572770	0.280085
F67	F	-0.932915	0.057077	0.250984
F68	F	-0.432915	0.557077	0.750984
F69	F	-1.633496	0.733563	0.000097
F70	F	-1.133496	1.233563	0.500097
H71	H	-1.306940	0.833449	0.000076
H72	H	-0.806940	1.333449	0.500076
F73	F	-1.270789	0.571133	0.000051
F74	F	-0.770789	1.071133	0.500051
H75	H	-1.600608	0.592832	0.000034
H76	H	-1.100608	1.092832	0.500034
H77	H	-1.074079	0.295780	-0.220142
H78	H	-0.574079	0.795780	0.279858
F79	F	-1.681489	0.015059	0.664940
F80	F	-1.181489	0.515059	1.164940
F81	F	-0.886490	0.431789	-0.000079
F82	F	-0.386490	0.931789	0.499921
F83	F	-1.416920	0.273710	0.574836
F84	F	-0.916920	0.773710	1.074836
H85	H	-1.659964	0.036054	0.354252
H86	H	-1.159964	0.536054	0.854252
H87	H	-1.438369	0.252704	0.406272
H88	H	-0.938369	0.752704	0.906272
