data_functionalizedCrystal
_audit_creation_method	'MofGen! by Chris Wilmer'
_symmetry_space_group_name_H-M	'P1'
_symmetry_Int_Tables_number	1
_symmetry_cell_setting	triclinic
loop_
_symmetry_equiv_pos_as_xyz
  x,y,z
_cell_length_a	15.944551
_cell_length_b	19.188930
_cell_length_c	14.421503
_cell_angle_alpha	89.999163
_cell_angle_beta	89.996859
_cell_angle_gamma	83.321760
loop_
_atom_site_label
_atom_site_type_symbol
_atom_site_fract_x
_atom_site_fract_y
_atom_site_fract_z
O1	O	1.114192	0.090038	-0.077026
O2	O	0.869601	0.101140	-0.077050
O3	O	0.998955	-0.006048	-0.077019
O4	O	0.984838	0.197227	-0.077057
O5	O	0.998934	-0.006032	0.077204
O6	O	0.869580	0.101156	0.077173
O7	O	1.114171	0.090054	0.077198
Cu8	Cu	0.991873	0.095607	0.091267
Cu9	Cu	0.991899	0.095588	-0.091120
O10	O	0.984817	0.197243	0.077167
C11	C	0.838298	0.100687	0.000059
C12	C	0.745057	0.099306	0.000050
C13	C	0.530462	0.029563	0.000081
C14	C	0.469331	0.061941	-0.075965
C15	C	0.574341	0.096806	0.000062
C16	C	0.469332	0.061973	0.076087
C17	C	0.409437	0.094386	0.000077
C18	C	0.514438	0.129203	-0.076047
C19	C	0.514446	0.129225	0.076073
C20	C	0.453332	0.161652	0.000008
C21	C	0.669338	0.098198	0.000052
C22	C	0.314441	0.093000	0.000080
C23	C	0.998487	-0.032052	0.000095
C24	C	0.997115	-0.109560	0.000103
C25	C	1.073016	-0.154288	0.000115
C26	C	1.071726	-0.227115	0.000100
C27	C	0.994532	-0.255211	0.000092
C28	C	0.918622	-0.210474	0.000075
C29	C	0.919913	-0.137648	0.000080
N30	N	0.935519	-0.363364	0.052571
N31	N	0.934298	-0.432545	0.052568
C32	C	0.990637	-0.474630	0.000073
N33	N	1.048256	-0.444921	-0.052407
N34	N	1.049480	-0.375733	-0.052400
C35	C	0.993123	-0.334178	0.000085
C36	C	1.065145	-0.598326	0.000067
C37	C	1.063852	-0.671154	0.000046
C38	C	0.910745	-0.654511	0.000030
C39	C	0.912040	-0.581685	0.000041
C40	C	0.989242	-0.553597	0.000064
C41	C	1.145474	0.090507	0.000087
C42	C	1.238715	0.091889	0.000089
C43	C	0.985285	0.223247	0.000050
C44	C	0.986657	0.300755	0.000036
N45	N	0.991862	0.095619	0.219549
N46	N	0.991917	0.095569	-0.219401
C47	C	0.932038	0.145161	0.469188
C48	C	1.007887	0.158716	0.530995
C49	C	0.991882	0.095603	0.408710
C50	C	0.916052	0.082064	0.530997
C51	C	0.991895	0.095588	0.591431
C52	C	1.067770	0.109189	0.469157
C53	C	0.975885	0.032510	0.469153
C54	C	1.051789	0.046038	0.530932
C55	C	0.991874	0.095613	0.303449
C56	C	0.991913	0.095578	0.696690
H57	H	0.534462	0.157649	0.140358
H58	H	0.449343	0.033526	0.140376
H59	H	0.564003	-0.026244	-0.000003
C60	C	1.162662	-0.044931	0.492282
C61	C	1.120188	-0.010549	0.567309
H62	H	1.204892	-0.079859	0.514743
H63	H	1.123597	-0.066338	0.455205
H64	H	1.188313	-0.011912	0.456023
H65	H	1.094531	-0.043567	0.603564
H66	H	1.159258	0.010859	0.604401
C67	C	1.137722	-0.346145	0.000111
C68	C	1.155161	-0.276293	0.000119
H69	H	1.189232	-0.376502	0.000119
H70	H	1.106048	-0.354656	0.053880
H71	H	1.106070	-0.354653	-0.053683
H72	H	1.186808	-0.267784	0.053917
H73	H	1.186849	-0.267779	-0.053655
H74	H	0.449336	0.033493	-0.140247
H75	H	1.021430	0.212066	0.558159
C76	C	1.163305	-0.082048	-0.079150
C77	C	1.157875	-0.123415	0.000127
H78	H	1.215693	-0.062985	-0.079139
H79	H	1.159628	-0.110113	-0.132921
H80	H	1.118283	-0.044984	-0.079144
H81	H	1.202894	-0.160482	0.000118
H82	H	1.161561	-0.095349	0.053913
H83	H	0.534329	0.157616	-0.140409
C84	C	0.848662	-0.314722	0.000073
C85	C	0.833768	-0.241354	0.000069
H86	H	0.796274	-0.333784	0.000073
H87	H	0.879905	-0.330070	-0.053701
H88	H	0.879896	-0.330068	0.053862
H89	H	0.802538	-0.226008	-0.053723
H90	H	0.802511	-0.226000	0.053849
C91	C	0.766908	0.118578	0.536485
C92	C	0.829476	0.066604	0.567660
H93	H	0.713459	0.109034	0.559113
H94	H	0.778685	0.163046	0.558576
H95	H	0.766139	0.118893	0.470621
H96	H	0.830249	0.066293	0.633525
H97	H	0.817696	0.022124	0.545574
H98	H	0.858103	-0.101230	0.000071
H99	H	1.128007	-0.575456	0.000081
C100	C	0.432067	0.272529	0.078806
C101	C	0.408279	0.237064	-0.000059
H102	H	0.404254	0.319084	0.078757
H103	H	0.416635	0.248761	0.132854
H104	H	0.491445	0.273803	0.078283
H105	H	0.348901	0.235785	0.000468
H106	H	0.423705	0.260838	-0.054120
H107	H	1.125662	-0.707571	0.000051
C108	C	0.820487	-0.726747	-0.079268
C109	C	0.825890	-0.685386	0.000017
H110	H	0.768101	-0.745812	-0.079274
H111	H	0.824179	-0.698678	-0.133034
H112	H	0.865511	-0.763809	-0.079255
H113	H	0.780869	-0.648320	0.000001
H114	H	0.822190	-0.713456	0.053797
C115	C	0.760576	-0.572552	0.000038
C116	C	0.828606	-0.532515	0.000045
H117	H	0.709066	-0.542195	0.000045
H118	H	0.763261	-0.601296	-0.053743
H119	H	0.763257	-0.601308	0.053820
H120	H	0.825928	-0.503762	-0.053741
H121	H	0.825920	-0.503758	0.053831
C122	C	0.880764	0.267800	0.463795
C123	C	0.863792	0.201779	0.432575
H124	H	0.838637	0.302753	0.441184
H125	H	0.880629	0.268461	0.529651
H126	H	0.934532	0.276964	0.441708
H127	H	0.810026	0.192613	0.454667
H128	H	0.863918	0.201117	0.366706
C129	C	1.153530	0.124709	0.335560
C130	C	1.154345	0.124786	0.432649
H131	H	1.206969	0.134360	0.313023
H132	H	1.142119	0.080036	0.313858
H133	H	1.110958	0.159687	0.313955
H134	H	1.196913	0.089804	0.454255
H135	H	1.165766	0.169465	0.454360
H136	H	0.962318	-0.020823	0.441967
