data_functionalizedCrystal
_audit_creation_method	'MofGen! by Chris Wilmer'
_symmetry_space_group_name_H-M	'P1'
_symmetry_Int_Tables_number	1
_symmetry_cell_setting	triclinic
loop_
_symmetry_equiv_pos_as_xyz
  x,y,z
_cell_length_a	10.723023
_cell_length_b	10.723024
_cell_length_c	9.198806
_cell_angle_alpha	90.002264
_cell_angle_beta	89.996765
_cell_angle_gamma	95.532291
loop_
_atom_site_label
_atom_site_type_symbol
_atom_site_fract_x
_atom_site_fract_y
_atom_site_fract_z
O1	O	1.657188	-0.175020	-0.120874
O2	O	1.294035	-0.191775	-0.120879
O3	O	1.483988	-0.001821	-0.120871
O4	O	1.467235	-0.364974	-0.120882
O5	O	1.483974	-0.001820	0.120914
O6	O	1.294021	-0.191773	0.120906
O7	O	1.657174	-0.175019	0.120911
Cu8	Cu	1.475596	-0.183396	0.142985
Cu9	Cu	1.475613	-0.183398	-0.142953
O10	O	1.467221	-0.364972	0.120903
C11	C	1.247529	-0.190555	0.000012
C12	C	1.108974	-0.186908	0.000010
C13	C	1.047195	-0.185281	0.125261
C14	C	0.903992	-0.181511	0.125262
C15	C	1.482762	0.044679	0.000020
C16	C	1.479114	0.183233	0.000015
C17	C	1.703680	-0.176239	0.000016
C18	C	1.842235	-0.179886	0.000009
N19	N	1.475593	-0.183394	0.344099
C20	C	1.468447	-0.411473	0.000009
C21	C	1.472095	-0.550027	0.000005
C22	C	1.585402	0.258216	0.000014
C23	C	1.581634	0.401420	0.000009
N24	N	1.475625	-0.183390	-0.344067
C25	C	1.555546	-0.103465	0.583704
C26	C	1.555530	-0.103466	0.416292
H27	H	0.895355	-0.181292	-0.107228
N28	N	1.384949	-0.274036	0.426361
H29	H	1.400073	-0.362754	0.399945
H30	H	1.296273	-0.258790	0.399931
H31	H	1.672625	0.465852	0.000015
H32	H	1.623987	-0.035040	0.645803
H33	H	1.100322	-0.186671	0.232492
H34	H	1.623949	-0.035034	0.354178
N35	N	1.354878	0.238619	0.000030
H36	H	1.284465	0.168905	0.000035
H37	H	1.348578	0.292039	-0.089603
N38	N	0.833697	-0.179127	0.267311
H39	H	0.741394	-0.176517	0.247176
H40	H	0.866081	-0.102325	0.324459
N41	N	1.038612	-0.185045	-0.142034
H42	H	0.975137	-0.260844	-0.147833
H43	H	1.099596	-0.186602	-0.225540
N44	N	1.709640	0.202836	0.000034
H45	H	1.694721	0.108386	0.000044
H46	H	1.758640	0.231612	0.089676
N47	N	1.351563	0.364630	0.000005
H48	H	1.301296	0.381132	-0.089626
H49	H	1.301387	0.381184	0.089693
N50	N	1.384966	-0.274040	0.573699
H51	H	1.433182	-0.329665	0.510535
H52	H	1.329358	-0.225726	0.510645
