data_functionalizedCrystal
_audit_creation_method	'MofGen! by Chris Wilmer'
_symmetry_space_group_name_H-M	'P1'
_symmetry_Int_Tables_number	1
_symmetry_cell_setting	triclinic
loop_
_symmetry_equiv_pos_as_xyz
  x,y,z
_cell_length_a	10.489711
_cell_length_b	10.489741
_cell_length_c	7.681481
_cell_angle_alpha	84.199479
_cell_angle_beta	95.780052
_cell_angle_gamma	84.533091
loop_
_atom_site_label
_atom_site_type_symbol
_atom_site_fract_x
_atom_site_fract_y
_atom_site_fract_z
O1	O	1.682120	0.191760	-0.146492
O2	O	1.310921	0.208691	-0.146481
O3	O	1.504968	0.014626	-0.146476
O4	O	1.488073	0.385825	-0.146497
O5	O	1.528851	-0.009315	0.146382
O6	O	1.334804	0.184750	0.146377
O7	O	1.706004	0.167819	0.146367
Zn8	Zn	1.524196	0.172484	0.192869
Zn9	Zn	1.492729	0.204027	-0.192984
O10	O	1.511957	0.361884	0.146362
C11	C	1.275330	0.195450	-0.000051
C12	C	1.133699	0.191648	-0.000046
C13	C	0.951311	0.308354	-0.000073
C14	C	1.031681	0.261862	-0.144462
C15	C	1.055201	0.238227	0.144274
C16	C	0.961719	0.138330	-0.144592
C17	C	0.985240	0.114702	0.144274
C18	C	1.065580	0.068123	-0.000150
C19	C	1.515634	-0.044876	-0.000048
C20	C	1.511816	-0.186505	-0.000051
C21	C	1.388349	-0.254631	-0.000061
C22	C	1.458449	-0.358564	0.144332
C23	C	1.434931	-0.334934	-0.144403
C24	C	1.581977	-0.288582	0.144461
C25	C	1.558431	-0.264933	-0.144404
C26	C	1.628623	-0.368841	0.000024
C27	C	1.741594	0.181061	-0.000068
C28	C	1.883224	0.184864	-0.000084
C29	C	1.501291	0.421386	-0.000070
C30	C	1.505107	0.563016	-0.000079
N31	N	1.545681	0.150956	0.456204
N32	N	1.471253	0.225545	-0.456319
H33	H	0.901608	0.409868	-0.000222
H34	H	1.395278	0.301677	0.468482
C35	C	1.004019	0.083246	0.460143
C36	C	0.956784	0.030750	0.309075
H37	H	0.986441	0.031427	0.561892
H38	H	1.094416	0.085717	0.461918
H39	H	0.963216	0.168191	0.459082
H40	H	0.997595	-0.054192	0.310130
H41	H	0.866370	0.028264	0.307300
C42	C	1.740429	-0.269406	-0.310712
C43	C	1.615455	-0.209545	-0.309207
H44	H	1.775619	-0.235212	-0.412471
H45	H	1.792748	-0.254080	-0.208226
H46	H	1.737671	-0.359525	-0.312489
H47	H	1.618215	-0.119427	-0.307417
H48	H	1.563124	-0.224861	-0.411720
C49	C	1.713904	-0.017619	0.438044
C50	C	1.648259	0.048173	0.557715
H51	H	1.777233	-0.081067	0.500717
H52	H	1.654491	-0.058103	0.366160
H53	H	1.754525	0.041693	0.366116
H54	H	1.607629	-0.011139	0.629635
H55	H	1.707681	0.088657	0.629630
C56	C	1.002099	0.471704	-0.308825
C57	C	1.060238	0.345912	-0.309131
H58	H	1.019778	0.523610	-0.410439
H59	H	0.911609	0.470548	-0.309668
H60	H	1.035499	0.506272	-0.206169
H61	H	1.026831	0.311341	-0.411781
H62	H	1.150746	0.347064	-0.308305
C63	C	0.965830	-0.044025	-0.310150
C64	C	0.906683	0.081343	-0.309576
H65	H	0.931843	-0.079203	-0.412000
H66	H	1.056083	-0.041941	-0.311118
H67	H	0.949657	-0.095961	-0.207730
H68	H	0.922864	0.133282	-0.411991
H69	H	0.816409	0.079266	-0.308625
H70	H	1.096112	0.280522	0.266345
H71	H	1.115032	-0.033467	-0.000217
H72	H	1.286848	-0.204981	0.000088
H73	H	1.372718	-0.355913	-0.266487
H74	H	1.644139	-0.267746	0.266670
C75	C	1.275542	-0.355696	0.308874
C76	C	1.401370	-0.413905	0.309127
H77	H	1.240298	-0.389864	0.410603
H78	H	1.276839	-0.265330	0.309525
H79	H	1.224147	-0.372437	0.206330
H80	H	1.452768	-0.397156	0.411665
H81	H	1.400080	-0.504292	0.308492
C82	C	1.842449	-0.412658	0.151434
C83	C	1.765787	-0.435601	0.000123
H84	H	1.927123	-0.453884	0.151503
H85	H	1.845687	-0.322548	0.152393
H86	H	1.806535	-0.446006	0.253024
H87	H	1.801695	-0.402245	-0.101467
H88	H	1.762553	-0.525730	-0.000852
