data_functionalizedCrystal
_audit_creation_method	'MofGen! by Chris Wilmer'
_symmetry_space_group_name_H-M	'P1'
_symmetry_Int_Tables_number	1
_symmetry_cell_setting	triclinic
loop_
_symmetry_equiv_pos_as_xyz
  x,y,z
_cell_length_a	6.817900
_cell_length_b	14.858572
_cell_length_c	15.300992
_cell_angle_alpha	94.836158
_cell_angle_beta	104.175078
_cell_angle_gamma	104.524003
loop_
_atom_site_label
_atom_site_type_symbol
_atom_site_fract_x
_atom_site_fract_y
_atom_site_fract_z
V1	V	-4.041806	-0.290242	-0.125326
O2	O	-4.025461	-0.284428	0.005438
O3	O	-3.996655	-0.288534	-0.247939
O4	O	-3.998399	-0.416699	-0.123655
O5	O	-4.023705	-0.155375	-0.119706
V6	V	-4.524366	-0.274077	-0.109655
O7	O	-4.305177	-0.325700	-0.159702
O8	O	-4.711192	-0.238618	-0.075279
O9	O	-4.346310	-0.275785	0.012958
O10	O	-4.658107	-0.279890	-0.240420
O11	O	-4.659864	-0.408943	-0.115275
O12	O	-4.344566	-0.147619	-0.111326
C13	C	-3.842285	-0.284026	-0.277821
C14	C	-3.886688	-0.283473	-0.378061
C15	C	-3.863544	-0.198019	-0.412109
C16	C	-3.905287	-0.197502	-0.506296
C17	C	-3.970158	-0.282440	-0.566432
C18	C	-3.993309	-0.367900	-0.532378
C19	C	-3.951581	-0.368417	-0.438193
C20	C	-4.080274	-0.366818	-0.728687
C21	C	-4.122001	-0.366302	-0.822877
C22	C	-4.033980	-0.195904	-0.796789
C23	C	-3.992252	-0.196420	-0.702605
C24	C	-4.015402	-0.281881	-0.668557
C25	C	-3.844509	-0.447513	-0.119283
C26	C	-3.890324	-0.550895	-0.118728
C27	C	-4.058010	-0.929459	-0.116698
C28	C	-4.011346	-0.824131	-0.117263
C29	C	-3.974168	-0.740180	-0.117714
C30	C	-3.927502	-0.634845	-0.118277
C31	C	-4.164022	-0.280289	0.042836
C32	C	-4.098857	-0.280849	0.143074
C33	C	-4.161798	-0.116800	-0.115701
C34	C	-4.095221	-0.013417	-0.116252
H35	H	-4.099162	-0.436410	-0.700970
H36	H	-3.970450	-0.438002	-0.410474
F37	F	-4.191199	-0.456706	-0.886881
H38	H	-4.046145	-0.437058	-0.581348
F39	F	-3.923193	-0.106020	-0.638605
H40	H	-3.810706	-0.128853	-0.363151
F41	F	-4.009333	-0.104950	-0.833025
H42	H	-3.886443	-0.127918	-0.534013
