data_functionalizedCrystal
_audit_creation_method	'MofGen! by Chris Wilmer'
_symmetry_space_group_name_H-M	'P1'
_symmetry_Int_Tables_number	1
_symmetry_cell_setting	triclinic
loop_
_symmetry_equiv_pos_as_xyz
  x,y,z
_cell_length_a	17.077404
_cell_length_b	19.077068
_cell_length_c	17.077396
_cell_angle_alpha	92.267122
_cell_angle_beta	89.980499
_cell_angle_gamma	92.327269
loop_
_atom_site_label
_atom_site_type_symbol
_atom_site_fract_x
_atom_site_fract_y
_atom_site_fract_z
Zn1	Zn	1.187475	-0.280197	-0.456376
Zn2	Zn	1.182097	-0.397901	-0.330375
Zn3	Zn	1.056205	-0.280222	-0.325125
Zn4	Zn	1.050892	-0.397859	-0.461596
O5	O	1.119167	-0.339045	-0.393368
O6	O	1.296608	-0.295818	-0.439674
O7	O	1.165371	-0.382318	-0.219833
O8	O	1.078093	-0.181727	-0.338154
O9	O	1.292657	-0.382294	-0.347101
O10	O	1.174536	-0.181709	-0.434583
O11	O	1.072878	-0.295860	-0.215976
O12	O	0.945654	-0.295819	-0.343216
O13	O	1.069036	-0.382223	-0.570750
O14	O	0.941750	-0.382247	-0.443481
O15	O	1.169383	-0.295777	-0.566914
O16	O	1.160218	-0.496386	-0.352163
O17	O	1.063822	-0.496356	-0.448571
C18	C	0.915220	-0.339032	-0.393346
C19	C	0.827970	-0.339043	-0.393356
C20	C	0.784964	-0.384114	-0.445486
C21	C	0.702984	-0.384116	-0.445499
C22	C	0.664010	-0.339050	-0.393376
C23	C	0.707021	-0.293974	-0.341243
C24	C	0.789000	-0.293969	-0.341235
C25	C	0.536151	-0.293988	-0.341263
C26	C	0.454166	-0.293993	-0.341270
C27	C	0.450134	-0.384134	-0.445526
C28	C	0.532113	-0.384130	-0.445518
C29	C	0.575119	-0.339055	-0.393384
C30	C	1.110881	-0.521909	-0.401521
C31	C	1.107408	-0.600139	-0.405035
C32	C	1.156004	-0.636884	-0.356533
C33	C	1.152742	-0.710389	-0.359843
C34	C	1.100880	-0.747148	-0.411651
C35	C	1.052283	-0.710398	-0.460158
C36	C	1.055549	-0.636894	-0.456852
C37	C	1.085729	-0.966982	-0.426921
C38	C	1.082465	-1.040491	-0.430222
C39	C	1.182926	-1.040478	-0.329907
C40	C	1.186184	-0.966973	-0.326602
C41	C	1.137590	-0.930229	-0.375112
N42	N	1.097543	-0.822282	-0.415033
N43	N	1.140931	-0.855096	-0.371733
C44	C	1.323911	-0.339058	-0.393391
C45	C	1.411160	-0.339064	-0.393400
C46	C	1.119217	-0.338993	-0.598110
C47	C	1.119238	-0.338971	-0.685359
C48	C	1.127507	-0.155467	-0.385201
C49	C	1.131061	-0.077237	-0.381720
C50	C	1.171491	-0.293955	-0.724353
C51	C	1.171501	-0.293931	-0.806332
C52	C	1.119262	-0.338928	-0.849316
C53	C	1.067004	-0.383946	-0.810317
C54	C	1.066990	-0.383965	-0.728339
C55	C	1.067038	-0.383904	-0.981185
C56	C	1.067052	-0.383885	-1.063169
C57	C	1.171549	-0.293870	-1.059179
C58	C	1.171535	-0.293889	-0.977201
C59	C	1.119277	-0.338908	-0.938207
C60	C	1.119165	-0.339046	-0.189420
C61	C	1.119305	-0.338869	-0.102163
H62	H	0.675282	-0.257277	-0.298808
O63	O	0.822851	-0.427967	-0.496010
C64	C	0.868211	-0.473362	-0.453260
H65	H	0.843287	-0.477643	-0.391621
H66	H	0.931327	-0.451595	-0.449620
C67	C	0.896783	-0.541314	-0.570450
C68	C	0.866166	-0.546576	-0.494745
H69	H	0.895525	-0.586475	-0.596041
H70	H	0.866225	-0.510729	-0.599253
H71	H	0.949376	-0.523172	-0.567406
H72	H	0.813571	-0.564709	-0.497791
H73	H	0.896715	-0.577166	-0.465944
H74	H	1.010059	-0.740332	-0.502345
O75	O	1.222265	-0.250178	-0.682720
C76	C	1.268398	-0.210453	-0.734721
H77	H	1.236366	-0.208001	-0.793044
H78	H	1.326846	-0.236228	-0.744598
C79	C	1.322452	-0.138564	-0.627768
C80	C	1.283106	-0.135548	-0.699398
H81	H	1.331529	-0.092359	-0.605978
H82	H	1.291374	-0.165329	-0.592733
H83	H	1.371155	-0.160046	-0.636008
H84	H	1.234401	-0.114074	-0.691155
H85	H	1.314177	-0.108777	-0.734431
O86	O	1.230220	-1.076200	-0.282909
C87	C	1.278994	-1.118661	-0.329561
H88	H	1.284782	-1.096467	-0.390393
H89	H	1.252252	-1.174387	-0.334744
C90	C	1.353467	-1.147004	-0.216631
C91	C	1.360581	-1.119742	-0.291344
H92	H	1.403793	-1.147675	-0.193056
H93	H	1.320605	-1.118400	-0.185200
H94	H	1.331179	-1.193440	-0.220961
H95	H	1.382859	-1.073305	-0.287013
H96	H	1.393448	-1.148339	-0.322774
O97	O	1.032068	-1.076091	-0.480626
C98	C	0.989865	-1.027899	-0.522722
H99	H	1.024343	-0.975477	-0.523112
H100	H	0.930605	-1.020145	-0.493582
C101	C	0.934897	-1.120933	-0.607066
C102	C	0.977246	-1.056548	-0.607550
H103	H	0.927109	-1.138606	-0.659391
H104	H	0.963327	-1.153402	-0.578703
H105	H	0.885518	-1.114463	-0.582778
H106	H	1.026628	-1.063021	-0.631828
H107	H	0.948824	-1.024081	-0.635919
H108	H	1.046160	-0.937071	-0.466418
O109	O	1.206425	-0.601103	-0.306310
C110	C	1.259004	-0.558531	-0.349132
H111	H	1.231775	-0.547499	-0.408097
H112	H	1.315914	-0.586812	-0.359084
C113	C	1.309790	-0.502280	-0.230390
C114	C	1.276343	-0.488725	-0.302810
H115	H	1.320489	-0.459221	-0.201816
H116	H	1.274368	-0.530963	-0.201539
H117	H	1.357210	-0.525849	-0.238694
H118	H	1.228919	-0.465164	-0.294506
H119	H	1.311757	-0.460036	-0.331659
H120	H	1.228414	-0.937045	-0.284416
H121	H	1.015978	-0.606976	-0.496348
H122	H	1.192313	-0.740304	-0.320346
O123	O	1.016230	-0.427614	-1.104804
C124	C	0.970112	-0.467361	-1.052811
H125	H	0.968692	-0.438548	-0.993091
H126	H	0.996420	-0.520822	-1.046475
C127	C	0.887858	-0.512872	-1.158598
C128	C	0.886109	-0.477480	-1.085250
H129	H	0.836042	-0.519117	-1.178608
H130	H	0.918930	-0.486096	-1.193628
H131	H	0.909785	-0.557419	-1.153308
H132	H	0.864191	-0.432931	-1.090543
H133	H	0.855030	-0.504249	-1.050222
H134	H	1.214077	-0.257253	-0.942205
H135	H	1.214052	-0.257276	-0.838078
O136	O	1.016389	-0.427671	-0.943214
C137	C	1.059021	-0.473147	-0.897842
H138	H	1.119633	-0.448324	-0.884479
H139	H	1.065283	-0.525300	-0.931755
C140	C	0.940808	-0.516395	-0.836935
C141	C	1.015251	-0.485903	-0.820517
H142	H	0.913808	-0.524266	-0.789239
H143	H	0.912086	-0.485758	-0.867505
H144	H	0.946037	-0.559852	-0.865197
H145	H	1.010021	-0.442444	-0.792264
H146	H	1.043972	-0.516533	-0.789941
O147	O	0.661326	-0.427972	-0.496157
C148	C	0.713305	-0.467742	-0.542165
H149	H	0.771621	-0.470129	-0.510110
H150	H	0.723210	-0.442048	-0.600690
C151	C	0.606303	-0.539737	-0.596036
C152	C	0.677926	-0.542673	-0.556662
H153	H	0.584478	-0.585957	-0.604982
H154	H	0.571283	-0.512942	-0.565042
H155	H	0.614567	-0.518322	-0.644802
H156	H	0.669659	-0.564080	-0.507893
H157	H	0.712943	-0.569474	-0.587648
H158	H	1.214097	-0.257212	-1.090932
H159	H	0.563843	-0.420830	-0.487957
O160	O	0.408244	-0.427851	-0.496146
C161	C	0.327530	-0.418203	-0.484970
H162	H	0.318782	-0.363857	-0.456942
H163	H	0.302356	-0.459902	-0.444952
C164	C	0.295928	-0.491497	-0.599104
C165	C	0.285183	-0.424746	-0.564685
H166	H	0.269805	-0.495536	-0.648275
H167	H	0.350306	-0.498000	-0.606632
H168	H	0.274950	-0.526239	-0.565748
H169	H	0.306170	-0.390006	-0.598037
H170	H	0.230807	-0.418238	-0.557164
O171	O	0.577807	-0.250184	-0.290540
C172	C	0.525831	-0.210400	-0.244545
H173	H	0.466085	-0.239226	-0.243074
H174	H	0.519549	-0.156975	-0.270999
C175	C	0.631630	-0.164768	-0.162364
C176	C	0.558250	-0.200175	-0.160551
H177	H	0.651628	-0.158458	-0.110554
H178	H	0.666648	-0.191570	-0.193353
H179	H	0.626385	-0.120251	-0.184412
H180	H	0.563497	-0.244695	-0.138513
H181	H	0.523234	-0.173381	-0.129557
O182	O	0.830658	-0.250169	-0.290516
C183	C	0.778682	-0.210383	-0.244524
H184	H	0.718938	-0.239210	-0.243046
H185	H	0.772396	-0.156960	-0.270984
C186	C	0.884483	-0.164738	-0.162353
C187	C	0.811105	-0.200148	-0.160532
H188	H	0.904483	-0.158422	-0.110543
H189	H	0.919501	-0.191541	-0.193340
H190	H	0.879234	-0.120224	-0.184406
H191	H	0.816356	-0.244665	-0.138488
H192	H	0.776089	-0.173352	-0.129539
H193	H	1.024468	-0.420581	-0.845321
H194	H	0.422436	-0.257288	-0.298836
H195	H	1.024433	-0.420615	-0.696590
