data_functionalizedCrystal
_audit_creation_method	'MofGen! by Chris Wilmer'
_symmetry_space_group_name_H-M	'P1'
_symmetry_Int_Tables_number	1
_symmetry_cell_setting	triclinic
loop_
_symmetry_equiv_pos_as_xyz
  x,y,z
_cell_length_a	17.077404
_cell_length_b	16.625545
_cell_length_c	17.077396
_cell_angle_alpha	89.971947
_cell_angle_beta	90.021444
_cell_angle_gamma	89.977716
loop_
_atom_site_label
_atom_site_type_symbol
_atom_site_fract_x
_atom_site_fract_y
_atom_site_fract_z
Zn1	Zn	1.200048	0.321039	0.443886
Zn2	Zn	1.199953	0.455882	0.312621
Zn3	Zn	1.068780	0.321063	0.312629
Zn4	Zn	1.068746	0.455830	0.443840
O5	O	1.134382	0.388453	0.378244
O6	O	1.309883	0.338939	0.426489
O7	O	1.182527	0.438030	0.202775
O8	O	1.086248	0.208227	0.330063
O9	O	1.309812	0.438007	0.330049
O10	O	1.182690	0.208210	0.426497
O11	O	1.086155	0.338979	0.202781
O12	O	0.958929	0.338928	0.330019
O13	O	1.086189	0.437917	0.553693
O14	O	0.958903	0.437940	0.426419
O15	O	1.182656	0.338888	0.553727
O16	O	1.182493	0.568707	0.330004
O17	O	1.086096	0.568669	0.426411
C18	C	0.930434	0.388432	0.378215
C19	C	0.843184	0.388442	0.378222
C20	C	0.467403	0.336983	0.428569
C21	C	0.549384	0.336978	0.428560
C22	C	0.590335	0.388470	0.378264
C23	C	0.549302	0.439978	0.327978
C24	C	0.467323	0.439987	0.327991
C25	C	0.720172	0.439954	0.327953
C26	C	0.802157	0.439944	0.327938
C27	C	0.802233	0.336944	0.428522
C28	C	0.720254	0.336953	0.428535
C29	C	0.679226	0.388460	0.378248
C30	C	1.134302	0.597944	0.378219
C31	C	1.134339	0.687565	0.378234
C32	C	1.134468	1.015741	0.378328
C33	C	1.134429	0.924433	0.378304
C34	C	1.134403	0.851656	0.378281
C35	C	1.134366	0.760342	0.378258
C36	C	1.339126	0.388476	0.378273
C37	C	1.426376	0.388486	0.378285
C38	C	1.134429	0.388394	0.582988
C39	C	1.134449	0.388369	0.670238
C40	C	1.134477	1.178145	0.378296
C41	C	1.134500	1.088523	0.378341
C42	C	1.134380	0.388454	0.174296
C43	C	1.134511	0.388253	0.087047
C44	C	1.184682	0.336800	0.711247
C45	C	1.184691	0.336773	0.793228
C46	C	1.134472	0.388320	0.834198
C47	C	1.084234	0.439891	0.793183
C48	C	1.084221	0.439913	0.711204
C49	C	1.084265	0.439843	0.964053
C50	C	1.084279	0.439822	1.046038
C51	C	1.184736	0.336702	1.046077
C52	C	1.184723	0.336724	0.964098
C53	C	1.134486	0.388297	0.923089
H54	H	0.686913	0.295020	0.469488
Br55	Br	0.411641	0.509896	0.259756
Br56	Br	1.252904	0.266821	0.848880
Br57	Br	0.857912	0.267034	0.496761
H58	H	0.434067	0.295047	0.469522
H59	H	0.835497	0.481876	0.286984
Br60	Br	1.016115	0.509771	1.101640
Br61	Br	0.664492	0.509869	0.259718
Br62	Br	0.604878	0.509868	0.259723
Br63	Br	1.252847	0.266845	0.655653
Br64	Br	0.605061	0.267086	0.496812
Br65	Br	1.252886	0.266774	0.908495
Br66	Br	1.252918	0.266714	1.101730
Br67	Br	1.016072	0.509844	0.848784
H68	H	1.043344	0.481826	0.930666
H69	H	1.043308	0.481898	0.677815
