data_functionalizedCrystal
_audit_creation_method	'MofGen! by Chris Wilmer'
_symmetry_space_group_name_H-M	'P1'
_symmetry_Int_Tables_number	1
_symmetry_cell_setting	triclinic
loop_
_symmetry_equiv_pos_as_xyz
  x,y,z
_cell_length_a	8.597366
_cell_length_b	8.597304
_cell_length_c	15.455313
_cell_angle_alpha	85.021039
_cell_angle_beta	94.965048
_cell_angle_gamma	86.359176
loop_
_atom_site_label
_atom_site_type_symbol
_atom_site_fract_x
_atom_site_fract_y
_atom_site_fract_z
O1	O	2.079853	0.240410	0.065344
O2	O	1.626490	0.255110	0.030362
O3	O	1.860514	0.021070	0.065345
O4	O	1.845829	0.474450	0.030362
O5	O	1.847131	0.034397	0.207611
O6	O	1.613107	0.268437	0.172628
O7	O	2.066469	0.253737	0.207610
Cu8	Cu	1.838566	0.262304	0.203109
Cu9	Cu	1.854394	0.246544	0.034863
O10	O	1.832445	0.487777	0.172627
C11	C	1.561690	0.259453	0.097326
C12	C	1.388545	0.252520	0.084903
C13	C	1.851500	-0.030377	0.140646
C14	C	1.844562	-0.203528	0.153063
C15	C	2.131270	0.249394	0.140645
C16	C	2.304415	0.256327	0.153062
C17	C	1.841459	0.539224	0.097325
C18	C	1.848398	0.712376	0.084902
N19	N	1.827445	0.273389	0.321445
N20	N	1.865527	0.235447	-0.083471
C21	C	1.926902	0.173999	0.381701
C22	C	1.918507	0.182396	0.471254
C23	C	1.810660	0.290193	0.500549
C24	C	1.711191	0.389587	0.440285
C25	C	1.719580	0.381181	0.350734
C26	C	1.774448	0.326435	0.766715
C27	C	1.766069	0.334837	0.856273
C28	C	1.973384	0.127643	0.887236
C29	C	1.981770	0.119253	0.797681
C30	C	1.882296	0.218642	0.737426
N31	N	1.802079	0.298782	0.592086
N32	N	1.890870	0.210043	0.645891
H33	H	1.856985	-0.227156	0.017041
O34	O	1.677763	0.423147	0.708308
C35	C	1.580758	0.520067	0.753372
H36	H	1.638747	0.529278	0.821737
H37	H	1.562166	0.641612	0.716659
H38	H	1.462925	0.467687	0.758160
H39	H	1.678242	0.422624	0.880119
H40	H	1.328114	0.243943	0.017042
O41	O	1.376703	0.266347	0.234003
C42	C	1.485006	0.135975	0.256496
H43	H	1.520456	0.085778	0.194603
H44	H	1.593100	0.173892	0.294949
H45	H	1.429043	0.042835	0.298123
O46	O	1.606564	0.494258	0.468888
C47	C	1.620460	0.480345	0.560849
H48	H	1.741967	0.426055	0.586378
H49	H	1.602557	0.601220	0.584980
H50	H	1.528096	0.402514	0.585550
O51	O	1.834081	-0.275805	0.233968
C52	C	1.695299	-0.354792	0.234148
H53	H	1.655814	-0.380443	0.164819
H54	H	1.717870	-0.469494	0.277619
H55	H	1.599992	-0.278313	0.260153
H56	H	2.014729	0.086226	0.357856
O57	O	2.015300	0.085799	0.529669
C58	C	2.112275	-0.011158	0.484609
H59	H	2.121417	0.046813	0.416224
H60	H	2.233833	-0.029638	0.521294
H61	H	2.059994	-0.129049	0.479873
H62	H	2.069587	0.031477	0.773832
H63	H	2.054369	0.046724	0.936303
H64	H	1.638589	0.462113	0.301673
