data_functionalizedCrystal
_audit_creation_method	'MofGen! by Chris Wilmer'
_symmetry_space_group_name_H-M	'P1'
_symmetry_Int_Tables_number	1
_symmetry_cell_setting	triclinic
loop_
_symmetry_equiv_pos_as_xyz
  x,y,z
_cell_length_a	14.971486
_cell_length_b	9.616153
_cell_length_c	14.971486
_cell_angle_alpha	90.002466
_cell_angle_beta	83.614129
_cell_angle_gamma	90.001911
loop_
_atom_site_label
_atom_site_type_symbol
_atom_site_fract_x
_atom_site_fract_y
_atom_site_fract_z
O1	O	1.186948	0.115486	0.116559
O2	O	1.686948	0.615486	0.616559
O3	O	0.926548	0.115524	0.130518
O4	O	1.426548	0.615524	0.630518
O5	O	1.063727	0.115494	-0.006662
O6	O	1.563727	0.615494	0.493338
O7	O	1.049769	0.115516	0.253739
O8	O	1.549769	0.615516	0.753739
O9	O	1.063709	-0.115797	-0.006659
O10	O	1.563709	0.384203	0.493341
O11	O	0.926529	-0.115767	0.130521
O12	O	1.426529	0.384233	0.630521
O13	O	1.186929	-0.115805	0.116562
O14	O	1.686929	0.384195	0.616562
Zn15	Zn	1.056726	-0.152509	0.123542
Zn16	Zn	1.556726	0.347491	0.623542
Zn17	Zn	1.056751	0.152228	0.123538
Zn18	Zn	1.556751	0.652228	0.623538
O19	O	1.049750	-0.115775	0.253742
O20	O	1.549750	0.384225	0.753742
C21	C	0.893214	-0.000117	0.129895
C22	C	1.393214	0.499883	0.629895
C23	C	0.793917	-0.000102	0.128024
C24	C	1.293917	0.499898	0.628024
N25	N	1.056716	-0.360483	0.123544
N26	N	1.556716	0.139517	0.623544
C27	C	0.736691	-0.000098	0.208614
C28	C	1.236691	0.499902	0.708614
C29	C	0.643392	-0.000118	0.206850
C30	C	1.143392	0.499882	0.706850
C31	C	0.607320	-0.000134	0.124497
C32	C	1.107320	0.499866	0.624497
C33	C	0.664552	-0.000143	0.043902
C34	C	1.164552	0.499857	0.543902
C35	C	0.757850	-0.000132	0.045666
C36	C	1.257850	0.499868	0.545666
C37	C	0.470090	-0.000163	0.040231
C38	C	0.970090	0.499837	0.540231
C39	C	0.376786	-0.000171	0.038466
C40	C	0.876786	0.499829	0.538466
C41	C	0.355632	-0.000149	0.201415
C42	C	0.855632	0.499851	0.701415
C43	C	0.448930	-0.000138	0.203179
C44	C	0.948930	0.499862	0.703179
C45	C	0.506156	-0.000144	0.122584
C46	C	1.006156	0.499856	0.622584
C47	C	0.983114	-0.580837	0.196683
C48	C	1.483114	-0.080837	0.696683
C49	C	0.983272	-0.419669	0.196954
C50	C	1.483272	0.080331	0.696954
C51	C	1.150069	-0.418944	0.144030
C52	C	1.650069	0.081056	0.644030
C53	C	1.149667	-0.580162	0.144547
C54	C	1.649667	-0.080162	0.644547
C55	C	1.037898	-0.580399	0.029674
C56	C	1.537898	-0.080399	0.529674
C57	C	1.035747	-0.419172	0.030300
C58	C	1.535747	0.080828	0.530300
C59	C	1.220263	-0.000161	0.117185
C60	C	1.720263	0.499839	0.617185
C61	C	1.319561	-0.000166	0.119056
C62	C	1.819561	0.499834	0.619056
C63	C	1.063094	-0.000151	-0.039985
C64	C	1.563094	0.499849	0.460015
C65	C	1.061223	-0.000149	-0.139282
C66	C	1.561223	0.499851	0.360718
N67	N	1.056769	0.360202	0.123529
N68	N	1.556769	0.860202	0.623529
C69	C	1.141812	-0.000162	-0.196507
C70	C	1.641812	0.499838	0.303493
C71	C	1.140049	-0.000148	-0.289807
C72	C	1.640049	0.499852	0.210193
C73	C	1.057696	-0.000131	-0.325879
C74	C	1.557696	0.499869	0.174121
C75	C	0.977101	-0.000114	-0.268646
C76	C	1.477101	0.499886	0.231354
C77	C	0.978865	-0.000118	-0.175349
C78	C	1.478865	0.499882	0.324651
C79	C	0.973430	-0.000108	-0.463109
C80	C	1.473430	0.499892	0.036891
C81	C	0.971665	-0.000107	-0.556413
C82	C	1.471665	0.499893	-0.056413
C83	C	1.134614	-0.000138	-0.577567
C84	C	1.634614	0.499862	-0.077567
C85	C	1.136378	-0.000142	-0.484269
C86	C	1.636378	0.499858	0.015731
C87	C	1.055782	-0.000128	-0.427043
C88	C	1.555782	0.499872	0.072957
C89	C	1.050384	-0.000127	0.287065
C90	C	1.550384	0.499873	0.787065
C91	C	1.052254	-0.000119	0.386362
C92	C	1.552254	0.499881	0.886362
H93	H	0.766054	-0.000084	0.275675
H94	H	1.266054	0.499916	0.775675
Cl95	Cl	1.241366	-0.000168	-0.361744
Cl96	Cl	1.741366	0.499832	0.138256
Cl97	Cl	0.571455	-0.000104	0.308168
Cl98	Cl	1.071455	0.499896	0.808168
H99	H	0.913507	-0.619639	0.184661
H100	H	1.413507	-0.119639	0.684661
H101	H	0.913240	-0.000107	-0.128756
H102	H	1.413240	0.499893	0.371244
H103	H	1.091610	-0.618527	-0.024767
H104	H	1.591610	-0.118527	0.475233
Cl105	Cl	1.239909	-0.000157	-0.438922
Cl106	Cl	1.739909	0.499843	0.061078
H107	H	1.085896	-0.378888	-0.026695
H108	H	1.585896	0.121112	0.473305
H109	H	0.913885	-0.380146	0.184734
H110	H	1.413885	0.119854	0.684734
Cl111	Cl	0.873570	-0.000075	-0.313995
Cl112	Cl	1.373570	0.499925	0.186005
Cl113	Cl	1.236713	-0.359758	0.063964
Cl114	Cl	1.736713	0.140242	0.563964
Cl115	Cl	0.494276	-0.000103	0.306711
Cl116	Cl	0.994276	0.499897	0.806711
H117	H	0.309033	-0.000150	0.267039
H118	H	0.809033	0.499850	0.767039
Cl119	Cl	0.829791	-0.000144	-0.055651
Cl120	Cl	1.329791	0.499856	0.444349
Cl121	Cl	0.935063	-0.643232	-0.000686
Cl122	Cl	1.435063	-0.143232	0.499314
H123	H	0.995008	-0.621332	0.265937
H124	H	1.495008	-0.121332	0.765937
H125	H	1.167071	-0.378551	0.211703
H126	H	1.667071	0.121449	0.711703
Cl127	Cl	1.245348	-0.000198	-0.151169
Cl128	Cl	1.745348	0.499802	0.348831
Cl129	Cl	1.001848	-0.360089	0.304495
Cl130	Cl	1.501848	0.139911	0.804495
Cl131	Cl	0.872107	-0.000089	-0.391168
Cl132	Cl	1.372107	0.499911	0.108832
Cl133	Cl	1.235935	-0.000148	-0.649508
Cl134	Cl	1.735935	0.499852	-0.149508
H135	H	1.166280	-0.617747	0.212998
H136	H	1.666280	-0.117747	0.712998
Cl137	Cl	0.331439	-0.000237	-0.065065
Cl138	Cl	0.831439	0.499763	0.434935
H139	H	0.516682	-0.000170	-0.025399
H140	H	1.016682	0.499830	0.474601
H141	H	1.206192	-0.619162	0.093371
H142	H	1.706192	-0.119162	0.593371
H143	H	0.635175	-0.000176	-0.023152
H144	H	1.135175	0.499824	0.476848
Cl145	Cl	0.929722	-0.360183	0.006297
Cl146	Cl	1.429722	0.139817	0.506297
H147	H	0.904606	-0.000115	-0.585780
H148	H	1.404606	0.499885	-0.085780
