data_functionalizedCrystal
_audit_creation_method	'MofGen! by Chris Wilmer'
_symmetry_space_group_name_H-M	'P1'
_symmetry_Int_Tables_number	1
_symmetry_cell_setting	triclinic
loop_
_symmetry_equiv_pos_as_xyz
  x,y,z
_cell_length_a	17.000383
_cell_length_b	17.019370
_cell_length_c	16.776229
_cell_angle_alpha	93.871574
_cell_angle_beta	89.989541
_cell_angle_gamma	79.506877
loop_
_atom_site_label
_atom_site_type_symbol
_atom_site_fract_x
_atom_site_fract_y
_atom_site_fract_z
O1	O	1.056070	0.028438	-0.064392
O2	O	1.389404	0.361771	0.268942
O3	O	1.722737	0.695105	0.602275
O4	O	0.824306	0.057068	-0.062417
O5	O	1.157639	0.390401	0.270917
O6	O	1.490972	0.723734	0.604250
O7	O	0.946654	-0.072526	-0.071309
O8	O	1.279988	0.260807	0.262024
O9	O	1.613321	0.594140	0.595357
O10	O	0.933722	0.158032	-0.055499
O11	O	1.267055	0.491365	0.277834
O12	O	1.600388	0.824699	0.611168
O13	O	0.946638	-0.072533	0.061267
O14	O	1.279971	0.260801	0.394600
O15	O	1.613305	0.594134	0.727934
O16	O	0.824289	0.057061	0.070159
O17	O	1.157623	0.390395	0.403493
O18	O	1.490956	0.723728	0.736826
O19	O	1.056054	0.028432	0.068185
O20	O	1.389388	0.361765	0.401518
O21	O	1.722721	0.695098	0.734851
Zn22	Zn	0.940169	0.042746	0.090221
Zn23	Zn	1.273503	0.376079	0.423555
Zn24	Zn	1.606836	0.709412	0.756888
Zn25	Zn	0.940191	0.042754	-0.084453
Zn26	Zn	1.273524	0.376087	0.248880
Zn27	Zn	1.606857	0.709421	0.582213
O28	O	0.933706	0.158026	0.077077
O29	O	1.267039	0.491359	0.410410
O30	O	1.600372	0.824692	0.743744
C31	C	0.794642	0.058602	0.003978
C32	C	1.127975	0.391935	0.337312
C33	C	1.461309	0.725269	0.670645
C34	C	0.706278	0.063174	0.004296
C35	C	1.039612	0.396507	0.337629
C36	C	1.372945	0.729841	0.670963
C37	C	0.206028	0.092697	0.006291
C38	C	0.539361	0.426031	0.339624
C39	C	0.872694	0.759364	0.672957
C40	C	0.289056	0.088395	0.005996
C41	C	0.622389	0.421728	0.339330
C42	C	0.955722	0.755062	0.672663
C43	C	0.340136	0.013720	0.000882
C44	C	0.673469	0.347053	0.334215
C45	C	1.006802	0.680387	0.667548
C46	C	0.308184	-0.056657	-0.003947
C47	C	0.641518	0.276676	0.329386
C48	C	0.974851	0.610009	0.662720
C49	C	0.225158	-0.052354	-0.003658
C50	C	0.558491	0.280979	0.329675
C51	C	0.891824	0.614312	0.663008
C52	C	0.591301	-0.002900	-0.000244
C53	C	0.924634	0.330433	0.333089
C54	C	1.257967	0.663766	0.666423
C55	C	0.674332	-0.007198	-0.000530
C56	C	1.007665	0.326135	0.332803
C57	C	1.340999	0.659469	0.666137
C58	C	0.655198	0.137855	0.009412
C59	C	0.988531	0.471188	0.342745
C60	C	1.321864	0.804522	0.676079
C61	C	0.572171	0.142151	0.009705
C62	C	0.905504	0.475485	0.343038
C63	C	1.238837	0.808818	0.676372
C64	C	0.540226	0.071774	0.004872
C65	C	0.873560	0.405107	0.338206
C66	C	1.206893	0.738441	0.671539
C67	C	0.425004	0.009321	0.000583
C68	C	0.758337	0.342654	0.333917
C69	C	1.091670	0.675987	0.667250
C70	C	0.455360	0.076174	0.005165
C71	C	0.788693	0.409508	0.338498
C72	C	1.122026	0.742841	0.671832
C73	C	0.946156	-0.101884	-0.007036
C74	C	1.279489	0.231449	0.326298
C75	C	1.612823	0.564783	0.659631
C76	C	0.944686	-0.189351	-0.013038
C77	C	1.278019	0.143982	0.320295
C78	C	1.611352	0.477316	0.653628
C79	C	0.943984	-0.230454	0.056405
C80	C	1.277318	0.102880	0.389739
C81	C	1.610651	0.436213	0.723072
C82	C	0.942608	-0.312639	0.050758
C83	C	1.275941	0.020694	0.384091
C84	C	1.609275	0.354028	0.717425
C85	C	0.941927	-0.353719	-0.024333
C86	C	1.275261	-0.020386	0.309000
C87	C	1.608594	0.312947	0.642333
C88	C	0.942631	-0.312612	-0.093782
C89	C	1.275965	0.020722	0.239551
C90	C	1.609298	0.354055	0.572884
C91	C	0.944013	-0.230429	-0.088134
C92	C	1.277347	0.102905	0.245199
C93	C	1.610680	0.436238	0.578532
C94	C	0.937760	-0.601859	-0.045002
C95	C	1.271093	-0.268526	0.288332
C96	C	1.604427	0.064808	0.621665
C97	C	0.936376	-0.684047	-0.050644
C98	C	1.269709	-0.350714	0.282689
C99	C	1.603042	-0.017380	0.616022
C100	C	0.936354	-0.684069	0.093897
C101	C	1.269687	-0.350736	0.427230
C102	C	1.603020	-0.017402	0.760563
C103	C	0.937731	-0.601884	0.099538
C104	C	1.271064	-0.268550	0.432871
C105	C	1.604398	0.064783	0.766205
C106	C	0.938439	-0.560784	0.030089
C107	C	1.271772	-0.227451	0.363422
C108	C	1.605106	0.105883	0.696756
C109	C	0.940518	-0.437726	-0.030107
C110	C	1.273851	-0.104392	0.303226
C111	C	1.607185	0.228941	0.636559
C112	C	0.939854	-0.476780	0.035864
C113	C	1.273188	-0.143447	0.369197
C114	C	1.606521	0.189886	0.702530
C115	C	1.085718	0.026897	0.001788
C116	C	1.419051	0.360231	0.335121
C117	C	1.752384	0.693564	0.668455
C118	C	1.174081	0.022325	0.001465
C119	C	1.507415	0.355659	0.334798
C120	C	1.840748	0.688992	0.668132
C121	C	0.934204	0.187384	0.012802
C122	C	1.267537	0.520717	0.346135
C123	C	1.600871	0.854050	0.679468
C124	C	0.935674	0.274850	0.018799
C125	C	1.269007	0.608184	0.352133
C126	C	1.602341	0.941517	0.685466
N127	N	0.940160	0.042739	0.209432
N128	N	1.273494	0.376072	0.542765
N129	N	1.606827	0.709406	0.876099
N130	N	0.940206	0.042754	-0.203665
N131	N	1.273539	0.376087	0.129669
N132	N	1.606872	0.709420	0.463002
C133	C	0.994353	-0.014624	0.247213
C134	C	1.327686	0.318709	0.580546
C135	C	1.661020	0.652042	0.913880
C136	C	0.994357	-0.014625	0.330665
C137	C	1.327691	0.318708	0.663998
C138	C	1.661024	0.652041	0.997332
C139	C	0.940172	0.042741	0.376335
C140	C	1.273506	0.376075	0.709668
C141	C	1.606839	0.709408	1.043002
C142	C	0.885974	0.100107	0.338549
C143	C	1.219308	0.433441	0.671882
C144	C	1.552641	0.766774	1.005215
C145	C	0.885967	0.100104	0.255098
C146	C	1.219300	0.433438	0.588431
C147	C	1.552633	0.766771	0.921764
C148	C	0.886003	0.100121	0.675097
C149	C	1.219336	0.433454	1.008430
C150	C	1.552670	0.766788	1.341763
C151	C	0.886016	0.100121	0.758553
C152	C	1.219350	0.433455	1.091887
C153	C	1.552683	0.766788	1.425220
C154	C	0.994394	-0.014609	0.750664
C155	C	1.327727	0.318725	1.083997
C156	C	1.661060	0.652058	1.417331
C157	C	0.994386	-0.014612	0.667213
C158	C	1.327719	0.318722	1.000547
C159	C	1.661053	0.652055	1.333880
C160	C	0.940185	0.042751	0.629434
C161	C	1.273519	0.376085	0.962767
C162	C	1.606852	0.709418	1.296100
C163	C	0.940180	0.042751	0.538945
C164	C	1.273514	0.376084	0.872279
C165	C	1.606847	0.709418	1.205612
C166	C	0.940181	0.042746	0.466822
C167	C	1.273514	0.376079	0.800156
C168	C	1.606847	0.709413	1.133489
H169	H	0.199149	-0.109659	-0.007590
H170	H	0.532482	0.223675	0.325744
H171	H	0.865816	0.557008	0.659077
H172	H	0.938302	-0.568445	0.160685
H173	H	1.271636	-0.235112	0.494018
H174	H	1.604969	0.098222	0.827352
H175	H	0.841889	0.146838	0.795737
H176	H	1.175223	0.480171	1.129070
H177	H	1.508556	0.813504	1.462404
H178	H	0.939962	-0.471182	-0.091247
H179	H	1.273295	-0.137849	0.242086
H180	H	1.606629	0.195485	0.575419
Br181	Br	1.067900	-0.092478	0.185241
Br182	Br	1.401233	0.240855	0.518574
Br183	Br	1.734567	0.574188	0.851908
H184	H	0.841837	0.146814	0.224338
H185	H	1.175170	0.480148	0.557671
H186	H	1.508503	0.813481	0.891004
Br187	Br	0.136712	0.194047	0.013242
Br188	Br	0.470045	0.527380	0.346575
Br189	Br	0.803379	0.860714	0.679909
H190	H	0.841852	0.146814	0.375738
H191	H	1.175185	0.480147	0.709071
H192	H	1.508518	0.813481	1.042404
H193	H	0.841872	0.146829	0.644343
H194	H	1.175206	0.480163	0.977677
H195	H	1.508539	0.813496	1.311010
H196	H	0.942082	-0.346067	-0.154923
H197	H	1.275415	-0.012733	0.178410
H198	H	1.608749	0.320600	0.511743
H199	H	0.349780	-0.117459	-0.008116
H200	H	0.683114	0.215874	0.325217
H201	H	1.016447	0.549208	0.658550
Br202	Br	1.067953	-0.092462	0.801940
Br203	Br	1.401286	0.240871	1.135273
Br204	Br	1.734619	0.574205	1.468606
Br205	Br	0.547958	-0.098413	-0.006826
Br206	Br	0.881291	0.234921	0.326507
Br207	Br	1.214625	0.568254	0.659840
H208	H	0.530586	0.202960	0.013868
H209	H	0.863919	0.536293	0.347201
H210	H	1.197252	0.869626	0.680534
H211	H	0.935813	-0.717491	-0.111796
H212	H	1.269147	-0.384157	0.221537
H213	H	1.602480	-0.050824	0.554871
Br214	Br	0.698555	0.233362	0.015966
Br215	Br	1.031888	0.566695	0.349299
Br216	Br	1.365222	0.900028	0.682633
Br217	Br	0.935393	-0.739851	0.188143
Br218	Br	1.268726	-0.406518	0.521477
Br219	Br	1.602059	-0.073184	0.854810
Br220	Br	1.067902	-0.092479	0.381942
Br221	Br	1.401236	0.240854	0.715275
Br222	Br	1.734569	0.574188	1.048608
Br223	Br	0.743656	-0.108549	-0.007470
Br224	Br	1.076989	0.224784	0.325863
Br225	Br	1.410323	0.558117	0.659196
Br226	Br	0.944973	-0.174647	-0.182383
Br227	Br	1.278306	0.158686	0.150950
Br228	Br	1.611640	0.492020	0.484283
Br229	Br	0.332408	0.183905	0.012539
Br230	Br	0.665741	0.517238	0.345872
Br231	Br	0.999075	0.850571	0.679205
Br232	Br	0.944901	-0.174708	0.158320
Br233	Br	1.278235	0.158625	0.491654
Br234	Br	1.611568	0.491958	0.824987
Br235	Br	0.938719	-0.546091	-0.139255
Br236	Br	1.272053	-0.212757	0.194079
Br237	Br	1.605386	0.120576	0.527412
H238	H	0.413767	0.136974	0.009326
H239	H	0.747100	0.470307	0.342659
H240	H	1.080433	0.803641	0.675992
H241	H	0.466602	-0.051480	-0.003578
H242	H	0.799936	0.281854	0.329755
H243	H	1.133269	0.615187	0.663088
Br244	Br	1.067929	-0.092464	0.605235
Br245	Br	1.401262	0.240869	0.938568
Br246	Br	1.734595	0.574202	1.271902
H247	H	0.942040	-0.346102	0.107307
H248	H	1.275374	-0.012768	0.440640
H249	H	1.608707	0.320565	0.773973
H250	H	0.940413	-0.443330	0.097003
H251	H	1.273746	-0.109997	0.430336
H252	H	1.607079	0.223337	0.763669
