data_functionalizedCrystal
_audit_creation_method	'MofGen! by Chris Wilmer'
_symmetry_space_group_name_H-M	'P1'
_symmetry_Int_Tables_number	1
_symmetry_cell_setting	triclinic
loop_
_symmetry_equiv_pos_as_xyz
  x,y,z
_cell_length_a	18.101398
_cell_length_b	18.101397
_cell_length_c	16.959447
_cell_angle_alpha	89.966326
_cell_angle_beta	89.989209
_cell_angle_gamma	90.018618
loop_
_atom_site_label
_atom_site_type_symbol
_atom_site_fract_x
_atom_site_fract_y
_atom_site_fract_z
Zn1	Zn	1.132150	-0.294852	-0.446816
Zn2	Zn	1.132076	-0.418704	-0.314630
Zn3	Zn	1.008316	-0.294877	-0.314661
Zn4	Zn	1.008282	-0.418652	-0.446776
O5	O	1.070206	-0.356771	-0.380721
O6	O	1.235773	-0.311292	-0.429284
O7	O	1.115643	-0.402311	-0.204023
O8	O	1.024788	-0.191241	-0.332222
O9	O	1.235719	-0.402286	-0.332168
O10	O	1.115768	-0.191222	-0.429315
O11	O	1.024717	-0.311336	-0.204046
O12	O	0.904679	-0.311285	-0.332184
O13	O	1.024730	-0.402196	-0.557392
O14	O	0.904654	-0.402222	-0.429248
O15	O	1.115735	-0.311241	-0.557422
O16	O	1.115610	-0.522330	-0.332129
O17	O	1.024659	-0.522292	-0.429217
C18	C	0.877796	-0.356751	-0.380715
C19	C	0.795482	-0.356760	-0.380732
C20	C	0.644773	-0.356774	-0.380730
C21	C	0.613429	-0.414077	-0.441706
C22	C	0.527810	-0.414309	-0.441525
C23	C	0.496391	-0.356787	-0.380731
C24	C	0.527452	-0.377618	-0.297326
C25	C	0.613097	-0.378026	-0.297679
C26	C	0.613236	-0.278498	-0.402431
C27	C	0.527586	-0.278927	-0.404268
C28	C	0.412531	-0.356794	-0.380725
C29	C	0.728633	-0.356769	-0.380730
C30	C	1.070143	-0.549182	-0.380682
C31	C	1.070183	-0.631496	-0.380692
C32	C	1.070278	-0.930587	-0.380765
C33	C	1.127342	-0.899255	-0.319516
C34	C	1.127540	-0.813637	-0.319675
C35	C	1.070231	-0.782204	-0.380728
C36	C	1.091382	-0.813208	-0.464043
C37	C	1.091824	-0.898853	-0.463710
C38	C	0.991910	-0.899094	-0.359419
C39	C	0.992298	-0.813445	-0.357559
C40	C	1.070203	-0.698345	-0.380713
C41	C	1.070308	-1.014446	-0.380786
C42	C	1.263368	-0.356792	-0.380727
C43	C	1.345682	-0.356801	-0.380729
C44	C	1.070237	-0.356710	-0.586889
C45	C	1.070250	-0.356684	-0.674746
C46	C	1.070290	-0.163609	-0.380777
C47	C	1.070326	-0.081295	-0.380800
C48	C	1.022957	-0.403962	-1.046209
C49	C	1.117721	-0.309249	-1.046234
C50	C	1.117701	-0.309265	-0.963688
C51	C	1.070309	-0.356631	-0.922399
C52	C	1.022937	-0.403981	-0.963655
C53	C	1.165078	-0.261921	-0.922426
C54	C	1.165060	-0.261936	-0.839875
C55	C	1.117664	-0.309298	-0.798584
C56	C	1.070289	-0.356649	-0.839845
C57	C	1.022898	-0.404015	-0.798556
C58	C	0.975519	-0.451363	-0.839816
C59	C	0.975541	-0.451343	-0.922364
C60	C	1.117642	-0.309318	-0.716035
C61	C	1.022878	-0.404034	-0.716002
C62	C	1.070218	-0.356779	-0.175355
C63	C	1.070348	-0.356596	-0.087498
H64	H	0.633508	-0.235808	-0.358024
C65	C	0.642432	-0.252787	-0.483208
H66	H	0.622740	-0.205448	-0.495179
H67	H	0.627754	-0.287030	-0.522636
H68	H	0.694821	-0.250013	-0.481639
H69	H	1.185590	-0.793094	-0.333797
C70	C	1.036959	-0.785697	-0.527354
H71	H	1.000769	-0.754982	-0.503481
H72	H	1.013448	-0.826816	-0.551452
H73	H	1.063086	-0.758305	-0.566182
C74	C	0.640057	-0.455309	-0.272911
H75	H	0.598668	-0.486161	-0.262733
H76	H	0.669280	-0.451357	-0.226586
H77	H	0.668845	-0.476094	-0.314148
H78	H	1.114308	-0.792678	-0.257898
H79	H	0.936970	-0.489894	-0.955966
H80	H	0.976349	-0.793189	-0.296246
C81	C	0.970843	-0.456043	-1.091586
H82	H	0.942614	-0.484250	-1.055170
H83	H	0.999162	-0.488306	-1.123778
H84	H	0.938590	-0.427698	-1.123797
H85	H	1.185075	-0.920724	-0.333476
H86	H	0.634928	-0.471749	-0.427483
C87	C	1.167927	-0.784213	-0.488861
H88	H	1.180243	-0.803295	-0.539351
H89	H	1.203832	-0.799685	-0.451501
H90	H	1.166931	-0.731779	-0.491044
H91	H	0.507101	-0.337161	-0.250647
H92	H	0.947494	-0.792056	-0.398903
H93	H	0.505984	-0.434202	-0.278673
C94	C	0.641112	-0.324066	-0.234192
H95	H	0.600149	-0.301998	-0.208294
H96	H	0.670286	-0.286722	-0.258303
H97	H	0.670175	-0.350195	-0.196802
H98	H	1.156309	-0.270691	-1.079857
C99	C	0.500156	-0.257689	-0.487182
H100	H	0.469815	-0.296105	-0.507375
H101	H	0.541321	-0.250611	-0.521106
H102	H	0.472389	-0.213251	-0.484209
C103	C	0.934469	-0.926467	-0.419674
H104	H	0.887228	-0.907251	-0.406471
H105	H	0.932762	-0.978912	-0.418804
H106	H	0.947978	-0.910113	-0.470925
C107	C	1.217194	-0.209815	-0.967843
H108	H	1.210409	-0.216577	-1.022915
H109	H	1.266948	-0.220652	-0.954318
H110	H	1.206361	-0.160059	-0.954327
H111	H	1.149107	-0.918773	-0.481791
C112	C	0.965916	-0.928350	-0.278768
H113	H	1.002620	-0.960047	-0.257357
H114	H	0.921136	-0.955053	-0.285180
H115	H	0.957976	-0.887993	-0.244002
C116	C	0.970756	-0.456148	-0.670590
H117	H	0.942552	-0.484347	-0.706987
H118	H	0.938492	-0.427834	-0.638391
H119	H	0.999078	-0.488428	-0.638384
C120	C	1.217168	-0.209850	-0.794496
H121	H	1.245391	-0.181635	-0.830910
H122	H	1.249415	-0.238185	-0.762276
H123	H	1.188837	-0.177583	-0.762313
H124	H	0.506199	-0.233979	-0.363130
C125	C	1.038125	-0.926852	-0.527467
H126	H	1.016141	-0.885882	-0.553461
H127	H	1.000700	-0.956060	-0.503552
H128	H	1.064418	-0.955878	-0.564736
C129	C	0.641274	-0.396730	-0.525499
H130	H	0.672269	-0.354389	-0.524050
H131	H	0.600305	-0.387407	-0.559051
H132	H	0.668444	-0.437693	-0.545086
C133	C	0.923407	-0.503481	-0.794396
H134	H	0.895200	-0.531686	-0.830787
H135	H	0.891144	-0.475170	-0.762191
H136	H	0.951738	-0.535756	-0.762194
H137	H	0.507300	-0.472315	-0.427128
C138	C	1.109700	-0.927154	-0.235809
H139	H	1.144766	-0.907618	-0.199733
H140	H	1.111905	-0.979578	-0.234894
H141	H	1.061541	-0.911465	-0.221153
C142	C	0.499436	-0.396754	-0.525053
H143	H	0.540252	-0.389420	-0.559404
H144	H	0.470194	-0.353208	-0.523629
H145	H	0.470367	-0.436816	-0.543667
C146	C	1.169748	-0.257239	-0.670653
H147	H	1.197973	-0.229025	-0.707066
H148	H	1.201993	-0.285575	-0.638432
H149	H	1.141417	-0.224971	-0.638470
