data_functionalizedCrystal
_audit_creation_method	'MofGen! by Chris Wilmer'
_symmetry_space_group_name_H-M	'P1'
_symmetry_Int_Tables_number	1
_symmetry_cell_setting	triclinic
loop_
_symmetry_equiv_pos_as_xyz
  x,y,z
_cell_length_a	16.120807
_cell_length_b	18.215407
_cell_length_c	18.215399
_cell_angle_alpha	89.983176
_cell_angle_beta	92.922316
_cell_angle_gamma	87.099733
loop_
_atom_site_label
_atom_site_type_symbol
_atom_site_fract_x
_atom_site_fract_y
_atom_site_fract_z
Zn1	Zn	0.331888	1.110314	-0.401292
Zn2	Zn	0.665222	1.443647	-0.067959
Zn3	Zn	0.998555	1.776980	0.265375
Zn4	Zn	0.471317	1.104038	-0.271998
Zn5	Zn	0.804650	1.437371	0.061335
Zn6	Zn	1.137983	1.770704	0.394668
Zn7	Zn	0.331922	0.987251	-0.278238
Zn8	Zn	0.665255	1.320584	0.055095
Zn9	Zn	0.998588	1.653918	0.388429
Zn10	Zn	0.471264	0.981023	-0.395026
Zn11	Zn	0.804598	1.314357	-0.061692
Zn12	Zn	1.137931	1.647690	0.271641
O13	O	0.401598	1.045656	-0.336639
O14	O	0.734931	1.378990	-0.003305
O15	O	1.068264	1.712323	0.330028
O16	O	0.350392	1.212465	-0.384152
O17	O	0.683725	1.545798	-0.050819
O18	O	1.017058	1.879132	0.282514
O19	O	0.452861	1.088525	-0.169840
O20	O	0.786195	1.421859	0.163493
O21	O	1.119528	1.755192	0.496827
O22	O	0.215251	1.008808	-0.299795
O23	O	0.548584	1.342142	0.033538
O24	O	0.881917	1.675475	0.366871
O25	O	0.452829	1.207854	-0.289161
O26	O	0.786162	1.541187	0.044173
O27	O	1.119496	1.874521	0.377506
O28	O	0.215226	1.099222	-0.390203
O29	O	0.548560	1.432555	-0.056869
O30	O	0.881893	1.765889	0.276464
O31	O	0.350448	1.002723	-0.174424
O32	O	0.683782	1.336056	0.158909
O33	O	1.017115	1.669389	0.492242
O34	O	0.350398	0.883441	-0.293719
O35	O	0.683731	1.216774	0.039614
O36	O	1.017064	1.550108	0.372948
O37	O	0.452740	0.998194	-0.498843
O38	O	0.786073	1.331528	-0.165509
O39	O	1.119407	1.664861	0.167824
O40	O	0.452772	0.878866	-0.379522
O41	O	0.786105	1.212199	-0.046189
O42	O	1.119439	1.545532	0.287144
O43	O	0.350341	1.093183	-0.503447
O44	O	0.683674	1.426517	-0.170113
O45	O	1.017008	1.759850	0.163220
O46	O	0.587976	1.082487	-0.283084
O47	O	0.921309	1.415820	0.050249
O48	O	1.254643	1.749153	0.383582
O49	O	0.587938	0.992109	-0.373472
O50	O	0.921271	1.325442	-0.040138
O51	O	1.254604	1.658775	0.293195
C52	C	0.401583	0.854451	-0.336618
C53	C	0.734917	1.187784	-0.003285
C54	C	1.068250	1.521117	0.330049
C55	C	0.401597	0.772651	-0.336626
C56	C	0.734931	1.105985	-0.003292
C57	C	1.068264	1.439318	0.330041
C58	C	0.184142	1.055410	-0.346394
C59	C	0.517476	1.388743	-0.013061
C60	C	0.850809	1.722077	0.320273
C61	C	0.091476	1.059566	-0.350551
C62	C	0.424809	1.392900	-0.017218
C63	C	0.758142	1.726233	0.316115
C64	C	0.454988	0.582090	-0.381241
C65	C	0.788321	0.915424	-0.047907
C66	C	1.121654	1.248757	0.285426
C67	C	0.454990	0.505232	-0.381250
C68	C	0.788324	0.838565	-0.047917
C69	C	1.121657	1.171898	0.285417
C70	C	0.348223	0.509974	-0.292052
C71	C	0.681556	0.843307	0.041282
C72	C	1.014889	1.176640	0.374615
C73	C	0.348217	0.586831	-0.292047
C74	C	0.681550	0.920165	0.041286
C75	C	1.014883	1.253498	0.374620
C76	C	0.401604	0.622887	-0.336640
C77	C	0.734937	0.956221	-0.003307
C78	C	1.068270	1.289554	0.330026
C79	C	0.401613	0.469171	-0.336654
C80	C	0.734946	0.802504	-0.003321
C81	C	1.068279	1.135838	0.330013
C82	C	0.401615	0.385837	-0.336663
C83	C	0.734948	0.719171	-0.003330
C84	C	1.068282	1.052504	0.330003
C85	C	0.401600	0.706227	-0.336632
C86	C	0.734934	1.039560	-0.003299
C87	C	1.068267	1.372893	0.330035
C88	C	-0.119463	1.024279	-0.315235
C89	C	0.213870	1.357612	0.018098
C90	C	0.547203	1.690946	0.351431
C91	C	-0.078182	1.067165	-0.358125
C92	C	0.255151	1.400499	-0.024792
C93	C	0.588485	1.733832	0.308542
C94	C	0.016224	1.062936	-0.353910
C95	C	0.349558	1.396269	-0.020576
C96	C	0.682891	1.729603	0.312757
C97	C	-0.213878	1.028507	-0.319450
C98	C	0.119455	1.361841	0.013884
C99	C	0.452789	1.695174	0.347217
C100	C	0.618207	1.035961	-0.326937
C101	C	0.951541	1.369294	0.006396
C102	C	1.284874	1.702627	0.339730
C103	C	0.710874	1.031880	-0.322811
C104	C	1.044207	1.365214	0.010522
C105	C	1.377540	1.698547	0.343855
C106	C	0.401531	1.045694	-0.528594
C107	C	0.734864	1.379027	-0.195261
C108	C	1.068198	1.712361	0.138072
C109	C	0.401503	1.045710	-0.610395
C110	C	0.734836	1.379044	-0.277061
C111	C	1.068169	1.712377	0.056272
C112	C	0.401613	1.237609	-0.336659
C113	C	0.734946	1.570942	-0.003326
C114	C	1.068279	1.904275	0.330007
C115	C	0.401619	1.319407	-0.336668
C116	C	0.734952	1.652741	-0.003335
C117	C	1.068286	1.986074	0.329998
C118	C	0.348140	1.001074	-0.800978
C119	C	0.681474	1.334408	-0.467645
C120	C	1.014807	1.667741	-0.134312
C121	C	0.348123	1.001088	-0.877838
C122	C	0.681457	1.334421	-0.544504
C123	C	1.014790	1.667754	-0.211171
C124	C	0.454766	1.090439	-0.873053
C125	C	0.788099	1.423772	-0.539720
C126	C	1.121432	1.757105	-0.206387
C127	C	0.454786	1.090421	-0.796195
C128	C	0.788119	1.423754	-0.462862
C129	C	1.121453	1.757087	-0.129529
C130	C	0.401469	1.045740	-0.760160
C131	C	0.734802	1.379073	-0.426826
C132	C	1.068135	1.712406	-0.093493
C133	C	0.401431	1.045771	-0.913878
C134	C	0.734765	1.379105	-0.580544
C135	C	1.068098	1.712438	-0.247211
C136	C	0.401414	1.045786	-0.997212
C137	C	0.734747	1.379120	-0.663879
C138	C	1.068080	1.712453	-0.330545
C139	C	0.401487	1.045724	-0.676820
C140	C	0.734821	1.379057	-0.343487
C141	C	1.068154	1.712390	-0.010153
C142	C	0.401604	1.045664	-0.145432
C143	C	0.734937	1.378997	0.187901
C144	C	1.068271	1.712331	0.521235
C145	C	0.401397	1.045801	-0.063643
C146	C	0.734731	1.379134	0.269691
C147	C	1.068064	1.712467	0.603024
H148	H	0.498457	0.611445	-0.417553
H149	H	0.831790	0.944778	-0.084220
H150	H	1.165123	1.278112	0.249113
H151	H	0.498216	1.126794	-0.762960
H152	H	0.831549	1.460128	-0.429626
H153	H	1.164882	1.793461	-0.096293
O154	O	0.290662	0.471069	-0.243950
O155	O	0.623995	0.804403	0.089383
O156	O	0.957328	1.137736	0.422716
H157	H	0.225240	0.488736	-0.259590
H158	H	0.558573	0.822069	0.073743
H159	H	0.891906	1.155402	0.407076
O160	O	0.290636	0.630845	-0.243941
O161	O	0.623970	0.964178	0.089392
O162	O	0.957303	1.297511	0.422725
H163	H	0.327902	0.664186	-0.204784
H164	H	0.661235	0.997520	0.128549
H165	H	0.994569	1.330853	0.461882
H166	H	0.498459	0.472018	-0.417569
H167	H	0.831793	0.805351	-0.084236
H168	H	1.165126	1.138684	0.249097
H169	H	-0.113741	1.107059	-0.398009
H170	H	0.219592	1.440392	-0.064676
H171	H	0.552925	1.773725	0.268657
O172	O	-0.072372	0.971451	-0.262390
O173	O	0.260961	1.304785	0.070944
O174	O	0.594295	1.638118	0.404277
H175	H	-0.004538	0.976392	-0.267323
H176	H	0.328795	1.309725	0.066011
H177	H	0.662129	1.643059	0.399344
O178	O	0.290635	0.952884	-0.762112
O179	O	0.623969	1.286217	-0.428779
O180	O	0.957302	1.619550	-0.095445
H181	H	0.327954	0.913764	-0.725410
H182	H	0.661287	1.247098	-0.392077
H183	H	0.994620	1.580431	-0.058743
H184	H	0.304699	0.964716	-0.911069
H185	H	0.638032	1.298049	-0.577736
H186	H	0.971366	1.631383	-0.244402
O187	O	0.512263	1.138637	-0.911919
O188	O	0.845597	1.471970	-0.578586
O189	O	1.178930	1.805303	-0.245253
H190	H	0.503284	1.131153	-0.972222
H191	H	0.836618	1.464486	-0.638889
H192	H	1.169951	1.797819	-0.305555
