data_functionalizedCrystal
_audit_creation_method	'MofGen! by Chris Wilmer'
_symmetry_space_group_name_H-M	'P1'
_symmetry_Int_Tables_number	1
_symmetry_cell_setting	triclinic
loop_
_symmetry_equiv_pos_as_xyz
  x,y,z
_cell_length_a	17.052862
_cell_length_b	23.096457
_cell_length_c	17.052862
_cell_angle_alpha	89.997784
_cell_angle_beta	61.493325
_cell_angle_gamma	70.263778
loop_
_atom_site_label
_atom_site_type_symbol
_atom_site_fract_x
_atom_site_fract_y
_atom_site_fract_z
Zr1	Zr	0.816691	0.671028	-0.200494
O2	O	0.944585	0.607088	-0.328619
O3	O	0.665970	0.676551	-0.146304
O4	O	0.783773	0.707577	-0.307118
O5	O	0.860708	0.567604	-0.057917
O6	O	0.783774	0.802858	-0.307122
O7	O	0.826781	0.576063	-0.167805
O8	O	0.573045	0.747359	-0.019455
O9	O	1.071437	0.623102	-0.345584
O10	O	0.736419	0.767022	-0.141213
O11	O	0.761737	0.689602	-0.059202
O12	O	0.900436	0.726130	-0.248540
O13	O	0.925754	0.648710	-0.166528
Zr14	Zr	0.870802	0.809499	-0.025242
Zr15	Zr	0.816693	0.822990	-0.200501
Zr16	Zr	0.870800	0.657536	-0.025235
Zr17	Zr	1.019006	0.696568	-0.227551
Zr18	Zr	0.668487	0.783958	0.001815
O19	O	1.021523	0.803975	-0.079433
O20	O	0.944587	0.823159	-0.328629
O21	O	1.021521	0.587905	-0.079423
O22	O	0.742908	0.873439	0.102882
O23	O	0.665972	0.892622	-0.146313
O24	O	0.742906	0.657368	0.102892
O25	O	0.826785	0.912923	-0.167820
O26	O	0.903720	0.772950	0.081381
O27	O	0.903719	0.677669	0.081385
O28	O	0.860711	0.904464	-0.057932
O29	O	1.071438	0.743892	-0.345589
O30	O	0.616055	0.736635	0.119853
O31	O	0.616056	0.857425	0.119847
O32	O	0.573046	0.868149	-0.019460
O33	O	1.114447	0.612378	-0.206276
O34	O	1.114448	0.733167	-0.206282
O35	O	0.787057	0.754396	0.022803
O36	O	0.761739	0.831816	-0.059208
O37	O	0.925755	0.790924	-0.166535
O38	O	0.951074	0.713504	-0.084523
C39	C	0.590682	0.708316	-0.079024
C40	C	0.504794	0.697474	-0.067538
C41	C	0.843745	0.550182	-0.112860
C42	C	0.843744	0.485670	-0.112857
C43	C	0.209831	0.828560	-0.206409
C44	C	0.290530	0.838746	-0.217207
C45	C	0.344100	0.803429	-0.179790
C46	C	0.316963	0.757924	-0.131574
C47	C	0.236261	0.747734	-0.120781
C48	C	0.370530	0.722603	-0.094163
C49	C	0.343393	0.677097	-0.045947
C50	C	0.262698	0.666909	-0.035155
C51	C	0.209129	0.702226	-0.072571
C52	C	0.451232	0.732793	-0.104956
C53	C	0.477662	0.651966	-0.019328
C54	C	0.396963	0.641780	-0.008530
C55	C	0.758130	0.476710	-0.056842
C56	C	0.758129	0.416094	-0.056838
C57	C	0.843744	0.364440	-0.112866
C58	C	0.929371	0.373404	-0.168885
C59	C	0.929371	0.434019	-0.168880
N60	N	0.895799	0.256295	-0.192377
N61	N	0.895793	0.198715	-0.192379
C62	C	0.843749	0.181810	-0.112882
N63	N	0.791695	0.224664	-0.033382
N64	N	0.791698	0.282250	-0.033381
C65	C	0.843753	0.298711	-0.112877
C66	C	0.758129	0.107125	-0.056858
C67	C	0.758133	0.046507	-0.056852
C68	C	0.929375	0.003818	-0.168908
C69	C	0.929370	0.064435	-0.168905
C70	C	0.843743	0.116086	-0.112881
C71	C	1.096811	0.772210	-0.146713
C72	C	1.182699	0.783053	-0.158199
C73	C	0.776064	0.757139	-0.332091
C74	C	0.753093	0.762867	-0.406493
C75	C	0.843748	0.930345	-0.112877
C76	C	0.843749	0.994857	-0.112880
C77	C	1.030811	0.693621	-0.840318
C78	C	1.052396	0.688236	-0.770416
C79	C	0.977572	0.706894	-0.679432
C80	C	0.881159	0.730937	-0.658357
C81	C	0.859572	0.736318	-0.728266
C82	C	0.806334	0.749590	-0.567380
C83	C	0.709920	0.773633	-0.546304
C84	C	0.688337	0.779013	-0.616208
C85	C	0.763161	0.760356	-0.707192
C86	C	0.827921	0.744209	-0.497471
C87	C	0.656682	0.786905	-0.385418
C88	C	0.635097	0.792290	-0.455321
C89	C	0.911429	0.723387	0.106354
C90	C	0.934400	0.717660	0.180756
C91	C	0.590684	0.898398	-0.079033
C92	C	0.504797	0.952067	-0.067549
C93	C	0.658364	0.691440	0.140198
C94	C	0.595447	0.674870	0.226087
C95	C	0.658366	0.881522	0.140189
C96	C	0.595450	0.929464	0.226075
C97	C	1.029127	0.599005	-0.365926
C98	C	1.092043	0.551063	-0.451812
C99	C	1.096809	0.582129	-0.146704
C100	C	1.182696	0.528459	-0.158187
C101	C	1.029129	0.789086	-0.365935
C102	C	1.092045	0.805656	-0.451823
C103	C	0.451244	0.943450	-0.104970
C104	C	0.370550	0.993875	-0.094198
C105	C	0.343406	1.052915	-0.045999
C106	C	0.396967	1.061533	-0.008579
C107	C	0.477663	1.011109	-0.019357
C108	C	0.579120	0.700910	0.309234
C109	C	0.520016	0.685339	0.389940
C110	C	0.477235	0.643731	0.387498
C111	C	0.493568	0.617689	0.304342
C112	C	0.552677	0.633256	0.223636
C113	C	0.552688	0.992396	0.223599
C114	C	0.493580	1.037451	0.304289
C115	C	0.477231	1.019570	0.387456
C116	C	0.520000	0.956631	0.389929
C117	C	0.579112	0.911579	0.309239
C118	C	1.134815	0.488131	-0.449337
C119	C	1.193948	0.443080	-0.530030
C120	C	1.210301	0.460962	-0.613197
C121	C	1.167527	0.523900	-0.615671
C122	C	1.108401	0.568950	-0.534979
C123	C	1.236255	0.537079	-0.120776
C124	C	1.316965	0.486658	-0.131570
C125	C	1.344111	0.427618	-0.179771
C126	C	1.290548	0.419000	-0.217188
C127	C	1.209843	0.469421	-0.206399
C128	C	1.134809	0.847266	-0.449352
C129	C	1.193917	0.862847	-0.530045
C130	C	1.210267	0.836815	-0.613209
C131	C	1.167496	0.795203	-0.615678
C132	C	1.108383	0.779626	-0.534985
H133	H	0.473319	0.769844	-0.144214
H134	H	0.506726	0.706551	0.457642
C135	C	0.311639	0.984380	-0.135358
N136	N	0.267268	0.977227	-0.166357
H137	H	0.409807	0.811725	-0.188585
C138	C	1.158447	0.661795	-0.793604
N139	N	1.238331	0.641880	-0.811072
H140	H	1.166237	0.462394	-0.236863
C141	C	1.206416	0.602020	-0.067755
N142	N	1.183950	0.650934	-0.027823
H143	H	0.595755	0.802095	-0.311336
C144	C	1.275335	0.411396	-0.701953
N145	N	1.324316	0.374059	-0.768800
C146	C	1.275297	0.853956	-0.701967
N147	N	1.324281	0.866867	-0.768817
C148	C	0.320371	0.888803	-0.270239
N149	N	0.342845	0.926509	-0.310183
C150	C	1.240961	0.908618	-0.527309
N151	N	1.276394	0.943092	-0.525246
H152	H	0.556597	0.811866	-0.438172
C153	C	0.739422	0.766272	-0.784093
N154	N	0.721545	0.770724	-0.842019
H155	H	0.473339	0.895382	-0.144228
C156	C	0.254629	1.108375	-0.034144
N157	N	0.187759	1.150145	-0.025214
H158	H	0.999079	0.331343	-0.214503
H159	H	0.240613	0.629851	0.004098
H160	H	0.429107	0.631060	0.453220
C161	C	0.582280	0.805452	-0.593020
N162	N	0.502397	0.825365	-0.575554
H163	H	1.091722	0.678429	-0.914398
H164	H	0.458728	0.583810	0.302367
C165	C	0.367106	0.591722	0.044500
N166	N	0.344618	0.554018	0.084441
C167	C	1.185515	0.543558	-0.707163
N168	N	1.199059	0.558362	-0.776076
H169	H	1.360566	0.493686	-0.101095
C170	C	1.185451	0.766597	-0.707164
N171	N	1.198966	0.745058	-0.776072
H172	H	0.458761	1.088695	0.302259
C173	C	0.570617	0.604613	0.132179
N174	N	0.584124	0.583038	0.063294
C175	C	1.023550	0.074291	-0.230540
N176	N	1.094491	0.081713	-0.276967
C177	C	0.570665	1.012081	0.132123
N178	N	0.584207	1.026913	0.063225
H179	H	0.995153	0.702507	-0.622518
C180	C	1.061363	0.733843	-0.537721
N181	N	1.025951	0.699356	-0.539789
C182	C	0.663941	0.163943	0.004778
N183	N	0.592999	0.206736	0.051205
H184	H	0.521259	1.018134	0.011122
H185	H	0.374854	1.109610	0.030664
H186	H	1.073573	0.620191	-0.537004
C187	C	1.432888	0.372158	-0.191626
N188	N	1.499754	0.330387	-0.200550
H189	H	0.166215	0.857308	-0.236875
C190	C	0.626176	0.746677	0.311941
N191	N	0.661622	0.781146	0.313987
C192	C	1.023553	-0.052999	-0.230538
N193	N	1.094492	-0.095797	-0.276958
C194	C	0.412195	1.069136	0.476211
N195	N	0.363206	1.106471	0.543059
H196	H	0.143412	0.693938	-0.063777
H197	H	0.506679	0.942081	0.457654
H198	H	0.613922	0.860336	0.311268
C199	C	1.240989	0.373852	-0.527289
N200	N	1.276419	0.321710	-0.525222
C201	C	0.663942	0.406235	0.004782
N202	N	0.592999	0.398811	0.051192
C203	C	1.116846	0.468448	-0.357862
N204	N	1.103322	0.453618	-0.288966
C205	C	1.320410	0.354047	-0.270192
N206	N	1.342899	0.305121	-0.310106
H207	H	0.521281	0.623207	0.011137
H208	H	0.688404	0.518763	-0.011228
H209	H	1.121509	0.868468	-0.381643
H210	H	0.999092	0.441310	-0.214493
H211	H	0.688414	0.039216	-0.011232
H212	H	0.906422	0.724632	-0.514640
