data_functionalizedCrystal
_audit_creation_method	'MofGen! by Chris Wilmer'
_symmetry_space_group_name_H-M	'P1'
_symmetry_Int_Tables_number	1
_symmetry_cell_setting	triclinic
loop_
_symmetry_equiv_pos_as_xyz
  x,y,z
_cell_length_a	19.077105
_cell_length_b	19.077068
_cell_length_c	17.077396
_cell_angle_alpha	87.732878
_cell_angle_beta	92.316751
_cell_angle_gamma	90.115316
loop_
_atom_site_label
_atom_site_type_symbol
_atom_site_fract_x
_atom_site_fract_y
_atom_site_fract_z
Zn1	Zn	1.062992	-0.322976	0.505864
Zn2	Zn	1.562992	0.177024	1.005864
Zn3	Zn	1.058179	-0.440486	0.379639
Zn4	Zn	1.558179	0.059514	0.879639
Zn5	Zn	0.945484	-0.318272	0.369142
Zn6	Zn	1.445484	0.181728	0.869142
Zn7	Zn	0.940727	-0.435717	0.505393
Zn8	Zn	1.440727	0.064283	1.005393
O9	O	1.001846	-0.379363	0.440009
O10	O	1.501846	0.120637	0.940009
O11	O	1.160685	-0.342528	0.493710
O12	O	1.660685	0.157472	0.993710
O13	O	1.043206	-0.424301	0.268400
O14	O	1.543206	0.075699	0.768400
O15	O	0.965077	-0.220566	0.383083
O16	O	1.465077	0.279434	0.883083
O17	O	1.157149	-0.428862	0.400973
O18	O	1.657149	0.071138	0.900973
O19	O	1.051410	-0.224022	0.483532
O20	O	1.551410	0.275978	0.983532
O21	O	0.960409	-0.334510	0.260688
O22	O	1.460409	0.165490	0.760688
O23	O	0.846522	-0.329887	0.382626
O24	O	1.346522	0.170113	0.882626
O25	O	0.956970	-0.420735	0.615302
O26	O	1.456970	0.079265	1.115302
O27	O	0.843027	-0.416174	0.482729
O28	O	1.343027	0.083826	0.982729
O29	O	1.046798	-0.337904	0.615648
O30	O	1.546798	0.162096	1.115648
O31	O	1.038593	-0.538183	0.400516
O32	O	1.538593	-0.038183	0.900516
O33	O	0.952302	-0.534680	0.492906
O34	O	1.452302	-0.034680	0.992906
C35	C	0.819278	-0.372003	0.431488
C36	C	1.319278	0.127997	0.931488
C37	C	0.741174	-0.368871	0.427861
C38	C	1.241174	0.131129	0.927861
C39	C	0.702677	-0.412393	0.478200
C40	C	1.202677	0.087607	0.978200
C41	C	0.629290	-0.409441	0.474796
C42	C	1.129290	0.090559	0.974796
C43	C	0.594402	-0.362970	0.421049
C44	C	1.094402	0.137030	0.921049
C45	C	0.632905	-0.319444	0.370709
C46	C	1.132905	0.180556	0.870709
C47	C	0.706290	-0.322393	0.374117
C48	C	1.206290	0.177607	0.874117
C49	C	0.375117	-0.349323	0.405279
C50	C	0.875117	0.150677	0.905279
C51	C	0.301726	-0.346379	0.401873
C52	C	0.801726	0.153621	0.901873
C53	C	0.298117	-0.436375	0.505961
C54	C	0.798117	0.063625	1.005961
C55	C	0.371504	-0.439323	0.509361
C56	C	0.871504	0.060677	1.009361
C57	C	0.410000	-0.395794	0.459024
C58	C	0.910000	0.104206	0.959024
N59	N	0.519389	-0.359954	0.417567
N60	N	1.019389	0.140046	0.917567
N61	N	0.485012	-0.398808	0.462510
N62	N	0.985012	0.101192	0.962510
C63	C	0.994428	-0.561928	0.447817
C64	C	1.494428	-0.061928	0.947817
C65	C	0.991320	-0.640033	0.451186
C66	C	1.491320	-0.140033	0.951186
C67	C	1.034821	-0.678529	0.404709
C68	C	1.534821	-0.178529	0.904709
C69	C	1.031901	-0.751917	0.407883
C70	C	1.531901	-0.251917	0.907883
C71	C	0.985476	-0.786807	0.457530
C72	C	1.485476	-0.286807	0.957530
C73	C	0.941973	-0.748306	0.504012
C74	C	1.441973	-0.248306	1.004012
C75	C	0.944896	-0.674920	0.500842
C76	C	1.444896	-0.174920	1.000842
C77	C	0.971913	-1.006096	0.472169
C78	C	1.471913	-0.506096	0.972169
C79	C	0.968991	-1.079487	0.475334
C80	C	1.468991	-0.579487	0.975334
C81	C	1.058921	-1.083093	0.379206
C82	C	1.558921	-0.583093	0.879206
C83	C	1.061837	-1.009705	0.376037
C84	C	1.561837	-0.509705	0.876037
C85	C	1.018337	-0.971210	0.422521
C86	C	1.518337	-0.471210	0.922521
N87	N	0.982489	-0.861821	0.460774
N88	N	1.482489	-0.361821	0.960774
N89	N	1.021328	-0.896198	0.419282
N90	N	1.521328	-0.396198	0.919282
C91	C	1.185126	-0.386752	0.448565
C92	C	1.685126	0.113248	0.948565
C93	C	1.263229	-0.389901	0.452211
C94	C	1.763229	0.110099	0.952211
C95	C	1.001890	-0.379313	0.644754
C96	C	1.501890	0.120687	1.144754
C97	C	1.001909	-0.379291	0.732003
C98	C	1.501909	0.120709	1.232003
C99	C	1.009311	-0.196085	0.432190
C100	C	1.509311	0.303915	0.932190
C101	C	1.012492	-0.117983	0.428857
C102	C	1.512492	0.382017	0.928857
C103	C	1.001844	-0.379363	0.236062
C104	C	1.501844	0.120637	0.736062
C105	C	1.001969	-0.379192	0.148810
C106	C	1.501969	0.120808	0.648810
C107	C	1.048684	-0.336158	0.773175
C108	C	1.548684	0.163842	1.273175
C109	C	1.048694	-0.336135	0.855155
C110	C	1.548694	0.163865	1.355155
C111	C	1.001931	-0.379249	0.895962
C112	C	1.501931	0.120751	1.395962
C113	C	0.955151	-0.422385	0.854784
C114	C	1.455151	0.077615	1.354784
C115	C	0.955139	-0.422404	0.772806
C116	C	1.455139	0.077596	1.272806
C117	C	0.955181	-0.422344	1.025654
C118	C	1.455181	0.077656	1.525654
C119	C	0.955194	-0.422326	1.107638
C120	C	1.455194	0.077674	1.607638
C121	C	1.048736	-0.336075	1.108003
C122	C	1.548736	0.163925	1.608003
C123	C	1.048724	-0.336093	1.026025
C124	C	1.548724	0.163907	1.526025
C125	C	1.001944	-0.379230	0.984853
C126	C	1.501944	0.120770	1.484853
H127	H	0.731077	-0.450236	0.521963
H128	H	1.231077	0.049764	1.021963
H129	H	0.604493	-0.281604	0.326950
H130	H	1.104493	0.218396	0.826950
Br131	Br	1.112194	-0.277586	0.970644
Br132	Br	1.612194	0.222414	1.470644
Br133	Br	0.418847	-0.502396	0.582302
Br134	Br	0.918847	-0.002396	1.082302
H135	H	0.597949	-0.444881	0.515786
H136	H	1.097949	0.055119	1.015786
H137	H	0.737634	-0.286949	0.333130
H138	H	1.237634	0.213051	0.833130
H139	H	1.086766	-0.301051	0.739956
H140	H	1.586766	0.198949	1.239956
Br141	Br	0.427353	-0.290244	0.336967
Br142	Br	0.927353	0.209756	0.836967
Br143	Br	1.097823	-0.631184	0.337320
Br144	Br	1.597823	-0.131184	0.837320
H145	H	1.067324	-0.783257	0.370036
H146	H	1.567324	-0.283257	0.870036
H147	H	1.094337	-1.114443	0.341362
H148	H	1.594337	-0.614443	0.841362
H149	H	1.099641	-0.981299	0.335610
H150	H	1.599641	-0.481299	0.835610
H151	H	0.936492	-0.974759	0.510017
H152	H	1.436492	-0.474759	1.010017
Br153	Br	0.891692	-0.480884	0.969778
Br154	Br	1.391692	0.019116	1.469778
Br155	Br	0.905969	-1.126838	0.542703
Br156	Br	1.405969	-0.626838	1.042703
Br157	Br	0.878972	-0.795657	0.571398
Br158	Br	1.378972	-0.295657	1.071398
Br159	Br	1.112225	-0.277535	1.163878
Br160	Br	1.612225	0.222465	1.663878
Br161	Br	0.885861	-0.622674	0.563925
Br162	Br	1.385861	-0.122674	1.063925
H163	H	0.917073	-0.457487	0.888016
H164	H	1.417073	0.042513	1.388016
H165	H	0.266766	-0.471813	0.546944
H166	H	0.766766	0.028187	1.046944
H167	H	1.086784	-0.301013	0.888674
H168	H	1.586784	0.198987	1.388674
Br169	Br	0.254378	-0.283316	0.328918
Br170	Br	0.754378	0.216684	0.828918
Br171	Br	0.891723	-0.480832	1.163019
Br172	Br	1.391723	0.019168	1.663019
H173	H	0.917043	-0.457520	0.739284
H174	H	1.417043	0.042480	1.239284
