data_functionalizedCrystal
_audit_creation_method	'MofGen! by Chris Wilmer'
_symmetry_space_group_name_H-M	'P1'
_symmetry_Int_Tables_number	1
_symmetry_cell_setting	triclinic
loop_
_symmetry_equiv_pos_as_xyz
  x,y,z
_cell_length_a	15.625110
_cell_length_b	15.538191
_cell_length_c	9.130313
_cell_angle_alpha	90.002806
_cell_angle_beta	108.083341
_cell_angle_gamma	66.740235
loop_
_atom_site_label
_atom_site_type_symbol
_atom_site_fract_x
_atom_site_fract_y
_atom_site_fract_z
O1	O	1.155988	0.122968	0.492286
O2	O	0.888718	0.137604	0.350308
O3	O	1.074379	-0.006774	0.448927
O4	O	0.970327	0.267345	0.393667
O5	O	1.074376	-0.006770	0.692524
O6	O	0.888715	0.137607	0.593906
O7	O	1.155985	0.122971	0.735883
Cu8	Cu	1.022350	0.130290	0.687137
Cu9	Cu	1.022353	0.130285	0.399055
O10	O	0.970324	0.267349	0.637264
C11	C	0.855346	0.136941	0.454380
C12	C	0.755915	0.134949	0.401560
C13	C	1.085265	-0.041853	0.576504
C14	C	1.117692	-0.146383	0.593715
C15	C	0.615771	0.132141	0.194338
C16	C	0.709202	0.134012	0.243985
C17	C	0.709206	0.134021	0.509549
C18	C	0.615771	0.132154	0.459922
C19	C	0.569062	0.131213	0.302315
C20	C	0.569061	0.131226	0.567900
C21	C	0.475637	0.129355	0.518278
C22	C	0.428923	0.128412	0.360678
C23	C	0.475638	0.129342	0.252693
C24	C	0.615775	0.132160	0.725508
C25	C	0.569066	0.131233	0.833485
C26	C	0.475637	0.129368	0.783862
C27	C	0.428922	0.128425	0.626263
C28	C	0.428922	0.128438	0.891847
C29	C	0.335498	0.126566	0.842225
C30	C	0.335498	0.126553	0.576641
C31	C	0.795531	-0.434606	0.422611
C32	C	0.826025	-0.532831	0.438813
C33	C	0.997544	-0.555044	0.529925
C34	C	0.967065	-0.456819	0.513724
C35	C	0.866057	-0.396607	0.460068
C36	C	1.037590	-0.418820	0.551180
C37	C	1.007113	-0.320603	0.534988
C38	C	0.906110	-0.260386	0.481339
C39	C	0.835580	-0.298390	0.443875
C40	C	1.138597	-0.479033	0.604847
C41	C	1.209123	-0.441035	0.642303
C42	C	1.178646	-0.342816	0.626101
C43	C	1.077644	-0.282599	0.572451
C44	C	1.249177	-0.304812	0.663564
C45	C	1.218700	-0.206595	0.647372
C46	C	1.047166	-0.184382	0.556259
C47	C	1.189357	0.123634	0.631808
C48	C	1.288788	0.125626	0.684618
C49	C	0.959439	0.302428	0.509684
C50	C	0.927011	0.406958	0.492463
N51	N	1.022354	0.130292	0.889762
N52	N	1.022359	0.130275	0.196435
C53	C	1.104573	0.066384	1.010086
C54	C	1.104575	0.066372	1.163424
C55	C	0.940132	0.194187	1.076095
C56	C	0.940129	0.194193	0.922760
C57	C	1.186799	0.002483	0.977088
C58	C	1.269025	-0.061430	1.097417
C59	C	1.269027	-0.061441	1.250755
C60	C	1.186802	0.002461	1.283764
H61	H	0.297459	0.125799	0.448299
H62	H	0.747251	0.134783	0.637874
H63	H	1.186806	0.002488	0.852238
H64	H	0.691847	0.133685	0.765905
H65	H	1.335967	-0.113462	1.070531
H66	H	1.276129	-0.175656	0.677874
H67	H	0.881298	-0.180412	0.468164
C68	C	0.685896	-0.369115	0.364590
C69	C	0.663388	-0.312057	0.477939
C70	C	0.562411	-0.251708	0.424541
H71	H	0.648143	-0.405694	0.344608
H72	H	0.670424	-0.330287	0.271465
H73	H	0.678850	-0.350880	0.571037
H74	H	0.701116	-0.275458	0.497935
H75	H	0.546938	-0.212881	0.331416
H76	H	0.524666	-0.288295	0.404559
H77	H	0.547128	-0.212982	0.501433
H78	H	0.768586	-0.563764	0.408328
C79	C	0.759780	0.135225	0.126628
C80	C	0.700435	0.215725	0.015013
C81	C	0.747003	0.216881	-0.093101
H82	H	0.769311	0.080118	0.076948
H83	H	0.822094	0.136527	0.178687
H84	H	0.638139	0.214414	-0.037040
H85	H	0.690900	0.270845	0.064646
H86	H	0.809317	0.218183	-0.041043
H87	H	0.756532	0.161770	-0.142769
H88	H	0.706748	0.271503	-0.168836
H89	H	1.335974	-0.113488	1.348724
C90	C	0.327401	0.126576	0.306834
C91	C	0.259853	0.206915	0.343274
C92	C	0.166319	0.205263	0.293678
H93	H	0.330951	0.071352	0.357794
H94	H	0.306215	0.126199	0.197494
H95	H	0.281033	0.207283	0.452594
H96	H	0.256272	0.262152	0.292317
H97	H	0.145133	0.204886	0.184338
H98	H	0.169880	0.150036	0.344642
H99	H	0.120475	0.259776	0.318382
C100	C	0.850861	0.263717	1.111740
C101	C	0.835167	0.356277	1.066093
C102	C	0.752931	0.420355	1.098881
H103	H	0.862529	0.254695	1.220259
H104	H	0.794044	0.253430	1.056397
H105	H	0.891971	0.366561	1.121439
H106	H	0.823482	0.365330	0.957578
H107	H	0.696114	0.410068	1.043538
H108	H	0.764608	0.411324	1.207401
H109	H	0.742267	0.483164	1.067902
H110	H	0.753330	-0.249362	0.400172
C111	C	1.107238	-0.620310	0.587960
C112	C	1.151566	-0.603109	0.486191
C113	C	1.252618	-0.663204	0.539607
H114	H	1.115427	-0.684279	0.592238
H115	H	1.137532	-0.608760	0.688950
H116	H	1.121282	-0.614666	0.385227
H117	H	1.143405	-0.539153	0.481900
H118	H	1.282913	-0.651654	0.640598
H119	H	1.260798	-0.727169	0.543885
H120	H	1.282710	-0.651536	0.470574
C121	C	1.318771	-0.506458	0.700243
C122	C	1.341279	-0.563483	0.586857
C123	C	1.442280	-0.623751	0.640163
H124	H	1.334344	-0.545318	0.793366
H125	H	1.356446	-0.469792	0.720169
H126	H	1.303617	-0.600145	0.566952
H127	H	1.325730	-0.524648	0.493727
H128	H	1.479955	-0.587086	0.660089
H129	H	1.457844	-0.662606	0.733286
H130	H	1.457567	-0.662444	0.563234
H131	H	0.437599	0.128588	0.124351
C132	C	1.358824	-0.370237	0.721517
C133	C	1.381341	-0.427269	0.608143
C134	C	1.482341	-0.487540	0.661468
H135	H	1.374389	-0.409092	0.814641
H136	H	1.396501	-0.333573	0.741447
H137	H	1.343676	-0.463929	0.588234
H138	H	1.365799	-0.388439	0.515012
H139	H	1.520018	-0.450876	0.681397
H140	H	1.497896	-0.526389	0.754592
H141	H	1.497633	-0.526237	0.584547
H142	H	1.186806	0.002440	1.408623
C143	C	0.937468	-0.119108	0.497743
C144	C	0.893139	-0.136317	0.348881
C145	C	0.792089	-0.076213	0.294938
H146	H	0.929286	-0.055142	0.493319
H147	H	0.907167	-0.130645	0.566547
H148	H	0.923430	-0.124773	0.280094
H149	H	0.901292	-0.200271	0.353264
H150	H	0.761789	-0.087749	0.363742
H151	H	0.783918	-0.012250	0.290523
H152	H	0.761998	-0.087886	0.193937
H153	H	0.577733	0.131387	0.065996
H154	H	0.607111	0.131995	0.961811
H155	H	0.466971	0.129194	1.020173
H156	H	0.873178	0.246233	0.824786
H157	H	0.297458	0.125829	0.930148
H158	H	1.163408	-0.559007	0.618016
