data_functionalizedCrystal
_audit_creation_method	'MofGen! by Chris Wilmer'
_symmetry_space_group_name_H-M	'P1'
_symmetry_Int_Tables_number	1
_symmetry_cell_setting	triclinic
loop_
_symmetry_equiv_pos_as_xyz
  x,y,z
_cell_length_a	15.995350
_cell_length_b	15.995350
_cell_length_c	14.750779
_cell_angle_alpha	77.359549
_cell_angle_beta	102.645612
_cell_angle_gamma	83.492375
loop_
_atom_site_label
_atom_site_type_symbol
_atom_site_fract_x
_atom_site_fract_y
_atom_site_fract_z
O1	O	1.092829	0.126073	-0.079741
O2	O	0.849050	0.139405	-0.079760
O3	O	0.977604	0.010851	-0.079749
O4	O	0.964275	0.254627	-0.079752
O5	O	1.013944	-0.025485	0.079905
O6	O	0.885390	0.103069	0.079894
O7	O	1.129170	0.089737	0.079913
Zn8	Zn	1.013050	0.090633	0.105252
Zn9	Zn	0.965170	0.138509	-0.105099
O10	O	1.000616	0.218291	0.079902
C11	C	0.836025	0.120686	0.000065
C12	C	0.743073	0.119036	0.000057
C13	C	0.405330	0.113100	0.000077
C14	C	0.452845	0.021466	0.000434
C15	C	0.549452	0.023202	0.000068
C16	C	0.572888	0.116044	0.000068
C17	C	0.511049	0.181950	-0.091099
C18	C	0.414398	0.179666	-0.091169
C19	C	0.455385	0.140236	0.090387
C20	C	0.552603	0.139941	0.091585
C21	C	0.667584	0.117714	0.000059
C22	C	0.310632	0.111434	0.000079
C23	C	0.995222	-0.038511	0.000076
C24	C	0.993569	-0.131460	0.000071
C25	C	0.987638	-0.469209	0.000073
C26	C	0.896003	-0.421691	-0.000292
C27	C	0.897737	-0.325083	0.000068
C28	C	0.990580	-0.301648	0.000071
C29	C	1.056489	-0.363476	0.091243
C30	C	1.054207	-0.460129	0.091319
C31	C	1.014772	-0.419165	-0.090236
C32	C	1.014476	-0.321946	-0.091441
C33	C	0.992248	-0.206951	0.000074
C34	C	0.985974	-0.563907	0.000078
C35	C	1.142194	0.108456	0.000087
C36	C	1.235145	0.110107	0.000088
C37	C	0.982997	0.267654	0.000075
C38	C	0.984648	0.360604	0.000074
N39	N	1.045733	0.057959	0.248810
N40	N	0.932493	0.171176	-0.248657
C41	C	0.841214	0.262393	0.600611
C42	C	0.864122	0.239502	0.701112
C43	C	0.977980	0.125710	0.701084
C44	C	0.955078	0.148588	0.600581
C45	C	0.886695	0.216931	0.550352
C46	C	1.000560	0.103126	0.550323
C47	C	0.977663	0.126005	0.449829
C48	C	0.909284	0.194347	0.399593
C49	C	0.863798	0.239810	0.449858
C50	C	1.068947	0.034787	0.600554
C51	C	1.114428	-0.010675	0.550295
C52	C	1.091527	0.012200	0.449799
C53	C	1.023149	0.080542	0.399563
C54	C	1.137013	-0.033263	0.399533
C55	C	1.114116	-0.010383	0.299039
C56	C	1.000252	0.103421	0.299069
H57	H	0.562408	0.002366	-0.065397
H58	H	1.082134	-0.450787	-0.090846
N59	N	1.143034	-0.346742	0.095528
N60	N	1.201335	-0.405674	0.095239
H61	H	1.262458	-0.393855	0.098267
N62	N	0.409709	-0.005683	-0.081123
N63	N	0.449946	-0.020501	-0.141189
H64	H	0.419480	-0.039677	-0.198787
N65	N	0.817667	0.285941	0.752461
N66	N	0.857003	0.325165	0.808536
H67	H	0.824196	0.357963	0.844801
N68	N	1.092342	0.011396	0.703206
N69	N	1.153400	-0.049622	0.748043
H70	H	1.169923	-0.066144	0.820543
N71	N	0.603795	-0.039992	0.082034
N72	N	0.684612	-0.049523	0.095781
H73	H	0.722991	-0.094159	0.153670
N74	N	1.139703	-0.501784	0.096519
N75	N	1.153009	-0.535434	0.030950
H76	H	1.213391	-0.564852	0.034627
N77	N	1.047836	0.055914	0.752411
N78	N	1.068280	0.035499	0.842137
H79	H	1.117618	-0.013794	0.878386
H80	H	0.890645	0.212977	0.317764
N81	N	0.371949	0.157815	-0.176653
N82	N	0.308834	0.209361	-0.235177
H83	H	0.278856	0.193927	-0.295551
H84	H	0.874371	-0.456082	0.064720
N85	N	0.415713	0.224739	0.091151
N86	N	0.350862	0.264885	0.025543
H87	H	0.322837	0.324564	0.026074
N88	N	0.527299	0.161992	-0.176209
N89	N	0.584356	0.099293	-0.169959
H90	H	0.595842	0.085200	-0.230066
N91	N	0.957493	-0.425178	-0.176937
N92	N	0.968954	-0.389175	-0.256422
H93	H	0.928494	-0.393420	-0.317652
N94	N	0.372768	0.265170	-0.096358
N95	N	0.415124	0.326339	-0.099923
H96	H	0.385726	0.386727	-0.103592
H97	H	1.080928	-0.305331	-0.096943
N98	N	0.953878	-0.268404	-0.176051
N99	N	0.980003	-0.216994	-0.236348
H100	H	0.937208	-0.179165	-0.296100
N101	N	0.793947	0.309627	0.398555
N102	N	0.797645	0.384466	0.409781
H103	H	0.748316	0.433774	0.373548
H104	H	0.595272	0.091627	0.159030
H105	H	1.036791	-0.493941	0.159469
H106	H	0.847364	-0.281786	-0.065288
N107	N	0.527803	0.268483	-0.095343
N108	N	0.585646	0.282578	-0.031072
H109	H	0.597481	0.343692	-0.034066
H110	H	1.170109	-0.066318	0.591203
H111	H	0.449205	-0.030009	0.065814
H112	H	1.040569	-0.350535	0.159088
N113	N	0.930401	0.173238	0.247765
N114	N	0.934099	0.248078	0.258991
H115	H	0.884770	0.297385	0.222758
H116	H	0.785523	0.318038	0.559713
H117	H	1.192697	-0.088903	0.440443
N118	N	0.573493	0.223278	0.098546
N119	N	0.561463	0.252761	0.167308
H120	H	0.576237	0.311611	0.172234
H121	H	1.151153	-0.047403	0.258118
H122	H	0.450579	0.094578	0.159490
H123	H	0.876903	-0.312117	0.065530
N124	N	0.831435	-0.426267	-0.082321
N125	N	0.852195	-0.464605	-0.141470
H126	H	0.806593	-0.467839	-0.199408
