data_functionalizedCrystal
_audit_creation_method	'MofGen! by Chris Wilmer'
_symmetry_space_group_name_H-M	'P1'
_symmetry_Int_Tables_number	1
_symmetry_cell_setting	triclinic
loop_
_symmetry_equiv_pos_as_xyz
  x,y,z
_cell_length_a	14.044220
_cell_length_b	16.992694
_cell_length_c	15.455446
_cell_angle_alpha	92.849065
_cell_angle_beta	92.902385
_cell_angle_gamma	88.071450
loop_
_atom_site_label
_atom_site_type_symbol
_atom_site_fract_x
_atom_site_fract_y
_atom_site_fract_z
O1	O	0.198167	-1.057673	-0.072023
O2	O	0.195949	-0.829234	-0.072049
O3	O	0.058814	-0.940024	-0.072028
O4	O	0.335302	-0.946883	-0.072044
O5	O	0.066606	-0.933706	0.072230
O6	O	0.203741	-0.822916	0.072209
O7	O	0.205959	-1.051355	0.072235
Cu8	Cu	0.205562	-0.936558	0.085394
Cu9	Cu	0.196347	-0.944030	-0.085208
O10	O	0.343094	-0.940564	0.072214
C11	C	0.027168	-0.933863	0.000101
C12	C	-0.078736	-0.924909	0.000101
C13	C	0.196993	-0.796663	0.000077
C14	C	0.188484	-0.709024	0.000068
C15	C	0.204915	-1.083926	0.000107
C16	C	0.213424	-1.171565	0.000111
C17	C	-0.272638	-0.908540	0.000087
C18	C	-0.325460	-0.972046	0.000092
C19	C	-0.433354	-0.962938	0.000084
C20	C	-0.164734	-0.917647	0.000095
C21	C	0.374740	-0.946726	0.000083
C22	C	0.480644	-0.955680	0.000077
C23	C	0.270581	-0.664526	0.000063
C24	C	0.262581	-0.582179	0.000076
C25	C	0.172483	-0.544332	0.000086
C26	C	0.090381	-0.588836	0.000093
C27	C	0.098382	-0.671181	0.000087
C28	C	0.139322	-0.298414	0.000112
C29	C	0.131327	-0.216063	0.000115
C30	C	0.303528	-0.209412	0.000100
C31	C	0.311521	-0.291759	0.000088
C32	C	0.229419	-0.336255	0.000099
N33	N	0.164304	-0.460161	0.000096
N34	N	0.237599	-0.420425	0.000096
N35	N	0.189859	-0.949286	-0.205200
C36	C	0.153916	-0.978478	-0.749188
C37	C	0.158828	-0.974482	-0.658383
C38	C	0.221872	-0.923320	-0.613005
C39	C	0.280001	-0.876145	-0.658437
C40	C	0.275084	-0.880138	-0.749241
C41	C	0.243070	-0.906104	-0.341435
C42	C	0.247985	-0.902117	-0.250625
C43	C	0.126810	-1.000452	-0.250578
C44	C	0.121903	-1.004444	-0.341383
C45	C	0.180028	-0.957266	-0.386807
N46	N	0.226896	-0.919236	-0.520188
N47	N	0.174998	-0.961347	-0.479623
N48	N	0.212043	-0.931309	0.205386
H49	H	-0.308444	-0.847335	0.000078
O50	O	0.059609	-0.341662	0.000265
C51	C	-0.027238	-0.435269	0.074967
C52	C	0.063074	-0.386314	0.074915
H53	H	-0.024458	-0.471395	0.135305
H54	H	-0.093039	-0.394110	0.075025
H55	H	-0.031046	-0.476588	0.014564
H56	H	0.066974	-0.344991	0.135306
H57	H	0.128831	-0.427519	0.074811
H58	H	0.331330	-0.834484	-0.621485
O59	O	0.092521	-1.028086	-0.793206
C60	C	-0.071075	-1.064164	-0.820842
C61	C	-0.001638	-1.007920	-0.770970
H62	H	-0.147215	-1.047890	-0.802869
H63	H	-0.064718	-1.058929	-0.893562
H64	H	-0.052683	-1.127356	-0.802971
H65	H	-0.019985	-0.944704	-0.788769
H66	H	-0.008008	-1.013223	-0.698263
H67	H	-0.289655	-1.033258	0.000040
H68	H	0.343947	-0.695334	0.000054
H69	H	0.290401	-0.867691	-0.378412
O70	O	0.002846	-0.552105	0.000255
C71	C	-0.142769	-0.529377	0.074971
C72	C	-0.043649	-0.571002	0.074910
H73	H	-0.180397	-0.544652	0.135313
H74	H	-0.134444	-0.462869	0.075026
H75	H	-0.186876	-0.549838	0.014573
H76	H	0.000511	-0.550605	0.135298
H77	H	-0.052045	-0.637503	0.074809
H78	H	0.329433	-0.545952	0.000072
O79	O	0.399118	-0.328393	0.000121
C80	C	0.569070	-0.313105	0.000059
C81	C	0.469928	-0.271515	0.000045
H82	H	0.626346	-0.267138	-0.000021
H83	H	0.580446	-0.348830	0.060442
H84	H	0.573809	-0.354149	-0.060302
H85	H	0.465119	-0.230433	0.060365
H86	H	0.458595	-0.235839	-0.060377
H87	H	0.322416	-0.841726	-0.786226
H88	H	0.370371	-0.173174	0.000092
H89	H	0.031530	-0.707411	0.000090
O90	O	0.043730	-0.179421	0.000163
C91	C	-0.126229	-0.194706	0.000123
C92	C	-0.027091	-0.236303	0.000095
H93	H	-0.183516	-0.240677	0.000049
H94	H	-0.131077	-0.153703	0.060508
H95	H	-0.137487	-0.158937	-0.060236
H96	H	-0.015768	-0.272114	0.060413
H97	H	-0.022290	-0.277259	-0.060330
O98	O	0.102265	-1.020191	-0.614223
C99	C	-0.020988	-1.023581	-0.511650
C100	C	0.043000	-0.971718	-0.561618
H101	H	-0.068905	-0.984412	-0.469093
H102	H	-0.066951	-1.060818	-0.559646
H103	H	0.025578	-1.063918	-0.469170
H104	H	-0.003492	-0.931335	-0.604099
H105	H	0.088969	-0.934534	-0.513575
O106	O	0.060575	-1.054157	-0.385326
C107	C	-0.059056	-1.151304	-0.375693
C108	C	0.010335	-1.095022	-0.325820
H109	H	-0.099679	-1.184371	-0.327604
H110	H	-0.111706	-1.115921	-0.418184
H111	H	-0.017098	-1.195330	-0.418223
H112	H	-0.031543	-1.050985	-0.283243
H113	H	0.062985	-1.130456	-0.283383
H114	H	0.079486	-1.038861	-0.213585
O115	O	0.309242	-0.852338	-0.206678
C116	C	0.428931	-0.755238	-0.216302
C117	C	0.359592	-0.811562	-0.266180
H118	H	0.469672	-0.722267	-0.264388
H119	H	0.387018	-0.711137	-0.173821
H120	H	0.481485	-0.790660	-0.173762
H121	H	0.307023	-0.776205	-0.308768
H122	H	0.401567	-0.855663	-0.308607
