data_functionalizedCrystal
_audit_creation_method	'MofGen! by Chris Wilmer'
_symmetry_space_group_name_H-M	'P1'
_symmetry_Int_Tables_number	1
_symmetry_cell_setting	triclinic
loop_
_symmetry_equiv_pos_as_xyz
  x,y,z
_cell_length_a	12.594517
_cell_length_b	12.594516
_cell_length_c	19.076919
_cell_angle_alpha	92.275735
_cell_angle_beta	92.280660
_cell_angle_gamma	90.011616
loop_
_atom_site_label
_atom_site_type_symbol
_atom_site_fract_x
_atom_site_fract_y
_atom_site_fract_z
Zn1	Zn	1.603081	-0.447950	-0.397977
Zn2	Zn	1.610146	-0.618794	-0.280291
Zn3	Zn	1.432246	-0.440830	-0.280295
Zn4	Zn	1.425082	-0.625885	-0.397946
O5	O	1.517639	-0.533365	-0.339127
O6	O	1.752963	-0.470626	-0.382377
O7	O	1.592502	-0.589239	-0.181802
O8	O	1.454948	-0.292829	-0.295921
O9	O	1.758154	-0.596144	-0.295913
O10	O	1.580460	-0.298061	-0.382381
O11	O	1.461800	-0.458490	-0.181805
O12	O	1.282350	-0.465365	-0.295890
O13	O	1.442739	-0.608229	-0.496439
O14	O	1.277087	-0.601324	-0.382328
O15	O	1.573514	-0.477501	-0.496462
O16	O	1.585556	-0.768680	-0.295883
O17	O	1.449590	-0.773889	-0.382324
C18	C	1.241099	-0.533342	-0.339106
C19	C	1.122793	-0.533359	-0.339114
C20	C	1.056366	-0.459319	-0.292190
C21	C	0.986616	-0.555354	-0.274880
C22	C	0.981744	-0.437373	-0.356437
C23	C	1.054603	-0.629443	-0.321770
C24	C	1.049735	-0.511398	-0.403357
C25	C	0.980015	-0.607501	-0.386070
C26	C	1.517590	-0.809905	-0.339115
C27	C	1.517665	-0.928211	-0.339133
C28	C	1.591696	-0.994596	-0.292168
C29	C	1.613798	-1.069204	-0.356408
C30	C	1.495694	-1.064404	-0.274935
C31	C	1.539814	-1.001264	-0.403406
C32	C	1.421668	-0.996455	-0.321890
C33	C	1.443730	-1.071034	-0.386173
C34	C	1.795258	-0.533388	-0.339148
C35	C	1.913563	-0.533398	-0.339157
C36	C	1.506539	-0.544450	-0.522702
C37	C	1.501809	-0.549174	-0.600930
C38	C	1.517715	-0.255746	-0.339155
C39	C	1.517748	-0.137441	-0.339167
C40	C	1.567671	-0.483334	-0.637695
C41	C	1.563213	-0.487768	-0.711199
C42	C	1.492899	-0.558050	-0.747937
C43	C	1.427030	-0.623893	-0.711167
C44	C	1.431482	-0.619452	-0.637664
C45	C	1.472276	-0.578624	-0.967765
C46	C	1.467830	-0.583062	-1.041273
C47	C	1.604013	-0.446936	-1.041301
C48	C	1.608464	-0.442506	-0.967797
C49	C	1.542591	-0.508345	-0.931033
N50	N	1.488343	-0.562587	-0.823070
N51	N	1.547142	-0.503802	-0.855901
C52	C	1.528756	-0.522246	-0.156267
C53	C	1.533692	-0.517222	-0.078038
H54	H	0.946778	-0.670200	-0.425771
N55	N	1.365221	-1.112794	-0.436059
N56	N	1.290808	-1.168392	-0.416130
H57	H	1.235360	-1.197883	-0.451361
H58	H	1.089800	-0.396762	-0.252460
N59	N	1.715687	-1.109272	-0.374703
N60	N	1.788663	-1.046338	-0.387242
H61	H	1.860627	-1.074641	-0.400147
H62	H	1.657642	-0.393332	-1.071242
N63	N	1.319811	-0.956383	-0.303541
N64	N	1.283783	-0.975562	-0.245246
H65	H	1.211846	-0.947260	-0.232279
H66	H	1.410569	-0.640296	-1.071183
H67	H	1.616848	-0.434157	-0.741130
H68	H	0.949722	-0.356192	-0.371047
H69	H	1.624932	-0.426107	-0.607789
N70	N	1.680305	-0.370718	-0.930283
N71	N	1.739111	-0.311941	-0.963118
H72	H	1.789855	-0.261244	-0.936625
H73	H	1.077614	-0.492768	-0.457651
H74	H	1.654310	-0.961129	-0.252487
H75	H	1.477077	-1.092268	-0.220629
N76	N	0.951663	-0.578714	-0.206756
N77	N	0.977215	-0.664492	-0.179983
H78	H	0.952532	-0.680987	-0.131870
H79	H	1.418653	-0.632251	-0.937841
N80	N	1.355202	-0.695669	-0.748702
N81	N	1.351235	-0.699626	-0.814329
H82	H	1.300506	-0.750321	-0.840838
N83	N	1.563309	-0.966504	-0.471554
N84	N	1.580047	-1.033201	-0.520126
H85	H	1.596645	-1.008652	-0.568254
H86	H	1.086444	-0.710654	-0.307076
H87	H	1.377840	-0.673056	-0.607731
