data_functionalizedCrystal
_audit_creation_method	'MofGen! by Chris Wilmer'
_symmetry_space_group_name_H-M	'P1'
_symmetry_Int_Tables_number	1
_symmetry_cell_setting	triclinic
loop_
_symmetry_equiv_pos_as_xyz
  x,y,z
_cell_length_a	11.792254
_cell_length_b	15.944564
_cell_length_c	10.868271
_cell_angle_alpha	90.006315
_cell_angle_beta	89.995741
_cell_angle_gamma	96.148734
loop_
_atom_site_label
_atom_site_type_symbol
_atom_site_fract_x
_atom_site_fract_y
_atom_site_fract_z
O1	O	1.505958	-0.115178	-0.102325
O2	O	1.839291	0.218155	0.231009
O3	O	2.172625	0.551489	0.564342
O4	O	1.175522	-0.127032	-0.102328
O5	O	1.508855	0.206301	0.231006
O6	O	1.842189	0.539635	0.564339
O7	O	1.349756	0.001128	-0.102314
O8	O	1.683089	0.334461	0.231019
O9	O	2.016423	0.667795	0.564352
O10	O	1.331724	-0.243338	-0.102338
O11	O	1.665057	0.089995	0.230995
O12	O	1.998391	0.423328	0.564329
O13	O	1.349742	0.001133	0.102330
O14	O	1.683075	0.334466	0.435664
O15	O	2.016408	0.667800	0.768997
O16	O	1.175508	-0.127027	0.102317
O17	O	1.508841	0.206306	0.435650
O18	O	1.842174	0.539640	0.768984
O19	O	1.505944	-0.115173	0.102320
O20	O	1.839277	0.218160	0.435653
O21	O	2.172610	0.551494	0.768987
Zn22	Zn	1.340723	-0.121099	0.134810
Zn23	Zn	1.674057	0.212234	0.468143
Zn24	Zn	2.007390	0.545567	0.801477
Zn25	Zn	1.340742	-0.121106	-0.134818
Zn26	Zn	1.674076	0.212227	0.198515
Zn27	Zn	2.007409	0.545561	0.531849
O28	O	1.331710	-0.243333	0.102307
O29	O	1.665043	0.090000	0.435640
O30	O	1.998376	0.423333	0.768973
C31	C	1.133230	-0.126283	-0.000006
C32	C	1.466563	0.207050	0.333328
C33	C	1.799897	0.540384	0.666661
C34	C	1.007235	-0.124048	-0.000007
C35	C	1.340569	0.209286	0.333327
C36	C	1.673902	0.542619	0.666660
C37	C	0.904914	-0.122232	-0.000012
C38	C	1.238247	0.211101	0.333322
C39	C	1.571580	0.544435	0.666655
C40	C	0.776546	-0.119961	-0.000012
C41	C	1.109879	0.213372	0.333321
C42	C	1.443212	0.546706	0.666655
C43	C	1.348998	0.032428	0.000008
C44	C	1.682331	0.365761	0.333342
C45	C	2.015664	0.699094	0.666675
C46	C	1.346746	0.125683	0.000010
C47	C	1.680079	0.459017	0.333343
C48	C	2.013412	0.792350	0.666676
C49	C	1.233360	0.341054	-0.000007
C50	C	1.566694	0.674388	0.333326
C51	C	1.900027	1.007721	0.666660
C52	C	1.285996	0.401834	0.100896
C53	C	1.619329	0.735168	0.434229
C54	C	1.952662	1.068501	0.767563
C55	C	1.342672	0.296427	0.000001
C56	C	1.676005	0.629760	0.333334
C57	C	2.009338	0.963093	0.666668
C58	C	1.286036	0.401813	-0.100868
C59	C	1.619369	0.735146	0.232466
C60	C	1.952702	1.068479	0.565799
C61	C	1.338729	0.461356	-0.000013
C62	C	1.672062	0.794690	0.333321
C63	C	2.005395	1.128023	0.666654
C64	C	1.395337	0.355979	0.100987
C65	C	1.728671	0.689312	0.434321
C66	C	2.062004	1.022645	0.767654
C67	C	1.395362	0.355951	-0.100867
C68	C	1.728695	0.689284	0.232466
C69	C	2.062028	1.022617	0.565800
C70	C	1.448077	0.416713	0.000061
C71	C	1.781410	0.750046	0.333394
C72	C	2.114743	1.083379	0.666727
C73	C	1.344940	0.201415	0.000010
C74	C	1.678274	0.534748	0.333343
C75	C	2.011607	0.868081	0.666677
C76	C	1.336469	0.556367	-0.000013
C77	C	1.669802	0.889701	0.333321
C78	C	2.003135	1.223034	0.666654
C79	C	1.548235	-0.115922	-0.000005
C80	C	1.881569	0.217411	0.333328
C81	C	2.214902	0.550744	0.666662
C82	C	1.674230	-0.118157	-0.000012
C83	C	2.007563	0.215176	0.333321
C84	C	2.340897	0.548509	0.666655
N85	N	1.340719	-0.121094	0.318824
N86	N	1.674052	0.212239	0.652158
N87	N	2.007385	0.545572	0.985491
C88	C	1.332452	0.725366	-0.000017
C89	C	1.665786	1.058699	0.333316
C90	C	1.999119	1.392032	0.666649
C91	C	1.334658	0.632106	-0.000022
C92	C	1.667991	0.965439	0.333311
C93	C	2.001325	1.298772	0.666644
N94	N	1.340756	-0.121104	-0.318832
N95	N	1.674089	0.212229	0.014501
N96	N	2.007422	0.545562	0.347835
C97	C	1.340736	-0.121104	0.569830
C98	C	1.674070	0.212229	0.903164
C99	C	2.007403	0.545563	1.236497
C100	C	1.340723	-0.121101	0.430153
C101	C	1.674056	0.212232	0.763486
C102	C	2.007390	0.545566	1.096819
H103	H	1.142631	0.308159	0.000093
H104	H	1.475965	0.641493	0.333426
H105	H	1.809298	0.974826	0.666759
F106	F	1.455751	0.329360	-0.212372
F107	F	1.789084	0.662693	0.120961
F108	F	2.122418	0.996026	0.454295
H109	H	1.441527	0.335780	0.186386
H110	H	1.774860	0.669114	0.519719
H111	H	2.108193	1.002447	0.853053
F112	F	1.566769	0.459516	0.000133
F113	F	1.900102	0.792849	0.333466
F114	F	2.233435	1.126182	0.666799
F115	F	1.225586	0.428345	-0.212359
F116	F	1.558920	0.761678	0.120974
F117	F	1.892253	1.095012	0.454308
H118	H	1.239755	0.422155	0.186200
H119	H	1.573089	0.755488	0.519534
H120	H	1.906422	1.088822	0.852867
