data_functionalizedCrystal
_audit_creation_method	'MofGen! by Chris Wilmer'
_symmetry_space_group_name_H-M	'P1'
_symmetry_Int_Tables_number	1
_symmetry_cell_setting	triclinic
loop_
_symmetry_equiv_pos_as_xyz
  x,y,z
_cell_length_a	17.038272
_cell_length_b	27.731996
_cell_length_c	15.500227
_cell_angle_alpha	92.797931
_cell_angle_beta	86.956295
_cell_angle_gamma	86.866472
loop_
_atom_site_label
_atom_site_type_symbol
_atom_site_fract_x
_atom_site_fract_y
_atom_site_fract_z
O1	O	1.039770	0.102823	-0.071855
O2	O	0.812161	0.101156	-0.071880
O3	O	0.933055	0.031916	-0.071848
O4	O	0.918876	0.172063	-0.071887
O5	O	0.925719	0.036100	0.072039
O6	O	0.804825	0.105340	0.072007
O7	O	1.032434	0.107007	0.072032
Cu8	Cu	0.917960	0.106555	0.085157
Cu9	Cu	0.926635	0.101607	-0.085006
O10	O	0.911540	0.176247	0.072000
C11	C	0.779383	0.101733	0.000060
C12	C	0.692644	0.097212	0.000052
C13	C	0.642034	0.138715	0.000041
C14	C	0.560534	0.134465	0.000054
C15	C	0.529646	0.088711	0.000072
C16	C	0.580262	0.047205	0.000085
C17	C	0.661760	0.051456	0.000078
C18	C	0.284066	0.073695	0.000099
C19	C	0.202561	0.069447	0.000103
C20	C	0.182839	0.156707	0.000074
C21	C	0.264340	0.160954	0.000062
C22	C	0.314949	0.119448	0.000080
C23	C	0.446340	0.084366	0.000082
C24	C	0.398253	0.123794	0.000075
C25	C	0.929095	0.015987	0.000098
C26	C	0.928218	-0.037709	0.000107
C27	C	0.926698	-0.372960	-0.078369
C28	C	0.923367	-0.574771	-0.078384
O29	O	0.926304	-0.602803	-0.145089
N30	N	0.918955	-0.597726	0.000048
C31	C	0.915369	-0.570226	0.078489
O32	O	0.911532	-0.594381	0.145200
C33	C	0.918695	-0.368415	0.078504
C34	C	0.923116	-0.345463	0.000067
C35	C	0.931118	-0.350007	-0.156799
C36	C	0.931955	-0.299558	-0.156795
C37	C	0.928372	-0.272061	-0.078359
C38	C	0.923953	-0.295013	0.000071
C39	C	0.915104	-0.340915	0.156944
C40	C	0.915934	-0.290459	0.156941
C41	C	0.920355	-0.267507	0.078504
C42	C	0.921207	-0.217067	0.078511
N43	N	0.925620	-0.194111	0.000080
C44	C	0.929202	-0.221608	-0.078356
C45	C	0.913625	-0.676179	0.078476
C46	C	0.912795	-0.726632	0.078472
C47	C	0.920792	-0.731173	-0.078401
C48	C	0.921627	-0.680720	-0.078397
C49	C	0.918038	-0.653224	0.000044
C50	C	0.930960	-0.115660	-0.078340
C51	C	0.931800	-0.065206	-0.078328
C52	C	0.923800	-0.060669	0.078545
C53	C	0.922964	-0.111118	0.078534
C54	C	0.926542	-0.138613	0.000084
O55	O	0.918264	-0.189005	0.145181
O56	O	0.933022	-0.197443	-0.145057
C57	C	0.925861	-0.423410	-0.078373
C58	C	0.921442	-0.446362	0.000057
C59	C	0.917859	-0.418865	0.078493
C60	C	0.920612	-0.496815	0.000054
C61	C	0.924194	-0.524312	-0.078381
C62	C	0.928607	-0.501356	-0.156813
C63	C	0.929444	-0.450907	-0.156809
C64	C	0.913447	-0.441820	0.156925
C65	C	0.912611	-0.492270	0.156913
C66	C	0.916193	-0.519767	0.078478
C67	C	1.065212	0.106430	0.000089
C68	C	1.151951	0.110950	0.000092
C69	C	0.915500	0.192175	0.000051
C70	C	0.916378	0.245871	0.000037
N71	N	0.911864	0.110035	0.204841
N72	N	0.932738	0.098123	-0.204689
C73	C	0.963108	0.080708	0.250131
C74	C	0.958505	0.083345	0.340702
C75	C	0.902660	0.115312	0.385982
C76	C	0.851410	0.144640	0.340686
C77	C	0.856010	0.142001	0.250116
C78	C	0.886088	0.124812	0.659445
C79	C	0.881493	0.127451	0.750021
C80	C	0.988588	0.066155	0.750031
C81	C	0.993186	0.063520	0.659460
C82	C	0.941933	0.092846	0.614171
C83	C	0.897955	0.118009	0.478561
C84	C	0.946635	0.090147	0.521594
H85	H	0.325262	0.039898	0.000114
H86	H	0.920886	-0.038272	0.142405
O87	O	0.550229	0.002767	-0.000050
C88	C	0.507451	-0.004465	-0.074557
H89	H	0.529064	0.020058	-0.126651
H90	H	0.516521	-0.043829	-0.099559
H91	H	0.442178	0.004525	-0.057709
H92	H	0.925226	-0.662036	-0.142267
H93	H	1.038659	0.037490	0.622595
O94	O	0.908445	-0.514594	0.233088
C95	C	0.975405	-0.546353	0.237802
H96	H	1.025264	-0.534328	0.193315
H97	H	0.994563	-0.545822	0.307184
H98	H	0.960533	-0.584589	0.216718
H99	H	0.667177	0.175972	0.000026
O100	O	0.910767	-0.363124	0.233217
C101	C	0.907797	-0.328027	0.302435
H102	H	0.884821	-0.291747	0.279422
H103	H	0.866797	-0.339496	0.357285
H104	H	0.969368	-0.324457	0.326568
O105	O	0.931942	-0.528090	-0.232981
C106	C	0.863999	-0.554721	-0.237652
H107	H	0.814666	-0.536335	-0.193148
H108	H	0.844793	-0.556409	-0.307023
H109	H	0.877597	-0.592954	-0.216562
O110	O	1.008312	0.054930	0.384797
C111	C	1.053542	0.084335	0.437152
H112	H	1.021254	0.121242	0.450702
H113	H	1.062920	0.066540	0.500851
H114	H	1.113027	0.088999	0.402240
O115	O	0.924407	-0.757873	-0.154618
C116	C	0.994731	-0.749617	-0.202351
H117	H	1.039950	-0.736299	-0.156465
H118	H	1.018715	-0.784734	-0.237926
H119	H	0.982394	-0.721143	-0.251262
O120	O	0.827132	0.158447	0.793973
C121	C	0.751003	0.146740	0.771849
H122	H	0.752375	0.107319	0.746962
H123	H	0.708697	0.152398	0.831420
H124	H	0.730374	0.171036	0.719275
O125	O	0.836241	0.153234	0.615415
C126	C	0.791025	0.123839	0.563025
H127	H	0.788782	0.086479	0.590336
H128	H	0.728726	0.140951	0.561995
H129	H	0.819001	0.120320	0.494383
O130	O	1.038335	0.037594	0.793933
C131	C	1.027330	-0.011403	0.771840
H132	H	1.000552	-0.014506	0.706082
H133	H	1.086517	-0.032853	0.768746
H134	H	0.986025	-0.026469	0.822823
O135	O	0.934538	-0.142416	-0.154493
C136	C	1.002008	-0.174423	-0.159208
H137	H	1.020982	-0.180920	-0.091110
H138	H	0.987886	-0.210251	-0.192430
H139	H	1.051713	-0.157981	-0.197895
H140	H	0.805936	0.170666	0.377558
H141	H	0.992101	0.064117	0.484725
O142	O	0.511485	0.174829	0.000004
C143	C	0.556223	0.216124	0.000003
H144	H	0.618593	0.205569	-0.027242
H145	H	0.527900	0.244194	-0.041778
H146	H	0.558352	0.232000	0.069027
O147	O	0.806197	0.170540	0.206252
C148	C	0.755907	0.199313	0.265636
H149	H	0.784659	0.203070	0.330192
H150	H	0.744833	0.236638	0.239449
H151	H	0.697566	0.181497	0.275286
O152	O	0.843745	0.149127	0.522449
C153	C	0.856987	0.196837	0.500316
H154	H	0.890448	0.196114	0.434553
H155	H	0.798110	0.218103	0.497218
H156	H	0.893107	0.214874	0.551280
O157	O	0.908640	-0.748955	0.154641
C158	C	0.975607	-0.780709	0.159347
H159	H	1.025458	-0.768680	0.114855
H160	H	0.994773	-0.780176	0.228727
H161	H	0.960741	-0.818947	0.138267
O162	O	0.710817	0.011089	0.000046
C163	C	0.666079	-0.030205	0.000082
H164	H	0.606477	-0.021237	-0.027158
H165	H	0.698650	-0.060706	-0.041685
H166	H	0.656935	-0.042064	0.069117
O167	O	0.428299	0.168223	-0.000098
C168	C	0.478656	0.171112	-0.074613
H169	H	0.462337	0.143556	-0.126684
H170	H	0.472135	0.209019	-0.099647
H171	H	0.542214	0.163100	-0.057765
O172	O	0.936060	-0.042987	-0.154603
C173	C	0.939060	-0.078080	-0.223830
H174	H	0.912542	-0.112391	-0.200837
H175	H	0.904145	-0.063583	-0.278692
H176	H	1.002916	-0.086642	-0.247940
O177	O	0.294210	0.205437	0.000088
C178	C	0.232064	0.241158	0.000060
H179	H	0.175475	0.226131	0.027309
H180	H	0.246590	0.274115	0.041823
H181	H	0.223873	0.252113	-0.068973
O182	O	0.133564	0.196975	0.000102
C183	C	0.055008	0.183415	0.000090
H184	H	0.050968	0.146131	0.027341
H185	H	0.015613	0.210879	0.041860
H186	H	0.034922	0.182271	-0.068938
O187	O	0.933586	-0.428567	-0.232961
C188	C	0.866569	-0.396851	-0.237650
H189	H	0.840690	-0.386404	-0.169543
H190	H	0.884031	-0.362948	-0.270895
H191	H	0.820797	-0.415554	-0.276304
H192	H	1.008586	0.054680	0.213270
H193	H	0.421180	0.047114	0.000121
O194	O	0.172684	0.024964	0.000158
C195	C	0.234829	-0.010760	0.000150
H196	H	0.288647	0.005850	0.027388
H197	H	0.216048	-0.041286	0.041932
H198	H	0.250043	-0.025731	-0.068876
H199	H	0.934033	-0.372390	-0.220674
O200	O	0.936076	-0.277305	-0.233036
C201	C	0.870591	-0.288370	-0.280707
H202	H	0.820728	-0.299008	-0.234767
H203	H	0.850196	-0.255343	-0.316336
H204	H	0.887896	-0.319706	-0.329567
H205	H	0.910706	-0.653796	0.142355
O206	O	0.912310	-0.263721	0.233116
C207	C	0.844860	-0.231699	0.237788
H208	H	0.799560	-0.246309	0.193268
H209	H	0.818602	-0.228211	0.307155
H210	H	0.861875	-0.194682	0.216722
H211	H	0.910530	-0.419437	0.220797
O212	O	0.918639	-0.133339	0.154802
C213	C	0.915681	-0.098249	0.224031
H214	H	0.892707	-0.061965	0.201034
H215	H	0.874687	-0.109722	0.278883
H216	H	0.977257	-0.094685	0.248158
