data_functionalizedCrystal
_audit_creation_method	'MofGen! by Chris Wilmer'
_symmetry_space_group_name_H-M	'P1'
_symmetry_Int_Tables_number	1
_symmetry_cell_setting	triclinic
loop_
_symmetry_equiv_pos_as_xyz
  x,y,z
_cell_length_a	10.686220
_cell_length_b	10.685194
_cell_length_c	12.759393
_cell_angle_alpha	94.402269
_cell_angle_beta	85.651479
_cell_angle_gamma	99.069756
loop_
_atom_site_label
_atom_site_type_symbol
_atom_site_fract_x
_atom_site_fract_y
_atom_site_fract_z
Zn1	Zn	1.901865	-0.356253	0.449981
Zn2	Zn	2.401865	0.143747	0.949981
Zn3	Zn	1.885485	-0.568578	0.261787
Zn4	Zn	2.385485	-0.068578	0.761787
Zn5	Zn	1.689595	-0.372621	0.286808
Zn6	Zn	2.189595	0.127379	0.786808
Zn7	Zn	1.673348	-0.584780	0.449918
Zn8	Zn	2.173348	-0.084780	0.949918
O9	O	1.787573	-0.470558	0.362123
O10	O	2.287573	0.029442	0.862123
O11	O	2.077308	-0.370788	0.414571
O12	O	2.577308	0.129212	0.914571
O13	O	1.859443	-0.542653	0.118084
O14	O	2.359443	-0.042653	0.618084
O15	O	1.731407	-0.192802	0.318951
O16	O	2.231407	0.307198	0.818951
O17	O	2.065273	-0.526782	0.276306
O18	O	2.565273	-0.026782	0.776306
O19	O	1.887362	-0.180777	0.438834
O20	O	2.387362	0.319223	0.938834
O21	O	1.715524	-0.398684	0.136467
O22	O	2.215524	0.101316	0.636467
O23	O	1.509824	-0.414395	0.318890
O24	O	2.009824	0.085605	0.818890
O25	O	1.703717	-0.554396	0.596948
O26	O	2.203717	-0.054396	1.096948
O27	O	1.497887	-0.570267	0.438726
O28	O	1.997887	-0.070267	0.938726
O29	O	1.871608	-0.386499	0.596995
O30	O	2.371608	0.113501	1.096995
O31	O	1.843690	-0.748374	0.276245
O32	O	2.343690	-0.248374	0.776245
O33	O	1.687834	-0.760278	0.414464
O34	O	2.187834	-0.260278	0.914464
C35	C	1.457802	-0.495866	0.381517
C36	C	1.957802	0.004134	0.881517
C37	C	1.316722	-0.506724	0.389837
C38	C	1.816722	-0.006724	0.889837
C39	C	1.762256	-0.800386	0.342653
C40	C	2.262256	-0.300386	0.842653
C41	C	1.751541	-0.941478	0.334352
C42	C	2.251541	-0.441478	0.834352
C43	C	2.118632	-0.445152	0.342655
C44	C	2.618632	0.054848	0.842655
C45	C	2.259710	-0.434325	0.334358
C46	C	2.759710	0.065675	0.834358
C47	C	1.787677	-0.470429	0.636158
C48	C	2.287677	0.029571	1.136158
C49	C	1.787722	-0.470374	0.752936
C50	C	2.287722	0.029626	1.252936
C51	C	1.813024	-0.139440	0.381691
C52	C	2.313024	0.360560	0.881691
C53	C	1.823870	0.001663	0.390029
C54	C	2.323870	0.501663	0.890029
C55	C	1.787549	-0.470589	0.089155
C56	C	2.287549	0.029411	0.589155
C57	C	1.787778	-0.470268	-0.027615
C58	C	2.287778	0.029732	0.472385
C59	C	1.875149	-0.382936	0.807824
C60	C	2.375149	0.117064	1.307824
C61	C	1.875175	-0.382880	0.917550
C62	C	2.375175	0.117120	1.417550
C63	C	1.700341	-0.557710	0.917490
C64	C	2.200341	-0.057710	1.417490
C65	C	1.700311	-0.557759	0.807766
C66	C	2.200311	-0.057759	1.307766
H67	H	1.318830	-0.364036	0.280495
H68	H	1.818830	0.135964	0.780495
Cl69	Cl	1.985033	-0.273076	0.738899
Cl70	Cl	2.485033	0.226924	1.238899
Cl71	Cl	1.225442	-0.615268	0.472993
Cl72	Cl	1.725442	-0.115268	0.972993
H73	H	1.893993	-0.939076	0.444053
H74	H	2.393993	-0.439076	0.944053
H75	H	1.629177	-0.628859	0.962146
H76	H	2.129177	-0.128859	1.462146
H77	H	1.681403	-1.000748	0.280335
H78	H	2.181403	-0.500748	0.780335
Cl79	Cl	1.985100	-0.272963	0.986547
Cl80	Cl	2.485100	0.227037	1.486547
Cl81	Cl	1.590386	-0.667684	0.738759
Cl82	Cl	2.090386	-0.167684	1.238759
