data_functionalizedCrystal
_audit_creation_method	'MofGen! by Chris Wilmer'
_symmetry_space_group_name_H-M	'P1'
_symmetry_Int_Tables_number	1
_symmetry_cell_setting	triclinic
loop_
_symmetry_equiv_pos_as_xyz
  x,y,z
_cell_length_a	15.995280
_cell_length_b	12.503572
_cell_length_c	14.044220
_cell_angle_alpha	86.156832
_cell_angle_beta	91.673763
_cell_angle_gamma	86.481942
loop_
_atom_site_label
_atom_site_type_symbol
_atom_site_fract_x
_atom_site_fract_y
_atom_site_fract_z
O1	O	-1.124544	0.089342	0.116373
O2	O	-0.624544	0.589342	0.616373
O3	O	-0.881893	0.089340	0.131530
O4	O	-0.381893	0.589340	0.631530
O5	O	-0.999576	0.089330	-0.014031
O6	O	-0.499576	0.589330	0.485969
O7	O	-1.006861	0.089351	0.261935
O8	O	-0.506861	0.589351	0.761935
O9	O	-0.990727	-0.089311	-0.003066
O10	O	-0.490727	0.410689	0.496934
O11	O	-0.873044	-0.089301	0.142495
O12	O	-0.373044	0.410699	0.642495
O13	O	-1.115695	-0.089300	0.127338
O14	O	-0.615695	0.410700	0.627338
Cu15	Cu	-0.993561	-0.105612	0.135918
Cu16	Cu	-0.493561	0.394388	0.635918
Cu17	Cu	-1.004026	0.105652	0.122951
Cu18	Cu	-0.504026	0.605652	0.622951
O19	O	-0.998012	-0.089290	0.272900
O20	O	-0.498012	0.410710	0.772900
C21	C	-0.846226	0.000019	0.136398
C22	C	-0.346226	0.500019	0.636398
C23	C	-0.753135	0.000018	0.134555
C24	C	-0.253135	0.500018	0.634555
C25	C	-0.414889	0.000033	0.127777
C26	C	0.085111	0.500033	0.627777
C27	C	-0.446069	0.000440	0.232809
C28	C	0.053931	0.500440	0.732809
C29	C	-0.542874	0.000032	0.234826
C30	C	-0.042874	0.500032	0.734826
C31	C	-0.582697	0.000027	0.131140
C32	C	-0.082697	0.500027	0.631140
C33	C	-0.544619	-0.101986	0.084879
C34	C	-0.044619	0.398014	0.584879
C35	C	-0.447730	-0.102066	0.083624
C36	C	0.052270	0.397934	0.583624
C37	C	-0.457777	0.101082	0.069009
C38	C	0.042223	0.601082	0.569009
C39	C	-0.554627	0.102425	0.072815
C40	C	-0.054627	0.602425	0.572815
C41	C	-0.677535	0.000019	0.133036
C42	C	-0.177535	0.500019	0.633036
C43	C	-0.320051	0.000034	0.125879
C44	C	0.179949	0.500034	0.625879
N45	N	-0.986207	-0.254203	0.145038
N46	N	-0.486207	0.245797	0.645038
C47	C	-0.991962	0.000009	-0.043862
C48	C	-0.491962	0.500009	0.456138
C49	C	-0.982451	0.000008	-0.149085
C50	C	-0.482451	0.500008	0.350915
C51	C	-0.151361	0.000026	0.122483
C52	C	0.348639	0.500026	0.622483
C53	C	-0.244451	0.000042	0.124363
C54	C	0.255549	0.500042	0.624363
C55	C	-0.975388	-0.473318	0.158462
C56	C	-0.475388	0.026682	0.658462
C57	C	-1.022203	-0.526649	0.100402
C58	C	-0.522203	-0.026649	0.600402
C59	C	-1.016183	-0.648571	0.107871
C60	C	-0.516183	-0.148571	0.607871
C61	C	-0.981407	-0.351384	0.150994
C62	C	-0.481407	0.148616	0.650994
N63	N	-1.011387	0.254244	0.113823
N64	N	-0.511387	0.754244	0.613823
C65	C	-0.965064	0.000023	-0.341742
C66	C	-0.465064	0.500023	0.158258
C67	C	-1.032521	0.000027	-0.399395
C68	C	-0.532521	0.500027	0.100605
C69	C	-1.022846	0.000035	-0.506596
C70	C	-0.522846	0.500035	-0.006596
C71	C	-0.974737	0.000015	-0.234531
C72	C	-0.474737	0.500015	0.265469
C73	C	-1.005625	0.000034	0.302731
C74	C	-0.505625	0.500034	0.802731
C75	C	-1.015137	0.000042	0.407953
C76	C	-0.515137	0.500042	0.907953
H77	H	-0.424721	0.073599	0.268814
H78	H	0.075279	0.573599	0.768814
N79	N	-0.878941	0.000008	-0.382993
N80	N	-0.378941	0.500008	0.117007
H81	H	-0.850760	0.066225	-0.364955
H82	H	-0.350760	0.566225	0.135045
H83	H	-0.884218	-0.000031	-0.454827
H84	H	-0.384218	0.499969	0.045173
H85	H	-0.419852	-0.178319	0.124682
H86	H	0.080148	0.321681	0.624682
N87	N	-0.916313	-0.534117	0.231733
N88	N	-0.416313	-0.034117	0.731733
H89	H	-0.920336	-0.613857	0.226749
H90	H	-0.420336	-0.113857	0.726749
H91	H	-0.932063	-0.514524	0.297765
H92	H	-0.432063	-0.014524	0.797765
N93	N	-0.576953	0.096897	0.283357
N94	N	-0.076953	0.596897	0.783357
H95	H	-0.529080	0.140246	0.303632
H96	H	-0.029080	0.640246	0.803632
H97	H	-0.608418	0.072457	0.341373
H98	H	-0.108418	0.572457	0.841373
H99	H	-1.097542	0.000099	-0.368247
H100	H	-0.597542	0.500099	0.131753
N101	N	-0.428687	0.203506	0.106321
N102	N	0.071313	0.703506	0.606321
H103	H	-0.456976	0.267320	0.067613
H104	H	0.043024	0.767320	0.567613
H105	H	-0.365933	0.204845	0.100884
H106	H	0.134067	0.704845	0.600884
H107	H	-0.560740	-0.073214	0.280704
H108	H	-0.060740	0.426786	0.780704
N109	N	-0.406852	-0.095914	0.292074
N110	N	0.093148	0.404086	0.792074
H111	H	-0.368976	-0.139826	0.251182
H112	H	0.131024	0.360174	0.751182
H113	H	-0.452396	-0.141385	0.317474
H114	H	0.047604	0.358615	0.817474
H115	H	-0.570600	-0.105784	0.008813
H116	H	-0.070600	0.394216	0.508813
N117	N	-0.420521	-0.108208	-0.018026
N118	N	0.079479	0.391792	0.481974
H119	H	-0.471462	-0.110857	-0.061821
H120	H	0.028538	0.389143	0.438179
H121	H	-0.382566	-0.175071	-0.022901
H122	H	0.117434	0.324929	0.477099
N123	N	-1.081283	-0.465849	0.027127
N124	N	-0.581283	0.034151	0.527127
H125	H	-1.077267	-0.386107	0.032109
H126	H	-0.577267	0.113893	0.532109
H127	H	-1.140565	-0.485430	0.039169
H128	H	-0.640565	0.014570	0.539169
N129	N	-0.431642	0.101992	-0.033478
N130	N	0.068358	0.601992	0.466522
H131	H	-0.368759	0.104782	-0.035821
H132	H	0.131241	0.604782	0.464179
H133	H	-0.459445	0.167084	-0.070826
H134	H	0.040555	0.667084	0.429174
H135	H	-0.563642	-0.177901	0.126013
H136	H	-0.063642	0.322099	0.626013
H137	H	-0.579792	0.177893	0.106425
H138	H	-0.079792	0.677893	0.606425
H139	H	-0.582250	0.108582	-0.003243
H140	H	-0.082250	0.608582	0.496757
