data_functionalizedCrystal
_audit_creation_method	'MofGen! by Chris Wilmer'
_symmetry_space_group_name_H-M	'P1'
_symmetry_Int_Tables_number	1
_symmetry_cell_setting	triclinic
loop_
_symmetry_equiv_pos_as_xyz
  x,y,z
_cell_length_a	18.101398
_cell_length_b	18.101395
_cell_length_c	18.101389
_cell_angle_alpha	89.983159
_cell_angle_beta	90.024327
_cell_angle_gamma	89.973629
loop_
_atom_site_label
_atom_site_type_symbol
_atom_site_fract_x
_atom_site_fract_y
_atom_site_fract_z
Zn1	Zn	1.132121	0.295001	0.418847
Zn2	Zn	1.632121	0.795001	0.918847
Zn3	Zn	1.132017	0.418826	0.295009
Zn4	Zn	1.632017	0.918826	0.795009
Zn5	Zn	1.008280	0.294993	0.295008
Zn6	Zn	1.508280	0.794993	0.795008
Zn7	Zn	1.008231	0.418795	0.418797
Zn8	Zn	1.508231	0.918795	0.918797
O9	O	1.070162	0.356904	0.356915
O10	O	1.570162	0.856904	0.856915
O11	O	1.235740	0.311443	0.402440
O12	O	1.735740	0.811443	0.902440
O13	O	1.115580	0.402410	0.191376
O14	O	1.615580	0.902410	0.691376
O15	O	1.024772	0.191361	0.311456
O16	O	1.524772	0.691361	0.811456
O17	O	1.235664	0.402417	0.311457
O18	O	1.735664	0.902417	0.811457
O19	O	1.115757	0.191367	0.402440
O20	O	1.615757	0.691367	0.902440
O21	O	1.024671	0.311430	0.191375
O22	O	1.524671	0.811430	0.691375
O23	O	0.904641	0.311399	0.311408
O24	O	1.404641	0.811399	0.811408
O25	O	1.024688	0.402363	0.522437
O26	O	1.524688	0.902363	1.022437
O27	O	0.904604	0.402356	0.402355
O28	O	1.404604	0.902356	0.902355
O29	O	1.115710	0.311412	0.522473
O30	O	1.615710	0.811412	1.022473
O31	O	1.115532	0.522455	0.311409
O32	O	1.615532	1.022455	0.811409
O33	O	1.024587	0.522432	0.402356
O34	O	1.524587	1.022432	0.902356
C35	C	0.877752	0.356874	0.356877
C36	C	1.377752	0.856874	0.856877
C37	C	0.795437	0.356879	0.356878
C38	C	1.295437	0.856879	0.856878
C39	C	1.070063	0.549314	0.356893
C40	C	1.570063	1.049314	0.856893
C41	C	1.070088	0.631628	0.356909
C42	C	1.570088	1.131628	0.856909
C43	C	0.496347	0.356925	0.356940
C44	C	0.996347	0.856925	0.856940
C45	C	0.527670	0.299412	0.299997
C46	C	1.027670	0.799412	0.799997
C47	C	0.613288	0.299566	0.299754
C48	C	1.113288	0.799566	0.799754
C49	C	0.644729	0.356901	0.356909
C50	C	1.144729	0.856901	0.856909
C51	C	0.613611	0.434909	0.335587
C52	C	1.113611	0.934909	0.835587
C53	C	0.527966	0.434590	0.335191
C54	C	1.027966	0.934590	0.835191
C55	C	0.527961	0.337109	0.435339
C56	C	1.027961	0.837109	0.935339
C57	C	0.613612	0.335371	0.434911
C58	C	1.113612	0.835371	0.934911
C59	C	0.728589	0.356893	0.356893
C60	C	1.228589	0.856893	0.856893
C61	C	0.412487	0.356939	0.356954
C62	C	0.912487	0.856939	0.856954
C63	C	1.070205	0.356885	0.550077
C64	C	1.570205	0.856885	1.050077
C65	C	1.070223	0.356877	0.632391
C66	C	1.570223	0.856877	1.132391
C67	C	1.263324	0.356934	0.356954
C68	C	1.763324	0.856934	0.856954
C69	C	1.345638	0.356948	0.356971
C70	C	1.845638	0.856948	0.856971
C71	C	1.070282	0.163742	0.356953
C72	C	1.570282	0.663742	0.856953
C73	C	1.070333	0.081428	0.356970
C74	C	1.570333	0.581428	0.856970
C75	C	1.070251	0.930719	0.356949
C76	C	1.570251	1.430719	0.856949
C77	C	1.013163	0.899410	0.414312
C78	C	1.513163	1.399410	0.914312
C79	C	1.012892	0.813792	0.414133
C80	C	1.512892	1.313792	0.914133
C81	C	1.070170	0.782337	0.356930
C82	C	1.570170	1.282337	0.856930
C83	C	1.049041	0.813472	0.278878
C84	C	1.549041	1.313472	0.778878
C85	C	1.048673	0.899117	0.279221
C86	C	1.548673	1.399117	0.779221
C87	C	1.148593	0.899073	0.376950
C88	C	1.648593	1.399073	0.876950
C89	C	1.148132	0.813422	0.378661
C90	C	1.648132	1.313422	0.878661
C91	C	1.070126	0.698477	0.356914
C92	C	1.570126	1.198477	0.856914
C93	C	1.070293	1.014579	0.356959
C94	C	1.570293	1.514579	0.856959
C95	C	1.070162	0.356869	0.164505
C96	C	1.570162	0.856869	0.664505
C97	C	1.070287	0.356668	0.082191
C98	C	1.570287	0.856668	0.582191
C99	C	1.070266	0.356738	0.931482
C100	C	1.570266	0.856738	1.431482
C101	C	1.012801	0.413780	0.900134
C102	C	1.512801	0.913780	1.400134
C103	C	1.012956	0.414045	0.814516
C104	C	1.512956	0.914045	1.314516
C105	C	1.070244	0.356807	0.783100
C106	C	1.570244	0.856807	1.283100
C107	C	1.148270	0.377998	0.814206
C108	C	1.648270	0.877998	1.314206
C109	C	1.147949	0.378372	0.899851
C110	C	1.647949	0.878372	1.399851
C111	C	1.050385	0.278379	0.899905
C112	C	1.550385	0.778379	1.399905
C113	C	1.048649	0.278832	0.814254
C114	C	1.548649	0.778832	1.314254
C115	C	1.070237	0.356845	0.699240
C116	C	1.570237	0.856845	1.199240
C117	C	1.070279	0.356702	1.015342
C118	C	1.570279	0.856702	1.515342
H119	H	0.634329	0.241719	0.313119
H120	H	1.134329	0.741719	0.813119
O121	O	1.170262	0.454249	0.926333
O122	O	1.670262	0.954249	1.426333
H123	H	1.181176	0.490330	0.877968
H124	H	1.681176	0.990330	1.377968
H125	H	0.507099	0.241388	0.313215
H126	H	1.007099	0.741388	0.813215
O127	O	0.499150	0.316573	0.223486
O128	O	0.999150	0.816573	0.723486
H129	H	0.462762	0.365886	0.225839
H130	H	0.962762	0.865886	0.725839
O131	O	1.206596	0.325745	0.927333
O132	O	1.706596	0.825745	1.427333
H133	H	1.235063	0.300144	0.879448
H134	H	1.735063	0.800144	1.379448
O135	O	0.976327	0.252808	0.928492
O136	O	1.476327	0.752808	1.428492
H137	H	0.963581	0.197449	0.905433
H138	H	1.463581	0.697449	1.405433
O139	O	1.030278	0.926630	0.491277
O140	O	1.530278	1.426630	0.991277
H141	H	0.982369	0.958332	0.512720
H142	H	1.482369	1.458332	1.012720
H143	H	0.633956	0.277966	0.450989
H144	H	1.133956	0.777966	0.950989
H145	H	0.991406	0.919153	0.262279
H146	H	1.491406	1.419153	0.762279
H147	H	0.635017	0.374209	0.479611
H148	H	1.135017	0.874209	0.979611
O149	O	0.501453	0.456839	0.259270
O150	O	1.001453	0.956839	0.759270
H151	H	0.467298	0.507591	0.263620
H152	H	0.967298	1.007591	0.763620
O153	O	1.102384	0.786486	0.220717
O154	O	1.602384	1.286486	0.720717
H155	H	1.086233	0.809271	0.166112
H156	H	1.586233	1.309271	0.666112
O157	O	1.207443	0.785075	0.327330
O158	O	1.707443	1.285075	0.827330
H159	H	1.209369	0.723853	0.330201
H160	H	1.709369	1.223853	0.830201
O161	O	0.935925	0.396395	0.927395
O162	O	1.435925	0.896395	1.427395
H163	H	0.899296	0.385348	0.879468
H164	H	1.399296	0.885348	1.379468
H165	H	1.192236	0.337757	0.793859
H166	H	1.692236	0.837757	1.293859
O167	O	1.170987	0.453070	0.785818
O168	O	1.670987	0.953070	1.285818
H169	H	1.126836	0.475409	0.749563
H170	H	1.626836	0.975409	1.249563
H171	H	0.633975	0.478909	0.375763
H172	H	1.133975	0.978909	0.875763
O173	O	1.101364	0.926557	0.220682
O174	O	1.601364	1.426557	0.720682
H175	H	1.101503	0.987875	0.220494
H176	H	1.601503	1.487875	0.720494
H177	H	0.991229	0.262852	0.793921
H178	H	1.491229	0.762852	1.293921
H179	H	1.087450	0.234076	0.792868
H180	H	1.587450	0.734076	1.292868
H181	H	0.955097	0.400784	0.793483
H182	H	1.455097	0.900784	1.293483
H183	H	1.092240	0.235880	0.920179
H184	H	1.592240	0.735880	1.420179
H185	H	0.633741	0.312665	0.241661
H186	H	1.133741	0.812665	0.741661
H187	H	0.507244	0.478892	0.374857
H188	H	1.007244	0.978892	0.874857
O189	O	0.935977	0.786717	0.396580
O190	O	1.435977	1.286717	0.896580
H191	H	0.937453	0.752820	0.345514
H192	H	1.437453	1.252820	0.845514
H193	H	0.992380	0.792080	0.261633
H194	H	1.492380	1.292080	0.761633
O195	O	1.169255	0.786456	0.454742
O196	O	1.669255	1.286456	0.954742
H197	H	1.124421	0.751057	0.476990
H198	H	1.624421	1.251057	0.976990
H199	H	1.026111	0.792740	0.472007
H200	H	1.526111	1.292740	0.972007
O201	O	0.641964	0.457563	0.260485
O202	O	1.141964	0.957563	0.760485
H203	H	0.678208	0.413394	0.238225
H204	H	1.178208	0.913394	0.738225
H205	H	0.506389	0.281216	0.454725
H206	H	1.006389	0.781216	0.954725
H207	H	0.507705	0.378999	0.477766
H208	H	1.007705	0.878999	0.977766
H209	H	0.955448	0.920990	0.401230
H210	H	1.455448	1.420990	0.901230
H211	H	1.191125	0.919319	0.335170
H212	H	1.691125	1.419319	0.835170
O213	O	1.174113	0.927619	0.451060
O214	O	1.674113	1.427619	0.951060
H215	H	1.131238	0.964685	0.474466
H216	H	1.631238	1.464685	0.974466
H217	H	1.025796	0.471508	0.921661
H218	H	1.525796	0.971508	1.421661
H219	H	1.026082	0.472127	0.794035
H220	H	1.526082	0.972127	1.294035
