data_functionalizedCrystal
_audit_creation_method	'MofGen! by Chris Wilmer'
_symmetry_space_group_name_H-M	'P1'
_symmetry_Int_Tables_number	1
_symmetry_cell_setting	triclinic
loop_
_symmetry_equiv_pos_as_xyz
  x,y,z
_cell_length_a	14.044220
_cell_length_b	14.971506
_cell_length_c	14.048226
_cell_angle_alpha	89.993237
_cell_angle_beta	90.005040
_cell_angle_gamma	91.594367
loop_
_atom_site_label
_atom_site_type_symbol
_atom_site_fract_x
_atom_site_fract_y
_atom_site_fract_z
O1	O	-0.123630	1.196675	-0.079165
O2	O	0.376370	1.696675	0.420835
O3	O	-0.138404	0.937441	-0.079166
O4	O	0.361596	1.437441	0.420834
O5	O	0.006973	1.063167	-0.079161
O6	O	0.506973	1.563167	0.420839
O7	O	-0.269006	1.070949	-0.079170
O8	O	0.230994	1.570949	0.420830
O9	O	0.006981	1.063150	0.079160
O10	O	0.506981	1.563150	0.579160
O11	O	-0.138395	0.937424	0.079156
O12	O	0.361605	1.437424	0.579156
O13	O	-0.123621	1.196658	0.079156
O14	O	0.376379	1.696658	0.579156
Zn15	Zn	-0.131007	1.067038	0.104293
Zn16	Zn	0.368993	1.567038	0.604293
Zn17	Zn	-0.131018	1.067061	-0.104302
Zn18	Zn	0.368982	1.567061	0.395698
O19	O	-0.268998	1.070932	0.079152
O20	O	0.231002	1.570932	0.579152
C21	C	-0.137735	0.904056	-0.000005
C22	C	0.362265	1.404056	0.499995
C23	C	-0.135745	0.804603	-0.000005
C24	C	0.364255	1.304603	0.499995
C25	C	-0.213556	0.372450	-0.000017
C26	C	0.286444	0.872450	0.499983
C27	C	-0.215418	0.465897	-0.000021
C28	C	0.284582	0.965897	0.499979
C29	C	-0.130004	0.516388	-0.000015
C30	C	0.369996	1.016388	0.499985
C31	C	-0.042722	0.473428	-0.000013
C32	C	0.457278	0.973428	0.499987
C33	C	-0.040860	0.379983	-0.000016
C34	C	0.459140	0.879983	0.499984
C35	C	-0.046608	0.668197	-0.000005
C36	C	0.453392	1.168197	0.499995
C37	C	-0.048469	0.761649	-0.000001
C38	C	0.451531	1.261649	0.499999
C39	C	-0.221166	0.754112	-0.000011
C40	C	0.278834	1.254112	0.499989
C41	C	-0.219305	0.660666	-0.000014
C42	C	0.280695	1.160666	0.499986
C43	C	-0.132022	0.617712	-0.000010
C44	C	0.367978	1.117712	0.499990
C45	C	-0.304320	1.074347	-0.000010
C46	C	0.195680	1.574347	0.499990
C47	C	-0.409558	1.084508	-0.000014
C48	C	0.090442	1.584508	0.499986
C49	C	-0.602242	1.103085	-0.000009
C50	C	-0.102242	1.603085	0.499991
C51	C	-0.659788	1.031018	-0.000009
C52	C	-0.159788	1.531018	0.499991
C53	C	-0.767004	1.041354	-0.000006
C54	C	-0.267004	1.541354	0.499994
C55	C	-0.495016	1.092750	-0.000012
C56	C	0.004984	1.592750	0.499988
C57	C	0.042295	1.059752	-0.000002
C58	C	0.542295	1.559752	0.499998
C59	C	0.147533	1.049591	-0.000004
C60	C	0.647533	1.549591	0.499996
C61	C	-0.124290	1.230043	-0.000007
C62	C	0.375710	1.730043	0.499993
C63	C	-0.126280	1.329496	-0.000013
C64	C	0.373720	1.829496	0.499987
N65	N	-0.130999	1.067029	0.246653
N66	N	0.369001	1.567029	0.746653
N67	N	-0.131019	1.067076	-0.246663
N68	N	0.368981	1.567076	0.253337
C69	C	-0.066653	1.122722	0.296473
C70	C	0.433347	1.622722	0.796473
C71	C	-0.066652	1.122728	0.396131
C72	C	0.433348	1.622728	0.896131
C73	C	-0.131003	1.067045	0.445967
C74	C	0.368997	1.567045	0.945967
C75	C	-0.195352	1.011346	0.396140
C76	C	0.304648	1.511346	0.896140
C77	C	-0.195347	1.011336	0.296484
C78	C	0.304653	1.511336	0.796484
C79	C	-0.195359	1.011373	0.603854
C80	C	0.304641	1.511373	1.103854
C81	C	-0.195365	1.011384	0.703517
C82	C	0.304635	1.511384	1.203517
C83	C	-0.066664	1.122764	0.703501
C84	C	0.433336	1.622764	1.203501
C85	C	-0.066659	1.122754	0.603845
C86	C	0.433341	1.622754	1.103845
C87	C	-0.131009	1.067056	0.554025
C88	C	0.368991	1.567056	1.054025
H89	H	0.030209	0.345011	-0.000014
H90	H	0.530209	0.845011	0.499986
Cl91	Cl	-0.611537	0.923774	-0.000001
Cl92	Cl	-0.111537	1.423774	0.499999
H93	H	-0.288856	0.619559	-0.000013
H94	H	0.211144	1.119559	0.499987
Cl95	Cl	0.014242	1.192742	0.458764
Cl96	Cl	0.514242	1.692742	0.958764
Cl97	Cl	-0.650495	1.210321	-0.000004
Cl98	Cl	-0.150495	1.710321	0.499996
H99	H	0.026824	0.514545	-0.000013
H100	H	0.526824	1.014545	0.499987
Cl101	Cl	-0.330893	0.808110	-0.000004
Cl102	Cl	0.169107	1.308110	0.499996
Cl103	Cl	-0.276265	0.941377	0.766160
Cl104	Cl	0.223735	1.441377	1.266160
Cl105	Cl	0.014246	1.192732	0.233833
Cl106	Cl	0.514246	1.692732	0.733833
H107	H	-0.286487	0.500866	-0.000034
H108	H	0.213513	1.000866	0.499966
Cl109	Cl	0.063121	0.614199	0.000005
Cl110	Cl	0.563121	1.114199	0.500005
Cl111	Cl	-0.320940	0.308985	-0.000018
Cl112	Cl	0.179060	0.808985	0.499982
H113	H	-0.014264	1.168100	0.563269
H114	H	0.485736	1.668100	1.063269
H115	H	0.021083	0.802757	-0.000003
H116	H	0.521083	1.302757	0.499997
Cl117	Cl	0.014231	1.192784	0.766135
Cl118	Cl	0.514231	1.692784	1.266135
Cl119	Cl	-0.276257	0.941348	0.541227
Cl120	Cl	0.223743	1.441348	1.041227
H121	H	-0.247744	0.966004	0.436722
H122	H	0.252256	1.466004	0.936722
Cl123	Cl	-0.276240	0.941316	0.233854
Cl124	Cl	0.223760	1.441316	0.733854
