data_functionalizedCrystal
_audit_creation_method	'MofGen! by Chris Wilmer'
_symmetry_space_group_name_H-M	'P1'
_symmetry_Int_Tables_number	1
_symmetry_cell_setting	triclinic
loop_
_symmetry_equiv_pos_as_xyz
  x,y,z
_cell_length_a	21.295419
_cell_length_b	21.295417
_cell_length_c	21.295411
_cell_angle_alpha	89.978356
_cell_angle_beta	90.024539
_cell_angle_gamma	89.954692
loop_
_atom_site_label
_atom_site_type_symbol
_atom_site_fract_x
_atom_site_fract_y
_atom_site_fract_z
Zn1	Zn	0.962356	0.250432	0.355911
Zn2	Zn	1.295689	0.583766	0.689244
Zn3	Zn	1.629022	0.917099	1.022578
Zn4	Zn	0.962258	0.355684	0.250637
Zn5	Zn	1.295591	0.689018	0.583970
Zn6	Zn	1.628925	1.022351	0.917303
Zn7	Zn	0.857079	0.250460	0.250656
Zn8	Zn	1.190412	0.583793	0.583990
Zn9	Zn	1.523745	0.917127	0.917323
Zn10	Zn	0.857048	0.355695	0.355868
Zn11	Zn	1.190381	0.689028	0.689202
Zn12	Zn	1.523715	1.022361	1.022535
O13	O	0.909685	0.303068	0.303268
O14	O	1.243018	0.636401	0.636601
O15	O	1.576352	0.969734	0.969935
O16	O	1.050432	0.264378	0.341956
O17	O	1.383765	0.597712	0.675289
O18	O	1.717099	0.931045	1.008623
O19	O	0.948278	0.341733	0.162550
O20	O	1.281611	0.675066	0.495883
O21	O	1.614944	1.008400	0.829216
O22	O	0.871098	0.162367	0.264645
O23	O	1.204431	0.495700	0.597978
O24	O	1.537764	0.829034	0.931311
O25	O	1.050360	0.341706	0.264611
O26	O	1.383694	0.675040	0.597944
O27	O	1.717027	1.008373	0.931278
O28	O	0.948444	0.162347	0.341975
O29	O	1.281777	0.495680	0.675308
O30	O	1.615111	0.829013	1.008642
O31	O	0.871003	0.264425	0.162564
O32	O	1.204336	0.597759	0.495898
O33	O	1.537670	0.931092	0.829231
O34	O	0.768985	0.264436	0.264603
O35	O	1.102319	0.597769	0.597936
O36	O	1.435652	0.931102	0.931270
O37	O	0.871045	0.341724	0.443963
O38	O	1.204379	0.675058	0.777297
O39	O	1.537712	1.008391	1.110630
O40	O	0.768963	0.341751	0.341902
O41	O	1.102296	0.675085	0.675235
O42	O	1.435629	1.008418	1.008569
O43	O	0.948414	0.264388	0.443995
O44	O	1.281748	0.597722	0.777328
O45	O	1.615081	0.931055	1.110662
O46	O	0.948248	0.443775	0.264570
O47	O	1.281581	0.777108	0.597903
O48	O	1.614915	1.110442	0.931236
O49	O	0.870951	0.443783	0.341883
O50	O	1.204284	0.777116	0.675216
O51	O	1.537617	1.110449	1.008550
C52	C	0.746133	0.303098	0.303250
C53	C	1.079467	0.636431	0.636584
C54	C	1.412800	0.969765	0.969917
C55	C	0.676165	0.303126	0.303258
C56	C	1.009499	0.636459	0.636591
C57	C	1.342832	0.969793	0.969924
C58	C	0.643358	0.262927	0.343593
C59	C	0.976692	0.596261	0.676927
C60	C	1.310025	0.929594	1.010260
C61	C	0.577616	0.262910	0.343596
C62	C	0.910949	0.596244	0.676929
C63	C	1.244283	0.929577	1.010263
C64	C	0.544683	0.303104	0.303269
C65	C	0.878016	0.636437	0.636603
C66	C	1.211349	0.969770	0.969936
C67	C	0.577498	0.343305	0.262926
C68	C	0.910831	0.676639	0.596259
C69	C	1.244164	1.009972	0.929592
C70	C	0.643239	0.343317	0.262920
C71	C	0.976572	0.676650	0.596253
C72	C	1.309906	1.009983	0.929587
N73	N	0.441407	0.358181	0.298349
N74	N	0.774741	0.691514	0.631683
N75	N	1.108074	1.024847	0.965016
N76	N	0.378956	0.358168	0.298359
N77	N	0.712289	0.691502	0.631692
N78	N	1.045623	1.024835	0.965025
C79	C	0.346608	0.303071	0.303283
C80	C	0.679941	0.636404	0.636616
C81	C	1.013275	0.969738	0.969950
N82	N	0.379071	0.247985	0.308210
N83	N	0.712404	0.581319	0.641544
N84	N	1.045738	0.914652	0.974877
N85	N	0.441528	0.247999	0.308205
N86	N	0.774862	0.581332	0.641538
N87	N	1.108195	0.914665	0.974871
C88	C	0.473397	0.303095	0.303271
C89	C	0.806731	0.636429	0.636604
C90	C	1.140064	0.969762	0.969937
C91	C	0.242516	0.262850	0.343624
C92	C	0.575849	0.596184	0.676957
C93	C	0.909182	0.929517	1.010290
C94	C	0.176772	0.262832	0.343622
C95	C	0.510105	0.596166	0.676955
C96	C	0.843439	0.929499	1.010288
C97	C	0.176655	0.343233	0.262955
C98	C	0.509988	0.676566	0.596288
C99	C	0.843322	1.009900	0.929621
C100	C	0.242397	0.343245	0.262953
C101	C	0.575731	0.676579	0.596287
C102	C	0.909064	1.009912	0.929620
C103	C	0.275324	0.303055	0.303291
C104	C	0.608657	0.636388	0.636625
C105	C	0.941991	0.969722	0.969958
C106	C	0.909603	0.466619	0.303233
C107	C	1.242936	0.799953	0.636567
C108	C	1.576269	1.133286	0.969900
C109	C	0.909625	0.536588	0.303239
C110	C	1.242958	0.869921	0.636573
C111	C	1.576291	1.203254	0.969906
C112	C	0.909737	0.303055	0.467458
C113	C	1.243071	0.636388	0.800792
C114	C	1.576404	0.969721	1.134125
C115	C	0.909760	0.303049	0.537426
C116	C	1.243093	0.636382	0.870760
C117	C	1.576426	0.969716	1.204093
C118	C	1.073875	0.303038	0.303286
C119	C	1.407209	0.636371	0.636619
C120	C	1.740542	0.969705	0.969953
C121	C	1.143843	0.303025	0.303294
C122	C	1.477177	0.636359	0.636627
C123	C	1.810510	0.969692	0.969961
C124	C	0.909785	0.138878	0.303317
C125	C	1.243118	0.472211	0.636650
C126	C	1.576452	0.805544	0.969983
C127	C	0.909828	0.068909	0.303338
C128	C	1.243161	0.402243	0.636671
C129	C	1.576494	0.735576	0.970004
C130	C	0.949909	0.569429	0.263024
C131	C	1.283243	0.902763	0.596357
C132	C	1.616576	1.236096	0.929690
C133	C	0.949939	0.635172	0.263038
C134	C	1.283272	0.968505	0.596371
C135	C	1.616605	1.301838	0.929704
C136	C	0.909673	0.668070	0.303261
C137	C	1.243006	1.001403	0.636594
C138	C	1.576339	1.334737	0.969928
C139	C	0.869385	0.635220	0.343485
C140	C	1.202719	0.968554	0.676818
C141	C	1.536052	1.301887	1.010151
C142	C	0.869361	0.569479	0.343474
C143	C	1.202695	0.902813	0.676807
C144	C	1.536028	1.236146	1.010140
N145	N	0.854606	0.771351	0.308054
N146	N	1.187939	1.104684	0.641387
N147	N	1.521272	1.438018	0.974721
N148	N	0.854630	0.833802	0.308061
N149	N	1.187963	1.167136	0.641394
N150	N	1.521297	1.500469	0.974727
C151	C	0.909743	0.866145	0.303297
C152	C	1.243076	1.199478	0.636630
C153	C	1.576410	1.532811	0.969964
N154	N	0.964832	0.833676	0.298514
N155	N	1.298165	1.167010	0.631848
N156	N	1.631499	1.500343	0.965181
N157	N	0.964807	0.771219	0.298504
N158	N	1.298140	1.104553	0.631838
N159	N	1.631473	1.437886	0.965171
C160	C	0.909694	0.739355	0.303278
C161	C	1.243028	1.072689	0.636611
C162	C	1.576361	1.406022	0.969944
C163	C	0.950063	0.970272	0.263095
C164	C	1.283396	1.303605	0.596428
C165	C	1.616730	1.636939	0.929761
C166	C	0.950093	1.036016	0.263113
C167	C	1.283427	1.369349	0.596446
C168	C	1.616760	1.702682	0.929780
C169	C	0.869534	1.036063	0.343557
C170	C	1.202868	1.369396	0.676890
C171	C	1.536201	1.702730	1.010223
C172	C	0.869510	0.970321	0.343541
C173	C	1.202843	1.303654	0.676875
C174	C	1.536176	1.636987	1.010208
C175	C	0.909773	0.937429	0.303307
C176	C	1.243106	1.270762	0.636640
C177	C	1.576440	1.604096	0.969974
C178	C	0.909669	0.303036	0.139716
C179	C	1.243003	0.636369	0.473050
C180	C	1.576336	0.969702	0.806383
C181	C	0.909769	0.302864	0.069749
C182	C	1.243102	0.636197	0.403082
C183	C	1.576436	0.969531	0.736415
C184	C	0.950044	0.262778	0.570311
C185	C	1.283377	0.596112	0.903644
C186	C	1.616710	0.929445	1.236977
C187	C	0.950043	0.262751	0.636053
C188	C	1.283376	0.596084	0.969386
C189	C	1.616710	0.929418	1.302720
C190	C	0.909764	0.303006	0.668909
C191	C	1.243098	0.636339	1.002242
C192	C	1.576431	0.969672	1.335576
C193	C	0.869472	0.343279	0.636017
C194	C	1.202806	0.676612	0.969350
C195	C	1.536139	1.009946	1.302684
C196	C	0.869470	0.343301	0.570276
C197	C	1.202803	0.676634	0.903609
C198	C	1.536137	1.009967	1.236942
N199	N	0.904908	0.358075	0.772124
N200	N	1.238241	0.691408	1.105458
N201	N	1.571574	1.024741	1.438791
N202	N	0.904914	0.358052	0.834576
N203	N	1.238247	0.691385	1.167909
N204	N	1.571580	1.024719	1.501243
C205	C	0.909768	0.302942	0.866984
C206	C	1.243102	0.636275	1.200317
C207	C	1.576435	0.969608	1.533651
N208	N	0.914629	0.247853	0.834581
N209	N	1.247963	0.581187	1.167914
N210	N	1.581296	0.914520	1.501248
N211	N	0.914626	0.247876	0.772124
N212	N	1.247960	0.581210	1.105457
N213	N	1.581293	0.914543	1.438791
C214	C	0.909762	0.302986	0.740194
C215	C	1.243096	0.636320	1.073528
C216	C	1.576429	0.969653	1.406861
C217	C	0.950054	0.262638	0.971154
C218	C	1.283387	0.595971	1.304487
C219	C	1.616721	0.929305	1.637820
C220	C	0.950049	0.262610	1.036897
C221	C	1.283382	0.595943	1.370231
C222	C	1.616715	0.929276	1.703564
C223	C	0.869481	0.343143	1.036860
C224	C	1.202815	0.676477	1.370193
C225	C	1.536148	1.009810	1.703527
C226	C	0.869483	0.343166	0.971118
C227	C	1.202817	0.676499	1.304451
C228	C	1.536150	1.009833	1.637784
C229	C	0.909773	0.302914	0.938268
C230	C	1.243106	0.636248	1.271602
C231	C	1.576440	0.969581	1.604935
H232	H	0.550899	0.230172	0.376441
H233	H	0.884233	0.563506	0.709774
H234	H	1.217566	0.896839	1.043108
N235	N	0.993379	0.670602	0.219648
N236	N	1.326712	1.003936	0.552981
N237	N	1.660045	1.337269	0.886314
H238	H	0.987280	0.717240	0.225758
H239	H	1.320613	1.050574	0.559091
H240	H	1.653947	1.383907	0.892424
H241	H	1.038332	0.659061	0.229472
H242	H	1.371665	0.992394	0.562806
H243	H	1.704998	1.325728	0.896139
H244	H	0.670163	0.230200	0.376439
H245	H	1.003496	0.563534	0.709772
H246	H	1.336830	0.896867	1.043106
H247	H	0.836679	0.375913	1.063611
H248	H	1.170013	0.709246	1.396944
H249	H	1.503346	1.042580	1.730277
H250	H	0.982857	0.229859	0.944406
H251	H	1.316190	0.563193	1.277740
H252	H	1.649523	0.896526	1.611073
N253	N	0.678623	0.386677	0.219411
N254	N	1.011957	0.720010	0.552744
N255	N	1.345290	1.053344	0.886078
H256	H	0.667143	0.431667	0.229104
H257	H	1.000476	0.765000	0.562437
H258	H	1.333810	1.098333	0.895770
H259	H	0.725256	0.380534	0.225546
H260	H	1.058589	0.713868	0.558880
H261	H	1.391922	1.047201	0.892213
H262	H	0.836675	0.376052	0.662773
H263	H	1.170009	0.709386	0.996106
H264	H	1.503342	1.042719	1.329439
H265	H	0.982852	0.229813	1.063670
H266	H	1.316185	0.563146	1.397004
H267	H	1.649519	0.896480	1.730337
N268	N	0.825908	0.534049	0.386846
N269	N	1.159241	0.867383	0.720179
N270	N	1.492574	1.200716	1.053513
H271	H	0.835665	0.545451	0.431835
H272	H	1.168999	0.878784	0.765168
H273	H	1.502332	1.212118	1.098502
H274	H	0.780957	0.545562	0.376976
H275	H	1.114291	0.878896	0.710309
H276	H	1.447624	1.212229	1.043643
H277	H	0.836683	0.375963	0.944343
H278	H	1.170017	0.709296	1.277676
H279	H	1.503350	1.042629	1.611010
N280	N	0.993493	0.219314	0.671532
N281	N	1.326827	0.552648	1.004865
N282	N	1.660160	0.885981	1.338198
H283	H	1.019015	0.193818	0.640746
H284	H	1.352348	0.527152	0.974079
H285	H	1.685682	0.860485	1.307413
H286	H	1.022606	0.244930	0.698817
H287	H	1.355940	0.578263	1.032151
H288	H	1.689273	0.911596	1.365484
H289	H	0.982850	0.943490	0.230335
H290	H	1.316183	1.276824	0.563668
H291	H	1.649517	1.610157	0.897002
N292	N	0.993343	0.533953	0.219639
N293	N	1.326677	0.867287	0.552972
N294	N	1.660010	1.200620	0.886306
H295	H	1.018871	0.564738	0.194167
H296	H	1.352204	0.898072	0.527501
H297	H	1.685538	1.231405	0.860834
H298	H	1.022451	0.506635	0.245292
H299	H	1.355784	0.839968	0.578626
H300	H	1.689118	1.173301	0.911959
N301	N	0.993547	1.071436	0.219732
N302	N	1.326880	1.404769	0.553066
N303	N	1.660213	1.738103	0.886399
H304	H	0.967987	1.098760	0.190546
H305	H	1.301320	1.432093	0.523879
H306	H	1.634654	1.765427	0.857213
H307	H	1.022712	1.098626	0.245387
H308	H	1.356046	1.431959	0.578721
H309	H	1.689379	1.765292	0.912054
N310	N	0.993481	0.219348	0.534883
N311	N	1.326814	0.552681	0.868216
N312	N	1.660147	0.886014	1.201549
H313	H	0.987365	0.225467	0.488245
H314	H	1.320698	0.558801	0.821578
H315	H	1.654032	0.892134	1.154912
H316	H	1.038436	0.229125	0.546386
H317	H	1.371770	0.562459	0.879719
H318	H	1.705103	0.895792	1.213052
H319	H	0.550679	0.376030	0.230091
H320	H	0.884013	0.709364	0.563424
H321	H	1.217346	1.042697	0.896758
N322	N	0.278035	0.219503	0.387126
N323	N	0.611369	0.552837	0.720459
N324	N	0.944702	0.886170	1.053792
H325	H	0.247274	0.194030	0.412676
H326	H	0.580607	0.527363	0.746009
H327	H	0.913940	0.860697	1.079343
H328	H	0.305330	0.190341	0.361554
H329	H	0.638663	0.523674	0.694888
H330	H	0.971996	0.857007	1.028221
N331	N	0.826010	0.386728	0.534803
N332	N	1.159343	0.720061	0.868137
N333	N	1.492677	1.053395	1.201470
H334	H	0.800488	0.412222	0.565590
H335	H	1.133821	0.745555	0.898924
H336	H	1.467155	1.078889	1.232257
H337	H	0.851607	0.415868	0.507532
H338	H	1.184940	0.749202	0.840866
H339	H	1.518274	1.082535	1.174199
N340	N	0.826108	1.071536	0.386947
N341	N	1.159442	1.404870	0.720280
N342	N	1.492775	1.738203	1.053613
H343	H	0.832237	1.118167	0.380854
H344	H	1.165570	1.451501	0.714187
H345	H	1.498904	1.784834	1.047520
H346	H	0.781150	1.060104	0.377107
H347	H	1.114484	1.393437	0.710440
H348	H	1.447817	1.726771	1.043774
H349	H	0.150062	0.230094	0.376467
H350	H	0.483395	0.563427	0.709800
H351	H	0.816728	0.896760	1.043133
N352	N	0.141144	0.386580	0.219453
N353	N	0.474477	0.719914	0.552787
N354	N	0.807811	1.053247	0.886120
H355	H	0.094518	0.380473	0.225575
H356	H	0.427852	0.713806	0.558909
H357	H	0.761185	1.047139	0.892242
H358	H	0.152595	0.431555	0.229165
H359	H	0.485929	0.764889	0.562499
H360	H	0.819262	1.098222	0.895832
N361	N	0.826055	0.934893	0.386913
N362	N	1.159388	1.268227	0.720246
N363	N	1.492722	1.601560	1.053579
H364	H	0.800549	0.965708	0.412396
H365	H	1.133883	1.299041	0.745730
H366	H	1.467216	1.632375	1.079063
H367	H	0.796927	0.907666	0.361255
H368	H	1.130261	1.240999	0.694588
H369	H	1.463594	1.574332	1.027921
H370	H	0.836602	0.662010	0.376236
H371	H	1.169935	0.995344	0.709569
H372	H	1.503268	1.328677	1.042903
N373	N	0.277787	0.386604	0.219449
N374	N	0.611120	0.719937	0.552782
N375	N	0.944454	1.053270	0.886116
H376	H	0.246950	0.412064	0.193901
H377	H	0.580284	0.745397	0.527234
H378	H	0.913617	1.078730	0.860568
H379	H	0.305050	0.415778	0.245015
H380	H	0.638383	0.749111	0.578348
H381	H	0.971716	1.082445	0.911682
