data_functionalizedCrystal
_audit_creation_method	'MofGen! by Chris Wilmer'
_symmetry_space_group_name_H-M	'P1'
_symmetry_Int_Tables_number	1
_symmetry_cell_setting	triclinic
loop_
_symmetry_equiv_pos_as_xyz
  x,y,z
_cell_length_a	12.759401
_cell_length_b	14.908308
_cell_length_c	12.759399
_cell_angle_alpha	93.268701
_cell_angle_beta	90.015393
_cell_angle_gamma	93.281135
loop_
_atom_site_label
_atom_site_type_symbol
_atom_site_fract_x
_atom_site_fract_y
_atom_site_fract_z
Zn1	Zn	1.571943	-0.510030	-0.452516
Zn2	Zn	1.581984	-0.359178	-0.618084
Zn3	Zn	1.406391	-0.359196	-0.442422
Zn4	Zn	1.396234	-0.509995	-0.628152
O5	O	1.489138	-0.434600	-0.535294
O6	O	1.720295	-0.490026	-0.474490
O7	O	1.567144	-0.232939	-0.586345
O8	O	1.428401	-0.379226	-0.296742
O9	O	1.727672	-0.379196	-0.596132
O10	O	1.550031	-0.490043	-0.304158
O11	O	1.438137	-0.232952	-0.457286
O12	O	1.258023	-0.379193	-0.467049
O13	O	1.411090	-0.636242	-0.613292
O14	O	1.250561	-0.489985	-0.603504
O15	O	1.540182	-0.636267	-0.484253
O16	O	1.557295	-0.379163	-0.766440
O17	O	1.420826	-0.489968	-0.773836
C18	C	1.216172	-0.434587	-0.535274
C19	C	1.099394	-0.434603	-0.535293
C20	C	0.930948	-0.492208	-0.606457
C21	C	1.040673	-0.492199	-0.606445
C22	C	1.048385	-0.377007	-0.464155
C23	C	0.938662	-0.377013	-0.464173
C24	C	1.473383	-0.669903	-0.551021
C25	C	1.466669	-0.770175	-0.557723
C26	C	1.588473	-0.958625	-0.435925
C27	C	1.582168	-1.052839	-0.442218
C28	C	1.447749	-1.052820	-0.576598
C29	C	1.454054	-0.958606	-0.570305
C30	C	1.524420	-0.911511	-0.499967
C31	C	1.530730	-0.817295	-0.493679
C32	C	1.396306	-0.817278	-0.628053
C33	C	1.390001	-0.911492	-0.634347
C34	C	1.763170	-0.434613	-0.535314
C35	C	1.879947	-0.434618	-0.535323
C36	C	1.489075	-0.434579	-0.808260
C37	C	1.489142	-0.434601	-0.925038
C38	C	1.504892	-0.200212	-0.519552
C39	C	1.511810	-0.099941	-0.512554
C40	C	1.560274	-0.376970	-0.976018
C41	C	1.560339	-0.377000	-1.085744
C42	C	1.418132	-0.492294	-1.093501
C43	C	1.418073	-0.492268	-0.983777
C44	C	1.489229	-0.434640	-0.261263
C45	C	1.489267	-0.434657	-0.144488
H46	H	0.897136	-0.330112	-0.406245
Cl47	Cl	0.857138	-0.564623	-0.695906
H48	H	1.082193	-0.539093	-0.664370
H49	H	1.096204	-0.330108	-0.406226
H50	H	1.588026	-0.778952	-0.436407
Cl51	Cl	1.359290	-1.112040	-0.665008
Cl52	Cl	1.301545	-0.970705	-0.722765
Cl53	Cl	1.676941	-0.899417	-0.347514
Cl54	Cl	1.649621	-0.304477	-0.902178
Cl55	Cl	1.662695	-1.112065	-0.361703
H56	H	1.344151	-0.778908	-0.680204
Cl57	Cl	1.649769	-0.304550	-1.149828
Cl58	Cl	1.328789	-0.564783	-1.167351
H59	H	1.360148	-0.539202	-0.942267
