data_functionalizedCrystal
_audit_creation_method	'MofGen! by Chris Wilmer'
_symmetry_space_group_name_H-M	'P1'
_symmetry_Int_Tables_number	1
_symmetry_cell_setting	triclinic
loop_
_symmetry_equiv_pos_as_xyz
  x,y,z
_cell_length_a	21.395362
_cell_length_b	21.395362
_cell_length_c	21.395356
_cell_angle_alpha	90.039977
_cell_angle_beta	89.970423
_cell_angle_gamma	89.954240
loop_
_atom_site_label
_atom_site_type_symbol
_atom_site_fract_x
_atom_site_fract_y
_atom_site_fract_z
Zn1	Zn	-0.249146	-0.957824	-0.354648
Zn2	Zn	0.084187	-0.624490	-0.021315
Zn3	Zn	0.417521	-0.291157	0.312019
Zn4	Zn	-0.353923	-0.957747	-0.249868
Zn5	Zn	-0.020590	-0.624413	0.083465
Zn6	Zn	0.312743	-0.291080	0.416799
Zn7	Zn	-0.249197	-0.853053	-0.249842
Zn8	Zn	0.084136	-0.519720	0.083491
Zn9	Zn	0.417470	-0.186387	0.416825
Zn10	Zn	-0.353923	-0.853014	-0.354565
Zn11	Zn	-0.020590	-0.519680	-0.021232
Zn12	Zn	0.312744	-0.186347	0.312101
O13	O	-0.301547	-0.905409	-0.302231
O14	O	0.031786	-0.572076	0.031103
O15	O	0.365119	-0.238743	0.364436
O16	O	-0.263024	-1.045491	-0.340794
O17	O	0.070310	-0.712158	-0.007461
O18	O	0.403643	-0.378825	0.325872
O19	O	-0.340053	-0.943843	-0.162187
O20	O	-0.006719	-0.610510	0.171147
O21	O	0.326614	-0.277177	0.504480
O22	O	-0.161512	-0.867000	-0.263768
O23	O	0.171821	-0.533667	0.069565
O24	O	0.505154	-0.200333	0.402898
O25	O	-0.340003	-1.045435	-0.263813
O26	O	-0.006670	-0.712102	0.069520
O27	O	0.326664	-0.378768	0.402854
O28	O	-0.161475	-0.943974	-0.340769
O29	O	0.171859	-0.610641	-0.007436
O30	O	0.505192	-0.277308	0.325898
O31	O	-0.263111	-0.866926	-0.162167
O32	O	0.070223	-0.533592	0.171166
O33	O	0.403556	-0.200259	0.504499
O34	O	-0.263110	-0.765370	-0.263688
O35	O	0.070223	-0.432037	0.069645
O36	O	0.403556	-0.098704	0.402979
O37	O	-0.340002	-0.866933	-0.442254
O38	O	-0.006669	-0.533599	-0.108921
O39	O	0.326664	-0.200266	0.224412
O40	O	-0.340052	-0.765341	-0.340628
O41	O	-0.006719	-0.432008	-0.007295
O42	O	0.326615	-0.098674	0.326039
O43	O	-0.263023	-0.943936	-0.442315
O44	O	0.070310	-0.610603	-0.108982
O45	O	0.403644	-0.277269	0.224352
O46	O	-0.441601	-0.943805	-0.263733
O47	O	-0.108268	-0.610472	0.069601
O48	O	0.225065	-0.277138	0.402934
O49	O	-0.441601	-0.866858	-0.340653
O50	O	-0.108268	-0.533525	-0.007320
O51	O	0.225066	-0.200191	0.326013
C52	C	-0.301587	-0.742622	-0.302146
C53	C	0.031746	-0.409288	0.031187
C54	C	0.365079	-0.075955	0.364520
C55	C	-0.301619	-0.672980	-0.302125
C56	C	0.031714	-0.339647	0.031208
C57	C	0.365047	-0.006314	0.364541
C58	C	-0.341737	-0.640269	-0.342125
C59	C	-0.008404	-0.306935	-0.008792
C60	C	0.324929	0.026398	0.324541
C61	C	-0.341725	-0.574833	-0.342149
C62	C	-0.008391	-0.241500	-0.008815
C63	C	0.324942	0.091834	0.324518
C64	C	-0.301601	-0.542112	-0.302161
C65	C	0.031733	-0.208779	0.031173
C66	C	0.365066	0.124555	0.364506
C67	C	-0.261475	-0.574832	-0.262158
C68	C	0.071858	-0.241499	0.071176
C69	C	0.405192	0.091835	0.404509
C70	C	-0.261484	-0.640266	-0.262140
C71	C	0.071849	-0.306933	0.071193
C72	C	0.405182	0.026401	0.404527
C73	C	-0.296567	-0.438395	-0.245748
C74	C	0.036766	-0.105062	0.087585
C75	C	0.370100	0.228272	0.420919
C76	C	-0.296562	-0.372962	-0.245765
C77	C	0.036771	-0.039629	0.087569
C78	C	0.370105	0.293705	0.420902
C79	C	-0.301568	-0.340291	-0.302215
C80	C	0.031765	-0.006958	0.031118
C81	C	0.365098	0.326375	0.364451
C82	C	-0.306592	-0.373062	-0.358651
C83	C	0.026741	-0.039728	-0.025318
C84	C	0.360074	0.293605	0.308016
C85	C	-0.306602	-0.438496	-0.358633
C86	C	0.026732	-0.105163	-0.025300
C87	C	0.360065	0.228171	0.308033
C88	C	-0.301586	-0.471160	-0.302175
C89	C	0.031748	-0.137826	0.031158
C90	C	0.365081	0.195507	0.364491
C91	C	-0.341675	-0.236627	-0.342244
C92	C	-0.008341	0.096706	-0.008911
C93	C	0.324992	0.430040	0.324423
C94	C	-0.341658	-0.171190	-0.342268
C95	C	-0.008324	0.162143	-0.008935
C96	C	0.325009	0.495476	0.324398
C97	C	-0.261411	-0.171190	-0.262272
C98	C	0.071922	0.162143	0.071062
C99	C	0.405256	0.495476	0.404395
C100	C	-0.261425	-0.236626	-0.262253
C101	C	0.071909	0.096708	0.071080
C102	C	0.405242	0.430041	0.404414
C103	C	-0.301560	-0.269340	-0.302238
C104	C	0.031773	0.063993	0.031095
C105	C	0.365107	0.397327	0.364428
C106	C	-0.464335	-0.905336	-0.302200
C107	C	-0.131002	-0.572002	0.031133
C108	C	0.202332	-0.238669	0.364466
C109	C	-0.533976	-0.905362	-0.302208
C110	C	-0.200643	-0.572028	0.031125
C111	C	0.132690	-0.238695	0.364458
C112	C	-1.035752	-0.945626	-0.262280
C113	C	-0.702418	-0.612293	0.071053
C114	C	-0.369085	-0.278960	0.404387
C115	C	-0.970316	-0.945603	-0.262265
C116	C	-0.636983	-0.612269	0.071068
C117	C	-0.303649	-0.278936	0.404401
C118	C	-0.937614	-0.905498	-0.302276
C119	C	-0.604281	-0.572165	0.031058
C120	C	-0.270948	-0.238832	0.364391
C121	C	-0.970353	-0.865403	-0.342292
C122	C	-0.637020	-0.532070	-0.008959
C123	C	-0.303687	-0.198736	0.324374
C124	C	-1.035788	-0.865423	-0.342301
C125	C	-0.702454	-0.532090	-0.008968
C126	C	-0.369121	-0.198757	0.324365
C127	C	-0.833916	-0.900482	-0.358704
C128	C	-0.500582	-0.567149	-0.025371
C129	C	-0.167249	-0.233816	0.307963
C130	C	-0.768483	-0.900466	-0.358696
C131	C	-0.435149	-0.567133	-0.025363
C132	C	-0.101816	-0.233800	0.307971
C133	C	-0.735794	-0.905432	-0.302247
C134	C	-0.402460	-0.572098	0.031086
C135	C	-0.069127	-0.238765	0.364419
C136	C	-0.768546	-0.910426	-0.245805
C137	C	-0.435212	-0.577093	0.087528
C138	C	-0.101879	-0.243759	0.420862
C139	C	-0.833980	-0.910446	-0.245814
C140	C	-0.500646	-0.577113	0.087519
C141	C	-0.167313	-0.243780	0.420853
C142	C	-0.866662	-0.905471	-0.302270
C143	C	-0.533329	-0.572138	0.031063
C144	C	-0.199995	-0.238805	0.364397
C145	C	-0.632110	-0.945495	-0.262214
C146	C	-0.298777	-0.612162	0.071119
C147	C	0.034557	-0.278829	0.404452
C148	C	-0.566673	-0.945467	-0.262199
C149	C	-0.233340	-0.612134	0.071135
C150	C	0.099993	-0.278801	0.404468
C151	C	-0.566712	-0.865271	-0.342231
C152	C	-0.233379	-0.531938	-0.008898
C153	C	0.099955	-0.198604	0.324436
C154	C	-0.632147	-0.865296	-0.342241
C155	C	-0.298814	-0.531962	-0.008908
C156	C	0.034519	-0.198629	0.324426
C157	C	-0.664842	-0.905411	-0.302234
C158	C	-0.331509	-0.572078	0.031100
C159	C	0.001824	-0.238745	0.364433
C160	C	-0.138124	-0.905500	-0.302275
C161	C	0.195209	-0.572167	0.031058
C162	C	0.528543	-0.238834	0.364392
C163	C	-0.068483	-0.905539	-0.302294
C164	C	0.264851	-0.572206	0.031040
C165	C	0.598184	-0.238872	0.364373
C166	C	-0.301507	-0.905438	-0.465654
C167	C	0.031826	-0.572105	-0.132321
C168	C	0.365160	-0.238772	0.201012
C169	C	-0.301490	-0.905451	-0.535295
C170	C	0.031843	-0.572117	-0.201962
C171	C	0.365177	-0.238784	0.131371
C172	C	-0.301518	-0.068833	-0.302298
C173	C	0.031815	0.264501	0.031035
C174	C	0.365149	0.597834	0.364369
C175	C	-0.301532	-0.138474	-0.302281
C176	C	0.031801	0.194859	0.031053
C177	C	0.365134	0.528193	0.364386
C178	C	-0.261307	-0.945605	-1.037125
C179	C	0.072026	-0.612272	-0.703791
C180	C	0.405360	-0.278939	-0.370458
C181	C	-0.261322	-0.945600	-0.971689
C182	C	0.072011	-0.612267	-0.638356
C183	C	0.405345	-0.278934	-0.305022
C184	C	-0.301406	-0.905504	-0.938934
C185	C	0.031927	-0.572171	-0.605601
C186	C	0.365260	-0.238838	-0.272267
C187	C	-0.341490	-0.865422	-0.971620
C188	C	-0.008157	-0.532088	-0.638286
C189	C	0.325177	-0.198755	-0.304953
C190	C	-0.341478	-0.865432	-1.037054
C191	C	-0.008145	-0.532099	-0.703721
C192	C	0.325188	-0.198766	-0.370387
C193	C	-0.306386	-0.849036	-0.835235
C194	C	0.026947	-0.515702	-0.501901
C195	C	0.360280	-0.182369	-0.168568
C196	C	-0.306394	-0.849024	-0.769802
C197	C	0.026940	-0.515691	-0.436468
C198	C	0.360273	-0.182357	-0.103135
C199	C	-0.301446	-0.905472	-0.737113
C200	C	0.031887	-0.572139	-0.403780
C201	C	0.365220	-0.238806	-0.070446
C202	C	-0.296479	-0.961934	-0.769866
C203	C	0.036855	-0.628601	-0.436532
C204	C	0.370188	-0.295267	-0.103199
C205	C	-0.296467	-0.961944	-0.835300
C206	C	0.036866	-0.628611	-0.501966
C207	C	0.370200	-0.295278	-0.168633
C208	C	-0.301424	-0.905489	-0.867982
C209	C	0.031909	-0.572156	-0.534648
C210	C	0.365243	-0.238822	-0.201315
C211	C	-0.261385	-0.945550	-0.633483
C212	C	0.071948	-0.612217	-0.300149
C213	C	0.405282	-0.278884	0.033184
C214	C	-0.261404	-0.945546	-0.568046
C215	C	0.071929	-0.612213	-0.234713
C216	C	0.405262	-0.278880	0.098621
C217	C	-0.341569	-0.865362	-0.567978
C218	C	-0.008236	-0.532029	-0.234645
C219	C	0.325098	-0.198696	0.098689
C220	C	-0.341553	-0.865372	-0.633413
C221	C	-0.008220	-0.532038	-0.300080
C222	C	0.325114	-0.198705	0.033253
C223	C	-0.301457	-0.905465	-0.666162
C224	C	0.031876	-0.572132	-0.332828
C225	C	0.365209	-0.238798	0.000505
C226	C	-0.301542	-0.905416	-0.139443
C227	C	0.031791	-0.572083	0.193890
C228	C	0.365124	-0.238750	0.527223
C229	C	-0.301383	-0.905526	-0.069802
C230	C	0.031951	-0.572192	0.263531
C231	C	0.365284	-0.238859	0.596864
H232	H	-0.310668	-0.346463	-0.404619
H233	H	0.022666	-0.013129	-0.071286
H234	H	0.355999	0.320204	0.262048
C235	C	-0.217353	-0.676250	-0.218131
C236	C	0.115981	-0.342917	0.115202
C237	C	0.449314	-0.009584	0.448535
N238	N	-0.184114	-0.703354	-0.184982
N239	N	0.149220	-0.370021	0.148352
N240	N	0.482553	-0.036688	0.481685
C241	C	-0.530669	-0.989560	-0.218168
C242	C	-0.197336	-0.656226	0.115165
C243	C	0.135997	-0.322893	0.448498
N244	N	-0.503551	-1.022768	-0.185001
N245	N	-0.170217	-0.689435	0.148332
N246	N	0.163116	-0.356102	0.481665
C247	C	-0.385817	-0.272615	-0.386235
C248	C	-0.052483	0.060718	-0.052902
C249	C	0.280850	0.394052	0.280431
N250	N	-0.419063	-0.299719	-0.419372
N251	N	-0.085730	0.033614	-0.086038
N252	N	0.247604	0.366947	0.247295
C253	C	-0.311828	-0.786934	-0.871186
C254	C	0.021505	-0.453601	-0.537852
C255	C	0.354838	-0.120267	-0.204519
N256	N	-0.315927	-0.740160	-0.898263
N257	N	0.017406	-0.406827	-0.564930
N258	N	0.350740	-0.073494	-0.231596
H259	H	-0.741931	-0.914470	-0.199840
H260	H	-0.408597	-0.581137	0.133494
H261	H	-0.075264	-0.247804	0.466827
C262	C	-0.217338	-0.538838	-0.218170
C263	C	0.115995	-0.205504	0.115163
C264	C	0.449328	0.127829	0.448496
N265	N	-0.184092	-0.511727	-0.185039
N266	N	0.149241	-0.178393	0.148294
N267	N	0.482575	0.154940	0.481627
C268	C	-1.071712	-0.989748	-0.218263
C269	C	-0.738379	-0.656415	0.115070
C270	C	-0.405046	-0.323081	0.448403
N271	N	-1.098799	-1.022978	-0.185107
N272	N	-0.765466	-0.689645	0.148226
N273	N	-0.432132	-0.356312	0.481559
H274	H	-0.860526	-0.896552	-0.404684
H275	H	-0.527192	-0.563219	-0.071351
H276	H	-0.193859	-0.229886	0.261982
H277	H	-0.292448	-1.007899	-0.743252
H278	H	0.040885	-0.674566	-0.409919
H279	H	0.374219	-0.341233	-0.076585
H280	H	-1.062437	-0.832780	-0.374888
H281	H	-0.729104	-0.499446	-0.041554
H282	H	-0.395770	-0.166113	0.291779
C283	C	-0.291062	-0.474326	-0.183643
C284	C	0.042271	-0.140993	0.149690
C285	C	0.375604	0.192341	0.483023
N286	N	-0.286917	-0.501389	-0.136868
N287	N	0.046416	-0.168055	0.196466
N288	N	0.379749	0.165278	0.529799
H289	H	-0.374325	-0.144557	-0.374845
H290	H	-0.040992	0.188776	-0.041512
H291	H	0.292341	0.522109	0.291821
C292	C	-0.217231	-0.989690	-0.935736
C293	C	0.116103	-0.656357	-0.602403
C294	C	0.449436	-0.323023	-0.269070
N295	N	-0.184019	-1.022897	-0.908658
N296	N	0.149314	-0.689564	-0.575325
N297	N	0.482647	-0.356231	-0.241992
H298	H	-0.943662	-0.978248	-0.229680
H299	H	-0.610328	-0.644914	0.103653
H300	H	-0.276995	-0.311581	0.436987
C301	C	-0.217205	-0.989714	-1.073144
C302	C	0.116128	-0.656381	-0.739811
C303	C	0.449461	-0.323047	-0.406477
N304	N	-0.183989	-1.022938	-1.100275
N305	N	0.149344	-0.689605	-0.766942
N306	N	0.482678	-0.356272	-0.433608
C307	C	-0.530744	-0.821154	-0.386242
C308	C	-0.197411	-0.487821	-0.052909
C309	C	0.135923	-0.154488	0.280424
N310	N	-0.503649	-0.787924	-0.419392
N311	N	-0.170316	-0.454590	-0.086058
N312	N	0.163017	-0.121257	0.247275
H313	H	-0.943724	-0.832748	-0.374868
H314	H	-0.610391	-0.499415	-0.041535
H315	H	-0.277058	-0.166082	0.291798
C316	C	-0.312128	-0.474541	-0.420711
C317	C	0.021206	-0.141207	-0.087378
C318	C	0.354539	0.192126	0.245955
N319	N	-0.316289	-0.501690	-0.467470
N320	N	0.017044	-0.168356	-0.134136
N321	N	0.350378	0.164977	0.199197
H322	H	-0.658732	-0.978159	-0.229637
H323	H	-0.325398	-0.644826	0.103696
H324	H	0.007935	-0.311492	0.437030
C325	C	-0.385664	-0.821257	-0.531951
C326	C	-0.052330	-0.487924	-0.198618
C327	C	0.281003	-0.154590	0.134716
N328	N	-0.418878	-0.788036	-0.504812
N329	N	-0.085544	-0.454703	-0.171479
N330	N	0.247789	-0.121370	0.161854
H331	H	-0.228771	-0.978189	-0.541441
H332	H	0.104562	-0.644855	-0.208108
H333	H	0.437895	-0.311522	0.125226
C334	C	-0.385633	-0.821273	-0.669360
C335	C	-0.052300	-0.487940	-0.336027
C336	C	0.281033	-0.154606	-0.002694
N337	N	-0.418837	-0.788056	-0.696435
N338	N	-0.085503	-0.454723	-0.363102
N339	N	0.247830	-0.121389	-0.029769
H340	H	-0.228738	-0.144550	-0.229715
H341	H	0.104595	0.188784	0.103618
H342	H	0.437928	0.522117	0.436951
H343	H	-0.228759	-0.263260	-0.229677
H344	H	0.104574	0.070073	0.103656
H345	H	0.437907	0.403407	0.436990
C346	C	-0.291031	-0.336921	-0.183685
C347	C	0.042302	-0.003588	0.149648
C348	C	0.375636	0.329746	0.482982
N349	N	-0.286862	-0.309776	-0.136925
N350	N	0.046472	0.023557	0.196408
N351	N	0.379805	0.356890	0.529742
H352	H	-0.860644	-0.914511	-0.199857
H353	H	-0.527310	-0.581178	0.133477
H354	H	-0.193977	-0.247845	0.466810
H355	H	-0.658797	-0.832654	-0.374827
H356	H	-0.325464	-0.499321	-0.041493
H357	H	0.007869	-0.165987	0.291840
H358	H	-0.292423	-1.007917	-0.861964
H359	H	0.040910	-0.674584	-0.528631
H360	H	0.374243	-0.341251	-0.195298
C361	C	-0.385563	-0.821335	-1.073001
C362	C	-0.052230	-0.488002	-0.739667
C363	C	0.281104	-0.154669	-0.406334
N364	N	-0.418766	-0.788119	-1.100077
N365	N	-0.085433	-0.454786	-0.766743
N366	N	0.247900	-0.121452	-0.433410
C367	C	-0.217286	-0.989660	-0.669508
C368	C	0.116047	-0.656326	-0.336175
C369	C	0.449381	-0.322993	-0.002842
N370	N	-0.184072	-1.022885	-0.696641
N371	N	0.149262	-0.689551	-0.363308
N372	N	0.482595	-0.356218	-0.029974
C373	C	-0.732462	-0.894972	-0.420783
C374	C	-0.399129	-0.561638	-0.087450
C375	C	-0.065795	-0.228305	0.245883
N376	N	-0.705333	-0.890831	-0.467549
N377	N	-0.371999	-0.557498	-0.134216
N378	N	-0.038666	-0.224165	0.199118
H379	H	-0.374393	-0.548194	-0.374724
H380	H	-0.041060	-0.214861	-0.041391
H381	H	0.292273	0.118473	0.291943
C382	C	-0.385885	-0.676250	-0.386113
C383	C	-0.052552	-0.342917	-0.052780
C384	C	0.280781	-0.009584	0.280554
N385	N	-0.419137	-0.703353	-0.419245
N386	N	-0.085804	-0.370020	-0.085912
N387	N	0.247529	-0.036686	0.247422
C388	C	-0.311854	-0.786915	-0.733780
C389	C	0.021479	-0.453582	-0.400447
C390	C	0.354813	-0.120249	-0.067114
N391	N	-0.315966	-0.740133	-0.706650
N392	N	0.017367	-0.406800	-0.373317
N393	N	0.350700	-0.073467	-0.039984
C394	C	-0.385581	-0.821314	-0.935588
C395	C	-0.052248	-0.487981	-0.602255
C396	C	0.281085	-0.154648	-0.268921
N397	N	-0.418793	-0.788092	-0.908449
N398	N	-0.085460	-0.454759	-0.575115
N399	N	0.247873	-0.121426	-0.241782
