data_functionalizedCrystal
_audit_creation_method	'MofGen! by Chris Wilmer'
_symmetry_space_group_name_H-M	'P1'
_symmetry_Int_Tables_number	1
_symmetry_cell_setting	triclinic
loop_
_symmetry_equiv_pos_as_xyz
  x,y,z
_cell_length_a	13.033286
_cell_length_b	18.050590
_cell_length_c	13.032268
_cell_angle_alpha	97.145544
_cell_angle_beta	105.163409
_cell_angle_gamma	82.849014
loop_
_atom_site_label
_atom_site_type_symbol
_atom_site_fract_x
_atom_site_fract_y
_atom_site_fract_z
Zn1	Zn	1.547460	-0.470708	-0.393869
Zn2	Zn	1.569912	-0.580909	-0.216264
Zn3	Zn	1.392410	-0.442774	-0.238880
Zn4	Zn	1.369827	-0.580880	-0.416418
O5	O	1.469902	-0.518818	-0.316358
O6	O	1.699063	-0.497029	-0.351407
O7	O	1.565214	-0.550906	-0.070636
O8	O	1.413033	-0.342562	-0.259468
O9	O	1.715559	-0.577993	-0.220922
O10	O	1.526947	-0.363085	-0.373337
O11	O	1.434804	-0.449419	-0.087252
O12	O	1.240789	-0.449391	-0.281333
O13	O	1.374542	-0.577944	-0.562055
O14	O	1.224197	-0.550857	-0.411770
O15	O	1.505049	-0.497001	-0.545488
O16	O	1.543315	-0.684822	-0.242788
O17	O	1.396313	-0.684801	-0.389840
C18	C	1.193956	-0.497090	-0.351453
C19	C	1.075902	-0.487814	-0.366492
C20	C	1.031445	-0.523661	-0.308535
C21	C	0.909430	-0.514075	-0.324078
C22	C	1.469826	-0.711760	-0.316326
C23	C	1.469886	-0.794312	-0.316336
C24	C	1.549961	-0.993767	-0.236449
C25	C	1.563590	-1.052773	-0.330085
C26	C	1.469941	-0.945450	-0.316370
C27	C	1.456414	-1.033537	-0.222763
C28	C	1.469997	-1.091443	-0.316395
C29	C	1.483613	-1.003377	-0.410051
C30	C	1.376401	-0.984129	-0.302670
C31	C	1.389985	-1.043115	-0.396378
C32	C	1.469911	-0.861348	-0.316354
C33	C	1.470025	-1.175544	-0.316422
C34	C	1.746925	-0.540631	-0.281127
C35	C	1.864976	-0.549926	-0.266113
C36	C	1.434772	-0.540585	-0.593387
C37	C	1.419801	-0.549861	-0.711440
C38	C	1.470005	-0.325126	-0.316410
C39	C	1.470048	-0.242586	-0.316432
C40	C	1.477699	-0.513948	-0.755875
C41	C	1.462228	-0.523535	-0.877889
C42	C	1.504957	-0.497086	-0.040399
C43	C	1.520133	-0.487617	0.077680
H44	H	1.617643	-0.972110	-0.168921
H45	H	1.642717	-1.082609	-0.341692
Br46	Br	1.277221	-1.079011	-0.509155
Br47	Br	0.822324	-0.451098	-0.425974
Br48	Br	1.502892	-0.980936	-0.542025
H49	H	1.401194	-0.561376	-0.930175
Br50	Br	1.244553	-0.934377	-0.283279
H51	H	1.444949	-1.047107	-0.143592
H52	H	1.538717	-0.476102	-0.703587
Br53	Br	1.318080	-0.612932	-0.798581
Br54	Br	1.621864	-0.424546	-0.835185
H55	H	0.917240	-0.587721	-0.204992
Br56	Br	1.118552	-0.586649	-0.206660
Br57	Br	0.988793	-0.424840	-0.468385
