data_functionalizedCrystal
_audit_creation_method	'MofGen! by Chris Wilmer'
_symmetry_space_group_name_H-M	'P1'
_symmetry_Int_Tables_number	1
_symmetry_cell_setting	triclinic
loop_
_symmetry_equiv_pos_as_xyz
  x,y,z
_cell_length_a	9.065215
_cell_length_b	15.995292
_cell_length_c	8.140239
_cell_angle_alpha	89.999675
_cell_angle_beta	89.997810
_cell_angle_gamma	84.241657
loop_
_atom_site_label
_atom_site_type_symbol
_atom_site_fract_x
_atom_site_fract_y
_atom_site_fract_z
O1	O	1.957465	0.122762	-0.136581
O2	O	1.527938	0.132835	-0.136588
O3	O	1.754488	0.005996	-0.136587
O4	O	1.730915	0.249600	-0.136582
O5	O	1.754475	0.005995	0.136640
O6	O	1.527926	0.132833	0.136640
O7	O	1.957452	0.122760	0.136646
Zn8	Zn	1.742687	0.127796	0.180023
Zn9	Zn	1.742703	0.127798	-0.179965
O10	O	1.730903	0.249598	0.136645
C11	C	1.472969	0.131866	0.000025
C12	C	1.309195	0.128973	0.000022
C13	C	1.753522	-0.025207	0.000023
C14	C	1.750646	-0.118182	0.000010
C15	C	1.740072	-0.456001	0.000025
C16	C	1.903589	-0.431449	0.000638
C17	C	1.906697	-0.334750	0.000016
C18	C	1.745319	-0.288405	0.000019
C19	C	1.663575	-0.318124	-0.156003
C20	C	1.661606	-0.414930	-0.156128
C21	C	1.658253	-0.414814	0.154582
C22	C	1.664313	-0.318276	0.156638
C23	C	1.748275	-0.193686	0.000010
C24	C	1.737110	-0.550719	0.000023
C25	C	2.012422	0.123728	0.000030
C26	C	2.176196	0.126621	0.000022
C27	C	1.731869	0.280802	0.000032
C28	C	1.734745	0.373777	0.000034
N29	N	1.742687	0.127795	0.425706
N30	N	1.742716	0.127794	-0.425648
H31	H	1.966611	-0.458969	0.112528
N32	N	1.987016	-0.310255	0.140297
N33	N	2.003066	-0.234476	0.163831
H34	H	2.059798	-0.217179	0.262907
N35	N	1.738944	-0.294387	0.301437
N36	N	1.671397	-0.246987	0.404647
H37	H	1.724105	-0.230105	0.506907
N38	N	1.516543	-0.278034	0.168421
N39	N	1.408868	-0.321109	0.168818
H40	H	1.304503	-0.292681	0.177117
H41	H	1.718229	-0.441317	-0.272759
H42	H	1.537892	-0.429717	0.155635
H43	H	1.720350	-0.297633	-0.272116
N44	N	1.514615	-0.279258	-0.163316
N45	N	1.473073	-0.234183	-0.283384
H46	H	1.367870	-0.206730	-0.288548
H47	H	1.966271	-0.459991	-0.110623
H48	H	1.971105	-0.315857	-0.112020
H49	H	1.541715	-0.430389	-0.163195
N50	N	1.722507	-0.449786	0.302926
N51	N	1.829395	-0.505498	0.296534
H52	H	1.874789	-0.530201	0.401294
