data_functionalizedCrystal
_audit_creation_method	'MofGen! by Chris Wilmer'
_symmetry_space_group_name_H-M	'P1'
_symmetry_Int_Tables_number	1
_symmetry_cell_setting	triclinic
loop_
_symmetry_equiv_pos_as_xyz
  x,y,z
_cell_length_a	10.489741
_cell_length_b	16.992695
_cell_length_c	15.455313
_cell_angle_alpha	87.152573
_cell_angle_beta	87.294147
_cell_angle_gamma	92.396302
loop_
_atom_site_label
_atom_site_type_symbol
_atom_site_fract_x
_atom_site_fract_y
_atom_site_fract_z
O1	O	1.708924	-0.107291	-0.072078
O2	O	1.338633	-0.117680	-0.072091
O3	O	1.522293	0.001665	-0.072078
O4	O	1.525263	-0.226636	-0.072091
O5	O	1.511788	-0.005131	0.072184
O6	O	1.328127	-0.124476	0.072170
O7	O	1.698418	-0.114087	0.072184
Cu8	Cu	1.512313	-0.119902	0.085349
Cu9	Cu	1.524737	-0.111865	-0.085257
O10	O	1.514758	-0.233432	0.072170
C11	C	1.285780	-0.120293	0.000038
C12	C	1.143947	-0.117945	0.000033
C13	C	1.513221	0.027501	0.000053
C14	C	1.501826	0.114610	0.000052
N15	N	1.503584	-0.125555	0.205344
C16	C	1.069200	-0.042010	0.000045
C17	C	0.985373	-0.074530	-0.071083
C18	C	0.975051	-0.081249	0.071147
C19	C	1.061993	-0.150494	-0.071155
C20	C	1.051675	-0.157206	0.071139
C21	C	0.967882	-0.189781	-0.000007
C22	C	1.751271	-0.111474	0.000053
C23	C	1.893105	-0.113821	0.000052
C24	C	1.523830	-0.259268	0.000038
C25	C	1.535225	-0.346377	0.000033
C26	C	1.611775	0.164229	0.000057
C27	C	1.601061	0.246077	0.000048
C28	C	1.480396	0.278303	0.000041
C29	C	1.370439	0.228677	0.000033
C30	C	1.381155	0.146832	0.000036
C31	C	1.435984	0.522152	0.000027
C32	C	1.425276	0.604004	0.000028
C33	C	1.655899	0.621398	0.000041
C34	C	1.666604	0.539550	0.000049
C35	C	1.556647	0.489931	0.000036
N36	N	1.469442	0.361964	0.000035
N37	N	1.567604	0.406272	0.000036
N38	N	1.533476	-0.106206	-0.205252
C39	C	1.581641	-0.074872	0.250744
C40	C	1.575052	-0.079154	0.341551
C41	C	1.490412	-0.134124	0.386957
C42	C	1.412347	-0.184809	0.341551
C43	C	1.418931	-0.180522	0.250745
C44	C	1.461994	-0.152605	0.658536
C45	C	1.455420	-0.156889	0.749348
C46	C	1.618123	-0.051233	0.749343
C47	C	1.624704	-0.046954	0.658535
C48	C	1.546635	-0.097637	0.613137
N49	N	1.483678	-0.138504	0.479777
N50	N	1.553363	-0.093252	0.520319
H51	H	1.113465	0.020419	-0.000040
H52	H	1.638610	-0.037883	0.378515
C53	C	1.319203	-0.245252	0.391491
H54	H	1.273639	-0.274811	0.351444
H55	H	1.365831	-0.279870	0.426916
H56	H	1.260646	-0.218354	0.426911
H57	H	1.745420	0.661806	0.000049
H58	H	0.923898	-0.252269	-0.000049
C59	C	0.923512	-0.041658	0.152385
H60	H	0.958438	0.010841	0.152293
H61	H	0.833037	-0.040878	0.152088
H62	H	0.947295	-0.070506	0.202894
C63	C	1.091487	-0.204405	0.152370
H64	H	1.137588	-0.248486	0.135283
H65	H	1.144036	-0.171595	0.185282
H66	H	1.017386	-0.222261	0.186658
C67	C	1.292543	0.639455	0.000019
H68	H	1.301913	0.695305	0.000031
H69	H	1.250581	0.624841	-0.050290
H70	H	1.243256	0.620099	0.050330
C71	C	1.744507	0.128788	0.000065
H72	H	1.808453	0.170065	0.000059
H73	H	1.749821	0.094854	0.050372
H74	H	1.757144	0.099590	-0.050248
C75	C	1.722005	0.300654	0.000063
H76	H	1.795401	0.269739	0.000080
H77	H	1.726295	0.335312	-0.050244
H78	H	1.718944	0.330575	0.050376
H79	H	1.693624	-0.002194	0.621568
H80	H	1.291622	0.106432	0.000032
H81	H	1.355367	-0.221793	0.213781
H82	H	0.955943	-0.039567	-0.131215
H83	H	1.764862	0.513318	0.000055
H84	H	1.650569	-0.030113	0.213780
C85	C	1.703979	0.004520	0.799282
H86	H	1.687931	-0.005899	0.859866
H87	H	1.791101	-0.003805	0.784389
H88	H	1.685849	0.057668	0.784410
C89	C	1.315035	0.467582	0.000029
H90	H	1.241640	0.498499	0.000037
H91	H	1.318072	0.437656	-0.050275
H92	H	1.310762	0.432928	0.050345
H93	H	1.398429	-0.193874	0.621580
C94	C	1.113321	-0.190051	-0.152472
H95	H	1.203749	-0.191283	-0.151994
H96	H	1.077760	-0.242376	-0.152659
H97	H	1.090138	-0.160887	-0.202932
C98	C	1.237711	0.264124	0.000028
H99	H	1.247073	0.319975	0.000037
H100	H	1.195748	0.249505	-0.050280
H101	H	1.188430	0.244767	0.050341
C102	C	1.362240	-0.217316	0.799294
H103	H	1.316658	-0.246871	0.759251
H104	H	1.408841	-0.251941	0.834728
H105	H	1.303700	-0.190397	0.834706
