data_functionalizedCrystal
_audit_creation_method	'MofGen! by Chris Wilmer'
_symmetry_space_group_name_H-M	'P1'
_symmetry_Int_Tables_number	1
_symmetry_cell_setting	triclinic
loop_
_symmetry_equiv_pos_as_xyz
  x,y,z
_cell_length_a	20.919309
_cell_length_b	20.919286
_cell_length_c	20.919292
_cell_angle_alpha	96.310969
_cell_angle_beta	59.202373
_cell_angle_gamma	64.532808
loop_
_atom_site_label
_atom_site_type_symbol
_atom_site_fract_x
_atom_site_fract_y
_atom_site_fract_z
Zr1	Zr	0.700777	0.639871	-0.076052
O2	O	0.834340	0.536615	-0.189175
O3	O	0.567215	0.668103	-0.037954
O4	O	0.700780	0.665651	-0.176858
O5	O	0.700773	0.544894	0.055409
O6	O	0.700782	0.771328	-0.171033
O7	O	0.700775	0.539068	-0.050271
O8	O	0.461858	0.775715	0.077442
O9	O	0.939697	0.540507	-0.193066
O10	O	0.622152	0.763143	-0.021490
O11	O	0.622150	0.688626	0.053030
O12	O	0.779405	0.685739	-0.110512
O13	O	0.779402	0.611221	-0.035992
Zr14	Zr	0.700778	0.817708	0.101785
Zr15	Zr	0.700780	0.808415	-0.066762
Zr16	Zr	0.700775	0.649164	0.092494
Zr17	Zr	0.868809	0.646079	-0.082258
Zr18	Zr	0.532746	0.811500	0.107990
O19	O	0.834340	0.789476	0.063686
O20	O	0.834344	0.776262	-0.175965
O21	O	0.834336	0.549828	0.050476
O22	O	0.567215	0.920964	0.214908
O23	O	0.567219	0.907750	-0.024744
O24	O	0.567211	0.681316	0.201698
O25	O	0.700782	0.912684	-0.029676
O26	O	0.700775	0.791928	0.202590
O27	O	0.700773	0.686250	0.196765
O28	O	0.700780	0.918511	0.076003
O29	O	0.939699	0.674477	-0.185681
O30	O	0.461856	0.783102	0.211414
O31	O	0.461858	0.917071	0.218798
O32	O	0.461861	0.909685	0.084826
O33	O	0.939694	0.547894	-0.059094
O34	O	0.939697	0.681864	-0.051709
O35	O	0.622150	0.771840	0.136244
O36	O	0.622153	0.846358	0.061724
O37	O	0.779405	0.768953	-0.027298
O38	O	0.779403	0.694435	0.047223
C39	C	0.490596	0.721025	0.020628
C40	C	0.419262	0.718389	0.023262
C41	C	0.385751	0.756047	-0.014399
C42	C	0.318720	0.753573	-0.011916
C43	C	0.285207	0.713437	0.028224
C44	C	0.318721	0.675778	0.065890
C45	C	0.385746	0.678257	0.063412
C46	C	0.082832	0.704010	0.037658
C47	C	0.015804	0.701532	0.040131
C48	C	0.015807	0.779328	-0.037674
C49	C	0.082837	0.781799	-0.040153
C50	C	0.116342	0.744145	-0.002483
C51	C	0.216693	0.710905	0.030761
C52	C	0.184850	0.746682	-0.005015
C53	C	0.700774	0.517967	0.001245
C54	C	0.700773	0.446416	-0.002699
C55	C	0.700785	0.041566	-0.027937
C56	C	0.700788	0.108795	-0.024230
C57	C	0.700782	0.145623	0.035848
C58	C	0.700782	0.115214	0.092219
C59	C	0.700785	0.047983	0.088508
C60	C	0.700776	0.348776	0.049961
C61	C	0.700770	0.416013	0.053669
C62	C	0.700778	0.409588	-0.062781
C63	C	0.700776	0.342359	-0.066484
C64	C	0.700781	0.311953	-0.010116
C65	C	0.700782	0.214344	0.039640
C66	C	0.700787	0.243231	-0.013912
C67	C	0.910959	0.736554	0.005104
C68	C	0.982293	0.739189	0.002470
C69	C	0.700781	0.717165	-0.197960
C70	C	0.700782	0.713220	-0.269512
C71	C	0.700781	0.939612	0.024487
C72	C	0.700782	1.011163	0.028431
C73	C	0.700785	0.769585	-0.299919
C74	C	0.700778	0.765880	-0.367145
C75	C	0.700775	0.705807	-0.403968
C76	C	0.700770	0.649439	-0.373556
C77	C	0.700770	0.653148	-0.306327
C78	C	0.700768	0.691699	-0.607114
C79	C	0.700770	0.687993	-0.674349
C80	C	0.700777	0.804436	-0.667933
C81	C	0.700782	0.808137	-0.600706
C82	C	0.700772	0.751772	-0.570297
C83	C	0.700771	0.702017	-0.472686
C84	C	0.700770	0.755565	-0.501576
C85	C	0.700774	0.740413	0.223692
C86	C	0.700773	0.744358	0.295245
C87	C	0.490599	0.931847	0.032249
C88	C	0.419267	1.000763	0.038827
C89	C	0.490592	0.732649	0.231454
C90	C	0.419257	0.733958	0.305641
C91	C	0.490596	0.943471	0.243075
C92	C	0.419262	1.016332	0.321206
C93	C	0.910959	0.514108	-0.217343
C94	C	0.982293	0.441247	-0.295473
C95	C	0.910956	0.525732	-0.006517
C96	C	0.982288	0.456816	-0.013095
C97	C	0.910963	0.724930	-0.205722
C98	C	0.982298	0.723620	-0.279909
C99	C	0.385768	0.989689	-0.001528
C100	C	0.318753	1.054436	0.004637
C101	C	0.285233	1.130256	0.051162
C102	C	0.318738	1.141328	0.091518
C103	C	0.385757	1.076582	0.085348
C104	C	0.385758	0.778011	0.383924
C105	C	0.318740	0.779239	0.453636
C106	C	0.285219	0.736419	0.445064
C107	C	0.318725	0.692361	0.366772
C108	C	0.385746	0.691129	0.297062
C109	C	0.385764	1.089453	0.318998
C110	C	0.318748	1.157920	0.392404
C111	C	0.285226	1.153264	0.468017
C112	C	0.318730	1.080135	0.470222
C113	C	0.385750	1.011670	0.396817
C114	C	1.015799	0.368126	-0.293266
C115	C	1.082836	0.299660	-0.366673
C116	C	1.116361	0.304316	-0.442285
C117	C	1.082853	0.377444	-0.444490
C118	C	1.015821	0.445909	-0.371085
C119	C	1.015794	0.467890	0.027253
C120	C	1.082827	0.403143	0.021069
C121	C	1.116350	0.327322	-0.025458
C122	C	1.082841	0.316250	-0.065811
C123	C	1.015814	0.380996	-0.059632
C124	C	1.015798	0.766449	-0.271310
C125	C	1.082816	0.765234	-0.341009
C126	C	1.116337	0.721185	-0.419306
C127	C	1.082830	0.678355	-0.427903
C128	C	1.015809	0.679575	-0.358204
H129	H	0.413037	0.788726	-0.047089
H130	H	0.988542	0.505445	-0.372891
H131	H	0.700764	0.445996	0.102596
H132	H	0.291476	1.217457	0.390594
H133	H	0.230662	1.182970	0.056180
H134	H	1.110146	0.254509	-0.103693
H135	H	0.291422	0.657498	0.359805
H136	H	1.110089	0.800111	-0.333993
H137	H	0.988506	0.364321	-0.231706
H138	H	0.413013	0.655259	0.233323
H139	H	1.110158	0.381226	-0.506063
H140	H	0.110100	0.673352	0.068335
H141	H	0.700776	0.434350	-0.108674
H142	H	1.110099	0.412173	0.053933
H143	H	0.988541	0.644695	-0.365217
H144	H	0.291435	0.784237	-0.042582
H145	H	0.413032	0.647591	0.094077
H146	H	0.700793	0.818501	-0.269945
H147	H	0.291481	1.045405	-0.028227
H148	H	0.413015	0.952135	0.398625
H149	H	0.291425	0.643103	0.098577
H150	H	0.988515	0.802319	-0.207563
H151	H	0.700778	0.324026	0.095859
H152	H	0.700783	0.850327	-0.692698
H153	H	0.700762	0.645803	-0.582362
H154	H	0.988535	0.371969	-0.092486
H155	H	0.110122	0.814481	-0.072838
H156	H	0.413048	1.093258	0.257438
H157	H	0.700782	0.145201	0.141133
H158	H	-0.011480	0.809986	-0.068342
H159	H	0.700785	0.023229	0.134408
H160	H	0.988505	0.529621	0.065145
H161	H	0.700771	0.653103	-0.502674
H162	H	0.413043	0.812881	0.390919
H163	H	1.110107	0.240123	-0.364862
H164	H	0.291436	1.203070	0.129397
H165	H	1.170928	0.274609	-0.030483
H166	H	-0.011478	0.668845	0.072817
H167	H	0.230654	1.209019	0.527782
H168	H	0.291427	1.076356	0.531795
H169	H	0.230647	0.737429	0.501834
H170	H	0.212135	0.779364	-0.037693
H171	H	0.700781	0.312375	-0.115404
H172	H	0.189399	0.678226	0.063442
H173	H	1.170942	0.248562	-0.502051
H174	H	0.700797	0.213241	-0.062830
H175	H	0.413023	1.085610	0.118215
H176	H	1.170910	0.720198	-0.476052
H177	H	0.291467	0.815119	0.517378
H178	H	1.110134	0.642491	-0.491661
H179	H	0.700785	0.011588	-0.076856
H180	H	0.700779	0.811777	-0.391901
H181	H	0.700791	0.133549	-0.070130
H182	H	0.700762	0.600528	-0.403538
H183	H	0.700785	0.857054	-0.570726
H184	H	0.700774	0.244336	0.088558
H185	H	0.700768	0.804480	-0.471590
H186	H	0.700769	0.639071	-0.704328
H187	H	0.700767	0.607250	-0.281570
H188	H	0.413060	0.927958	-0.039422
