data_functionalizedCrystal
_audit_creation_method	'MofGen! by Chris Wilmer'
_symmetry_space_group_name_H-M	'P1'
_symmetry_Int_Tables_number	1
_symmetry_cell_setting	triclinic
loop_
_symmetry_equiv_pos_as_xyz
  x,y,z
_cell_length_a	12.594517
_cell_length_b	29.839131
_cell_length_c	12.594510
_cell_angle_alpha	89.958912
_cell_angle_beta	89.978880
_cell_angle_gamma	90.041220
loop_
_atom_site_label
_atom_site_type_symbol
_atom_site_fract_x
_atom_site_fract_y
_atom_site_fract_z
Zn1	Zn	1.627077	-0.178815	-0.601810
Zn2	Zn	1.626890	-0.253958	-0.423811
Zn3	Zn	1.449082	-0.178842	-0.423839
Zn4	Zn	1.448984	-0.253919	-0.601741
O5	O	1.538008	-0.216383	-0.512800
O6	O	1.775998	-0.188788	-0.578215
O7	O	1.603266	-0.244021	-0.274869
O8	O	1.472812	-0.115972	-0.447488
O9	O	1.775860	-0.243995	-0.447440
O10	O	1.603585	-0.115952	-0.578243
O11	O	1.472631	-0.188834	-0.274889
O12	O	1.300123	-0.188796	-0.447421
O13	O	1.472647	-0.243928	-0.750696
O14	O	1.300052	-0.243954	-0.578124
O15	O	1.603491	-0.188750	-0.750747
O16	O	1.603171	-0.316820	-0.447373
O17	O	1.472465	-0.316791	-0.578097
C18	C	1.261467	-0.216374	-0.512769
C19	C	1.143162	-0.216381	-0.512781
C20	C	1.073917	-0.186340	-0.441827
C21	C	1.003063	-0.227320	-0.415635
C22	C	1.003217	-0.175421	-0.538990
C23	C	1.073866	-0.257383	-0.486538
C24	C	1.074026	-0.205456	-0.609939
C25	C	1.003204	-0.246465	-0.583784
C26	C	1.537816	-0.333106	-0.512747
C27	C	1.537831	-0.383040	-0.512760
C28	C	1.606191	-0.692686	-0.444831
C29	C	1.606322	-0.880359	-0.444873
O30	O	1.664292	-0.904626	-0.387076
N31	N	1.538229	-0.903825	-0.512880
C32	C	1.470103	-0.880371	-0.580888
O33	O	1.412196	-0.904636	-0.638741
C34	C	1.469978	-0.692698	-0.580851
C35	C	1.538068	-0.669235	-0.512831
C36	C	1.674276	-0.669222	-0.376818
C37	C	1.674239	-0.622307	-0.376804
C38	C	1.606116	-0.598855	-0.444804
C39	C	1.538030	-0.622319	-0.512817
C40	C	1.401858	-0.669244	-0.648863
C41	C	1.401835	-0.622323	-0.648849
C42	C	1.469925	-0.598860	-0.580830
C43	C	1.469870	-0.551952	-0.580803
N44	N	1.537963	-0.528486	-0.512796
C45	C	1.606086	-0.551937	-0.444796
C46	C	1.470172	-0.978901	-0.580901
C47	C	1.470202	-1.025819	-0.580909
C48	C	1.606423	-1.025804	-0.444895
C49	C	1.606387	-0.978886	-0.444882
C50	C	1.538265	-0.955435	-0.512893
C51	C	1.606001	-0.453412	-0.444772
C52	C	1.605954	-0.406492	-0.444761
C53	C	1.469738	-0.406511	-0.580778
C54	C	1.469780	-0.453426	-0.580785
C55	C	1.537920	-0.476876	-0.512779
O56	O	1.411939	-0.527656	-0.638578
O57	O	1.664001	-0.527664	-0.386968
C58	C	1.606228	-0.739602	-0.444845
C59	C	1.538143	-0.763065	-0.512859
C60	C	1.470020	-0.739614	-0.580858
C61	C	1.538173	-0.809983	-0.512867
C62	C	1.606296	-0.833435	-0.444867
C63	C	1.674389	-0.809969	-0.376859
C64	C	1.674351	-0.763053	-0.376846
C65	C	1.401927	-0.763080	-0.648866
C66	C	1.401969	-0.809996	-0.648873
C67	C	1.470092	-0.833447	-0.580874
C68	C	1.815629	-0.216393	-0.512832
C69	C	1.933935	-0.216397	-0.512846
C70	C	1.538079	-0.216332	-0.790421
C71	C	1.538109	-0.216309	-0.908727
C72	C	1.538230	-0.099205	-0.512876
C73	C	1.538325	-0.049271	-0.512909
C74	C	1.609296	-0.186296	-0.978008
C75	C	1.512231	-0.175299	-1.048802
C76	C	1.635230	-0.227275	-1.048732
C77	C	1.440992	-0.205292	-0.977963
C78	C	1.564057	-0.257286	-0.977887
C79	C	1.466925	-0.246305	-1.048649
C80	C	1.538000	-0.216403	-0.236259
C81	C	1.538176	-0.216298	-0.117954
H82	H	1.105220	-0.196194	-0.692051
H83	H	1.104965	-0.160960	-0.381749
H84	H	1.661832	-0.959784	-0.389495
H85	H	1.104771	-0.292040	-0.464307
C86	C	0.960967	-0.239824	-0.304675
C87	C	0.988864	-0.210423	-0.208183
C88	C	0.946783	-0.222926	-0.097219
C89	C	0.876805	-0.264829	-0.082748
C90	C	0.848904	-0.294233	-0.179243
C91	C	0.890985	-0.281730	-0.290207
H92	H	1.040669	-0.179401	-0.218893
H93	H	0.967437	-0.201159	-0.025787
H94	H	0.845654	-0.274085	-0.000605
H95	H	0.797099	-0.325255	-0.168533
H96	H	0.870331	-0.303497	-0.361639
C97	C	1.330042	-0.192696	-0.936154
C98	C	1.309517	-0.190353	-0.815744
C99	C	1.198571	-0.177754	-0.773933
C100	C	1.108150	-0.167498	-0.852532
C101	C	1.128672	-0.169840	-0.972950
C102	C	1.239618	-0.182439	-1.014761
H103	H	1.376454	-0.197946	-0.757553
H104	H	1.183379	-0.176021	-0.684792
H105	H	1.026021	-0.158171	-0.821581
H106	H	1.061735	-0.162247	-1.031140
H107	H	1.254809	-0.184173	-1.103902
C108	C	0.961517	-0.280831	-0.664886
C109	C	0.989657	-0.330783	-0.652672
C110	C	0.947969	-0.365149	-0.733770
C111	C	0.878142	-0.349564	-0.827082
C112	C	0.849999	-0.299609	-0.839300
C113	C	0.891687	-0.265243	-0.758202
H114	H	1.041350	-0.342322	-0.583594
H115	H	0.968803	-0.402129	-0.724725
H116	H	0.847283	-0.375004	-0.887116
H117	H	0.798306	-0.288070	-0.908379
H118	H	0.870853	-0.228263	-0.767247
H119	H	1.406684	-0.271682	-1.079471
C120	C	1.690482	-0.151991	-0.936091
C121	C	1.783596	-0.167668	-0.866134
C122	C	1.864775	-0.133363	-0.824215
C123	C	1.852840	-0.083379	-0.852252
C124	C	1.759722	-0.067698	-0.922212
C125	C	1.678543	-0.102004	-0.964132
H126	H	1.792435	-0.204672	-0.845376
H127	H	1.933708	-0.144971	-0.772426
H128	H	1.912934	-0.057984	-0.821221
H129	H	1.750883	-0.030695	-0.942970
H130	H	1.609610	-0.090396	-1.015921
C131	C	0.961289	-0.128618	-0.568911
C132	C	0.989220	-0.087814	-0.499505
C133	C	0.947296	-0.041011	-0.529414
C134	C	0.877442	-0.035010	-0.628730
C135	C	0.849507	-0.075815	-0.698143
C136	C	0.891431	-0.122619	-0.668233
H137	H	1.040934	-0.092255	-0.425979
H138	H	0.967976	-0.010804	-0.478030
H139	H	0.846407	-0.000363	-0.650871
H140	H	0.797793	-0.071374	-0.771668
H141	H	0.870752	-0.152825	-0.719617
C142	C	1.593711	-0.304092	-0.935762
C143	C	1.525244	-0.345015	-0.965183
C144	C	1.554913	-0.391821	-0.923055
C145	C	1.653049	-0.397704	-0.851505
C146	C	1.721523	-0.356779	-0.822080
C147	C	1.691854	-0.309973	-0.864209
H148	H	1.452592	-0.340662	-1.018152
H149	H	1.504224	-0.422116	-0.944838
H150	H	1.675012	-0.432352	-0.820320
H151	H	1.794174	-0.361132	-0.769112
H152	H	1.742543	-0.279678	-0.842426
H153	H	1.661401	-0.387389	-0.389367
H154	H	1.661490	-0.472498	-0.389396
H155	H	1.729686	-0.603205	-0.321420
H156	H	1.729756	-0.688312	-0.321444
C157	C	1.681365	-1.051607	-0.370099
C158	C	1.681394	-1.103214	-0.370122
C159	C	1.756339	-1.129019	-0.295337
C160	C	1.831254	-1.103216	-0.220529
C161	C	1.831227	-1.051605	-0.220503
C162	C	1.756283	-1.025800	-0.295288
H163	H	1.625935	-1.122318	-0.425502
H164	H	1.756358	-1.167225	-0.295357
H165	H	1.886732	-1.122318	-0.165168
H166	H	1.886686	-1.032501	-0.165122
H167	H	1.756264	-0.987595	-0.295268
C168	C	1.482615	-0.128479	-1.090880
C169	C	1.459343	-0.090136	-1.012495
C170	C	1.429738	-0.043313	-1.054563
C171	C	1.423405	-0.034833	-1.175016
C172	C	1.446677	-0.073177	-1.253408
C173	C	1.476282	-0.120000	-1.211340
H174	H	1.464031	-0.096412	-0.923321
H175	H	1.412511	-0.014929	-0.996531
H176	H	1.401490	-0.000172	-1.206157
H177	H	1.441990	-0.066900	-1.342581
H178	H	1.493510	-0.148384	-1.269372
H179	H	1.414746	-1.044919	-0.636287
H180	H	1.717336	-0.236553	-1.079822
H181	H	1.414697	-0.959811	-0.636284
H182	H	1.346363	-0.603232	-0.704235
C183	C	1.326960	-0.695044	-0.723695
C184	C	1.205962	-0.688640	-0.714912
C185	C	1.131061	-0.714438	-0.789753
C186	C	1.177157	-0.746640	-0.873377
C187	C	1.298162	-0.753046	-0.882164
C188	C	1.373063	-0.727248	-0.807323
H189	H	1.171833	-0.664801	-0.653006
H190	H	1.041485	-0.709696	-0.783248
H191	H	1.121710	-0.765737	-0.928779
H192	H	1.332291	-0.776885	-0.944071
H193	H	1.462639	-0.731990	-0.813828
H194	H	1.414339	-0.472531	-0.636176
C195	C	1.394809	-0.380707	-0.655577
C196	C	1.311256	-0.348500	-0.609372
C197	C	1.236334	-0.322694	-0.684177
C198	C	1.244966	-0.329095	-0.805187
C199	C	1.328523	-0.361303	-0.851398
C200	C	1.403445	-0.387109	-0.776593
H201	H	1.304863	-0.343760	-0.519787
H202	H	1.174479	-0.298851	-0.649968
H203	H	1.189504	-0.309992	-0.860562
H204	H	1.334916	-0.366043	-0.940982
H205	H	1.465299	-0.410952	-0.810802
H206	H	1.729797	-0.743952	-0.321458
H207	H	1.729854	-0.829071	-0.321488
H208	H	1.346513	-0.829096	-0.704262
H209	H	1.346454	-0.743989	-0.704241
