data_functionalizedCrystal
_audit_creation_method	'MofGen! by Chris Wilmer'
_symmetry_space_group_name_H-M	'P1'
_symmetry_Int_Tables_number	1
_symmetry_cell_setting	triclinic
loop_
_symmetry_equiv_pos_as_xyz
  x,y,z
_cell_length_a	16.625546
_cell_length_b	10.685972
_cell_length_c	10.685314
_cell_angle_alpha	90.358457
_cell_angle_beta	94.331126
_cell_angle_gamma	85.613069
loop_
_atom_site_label
_atom_site_type_symbol
_atom_site_fract_x
_atom_site_fract_y
_atom_site_fract_z
Zn1	Zn	-0.271680	-1.863525	-0.856526
Zn2	Zn	0.228320	-1.363525	-0.356526
Zn3	Zn	-0.395485	-1.879457	-0.646740
Zn4	Zn	0.104515	-1.379457	-0.146740
Zn5	Zn	-0.270145	-1.669813	-0.630671
Zn6	Zn	0.229855	-1.169813	-0.130671
Zn7	Zn	-0.415952	-1.653693	-0.840340
Zn8	Zn	0.084048	-1.153693	-0.340340
O9	O	-0.338315	-1.766622	-0.743569
O10	O	0.161685	-1.266622	-0.243569
O11	O	-0.280180	-2.041190	-0.842196
O12	O	0.219820	-1.541190	-0.342196
O13	O	-0.369651	-1.865061	-0.469065
O14	O	0.130349	-1.365061	0.030935
O15	O	-0.157514	-1.695588	-0.660681
O16	O	0.342486	-1.195588	-0.160681
O17	O	-0.371139	-2.052895	-0.688067
O18	O	0.128861	-1.552895	-0.188067
O19	O	-0.158642	-1.837908	-0.826615
O20	O	0.341358	-1.337908	-0.326615
O21	O	-0.277564	-1.711037	-0.457259
O22	O	0.222436	-1.211037	0.042741
O23	O	-0.297409	-1.492123	-0.644986
O24	O	0.202591	-0.992123	-0.144986
O25	O	-0.406021	-1.668113	-1.018030
O26	O	0.093979	-1.168113	-0.518030
O27	O	-0.404533	-1.480279	-0.799028
O28	O	0.095467	-0.980279	-0.299028
O29	O	-0.300025	-1.822276	-1.029922
O30	O	0.199975	-1.322276	-0.529922
O31	O	-0.511034	-1.849430	-0.672372
O32	O	-0.011034	-1.349430	-0.172372
O33	O	-0.526071	-1.683562	-0.814609
O34	O	-0.026071	-1.183562	-0.314609
C35	C	-0.353026	-1.440682	-0.718508
C36	C	0.146974	-0.940682	-0.218508
C37	C	-0.359340	-1.301242	-0.707816
C38	C	0.140660	-0.801242	-0.207816
C39	C	-0.547809	-1.766507	-0.743507
C40	C	-0.047809	-1.266507	-0.243507
C41	C	-0.637428	-1.766570	-0.743532
C42	C	-0.137428	-1.266570	-0.243532
C43	C	-0.965601	-1.766778	-0.743679
C44	C	-0.465601	-1.266778	-0.243679
C45	C	-0.874293	-1.766716	-0.743641
C46	C	-0.374293	-1.266716	-0.243641
C47	C	-0.801517	-1.766673	-0.743605
C48	C	-0.301517	-1.266673	-0.243605
C49	C	-0.710204	-1.766613	-0.743568
C50	C	-0.210204	-1.266613	-0.243568
C51	C	-0.128004	-1.766769	-0.743661
C52	C	0.371996	-1.266769	-0.243661
C53	C	-0.038381	-1.766832	-0.743700
C54	C	0.461619	-1.266832	-0.243700
C55	C	-0.355477	-1.741619	-1.070765
C56	C	0.144523	-1.241619	-0.570765
C57	C	-0.362791	-1.730965	-1.210197
C58	C	0.137209	-1.230965	-0.710197
C59	C	-0.323542	-1.093835	-0.768723
C60	C	0.176458	-0.593835	-0.268723
C61	C	-0.317232	-1.233274	-0.779427
C62	C	0.182768	-0.733274	-0.279427
C63	C	-0.321159	-1.791599	-0.417651
C64	C	0.178841	-1.291599	0.082349
C65	C	-0.313607	-1.802497	-0.278239
C66	C	0.186393	-1.302497	0.221761
H67	H	-0.276346	-1.281761	-0.848914
H68	H	0.223654	-0.781761	-0.348914
N69	N	-0.410618	-1.240424	-0.620609
N70	N	0.089382	-0.740424	-0.120609
N71	N	-0.381252	-1.173384	-0.535202
N72	N	0.118748	-0.673384	-0.035202
H73	H	-0.417465	-1.130432	-0.473610
H74	H	0.082535	-0.630432	0.026390
N75	N	-0.253754	-1.889528	-1.217492
N76	N	0.246246	-1.389528	-0.717492
N77	N	-0.247691	-1.898340	-1.100512
N78	N	0.252309	-1.398340	-0.600512
H79	H	-0.205418	-1.959806	-1.057600
H80	H	0.294582	-1.459806	-0.557600
N81	N	-0.422634	-1.643907	-1.270947
N82	N	0.077366	-1.143907	-0.770947
N83	N	-0.428694	-1.635083	-1.387927
N84	N	0.071306	-1.135083	-0.887927
H85	H	-0.470956	-1.573598	-1.430834
H86	H	0.029044	-1.073598	-0.930834
