data_functionalizedCrystal
_audit_creation_method	'MofGen! by Chris Wilmer'
_symmetry_space_group_name_H-M	'P1'
_symmetry_Int_Tables_number	1
_symmetry_cell_setting	triclinic
loop_
_symmetry_equiv_pos_as_xyz
  x,y,z
_cell_length_a	13.596369
_cell_length_b	12.837943
_cell_length_c	12.837942
_cell_angle_alpha	94.828940
_cell_angle_beta	89.994711
_cell_angle_gamma	89.995986
loop_
_atom_site_label
_atom_site_type_symbol
_atom_site_fract_x
_atom_site_fract_y
_atom_site_fract_z
O1	O	0.081773	-1.402337	-0.272142
O2	O	0.581773	-0.902337	0.227858
O3	O	0.081779	-1.099204	-0.258699
O4	O	0.581779	-0.599204	0.241301
O5	O	0.081770	-1.244049	-0.113854
O6	O	0.581770	-0.744049	0.386146
O7	O	0.081782	-1.257492	-0.416987
O8	O	0.581782	-0.757492	0.083013
O9	O	-0.081813	-1.244032	-0.113844
O10	O	0.418187	-0.744032	0.386156
O11	O	-0.081804	-1.099187	-0.258689
O12	O	0.418196	-0.599187	0.241311
O13	O	-0.081810	-1.402320	-0.272132
O14	O	0.418190	-0.902320	0.227868
Zn15	Zn	-0.107779	-1.250751	-0.265409
Zn16	Zn	0.392221	-0.750751	0.234591
Zn17	Zn	0.107748	-1.250773	-0.265422
Zn18	Zn	0.607748	-0.750773	0.234578
O19	O	-0.081801	-1.257475	-0.416977
O20	O	0.418199	-0.757475	0.083023
C21	C	-0.000012	-1.060126	-0.254153
C22	C	0.499988	-0.560126	0.245847
C23	C	-0.000010	-0.943711	-0.240608
C24	C	0.499990	-0.443711	0.259392
C25	C	-0.000021	-1.239499	-0.074780
C26	C	0.499979	-0.739499	0.425220
C27	C	-0.000019	-1.225954	0.041635
C28	C	0.499981	-0.725954	0.541635
N29	N	-0.254871	-1.250743	-0.265400
N30	N	0.245129	-0.750743	0.234600
C31	C	-0.656162	-1.250772	-0.265423
C32	C	-0.156162	-0.750772	0.234577
C33	C	-0.544511	-1.250761	-0.265420
C34	C	-0.044511	-0.750761	0.234580
C35	C	-0.455520	-1.250758	-0.265412
C36	C	0.044480	-0.750758	0.234588
C37	C	-0.343862	-1.250746	-0.265407
C38	C	0.156138	-0.750746	0.234593
N39	N	0.254840	-1.250788	-0.265424
N40	N	0.754840	-0.750788	0.234576
C41	C	-0.000017	-1.441398	-0.276679
C42	C	0.499983	-0.941398	0.223321
C43	C	-0.000013	-1.557813	-0.290223
C44	C	0.499987	-1.057813	0.209777
C45	C	-0.000018	-0.718837	-0.403437
C46	C	0.499982	-0.218837	0.096563
C47	C	-0.000016	-0.609454	-0.390716
C48	C	0.499984	-0.109454	0.109284
C49	C	-0.000013	-0.615562	-0.202445
C50	C	0.499987	-0.115562	0.297555
C51	C	-0.000014	-0.724944	-0.215166
C52	C	0.499986	-0.224944	0.284834
C53	C	-0.000015	-0.776578	-0.315666
C54	C	0.499985	-0.276578	0.184334
C55	C	-0.000009	-0.885962	-0.328386
C56	C	0.499991	-0.385962	0.171614
C57	C	-0.000013	-0.892067	-0.140116
C58	C	0.499987	-0.392067	0.359884
C59	C	-0.000012	-0.782685	-0.127395
C60	C	0.499988	-0.282685	0.372605
C61	C	-0.000008	-1.262025	-0.456051
C62	C	0.499992	-0.762025	0.043949
C63	C	-0.000004	-1.275569	-0.572467
C64	C	0.499996	-0.775569	-0.072467
C65	C	-0.000002	-1.388784	0.266510
C66	C	0.499998	-0.888784	0.766510
C67	C	0.000000	-1.376062	0.375892
C68	C	0.500000	-0.876062	0.875892
C69	C	-0.000006	-1.187791	0.369785
C70	C	0.499994	-0.687791	0.869785
C71	C	-0.000008	-1.200513	0.260402
C72	C	0.499992	-0.700513	0.760402
C73	C	-0.000007	-1.301012	0.208769
C74	C	0.499993	-0.801012	0.708769
C75	C	-0.000016	-1.313732	0.099384
C76	C	0.499984	-0.813732	0.599384
C77	C	-0.000016	-1.125462	0.093279
C78	C	0.499984	-0.625462	0.593279
C79	C	-0.000014	-1.112741	0.202661
C80	C	0.499986	-0.612741	0.702661
H81	H	-0.000012	-0.928000	-0.410218
H82	H	0.499988	-0.428000	0.089782
H83	H	-0.000094	-0.573502	-0.120623
H84	H	0.499906	-0.073502	0.379377
C85	C	-0.084106	-0.482899	-0.485626
C86	C	0.415894	0.017101	0.014374
C87	C	-0.000015	-0.545985	-0.487198
C88	C	0.499985	-0.045985	0.012802
H89	H	-0.084107	-0.443722	-0.545197
H90	H	0.415893	0.056278	-0.045197
H91	H	-0.084097	-0.436494	-0.423964
H92	H	0.415903	0.063506	0.076036
H93	H	-0.141145	-0.525702	-0.486669
H94	H	0.358855	-0.025702	0.013331
H95	H	0.057025	-0.503181	-0.486147
H96	H	0.557025	-0.003181	0.013853
H97	H	-0.000015	-0.592395	-0.548876
H98	H	0.499985	-0.092395	-0.048876
H99	H	-0.000017	-0.760878	-0.485268
H100	H	0.499983	-0.260878	0.014732
C101	C	-0.000005	-0.617720	-0.024296
C102	C	0.499995	-0.117720	0.475704
C103	C	-0.000006	-0.725923	-0.016930
C104	C	0.499994	-0.225923	0.483070
H105	H	0.000007	-0.582682	0.043903
H106	H	0.500007	-0.082682	0.543903
H107	H	-0.057050	-0.598541	-0.060871
H108	H	0.442950	-0.098541	0.439129
H109	H	0.057041	-0.598555	-0.060903
H110	H	0.557041	-0.098555	0.439097
H111	H	-0.057056	-0.745089	0.019671
H112	H	0.442944	-0.245089	0.519671
H113	H	0.057045	-0.745109	0.019660
H114	H	0.557045	-0.245109	0.519660
H115	H	-0.000005	-0.939092	-0.068646
H116	H	0.499995	-0.439092	0.431354
H117	H	0.000004	-1.105969	0.411844
H118	H	0.500004	-0.605969	0.911844
H119	H	-0.000019	-1.395564	0.057346
H120	H	0.499981	-0.895564	0.557346
H121	H	-0.000010	-1.470614	0.224469
H122	H	0.499990	-0.970614	0.724469
C123	C	0.084095	-1.532623	0.414755
C124	C	0.584095	-1.032623	0.914755
C125	C	0.000003	-1.472545	0.439360
C126	C	0.500003	-0.972545	0.939360
H127	H	0.084093	-1.592193	0.453934
H128	H	0.584093	-1.092193	0.953934
H129	H	0.141127	-1.491863	0.431427
H130	H	0.641127	-0.991863	0.931427
H131	H	0.084084	-1.554572	0.342218
H132	H	0.584084	-1.054572	0.842218
H133	H	0.000018	-1.450590	0.511896
H134	H	0.500018	-0.950590	1.011896
H135	H	-0.057044	-1.513312	0.422695
H136	H	0.442956	-1.013312	0.922695
C137	C	-0.000020	-1.009642	0.367626
C138	C	0.499980	-0.509642	0.867626
C139	C	-0.000022	-1.002276	0.259423
C140	C	0.499978	-0.502276	0.759423
H141	H	-0.000034	-0.941444	0.402665
H142	H	0.499966	-0.441444	0.902665
H143	H	0.057026	-1.046226	0.386793
H144	H	0.557026	-0.546226	0.886793
H145	H	-0.057064	-1.046241	0.386804
H146	H	0.442936	-0.546241	0.886804
H147	H	0.057026	-0.965684	0.240245
H148	H	0.557026	-0.465684	0.740245
H149	H	-0.057074	-0.965677	0.240249
H150	H	0.442926	-0.465677	0.740249
C151	C	0.084072	-1.030536	-0.033278
C152	C	0.584072	-0.530536	0.466722
C153	C	-0.000017	-1.028971	0.029812
C154	C	0.499983	-0.528971	0.529812
H155	H	0.084070	-0.970963	-0.072452
H156	H	0.584070	-0.470963	0.427548
H157	H	0.084064	-1.092196	-0.079685
H158	H	0.584064	-0.592196	0.420315
H159	H	0.141113	-1.029491	0.009522
H160	H	0.641113	-0.529491	0.509522
H161	H	-0.057058	-1.030023	-0.012989
H162	H	0.442942	-0.530023	0.487011
H163	H	-0.000018	-0.967295	0.076225
H164	H	0.499982	-0.467295	0.576225
