data_functionalizedCrystal
_audit_creation_method	'MofGen! by Chris Wilmer'
_symmetry_space_group_name_H-M	'P1'
_symmetry_Int_Tables_number	1
_symmetry_cell_setting	triclinic
loop_
_symmetry_equiv_pos_as_xyz
  x,y,z
_cell_length_a	12.759401
_cell_length_b	12.827892
_cell_length_c	12.759393
_cell_angle_alpha	89.970194
_cell_angle_beta	89.981287
_cell_angle_gamma	90.016917
loop_
_atom_site_label
_atom_site_type_symbol
_atom_site_fract_x
_atom_site_fract_y
_atom_site_fract_z
Zn1	Zn	1.606238	-0.415940	-0.594025
Zn2	Zn	1.606134	-0.590717	-0.418348
Zn3	Zn	1.430544	-0.415995	-0.418361
Zn4	Zn	1.430527	-0.590644	-0.593985
O5	O	1.518361	-0.503324	-0.506180
O6	O	1.753245	-0.439132	-0.570733
O7	O	1.582805	-0.567594	-0.271328
O8	O	1.453901	-0.269752	-0.441685
O9	O	1.753169	-0.567540	-0.441663
O10	O	1.582983	-0.269711	-0.570745
O11	O	1.453800	-0.439226	-0.271338
O12	O	1.283521	-0.439156	-0.441646
O13	O	1.453872	-0.567415	-0.741011
O14	O	1.283508	-0.567469	-0.570676
O15	O	1.582966	-0.439061	-0.741041
O16	O	1.582789	-0.736943	-0.441624
O17	O	1.453771	-0.736890	-0.570664
C18	C	1.245393	-0.503311	-0.506159
C19	C	1.128617	-0.503331	-0.506175
C20	C	1.073776	-0.570246	-0.573255
C21	C	0.964052	-0.570250	-0.573276
C22	C	0.964019	-0.436421	-0.439127
C23	C	1.073741	-0.436413	-0.439112
C24	C	0.814150	-0.607747	-0.697137
C25	C	0.759306	-0.674678	-0.764208
C26	C	0.794902	-0.776661	-0.780157
C27	C	0.885340	-0.811734	-0.729020
C28	C	0.940179	-0.744809	-0.661941
C29	C	0.904585	-0.642811	-0.646012
C30	C	1.223645	-0.398927	-0.315250
C31	C	1.278486	-0.332006	-0.248165
C32	C	1.242892	-0.230021	-0.232205
C33	C	1.152450	-0.194951	-0.283324
C34	C	1.097608	-0.261872	-0.350409
C35	C	1.133210	-0.363856	-0.366370
C36	C	1.518295	-0.774834	-0.506161
C37	C	1.518363	-0.890987	-0.506188
C38	C	1.582281	-0.942764	-0.442406
C39	C	1.582353	-1.062814	-0.442433
C40	C	1.792394	-0.503338	-0.506201
C41	C	1.909171	-0.503343	-0.506210
C42	C	1.518429	-0.503224	-0.780213
C43	C	1.518458	-0.503181	-0.896990
C44	C	1.518455	-0.230754	-0.506221
C45	C	1.518496	-0.114601	-0.506239
C46	C	1.451261	-0.569984	-0.951838
C47	C	1.451298	-0.569945	-1.061562
C48	C	1.585732	-0.436291	-1.061580
C49	C	1.585699	-0.436336	-0.951858
C50	C	1.413760	-0.693125	-1.211498
C51	C	1.346547	-0.759919	-1.266350
C52	C	1.244016	-0.775971	-1.230734
C53	C	1.208677	-0.725213	-1.140269
C54	C	1.275885	-0.658412	-1.085423
C55	C	1.378431	-0.642380	-1.121036
C56	C	1.623227	-0.313155	-0.801920
C57	C	1.690430	-0.246347	-0.747072
C58	C	1.792963	-0.230285	-0.782685
C59	C	1.828297	-0.281023	-0.873154
C60	C	1.761094	-0.347831	-0.928003
C61	C	1.658562	-0.363895	-0.892382
C62	C	1.518353	-0.503349	-0.233212
C63	C	1.518528	-0.503097	-0.116436
H64	H	0.750240	-0.831156	-0.834769
H65	H	1.189290	-0.830356	-1.275403
C66	C	1.385421	-0.815758	-1.365848
H67	H	1.456120	-0.796649	-1.379195
H68	H	1.342996	-0.796032	-1.423715
H69	H	1.381141	-0.889049	-1.356006
C70	C	1.659688	-0.362760	-1.121934
H71	H	1.699711	-0.322988	-1.073550
H72	H	1.619530	-0.317207	-1.164741
H73	H	1.705466	-0.402728	-1.164732
C74	C	1.866886	-0.156792	-0.722359
H75	H	1.933010	-0.154493	-0.756534
H76	H	1.875716	-0.181772	-0.652823
H77	H	1.837543	-0.088762	-0.720526
C78	C	0.998129	-0.223294	-0.406649
H79	H	0.984786	-0.152966	-0.387544
H80	H	0.940250	-0.265508	-0.386785
H81	H	1.007992	-0.227590	-0.480322
H82	H	1.463698	-0.935536	-0.560818
H83	H	1.636955	-0.898217	-0.387783
C84	C	1.656277	-1.122958	-0.368657
H85	H	1.646630	-1.195754	-0.378356
H86	H	1.640946	-1.105184	-0.298034
H87	H	1.726870	-1.105051	-0.384081
C88	C	1.510447	-0.330848	-0.762730
H89	H	1.475491	-0.377918	-0.808341
H90	H	1.474032	-0.266279	-0.761674
H91	H	1.512247	-0.359287	-0.693994
C92	C	1.526550	-0.675479	-1.250666
H93	H	1.561524	-0.628438	-1.205039
H94	H	1.524784	-0.647046	-1.319401
H95	H	1.562935	-0.740072	-1.251707
C96	C	1.799967	-0.403659	-1.027506
H97	H	1.870661	-0.384536	-1.040858
H98	H	1.757534	-0.383945	-1.085372
H99	H	1.795704	-0.476951	-1.017661
H100	H	1.118452	-0.624732	-0.627864
H101	H	1.463766	-1.070082	-0.560844
H102	H	0.685671	-0.646111	-0.805845
C103	C	0.775003	-0.495559	-0.679604
H104	H	0.820623	-0.460715	-0.632344
H105	H	0.706259	-0.497317	-0.651053
H106	H	0.773994	-0.459422	-0.744604
C107	C	1.377966	-0.370584	-0.191926
H108	H	1.391320	-0.440905	-0.211047
H109	H	1.368111	-0.366288	-0.118258
H110	H	1.435845	-0.328365	-0.211798
H111	H	0.919326	-0.381941	-0.384525
C112	C	1.377328	-0.643538	-0.891486
H113	H	1.337327	-0.683331	-0.939871
H114	H	1.331544	-0.603601	-0.848675
H115	H	1.417515	-0.689087	-0.848693
H116	H	1.125182	-0.738278	-1.111285
H117	H	1.247112	-0.617083	-1.011770
C118	C	1.941084	-0.263362	-0.912332
H119	H	1.976050	-0.216316	-0.866704
H120	H	1.939311	-0.234928	-0.981065
H121	H	1.977480	-0.327948	-0.913375
H122	H	1.013812	-0.773365	-0.620305
C123	C	0.924488	-0.923921	-0.746560
H124	H	0.878880	-0.958753	-0.793840
H125	H	0.925501	-0.960065	-0.681571
H126	H	0.993237	-0.922153	-0.775115
C127	C	1.113294	-0.082767	-0.265775
H128	H	1.158913	-0.047931	-0.218510
H129	H	1.044550	-0.084532	-0.237223
H130	H	1.112282	-0.046619	-0.330769
H131	H	1.287549	-0.175538	-0.177569
C132	C	1.262805	-0.511110	-0.332810
H133	H	1.324515	-0.522415	-0.292746
H134	H	1.277898	-0.521103	-0.405017
H135	H	1.210163	-0.559025	-0.311477
C136	C	1.651554	-0.190514	-0.647572
H137	H	1.580866	-0.209651	-0.634211
H138	H	1.655818	-0.117228	-0.657415
H139	H	1.693989	-0.210231	-0.589702
