data_functionalizedCrystal
_audit_creation_method	'MofGen! by Chris Wilmer'
_symmetry_space_group_name_H-M	'P1'
_symmetry_Int_Tables_number	1
_symmetry_cell_setting	triclinic
loop_
_symmetry_equiv_pos_as_xyz
  x,y,z
_cell_length_a	15.995350
_cell_length_b	17.699083
_cell_length_c	16.776229
_cell_angle_alpha	89.997548
_cell_angle_beta	89.991668
_cell_angle_gamma	83.387695
loop_
_atom_site_label
_atom_site_type_symbol
_atom_site_fract_x
_atom_site_fract_y
_atom_site_fract_z
O1	O	0.105870	1.004252	0.066173
O2	O	0.439203	1.337586	0.399506
O3	O	0.772537	1.670919	0.732839
O4	O	0.119646	0.783897	0.066198
O5	O	0.452979	1.117230	0.399531
O6	O	0.786313	1.450563	0.732865
O7	O	-0.009142	0.900098	0.066184
O8	O	0.324191	1.233431	0.399517
O9	O	0.657525	1.566765	0.732851
O10	O	0.234658	0.888051	0.066187
O11	O	0.567991	1.221384	0.399520
O12	O	0.901325	1.554718	0.732853
O13	O	-0.009119	0.900087	-0.066393
O14	O	0.324214	1.233421	0.266941
O15	O	0.657547	1.566754	0.600274
O16	O	0.119668	0.783886	-0.066378
O17	O	0.453002	1.117219	0.266955
O18	O	0.786335	1.450553	0.600288
O19	O	0.105892	1.004241	-0.066404
O20	O	0.439226	1.337575	0.266929
O21	O	0.772559	1.670908	0.600263
Zn22	Zn	0.112784	0.894062	-0.087441
Zn23	Zn	0.446117	1.227395	0.245893
Zn24	Zn	0.779451	1.560729	0.579226
Zn25	Zn	0.112754	0.894076	0.087235
Zn26	Zn	0.446088	1.227410	0.420568
Zn27	Zn	0.779421	1.560743	0.753901
O28	O	0.234680	0.888040	-0.066390
O29	O	0.568014	1.221373	0.266944
O30	O	0.901347	1.554707	0.600277
C31	C	0.119164	0.755694	-0.000087
C32	C	0.452497	1.089027	0.333247
C33	C	0.785830	1.422360	0.666580
C34	C	0.117683	0.671673	-0.000077
C35	C	0.451016	1.005006	0.333256
C36	C	0.784349	1.338340	0.666590
C37	C	0.193278	0.623178	-0.000076
C38	C	0.526612	0.956511	0.333257
C39	C	0.859945	1.289844	0.666590
C40	C	0.191882	0.544232	-0.000087
C41	C	0.525215	0.877565	0.333247
C42	C	0.858549	1.210899	0.666580
C43	C	0.114889	0.513783	-0.000092
C44	C	0.448222	0.847117	0.333241
C45	C	0.781556	1.180450	0.666575
C46	C	0.039287	0.562285	-0.000095
C47	C	0.372621	0.895618	0.333238
C48	C	0.705954	1.228951	0.666572
C49	C	0.040685	0.641229	-0.000090
C50	C	0.374018	0.974562	0.333243
C51	C	0.707351	1.307896	0.666576
C52	C	0.033651	0.243912	-0.000115
C53	C	0.366984	0.577246	0.333219
C54	C	0.700317	0.910579	0.666552
C55	C	0.032259	0.164962	-0.000117
C56	C	0.365592	0.498295	0.333216
C57	C	0.698926	0.831629	0.666550
C58	C	0.184848	0.146916	-0.000111
C59	C	0.518181	0.480249	0.333222
C60	C	0.851515	0.813582	0.666556
C61	C	0.186245	0.225860	-0.000106
C62	C	0.519579	0.559193	0.333227
C63	C	0.852912	0.892526	0.666560
C64	C	0.110644	0.274354	-0.000114
C65	C	0.443977	0.607688	0.333220
C66	C	0.777311	0.941021	0.666553
C67	C	0.112159	0.359956	-0.000104
C68	C	0.445493	0.693289	0.333229
C69	C	0.778826	1.026623	0.666563
C70	C	0.113373	0.428183	-0.000096
C71	C	0.446706	0.761516	0.333237
C72	C	0.780040	1.094850	0.666571
C73	C	-0.040324	0.899595	-0.000103
C74	C	0.293009	1.232928	0.333231
C75	C	0.626342	1.566261	0.666564
C76	C	-0.133272	0.898101	-0.000098
C77	C	0.200062	1.231435	0.333235
C78	C	0.533395	1.564768	0.666569
C79	C	-0.471008	0.892739	-0.000100
C80	C	-0.137675	1.226073	0.333233
C81	C	0.195658	1.559406	0.666567
C82	C	-0.423406	0.809983	0.000207
C83	C	-0.090073	1.143316	0.333540
C84	C	0.243261	1.476649	0.666873
C85	C	-0.326719	0.811476	-0.000092
C86	C	0.006615	1.144810	0.333241
C87	C	0.339948	1.478143	0.666574
C88	C	-0.303453	0.895399	-0.000099
C89	C	0.029880	1.228732	0.333235
C90	C	0.363213	1.562066	0.666568
C91	C	-0.344601	0.936211	-0.075810
C92	C	-0.011268	1.269545	0.257524
C93	C	0.322066	1.602878	0.590857
C94	C	-0.441232	0.934132	-0.075873
C95	C	-0.107899	1.267466	0.257460
C96	C	0.225434	1.600799	0.590794
C97	C	-0.441620	0.935854	0.074891
C98	C	-0.108286	1.269187	0.408225
C99	C	0.225047	1.602521	0.741558
C100	C	-0.344674	0.935835	0.075892
C101	C	-0.011341	1.269168	0.409225
C102	C	0.321992	1.602501	0.742558
C103	C	-0.208759	0.896907	-0.000101
C104	C	0.124574	1.230240	0.333233
C105	C	0.457908	1.563573	0.666566
C106	C	-0.565703	0.891234	-0.000104
C107	C	-0.232370	1.224567	0.333230
C108	C	0.100964	1.557901	0.666563
C109	C	0.265863	0.888544	-0.000101
C110	C	0.599196	1.221877	0.333232
C111	C	0.932529	1.555210	0.666565
C112	C	0.358810	0.890037	-0.000101
C113	C	0.692143	1.223370	0.333233
C114	C	1.025477	1.556703	0.666566
C115	C	0.106375	1.032445	-0.000117
C116	C	0.439708	1.365778	0.333216
C117	C	0.773042	1.699111	0.666549
C118	C	0.107856	1.116465	-0.000122
C119	C	0.441189	1.449799	0.333211
C120	C	0.774522	1.783132	0.666545
N121	N	0.112804	0.894058	-0.206652
N122	N	0.446137	1.227391	0.126682
N123	N	0.779470	1.560725	0.460015
C124	C	0.062015	0.848184	-0.751819
C125	C	0.395349	1.181518	-0.418485
C126	C	0.728682	1.514851	-0.085152
C127	C	0.062023	0.848182	-0.668366
C128	C	0.395356	1.181516	-0.335033
C129	C	0.728689	1.514849	-0.001700
C130	C	0.112747	0.894079	-0.626651
C131	C	0.446081	1.227413	-0.293318
C132	C	0.779414	1.560746	0.040015
C133	C	0.163462	0.939987	-0.668392
C134	C	0.496795	1.273320	-0.335059
C135	C	0.830129	1.606653	-0.001726
C136	C	0.163450	0.939992	-0.751843
C137	C	0.496783	1.273325	-0.418510
C138	C	0.830116	1.606659	-0.085176
C139	C	0.163511	0.939967	-0.331845
C140	C	0.496845	1.273300	0.001488
C141	C	0.830178	1.606634	0.334821
C142	C	0.163521	0.939956	-0.248389
C143	C	0.496855	1.273290	0.084945
C144	C	0.830188	1.606623	0.418278
C145	C	0.062084	0.848157	-0.248369
C146	C	0.395417	1.181491	0.084965
C147	C	0.728751	1.514824	0.418298
C148	C	0.062072	0.848163	-0.331819
C149	C	0.395405	1.181496	0.001514
C150	C	0.728738	1.514829	0.334847
C151	C	0.112783	0.894073	-0.373553
C152	C	0.446116	1.227406	-0.040220
C153	C	0.779449	1.560739	0.293113
C154	C	0.112773	0.894075	-0.464042
C155	C	0.446107	1.227409	-0.130708
C156	C	0.779440	1.560742	0.202625
C157	C	0.112762	0.894073	-0.536164
C158	C	0.446095	1.227407	-0.202831
C159	C	0.779429	1.560740	0.130502
N160	N	0.112728	0.894086	0.206446
N161	N	0.446061	1.227420	0.539779
N162	N	0.779395	1.560753	0.873113
H163	H	-0.020873	0.680714	-0.000090
H164	H	0.312460	1.014047	0.333243
H165	H	0.645793	1.347380	0.666576
O166	O	0.007383	0.798643	-0.203351
O167	O	0.340716	1.131977	0.129983
O168	O	0.674050	1.465310	0.463316
H169	H	-0.027881	0.766723	-0.246379
H170	H	0.305452	1.100056	0.086954
H171	H	0.638785	1.433389	0.420288
H172	H	0.248941	0.250646	-0.000098
H173	H	0.582274	0.583980	0.333235
H174	H	0.915607	0.917313	0.666568
H175	H	0.253440	0.504750	-0.000085
H176	H	0.586773	0.838083	0.333248
H177	H	0.920106	1.171416	0.666582
H178	H	-0.023402	0.537487	-0.000111
H179	H	0.309932	0.870821	0.333223
H180	H	0.643265	1.204154	0.666556
O181	O	-0.050789	0.132120	-0.000138
O182	O	0.282544	0.465454	0.333195
O183	O	0.615878	0.798787	0.666529
H184	H	-0.087130	0.151601	0.053888
H185	H	0.246203	0.484934	0.387222
H186	H	0.579536	0.818267	0.720555
O187	O	0.276321	0.656018	-0.000078
O188	O	0.609655	0.989352	0.333255
O189	O	0.942988	1.322685	0.666588
H190	H	0.328652	0.609030	-0.000090
H191	H	0.661986	0.942364	0.333243
H192	H	0.995319	1.275697	0.666577
H193	H	-0.298241	0.779395	0.054181
H194	H	0.035093	1.112728	0.387514
H195	H	0.368426	1.446061	0.720847
H196	H	-0.462114	0.908802	0.132275
H197	H	-0.128781	1.242135	0.465609
H198	H	0.204553	1.575468	0.798942
H199	H	-0.317374	0.905996	0.131901
H200	H	0.015959	1.239329	0.465234
H201	H	0.349292	1.572662	0.798567
H202	H	-0.459464	0.904363	-0.132463
H203	H	-0.126130	1.237696	0.200870
H204	H	0.207203	1.571030	0.534203
O205	O	-0.324497	1.016904	0.081944
O206	O	0.008837	1.350237	0.415278
O207	O	0.342170	1.683570	0.748611
H208	H	-0.383862	1.056128	0.081198
H209	H	-0.050529	1.389461	0.414531
H210	H	0.282805	1.722794	0.747865
H211	H	0.246406	0.107421	-0.000109
H212	H	0.579739	0.440755	0.333224
H213	H	0.913073	0.774088	0.666557
O214	O	-0.483857	1.016675	0.075572
O215	O	-0.150524	1.350008	0.408905
O216	O	0.182810	1.683342	0.742239
H217	H	-0.525584	1.026128	0.022790
H218	H	-0.192250	1.359461	0.356124
H219	H	0.141083	1.692795	0.689457
O220	O	-0.326052	1.017879	-0.079562
O221	O	0.007282	1.351213	0.253771
O222	O	0.340615	1.684546	0.587105
H223	H	-0.287213	1.030275	-0.027381
H224	H	0.046121	1.363608	0.305953
H225	H	0.379454	1.696942	0.639286
O226	O	-0.447887	0.766158	0.072112
O227	O	-0.114553	1.099491	0.405445
O228	O	0.218780	1.432825	0.738778
H229	H	-0.494246	0.802887	0.108400
H230	H	-0.160913	1.136221	0.441733
H231	H	0.172420	1.469554	0.775067
O232	O	-0.306923	0.898660	-0.150441
O233	O	0.026410	1.231994	0.182893
O234	O	0.359743	1.565327	0.516226
H235	H	-0.258904	0.850936	-0.133801
H236	H	0.074429	1.184270	0.199533
H237	H	0.407763	1.517603	0.532866
H238	H	0.204830	0.977334	-0.214427
H239	H	0.538163	1.310667	0.118907
H240	H	0.871497	1.644000	0.452240
O241	O	-0.449240	0.766353	-0.071306
O242	O	-0.115907	1.099686	0.262028
O243	O	0.217426	1.433019	0.595361
H244	H	-0.495836	0.803353	-0.107067
H245	H	-0.162502	1.136687	0.226266
H246	H	0.170831	1.470020	0.559599
O247	O	0.007286	0.798690	-0.796800
O248	O	0.340619	1.132023	-0.463467
O249	O	0.673953	1.465357	-0.130134
H250	H	0.025575	0.738197	-0.780784
H251	H	0.358909	1.071530	-0.447451
H252	H	0.692242	1.404864	-0.114117
H253	H	-0.298779	0.779170	-0.054450
H254	H	0.034554	1.112503	0.278883
H255	H	0.367888	1.445837	0.612216
O256	O	-0.484122	1.014608	-0.080449
O257	O	-0.150789	1.347941	0.252885
O258	O	0.182544	1.681274	0.586218
H259	H	-0.435816	1.054836	-0.082613
H260	H	-0.102483	1.388169	0.250720
H261	H	0.230850	1.721503	0.584054
H262	H	0.020725	0.810806	-0.634389
H263	H	0.354058	1.144140	-0.301056
H264	H	0.687391	1.477473	0.032278
O265	O	-0.047886	0.296213	-0.000122
O266	O	0.285447	0.629546	0.333211
O267	O	0.618781	0.962880	0.666545
H268	H	-0.101656	0.261775	-0.000120
H269	H	0.231677	0.595108	0.333214
H270	H	0.565011	0.928441	0.666547
H271	H	0.020770	0.810786	-0.365780
H272	H	0.354103	1.144119	-0.032446
H273	H	0.687436	1.477453	0.300887
H274	H	0.204804	0.977349	-0.365815
H275	H	0.538137	1.310683	-0.032482
H276	H	0.871471	1.644016	0.300852
O277	O	0.218181	0.989487	-0.623406
O278	O	0.551514	1.322820	-0.290072
O279	O	0.884847	1.656153	0.043261
H280	H	0.209679	0.981764	-0.558365
H281	H	0.543013	1.315098	-0.225032
H282	H	0.876346	1.648431	0.108302
O283	O	0.218150	0.989497	-0.796864
O284	O	0.551483	1.322830	-0.463531
O285	O	0.884817	1.656163	-0.130198
H286	H	0.253431	1.021406	-0.753839
H287	H	0.586765	1.354739	-0.420506
H288	H	0.920098	1.688072	-0.087172
