data_functionalizedCrystal
_audit_creation_method	'MofGen! by Chris Wilmer'
_symmetry_space_group_name_H-M	'P1'
_symmetry_Int_Tables_number	1
_symmetry_cell_setting	triclinic
loop_
_symmetry_equiv_pos_as_xyz
  x,y,z
_cell_length_a	12.827893
_cell_length_b	12.827892
_cell_length_c	12.827885
_cell_angle_alpha	89.970214
_cell_angle_beta	89.980728
_cell_angle_gamma	90.015553
loop_
_atom_site_label
_atom_site_type_symbol
_atom_site_fract_x
_atom_site_fract_y
_atom_site_fract_z
Zn1	Zn	1.597670	-0.415978	-0.590849
Zn2	Zn	1.597564	-0.590755	-0.416109
Zn3	Zn	1.422911	-0.416029	-0.416122
Zn4	Zn	1.422896	-0.590678	-0.590809
O5	O	1.510260	-0.503360	-0.503472
O6	O	1.743892	-0.439173	-0.567680
O7	O	1.574357	-0.567631	-0.269875
O8	O	1.446144	-0.269787	-0.439322
O9	O	1.743814	-0.567582	-0.439300
O10	O	1.574538	-0.269749	-0.567693
O11	O	1.446041	-0.439261	-0.269884
O12	O	1.276673	-0.439186	-0.439284
O13	O	1.446118	-0.567450	-0.737050
O14	O	1.276662	-0.567500	-0.567625
O15	O	1.574524	-0.439098	-0.737080
O16	O	1.574343	-0.736981	-0.439261
O17	O	1.446016	-0.736924	-0.567612
C18	C	1.238750	-0.503341	-0.503452
C19	C	1.122597	-0.503358	-0.503469
C20	C	1.070851	-0.439930	-0.567094
C21	C	0.950800	-0.439946	-0.567113
C22	C	1.510195	-0.774870	-0.503454
C23	C	1.510262	-0.891023	-0.503481
C24	C	1.573838	-0.942801	-0.440039
C25	C	1.573910	-1.062852	-0.440066
C26	C	1.782830	-0.503380	-0.503493
C27	C	1.898983	-0.503389	-0.503502
C28	C	1.510331	-0.503260	-0.776043
C29	C	1.510362	-0.503217	-0.892196
C30	C	1.510354	-0.230790	-0.503514
C31	C	1.510394	-0.114637	-0.503531
C32	C	1.573907	-0.439692	-0.943995
C33	C	1.573940	-0.439647	-1.064045
C34	C	1.510249	-0.503385	-0.231962
C35	C	1.510422	-0.503133	-0.115810
H36	H	0.943477	-0.557700	-0.449032
H37	H	1.455975	-0.557562	-0.936725
C38	C	0.827999	-0.425724	-0.707609
C39	C	0.890733	-0.366636	-0.640653
H40	H	0.790910	-0.380462	-0.753006
H41	H	0.870595	-0.471246	-0.747534
H42	H	0.779933	-0.465526	-0.667691
H43	H	0.938804	-0.326840	-0.680570
H44	H	0.848133	-0.321096	-0.600724
C45	C	1.238295	-0.380783	-0.626370
C46	C	1.131014	-0.366604	-0.640618
H47	H	1.275433	-0.335516	-0.671768
H48	H	1.256092	-0.365416	-0.556172
H49	H	1.256119	-0.451032	-0.641526
H50	H	1.113190	-0.296357	-0.625455
H51	H	1.113210	-0.381964	-0.710832
H52	H	1.628220	-0.898256	-0.385708
C53	C	1.624885	-0.262715	-1.097870
C54	C	1.647390	-0.366220	-1.124167
H55	H	1.670236	-0.217385	-1.134984
H56	H	1.554674	-0.247434	-1.115712
H57	H	1.634498	-0.253128	-1.025080
H58	H	1.637769	-0.375809	-1.196956
H59	H	1.717617	-0.381506	-1.106332
H60	H	1.628336	-1.107380	-0.385748
C61	C	1.495939	-0.643631	-0.992920
C62	C	1.436974	-0.576559	-1.055684
H63	H	1.450594	-0.688956	-0.955791
H64	H	1.541415	-0.683628	-1.035501
H65	H	1.535783	-0.603793	-0.944890
H66	H	1.397136	-0.616397	-1.103719
H67	H	1.391480	-0.536559	-1.013100
H68	H	1.078022	-0.557670	-0.449008
H69	H	1.455890	-0.935571	-0.557819
C70	C	1.495838	-0.991686	-0.643952
C71	C	1.436911	-1.054542	-0.576865
H72	H	1.450471	-0.954586	-0.689228
H73	H	1.535665	-0.943640	-0.604129
H74	H	1.541331	-1.034208	-0.684008
H75	H	1.391423	-1.012019	-0.536803
H76	H	1.397066	-1.102594	-0.616692
H77	H	1.628283	-0.385336	-0.899465
