data_functionalizedCrystal
_audit_creation_method	'MofGen! by Chris Wilmer'
_symmetry_space_group_name_H-M	'P1'
_symmetry_Int_Tables_number	1
_symmetry_cell_setting	triclinic
loop_
_symmetry_equiv_pos_as_xyz
  x,y,z
_cell_length_a	15.297475
_cell_length_b	21.295417
_cell_length_c	15.298259
_cell_angle_alpha	80.280707
_cell_angle_beta	88.370891
_cell_angle_gamma	80.332118
loop_
_atom_site_label
_atom_site_type_symbol
_atom_site_fract_x
_atom_site_fract_y
_atom_site_fract_z
Zn1	Zn	1.253450	-0.314417	-0.726615
Zn2	Zn	1.278670	-0.440441	-0.580094
Zn3	Zn	1.132302	-0.320540	-0.554838
Zn4	Zn	1.106920	-0.404997	-0.701241
O5	O	1.192836	-0.370099	-0.640697
O6	O	1.379375	-0.343406	-0.728368
O7	O	1.280431	-0.441932	-0.454154
O8	O	1.148441	-0.231641	-0.577674
O9	O	1.397903	-0.435995	-0.620720
O10	O	1.237448	-0.227142	-0.703878
O11	O	1.172895	-0.353841	-0.435598
O12	O	1.006356	-0.319472	-0.553069
O13	O	1.105180	-0.375585	-0.827196
O14	O	0.987708	-0.381522	-0.660631
O15	O	1.212836	-0.309037	-0.845839
O16	O	1.255818	-0.523827	-0.596115
O17	O	1.129634	-0.497786	-0.685121
C18	C	0.965249	-0.347316	-0.601357
C19	C	0.867882	-0.337581	-0.584547
C20	C	0.554744	-0.439678	-0.760837
C21	C	0.646225	-0.448829	-0.776628
C22	C	0.701643	-0.421018	-0.728609
C23	C	0.665573	-0.384054	-0.664797
C24	C	0.574084	-0.374906	-0.649000
C25	C	0.720983	-0.356246	-0.616772
C26	C	0.684913	-0.319282	-0.552960
C27	C	0.593432	-0.310135	-0.537166
C28	C	0.538014	-0.337947	-0.585184
C29	C	0.812472	-0.365394	-0.632569
C30	C	0.831812	-0.300622	-0.520732
C31	C	0.740331	-0.291471	-0.504941
C32	C	1.192729	-0.533646	-0.640629
C33	C	1.192759	-0.603616	-0.640643
C34	C	1.258503	-0.650018	-0.594363
C35	C	1.258540	-0.715762	-0.594390
C36	C	1.192820	-0.735101	-0.640684
C37	C	1.127070	-0.688689	-0.686974
C38	C	1.127040	-0.622946	-0.686953
N39	N	1.115037	-0.829753	-0.634117
N40	N	1.115069	-0.892206	-0.634132
C41	C	1.192909	-0.933178	-0.640751
N42	N	1.270720	-0.909340	-0.647339
N43	N	1.270688	-0.846881	-0.647319
C44	C	1.192846	-0.806386	-0.640712
C45	C	1.258699	-1.050868	-0.594499
C46	C	1.258737	-1.116612	-0.594532
C47	C	1.127260	-1.089538	-0.687110
C48	C	1.127229	-1.023795	-0.687083
C49	C	1.192948	-1.004465	-0.640772
C50	C	1.421311	-0.392972	-0.680191
C51	C	1.518674	-0.402719	-0.697022
C52	C	1.153363	-0.337674	-0.869193
C53	C	1.136543	-0.323857	-0.966564
C54	C	1.192963	-0.205913	-0.640789
C55	C	1.193017	-0.135947	-0.640828
C56	C	1.313084	-0.468372	-1.279674
C57	C	1.328883	-0.481358	-1.188188
C58	C	1.280800	-0.441983	-1.132778
C59	C	1.216914	-0.389622	-1.168862
C60	C	1.201108	-0.376638	-1.260356
C61	C	1.168824	-0.350249	-1.113460
C62	C	1.104938	-0.297887	-1.149544
C63	C	1.089135	-0.284905	-1.241029
C64	C	1.137219	-0.324280	-1.296439
C65	C	1.184630	-0.363233	-1.021966
C66	C	1.072654	-0.271499	-1.002647
C67	C	1.056854	-0.258513	-1.094133
C68	C	1.232205	-0.402357	-0.413099
C69	C	1.249195	-0.416014	-0.315758
H70	H	0.841832	-0.395489	-0.684526
H71	H	1.236651	-0.405864	-0.992596
H72	H	1.312214	-1.035129	-0.556793
Cl73	Cl	0.976542	-0.192690	-1.139507
Cl74	Cl	1.373514	-0.517870	-1.349333
Cl75	Cl	0.816649	-0.432520	-0.748464
Cl76	Cl	0.691565	-0.495296	-0.856844
H77	H	1.124361	-0.313708	-1.370936
H78	H	0.876935	-0.277977	-0.481630
H79	H	0.509615	-0.462322	-0.799921
H80	H	1.293667	-0.452560	-1.058286
H81	H	1.380891	-0.523996	-1.158814
H82	H	1.073562	-0.704438	-0.724669
H83	H	1.312017	-0.634282	-0.556657
H84	H	1.037107	-0.242274	-1.270404
H85	H	1.073753	-1.105283	-0.724808
Cl86	Cl	1.044571	-0.965458	-0.745261
H87	H	0.710949	-0.261374	-0.452985
Cl88	Cl	0.423002	-0.326439	-0.565341
Cl89	Cl	1.012191	-0.222004	-0.932993
H90	H	0.564068	-0.280045	-0.485197
Cl91	Cl	1.341195	-0.774106	-0.536204
H92	H	1.073502	-0.585163	-0.724640
Cl93	Cl	1.341400	-1.174949	-0.536354
