data_functionalizedCrystal
_audit_creation_method	'MofGen! by Chris Wilmer'
_symmetry_space_group_name_H-M	'P1'
_symmetry_Int_Tables_number	1
_symmetry_cell_setting	triclinic
loop_
_symmetry_equiv_pos_as_xyz
  x,y,z
_cell_length_a	11.169417
_cell_length_b	12.645330
_cell_length_c	11.169409
_cell_angle_alpha	90.034413
_cell_angle_beta	90.019824
_cell_angle_gamma	90.013525
loop_
_atom_site_label
_atom_site_type_symbol
_atom_site_fract_x
_atom_site_fract_y
_atom_site_fract_z
Zn1	Zn	1.834943	-0.421929	0.678525
Zn2	Zn	2.334943	0.078071	1.178525
Zn3	Zn	1.834824	-0.599240	0.477835
Zn4	Zn	2.334824	-0.099240	0.977835
Zn5	Zn	1.634229	-0.421993	0.477860
Zn6	Zn	2.134229	0.078007	0.977860
Zn7	Zn	1.634228	-0.599153	0.678480
Zn8	Zn	2.134228	-0.099153	1.178480
O9	O	1.734556	-0.510579	0.578175
O10	O	2.234556	-0.010579	1.078175
O11	O	2.002877	-0.445458	0.651912
O12	O	2.502877	0.054542	1.151912
O13	O	1.808166	-0.575791	0.309889
O14	O	2.308166	-0.075791	0.809889
O15	O	1.660904	-0.273637	0.504508
O16	O	2.160904	0.226363	1.004508
O17	O	2.002790	-0.575728	0.504466
O18	O	2.502790	-0.075728	1.004466
O19	O	1.808368	-0.273590	0.651936
O20	O	2.308368	0.226410	1.151936
O21	O	1.660789	-0.445569	0.309907
O22	O	2.160789	0.054431	0.809907
O23	O	1.466279	-0.445485	0.504464
O24	O	1.966279	0.054515	1.004464
O25	O	1.660903	-0.575581	0.846436
O26	O	2.160903	-0.075581	1.346436
O27	O	1.466279	-0.575644	0.651859
O28	O	1.966279	-0.075644	1.151859
O29	O	1.808367	-0.445375	0.846469
O30	O	2.308367	0.054625	1.346469
O31	O	1.808165	-0.747575	0.504422
O32	O	2.308165	-0.247575	1.004422
O33	O	1.660788	-0.747512	0.651835
O34	O	2.160788	-0.247512	1.151835
C35	C	1.422732	-0.510563	0.578160
C36	C	1.922732	-0.010563	1.078160
C37	C	1.289332	-0.510581	0.578181
C38	C	1.789332	-0.010581	1.078181
C39	C	1.734496	-0.786008	0.578147
C40	C	2.234496	-0.286008	1.078147
C41	C	1.734580	-0.903838	0.578175
C42	C	2.234580	-0.403838	1.078175
C43	C	1.827146	-1.071398	0.485249
C44	C	2.327146	-0.571398	0.985249
C45	C	1.827448	-0.948838	0.485476
C46	C	2.327448	-0.448838	0.985476
C47	C	1.768886	-0.948206	0.704683
C48	C	2.268886	-0.448206	1.204683
C49	C	1.769620	-1.070804	0.704190
C50	C	2.269620	-0.570804	1.204190
C51	C	1.607672	-1.071171	0.545839
C52	C	2.107672	-0.571171	1.045839
C53	C	1.608281	-0.948567	0.543001
C54	C	2.108281	-0.448567	1.043001
C55	C	2.047599	-0.510596	0.578191
C56	C	2.547599	-0.010596	1.078191
C57	C	2.180998	-0.510603	0.578198
C58	C	2.680998	-0.010603	1.078198
C59	C	1.734648	-0.510461	0.891218
C60	C	2.234648	-0.010461	1.391218
C61	C	1.734688	-0.510411	1.024618
C62	C	2.234688	-0.010411	1.524618
C63	C	1.734649	-0.234073	0.578230
C64	C	2.234649	0.265927	1.078230
C65	C	1.734689	-0.116243	0.578253
C66	C	2.234689	0.383757	1.078253
C67	C	1.734533	-0.510619	0.266350
C68	C	2.234533	-0.010619	0.766350
C69	C	1.734727	-0.510371	0.132951
C70	C	2.234727	-0.010371	0.632951
H71	H	1.805950	-1.100962	0.391170
H72	H	2.305950	-0.600962	0.891170
H73	H	1.862463	-1.099312	0.731648
H74	H	2.362463	-0.599312	1.231648
N75	N	1.682418	-0.909589	0.798947
N76	N	2.182418	-0.409589	1.298947
H77	H	1.641901	-0.972147	0.837881
H78	H	2.141901	-0.472147	1.337881
H79	H	1.620094	-0.862834	0.760377
H80	H	2.120094	-0.362834	1.260377
H81	H	1.705228	-1.100464	0.775872
H82	H	2.205228	-0.600464	1.275872
N83	N	1.799030	-0.909102	0.361222
N84	N	2.299030	-0.409102	0.861222
H85	H	1.867882	-0.864843	0.330829
H86	H	2.367882	-0.364843	0.830829
H87	H	1.723955	-0.864664	0.363871
H88	H	2.223955	-0.364664	0.863871
H89	H	1.535676	-0.917947	0.605775
H90	H	2.035676	-0.417947	1.105775
H91	H	1.920718	-1.102125	0.506448
H92	H	2.420718	-0.602125	1.006448
H93	H	1.921524	-0.919426	0.506916
H94	H	2.421524	-0.419426	1.006916
N95	N	1.890484	-0.907439	0.741664
N96	N	2.390484	-0.407439	1.241664
H97	H	1.923523	-0.860240	0.676664
H98	H	2.423523	-0.360240	1.176664
H99	H	1.946456	-0.969088	0.754680
H100	H	2.446456	-0.469088	1.254680
N101	N	1.566359	-1.112236	0.425760
N102	N	2.066359	-0.612236	0.925760
H103	H	1.484707	-1.082330	0.406724
H104	H	1.984707	-0.582330	0.906724
H105	H	1.561706	-1.191965	0.428363
H106	H	2.061706	-0.691965	0.928363
H107	H	1.582414	-0.919581	0.449902
H108	H	2.082414	-0.419581	0.949902
N109	N	1.516415	-1.109582	0.635558
N110	N	2.016415	-0.609582	1.135558
H111	H	1.557082	-1.155951	0.696908
H112	H	2.057082	-0.655951	1.196908
H113	H	1.452433	-1.151565	0.592790
H114	H	1.952433	-0.651565	1.092790
