data_functionalizedCrystal
_audit_creation_method	'MofGen! by Chris Wilmer'
_symmetry_space_group_name_H-M	'P1'
_symmetry_Int_Tables_number	1
_symmetry_cell_setting	triclinic
loop_
_symmetry_equiv_pos_as_xyz
  x,y,z
_cell_length_a	29.839131
_cell_length_b	18.215407
_cell_length_c	18.215399
_cell_angle_alpha	90.014769
_cell_angle_beta	89.966717
_cell_angle_gamma	89.962959
loop_
_atom_site_label
_atom_site_type_symbol
_atom_site_fract_x
_atom_site_fract_y
_atom_site_fract_z
Zn1	Zn	-0.178900	-1.124965	-0.416060
Zn2	Zn	-0.254032	-1.124845	-0.292988
Zn3	Zn	-0.178911	-1.001905	-0.293012
Zn4	Zn	-0.253998	-1.001828	-0.416017
O5	O	-0.216460	-1.063386	-0.354519
O6	O	-0.188876	-1.227934	-0.399743
O7	O	-0.244087	-1.108518	-0.190007
O8	O	-0.116043	-1.018311	-0.309363
O9	O	-0.244075	-1.227845	-0.309322
O10	O	-0.116034	-1.108724	-0.399766
O11	O	-0.188896	-1.018194	-0.190025
O12	O	-0.188862	-0.898910	-0.309321
O13	O	-0.244017	-1.018181	-0.519007
O14	O	-0.244028	-0.898854	-0.399692
O15	O	-0.188842	-1.108650	-0.519039
O16	O	-0.316895	-1.108444	-0.309280
O17	O	-0.316869	-1.018064	-0.399669
C18	C	-0.216443	-0.872180	-0.354505
C19	C	-0.216446	-0.790381	-0.354517
C20	C	-0.187759	-0.602232	-0.401672
C21	C	-0.187762	-0.525373	-0.401674
C22	C	-0.245155	-0.525292	-0.307373
C23	C	-0.245150	-0.602149	-0.307368
C24	C	-0.216453	-0.640617	-0.354521
C25	C	-0.216460	-0.486901	-0.354528
C26	C	-0.216463	-0.403567	-0.354530
C27	C	-0.216449	-0.723956	-0.354519
C28	C	-0.333183	-1.063253	-0.354483
C29	C	-0.383117	-1.063263	-0.354492
C30	C	-0.692761	-1.110532	-0.307523
C31	C	-0.880434	-1.110623	-0.307551
O32	O	-0.904699	-1.150707	-0.267588
N33	N	-0.903902	-1.063538	-0.354575
C34	C	-0.880449	-1.016431	-0.401598
O35	O	-0.904717	-0.976390	-0.441601
C36	C	-0.692777	-1.016345	-0.401573
C37	C	-0.669311	-1.063427	-0.354541
C38	C	-0.669295	-1.157611	-0.260495
C39	C	-0.622380	-1.157585	-0.260485
C40	C	-0.598930	-1.110480	-0.307504
C41	C	-0.622396	-1.063401	-0.354531
C42	C	-0.669325	-0.969242	-0.448600
C43	C	-0.622404	-0.969226	-0.448590
C44	C	-0.598938	-1.016308	-0.401558
C45	C	-0.552031	-1.016270	-0.401540
N46	N	-0.528563	-1.063354	-0.354516
C47	C	-0.552012	-1.110459	-0.307498
C48	C	-0.978980	-1.016479	-0.401607
C49	C	-1.025898	-1.016500	-0.401613
C50	C	-1.025879	-1.110692	-0.307566
C51	C	-0.978961	-1.110668	-0.307558
C52	C	-0.955512	-1.063564	-0.354584
C53	C	-0.453487	-1.110401	-0.307481
C54	C	-0.406567	-1.110368	-0.307474
C55	C	-0.406589	-1.016179	-0.401523
C56	C	-0.453505	-1.016208	-0.401528
C57	C	-0.476952	-1.063325	-0.354505
O58	O	-0.527737	-0.976213	-0.441488
O59	O	-0.527737	-1.150506	-0.267513
C60	C	-0.739677	-1.110558	-0.307532
C61	C	-0.763142	-1.063479	-0.354560
C62	C	-0.739693	-1.016374	-0.401578
C63	C	-0.810060	-1.063500	-0.354565
C64	C	-0.833510	-1.110605	-0.307547
C65	C	-0.810042	-1.157689	-0.260523
C66	C	-0.763126	-1.157663	-0.260514
C67	C	-0.763161	-0.969290	-0.448602
C68	C	-0.810076	-0.969319	-0.448607
C69	C	-0.833526	-1.016424	-0.401589
C70	C	-0.099282	-1.063539	-0.354572
C71	C	-0.049347	-1.063605	-0.354595
C72	C	-0.216424	-1.063421	-0.546472
C73	C	-0.216409	-1.063435	-0.628271
C74	C	-0.216473	-0.255339	-0.354532
C75	C	-0.216466	-0.337138	-0.354533
C76	C	-0.187652	-1.016444	-0.816476
C77	C	-0.187643	-1.016456	-0.893334
C78	C	-0.245113	-1.110515	-0.893305
C79	C	-0.245124	-1.110498	-0.816448
C80	C	-0.216391	-1.063463	-0.778035
C81	C	-0.216371	-1.063493	-0.931751
C82	C	-0.216361	-1.063508	-1.015085
C83	C	-0.216401	-1.063448	-0.694696
C84	C	-0.216464	-1.063394	-0.163313
C85	C	-0.216352	-1.063521	-0.081515
H86	H	-0.387463	-1.148708	-0.269172
O87	O	-0.273018	-0.487809	-0.261644
C88	C	-0.298444	-0.369370	-0.219830
C89	C	-0.266872	-0.411725	-0.271666
H90	H	-0.293480	-0.307850	-0.227903
H91	H	-0.334688	-0.384400	-0.232648
H92	H	-0.290515	-0.384513	-0.160518
H93	H	-0.274761	-0.396606	-0.330995
H94	H	-0.230638	-0.396692	-0.258785
H95	H	-0.268506	-1.148810	-0.924590
O96	O	-0.273028	-1.156107	-0.778988
C97	C	-0.298495	-1.197791	-0.660568
C98	C	-0.266878	-1.146096	-0.702900
H99	H	-0.293527	-1.189725	-0.599044
H100	H	-0.334727	-1.184824	-0.675603
H101	H	-0.290614	-1.257138	-0.675727
H102	H	-0.274719	-1.086731	-0.687764
H103	H	-0.230656	-1.159126	-0.687862
H104	H	-0.744071	-0.930932	-0.486891
O105	O	-0.159843	-0.488052	-0.447373
C106	C	-0.099218	-0.401304	-0.457466
C107	C	-0.130803	-0.443537	-0.405625
H108	H	-0.075738	-0.365292	-0.423734
H109	H	-0.078676	-0.441970	-0.491152
H110	H	-0.119886	-0.365347	-0.495900
H111	H	-0.110170	-0.479495	-0.367146
H112	H	-0.151347	-0.402832	-0.371991
O113	O	-0.273067	-0.639328	-0.261540
C114	C	-0.329974	-0.631143	-0.167975
C115	C	-0.298392	-0.588947	-0.219848
H116	H	-0.350451	-0.590429	-0.134243
H117	H	-0.353517	-0.667097	-0.201657
H118	H	-0.309309	-0.667151	-0.129586
H119	H	-0.319021	-0.552899	-0.258248
H120	H	-0.274848	-0.553039	-0.186122
H121	H	-0.164255	-0.978145	-0.785202
O122	O	-0.159840	-0.639487	-0.447495
C123	C	-0.102933	-0.631452	-0.541059
C124	C	-0.134523	-0.589172	-0.489190
H125	H	-0.082463	-0.590791	-0.574794
H126	H	-0.079385	-0.667425	-0.507375
H127	H	-0.123593	-0.667447	-0.579447
H128	H	-0.113900	-0.553137	-0.450792
H129	H	-0.158072	-0.553245	-0.522919
O130	O	-0.476275	-1.156256	-0.261912
C131	C	-0.529193	-1.255649	-0.252108
C132	C	-0.503408	-1.203774	-0.303798
H133	H	-0.551143	-1.294069	-0.285952
H134	H	-0.504371	-1.289341	-0.218519
H135	H	-0.551178	-1.221898	-0.213576
H136	H	-0.481423	-1.237467	-0.342375
H137	H	-0.528254	-1.170079	-0.337336
O138	O	-0.599658	-1.203398	-0.214782
C139	C	-0.604610	-1.296805	-0.121483
C140	C	-0.630393	-1.244965	-0.173215
H141	H	-0.629448	-1.330414	-0.087851
H142	H	-0.582623	-1.335305	-0.155268
H143	H	-0.582665	-1.263031	-0.082993
H144	H	-0.652362	-1.278680	-0.211715
H145	H	-0.652352	-1.206463	-0.139383
O146	O	-0.832770	-1.203559	-0.214887
C147	C	-0.847081	-1.328783	-0.179329
C148	C	-0.821306	-1.276913	-0.231039
H149	H	-0.837828	-1.388101	-0.192380
H150	H	-0.837881	-1.315962	-0.119960
H151	H	-0.884643	-1.320681	-0.187400
H152	H	-0.783738	-1.284986	-0.223033
H153	H	-0.830543	-1.289747	-0.290389
H154	H	-0.688383	-1.195974	-0.222207
O155	O	-0.956238	-1.156475	-0.261850
C156	C	-0.961184	-1.249866	-0.168534
C157	C	-0.986971	-1.198036	-0.220274
H158	H	-0.986021	-1.283471	-0.134895
H159	H	-0.939197	-1.288370	-0.202314
H160	H	-0.939240	-1.216083	-0.130051
H161	H	-1.008939	-1.231760	-0.258767
H162	H	-1.008930	-1.159530	-0.186448
H163	H	-1.044999	-0.978154	-0.439904
O164	O	-1.048732	-1.156472	-0.262006
C165	C	-1.121010	-1.198312	-0.220422
C166	C	-1.095183	-1.146413	-0.272032
H167	H	-1.158570	-1.190187	-0.228499
H168	H	-1.111763	-1.257636	-0.233463
H169	H	-1.111813	-1.185498	-0.161052
H170	H	-1.104366	-1.159161	-0.331420
H171	H	-1.104433	-1.087105	-0.258928
O172	O	-0.956274	-0.970644	-0.447309
C173	C	-0.961256	-0.877243	-0.540612
C174	C	-0.987023	-0.929106	-0.488885
H175	H	-0.986105	-0.843657	-0.574250
H176	H	-0.939340	-0.838723	-0.506822
H177	H	-0.939243	-0.910998	-0.579096
H178	H	-1.009061	-0.895410	-0.450391
H179	H	-1.008911	-0.967628	-0.522721
O180	O	-0.692042	-0.923485	-0.494359
C181	C	-0.687088	-0.830039	-0.587620
C182	C	-0.661306	-0.881836	-0.535842
H183	H	-0.662249	-0.796342	-0.621161
H184	H	-0.709005	-0.863778	-0.626186
H185	H	-0.709103	-0.791614	-0.553801
H186	H	-0.639267	-0.920272	-0.569602
H187	H	-0.639418	-0.848051	-0.497274
O188	O	-0.599605	-0.923572	-0.494350
C189	C	-0.546579	-0.913583	-0.593664
C190	C	-0.572377	-0.965369	-0.541902
H191	H	-0.524551	-0.947354	-0.632112
H192	H	-0.571391	-0.879952	-0.627331
H193	H	-0.524670	-0.875095	-0.559825
H194	H	-0.594286	-1.003901	-0.575684
H195	H	-0.547540	-0.998948	-0.508232
O196	O	-0.159682	-0.970760	-0.930562
C197	C	-0.102698	-0.877436	-0.922475
C198	C	-0.134334	-0.929166	-0.880224
H199	H	-0.082203	-0.843783	-0.881795
H200	H	-0.079176	-0.911225	-0.958454
H201	H	-0.123323	-0.838966	-0.958462
H202	H	-0.113745	-0.967646	-0.844197
H203	H	-0.157858	-0.895331	-0.844291
H204	H	-0.472612	-0.977872	-0.439827
H205	H	-0.744024	-1.196002	-0.222216
O206	O	-0.383784	-0.970532	-0.447274
C207	C	-0.330748	-0.960572	-0.546578
C208	C	-0.356558	-1.012343	-0.494817
H209	H	-0.308722	-0.994354	-0.585019
H210	H	-0.355553	-0.926934	-0.580254
H211	H	-0.308836	-0.922089	-0.512738
H212	H	-0.378470	-1.050871	-0.528599
H213	H	-0.331728	-1.045929	-0.461139
O214	O	-0.832798	-0.923555	-0.494366
C215	C	-0.827852	-0.830107	-0.587625
C216	C	-0.802065	-0.881900	-0.535849
H217	H	-0.803015	-0.796404	-0.621167
H218	H	-0.849766	-0.863849	-0.626191
H219	H	-0.849869	-0.791686	-0.553805
H220	H	-0.780024	-0.920331	-0.569610
H221	H	-0.780179	-0.848112	-0.497281
