data_functionalizedCrystal
_audit_creation_method	'MofGen! by Chris Wilmer'
_symmetry_space_group_name_H-M	'P1'
_symmetry_Int_Tables_number	1
_symmetry_cell_setting	triclinic
loop_
_symmetry_equiv_pos_as_xyz
  x,y,z
_cell_length_a	12.827893
_cell_length_b	29.839131
_cell_length_c	12.827885
_cell_angle_alpha	90.036821
_cell_angle_beta	90.019272
_cell_angle_gamma	90.041391
loop_
_atom_site_label
_atom_site_type_symbol
_atom_site_fract_x
_atom_site_fract_y
_atom_site_fract_z
Zn1	Zn	1.597481	-0.178832	0.590798
Zn2	Zn	1.597295	-0.253969	0.416036
Zn3	Zn	1.422722	-0.178854	0.416071
Zn4	Zn	1.422628	-0.253936	0.590736
O5	O	1.510031	-0.216398	0.503410
O6	O	1.743692	-0.188804	0.567626
O7	O	1.574100	-0.244028	0.269805
O8	O	1.446021	-0.115984	0.439289
O9	O	1.743556	-0.244007	0.439230
O10	O	1.574415	-0.115968	0.567660
O11	O	1.445841	-0.188841	0.269830
O12	O	1.276473	-0.188809	0.439230
O13	O	1.445861	-0.243950	0.736981
O14	O	1.276404	-0.243971	0.567556
O15	O	1.574324	-0.188771	0.737026
O16	O	1.574008	-0.316832	0.439170
O17	O	1.445681	-0.316807	0.567522
C18	C	1.238522	-0.216389	0.503390
C19	C	1.122368	-0.216396	0.503407
C20	C	1.509843	-0.333120	0.503359
C21	C	1.509858	-0.383055	0.503371
C22	C	1.070577	-0.243735	0.566808
C23	C	0.950527	-0.243743	0.566827
C24	C	1.576973	-0.692698	0.436675
C25	C	1.577102	-0.880371	0.436716
O26	O	1.634016	-0.904636	0.379969
N27	N	1.510248	-0.903840	0.503489
C28	C	1.443362	-0.880387	0.570262
O29	O	1.386509	-0.904655	0.627065
C30	C	1.443239	-0.692715	0.570226
C31	C	1.510090	-0.669249	0.503441
C32	C	1.643819	-0.669232	0.369897
C33	C	1.643782	-0.622317	0.369883
C34	C	1.576899	-0.598867	0.436648
C35	C	1.510053	-0.622333	0.503427
C36	C	1.376359	-0.669263	0.637003
C37	C	1.376336	-0.622342	0.636990
C38	C	1.443187	-0.598876	0.570205
C39	C	1.443133	-0.551969	0.570179
N40	N	1.509987	-0.528500	0.503406
C41	C	1.576870	-0.551949	0.436641
C42	C	1.443430	-0.978918	0.570274
C43	C	1.443459	-1.025835	0.570282
C44	C	1.577201	-1.025816	0.436738
C45	C	1.577165	-0.978898	0.436725
C46	C	1.510284	-0.955449	0.503501
C47	C	1.576787	-0.453424	0.436617
C48	C	1.576741	-0.406504	0.436606
C49	C	1.443004	-0.406527	0.570154
C50	C	1.443045	-0.453443	0.570161
C51	C	1.509945	-0.476890	0.503389
O52	O	1.386257	-0.527675	0.626905
O53	O	1.633731	-0.527674	0.379862
C54	C	1.577010	-0.739614	0.436689
C55	C	1.510164	-0.763080	0.503468
C56	C	1.443281	-0.739630	0.570233
C57	C	1.510193	-0.809997	0.503476
C58	C	1.577076	-0.833447	0.436710
C59	C	1.643930	-0.809978	0.369937
C60	C	1.643893	-0.763063	0.369924
C61	C	1.376427	-0.763099	0.637006
C62	C	1.376468	-0.810014	0.637013
C63	C	1.443351	-0.833464	0.570248
C64	C	1.782602	-0.216407	0.503431
C65	C	1.898755	-0.216410	0.503440
C66	C	1.510103	-0.216354	0.775981
C67	C	1.510133	-0.216336	0.892134
C68	C	1.510249	-0.099219	0.503485
C69	C	1.510342	-0.049285	0.503517
C70	C	1.510021	-0.216408	0.231900
C71	C	1.510193	-0.216300	0.115748
C72	C	1.573708	-0.189027	0.943941
C73	C	1.573740	-0.189007	1.063991
H74	H	1.115113	-0.267133	0.621079
C75	C	1.650708	-0.953087	0.363269
C76	C	1.642252	-0.959581	0.244464
C77	C	1.715800	-0.933773	0.171006
C78	C	1.797805	-0.901471	0.216353
C79	C	1.806266	-0.894976	0.335163
C80	C	1.732717	-0.920784	0.408621
H81	H	1.581543	-0.983493	0.210891
H82	H	1.709537	-0.938581	0.083055
H83	H	1.852250	-0.882367	0.161975
H84	H	1.866974	-0.871063	0.368737
H85	H	1.738980	-0.915976	0.496573
C86	C	1.647208	-0.157459	0.883803
C87	C	1.638794	-0.106379	0.898736
C88	C	1.712297	-0.074810	0.838600
C89	C	1.794214	-0.094321	0.763531
C90	C	1.802632	-0.145404	0.748594
C91	C	1.729129	-0.176973	0.808730
H92	H	1.578151	-0.091933	0.954310
H93	H	1.706065	-0.036995	0.849658
H94	H	1.848625	-0.070952	0.719014
H95	H	1.863275	-0.159850	0.693020
H96	H	1.735361	-0.214788	0.797672
H97	H	0.905987	-0.267150	0.621104
C98	C	1.650782	-1.051616	0.363302
C99	C	1.724336	-1.025810	0.289854
C100	C	1.797920	-1.051612	0.216431
C101	C	1.797951	-1.103220	0.216456
C102	C	1.724395	-1.129029	0.289907
C103	C	1.650810	-1.103227	0.363330
H104	H	1.724315	-0.987605	0.289833
H105	H	1.852372	-1.032507	0.162058
H106	H	1.852423	-1.122320	0.162104
H107	H	1.724415	-1.167235	0.289928
H108	H	1.596359	-1.122332	0.417703
H109	H	1.455722	-0.239699	0.936657
C110	C	1.436655	-0.247889	1.055577
C111	C	1.354694	-0.228402	0.980522
C112	C	1.281156	-0.259991	0.920342
C113	C	1.289579	-0.311067	0.935217
C114	C	1.371542	-0.330556	1.010275
C115	C	1.445081	-0.298967	1.070455
H116	H	1.348457	-0.190591	0.969508
H117	H	1.220481	-0.245564	0.864779
H118	H	1.235141	-0.334451	0.890668
H119	H	1.377780	-0.368367	1.021289
H120	H	1.505756	-0.313394	1.126018
H121	H	1.628173	-0.165628	1.108544
C122	C	0.958908	-0.184787	0.430102
C123	C	1.034038	-0.149564	0.475590
C124	C	1.094200	-0.117941	0.402252
C125	C	1.079232	-0.121542	0.283427
C126	C	1.004098	-0.156767	0.237933
C127	C	0.943936	-0.188390	0.311271
H128	H	1.045122	-0.146897	0.563557
H129	H	1.149819	-0.091865	0.435930
H130	H	1.123767	-0.098132	0.229138
H131	H	0.993014	-0.159434	0.149966
H132	H	0.888317	-0.214466	0.277593
H133	H	1.077832	-0.192995	0.449144
H134	H	1.631178	-0.387399	0.382218
C135	C	1.369914	-1.051645	0.643739
C136	C	1.296352	-1.025845	0.717180
C137	C	1.222810	-1.051652	0.790644
C138	C	1.222829	-1.103260	0.790667
C139	C	1.296393	-1.129063	0.717224
C140	C	1.369936	-1.103256	0.643759
H141	H	1.296336	-0.987639	0.717165
H142	H	1.168352	-1.032551	0.845012
H143	H	1.168388	-1.122364	0.845050
H144	H	1.296410	-1.167269	0.717239
H145	H	1.424393	-1.122357	0.589392
C146	C	1.302759	-0.596550	0.710444
C147	C	1.347969	-0.564249	0.792524
C148	C	1.274391	-0.538459	0.865975
C149	C	1.155603	-0.544968	0.857345
C150	C	1.110387	-0.577270	0.775262
C151	C	1.183965	-0.603061	0.701811
H152	H	1.435909	-0.559429	0.798915
H153	H	1.307863	-0.514546	0.926738
H154	H	1.101135	-0.525876	0.911718
H155	H	1.022447	-0.582090	0.768871
H156	H	1.150492	-0.626973	0.641048
H157	H	1.631265	-0.472509	0.382247
H158	H	1.388964	-0.959829	0.624653
H159	H	1.698221	-0.603213	0.315504
H160	H	1.698329	-0.743960	0.315541
H161	H	1.698289	-0.688320	0.315528
C162	C	1.302825	-0.695065	0.710477
C163	C	1.184028	-0.688661	0.701858
C164	C	1.110489	-0.714461	0.775341
C165	C	1.155748	-0.746666	0.857442
C166	C	1.274551	-0.753072	0.866064
C167	C	1.348089	-0.727271	0.792581
H168	H	1.150519	-0.664820	0.641079
H169	H	1.022543	-0.709719	0.768958
H170	H	1.101310	-0.765765	0.911838
H171	H	1.308060	-0.776913	0.926843
H172	H	1.436035	-0.732013	0.798964
C173	C	1.369439	-0.380726	0.643595
C174	C	1.287405	-0.348518	0.598234
C175	C	1.213847	-0.322714	0.671681
C176	C	1.222322	-0.329119	0.790489
C177	C	1.304360	-0.361329	0.835856
C178	C	1.377918	-0.387132	0.762409
H179	H	1.281127	-0.343775	0.510280
H180	H	1.153117	-0.298870	0.638097
H181	H	1.167870	-0.310018	0.844859
H182	H	1.310637	-0.366071	0.923811
H183	H	1.438647	-0.410976	0.795994
H184	H	1.388613	-0.472550	0.624546
H185	H	1.322021	-0.829116	0.691397
H186	H	1.698386	-0.829079	0.315572
H187	H	1.321964	-0.744010	0.691376
