data_functionalizedCrystal
_audit_creation_method	'MofGen! by Chris Wilmer'
_symmetry_space_group_name_H-M	'P1'
_symmetry_Int_Tables_number	1
_symmetry_cell_setting	triclinic
loop_
_symmetry_equiv_pos_as_xyz
  x,y,z
_cell_length_a	18.050591
_cell_length_b	21.295417
_cell_length_c	18.050582
_cell_angle_alpha	90.025708
_cell_angle_beta	90.020922
_cell_angle_gamma	90.025707
loop_
_atom_site_label
_atom_site_type_symbol
_atom_site_fract_x
_atom_site_fract_y
_atom_site_fract_z
Zn1	Zn	1.135285	-0.250716	0.420015
Zn2	Zn	1.635285	0.249284	0.920015
Zn3	Zn	1.135192	-0.355977	0.295818
Zn4	Zn	1.635192	0.144023	0.795818
Zn5	Zn	1.011104	-0.250719	0.295826
Zn6	Zn	1.511104	0.249281	0.795826
Zn7	Zn	1.011049	-0.355944	0.419954
Zn8	Zn	1.511049	0.144056	0.919954
O9	O	1.073158	-0.303339	0.357903
O10	O	1.573158	0.196661	0.857903
O11	O	1.239197	-0.264692	0.403563
O12	O	1.739197	0.235308	0.903563
O13	O	1.118716	-0.342030	0.191895
O14	O	1.618716	0.157970	0.691895
O15	O	1.027639	-0.162629	0.312329
O16	O	1.527639	0.337371	0.812329
O17	O	1.239129	-0.342027	0.312316
O18	O	1.739129	0.157973	0.812316
O19	O	1.118874	-0.162627	0.403570
O20	O	1.618874	0.337373	0.903570
O21	O	1.027549	-0.264697	0.191901
O22	O	1.527549	0.235303	0.691901
O23	O	0.907172	-0.264664	0.312270
O24	O	1.407172	0.235336	0.812270
O25	O	1.027545	-0.341970	0.523887
O26	O	1.527545	0.158030	1.023887
O27	O	0.907132	-0.341973	0.403466
O28	O	1.407132	0.158027	0.903466
O29	O	1.118820	-0.264660	0.523932
O30	O	1.618820	0.235340	1.023932
O31	O	1.118663	-0.444062	0.312256
O32	O	1.618663	0.055938	0.812256
O33	O	1.027455	-0.444038	0.403458
O34	O	1.527455	0.055962	0.903458
C35	C	0.880205	-0.303316	0.357862
C36	C	1.380205	0.196684	0.857862
C37	C	0.797660	-0.303321	0.357862
C38	C	1.297660	0.196679	0.857862
C39	C	0.598210	-0.261232	0.308384
C40	C	1.098210	0.238768	0.808384
C41	C	0.548788	-0.318646	0.290105
C42	C	1.048788	0.181354	0.790105
C43	C	0.646529	-0.303340	0.357896
C44	C	1.146529	0.196660	0.857896
C45	C	0.548869	-0.245945	0.376174
C46	C	1.048869	0.254055	0.876174
C47	C	0.500544	-0.303353	0.357927
C48	C	1.000544	0.196647	0.857927
C49	C	0.598195	-0.360785	0.339581
C50	C	1.098195	0.139215	0.839581
C51	C	0.598280	-0.288045	0.425682
C52	C	1.098280	0.211955	0.925682
C53	C	0.548881	-0.345499	0.407428
C54	C	1.048881	0.154501	0.907428
C55	C	0.730628	-0.303331	0.357876
C56	C	1.230628	0.196669	0.857876
C57	C	0.416448	-0.303368	0.357947
C58	C	0.916448	0.196632	0.857947
C59	C	1.073063	-0.466891	0.357866
C60	C	1.573063	0.033109	0.857866
C61	C	1.073090	-0.536859	0.357875
C62	C	1.573090	-0.036859	0.857875
C63	C	1.120569	-0.569667	0.405418
C64	C	1.620569	-0.069667	0.905418
C65	C	1.120595	-0.635410	0.405436
C66	C	1.620595	-0.135410	0.905436
C67	C	1.073151	-0.668341	0.357898
C68	C	1.573151	-0.168341	0.857898
C69	C	1.025662	-0.635525	0.310352
C70	C	1.525662	-0.135525	0.810352
C71	C	1.025632	-0.569784	0.310340
C72	C	1.525632	-0.069784	0.810340
N73	N	1.067546	-0.771598	0.292903
N74	N	1.567546	-0.271598	0.792903
N75	N	1.067579	-0.834050	0.292916
N76	N	1.567579	-0.334050	0.792916
C77	C	1.073237	-0.866416	0.357932
C78	C	1.573237	-0.366416	0.857932
N79	N	1.078876	-0.833972	0.422935
N80	N	1.578876	-0.333972	0.922935
N81	N	1.078846	-0.771515	0.422920
N82	N	1.578846	-0.271515	0.922920
C83	C	1.073178	-0.739627	0.357906
C84	C	1.573178	-0.239627	0.857906
C85	C	1.120747	-0.970510	0.405499
C86	C	1.620747	-0.470510	0.905499
C87	C	1.120768	-1.036254	0.405518
C88	C	1.620768	-0.536254	0.905518
C89	C	1.025839	-1.036368	0.310427
C90	C	1.525839	-0.536368	0.810427
C91	C	1.025814	-0.970625	0.310414
C92	C	1.525814	-0.470625	0.810414
C93	C	1.073272	-0.937700	0.357949
C94	C	1.573272	-0.437700	0.857949
C95	C	1.266863	-0.303363	0.357945
C96	C	1.766863	0.196637	0.857945
C97	C	1.349409	-0.303373	0.357963
C98	C	1.849409	0.196627	0.857963
C99	C	1.073187	-0.303311	0.551609
C100	C	1.573187	0.196689	1.051609
C101	C	1.073199	-0.303299	0.634155
C102	C	1.573199	0.196701	1.134155
C103	C	1.073273	-0.139149	0.357957
C104	C	1.573273	0.360851	0.857957
C105	C	1.073322	-0.069181	0.357980
C106	C	1.573322	0.430819	0.857980
C107	C	1.073171	-0.303322	0.164951
C108	C	1.573171	0.196678	0.664951
C109	C	1.073303	-0.303156	0.082406
C110	C	1.573303	0.196844	0.582406
C111	C	1.023601	-0.345283	0.833581
C112	C	1.523601	0.154717	1.333581
C113	C	1.091356	-0.360675	0.882979
C114	C	1.591356	0.139325	1.382979
C115	C	1.073236	-0.303251	0.785285
C116	C	1.573236	0.196749	1.285285
C117	C	1.005518	-0.287842	0.882970
C118	C	1.505518	0.212158	1.382970
C119	C	1.073265	-0.303206	0.931271
C120	C	1.573265	0.196794	1.431271
C121	C	1.141026	-0.318673	0.833596
C122	C	1.641026	0.181327	1.333596
C123	C	1.055142	-0.245814	0.833582
C124	C	1.555142	0.254186	1.333582
C125	C	1.122944	-0.261183	0.882958
C126	C	1.622944	0.238817	1.382958
C127	C	1.073218	-0.303279	0.701187
C128	C	1.573218	0.196721	1.201187
C129	C	1.073291	-0.303178	1.015367
C130	C	1.573291	0.196822	1.515367
H131	H	0.527050	-0.331593	0.232793
H132	H	1.027050	0.168407	0.732793
N133	N	0.977121	-0.536270	0.261781
N134	N	1.477121	-0.036270	0.761781
N135	N	0.908594	-0.543658	0.266644
N136	N	1.408594	-0.043658	0.766644
H137	H	0.874331	-0.519988	0.232349
H138	H	1.374331	-0.019988	0.732349
H139	H	1.164979	-0.225619	0.904500
H140	H	1.664979	0.274381	1.404500
N141	N	0.970997	-0.389922	0.806358
N142	N	1.470997	0.110078	1.306358
N143	N	0.918244	-0.372096	0.766736
N144	N	1.418244	0.127904	1.266736
H145	H	0.881096	-0.403622	0.747505
H146	H	1.381096	0.096378	1.247505
N147	N	0.521689	-0.185053	0.395574
N148	N	1.021689	0.314947	0.895574
N149	N	0.482123	-0.178247	0.451823
N150	N	0.982123	0.321753	0.951823
H151	H	0.462929	-0.135241	0.465521
H152	H	0.962929	0.364759	0.965521
N153	N	1.035892	-0.184919	0.806348
N154	N	1.535892	0.315081	1.306348
N155	N	0.974421	-0.161466	0.822137
N156	N	1.474421	0.338534	1.322137
H157	H	0.960817	-0.118459	0.802903
H158	H	1.460817	0.381541	1.302903
H159	H	1.159210	-0.542862	0.444125
H160	H	1.659210	-0.042862	0.944125
H161	H	0.948238	-0.274828	0.904659
H162	H	1.448238	0.225172	1.404659
H163	H	1.106677	-0.409229	0.904676
H164	H	1.606677	0.090771	1.404676
N165	N	0.977382	-1.069997	0.261859
N166	N	1.477382	-0.569997	0.761859
N167	N	0.982349	-1.062688	0.193334
N168	N	1.482349	-0.562688	0.693334
H169	H	0.948122	-1.086441	0.159033
H170	H	1.448122	-0.586441	0.659033
N171	N	0.977311	-0.937118	0.261843
N172	N	1.477311	-0.437118	0.761843
N173	N	0.934950	-0.966526	0.219404
N174	N	1.434950	-0.466526	0.719404
H175	H	0.900690	-0.942862	0.185100
H176	H	1.400690	-0.442862	0.685100
N177	N	0.977219	-0.669165	0.261776
N178	N	1.477219	-0.169165	0.761776
N179	N	0.982198	-0.661853	0.193253
N180	N	1.482198	-0.161853	0.693253
H181	H	0.947985	-0.685612	0.158943
H182	H	1.447985	-0.185612	0.658943
H183	H	0.619868	-0.225660	0.266468
H184	H	1.119868	0.274340	0.766468
N185	N	1.212906	-0.335082	0.806522
N186	N	1.712906	0.164918	1.306522
N187	N	1.264136	-0.346730	0.851047
N188	N	1.764136	0.153270	1.351047
H189	H	1.314901	-0.358321	0.831926
H190	H	1.814901	0.141679	1.331926
N191	N	0.625268	-0.421695	0.320108
N192	N	1.125268	0.078305	0.820108
N193	N	0.665233	-0.428426	0.264129
N194	N	1.165233	0.071574	0.764129
H195	H	0.684356	-0.471441	0.250373
H196	H	1.184356	0.028559	0.750373
N197	N	0.521887	-0.390233	0.459969
N198	N	1.021887	0.109767	0.959969
N199	N	0.537846	-0.447043	0.453044
N200	N	1.037846	0.052957	0.953044
H201	H	0.518781	-0.478638	0.490149
H202	H	1.018781	0.021362	0.990149
H203	H	0.620036	-0.275080	0.482976
H204	H	1.120036	0.224920	0.982976
N205	N	1.169100	-0.668923	0.454008
N206	N	1.669100	-0.168923	0.954008
N207	N	1.211467	-0.639518	0.496445
N208	N	1.711467	-0.139518	0.996445
H209	H	1.245725	-0.663184	0.530749
H210	H	1.745725	-0.163184	1.030749
N211	N	1.169226	-0.936883	0.454056
N212	N	1.669226	-0.436883	0.954056
N213	N	1.211612	-0.966188	0.496509
N214	N	1.711612	-0.466188	0.996509
H215	H	1.245851	-0.942441	0.530803
H216	H	1.745851	-0.442441	1.030803
H217	H	1.159431	-1.062965	0.444237
H218	H	1.659431	-0.562965	0.944237
