data_functionalizedCrystal
_audit_creation_method	'MofGen! by Chris Wilmer'
_symmetry_space_group_name_H-M	'P1'
_symmetry_Int_Tables_number	1
_symmetry_cell_setting	triclinic
loop_
_symmetry_equiv_pos_as_xyz
  x,y,z
_cell_length_a	16.109293
_cell_length_b	16.109301
_cell_length_c	14.586319
_cell_angle_alpha	90.003802
_cell_angle_beta	89.993082
_cell_angle_gamma	96.540073
loop_
_atom_site_label
_atom_site_type_symbol
_atom_site_fract_x
_atom_site_fract_y
_atom_site_fract_z
O1	O	-1.103135	0.106835	0.076313
O2	O	-0.853135	0.356835	0.326313
O3	O	-0.603135	0.606835	0.576313
O4	O	-0.353135	0.856835	0.826313
O5	O	-0.861072	0.120141	0.076299
O6	O	-0.611072	0.370141	0.326299
O7	O	-0.361072	0.620141	0.576299
O8	O	-0.111072	0.870141	0.826299
O9	O	-0.988753	-0.007543	0.076300
O10	O	-0.738753	0.242457	0.326300
O11	O	-0.488753	0.492457	0.576300
O12	O	-0.238753	0.742457	0.826300
O13	O	-0.975454	0.234519	0.076311
O14	O	-0.725454	0.484519	0.326311
O15	O	-0.475454	0.734519	0.576311
O16	O	-0.225454	0.984519	0.826311
O17	O	-0.988744	-0.007545	-0.076181
O18	O	-0.738744	0.242455	0.173819
O19	O	-0.488744	0.492455	0.423819
O20	O	-0.238744	0.742455	0.673819
O21	O	-0.861063	0.120139	-0.076182
O22	O	-0.611063	0.370139	0.173818
O23	O	-0.361063	0.620139	0.423818
O24	O	-0.111063	0.870139	0.673818
O25	O	-1.103126	0.106833	-0.076168
O26	O	-0.853126	0.356833	0.173832
O27	O	-0.603126	0.606833	0.423832
O28	O	-0.353126	0.856833	0.673832
Cu29	Cu	-0.982094	0.113486	-0.090098
Cu30	Cu	-0.732094	0.363486	0.159902
Cu31	Cu	-0.482094	0.613486	0.409902
Cu32	Cu	-0.232094	0.863486	0.659902
Cu33	Cu	-0.982104	0.113488	0.090228
Cu34	Cu	-0.732104	0.363488	0.340228
Cu35	Cu	-0.482104	0.613488	0.590228
Cu36	Cu	-0.232104	0.863488	0.840228
O37	O	-0.975445	0.234517	-0.076169
O38	O	-0.725445	0.484517	0.173831
O39	O	-0.475445	0.734517	0.423831
O40	O	-0.225445	0.984517	0.673831
C41	C	-0.830093	0.119602	0.000056
C42	C	-0.580093	0.369602	0.250056
C43	C	-0.330093	0.619602	0.500056
C44	C	-0.080093	0.869602	0.750056
C45	C	-0.737797	0.117990	0.000051
C46	C	-0.487797	0.367990	0.250051
C47	C	-0.237797	0.617990	0.500051
C48	C	0.012203	0.867990	0.750051
C49	C	-0.525450	0.114260	-0.083063
C50	C	-0.275450	0.364260	0.166937
C51	C	-0.025450	0.614260	0.416937
C52	C	0.224550	0.864260	0.666937
C53	C	-0.438730	0.112736	-0.083063
C54	C	-0.188730	0.362736	0.166937
C55	C	0.061270	0.612736	0.416937
C56	C	0.311270	0.862736	0.666937
C57	C	-0.438750	0.112742	0.083180
C58	C	-0.188750	0.362742	0.333180
C59	C	0.061250	0.612742	0.583180
C60	C	0.311250	0.862742	0.833180
C61	C	-0.525470	0.114261	0.083179
C62	C	-0.275470	0.364261	0.333179
C63	C	-0.025470	0.614261	0.583179
C64	C	0.224530	0.864261	0.833179
C65	C	-0.568817	0.115024	0.000054
C66	C	-0.318817	0.365024	0.250054
C67	C	-0.068817	0.615024	0.500054
C68	C	0.181183	0.865024	0.750054
C69	C	-0.395377	0.111981	0.000056
C70	C	-0.145377	0.361981	0.250056
C71	C	0.104623	0.611981	0.500056
C72	C	0.354623	0.861981	0.750056
C73	C	-0.301351	0.110329	0.000058
C74	C	-0.051351	0.360329	0.250058
C75	C	0.198649	0.610329	0.500058
C76	C	0.448649	0.860329	0.750058
C77	C	-0.662849	0.116675	0.000052
C78	C	-0.412849	0.366675	0.250052
C79	C	-0.162849	0.616675	0.500052
C80	C	0.087151	0.866675	0.750052
C81	C	-0.988210	-0.038519	0.000060
C82	C	-0.738210	0.211481	0.250060
C83	C	-0.488210	0.461481	0.500060
C84	C	-0.238210	0.711481	0.750060
C85	C	-0.986595	-0.130814	0.000061
C86	C	-0.736595	0.119186	0.250061
C87	C	-0.486595	0.369186	0.500061
C88	C	-0.236595	0.619186	0.750061
C89	C	-1.057078	-0.439814	0.000081
C90	C	-0.807078	-0.189814	0.250081
C91	C	-0.557078	0.060186	0.500081
C92	C	-0.307078	0.310186	0.750081
C93	C	-1.058603	-0.353094	0.000076
C94	C	-0.808603	-0.103094	0.250076
C95	C	-0.558603	0.146906	0.500076
C96	C	-0.308603	0.396906	0.750076
C97	C	-0.907114	-0.333217	0.000055
C98	C	-0.657114	-0.083217	0.250055
C99	C	-0.407114	0.166783	0.500055
C100	C	-0.157114	0.416783	0.750055
C101	C	-0.905590	-0.419935	0.000054
C102	C	-0.655590	-0.169935	0.250054
C103	C	-0.405590	0.080065	0.500054
C104	C	-0.155590	0.330065	0.750054
C105	C	-0.980574	-0.473232	0.000071
C106	C	-0.730574	-0.223232	0.250071
C107	C	-0.480574	0.026768	0.500071
C108	C	-0.230574	0.276768	0.750071
C109	C	-0.983624	-0.299793	0.000067
C110	C	-0.733624	-0.049793	0.250067
C111	C	-0.483624	0.200207	0.500067
C112	C	-0.233624	0.450207	0.750067
C113	C	-0.985277	-0.205767	0.000062
C114	C	-0.735277	0.044233	0.250062
C115	C	-0.485277	0.294233	0.500062
C116	C	-0.235277	0.544233	0.750062
C117	C	-0.978921	-0.567264	0.000075
C118	C	-0.728921	-0.317264	0.250075
C119	C	-0.478921	-0.067264	0.500075
C120	C	-0.228921	0.182736	0.750075
C121	C	-0.134105	0.107380	0.000069
C122	C	0.115895	0.357380	0.250069
C123	C	0.365895	0.607380	0.500069
C124	C	0.615895	0.857380	0.750069
C125	C	-0.226397	0.109015	0.000059
C126	C	0.023603	0.359015	0.250059
C127	C	0.273603	0.609015	0.500059
C128	C	0.523603	0.859015	0.750059
C129	C	-0.975988	0.265493	0.000073
C130	C	-0.725988	0.515493	0.250073
C131	C	-0.475988	0.765493	0.500073
C132	C	-0.225988	1.015493	0.750073
C133	C	-0.977603	0.357788	0.000078
C134	C	-0.727603	0.607788	0.250078
C135	C	-0.477603	0.857788	0.500078
C136	C	-0.227603	1.107788	0.750078
N137	N	-0.982093	0.113484	-0.216930
N138	N	-0.732093	0.363484	0.033070
N139	N	-0.482093	0.613484	0.283070
N140	N	-0.232093	0.863484	0.533070
C141	C	-1.038648	0.056964	-0.451935
C142	C	-0.788648	0.306964	-0.201935
C143	C	-0.538648	0.556964	0.048065
C144	C	-0.288648	0.806964	0.298065
C145	C	-1.038651	0.056962	-0.547917
C146	C	-0.788651	0.306962	-0.297917
C147	C	-0.538651	0.556962	-0.047917
C148	C	-0.288651	0.806962	0.202083
C149	C	-0.925550	0.170006	-0.547927
C150	C	-0.675550	0.420006	-0.297927
C151	C	-0.425550	0.670006	-0.047927
C152	C	-0.175550	0.920006	0.202073
C153	C	-0.925545	0.170003	-0.451948
C154	C	-0.675545	0.420003	-0.201948
C155	C	-0.425545	0.670003	0.048052
C156	C	-0.175545	0.920003	0.298052
C157	C	-0.982098	0.113484	-0.403954
C158	C	-0.732098	0.363484	-0.153954
C159	C	-0.482098	0.613484	0.096046
C160	C	-0.232098	0.863484	0.346046
C161	C	-0.982106	0.113484	-0.595915
C162	C	-0.732106	0.363484	-0.345915
C163	C	-0.482106	0.613484	-0.095915
C164	C	-0.232106	0.863484	0.154085
C165	C	-0.982109	0.113482	-0.699982
C166	C	-0.732109	0.363482	-0.449982
C167	C	-0.482109	0.613482	-0.199982
C168	C	-0.232109	0.863482	0.050018
C169	C	-0.982095	0.113484	-0.299881
C170	C	-0.732095	0.363484	-0.049881
C171	C	-0.482095	0.613484	0.200119
C172	C	-0.232095	0.863484	0.450119
N173	N	-0.982112	0.113484	0.217060
N174	N	-0.732112	0.363484	0.467060
N175	N	-0.482112	0.613484	0.717060
N176	N	-0.232112	0.863484	0.967060
H177	H	-0.403446	0.112122	0.150857
H178	H	-0.153446	0.362122	0.400857
H179	H	0.096554	0.612122	0.650857
H180	H	0.346554	0.862122	0.900857
O181	O	-0.572253	0.115087	0.172830
O182	O	-0.322253	0.365087	0.422830
O183	O	-0.072253	0.615087	0.672830
O184	O	0.177747	0.865087	0.922830
H185	H	-0.527542	0.114314	0.230632
H186	H	-0.277542	0.364314	0.480632
H187	H	-0.027542	0.614314	0.730632
H188	H	0.222458	0.864314	0.980632
H189	H	-0.403425	0.112115	-0.150745
H190	H	-0.153425	0.362115	0.099255
H191	H	0.096575	0.612115	0.349255
H192	H	0.346575	0.862115	0.599255
H193	H	-1.118135	-0.483207	0.000096
H194	H	-0.868135	-0.233207	0.250096
H195	H	-0.618135	0.016793	0.500096
H196	H	-0.368135	0.266793	0.750096
O197	O	-0.572201	0.115084	-0.172718
O198	O	-0.322201	0.365084	0.077282
O199	O	-0.072201	0.615084	0.327282
O200	O	0.177799	0.865084	0.577282
H201	H	-0.619144	0.059148	-0.176699
H202	H	-0.369144	0.309148	0.073301
H203	H	-0.119144	0.559148	0.323301
H204	H	0.130856	0.809148	0.573301
H205	H	-1.120901	-0.325890	0.000082
H206	H	-0.870901	-0.075890	0.250082
H207	H	-0.620901	0.174110	0.500082
H208	H	-0.370901	0.424110	0.750082
H209	H	-0.879491	0.216029	-0.412879
H210	H	-0.629491	0.466029	-0.162879
H211	H	-0.379491	0.716029	0.087121
H212	H	-0.129491	0.966029	0.337121
O213	O	-0.864566	0.230972	-0.599697
O214	O	-0.614566	0.480972	-0.349697
O215	O	-0.364566	0.730972	-0.099697
O216	O	-0.114566	0.980972	0.150303
H217	H	-0.875142	0.295785	-0.581256
H218	H	-0.625142	0.545785	-0.331256
H219	H	-0.375142	0.795785	-0.081256
H220	H	-0.125142	1.045785	0.168744
H221	H	-0.846065	-0.289812	0.000043
H222	H	-0.596065	-0.039812	0.250043
H223	H	-0.346065	0.210188	0.500043
H224	H	-0.096065	0.460188	0.750043
H225	H	-1.084698	0.010938	-0.586980
H226	H	-0.834698	0.260938	-0.336980
H227	H	-0.584698	0.510938	-0.086980
H228	H	-0.334698	0.760938	0.163020
O229	O	-0.823071	-0.455989	0.000042
O230	O	-0.573071	-0.205989	0.250042
O231	O	-0.323071	0.044011	0.500042
O232	O	-0.073071	0.294011	0.750042
H233	H	-0.771186	-0.404361	0.000043
H234	H	-0.521186	-0.154361	0.250043
H235	H	-0.271186	0.095639	0.500043
H236	H	-0.021186	0.345639	0.750043
O237	O	-1.099633	-0.004002	-0.400166
O238	O	-0.849633	0.245998	-0.150166
O239	O	-0.599633	0.495998	0.099834
O240	O	-0.349633	0.745998	0.349834
H241	H	-1.138949	-0.043310	-0.449660
H242	H	-0.888949	0.206690	-0.199660
H243	H	-0.638949	0.456690	0.050340
H244	H	-0.388949	0.706690	0.300340
