data_functionalizedCrystal
_audit_creation_method	'MofGen! by Chris Wilmer'
_symmetry_space_group_name_H-M	'P1'
_symmetry_Int_Tables_number	1
_symmetry_cell_setting	triclinic
loop_
_symmetry_equiv_pos_as_xyz
  x,y,z
_cell_length_a	19.188930
_cell_length_b	19.188930
_cell_length_c	8.140239
_cell_angle_alpha	89.991748
_cell_angle_beta	89.984657
_cell_angle_gamma	83.144779
loop_
_atom_site_label
_atom_site_type_symbol
_atom_site_fract_x
_atom_site_fract_y
_atom_site_fract_z
O1	O	-0.926142	-0.087166	0.137160
O2	O	-0.676142	0.162834	0.387160
O3	O	-0.426142	0.412834	0.637160
O4	O	-0.176142	0.662834	0.887160
O5	O	-0.722831	-0.098901	0.137050
O6	O	-0.472831	0.151099	0.387050
O7	O	-0.222831	0.401099	0.637050
O8	O	0.027169	0.651099	0.887050
O9	O	-0.830353	0.008622	0.137076
O10	O	-0.580353	0.258622	0.387076
O11	O	-0.330353	0.508622	0.637076
O12	O	-0.080353	0.758622	0.887076
O13	O	-0.818619	-0.194689	0.137134
O14	O	-0.568619	0.055311	0.387134
O15	O	-0.318619	0.305311	0.637134
O16	O	-0.068619	0.555311	0.887134
O17	O	-0.830350	0.008623	-0.136151
O18	O	-0.580350	0.258623	0.113849
O19	O	-0.330350	0.508623	0.363849
O20	O	-0.080350	0.758623	0.613849
O21	O	-0.722827	-0.098900	-0.136177
O22	O	-0.472827	0.151100	0.113823
O23	O	-0.222827	0.401100	0.363823
O24	O	0.027173	0.651100	0.613823
O25	O	-0.926138	-0.087166	-0.136067
O26	O	-0.676138	0.162834	0.113933
O27	O	-0.426138	0.412834	0.363933
O28	O	-0.176138	0.662834	0.613933
Zn29	Zn	-0.824482	-0.093033	-0.179503
Zn30	Zn	-0.574482	0.156967	0.070497
Zn31	Zn	-0.324482	0.406967	0.320497
Zn32	Zn	-0.074482	0.656967	0.570497
Zn33	Zn	-0.824487	-0.093034	0.180485
Zn34	Zn	-0.574487	0.156966	0.430485
Zn35	Zn	-0.324487	0.406966	0.680485
Zn36	Zn	-0.074487	0.656966	0.930485
O37	O	-0.818616	-0.194688	-0.136093
O38	O	-0.568616	0.055312	0.113907
O39	O	-0.318616	0.305312	0.363907
O40	O	-0.068616	0.555312	0.613907
C41	C	-0.696818	-0.098520	0.000422
C42	C	-0.446818	0.151480	0.250422
C43	C	-0.196818	0.401480	0.500422
C44	C	0.053182	0.651480	0.750422
C45	C	-0.619313	-0.097380	0.000378
C46	C	-0.369313	0.152620	0.250378
C47	C	-0.119313	0.402620	0.500378
C48	C	0.130687	0.652620	0.750378
C49	C	-0.829972	0.034634	0.000457
C50	C	-0.579972	0.284634	0.250457
C51	C	-0.329972	0.534634	0.500457
C52	C	-0.079972	0.784634	0.750457
C53	C	-0.828831	0.112138	0.000443
C54	C	-0.578831	0.362138	0.250443
C55	C	-0.328831	0.612138	0.500443
C56	C	-0.078831	0.862138	0.750443
C57	C	-0.952151	-0.087546	0.000565
C58	C	-0.702151	0.162454	0.250565
C59	C	-0.452151	0.412454	0.500565
C60	C	-0.202151	0.662454	0.750565
C61	C	-1.029656	-0.088687	0.000619
C62	C	-0.779656	0.161313	0.250619
C63	C	-0.529656	0.411313	0.500619
C64	C	-0.279656	0.661313	0.750619
C65	C	-0.574389	-0.160470	0.000422
C66	C	-0.324389	0.089530	0.250422
C67	C	-0.074389	0.339530	0.500422
C68	C	0.175611	0.589530	0.750422
C69	C	-0.501566	-0.159399	0.000440
C70	C	-0.251566	0.090601	0.250440
C71	C	-0.001566	0.340601	0.500440
C72	C	0.248434	0.590601	0.750440
C73	C	-0.473669	-0.095233	0.000447
C74	C	-0.223669	0.154767	0.250447
C75	C	0.026331	0.404767	0.500447
C76	C	0.276331	0.654767	0.750447
C77	C	-0.518603	-0.032133	0.000394
C78	C	-0.268603	0.217867	0.250394
C79	C	-0.018603	0.467867	0.500394
C80	C	0.231397	0.717867	0.750394
C81	C	-0.591425	-0.033207	0.000359
C82	C	-0.341425	0.216793	0.250359
C83	C	-0.091425	0.466793	0.500359
C84	C	0.158575	0.716793	0.750359
N85	N	-0.365690	-0.046186	0.093490
N86	N	-0.115690	0.203814	0.343490
N87	N	0.134310	0.453814	0.593490
N88	N	0.384310	0.703814	0.843490
N89	N	-0.296511	-0.045170	0.093526
N90	N	-0.046511	0.204830	0.343526
N91	N	0.203489	0.454830	0.593526
N92	N	0.453489	0.704830	0.843526
C93	C	-0.254260	-0.091994	0.000546
C94	C	-0.004260	0.158006	0.250546
C95	C	0.245740	0.408006	0.500546
C96	C	0.495740	0.658006	0.750546
N97	N	-0.283800	-0.139883	-0.092450
N98	N	-0.033800	0.110117	0.157550
N99	N	0.216200	0.360117	0.407550
N100	N	0.466200	0.610117	0.657550
N101	N	-0.352985	-0.140900	-0.092479
N102	N	-0.102985	0.109100	0.157521
N103	N	0.147015	0.359100	0.407521
N104	N	0.397015	0.609100	0.657521
C105	C	-0.394707	-0.094062	0.000483
C106	C	-0.144707	0.155938	0.250483
C107	C	0.105293	0.405938	0.500483
C108	C	0.355293	0.655938	0.750483
C109	C	-0.130372	-0.153928	0.000607
C110	C	0.119628	0.096072	0.250607
C111	C	0.369628	0.346072	0.500607
C112	C	0.619628	0.596072	0.750607
C113	C	-0.057547	-0.152853	0.000614
C114	C	0.192453	0.097147	0.250614
C115	C	0.442453	0.347147	0.500614
C116	C	0.692453	0.597147	0.750614
C117	C	-0.074586	-0.025586	0.000585
C118	C	0.175414	0.224414	0.250585
C119	C	0.425414	0.474414	0.500585
C120	C	0.675414	0.724414	0.750585
C121	C	-0.147409	-0.026662	0.000561
C122	C	0.102591	0.223338	0.250561
C123	C	0.352591	0.473338	0.500561
C124	C	0.602591	0.723338	0.750561
C125	C	-0.175298	-0.090835	0.000580
C126	C	0.074702	0.159165	0.250580
C127	C	0.324702	0.409165	0.500580
C128	C	0.574702	0.659165	0.750580
C129	C	-0.818997	-0.220700	0.000529
C130	C	-0.568997	0.029300	0.250529
C131	C	-0.318997	0.279300	0.500529
C132	C	-0.068997	0.529300	0.750529
C133	C	-0.820138	-0.298204	0.000554
C134	C	-0.570138	-0.048204	0.250554
C135	C	-0.320138	0.201796	0.500554
C136	C	-0.070138	0.451796	0.750554
N137	N	-0.824484	-0.093032	-0.425186
N138	N	-0.574484	0.156968	-0.175186
N139	N	-0.324484	0.406968	0.074814
N140	N	-0.074484	0.656968	0.324814
C141	C	-0.891922	0.157062	0.000469
C142	C	-0.641922	0.407062	0.250469
C143	C	-0.391922	0.657062	0.500469
C144	C	-0.141922	0.907062	0.750469
C145	C	-0.890850	0.229886	0.000495
C146	C	-0.640850	0.479886	0.250495
C147	C	-0.390850	0.729886	0.500495
C148	C	-0.140850	0.979886	0.750495
C149	C	-0.826684	0.257782	0.000461
C150	C	-0.576684	0.507782	0.250461
C151	C	-0.326684	0.757782	0.500461
C152	C	-0.076684	1.007782	0.750461
C153	C	-0.763585	0.212849	0.000444
C154	C	-0.513585	0.462849	0.250444
C155	C	-0.263585	0.712849	0.500444
C156	C	-0.013585	0.962849	0.750444
C157	C	-0.764658	0.140026	0.000435
C158	C	-0.514658	0.390026	0.250435
C159	C	-0.264658	0.640026	0.500435
C160	C	-0.014658	0.890026	0.750435
N161	N	-0.777636	0.365788	-0.092550
N162	N	-0.527636	0.615788	0.157450
N163	N	-0.277636	0.865788	0.407450
N164	N	-0.027636	1.115788	0.657450
N165	N	-0.776620	0.434966	-0.092545
N166	N	-0.526620	0.684966	0.157455
N167	N	-0.276620	0.934966	0.407455
N168	N	-0.026620	1.184966	0.657455
C169	C	-0.823446	0.477191	0.000493
C170	C	-0.573446	0.727191	0.250493
C171	C	-0.323446	0.977191	0.500493
C172	C	-0.073446	1.227191	0.750493
N173	N	-0.871336	0.447625	0.093504
N174	N	-0.621336	0.697625	0.343504
N175	N	-0.371336	0.947625	0.593504
N176	N	-0.121336	1.197625	0.843504
N177	N	-0.872354	0.378441	0.093491
N178	N	-0.622354	0.628441	0.343491
N179	N	-0.372354	0.878441	0.593491
N180	N	-0.122354	1.128441	0.843491
C181	C	-0.825513	0.336745	0.000472
C182	C	-0.575513	0.586745	0.250472
C183	C	-0.325513	0.836745	0.500472
C184	C	-0.075513	1.086745	0.750472
C185	C	-0.885379	0.601079	0.000549
C186	C	-0.635379	0.851079	0.250549
C187	C	-0.385379	1.101079	0.500549
C188	C	-0.135379	1.351079	0.750549
C189	C	-0.884305	0.673904	0.000585
C190	C	-0.634305	0.923904	0.250585
C191	C	-0.384305	1.173904	0.500585
C192	C	-0.134305	1.423904	0.750585
C193	C	-0.757038	0.656865	0.000518
C194	C	-0.507038	0.906865	0.250518
C195	C	-0.257038	1.156865	0.500518
C196	C	-0.007038	1.406865	0.750518
C197	C	-0.758114	0.584042	0.000499
C198	C	-0.508114	0.834042	0.250499
C199	C	-0.258114	1.084042	0.500499
C200	C	-0.008114	1.334042	0.750499
C201	C	-0.822286	0.556154	0.000506
C202	C	-0.572286	0.806154	0.250506
C203	C	-0.322286	1.056154	0.500506
C204	C	-0.072286	1.306154	0.750506
N205	N	-0.824490	-0.093029	0.426168
N206	N	-0.574490	0.156971	0.676168
N207	N	-0.324490	0.406971	0.926168
N208	N	-0.074490	0.656971	1.176168
H209	H	-0.597091	-0.212725	0.000440
H210	H	-0.347091	0.037275	0.250440
H211	H	-0.097091	0.287275	0.500440
H212	H	0.152909	0.537275	0.750440
H213	H	-0.942228	0.266470	0.000523
H214	H	-0.692228	0.516470	0.250523
H215	H	-0.442228	0.766470	0.500523
H216	H	-0.192228	1.016470	0.750523
Br217	Br	0.003424	-0.238485	0.000659
Br218	Br	0.253424	0.011515	0.250659
Br219	Br	0.503424	0.261515	0.500659
Br220	Br	0.753424	0.511515	0.750659
H221	H	-0.153080	-0.206181	0.000598
H222	H	0.096920	0.043819	0.250598
H223	H	0.346920	0.293819	0.500598
H224	H	0.596920	0.543819	0.750598
Br225	Br	-0.679028	0.079054	0.000404
Br226	Br	-0.429028	0.329054	0.250404
Br227	Br	-0.179028	0.579054	0.500404
Br228	Br	0.070972	0.829054	0.750404
Br229	Br	-0.480745	0.054950	0.000386
Br230	Br	-0.230745	0.304950	0.250386
Br231	Br	0.019255	0.554950	0.500386
Br232	Br	0.269255	0.804950	0.750386
Br233	Br	-0.972468	0.563226	0.000543
Br234	Br	-0.722468	0.813226	0.250543
Br235	Br	-0.472468	1.063226	0.500543
Br236	Br	-0.222468	1.313226	0.750543
Br237	Br	-0.440585	-0.245028	0.000489
Br238	Br	-0.190585	0.004972	0.250489
Br239	Br	0.059415	0.254972	0.500489
Br240	Br	0.309415	0.504972	0.750489
H241	H	-0.935683	0.710481	0.000616
H242	H	-0.685683	0.960481	0.250616
H243	H	-0.435683	1.210481	0.500616
H244	H	-0.185683	1.460481	0.750616
Br245	Br	-0.676502	0.250706	0.000419
Br246	Br	-0.426502	0.500706	0.250419
Br247	Br	-0.176502	0.750706	0.500419
Br248	Br	0.073498	1.000706	0.750419
H249	H	-0.628003	0.018171	0.000325
H250	H	-0.378003	0.268171	0.250325
H251	H	-0.128003	0.518171	0.500325
H252	H	0.121997	0.768171	0.750325
H253	H	-0.051874	0.026659	0.000693
H254	H	0.198126	0.276659	0.250693
H255	H	0.448126	0.526659	0.500693
H256	H	0.698126	0.776659	0.750693
Br257	Br	-0.208382	0.058966	0.000506
Br258	Br	0.041618	0.308966	0.250506
Br259	Br	0.291618	0.558966	0.500506
Br260	Br	0.541618	0.808966	0.750506
Br261	Br	-0.669953	0.694717	0.000489
Br262	Br	-0.419953	0.944717	0.250489
Br263	Br	-0.169953	1.194717	0.500489
Br264	Br	0.080047	1.444717	0.750489
Br265	Br	-0.979013	0.119216	0.000525
Br266	Br	-0.729013	0.369216	0.250525
Br267	Br	-0.479013	0.619216	0.500525
Br268	Br	-0.229013	0.869216	0.750525
H269	H	-0.706738	0.547464	0.000468
H270	H	-0.456738	0.797464	0.250468
H271	H	-0.206738	1.047464	0.500468
H272	H	0.043262	1.297464	0.750468
