data_functionalizedCrystal
_audit_creation_method	'MofGen! by Chris Wilmer'
_symmetry_space_group_name_H-M	'P1'
_symmetry_Int_Tables_number	1
_symmetry_cell_setting	triclinic
loop_
_symmetry_equiv_pos_as_xyz
  x,y,z
_cell_length_a	18.215405
_cell_length_b	18.215407
_cell_length_c	18.215399
_cell_angle_alpha	89.983176
_cell_angle_beta	89.970050
_cell_angle_gamma	90.023180
loop_
_atom_site_label
_atom_site_type_symbol
_atom_site_fract_x
_atom_site_fract_y
_atom_site_fract_z
Zn1	Zn	-0.292966	1.125061	-0.416118
Zn2	Zn	-0.416042	1.124981	-0.293053
Zn3	Zn	-0.292995	1.002000	-0.293065
Zn4	Zn	-0.415996	1.001964	-0.416077
O5	O	-0.354500	1.063502	-0.354578
O6	O	-0.309299	1.228035	-0.399805
O7	O	-0.399751	1.108648	-0.190070
O8	O	-0.190007	1.018373	-0.309411
O9	O	-0.399723	1.227976	-0.309389
O10	O	-0.189985	1.108786	-0.399817
O11	O	-0.309349	1.018295	-0.190079
O12	O	-0.309304	0.899011	-0.309372
O13	O	-0.399644	1.018312	-0.519067
O14	O	-0.399672	0.898985	-0.399748
O15	O	-0.309254	1.108751	-0.519097
O16	O	-0.519020	1.108613	-0.309350
O17	O	-0.518986	1.018234	-0.399736
C18	C	-0.354487	0.872295	-0.354557
C19	C	-0.354499	0.790496	-0.354566
C20	C	-0.545706	1.063431	-0.354553
C21	C	-0.627505	1.063468	-0.354567
C22	C	-0.401628	0.602308	-0.401566
C23	C	-0.401630	0.525449	-0.401575
C24	C	-0.307384	0.525447	-0.307607
C25	C	-0.307379	0.602304	-0.307602
C26	C	-0.354505	0.640733	-0.354580
C27	C	-0.354513	0.487017	-0.354594
C28	C	-0.354515	0.403683	-0.354604
C29	C	-0.354502	0.724072	-0.354572
C30	C	-0.815626	1.110568	-0.401705
C31	C	-0.892485	1.110595	-0.401719
C32	C	-0.892621	1.016526	-0.307497
C33	C	-0.815763	1.016496	-0.307488
C34	C	-0.777268	1.063521	-0.354590
C35	C	-0.930984	1.063578	-0.354614
C36	C	-1.014318	1.063607	-0.354628
C37	C	-0.693929	1.063492	-0.354577
C38	C	-0.162547	1.063592	-0.354620
C39	C	-0.080748	1.063631	-0.354638
C40	C	-0.354441	1.063536	-0.546531
C41	C	-0.354416	1.063551	-0.628330
C42	C	-0.354513	1.255454	-0.354600
C43	C	-0.354518	1.337253	-0.354609
C44	C	-0.307311	1.016544	-0.816530
C45	C	-0.307297	1.016557	-0.893389
C46	C	-0.401432	1.110646	-0.893368
C47	C	-0.401450	1.110629	-0.816511
C48	C	-0.354386	1.063579	-0.778094
C49	C	-0.354353	1.063609	-0.931810
C50	C	-0.354337	1.063623	-1.015144
C51	C	-0.354402	1.063564	-0.694755
C52	C	-0.354505	1.063509	-0.163372
C53	C	-0.354323	1.063637	-0.081574
H54	H	-0.440002	0.494167	-0.439836
H55	H	-0.268965	0.978255	-0.924680
H56	H	-0.269017	0.494149	-0.269358
C57	C	-0.452535	1.161619	-0.774642
C58	C	-0.442491	1.151516	-0.699111
C59	C	-0.489544	1.198463	-0.660518
H60	H	-0.441812	1.211105	-0.787152
H61	H	-0.501994	1.150821	-0.787180
H62	H	-0.393043	1.162319	-0.686578
H63	H	-0.453220	1.102041	-0.686579
H64	H	-0.539004	1.187665	-0.673056
H65	H	-0.478818	1.247946	-0.673035
H66	H	-0.482741	1.191610	-0.609267
C67	C	-0.256186	0.643896	-0.256505
C68	C	-0.214934	0.593794	-0.215346
C69	C	-0.167776	0.632081	-0.168266
H70	H	-0.224088	0.673901	-0.284630
H71	H	-0.284282	0.673842	-0.224351
H72	H	-0.186841	0.563861	-0.247496
H73	H	-0.247013	0.563787	-0.187206
H74	H	-0.195872	0.662027	-0.136112
H75	H	-0.135683	0.662085	-0.196397
H76	H	-0.139786	0.598093	-0.140329
H77	H	-0.784285	1.148858	-0.440060
C78	C	-0.774244	0.965385	-0.256251
C79	C	-0.824405	0.924227	-0.214984
C80	C	-0.786184	0.877144	-0.167776
H81	H	-0.744267	0.933226	-0.284288
H82	H	-0.744275	0.993531	-0.224170
H83	H	-0.854361	0.896083	-0.247061
H84	H	-0.854383	0.956367	-0.186932
H85	H	-0.756215	0.905289	-0.135695
H86	H	-0.756209	0.844989	-0.195819
H87	H	-0.820212	0.849217	-0.139766
C88	C	-0.256194	0.965375	-0.774952
C89	C	-0.214981	0.924171	-0.825067
C90	C	-0.167893	0.877016	-0.786795
H91	H	-0.224069	0.993448	-0.744977
H92	H	-0.284339	0.933252	-0.744976
H93	H	-0.186839	0.956290	-0.855030
H94	H	-0.247087	0.896083	-0.855043
H95	H	-0.196038	0.844893	-0.756819
H96	H	-0.135773	0.905095	-0.756822
H97	H	-0.139929	0.849049	-0.820792
C98	C	-0.452694	0.643993	-0.452698
C99	C	-0.436741	0.625342	-0.525541
C100	C	-0.483760	0.663732	-0.572668
H101	H	-0.502156	0.631408	-0.441944
H102	H	-0.445938	0.695277	-0.446017
H103	H	-0.443504	0.574069	-0.532219
H104	H	-0.387288	0.637928	-0.536318
H105	H	-0.477004	0.715016	-0.565986
H106	H	-0.533220	0.651144	-0.561907
H107	H	-0.472938	0.651088	-0.622097
H108	H	-0.923713	1.148904	-0.440086
H109	H	-0.923973	0.978241	-0.269147
C110	C	-0.452444	1.161703	-0.935213
C111	C	-0.442340	1.151667	-1.010749
C112	C	-0.489312	1.198697	-1.049317
H113	H	-0.501924	1.150955	-0.922692
H114	H	-0.441671	1.211168	-0.922665
H115	H	-0.453118	1.102214	-1.023291
H116	H	-0.392870	1.162421	-1.023292
H117	H	-0.478539	1.248162	-1.036769
H118	H	-0.538789	1.187945	-1.036789
H119	H	-0.482458	1.191899	-1.100571
