data_functionalizedCrystal
_audit_creation_method	'MofGen! by Chris Wilmer'
_symmetry_space_group_name_H-M	'P1'
_symmetry_Int_Tables_number	1
_symmetry_cell_setting	triclinic
loop_
_symmetry_equiv_pos_as_xyz
  x,y,z
_cell_length_a	15.995350
_cell_length_b	15.995343
_cell_length_c	15.072220
_cell_angle_alpha	89.998594
_cell_angle_beta	89.997847
_cell_angle_gamma	83.490780
loop_
_atom_site_label
_atom_site_type_symbol
_atom_site_fract_x
_atom_site_fract_y
_atom_site_fract_z
O1	O	1.110985	0.107917	-0.073717
O2	O	1.610985	0.607917	0.426283
O3	O	0.867210	0.121244	-0.073736
O4	O	1.367210	0.621244	0.426264
O5	O	0.995765	-0.007307	-0.073709
O6	O	1.495765	0.492693	0.426291
O7	O	0.982430	0.236469	-0.073743
O8	O	1.482430	0.736469	0.426257
O9	O	0.995748	-0.007291	0.073856
O10	O	1.495748	0.492709	0.573856
O11	O	0.867193	0.121261	0.073829
O12	O	1.367193	0.621261	0.573829
O13	O	1.110969	0.107933	0.073848
O14	O	1.610969	0.607933	0.573848
Zn15	Zn	0.989078	0.114599	0.097268
Zn16	Zn	1.489078	0.614599	0.597268
Zn17	Zn	0.989100	0.114578	-0.097156
Zn18	Zn	1.489100	0.614578	0.402844
O19	O	0.982414	0.236485	0.073822
O20	O	1.482414	0.736485	0.573822
C21	C	0.836007	0.120702	0.000044
C22	C	1.336007	0.620702	0.500044
C23	C	0.743056	0.119050	0.000037
C24	C	1.243056	0.619050	0.500037
C25	C	0.995206	-0.038494	0.000075
C26	C	1.495206	0.461506	0.500075
C27	C	0.993557	-0.131445	0.000082
C28	C	1.493557	0.368555	0.500082
C29	C	0.990563	-0.301631	0.000062
C30	C	1.490563	0.198369	0.500062
C31	C	0.897766	-0.324977	0.000052
C32	C	1.397766	0.175023	0.500052
C33	C	0.896020	-0.421655	-0.000293
C34	C	1.396020	0.078345	0.499707
C35	C	0.987615	-0.469191	0.000043
C36	C	1.487615	0.030809	0.500043
C37	C	1.034284	-0.440101	-0.084051
C38	C	1.534284	0.059899	0.415949
C39	C	1.035385	-0.343309	-0.084112
C40	C	1.535385	0.156691	0.415888
C41	C	1.036725	-0.343395	0.083703
C42	C	1.536725	0.156605	0.583703
C43	C	1.033299	-0.439890	0.084799
C44	C	1.533299	0.060110	0.584799
C45	C	0.985953	-0.563889	0.000029
C46	C	1.485953	-0.063889	0.500029
C47	C	0.992228	-0.206933	0.000070
C48	C	1.492228	0.293067	0.500070
C49	C	0.405309	0.113118	0.000057
C50	C	0.905309	0.613118	0.500057
C51	C	0.452746	0.021565	0.000399
C52	C	0.952746	0.521565	0.500399
C53	C	0.549436	0.023217	0.000060
C54	C	1.049436	0.523217	0.500060
C55	C	0.572869	0.116060	0.000048
C56	C	1.072869	0.616060	0.500048
C57	C	0.531790	0.161207	-0.084222
C58	C	1.031790	0.661207	0.415778
C59	C	0.435155	0.158908	-0.084286
C60	C	0.935155	0.658908	0.415714
C61	C	0.434797	0.160818	0.083523
C62	C	0.934797	0.660818	0.583523
C63	C	0.531742	0.160796	0.084630
C64	C	1.031742	0.660796	0.584630
C65	C	0.667567	0.117728	0.000040
C66	C	1.167567	0.617728	0.500040
C67	C	0.310611	0.111452	0.000059
C68	C	0.810611	0.611452	0.500059
C69	C	1.142172	0.108476	0.000066
C70	C	1.642172	0.608476	0.500066
C71	C	1.235122	0.110128	0.000067
C72	C	1.735122	0.610128	0.500067
C73	C	0.982972	0.267672	0.000035
C74	C	1.482972	0.767672	0.500035
C75	C	0.984621	0.360622	0.000022
C76	C	1.484621	0.860622	0.500022
N77	N	0.989069	0.114614	0.229957
N78	N	1.489069	0.614614	0.729957
N79	N	0.989115	0.114557	-0.229844
N80	N	1.489115	0.614557	0.270156
C81	C	0.989085	0.114594	0.410954
C82	C	1.489085	0.614594	0.910954
C83	C	0.920287	0.183355	0.448609
C84	C	1.420287	0.683355	0.948609
C85	C	0.920051	0.183167	0.551434
C86	C	1.420051	0.683167	1.051434
C87	C	0.989100	0.114577	0.589158
C88	C	1.489100	0.614577	1.089158
C89	C	0.970377	0.027105	0.551826
C90	C	1.470377	0.527105	1.051826
C91	C	0.969875	0.027519	0.448969
C92	C	1.469875	0.527519	0.948969
C93	C	1.076817	0.132516	0.448846
C94	C	1.576817	0.632516	0.948846
C95	C	1.076238	0.134491	0.551711
C96	C	1.576238	0.634491	1.051711
C97	C	0.989110	0.114561	0.689871
C98	C	1.489110	0.614561	1.189871
C99	C	0.989073	0.114604	0.310241
C100	C	1.489073	0.614604	0.810241
H101	H	0.861791	-0.296968	0.060349
H102	H	1.361791	0.203032	0.560349
O103	O	0.934729	0.269763	0.415847
O104	O	1.434729	0.769763	0.915847
H105	H	0.885431	0.317148	0.443301
H106	H	1.385431	0.817148	0.943301
H107	H	0.855541	0.172031	0.422776
H108	H	1.355541	0.672031	0.922776
O109	O	0.993089	-0.307821	-0.167698
O110	O	1.493089	0.192179	0.332302
H111	H	0.937875	-0.262537	-0.149848
H112	H	1.437875	0.237463	0.350152
O113	O	0.550491	0.251560	-0.088385
O114	O	1.050491	0.751560	0.411615
H115	H	0.520764	0.282022	-0.148501
H116	H	1.020764	0.782022	0.351499
H117	H	1.007440	-0.315123	0.147467
H118	H	1.507440	0.184877	0.647467
H119	H	1.019175	-0.025313	0.576259
H120	H	1.519175	0.474687	1.076259
H121	H	0.905903	0.011778	0.424991
H122	H	1.405903	0.511778	0.924991
O123	O	0.392424	0.247936	-0.089364
O124	O	0.892424	0.747936	0.410636
H125	H	0.353013	0.255280	-0.150083
H126	H	0.853013	0.755280	0.349917
O127	O	0.850903	-0.286554	-0.079699
O128	O	1.350903	0.213446	0.420301
H129	H	0.883089	-0.310994	-0.141219
H130	H	1.383089	0.189006	0.358781
H131	H	0.999313	-0.458448	0.147013
H132	H	1.499313	0.041552	0.647013
H133	H	0.577859	-0.012271	0.060468
H134	H	1.077859	0.487729	0.560468
O135	O	0.847873	-0.446091	-0.080616
O136	O	1.347873	0.053909	0.419384
H137	H	0.825756	-0.388822	-0.119371
H138	H	1.325756	0.111178	0.380629
O139	O	0.833841	0.167851	0.584060
O140	O	1.333841	0.667851	1.084060
H141	H	0.792156	0.160551	0.526370
H142	H	1.292156	0.660551	1.026370
H143	H	1.094888	0.194960	0.422906
H144	H	1.594888	0.694960	0.922906
O145	O	0.426798	-0.026702	-0.079191
O146	O	0.926798	0.473298	0.420809
H147	H	0.460641	-0.091233	-0.078305
H148	H	0.960641	0.408767	0.421695
H149	H	0.577301	-0.012525	-0.060444
H150	H	1.077301	0.487475	0.439556
H151	H	0.907148	0.010979	0.577606
H152	H	1.407148	0.510979	1.077606
O153	O	0.934755	0.269279	0.584869
O154	O	1.434755	0.769279	1.084869
H155	H	0.880216	0.295503	0.625660
H156	H	1.380216	0.795503	1.125660
O157	O	1.033740	-0.042324	0.415968
O158	O	1.533740	0.457676	0.915968
H159	H	1.064719	-0.076347	0.473480
H160	H	1.564719	0.423653	0.973480
H161	H	1.100135	-0.472838	0.090135
H162	H	1.600135	0.027162	0.590135
O163	O	0.410902	0.115276	-0.167711
O164	O	0.910902	0.615276	0.332289
H165	H	0.380213	0.058789	-0.149650
H166	H	0.880213	0.558789	0.350350
H167	H	1.090445	0.198846	0.576096
H168	H	1.590445	0.698846	1.076096
H169	H	0.434218	-0.015024	0.060832
H170	H	0.934218	0.484976	0.560832
O171	O	1.147213	0.072486	0.585718
O172	O	1.647213	0.572486	1.085718
H173	H	1.121373	0.026297	0.630032
H174	H	1.621373	0.526297	1.130032
O175	O	0.569369	0.119653	-0.167291
O176	O	1.069369	0.619653	0.332709
H177	H	0.617291	0.066854	-0.148771
H178	H	1.117291	0.566854	0.351229
O179	O	1.144637	0.066110	0.416586
O180	O	1.644637	0.566110	0.916586
H181	H	1.116053	0.020556	0.373772
H182	H	1.616053	0.520556	0.873772
H183	H	0.414255	0.130894	0.147397
H184	H	0.914255	0.630894	0.647397
H185	H	1.103436	-0.328735	-0.087691
H186	H	1.603436	0.171265	0.412309
O187	O	0.847628	-0.446857	0.079536
O188	O	1.347628	0.053143	0.579536
H189	H	0.825261	-0.389943	0.118734
H190	H	1.325261	0.110057	0.618734
O191	O	0.567918	0.117142	0.167211
O192	O	1.067918	0.617142	0.667211
H193	H	0.554818	0.050469	0.166539
H194	H	1.054818	0.550469	0.666539
O195	O	1.123579	-0.482279	-0.087889
O196	O	1.623579	0.017721	0.412111
H197	H	1.122965	-0.551542	-0.090853
H198	H	1.622965	-0.051542	0.409147
O199	O	0.991888	-0.466701	-0.167281
O200	O	1.491888	0.033299	0.332719
H201	H	0.937587	-0.500630	-0.148967
H202	H	1.437587	-0.000630	0.351033
H203	H	1.105026	-0.329374	0.084526
H204	H	1.605026	0.170626	0.584526
H205	H	0.547105	0.228500	0.089711
H206	H	1.047105	0.728500	0.589711
H207	H	0.403034	0.228318	0.084084
H208	H	0.903034	0.728318	0.584084
