data_functionalizedCrystal
_audit_creation_method	'MofGen! by Chris Wilmer'
_symmetry_space_group_name_H-M	'P1'
_symmetry_Int_Tables_number	1
_symmetry_cell_setting	triclinic
loop_
_symmetry_equiv_pos_as_xyz
  x,y,z
_cell_length_a	11.792254
_cell_length_b	10.868271
_cell_length_c	11.792253
_cell_angle_alpha	89.993028
_cell_angle_beta	84.198598
_cell_angle_gamma	89.994440
loop_
_atom_site_label
_atom_site_type_symbol
_atom_site_fract_x
_atom_site_fract_y
_atom_site_fract_z
O1	O	-1.506908	0.102373	-0.155630
O2	O	-1.173574	0.435707	0.177703
O3	O	-0.840241	0.769040	0.511037
O4	O	-1.176569	0.102370	-0.171648
O5	O	-0.843236	0.435703	0.161686
O6	O	-0.509902	0.769037	0.495019
O7	O	-1.349747	0.102346	0.001530
O8	O	-1.016414	0.435680	0.334864
O9	O	-0.683081	0.769013	0.668197
O10	O	-1.333729	0.102397	-0.328808
O11	O	-1.000396	0.435730	0.004525
O12	O	-0.667063	0.769064	0.337859
O13	O	-1.349732	-0.102298	0.001525
O14	O	-1.016398	0.231035	0.334858
O15	O	-0.683065	0.564368	0.668192
O16	O	-1.176553	-0.102275	-0.171653
O17	O	-0.843220	0.231059	0.161680
O18	O	-0.509887	0.564392	0.495013
O19	O	-1.506892	-0.102271	-0.155635
O20	O	-1.173559	0.231062	0.177698
O21	O	-0.840225	0.564395	0.511031
Zn22	Zn	-1.341720	-0.134765	-0.163645
Zn23	Zn	-1.008387	0.198569	0.169688
Zn24	Zn	-0.675053	0.531902	0.503021
Zn25	Zn	-1.341741	0.134863	-0.163638
Zn26	Zn	-1.008408	0.468197	0.169695
Zn27	Zn	-0.675074	0.801530	0.503029
O28	O	-1.333714	-0.102248	-0.328814
O29	O	-1.000380	0.231086	0.004520
O30	O	-0.667047	0.564419	0.337853
C31	C	-1.134271	0.000047	-0.170642
C32	C	-0.800937	0.333380	0.162692
C33	C	-0.467604	0.666714	0.496025
C34	C	-1.008257	0.000044	-0.167621
C35	C	-0.674924	0.333378	0.165712
C36	C	-0.341591	0.666711	0.499045
C37	C	-0.905921	0.000047	-0.165168
C38	C	-0.572587	0.333380	0.168166
C39	C	-0.239254	0.666713	0.501499
C40	C	-0.777534	0.000044	-0.162099
C41	C	-0.444201	0.333377	0.171234
C42	C	-0.110867	0.666711	0.504568
N43	N	-1.341714	-0.318779	-0.163650
N44	N	-1.008381	0.014555	0.169684
N45	N	-0.675048	0.347888	0.503017
C46	C	-1.341723	-0.430116	-0.163650
C47	C	-1.008390	-0.096783	0.169683
C48	C	-0.675056	0.236550	0.503017
C49	C	-1.341738	-0.569794	-0.163640
C50	C	-1.008405	-0.236461	0.169694
C51	C	-0.675071	0.096873	0.503027
C52	C	-0.549190	0.000049	-0.156642
C53	C	-0.215857	0.333382	0.176692
C54	C	0.117476	0.666715	0.510025
C55	C	-0.675204	0.000041	-0.159662
C56	C	-0.341870	0.333375	0.173671
C57	C	-0.008537	0.666708	0.507005
C58	C	-1.348730	0.000020	0.043818
C59	C	-1.015397	0.333353	0.377152
C60	C	-0.682064	0.666687	0.710485
C61	C	-1.345710	0.000008	0.169832
C62	C	-1.012377	0.333342	0.503165
C63	C	-0.679044	0.666675	0.836498
N64	N	-1.341756	0.318878	-0.163625
N65	N	-1.008422	0.652211	0.169709
N66	N	-0.675089	0.985544	0.503042
C67	C	-1.343256	0.000002	0.272168
C68	C	-1.009923	0.333335	0.605502
C69	C	-0.676590	0.666669	0.938835
C70	C	-1.340188	0.000000	0.400555
C71	C	-1.006855	0.333334	0.733888
C72	C	-0.673521	0.666667	1.067222
C73	C	-1.334731	0.000056	0.628898
C74	C	-1.001397	0.333389	0.962232
C75	C	-0.668064	0.666723	1.295565
C76	C	-1.337751	-0.000001	0.502885
C77	C	-1.004417	0.333333	0.836219
C78	C	-0.671084	0.666666	1.169552
