data_functionalizedCrystal
_audit_creation_method	'MofGen! by Chris Wilmer'
_symmetry_space_group_name_H-M	'P1'
_symmetry_Int_Tables_number	1
_symmetry_cell_setting	triclinic
loop_
_symmetry_equiv_pos_as_xyz
  x,y,z
_cell_length_a	19.805407
_cell_length_b	16.959454
_cell_length_c	19.805399
_cell_angle_alpha	89.977613
_cell_angle_beta	89.980427
_cell_angle_gamma	90.020075
loop_
_atom_site_label
_atom_site_type_symbol
_atom_site_fract_x
_atom_site_fract_y
_atom_site_fract_z
Zn1	Zn	1.034765	-0.314700	-0.382744
Zn2	Zn	1.534765	0.185300	0.117256
Zn3	Zn	1.034693	-0.446882	-0.269566
Zn4	Zn	1.534693	0.053118	0.230434
Zn5	Zn	0.921580	-0.314722	-0.269569
Zn6	Zn	1.421580	0.185278	0.230431
Zn7	Zn	0.921556	-0.446840	-0.382713
Zn8	Zn	1.421556	0.053160	0.117287
O9	O	0.978149	-0.380786	-0.326148
O10	O	1.478149	0.119214	0.173852
O11	O	1.129472	-0.332243	-0.367743
O12	O	1.629472	0.167757	0.132257
O13	O	1.019668	-0.429378	-0.174850
O14	O	1.519668	0.070622	0.325150
O15	O	0.936635	-0.204108	-0.284596
O16	O	1.436635	0.295892	0.215404
O17	O	1.129419	-0.429356	-0.284591
O18	O	1.629419	0.070644	0.215409
O19	O	1.019792	-0.204092	-0.367745
O20	O	1.519792	0.295908	0.132255
O21	O	0.936564	-0.332280	-0.174852
O22	O	1.436564	0.167720	0.325148
O23	O	0.826860	-0.332239	-0.284565
O24	O	1.326860	0.167761	0.215435
O25	O	0.936594	-0.429285	-0.477434
O26	O	1.436594	0.070715	0.022566
O27	O	0.826843	-0.429306	-0.367692
O28	O	1.326843	0.070694	0.132308
O29	O	1.019768	-0.332202	-0.477457
O30	O	1.519768	0.167798	0.022543
O31	O	1.019645	-0.557488	-0.284561
O32	O	1.519645	-0.057488	0.215439
O33	O	0.936524	-0.557457	-0.367690
O34	O	1.436524	-0.057457	0.132310
C35	C	0.802293	-0.380771	-0.326126
C36	C	1.302293	0.119229	0.173874
C37	C	0.727061	-0.380783	-0.326133
C38	C	1.227061	0.119217	0.173867
C39	C	0.691725	-0.431402	-0.369347
C40	C	1.191725	0.068598	0.130653
C41	C	0.621037	-0.431404	-0.369356
C42	C	1.121037	0.068596	0.130644
C43	C	0.585685	-0.380790	-0.326148
C44	C	1.085685	0.119210	0.173852
C45	C	0.621026	-0.330165	-0.282932
C46	C	1.121026	0.169835	0.217068
C47	C	0.691713	-0.330160	-0.282926
C48	C	1.191713	0.169840	0.217074
C49	C	0.335952	-0.330183	-0.282954
C50	C	0.835952	0.169817	0.217046
C51	C	0.265260	-0.330193	-0.282962
C52	C	0.765260	0.169807	0.217038
C53	C	0.265276	-0.431426	-0.369384
C54	C	0.765276	0.068574	0.130616
C55	C	0.335963	-0.431421	-0.369379
C56	C	0.835963	0.068579	0.130621
C57	C	0.371298	-0.380794	-0.326166
C58	C	0.871298	0.119206	0.173834
C59	C	0.447946	-0.380792	-0.326157
C60	C	0.947946	0.119208	0.173843
C61	C	0.509038	-0.380795	-0.326153
C62	C	1.009038	0.119205	0.173847
C63	C	0.978092	-0.586152	-0.326136
C64	C	1.478092	-0.086152	0.173864
C65	C	0.978130	-0.674009	-0.326154
C66	C	1.478130	-0.174009	0.173846
C67	C	0.934930	-1.045498	-0.369428
C68	C	1.434930	-0.545498	0.130572
C69	C	1.021555	-1.045470	-0.282937
C70	C	1.521555	-0.545470	0.217063
C71	C	1.021532	-0.962925	-0.282930
C72	C	1.521532	-0.462925	0.217070
C73	C	0.978206	-0.921662	-0.326173
C74	C	1.478206	-0.421662	0.173827
C75	C	0.934904	-0.962945	-0.369422
C76	C	1.434904	-0.462945	0.130578
C77	C	1.064828	-0.921635	-0.239677
C78	C	1.564828	-0.421635	0.260323
C79	C	1.064806	-0.839085	-0.239669
C80	C	1.564806	-0.339085	0.260331
C81	C	1.021483	-0.797820	-0.282915
C82	C	1.521483	-0.297820	0.217085
C83	C	0.978180	-0.839108	-0.326167
C84	C	1.478180	-0.339108	0.173833
C85	C	0.934854	-0.797845	-0.369409
C86	C	1.434854	-0.297845	0.130591
C87	C	0.891553	-0.839132	-0.412665
C88	C	1.391553	-0.339132	0.087335
C89	C	0.891581	-0.921680	-0.412669
C90	C	1.391581	-0.421680	0.087331
C91	C	1.021455	-0.715272	-0.282911
C92	C	1.521455	-0.215272	0.217089
C93	C	0.934827	-0.715292	-0.369403
C94	C	1.434827	-0.215292	0.130597
C95	C	1.154691	-0.380802	-0.326170
C96	C	1.654691	0.119198	0.173830
C97	C	1.229923	-0.380808	-0.326180
C98	C	1.729923	0.119192	0.173820
C99	C	0.978187	-0.380736	-0.502691
C100	C	1.478187	0.119264	-0.002691
C101	C	0.978203	-0.380715	-0.577923
C102	C	1.478203	0.119285	-0.077923
C103	C	0.978224	-0.174618	-0.326174
C104	C	1.478224	0.325382	0.173826
C105	C	0.978256	-0.086761	-0.326186
C106	C	1.478256	0.413239	0.173814
C107	C	1.021513	-0.330161	-0.613280
C108	C	1.521513	0.169839	-0.113280
C109	C	1.021520	-0.330138	-0.683968
C110	C	1.521520	0.169862	-0.183968
C111	C	0.978220	-0.380674	-0.719298
C112	C	1.478220	0.119326	-0.219298
C113	C	0.934905	-0.431230	-0.683936
C114	C	1.434905	0.068770	-0.183936
C115	C	0.934895	-0.431248	-0.613249
C116	C	1.434895	0.068752	-0.113249
C117	C	0.934943	-0.431156	-0.969010
C118	C	1.434943	0.068844	-0.469010
C119	C	0.934958	-0.431135	-1.039702
C120	C	1.434958	0.068865	-0.539702
C121	C	1.021568	-0.330046	-1.039729
C122	C	1.521568	0.169954	-0.539729
C123	C	1.021558	-0.330065	-0.969042
C124	C	1.521558	0.169935	-0.469042
C125	C	0.978241	-0.380617	-0.933686
C126	C	1.478241	0.119383	-0.433686
C127	C	0.978233	-0.380641	-0.857037
C128	C	1.478233	0.119359	-0.357037
C129	C	0.978230	-0.380655	-0.795946
C130	C	1.478230	0.119345	-0.295946
C131	C	0.978150	-0.380779	-0.150292
C132	C	1.478150	0.119221	0.349708
C133	C	0.978265	-0.380577	-0.075060
C134	C	1.478265	0.119423	0.424940
H135	H	0.720503	-0.472621	-0.404530
H136	H	1.220503	0.027379	0.095470
N137	N	0.374093	-0.486016	-0.415977
N138	N	0.874093	0.013984	0.084023
H139	H	0.340981	-0.518084	-0.443356
H140	H	0.840981	-0.018084	0.056644
H141	H	0.403443	-0.453887	-0.447344
H142	H	0.903443	0.046113	0.052656
H143	H	1.056825	-1.079072	-0.247726
H144	H	1.556825	-0.579072	0.252274
N145	N	0.582927	-0.486011	-0.415959
N146	N	1.082927	0.013989	0.084041
H147	H	0.553621	-0.453948	-0.447381
H148	H	1.053621	0.046052	0.052619
H149	H	0.616094	-0.518065	-0.443277
H150	H	1.116094	-0.018065	0.056723
H151	H	1.056775	-0.289012	-0.584519
H152	H	1.556775	0.210988	-0.084519
N153	N	0.227130	-0.275600	-0.236355
N154	N	0.727130	0.224400	0.263645
H155	H	0.239443	-0.219138	-0.246951
H156	H	0.739443	0.280862	0.253049
H157	H	0.177001	-0.283360	-0.242938
H158	H	0.677001	0.216640	0.257062
N159	N	0.227161	-0.486029	-0.415994
N160	N	0.727161	0.013971	0.084006
H161	H	0.197856	-0.453961	-0.447414
H162	H	0.697856	0.046039	0.052586
H163	H	0.260325	-0.518084	-0.443317
H164	H	0.760325	-0.018084	0.056683
H165	H	0.899682	-0.472330	-0.940231
H166	H	1.399682	0.027670	-0.440231
H167	H	0.364713	-0.288965	-0.247763
H168	H	0.864713	0.211035	0.252237
N169	N	1.111559	-0.966128	-0.193037
N170	N	1.611559	-0.466128	0.306963
H171	H	1.101068	-0.951799	-0.144666
H172	H	1.601068	-0.451799	0.355334
H173	H	1.104991	-1.024674	-0.199660
H174	H	1.604991	-0.524674	0.300340
N175	N	0.888186	-0.485719	-0.722038
N176	N	1.388186	0.014281	-0.222038
H177	H	0.894761	-0.478034	-0.772184
H178	H	1.394761	0.021966	-0.272184
H179	H	0.898686	-0.542180	-0.709682
H180	H	1.398686	-0.042180	-0.209682
H181	H	0.856274	-0.805526	-0.447870
H182	H	1.356274	-0.305526	0.052130
N183	N	1.068281	-0.275505	-1.077859
N184	N	1.568281	0.224495	-0.577859
H185	H	1.116635	-0.287791	-1.065566
H186	H	1.616635	0.212209	-0.565566
H187	H	1.061661	-0.283177	-1.127988
H188	H	1.561661	0.216823	-0.627988
N189	N	1.111512	-0.794557	-0.193025
N190	N	1.611512	-0.294557	0.306975
H191	H	1.138963	-0.833224	-0.165634
H192	H	1.638963	-0.333224	0.334366
H193	H	1.142806	-0.760272	-0.220611
H194	H	1.642806	-0.260272	0.279389
N195	N	1.068147	-0.670740	-0.236260
N196	N	1.568147	-0.170740	0.263740
H197	H	1.095594	-0.709406	-0.208864
H198	H	1.595594	-0.209406	0.291136
H199	H	1.099446	-0.636450	-0.263836
H200	H	1.599446	-0.136450	0.236164
H201	H	0.856327	-0.955303	-0.447884
H202	H	1.356327	-0.455303	0.052116
H203	H	1.056788	-0.288974	-0.712753
H204	H	1.556788	0.211026	-0.212753
N205	N	1.068263	-0.275564	-0.930936
N206	N	1.568263	0.224436	-0.430936
H207	H	1.095701	-0.243533	-0.964061
H208	H	1.595701	0.256467	-0.464061
H209	H	1.040720	-0.238990	-0.901607
H210	H	1.540720	0.261010	-0.401607
H211	H	0.899678	-1.079117	-0.404647
H212	H	1.399678	-0.579117	0.095353
N213	N	0.888254	-0.485644	-1.077810
N214	N	1.388254	0.014356	-0.577810
H215	H	0.860809	-0.517670	-1.044687
H216	H	1.360809	-0.017670	-0.544687
H217	H	0.856952	-0.453454	-1.107140
H218	H	1.356952	0.046546	-0.607140
N219	N	0.888175	-0.485771	-0.575117
N220	N	1.388175	0.014229	-0.075117
H221	H	0.898665	-0.542247	-0.587411
H222	H	1.398665	-0.042247	-0.087411
H223	H	0.894755	-0.478048	-0.524988
H224	H	1.394755	0.021952	-0.024988
N225	N	0.582900	-0.275588	-0.236315
N226	N	1.082900	0.224412	0.263685
H227	H	0.532758	-0.283279	-0.242868
H228	H	1.032758	0.216721	0.257132
H229	H	0.595244	-0.287834	-0.187963
H230	H	1.095244	0.212166	0.312037
H231	H	0.720482	-0.288937	-0.247741
H232	H	1.220482	0.211063	0.252259
H233	H	0.899549	-0.681701	-0.404619
H234	H	1.399549	-0.181701	0.095381
