data_functionalizedCrystal
_audit_creation_method	'MofGen! by Chris Wilmer'
_symmetry_space_group_name_H-M	'P1'
_symmetry_Int_Tables_number	1
_symmetry_cell_setting	triclinic
loop_
_symmetry_equiv_pos_as_xyz
  x,y,z
_cell_length_a	29.839134
_cell_length_b	18.050589
_cell_length_c	18.050582
_cell_angle_alpha	89.981795
_cell_angle_beta	90.024639
_cell_angle_gamma	89.976917
loop_
_atom_site_label
_atom_site_type_symbol
_atom_site_fract_x
_atom_site_fract_y
_atom_site_fract_z
Zn1	Zn	0.686773	0.295808	0.420128
Zn2	Zn	1.186773	0.795808	0.920128
Zn3	Zn	0.686719	0.419992	0.295947
Zn4	Zn	1.186719	0.919992	0.795947
Zn5	Zn	0.611652	0.295809	0.295931
Zn6	Zn	1.111652	0.795809	0.795931
Zn7	Zn	0.611620	0.419950	0.420074
Zn8	Zn	1.111620	0.919950	0.920074
O9	O	0.649191	0.357890	0.358020
O10	O	1.149191	0.857890	0.858020
O11	O	0.749633	0.312299	0.403684
O12	O	1.249633	0.812299	0.903684
O13	O	0.676751	0.403536	0.192020
O14	O	1.176751	0.903536	0.692020
O15	O	0.621653	0.191884	0.312421
O16	O	1.121653	0.691884	0.812421
O17	O	0.749593	0.403536	0.312449
O18	O	1.249593	0.903536	0.812449
O19	O	0.676843	0.191884	0.403668
O20	O	1.176843	0.691884	0.903668
O21	O	0.621600	0.312300	0.192008
O22	O	1.121600	0.812300	0.692008
O23	O	0.548781	0.312259	0.312369
O24	O	1.048781	0.812259	0.812369
O25	O	0.621599	0.403465	0.524006
O26	O	1.121599	0.903465	1.024006
O27	O	0.548758	0.403465	0.403577
O28	O	1.048758	0.903465	0.903577
O29	O	0.676813	0.312258	0.524045
O30	O	1.176813	0.812258	1.024045
O31	O	0.676721	0.523911	0.312397
O32	O	1.176721	1.023911	0.812397
O33	O	0.621547	0.523880	0.403593
O34	O	1.121547	1.023880	0.903593
C35	C	0.649137	0.550842	0.358008
C36	C	1.149137	1.050842	0.858008
C37	C	0.649155	0.633388	0.358027
C38	C	1.149155	1.133388	0.858027
C39	C	0.532468	0.357858	0.357966
C40	C	1.032468	0.857858	0.857966
C41	C	0.482534	0.357863	0.357961
C42	C	0.982534	0.857863	0.857961
C43	C	0.649209	0.357857	0.551726
C44	C	1.149209	0.857857	1.051726
C45	C	0.649216	0.357843	0.634271
C46	C	1.149216	0.857843	1.134271
C47	C	0.172888	0.405451	0.405454
C48	C	0.672888	0.905451	0.905454
C49	C	-0.014785	0.405472	0.405487
C50	C	0.485215	0.905472	0.905487
O51	O	-0.039052	0.445898	0.445835
O52	O	0.460948	0.945898	0.945835
N53	N	-0.038251	0.357917	0.358076
N54	N	0.461749	0.857917	0.858076
C55	C	-0.014796	0.310350	0.310657
C56	C	0.485204	0.810350	0.810657
O57	O	-0.039062	0.269897	0.270337
O58	O	0.460938	0.769897	0.770337
C59	C	0.172876	0.310326	0.310628
C60	C	0.672876	0.810326	0.810628
C61	C	0.196340	0.357889	0.358037
C62	C	0.696340	0.857889	0.858037
C63	C	0.196352	0.453010	0.452859
C64	C	0.696352	0.953010	0.952859
C65	C	0.243267	0.453007	0.452848
C66	C	0.743267	0.953007	0.952848
C67	C	0.266719	0.405445	0.405431
C68	C	0.766719	0.905445	0.905431
C69	C	0.243255	0.357886	0.358025
C70	C	0.743255	0.857886	0.858025
C71	C	0.196330	0.262756	0.263213
C72	C	0.696330	0.762756	0.763213
C73	C	0.243251	0.262753	0.263212
C74	C	0.743251	0.762753	0.763212
C75	C	0.266715	0.310316	0.310620
C76	C	0.766715	0.810316	0.810620
C77	C	0.313622	0.310322	0.310597
C78	C	0.813622	0.810322	0.810597
N79	N	0.337088	0.357877	0.358007
N80	N	0.837088	0.857877	0.858007
C81	C	0.313637	0.405438	0.405424
C82	C	0.813637	0.905438	0.905424
C83	C	-0.113327	0.310367	0.310674
C84	C	0.386673	0.810367	0.810674
C85	C	-0.160245	0.310374	0.310680
C86	C	0.339755	0.810374	0.810680
C87	C	-0.160230	0.405495	0.405511
C88	C	0.339770	0.905495	0.905511
C89	C	-0.113312	0.405491	0.405501
C90	C	0.386688	0.905491	0.905501
C91	C	-0.089861	0.357922	0.358085
C92	C	0.410139	0.857922	0.858085
C93	C	0.412163	0.405429	0.405396
C94	C	0.912163	0.905429	0.905396
C95	C	0.459082	0.405424	0.405378
C96	C	0.959082	0.905424	0.905378
C97	C	0.459064	0.310301	0.310550
C98	C	0.959064	0.810301	0.810550
C99	C	0.412148	0.310308	0.310565
C100	C	0.912148	0.810308	0.810565
C101	C	0.388699	0.357875	0.357994
C102	C	0.888699	0.857875	0.857994
O103	O	0.337918	0.269911	0.270275
O104	O	0.837918	0.769911	0.770275
O105	O	0.337910	0.445874	0.445750
O106	O	0.837910	0.945874	0.945750
C107	C	0.125973	0.405454	0.405465
C108	C	0.625973	0.905454	0.905465
C109	C	0.102509	0.357895	0.358060
C110	C	0.602509	0.857895	0.858060
C111	C	0.125961	0.310333	0.310643
C112	C	0.625961	0.810333	0.810643
C113	C	0.055591	0.357902	0.358066
C114	C	0.555591	0.857902	0.858066
C115	C	0.032139	0.405463	0.405483
C116	C	0.532139	0.905463	0.905483
C117	C	0.055605	0.453018	0.452894
C118	C	0.555605	0.953018	0.952894
C119	C	0.102521	0.453015	0.452882
C120	C	0.602521	0.953015	0.952882
C121	C	0.102495	0.262778	0.263232
C122	C	0.602495	0.762778	0.763232
C123	C	0.055579	0.262786	0.263247
C124	C	0.555579	0.762786	0.763247
C125	C	0.032127	0.310347	0.310664
C126	C	0.532127	0.810347	0.810664
C127	C	0.766369	0.357922	0.358074
C128	C	1.266369	0.857922	0.858074
C129	C	0.816304	0.357936	0.358097
C130	C	1.316304	0.857936	0.858097
C131	C	0.649258	0.164184	0.358049
C132	C	1.149258	0.664184	0.858049
C133	C	0.649286	0.081638	0.358061
C134	C	1.149286	0.581638	0.858061
C135	C	0.619180	0.832849	0.407602
C136	C	1.119180	1.332849	0.907602
C137	C	0.608232	0.882281	0.339832
C138	C	1.108232	1.382281	0.839832
C139	C	0.649199	0.784518	0.358037
C140	C	1.149199	1.284518	0.858037
C141	C	0.660169	0.882167	0.425815
C142	C	1.160169	1.382167	0.925815
C143	C	0.649241	0.930503	0.358052
C144	C	1.149241	1.430503	0.858052
C145	C	0.638229	0.832863	0.290231
C146	C	1.138229	1.332863	0.790231
C147	C	0.690185	0.832745	0.376260
C148	C	1.190185	1.332745	0.876260
C149	C	0.679252	0.882155	0.308442
C150	C	1.179252	1.382155	0.808442
C151	C	0.649173	0.700420	0.358029
C152	C	1.149173	1.200420	0.858029
C153	C	0.649266	1.014600	0.358052
C154	C	1.149266	1.514600	0.858052
C155	C	0.649199	0.357869	0.165068
C156	C	1.149199	0.857869	0.665068
C157	C	0.649279	0.357674	0.082522
C158	C	1.149279	0.857674	0.582522
C159	C	0.619214	0.407373	0.833701
C160	C	1.119214	0.907373	1.333701
C161	C	0.660201	0.425533	0.883105
C162	C	1.160201	0.925533	1.383105
C163	C	0.649238	0.357786	0.785402
C164	C	1.149238	0.857786	1.285402
C165	C	0.608274	0.339606	0.883079
C166	C	1.108274	0.839606	1.383079
C167	C	0.649256	0.357733	0.931387
C168	C	1.149256	0.857733	1.431387
C169	C	0.690247	0.375981	0.833719
C170	C	1.190247	0.875981	1.333719
C171	C	0.638292	0.290023	0.833689
C172	C	1.138292	0.790023	1.333689
C173	C	0.679307	0.308157	0.883071
C174	C	1.179307	0.808157	1.383071
C175	C	0.649227	0.357819	0.701304
C176	C	1.149227	0.857819	1.201304
C177	C	0.649271	0.357700	1.015484
C178	C	1.149271	0.857700	1.515484
H179	H	0.478184	0.444159	0.443984
H180	H	0.978184	0.944159	0.943984
C181	C	0.713183	0.910894	0.252620
C182	C	1.213183	1.410894	0.752620
C183	C	0.745496	0.953488	0.289332
C184	C	1.245496	1.453488	0.789332
C185	C	0.776760	0.979969	0.237933
C186	C	1.276760	1.479969	0.737933
H187	H	0.698339	0.940610	0.216756
H188	H	1.198339	1.440610	0.716756
H189	H	0.727320	0.870243	0.228720
H190	H	1.227320	1.370243	0.728720
H191	H	0.731360	0.994133	0.313220
H192	H	1.231360	1.494133	0.813220
H193	H	0.760351	0.923788	0.325192
H194	H	1.260351	1.423788	0.825192
H195	H	0.790898	0.939318	0.214033
H196	H	1.290898	1.439318	0.714033
H197	H	0.761913	1.009682	0.202072
H198	H	1.261913	1.509682	0.702072
H199	H	0.798691	1.008866	0.262836
H200	H	1.298691	1.508866	0.762836
C201	C	0.585213	0.804013	0.463316
C202	C	1.085213	1.304013	0.963316
C203	C	0.542383	0.829102	0.443893
C204	C	1.042383	1.329102	0.943893
C205	C	0.511081	0.802545	0.495189
C206	C	1.011081	1.302545	0.995189
H207	H	0.592645	0.821603	0.511365
H208	H	1.092645	1.321603	1.011365
H209	H	0.585595	0.751384	0.463227
H210	H	1.085595	1.251384	0.963227
H211	H	0.542003	0.881720	0.443990
H212	H	1.042003	1.381720	0.943990
H213	H	0.534937	0.811514	0.395853
H214	H	1.034937	1.311514	0.895853
H215	H	0.511463	0.749915	0.495100
H216	H	1.011463	1.249915	0.995100
H217	H	0.518517	0.820136	0.543235
H218	H	1.018517	1.320136	1.043235
H219	H	0.482017	0.819558	0.482014
H220	H	0.982017	1.319558	0.982014
H221	H	0.724908	0.391401	0.812127
H222	H	1.224908	0.891401	1.312127
H223	H	0.724818	0.810972	0.391691
H224	H	1.224818	1.310972	0.891691
C225	C	0.713281	0.252310	0.911760
C226	C	1.213281	0.752310	1.411760
C227	C	0.756091	0.271660	0.886629
C228	C	1.256091	0.771660	1.386629
C229	C	0.787401	0.220240	0.913052
C230	C	1.287401	0.720240	1.413052
H231	H	0.705807	0.204308	0.894108
H232	H	1.205807	0.704308	1.394108
H233	H	0.712958	0.252317	0.964390
H234	H	1.212958	0.752317	1.464390
H235	H	0.756413	0.271645	0.834010
H236	H	1.256413	0.771645	1.334010
H237	H	0.763579	0.319653	0.904279
H238	H	1.263579	0.819653	1.404279
H239	H	0.787078	0.220247	0.965682
H240	H	1.287078	0.720247	1.465682
H241	H	0.779923	0.172241	0.895398
H242	H	1.279923	0.672241	1.395398
H243	H	0.816452	0.233366	0.896010
H244	H	1.316452	0.733366	1.396010
C245	C	0.672460	0.910944	0.502299
C246	C	1.172460	1.410944	1.002299
C247	C	0.640905	0.885944	0.553952
C248	C	1.140905	1.385944	1.053952
C249	C	0.652212	0.912427	0.624419
C250	C	1.152212	1.412427	1.124419
H251	H	0.672647	0.963564	0.501748
H252	H	1.172647	1.463564	1.001748
H253	H	0.701348	0.893232	0.515618
H254	H	1.201348	1.393232	1.015618
H255	H	0.612024	0.903660	0.540637
H256	H	1.112024	1.403660	1.040637
H257	H	0.640713	0.833328	0.554527
H258	H	1.140713	1.333328	1.054527
H259	H	0.681100	0.894715	0.637738
H260	H	1.181100	1.394715	1.137738
H261	H	0.652399	0.965046	0.623860
H262	H	1.152399	1.465046	1.123860
H263	H	0.630806	0.895463	0.659476
H264	H	1.130806	1.395463	1.159476
H265	H	0.573591	0.904056	0.324433
H266	H	1.073591	1.404056	0.824433
H267	H	0.121621	0.491746	0.491488
H268	H	0.621621	0.991746	0.991488
C269	C	0.625810	0.803967	0.213849
C270	C	1.125810	1.303967	0.713849
C271	C	0.625903	0.726405	0.214745
C272	C	1.125903	1.226405	0.714745
C273	C	0.614457	0.699760	0.144402
C274	C	1.114457	1.199760	0.644402
H275	H	0.646996	0.821165	0.178554
H276	H	1.146996	1.321165	0.678554
H277	H	0.596789	0.821300	0.200824
H278	H	1.096789	1.321300	0.700824
H279	H	0.654920	0.709080	0.227761
H280	H	1.154920	1.209080	0.727761
H281	H	0.604716	0.709188	0.250025
H282	H	1.104716	1.209188	0.750025
H283	H	0.585436	0.717092	0.131376
H284	H	1.085436	1.217092	0.631376
H285	H	0.635644	0.716962	0.109112
H286	H	1.135644	1.216962	0.609112
H287	H	0.614514	0.647132	0.145002
H288	H	1.114514	1.147132	0.645002
C289	C	-0.087815	0.457218	0.456855
C290	C	0.412185	0.957218	0.956855
C291	C	-0.060909	0.504772	0.414727
C292	C	0.439091	1.004772	0.914727
C293	C	-0.037423	0.552439	0.462012
C294	C	0.462577	1.052439	0.962012
H295	H	-0.069462	0.428938	0.489277
H296	H	0.430538	0.928938	0.989277
H297	H	-0.108492	0.485587	0.485079
H298	H	0.391508	0.985587	0.985079
H299	H	-0.040235	0.476406	0.386515
H300	H	0.459765	0.976406	0.886515
H301	H	-0.079251	0.533067	0.382307
H302	H	0.420749	1.033067	0.882307
H303	H	-0.058100	0.580808	0.490236
H304	H	0.441900	1.080808	0.990236
H305	H	-0.019072	0.524153	0.494431
H306	H	0.480928	1.024153	0.994431
H307	H	-0.019167	0.584714	0.433434
H308	H	0.480833	1.084714	0.933434
H309	H	0.593847	0.449362	0.812025
H310	H	1.093847	0.949362	1.312025
C311	C	0.672474	0.501963	0.912014
C312	C	1.172474	1.001963	1.412014
C313	C	0.640920	0.553685	0.887020
C314	C	1.140920	1.053685	1.387020
C315	C	0.652205	0.624099	0.913641
C316	C	1.152205	1.124099	1.413641
H317	H	0.701360	0.515302	0.894404
H318	H	1.201360	1.015302	1.394404
H319	H	0.672640	0.501307	0.964642
H320	H	1.172640	1.001307	1.464642
H321	H	0.640759	0.554343	0.834402
H322	H	1.140759	1.054343	1.334402
H323	H	0.612031	0.540371	0.904628
H324	H	1.112031	1.040371	1.404628
H325	H	0.652371	0.623443	0.966269
H326	H	1.152371	1.123443	1.466269
H327	H	0.681092	0.637430	0.896029
H328	H	1.181092	1.137430	1.396029
H329	H	0.630795	0.659200	0.896692
H330	H	1.130795	1.159200	1.396692
H331	H	0.629011	0.232756	0.811966
H332	H	1.129011	0.732756	1.311966
C333	C	0.562032	0.319229	0.911890
C334	C	1.062032	0.819229	1.411890
C335	C	0.530729	0.371348	0.886859
C336	C	1.030729	0.871348	1.386859
C337	C	0.488125	0.352603	0.913375
C338	C	0.988125	0.852603	1.413375
H339	H	0.562377	0.318927	0.964510
H340	H	1.062377	0.818927	1.464510
H341	H	0.554018	0.271461	0.894223
H342	H	1.054018	0.771461	1.394223
H343	H	0.538740	0.419103	0.904531
H344	H	1.038740	0.919103	1.404531
H345	H	0.530369	0.371658	0.834242
H346	H	1.030369	0.871658	1.334242
H347	H	0.480112	0.304835	0.895707
H348	H	0.980112	0.804835	1.395707
H349	H	0.488475	0.352300	0.965994
H350	H	0.988475	0.852300	1.465994
H351	H	0.466880	0.387958	0.896390
H352	H	0.966880	0.887958	1.396390
H353	H	0.393076	0.444161	0.444019
H354	H	0.893076	0.944161	0.944019
H355	H	0.262367	0.491736	0.491454
H356	H	0.762367	0.991736	0.991454
H357	H	0.036479	0.224055	0.224634
H358	H	0.536479	0.724055	0.724634
H359	H	0.177262	0.491740	0.491476
H360	H	0.677262	0.991740	0.991476
H361	H	-0.179345	0.271651	0.272068
H362	H	0.320655	0.771651	0.772068
C363	C	-0.185721	0.457006	0.457090
C364	C	0.314279	0.957006	0.957090
C365	C	-0.212623	0.415011	0.504768
C366	C	0.287377	0.915011	1.004768
C367	C	-0.236109	0.462430	0.552301
C368	C	0.263891	0.962430	1.052301
H369	H	-0.204077	0.489343	0.428719
H370	H	0.295923	0.989343	0.928719
H371	H	-0.165044	0.485316	0.485376
H372	H	0.334956	0.985316	0.985376
H373	H	-0.233298	0.386714	0.476486
H374	H	0.266702	0.886714	0.976486
H375	H	-0.194279	0.382676	0.533156
H376	H	0.305721	0.882676	1.033156
H377	H	-0.215433	0.490739	0.580586
H378	H	0.284567	0.990739	1.080586
H379	H	-0.254463	0.494765	0.523923
H380	H	0.245537	0.994765	1.023923
H381	H	-0.254362	0.433943	0.584660
H382	H	0.245638	0.933943	1.084660
C383	C	-0.087950	0.258691	0.259105
C384	C	0.412050	0.758691	0.759105
C385	C	-0.118549	0.217067	0.217578
C386	C	0.381451	0.717067	0.717578
C387	C	-0.095191	0.169465	0.170056
C388	C	0.404809	0.669465	0.670056
H389	H	-0.069631	0.226299	0.287478
H390	H	0.430369	0.726299	0.787478
H391	H	-0.069673	0.287034	0.226653
H392	H	0.430327	0.787034	0.726653
H393	H	-0.136818	0.188726	0.250025
H394	H	0.363182	0.688726	0.750025
H395	H	-0.136869	0.249440	0.189189
H396	H	0.363131	0.749440	0.689189
H397	H	-0.076914	0.197808	0.137604
H398	H	0.423086	0.697808	0.637604
H399	H	-0.076873	0.137077	0.198435
H400	H	0.423127	0.637077	0.698435
H401	H	-0.115948	0.141222	0.141869
H402	H	0.384052	0.641222	0.641869
H403	H	0.177234	0.224027	0.224606
H404	H	0.677234	0.724027	0.724606
C405	C	0.484612	0.258690	0.259154
C406	C	0.984612	0.758690	0.759154
C407	C	0.530722	0.268857	0.269314
C408	C	1.030722	0.768857	0.769314
C409	C	0.554272	0.221314	0.221993
C410	C	1.054272	0.721314	0.721993
H411	H	0.476962	0.269436	0.209205
H412	H	0.976962	0.769436	0.709205
H413	H	0.476964	0.208792	0.270122
H414	H	0.976964	0.708792	0.770122
H415	H	0.538367	0.318744	0.258341
H416	H	1.038367	0.818744	0.758341
H417	H	0.538386	0.258106	0.319253
H418	H	1.038386	0.758106	0.819253
H419	H	0.546624	0.171416	0.232960
H420	H	1.046624	0.671416	0.732960
H421	H	0.546618	0.232064	0.172047
H422	H	1.046618	0.732064	0.672047
H423	H	0.585560	0.228201	0.228884
H424	H	1.085560	0.728201	0.728884
C425	C	0.268631	0.211081	0.211643
C426	C	0.768631	0.711081	0.711643
C427	C	0.238036	0.169448	0.170116
C428	C	0.738036	0.669448	0.670116
C429	C	0.261398	0.121852	0.122594
C430	C	0.761398	0.621852	0.622594
H431	H	0.286953	0.178693	0.240015
H432	H	0.786953	0.678693	0.740015
H433	H	0.286905	0.239428	0.179190
H434	H	0.786905	0.739428	0.679190
H435	H	0.219770	0.141103	0.202564
H436	H	0.719770	0.641103	0.702564
H437	H	0.219713	0.201817	0.141728
H438	H	0.719713	0.701817	0.641728
H439	H	0.279672	0.150199	0.090141
H440	H	0.779672	0.650199	0.590141
H441	H	0.279719	0.089469	0.150973
H442	H	0.779719	0.589469	0.650973
H443	H	0.240643	0.093604	0.094408
H444	H	0.740643	0.593604	0.594408
H445	H	0.393043	0.271580	0.271959
H446	H	0.893043	0.771580	0.771959
H447	H	0.036503	0.491747	0.491500
H448	H	0.536503	0.991747	0.991500
C449	C	0.127871	0.211110	0.211664
C450	C	0.627871	0.711110	0.711664
C451	C	0.097273	0.169482	0.170139
C452	C	0.597273	0.669482	0.670139
C453	C	0.120632	0.121885	0.122613
C454	C	0.620632	0.621885	0.622613
H455	H	0.146193	0.178720	0.240034
H456	H	0.646193	0.678720	0.740034
H457	H	0.146146	0.239456	0.179211
H458	H	0.646146	0.739456	0.679211
H459	H	0.079007	0.141139	0.202588
H460	H	0.579007	0.641139	0.702588
H461	H	0.078951	0.201853	0.141753
H462	H	0.578951	0.701853	0.641753
H463	H	0.138906	0.150231	0.090160
H464	H	0.638906	0.650231	0.590160
H465	H	0.138953	0.089499	0.150990
H466	H	0.638953	0.589499	0.650990
H467	H	0.099875	0.093639	0.094428
H468	H	0.599875	0.593639	0.594428
