data_functionalizedCrystal
_audit_creation_method	'MofGen! by Chris Wilmer'
_symmetry_space_group_name_H-M	'P1'
_symmetry_Int_Tables_number	1
_symmetry_cell_setting	triclinic
loop_
_symmetry_equiv_pos_as_xyz
  x,y,z
_cell_length_a	16.120490
_cell_length_b	19.121459
_cell_length_c	16.120297
_cell_angle_alpha	90.556879
_cell_angle_beta	90.129683
_cell_angle_gamma	84.558848
loop_
_atom_site_label
_atom_site_type_symbol
_atom_site_fract_x
_atom_site_fract_y
_atom_site_fract_z
Zn1	Zn	1.266321	-0.355959	-0.517478
Zn2	Zn	1.766321	0.144041	-0.017478
Zn3	Zn	1.279201	-0.467791	-0.373062
Zn4	Zn	1.779201	0.032209	0.126938
Zn5	Zn	1.133681	-0.344082	-0.371969
Zn6	Zn	1.633681	0.155918	0.128031
Zn7	Zn	1.133122	-0.467138	-0.505066
Zn8	Zn	1.633122	0.032862	-0.005066
O9	O	1.203081	-0.408743	-0.441894
O10	O	1.703081	0.091257	0.058106
O11	O	1.384674	-0.376038	-0.503973
O12	O	1.884674	0.123962	-0.003973
O13	O	1.265522	-0.446684	-0.256777
O14	O	1.765522	0.053316	0.243223
O15	O	1.146119	-0.247357	-0.396008
O16	O	1.646119	0.252643	0.103992
O17	O	1.394138	-0.458201	-0.397871
O18	O	1.894138	0.041799	0.102129
O19	O	1.243569	-0.256083	-0.502913
O20	O	1.743569	0.243917	-0.002913
O21	O	1.158609	-0.355796	-0.255973
O22	O	1.658609	0.144204	0.244027
O23	O	1.016962	-0.355162	-0.383972
O24	O	1.516962	0.144838	0.116028
O25	O	1.145167	-0.457087	-0.622853
O26	O	1.645167	0.042913	-0.122853
O27	O	1.016551	-0.445570	-0.481758
O28	O	1.516551	0.054430	0.018242
O29	O	1.243028	-0.375404	-0.631972
O30	O	1.743028	0.124596	-0.131972
O31	O	1.264980	-0.566006	-0.385836
O32	O	1.764980	-0.066006	0.114164
O33	O	1.157657	-0.565526	-0.482819
O34	O	1.657657	-0.065526	0.017181
C35	C	0.986512	-0.399007	-0.431400
C36	C	1.486512	0.100993	0.068600
C37	C	0.893862	-0.394860	-0.426930
C38	C	1.393862	0.105140	0.073070
C39	C	0.682777	-0.430250	-0.465084
C40	C	1.182777	0.069750	0.034916
C41	C	0.724237	-0.387294	-0.418767
C42	C	1.224237	0.112706	0.081233
C43	C	0.818625	-0.391505	-0.423310
C44	C	1.318625	0.108495	0.076690
C45	C	0.588380	-0.426040	-0.460542
C46	C	1.088380	0.073960	0.039458
C47	C	1.212677	-0.591256	-0.433118
C48	C	1.712677	-0.091256	0.066882
C49	C	1.216858	-0.669340	-0.429395
C50	C	1.716858	-0.169340	0.070605
C51	C	1.243323	-1.110982	-0.405789
C52	C	1.743323	-0.610982	0.094211
C53	C	1.239388	-1.037613	-0.409288
C54	C	1.739388	-0.537613	0.090712
C55	C	1.181507	-1.000703	-0.461489
C56	C	1.681507	-0.500703	0.038511
C57	C	1.127552	-1.037166	-0.510188
C58	C	1.627552	-0.537166	-0.010188
C59	C	1.131484	-1.110533	-0.506684
C60	C	1.631484	-0.610533	-0.006684
C61	C	1.166834	-0.779170	-0.474590
C62	C	1.666834	-0.279170	0.025410
C63	C	1.162908	-0.705798	-0.478092
C64	C	1.662908	-0.205798	0.021908
C65	C	1.274743	-0.706250	-0.377191
C66	C	1.774743	-0.206250	0.122809
C67	C	1.278673	-0.779619	-0.373695
C68	C	1.778673	-0.279619	0.126305
C69	C	1.224716	-0.816075	-0.422390
C70	C	1.724716	-0.316075	0.077610
C71	C	1.177485	-0.925709	-0.465069
C72	C	1.677485	-0.425709	0.034931
C73	C	1.228734	-0.891068	-0.418805
C74	C	1.728734	-0.391068	0.081195
C75	C	1.420496	-0.418517	-0.452429
C76	C	1.920496	0.081483	0.047571
C77	C	1.513146	-0.422682	-0.456918
C78	C	2.013146	0.077318	0.043082
C79	C	1.192598	-0.417497	-0.658369
C80	C	1.692598	0.082503	-0.158369
C81	C	1.188131	-0.421228	-0.750618
C82	C	1.688131	0.078772	-0.250618
C83	C	1.193470	-0.225519	-0.450723
C84	C	1.693470	0.274481	0.049277
C85	C	1.189374	-0.147439	-0.454486
C86	C	1.689374	0.352561	0.045514
C87	C	1.179944	-0.428023	-0.919517
C88	C	1.679944	0.071977	-0.419517
C89	C	1.226372	-0.389260	-0.965141
C90	C	1.726372	0.110740	-0.465141
C91	C	1.221817	-0.393040	-1.059122
C92	C	1.721817	0.106960	-0.559122
C93	C	1.184498	-0.424243	-0.825527
C94	C	1.684498	0.075757	-0.325527
C95	C	1.213569	-0.399974	-0.226266
C96	C	1.713569	0.100026	0.273734
C97	C	1.218187	-0.396052	-0.134035
C98	C	1.718187	0.103948	0.365965
H99	H	1.283316	-1.007930	-0.369635
H100	H	1.783316	-0.507930	0.130365
O101	O	1.277988	-0.346328	-0.927629
O102	O	1.777988	0.153672	-0.427629
C103	C	1.360871	-0.366259	-0.952016
C104	C	1.860871	0.133741	-0.452016
H105	H	1.361029	-0.395818	-1.013779
H106	H	1.861029	0.104182	-0.513779
H107	H	1.393150	-0.401720	-0.902876
H108	H	1.893150	0.098280	-0.402876
C109	C	1.407398	-0.263895	-0.885744
C110	C	1.907398	0.236105	-0.385744
C111	C	1.407592	-0.300195	-0.961607
C112	C	1.907592	0.199805	-0.461607
H113	H	1.436219	-0.223145	-0.891657
H114	H	1.936219	0.276855	-0.391657
H115	H	1.351558	-0.250468	-0.869311
H116	H	1.851558	0.249532	-0.369311
H117	H	1.434295	-0.293454	-0.844802
H118	H	1.934295	0.206546	-0.344802
H119	H	1.380685	-0.270640	-1.002544
H120	H	1.880685	0.229360	-0.502544
H121	H	1.463428	-0.313616	-0.978047
H122	H	1.963428	0.186384	-0.478047
H123	H	1.122892	-0.808843	-0.514235
H124	H	1.622892	-0.308843	-0.014235
O125	O	1.334921	-0.815360	-0.322911
O126	O	1.834921	-0.315360	0.177089
C127	C	1.381710	-0.767450	-0.280694
C128	C	1.881710	-0.267450	0.219306
H129	H	1.344910	-0.713527	-0.278636
H130	H	1.844910	-0.213527	0.221364
H131	H	1.443098	-0.763664	-0.314577
H132	H	1.943098	-0.263664	0.185423
C133	C	1.444800	-0.859299	-0.194119
C134	C	1.944800	-0.359299	0.305881
C135	C	1.399600	-0.793071	-0.191584
C136	C	1.899600	-0.293071	0.308416
H137	H	1.455840	-0.875104	-0.139152
H138	H	1.955840	-0.375104	0.360848
H139	H	1.413281	-0.891578	-0.222563
H140	H	1.913281	-0.391578	0.277437
H141	H	1.495952	-0.856135	-0.222358
H142	H	1.995952	-0.356135	0.277642
H143	H	1.348445	-0.796238	-0.163355
H144	H	1.848445	-0.296238	0.336645
H145	H	1.431111	-0.760793	-0.163133
H146	H	1.931111	-0.260793	0.336867
H147	H	1.130358	-0.895651	-0.507574
H148	H	1.630358	-0.395651	-0.007574
H149	H	1.318672	-0.676561	-0.337544
H150	H	1.818672	-0.176561	0.162456
O151	O	1.128520	-0.470988	-0.957248
O152	O	1.628520	0.029012	-0.457248
C153	C	1.135359	-0.465235	-1.044043
C154	C	1.635359	0.034765	-0.544043
H155	H	1.197920	-0.445577	-1.060006
H156	H	1.697920	0.054423	-0.560006
H157	H	1.082784	-0.426577	-1.068044
H158	H	1.582784	0.073423	-0.568044
C159	C	1.052504	-0.561870	-1.065264
C160	C	1.552504	-0.061870	-0.565264
C161	C	1.129345	-0.537731	-1.084871
C162	C	1.629345	-0.037731	-0.584871
H163	H	1.048790	-0.606588	-1.090450
H164	H	1.548790	-0.106588	-0.590450
H165	H	1.047892	-0.565745	-1.006789
H166	H	1.547892	-0.065745	-0.506789
H167	H	1.008699	-0.529649	-1.085266
H168	H	1.508699	-0.029649	-0.585266
H169	H	1.173148	-0.569948	-1.064860
H170	H	1.673148	-0.069948	-0.564860
H171	H	1.133964	-0.533864	-1.143344
H172	H	1.633964	-0.033864	-0.643344
H173	H	0.688843	-0.347356	-0.375701
H174	H	1.188843	0.152644	0.124299
O175	O	1.079044	-1.145843	-0.554073
O176	O	1.579044	-0.645843	-0.054073
C177	C	1.027100	-1.097534	-0.600885
C178	C	1.527100	-0.597534	-0.100885
H179	H	1.058296	-1.046859	-0.607939
H180	H	1.558296	-0.546859	-0.107939
H181	H	0.964876	-1.085714	-0.567748
H182	H	1.464876	-0.585714	-0.067748
C183	C	0.973961	-1.191424	-0.678590
C184	C	1.473961	-0.691424	-0.178590
C185	C	1.012278	-1.129186	-0.687260
C186	C	1.512278	-0.629186	-0.187260
H187	H	0.964814	-1.210949	-0.731869
H188	H	1.464814	-0.710949	-0.231869
H189	H	1.008953	-1.223972	-0.647050
H190	H	1.508953	-0.723972	-0.147050
H191	H	0.922111	-1.181566	-0.650973
H192	H	1.422111	-0.681566	-0.150973
H193	H	1.064131	-1.139047	-0.714867
H194	H	1.564131	-0.639047	-0.214867
H195	H	0.977294	-1.096641	-0.718807
H196	H	1.477294	-0.596641	-0.218807
H197	H	0.718168	-0.470186	-0.508145
H198	H	1.218168	0.029814	-0.008145
O199	O	1.299574	-1.146723	-0.355008
O200	O	1.799574	-0.646723	0.144992
C201	C	1.346359	-1.098809	-0.312793
C202	C	1.846359	-0.598809	0.187207
H203	H	1.309557	-1.044887	-0.310737
H204	H	1.809557	-0.544887	0.189263
H205	H	1.407748	-1.095022	-0.346674
H206	H	1.907748	-0.595022	0.153326
C207	C	1.409453	-1.190653	-0.226212
C208	C	1.909453	-0.690653	0.273788
C209	C	1.364249	-1.124427	-0.223681
C210	C	1.864249	-0.624427	0.276319
H211	H	1.420492	-1.206456	-0.171245
H212	H	1.920492	-0.706456	0.328755
H213	H	1.377935	-1.222934	-0.254655
H214	H	1.877935	-0.722934	0.245345
H215	H	1.460605	-1.187488	-0.254450
H216	H	1.960605	-0.687488	0.245550
H217	H	1.313094	-1.127594	-0.195452
H218	H	1.813094	-0.627594	0.304548
H219	H	1.395758	-1.092146	-0.195231
H220	H	1.895758	-0.592146	0.304769
H221	H	1.115772	-0.675749	-0.520604
H222	H	1.615772	-0.175749	-0.020604
H223	H	1.275858	-0.921123	-0.376300
H224	H	1.775858	-0.421123	0.123700
O225	O	1.071441	-1.001288	-0.560992
O226	O	1.571441	-0.501288	-0.060992
C227	C	1.113988	-0.963087	-0.618945
C228	C	1.613988	-0.463087	-0.118945
H229	H	1.180564	-0.988307	-0.626247
H230	H	1.680564	-0.488307	-0.126247
H231	H	1.115146	-0.906581	-0.596082
H232	H	1.615146	-0.406581	-0.096082
C233	C	0.987195	-0.932647	-0.694303
C234	C	1.487195	-0.432647	-0.194303
C235	C	1.068963	-0.963626	-0.703276
C236	C	1.568963	-0.463626	-0.203276
H237	H	0.959420	-0.932976	-0.746322
H238	H	1.459420	-0.432976	-0.246322
H239	H	0.958530	-0.958381	-0.655258
H240	H	1.458530	-0.458381	-0.155258
H241	H	0.988171	-0.885561	-0.675247
H242	H	1.488171	-0.385561	-0.175247
H243	H	1.067985	-1.010713	-0.722322
H244	H	1.567985	-0.510713	-0.222322
H245	H	1.097627	-0.937899	-0.742327
H246	H	1.597627	-0.437899	-0.242327
