data_functionalizedCrystal
_audit_creation_method	'MofGen! by Chris Wilmer'
_symmetry_space_group_name_H-M	'P1'
_symmetry_Int_Tables_number	1
_symmetry_cell_setting	triclinic
loop_
_symmetry_equiv_pos_as_xyz
  x,y,z
_cell_length_a	17.077404
_cell_length_b	25.639240
_cell_length_c	17.077396
_cell_angle_alpha	90.038257
_cell_angle_beta	90.019501
_cell_angle_gamma	90.032983
loop_
_atom_site_label
_atom_site_type_symbol
_atom_site_fract_x
_atom_site_fract_y
_atom_site_fract_z
Zn1	Zn	1.200001	-0.208148	0.443789
Zn2	Zn	1.700001	0.291852	0.943789
Zn3	Zn	1.199885	-0.295585	0.312501
Zn4	Zn	1.699885	0.204415	0.812501
Zn5	Zn	1.068733	-0.208166	0.312537
Zn6	Zn	1.568733	0.291834	0.812537
Zn7	Zn	1.068678	-0.295554	0.443725
Zn8	Zn	1.568678	0.204446	0.943725
O9	O	1.134324	-0.251863	0.378138
O10	O	1.634324	0.248137	0.878138
O11	O	1.309832	-0.219752	0.426386
O12	O	1.809832	0.280248	0.926386
O13	O	1.182462	-0.284010	0.202659
O14	O	1.682462	0.215990	0.702659
O15	O	1.086217	-0.134998	0.329991
O16	O	1.586217	0.365002	0.829991
O17	O	1.309747	-0.283992	0.329929
O18	O	1.809747	0.216008	0.829929
O19	O	1.182659	-0.134985	0.426421
O20	O	1.682659	0.365015	0.926421
O21	O	1.086105	-0.219783	0.202686
O22	O	1.586105	0.280217	0.702686
O23	O	0.958878	-0.219753	0.329928
O24	O	1.458878	0.280247	0.829928
O25	O	1.086124	-0.283939	0.553580
O26	O	1.586124	0.216061	1.053580
O27	O	0.958838	-0.283957	0.426310
O28	O	1.458838	0.216043	0.926310
O29	O	1.182606	-0.219722	0.553628
O30	O	1.682606	0.280278	1.053628
O31	O	1.182409	-0.368746	0.329866
O32	O	1.682409	0.131254	0.829866
O33	O	1.086012	-0.368724	0.426275
O34	O	1.586012	0.131276	0.926275
C35	C	0.930376	-0.251854	0.378116
C36	C	1.430376	0.248146	0.878116
C37	C	0.843126	-0.251862	0.378126
C38	C	1.343126	0.248138	0.878126
C39	C	0.802136	-0.285344	0.428232
C40	C	1.302136	0.214656	0.928232
C41	C	0.720155	-0.285345	0.428244
C42	C	1.220155	0.214655	0.928244
C43	C	0.679167	-0.251867	0.378146
C44	C	1.179167	0.248133	0.878146
C45	C	0.720163	-0.218382	0.328038
C46	C	1.220163	0.281618	0.828038
C47	C	0.802142	-0.218378	0.328030
C48	C	1.302142	0.281622	0.828030
C49	C	0.549293	-0.218392	0.328057
C50	C	1.049293	0.281608	0.828057
C51	C	0.467309	-0.218396	0.328064
C52	C	0.967309	0.281604	0.828064
C53	C	0.467307	-0.285358	0.428271
C54	C	0.967307	0.214642	0.928271
C55	C	0.549285	-0.285355	0.428263
C56	C	1.049285	0.214645	0.928263
C57	C	0.590276	-0.251871	0.378154
C58	C	1.090276	0.248129	0.878154
C59	C	1.134213	-0.387706	0.378077
C60	C	1.634213	0.112294	0.878077
C61	C	1.134238	-0.445820	0.378076
C62	C	1.634238	0.054180	0.878076
C63	C	1.184567	-0.806137	0.428440
C64	C	1.684567	-0.306137	0.928440
C65	C	1.184590	-0.860742	0.428456
C66	C	1.684590	-0.360742	0.928456
O67	O	1.227249	-0.888940	0.471213
O68	O	1.727249	-0.388940	0.971213
N69	N	1.134433	-0.888102	0.378214
N70	N	1.634433	-0.388102	0.878214
C71	C	1.084244	-0.860856	0.327958
C72	C	1.584244	-0.360856	0.827958
O73	O	1.041584	-0.889142	0.285226
O74	O	1.541584	-0.389142	0.785226
C75	C	1.084218	-0.806252	0.327947
C76	C	1.584218	-0.306252	0.827947
C77	C	1.134383	-0.778895	0.378187
C78	C	1.634383	-0.278895	0.878187
C79	C	1.234727	-0.778780	0.478676
C80	C	1.734727	-0.278780	0.978676
C81	C	1.234705	-0.724179	0.478659
C82	C	1.734705	-0.224179	0.978659
C83	C	1.184522	-0.696936	0.428406
C84	C	1.684522	-0.196936	0.928406
C85	C	1.134361	-0.724294	0.378169
C86	C	1.634361	-0.224294	0.878169
C87	C	1.034026	-0.779007	0.277696
C88	C	1.534026	-0.279007	0.777696
C89	C	1.034003	-0.724400	0.277689
C90	C	1.534003	-0.224400	0.777689
C91	C	1.084169	-0.697042	0.327929
C92	C	1.584169	-0.197042	0.827929
C93	C	1.084156	-0.642451	0.327899
C94	C	1.584156	-0.142451	0.827899
N95	N	1.134312	-0.615090	0.378141
N96	N	1.634312	-0.115090	0.878141
C97	C	1.184495	-0.642333	0.428394
C98	C	1.684495	-0.142333	0.928394
C99	C	1.084303	-0.975526	0.327987
C100	C	1.584303	-0.475526	0.827987
C101	C	1.084333	-1.030129	0.327994
C102	C	1.584333	-0.530129	0.827994
C103	C	1.184677	-1.030011	0.428493
C104	C	1.684677	-0.530011	0.928493
C105	C	1.184651	-0.975408	0.428481
C106	C	1.684651	-0.475408	0.928481
C107	C	1.134460	-0.948166	0.378229
C108	C	1.634460	-0.448166	0.878229
C109	C	1.184445	-0.527668	0.428354
C110	C	1.684445	-0.027668	0.928354
C111	C	1.184421	-0.473063	0.428330
C112	C	1.684421	0.026937	0.928330
C113	C	1.084074	-0.473185	0.327834
C114	C	1.584074	0.026815	0.827834
C115	C	1.084101	-0.527786	0.327855
C116	C	1.584101	-0.027786	0.827855
C117	C	1.134289	-0.555026	0.378121
C118	C	1.634289	-0.055026	0.878121
O119	O	1.041516	-0.614218	0.285165
O120	O	1.541516	-0.114218	0.785165
O121	O	1.227141	-0.614040	0.471127
O122	O	1.727141	-0.114040	0.971127
C123	C	1.339068	-0.251873	0.378160
C124	C	1.839068	0.248127	0.878160
C125	C	1.426318	-0.251877	0.378170
C126	C	1.926318	0.248123	0.878170
C127	C	1.134372	-0.251825	0.582882
C128	C	1.634372	0.248175	1.082882
C129	C	1.134392	-0.251808	0.670132
C130	C	1.634392	0.248192	1.170132
C131	C	1.134457	-0.115490	0.378217
C132	C	1.634457	0.384510	0.878217
C133	C	1.134513	-0.057376	0.378251
C134	C	1.634513	0.442624	0.878251
C135	C	1.134322	-0.251864	0.174190
C136	C	1.634322	0.248136	0.674190
C137	C	1.134454	-0.251733	0.086941
C138	C	1.634454	0.248267	0.586941
C139	C	1.184632	-0.218368	0.711149
C140	C	1.684632	0.281632	1.211149
C141	C	1.184641	-0.218350	0.793129
C142	C	1.684641	0.281650	1.293129
C143	C	1.134414	-0.251777	0.834092
C144	C	1.634414	0.248223	1.334092
C145	C	1.084168	-0.285219	0.793070
C146	C	1.584168	0.214781	1.293070
C147	C	1.084156	-0.285233	0.711091
C148	C	1.584156	0.214767	1.211091
C149	C	1.084200	-0.285187	0.963940
C150	C	1.584200	0.214813	1.463940
C151	C	1.084214	-0.285174	1.045925
C152	C	1.584214	0.214826	1.545925
C153	C	1.184686	-0.218304	1.045978
C154	C	1.684686	0.281696	1.545978
C155	C	1.184673	-0.218319	0.963999
C156	C	1.684673	0.281681	1.463999
C157	C	1.134428	-0.251762	0.922983
C158	C	1.634428	0.248238	1.422983
H159	H	0.433938	-0.191129	0.287279
H160	H	0.933938	0.308871	0.787279
H161	H	1.225274	-0.450790	0.469241
H162	H	1.725274	0.049210	0.969241
C163	C	1.239874	-1.059988	0.483779
C164	C	1.739874	-0.559988	0.983779
N165	N	1.281445	-1.082569	0.525418
N166	N	1.781445	-0.582569	1.025418
H167	H	1.043270	-0.312433	0.826428
H168	H	1.543270	0.187567	1.326428
C169	C	1.028872	-0.443208	0.272562
C170	C	1.528872	0.056792	0.772562
N171	N	0.987288	-0.420627	0.230935
N172	N	1.487288	0.079373	0.730935
H173	H	1.225535	-0.191150	0.677802
H174	H	1.725535	0.308850	1.177802
H175	H	0.582656	-0.312619	0.469053
H176	H	1.082656	0.187381	0.969053
H177	H	1.225554	-0.191121	0.826521
H178	H	1.725554	0.308879	1.326521
C179	C	0.978833	-0.809088	0.222433
C180	C	1.478833	-0.309088	0.722433
N181	N	0.937257	-0.831745	0.180807
N182	N	1.437257	-0.331745	0.680807
C183	C	1.239924	-0.181547	0.918942
C184	C	1.739924	0.318453	1.418942
N185	N	1.281537	-0.153848	0.885004
N186	N	1.781537	0.346152	1.385004
H187	H	1.225596	-0.191073	1.079378
H188	H	1.725596	0.308927	1.579378
C189	C	1.028889	-0.322021	0.665973
C190	C	1.528889	0.177979	1.165973
N191	N	0.987259	-0.349731	0.631992
N192	N	1.487259	0.150269	1.131992
H193	H	1.043491	-1.052399	0.287075
H194	H	1.543491	-0.552399	0.787075
C195	C	1.028956	-0.321941	1.090982
C196	C	1.528956	0.178059	1.590982
N197	N	0.987334	-0.349634	1.124919
N198	N	1.487334	0.150366	1.624919
C199	C	0.675073	-0.181554	0.272932
C200	C	1.175073	0.318446	0.772932
N201	N	0.641112	-0.153816	0.231423
N202	N	1.141112	0.346184	0.731423
C203	C	0.847216	-0.322173	0.483344
C204	C	1.347216	0.177827	0.983344
N205	N	0.881167	-0.349912	0.524859
N206	N	1.381167	0.150088	1.024859
C207	C	0.675070	-0.322187	0.483350
C208	C	1.175070	0.177813	0.983350
N209	N	0.641111	-0.349942	0.524853
N210	N	1.141111	0.150058	1.024853
H211	H	1.043273	-0.312412	0.930547
H212	H	1.543273	0.187588	1.430547
H213	H	0.433928	-0.312621	0.469074
H214	H	0.933928	0.187379	0.969074
H215	H	1.043258	-0.550062	0.286940
H216	H	1.543258	-0.050062	0.786940
C217	C	0.847231	-0.181548	0.272908
C218	C	1.347231	0.318452	0.772908
N219	N	0.881192	-0.153804	0.231389
N220	N	1.381192	0.346196	0.731389
H221	H	0.582665	-0.191121	0.287260
H222	H	1.082665	0.308879	0.787260
H223	H	1.225308	-0.549840	0.469291
H224	H	1.725308	-0.049840	0.969291
C225	C	1.289894	-0.694093	0.533924
C226	C	1.789894	-0.194093	1.033924
N227	N	1.331467	-0.671435	0.575552
N228	N	1.831467	-0.171435	1.075552
H229	H	1.275592	-0.800955	0.519603
H230	H	1.775592	-0.300955	1.019603
C231	C	1.029088	-0.945565	0.272699
C232	C	1.529088	-0.445565	0.772699
N233	N	0.987498	-0.923001	0.231058
N234	N	1.487498	-0.423001	0.731058
H235	H	0.993129	-0.702222	0.236769
H236	H	1.493129	-0.202222	0.736769
C237	C	1.239833	-0.945319	0.483751
C238	C	1.739833	-0.445319	0.983751
N239	N	1.281397	-0.922659	0.525385
N240	N	1.781397	-0.422659	1.025385
