data_functionalizedCrystal
_audit_creation_method	'MofGen! by Chris Wilmer'
_symmetry_space_group_name_H-M	'P1'
_symmetry_Int_Tables_number	1
_symmetry_cell_setting	triclinic
loop_
_symmetry_equiv_pos_as_xyz
  x,y,z
_cell_length_a	16.109301
_cell_length_b	10.654541
_cell_length_c	14.586319
_cell_angle_alpha	89.996435
_cell_angle_beta	89.999213
_cell_angle_gamma	83.972705
loop_
_atom_site_label
_atom_site_type_symbol
_atom_site_fract_x
_atom_site_fract_y
_atom_site_fract_z
O1	O	1.104090	0.161419	-0.076182
O2	O	1.604090	0.661419	0.423818
O3	O	0.862147	0.181508	-0.076196
O4	O	1.362147	0.681508	0.423804
O5	O	0.988682	-0.011352	-0.076183
O6	O	1.488682	0.488648	0.423817
O7	O	0.977554	0.354278	-0.076195
O8	O	1.477554	0.854278	0.423805
O9	O	0.988673	-0.011354	0.076298
O10	O	1.488673	0.488646	0.576298
O11	O	0.862138	0.181505	0.076284
O12	O	1.362138	0.681505	0.576284
O13	O	1.104081	0.161416	0.076299
O14	O	1.604081	0.661416	0.576299
Cu15	Cu	0.983109	0.171460	0.090214
Cu16	Cu	1.483109	0.671460	0.590214
Cu17	Cu	0.983119	0.171464	-0.090112
Cu18	Cu	1.483119	0.671464	0.409888
O19	O	0.977546	0.354276	0.076286
O20	O	1.477546	0.854276	0.576286
C21	C	0.831163	0.180692	0.000042
C22	C	1.331163	0.680692	0.500042
C23	C	0.738853	0.178253	0.000037
C24	C	1.238853	0.678253	0.500037
C25	C	0.987861	-0.058140	0.000057
C26	C	1.487861	0.441860	0.500057
C27	C	0.985418	-0.197550	0.000055
C28	C	1.485418	0.302450	0.500055
C29	C	0.517227	0.287019	0.000044
C30	C	1.017227	0.787019	0.500044
C31	C	0.430493	0.284717	0.000050
C32	C	0.930493	0.784717	0.500050
C33	C	0.449008	0.055896	0.000053
C34	C	0.949008	0.555896	0.500053
C35	C	0.535740	0.058200	0.000054
C36	C	1.035740	0.558200	0.500054
C37	C	0.569847	0.173765	0.000045
C38	C	1.069847	0.673765	0.500045
C39	C	0.396381	0.169159	0.000050
C40	C	0.896381	0.669159	0.500050
C41	C	0.302340	0.166662	0.000056
C42	C	0.802340	0.666662	0.500056
C43	C	0.663894	0.176262	0.000040
C44	C	1.163894	0.676262	0.500040
C45	C	1.136725	-0.227574	0.000076
C46	C	1.636725	0.272426	0.500076
C47	C	1.211227	-0.308079	0.000088
C48	C	1.711227	0.191921	0.500088
C49	C	1.208926	-0.439066	0.000085
C50	C	1.708926	0.060934	0.500085
C51	C	1.132115	-0.489549	0.000067
C52	C	1.632115	0.010451	0.500067
C53	C	1.057613	-0.409044	0.000055
C54	C	1.557613	0.090956	0.500055
C55	C	1.059922	-0.278056	0.000060
C56	C	1.559922	0.221944	0.500060
C57	C	0.906308	-0.379021	0.000027
C58	C	1.406308	0.120979	0.500027
C59	C	0.908607	-0.248034	0.000037
C60	C	1.408607	0.251966	0.500037
C61	C	0.829496	-0.429504	0.000010
C62	C	1.329496	0.070496	0.500010
C63	C	0.754992	-0.348998	0.000004
C64	C	1.254992	0.151002	0.500004
C65	C	0.757296	-0.218004	0.000008
C66	C	1.257296	0.281996	0.500008
C67	C	0.834104	-0.167529	0.000025
C68	C	1.334104	0.332471	0.500025
C69	C	1.135065	0.162231	0.000058
C70	C	1.635065	0.662231	0.500058
C71	C	1.227375	0.164671	0.000058
C72	C	1.727375	0.664671	0.500058
C73	C	0.978367	0.401064	0.000044
C74	C	1.478367	0.901064	0.500044
C75	C	0.980810	0.540474	0.000040
C76	C	1.480810	1.040474	0.500040
N77	N	0.983107	0.171457	0.217046
N78	N	1.483107	0.671457	0.717046
N79	N	0.983127	0.171457	-0.216944
N80	N	1.483127	0.671457	0.283056
C81	C	1.039156	0.086088	0.452058
C82	C	1.539156	0.586088	0.952058
C83	C	1.039158	0.086085	0.548040
C84	C	1.539158	0.586085	1.048040
C85	C	0.927072	0.256830	0.548037
C86	C	1.427072	0.756830	1.048037
C87	C	0.927067	0.256826	0.452058
C88	C	1.427067	0.756826	0.952058
C89	C	0.983113	0.171457	0.404071
C90	C	1.483113	0.671457	0.904071
C91	C	0.983121	0.171457	0.596032
C92	C	1.483121	0.671457	1.096032
C93	C	0.983123	0.171455	0.700099
C94	C	1.483123	0.671455	1.200099
C95	C	0.983110	0.171457	0.299997
C96	C	1.483110	0.671457	0.799997
H97	H	0.387652	0.376940	0.000051
H98	H	0.887652	0.876940	0.500051
H99	H	0.421227	-0.038193	0.000067
H100	H	0.921227	0.461807	0.500067
N101	N	0.866610	0.348905	0.400300
N102	N	1.366610	0.848905	0.900300
H103	H	0.876694	0.438044	0.416991
H104	H	1.376694	0.938044	0.916991
H105	H	0.875135	0.335836	0.332232
H106	H	1.375135	0.835836	0.832232
N107	N	0.592503	-0.063959	0.000065
N108	N	1.092503	0.436041	0.500065
H109	H	0.557737	-0.137518	0.000066
H110	H	1.057737	0.362482	0.500066
H111	H	0.628897	-0.067987	-0.056458
H112	H	1.128897	0.432013	0.443542
H113	H	0.544993	0.381120	0.000043
H114	H	1.044993	0.881120	0.500043
H115	H	1.138606	-0.120919	0.000090
H116	H	1.638606	0.379081	0.500090
H117	H	0.881442	0.326338	0.587118
H118	H	1.381442	0.826338	1.087118
N119	N	1.294071	-0.253631	0.000119
N120	N	1.794071	0.246369	0.500119
H121	H	1.284228	-0.158436	0.000127
H122	H	1.784228	0.341564	0.500127
H123	H	1.326685	-0.283097	0.056656
H124	H	1.826685	0.216903	0.556656
H125	H	1.084792	0.016568	0.587108
H126	H	1.584792	0.516568	1.087108
N127	N	0.827018	-0.570782	0.000010
N128	N	1.327018	-0.070782	0.500010
H129	H	0.796748	-0.596440	0.056529
H130	H	1.296748	-0.096440	0.556529
H131	H	0.796789	-0.596343	-0.056558
H132	H	1.296789	-0.096343	0.443442
N133	N	1.289279	-0.525905	0.000091
N134	N	1.789279	-0.025905	0.500091
H135	H	1.338288	-0.474054	0.000100
H136	H	1.838288	0.025946	0.500100
H137	H	1.291608	-0.580911	0.056617
H138	H	1.791608	-0.080911	0.556617
H139	H	0.692459	-0.390113	-0.000017
H140	H	1.192459	0.109887	0.499983
N141	N	1.129631	-0.630826	0.000050
N142	N	1.629631	-0.130826	0.500050
H143	H	1.188482	-0.674165	0.000055
H144	H	1.688482	-0.174165	0.500055
H145	H	1.099329	-0.656390	0.056570
H146	H	1.599329	-0.156390	0.556570
N147	N	0.676939	-0.131176	-0.000013
N148	N	1.176939	0.368824	0.499987
H149	H	0.627936	-0.183038	-0.000027
H150	H	1.127936	0.316962	0.499973
H151	H	0.674585	-0.076182	0.056515
H152	H	1.174585	0.423818	0.556515
H153	H	0.835988	-0.060874	0.000034
H154	H	1.335988	0.439126	0.500034
N155	N	1.099601	-0.005987	0.400299
N156	N	1.599601	0.494013	0.900299
H157	H	1.135103	-0.060069	0.445267
H158	H	1.635103	0.439931	0.945267
H159	H	1.067452	-0.061520	0.360482
H160	H	1.567452	0.438480	0.860482
