data_functionalizedCrystal
_audit_creation_method	'MofGen! by Chris Wilmer'
_symmetry_space_group_name_H-M	'P1'
_symmetry_Int_Tables_number	1
_symmetry_cell_setting	triclinic
loop_
_symmetry_equiv_pos_as_xyz
  x,y,z
_cell_length_a	16.625548
_cell_length_b	16.120444
_cell_length_c	16.625539
_cell_angle_alpha	87.130642
_cell_angle_beta	90.020568
_cell_angle_gamma	92.927662
loop_
_atom_site_label
_atom_site_type_symbol
_atom_site_fract_x
_atom_site_fract_y
_atom_site_fract_z
Zn1	Zn	1.216382	-0.331884	0.472171
Zn2	Zn	1.466382	-0.081884	0.722171
Zn3	Zn	1.716382	0.168116	0.972171
Zn4	Zn	1.966382	0.418116	1.222171
Zn5	Zn	1.209438	-0.471309	0.344170
Zn6	Zn	1.459438	-0.221309	0.594170
Zn7	Zn	1.709438	0.028691	0.844170
Zn8	Zn	1.959438	0.278691	1.094170
Zn9	Zn	1.081542	-0.331916	0.337353
Zn10	Zn	1.331542	-0.081916	0.587353
Zn11	Zn	1.581542	0.168084	0.837353
Zn12	Zn	1.831542	0.418084	1.087353
Zn13	Zn	1.074670	-0.471261	0.478957
Zn14	Zn	1.324670	-0.221261	0.728957
Zn15	Zn	1.574670	0.028739	0.978957
Zn16	Zn	1.824670	0.278739	1.228957
O17	O	1.145508	-0.401592	0.408163
O18	O	1.395508	-0.151592	0.658163
O19	O	1.645508	0.098408	0.908163
O20	O	1.895508	0.348408	1.158163
O21	O	1.328293	-0.350386	0.455204
O22	O	1.578293	-0.100386	0.705204
O23	O	1.828293	0.149614	0.955204
O24	O	2.078293	0.399614	1.205204
O25	O	1.192443	-0.452851	0.230435
O26	O	1.442443	-0.202851	0.480435
O27	O	1.692443	0.047149	0.730435
O28	O	1.942443	0.297149	0.980435
O29	O	1.105211	-0.215245	0.349544
O30	O	1.355211	0.034755	0.599544
O31	O	1.605211	0.284755	0.849544
O32	O	1.855211	0.534755	1.099544
O33	O	1.323192	-0.452821	0.361162
O34	O	1.573192	-0.202821	0.611162
O35	O	1.823192	0.047179	0.861162
O36	O	2.073192	0.297179	1.111162
O37	O	1.204278	-0.215222	0.448594
O38	O	1.454278	0.034778	0.698594
O39	O	1.704278	0.284778	0.948594
O40	O	1.954278	0.534778	1.198594
O41	O	1.098478	-0.350440	0.225427
O42	O	1.348478	-0.100440	0.475427
O43	O	1.598478	0.149560	0.725427
O44	O	1.848478	0.399560	0.975427
O45	O	0.967799	-0.350393	0.356125
O46	O	1.217799	-0.100393	0.606125
O47	O	1.467799	0.149607	0.856125
O48	O	1.717799	0.399607	1.106125
O49	O	1.093498	-0.452739	0.590888
O50	O	1.343498	-0.202739	0.840888
O51	O	1.593498	0.047261	1.090888
O52	O	1.843498	0.297261	1.340888
O53	O	0.962749	-0.452770	0.460161
O54	O	1.212749	-0.202770	0.710161
O55	O	1.462749	0.047230	0.960161
O56	O	1.712749	0.297230	1.210161
O57	O	1.197613	-0.350339	0.585902
O58	O	1.447613	-0.100339	0.835902
O59	O	1.697613	0.149661	1.085902
O60	O	1.947613	0.399661	1.335902
O61	O	1.185779	-0.587969	0.367743
O62	O	1.435779	-0.337969	0.617743
O63	O	1.685779	-0.087969	0.867743
O64	O	1.935779	0.162031	1.117743
O65	O	1.086765	-0.587934	0.466770
O66	O	1.336765	-0.337934	0.716770
O67	O	1.586765	-0.087934	0.966770
O68	O	1.836765	0.162066	1.216770
C69	C	0.936018	-0.401580	0.408140
C70	C	1.186018	-0.151580	0.658140
C71	C	1.436018	0.098420	0.908140
C72	C	1.686018	0.348420	1.158140
C73	C	0.846396	-0.401595	0.408150
C74	C	1.096396	-0.151595	0.658150
C75	C	1.346396	0.098405	0.908150
C76	C	1.596396	0.348405	1.158150
C77	C	0.518220	-0.401601	0.408185
C78	C	0.768220	-0.151601	0.658185
C79	C	1.018220	0.098399	0.908185
C80	C	1.268220	0.348399	1.158185
C81	C	0.609529	-0.401597	0.408172
C82	C	0.859529	-0.151597	0.658172
C83	C	1.109529	0.098403	0.908172
C84	C	1.359529	0.348403	1.158172
C85	C	0.682305	-0.401599	0.408167
C86	C	0.932305	-0.151599	0.658167
C87	C	1.182305	0.098401	0.908167
C88	C	1.432305	0.348401	1.158167
C89	C	0.773620	-0.401594	0.408156
C90	C	1.023620	-0.151594	0.658156
C91	C	1.273620	0.098406	0.908156
C92	C	1.523620	0.348406	1.158156
C93	C	1.134795	-0.618202	0.418750
C94	C	1.384795	-0.368202	0.668750
C95	C	1.634795	-0.118202	0.918750
C96	C	1.884795	0.131798	1.168750
C97	C	1.130285	-0.710868	0.423306
C98	C	1.380285	-0.460868	0.673306
C99	C	1.630285	-0.210868	0.923306
C100	C	1.880285	0.039132	1.173306
C101	C	1.169099	-0.921808	0.384700
C102	C	1.419099	-0.671808	0.634700
C103	C	1.669099	-0.421808	0.884700
C104	C	1.919099	-0.171808	1.134700
C105	C	1.122066	-0.880525	0.431634
C106	C	1.372066	-0.630525	0.681634
C107	C	1.622066	-0.380525	0.931634
C108	C	1.872066	-0.130525	1.181634
C109	C	1.126641	-0.786119	0.426999
C110	C	1.376641	-0.536119	0.676999
C111	C	1.626641	-0.286119	0.926999
C112	C	1.876641	-0.036119	1.176999
C113	C	1.164526	-1.016223	0.389334
C114	C	1.414526	-0.766223	0.639334
C115	C	1.664526	-0.516223	0.889334
C116	C	1.914526	-0.266223	1.139334
C117	C	1.355816	-0.401605	0.408187
C118	C	1.605816	-0.151605	0.658187
C119	C	1.855816	0.098395	0.908187
C120	C	2.105816	0.348395	1.158187
C121	C	1.445437	-0.401610	0.408197
C122	C	1.695437	-0.151610	0.658197
C123	C	1.945437	0.098390	0.908197
C124	C	2.195437	0.348390	1.158197
C125	C	1.145564	-0.401530	0.618469
C126	C	1.395564	-0.151530	0.868469
C127	C	1.645564	0.098470	1.118469
C128	C	1.895564	0.348470	1.368469
C129	C	1.145587	-0.401504	0.708089
C130	C	1.395587	-0.151504	0.958089
C131	C	1.645587	0.098496	1.208089
C132	C	1.895587	0.348496	1.458089
C133	C	1.156286	-0.184137	0.397552
C134	C	1.406286	0.065863	0.647552
C135	C	1.656286	0.315863	0.897552
C136	C	1.906286	0.565863	1.147552
C137	C	1.160878	-0.091471	0.393030
C138	C	1.410878	0.158529	0.643030
C139	C	1.660878	0.408529	0.893030
C140	C	1.910878	0.658529	1.143030
C141	C	1.145502	-0.401594	0.198672
C142	C	1.395502	-0.151594	0.448672
C143	C	1.645502	0.098406	0.698672
C144	C	1.895502	0.348406	0.948672
C145	C	1.145646	-0.401386	0.109041
C146	C	1.395646	-0.151386	0.359041
C147	C	1.645646	0.098614	0.609041
C148	C	1.895646	0.348614	0.859041
C149	C	1.145629	-0.401410	1.036260
C150	C	1.395629	-0.151410	1.286260
C151	C	1.645629	0.098590	1.536260
C152	C	1.895629	0.348590	1.786260
C153	C	1.145615	-0.401439	0.944953
C154	C	1.395615	-0.151439	1.194953
C155	C	1.645615	0.098561	1.444953
C156	C	1.895615	0.348561	1.694953
C157	C	1.145609	-0.401458	0.872177
C158	C	1.395609	-0.151458	1.122177
C159	C	1.645609	0.098542	1.372177
C160	C	1.895609	0.348542	1.622177
C161	C	1.145594	-0.401485	0.780864
C162	C	1.395594	-0.151485	1.030864
C163	C	1.645594	0.098515	1.280864
C164	C	1.895594	0.348515	1.530864
H165	H	1.078365	-0.916083	0.475295
H166	H	1.328365	-0.666083	0.725295
H167	H	1.578365	-0.416083	0.975295
H168	H	1.828365	-0.166083	1.225295
C169	C	1.184995	-0.823834	0.271536
C170	C	1.434995	-0.573834	0.521536
C171	C	1.684995	-0.323834	0.771536
C172	C	1.934995	-0.073834	1.021536
C173	C	1.228084	-0.873814	0.325754
C174	C	1.478084	-0.623814	0.575754
C175	C	1.728084	-0.373814	0.825754
C176	C	1.978084	-0.123814	1.075754
H177	H	1.221408	-0.794201	0.235141
H178	H	1.471408	-0.544201	0.485141
H179	H	1.721408	-0.294201	0.735141
H180	H	1.971408	-0.044201	0.985141
H181	H	1.156094	-0.785534	0.300381
H182	H	1.406094	-0.535534	0.550381
H183	H	1.656094	-0.285534	0.800381
H184	H	1.906094	-0.035534	1.050381
H185	H	1.148268	-0.857876	0.242306
H186	H	1.398268	-0.607876	0.492306
H187	H	1.648268	-0.357876	0.742306
H188	H	1.898268	-0.107876	0.992306
H189	H	1.264807	-0.839772	0.354988
H190	H	1.514807	-0.589772	0.604988
H191	H	1.764807	-0.339772	0.854988
H192	H	2.014807	-0.089772	1.104988
H193	H	1.256998	-0.912119	0.296906
H194	H	1.506998	-0.662119	0.546906
H195	H	1.756998	-0.412119	0.796906
H196	H	2.006998	-0.162119	1.046906
