data_functionalizedCrystal
_audit_creation_method	'MofGen! by Chris Wilmer'
_symmetry_space_group_name_H-M	'P1'
_symmetry_Int_Tables_number	1
_symmetry_cell_setting	triclinic
loop_
_symmetry_equiv_pos_as_xyz
  x,y,z
_cell_length_a	8.497374
_cell_length_b	19.805407
_cell_length_c	19.805405
_cell_angle_alpha	89.973590
_cell_angle_beta	89.985911
_cell_angle_gamma	90.004504
loop_
_atom_site_label
_atom_site_type_symbol
_atom_site_fract_x
_atom_site_fract_y
_atom_site_fract_z
Zn1	Zn	0.892011	1.034635	0.269581
Zn2	Zn	0.628188	1.034580	0.382739
Zn3	Zn	0.628226	0.921479	0.269569
Zn4	Zn	0.891907	0.921413	0.382733
O5	O	0.760083	0.978027	0.326155
O6	O	0.857043	1.129344	0.284598
O7	O	0.407431	1.019581	0.367724
O8	O	0.663277	0.936541	0.174854
O9	O	0.663213	1.129303	0.367735
O10	O	0.857079	1.019676	0.174862
O11	O	0.407458	0.936487	0.284579
O12	O	0.663176	0.826754	0.284573
O13	O	1.112683	0.936428	0.367725
O14	O	0.856901	0.826705	0.367714
O15	O	1.112760	1.019611	0.284593
O16	O	0.663111	1.019517	0.477455
O17	O	0.856864	0.936374	0.477450
C18	C	0.760032	0.802171	0.326142
C19	C	0.760048	0.726939	0.326153
C20	C	0.860757	0.691587	0.369510
C21	C	0.860779	0.620899	0.369511
C22	C	0.760083	0.585563	0.326158
C23	C	0.659369	0.620920	0.282797
C24	C	0.659356	0.691607	0.282793
C25	C	0.659421	0.335847	0.282812
C26	C	0.659439	0.265155	0.282821
C27	C	0.860844	0.265138	0.369530
C28	C	0.860831	0.335825	0.369526
C29	C	0.760124	0.371176	0.326162
C30	C	0.760103	0.447824	0.326161
C31	C	0.760095	0.508916	0.326163
C32	C	0.760007	0.977951	0.502011
C33	C	0.760027	0.977980	0.577243
C34	C	1.171563	0.978022	0.326156
C35	C	1.350207	0.978023	0.326164
C36	C	0.760135	1.154569	0.326169
C37	C	0.760157	1.229801	0.326175
C38	C	0.760194	0.978122	0.149613
C39	C	0.760241	0.978162	0.074381
C40	C	0.659245	1.021314	0.612567
C41	C	0.659280	1.021343	0.683256
C42	C	0.760090	0.978034	0.718619
C43	C	0.860882	0.934697	0.683290
C44	C	0.860854	0.934672	0.612603
C45	C	0.860999	0.934797	0.968363
C46	C	0.861016	0.934824	1.039055
C47	C	0.659425	1.021468	1.039016
C48	C	0.659397	1.021443	0.968329
C49	C	0.760195	0.978109	0.933006
C50	C	0.760158	0.978080	0.856358
C51	C	0.760120	0.978059	0.795266
H52	H	0.577356	0.720390	0.247484
H53	H	0.942823	0.364592	0.404830
H54	H	0.942851	0.236347	0.404836
O55	O	0.561366	0.370147	0.240763
C56	C	0.404077	0.352843	0.255437
H57	H	0.395881	0.333397	0.309508
H58	H	0.363013	0.311816	0.219129
C59	C	0.308871	0.439511	0.181062
C60	C	0.298803	0.415633	0.247474
H61	H	0.243930	0.478241	0.176147
H62	H	0.414839	0.451168	0.171173
H63	H	0.274654	0.405316	0.150812
H64	H	0.333038	0.449824	0.277721
H65	H	0.192837	0.403983	0.257368
O66	O	0.958725	0.725804	0.411645
C67	C	1.047592	0.679440	0.449923
H68	H	1.053176	0.629063	0.422205
H69	H	0.989608	0.671897	0.501290
C70	C	1.208590	0.768906	0.493831
C71	C	1.215460	0.707035	0.459785
H72	H	1.312137	0.785929	0.499918
H73	H	1.148716	0.800144	0.468045
H74	H	1.160263	0.762613	0.536634
H75	H	1.263768	0.713331	0.416980
H76	H	1.275347	0.675799	0.485565
O77	O	0.561438	0.230803	0.240803
C78	C	0.459410	0.189887	0.279276
H79	H	0.449447	0.211171	0.332576
H80	H	0.508173	0.136315	0.281647
C81	C	0.307782	0.162667	0.180639
C82	C	0.295536	0.188812	0.246101
H83	H	0.206699	0.162001	0.160174
H84	H	0.376524	0.190230	0.154718
H85	H	0.348424	0.118026	0.182623
H86	H	0.254913	0.233455	0.244115
H87	H	0.226783	0.161256	0.272021
H88	H	0.577303	1.056707	0.939538
H89	H	0.577387	0.592144	0.247496
O90	O	0.561262	1.063448	0.578323
C91	C	0.472291	1.101690	0.624663
H92	H	0.536937	1.104028	0.675037
H93	H	0.352428	1.076950	0.632224
C94	C	0.370294	1.170854	0.535151
C95	C	0.449700	1.173731	0.597019
H96	H	0.356351	1.215291	0.518099
H97	H	0.430230	1.145088	0.503930
H98	H	0.270416	1.150234	0.541460
H99	H	0.549583	1.194343	0.590708
H100	H	0.389779	1.199501	0.628239
H101	H	0.577212	1.056630	0.712013
H102	H	0.577357	1.056755	1.067784
H103	H	0.943119	0.899556	1.067846
O104	O	0.958937	0.892631	0.934161
C105	C	1.047930	0.854418	0.980534
H106	H	0.983326	0.852127	1.030936
H107	H	1.167812	0.879154	0.988009
C108	C	1.149817	0.785173	0.891105
C109	C	1.070462	0.782354	0.953007
H110	H	1.163723	0.740721	0.874124
H111	H	1.089866	0.810919	0.859862
H112	H	1.249710	0.805790	0.897341
H113	H	0.970564	0.761746	0.946768
H114	H	1.130397	0.756603	0.984249
H115	H	0.942970	0.899437	0.712088
O116	O	0.958773	0.586532	0.411536
C117	C	1.060830	0.545654	0.373080
H118	H	1.070806	0.566975	0.319776
H119	H	1.012086	0.492077	0.370721
C120	C	1.212427	0.518389	0.471736
C121	C	1.224691	0.544579	0.406268
H122	H	1.313503	0.517722	0.492209
H123	H	1.143667	0.545927	0.497645
H124	H	1.171801	0.473744	0.469761
H125	H	1.265298	0.589226	0.408245
H126	H	1.293463	0.517049	0.380360
H127	H	0.942923	0.899386	0.583843
