data_functionalizedCrystal
_audit_creation_method	'MofGen! by Chris Wilmer'
_symmetry_space_group_name_H-M	'P1'
_symmetry_Int_Tables_number	1
_symmetry_cell_setting	triclinic
loop_
_symmetry_equiv_pos_as_xyz
  x,y,z
_cell_length_a	12.759401
_cell_length_b	12.759394
_cell_length_c	12.759393
_cell_angle_alpha	89.969349
_cell_angle_beta	89.981504
_cell_angle_gamma	90.014133
loop_
_atom_site_label
_atom_site_type_symbol
_atom_site_fract_x
_atom_site_fract_y
_atom_site_fract_z
Zn1	Zn	1.606261	-0.418196	-0.593990
Zn2	Zn	1.606158	-0.593915	-0.418313
Zn3	Zn	1.430563	-0.418252	-0.418329
Zn4	Zn	1.430554	-0.593835	-0.593954
O5	O	1.518384	-0.506049	-0.506146
O6	O	1.753268	-0.441516	-0.570694
O7	O	1.582826	-0.570670	-0.271294
O8	O	1.453917	-0.271223	-0.441652
O9	O	1.753193	-0.570616	-0.441625
O10	O	1.583001	-0.271182	-0.570709
O11	O	1.453817	-0.441611	-0.271306
O12	O	1.283541	-0.441533	-0.441618
O13	O	1.453902	-0.570479	-0.740980
O14	O	1.283534	-0.570533	-0.570649
O15	O	1.582993	-0.441438	-0.741006
O16	O	1.582817	-0.740926	-0.441590
O17	O	1.453802	-0.740866	-0.570633
C18	C	1.245417	-0.506031	-0.506132
C19	C	1.128640	-0.506048	-0.506151
C20	C	0.964071	-0.573336	-0.573238
C21	C	1.073795	-0.573325	-0.573228
C22	C	1.073755	-0.438786	-0.439073
C23	C	0.964033	-0.438804	-0.439079
C24	C	1.518326	-0.779017	-0.506129
C25	C	1.518397	-0.895794	-0.506157
C26	C	1.652712	-0.895593	-0.640645
C27	C	1.719903	-0.950353	-0.707897
C28	C	1.719965	-1.060075	-0.707919
C29	C	1.652827	-1.115039	-0.640685
C30	C	1.585637	-1.060278	-0.573433
C31	C	1.585584	-0.950554	-0.573415
C32	C	1.451318	-1.060479	-0.438952
C33	C	1.451259	-0.950757	-0.438922
C34	C	1.384180	-1.115443	-0.371718
C35	C	1.316993	-1.060682	-0.304459
C36	C	1.316935	-0.950954	-0.304438
C37	C	1.384069	-0.895997	-0.371670
C38	C	1.792417	-0.506069	-0.506161
C39	C	1.909194	-0.506077	-0.506168
C40	C	1.518458	-0.505943	-0.780180
C41	C	1.518489	-0.505898	-0.896956
C42	C	1.518471	-0.232016	-0.506187
C43	C	1.518509	-0.115239	-0.506204
C44	C	1.451338	-0.438685	-0.951824
C45	C	1.451363	-0.438652	-1.061548
C46	C	1.585698	-0.573050	-1.061527
C47	C	1.585667	-0.573087	-0.951805
C48	C	1.518372	-0.506080	-0.233179
C49	C	1.518544	-0.505829	-0.116403
H50	H	0.919424	-0.628115	-0.627866
H51	H	1.118471	-0.628095	-0.627842
H52	H	1.652875	-1.204380	-0.640718
O53	O	1.251808	-0.897649	-0.239057
C54	C	1.311614	-0.834206	-0.171208
H55	H	1.391210	-0.817673	-0.208315
H56	H	1.268781	-0.757095	-0.157078
H57	H	1.323212	-0.876544	-0.093369
H58	H	1.262330	-1.105442	-0.249727
H59	H	1.396637	-0.383975	-0.907170
H60	H	1.396681	-0.383921	-1.106217
O61	O	1.651068	-0.638157	-1.114858
C62	C	1.718947	-0.578326	-1.178359
H63	H	1.725456	-0.495592	-1.145308
H64	H	1.799787	-0.616333	-1.179601
H65	H	1.686487	-0.574674	-1.261514
H66	H	1.384232	-1.204784	-0.371745
H67	H	1.640352	-0.627824	-0.907131
H68	H	1.774564	-0.905593	-0.762640
O69	O	1.127147	-0.373582	-0.373861
C70	C	1.190567	-0.433310	-0.305884
H71	H	1.207008	-0.512970	-0.342802
H72	H	1.267723	-0.390488	-0.291877
H73	H	1.148254	-0.444767	-0.228006
H74	H	1.652678	-0.806252	-0.640623
O75	O	0.910881	-0.373364	-0.373890
C76	C	0.982809	-0.313996	-0.314662
H77	H	1.061041	-0.310389	-0.357694
H78	H	0.951104	-0.231212	-0.303596
H79	H	0.994445	-0.352375	-0.234803
O80	O	1.785321	-1.113112	-0.773290
C81	C	1.844538	-1.041079	-0.832655
H82	H	1.848170	-0.962894	-0.789612
H83	H	1.927322	-1.072718	-0.843948
H84	H	1.806008	-1.029379	-0.912409
H85	H	1.384032	-0.806656	-0.371656
