data_functionalizedCrystal
_audit_creation_method	'MofGen! by Chris Wilmer'
_symmetry_space_group_name_H-M	'P1'
_symmetry_Int_Tables_number	1
_symmetry_cell_setting	triclinic
loop_
_symmetry_equiv_pos_as_xyz
  x,y,z
_cell_length_a	18.215405
_cell_length_b	18.215407
_cell_length_c	21.395355
_cell_angle_alpha	89.977330
_cell_angle_beta	89.980149
_cell_angle_gamma	90.019398
loop_
_atom_site_label
_atom_site_type_symbol
_atom_site_fract_x
_atom_site_fract_y
_atom_site_fract_z
Zn1	Zn	-0.293177	1.125107	-0.354224
Zn2	Zn	0.206823	1.625107	0.145776
Zn3	Zn	-0.416226	1.125005	-0.249444
Zn4	Zn	0.083774	1.625005	0.250556
Zn5	Zn	-0.293166	1.002029	-0.249464
Zn6	Zn	0.206834	1.502029	0.250536
Zn7	Zn	-0.416195	1.002006	-0.354188
Zn8	Zn	0.083805	1.502006	0.145812
O9	O	-0.354691	1.063537	-0.301830
O10	O	0.145309	1.563537	0.198170
O11	O	-0.309518	1.228078	-0.340332
O12	O	0.190482	1.728078	0.159668
O13	O	-0.399909	1.108659	-0.161769
O14	O	0.100091	1.608659	0.338231
O15	O	-0.190183	1.018408	-0.263384
O16	O	0.309817	1.518408	0.236616
O17	O	-0.399921	1.228003	-0.263350
O18	O	0.100079	1.728003	0.236650
O19	O	-0.190191	1.108833	-0.340351
O20	O	0.309809	1.608833	0.159649
O21	O	-0.309498	1.018310	-0.161784
O22	O	0.190502	1.518310	0.338216
O23	O	-0.309468	0.899042	-0.263349
O24	O	0.190532	1.399042	0.236651
O25	O	-0.399868	1.018368	-0.441871
O26	O	0.100132	1.518368	0.058129
O27	O	-0.399857	0.899024	-0.340289
O28	O	0.100143	1.399024	0.159711
O29	O	-0.309488	1.108810	-0.441897
O30	O	0.190512	1.608810	0.058103
O31	O	-0.519206	1.108636	-0.263315
O32	O	-0.019206	1.608636	0.236685
O33	O	-0.519183	1.018269	-0.340270
O34	O	-0.019183	1.518269	0.159730
C35	C	-0.354658	0.872331	-0.301818
C36	C	0.145342	1.372331	0.198182
C37	C	-0.354662	0.790532	-0.301827
C38	C	0.145338	1.290532	0.198173
C39	C	-0.307709	0.525507	-0.341978
C40	C	0.192291	1.025507	0.158022
C41	C	-0.307697	0.602366	-0.341976
C42	C	0.192303	1.102366	0.158024
C43	C	-0.401697	0.602307	-0.261696
C44	C	0.098303	1.102307	0.238304
C45	C	-0.401712	0.525450	-0.261701
C46	C	0.098288	1.025450	0.238299
C47	C	-0.354714	0.487052	-0.301842
C48	C	0.145286	0.987052	0.198158
C49	C	-0.354687	0.640768	-0.301834
C50	C	0.145313	1.140768	0.198166
C51	C	-0.354674	0.724102	-0.301832
C52	C	0.145326	1.224102	0.198168
C53	C	-0.354727	0.403713	-0.301845
C54	C	0.145273	0.903713	0.198155
C55	C	-0.545897	1.063459	-0.301800
C56	C	-0.045897	1.563459	0.198200
C57	C	-0.627696	1.063493	-0.301808
C58	C	-0.127696	1.563493	0.198192
C59	C	-0.815877	1.110658	-0.261811
C60	C	-0.315877	1.610658	0.238189
C61	C	-0.892736	1.110691	-0.261827
C62	C	-0.392736	1.610691	0.238173
C63	C	-0.892752	1.016510	-0.341894
C64	C	-0.392752	1.516510	0.158106
C65	C	-0.815895	1.016481	-0.341881
C66	C	-0.315895	1.516481	0.158119
C67	C	-0.777459	1.063554	-0.301837
C68	C	-0.277459	1.563554	0.198163
C69	C	-0.931176	1.063616	-0.301864
C70	C	-0.431176	1.563616	0.198136
C71	C	-1.014509	1.063651	-0.301881
C72	C	-0.514509	1.563651	0.198119
C73	C	-0.694121	1.063520	-0.301821
C74	C	-0.194121	1.563520	0.198179
C75	C	-0.162738	1.063635	-0.301874
C76	C	0.337262	1.563635	0.198126
C77	C	-0.080939	1.063677	-0.301893
C78	C	0.419061	1.563677	0.198107
C79	C	-0.354676	1.063598	-0.465253
C80	C	0.145324	1.563598	0.034747
C81	C	-0.354670	1.063624	-0.534895
C82	C	0.145330	1.563624	-0.034895
C83	C	-0.354724	1.255490	-0.301843
C84	C	0.145276	1.755490	0.198157
C85	C	-0.354738	1.337289	-0.301848
C86	C	0.145262	1.837289	0.198152
C87	C	-0.307607	1.110715	-0.567623
C88	C	0.192393	1.610715	-0.067623
C89	C	-0.307575	1.110714	-0.633058
C90	C	0.192425	1.610714	-0.133058
C91	C	-0.354619	1.063630	-0.665763
C92	C	0.145381	1.563630	-0.165763
C93	C	-0.401686	1.016529	-0.633027
C94	C	0.098314	1.516529	-0.133027
C95	C	-0.401711	1.016526	-0.567593
C96	C	0.098289	1.516526	-0.067593
C97	C	-0.420883	1.057792	-0.769427
C98	C	0.079117	1.557792	-0.269427
C99	C	-0.420859	1.057800	-0.834860
C100	C	0.079141	1.557800	-0.334860
C101	C	-0.354542	1.063634	-0.867584
C102	C	0.145458	1.563634	-0.367584
C103	C	-0.288246	1.069476	-0.834866
C104	C	0.211754	1.569476	-0.334866
C105	C	-0.288271	1.069473	-0.769432
C106	C	0.211729	1.569473	-0.269432
C107	C	-0.354597	1.063627	-0.736716
C108	C	0.145403	1.563627	-0.236716
C109	C	-0.307440	1.110727	-0.971265
C110	C	0.192560	1.610727	-0.471265
C111	C	-0.307407	1.110721	-1.036701
C112	C	0.192593	1.610721	-0.536701
C113	C	-0.401525	1.016540	-1.036669
C114	C	0.098475	1.516540	-0.536669
C115	C	-0.401551	1.016542	-0.971234
C116	C	0.098449	1.516542	-0.471234
C117	C	-0.354510	1.063639	-0.938535
C118	C	0.145490	1.563639	-0.438535
C119	C	-0.354653	1.063518	-0.139043
C120	C	0.145347	1.563518	0.360957
C121	C	-0.354452	1.063635	-0.069402
C122	C	0.145548	1.563635	0.430598
H123	H	-0.439960	0.633580	-0.229014
H124	H	0.060040	1.133580	0.270986
H125	H	-0.269439	0.494246	-0.374663
H126	H	0.230561	0.994246	0.125337
O127	O	-0.262070	0.639640	-0.381050
O128	O	0.237930	1.139640	0.118950
C129	C	-0.278270	0.620902	-0.443474
C130	C	0.221730	1.120902	0.056526
H131	H	-0.306573	0.565095	-0.444733
H132	H	0.193427	1.065095	0.055267
H133	H	-0.225202	0.618295	-0.471646
H134	H	0.274798	1.118295	0.028354
H135	H	-0.316131	0.664163	-0.464521
H136	H	0.183869	1.164163	0.035479
H137	H	-0.784585	1.148989	-0.229206
H138	H	-0.284585	1.648989	0.270794
O139	O	-0.447398	0.488203	-0.222651
O140	O	0.052602	0.988203	0.277349
C141	C	-0.488886	0.538573	-0.187228
C142	C	0.011114	1.038573	0.312772
H143	H	-0.458729	0.593364	-0.185096
H144	H	0.041271	1.093364	0.314904
H145	H	-0.496660	0.516334	-0.137854
H146	H	0.003340	1.016334	0.362146
H147	H	-0.544814	0.546752	-0.210089
H148	H	-0.044814	1.046752	0.289911
H149	H	-0.924012	1.149048	-0.229235
H150	H	-0.424012	1.649048	0.270765
H151	H	-0.269132	1.149072	-0.944640
H152	H	0.230868	1.649072	-0.444640
O153	O	-0.930204	0.970804	-0.380728
O154	O	-0.430204	1.470804	0.119272
C155	C	-1.006279	0.980940	-0.372167
C156	C	-0.506279	1.480940	0.127833
H157	H	-1.016789	1.005078	-0.323835
H158	H	-0.516789	1.505078	0.176165
H159	H	-1.035524	0.925823	-0.376376
H160	H	-0.535524	1.425823	0.123624
H161	H	-1.028040	1.020113	-0.409366
H162	H	-0.528040	1.520113	0.090634
H163	H	-0.784613	0.978124	-0.374478
H164	H	-0.284613	1.478124	0.125522
O165	O	-0.261837	1.156482	-0.535958
O166	O	0.238163	1.656482	-0.035958
C167	C	-0.220304	1.198059	-0.578882
C168	C	0.279696	1.698059	-0.078882
H169	H	-0.217735	1.167919	-0.625517
H170	H	0.282265	1.667919	-0.125517
H171	H	-0.162328	1.205939	-0.559981
H172	H	0.337672	1.705939	-0.059981
H173	H	-0.247261	1.253938	-0.585856
H174	H	0.252739	1.753938	-0.085856
H175	H	-0.440034	0.978176	-0.540946
H176	H	0.059966	1.478176	-0.040946
H177	H	-0.269079	1.149067	-1.063347
H178	H	0.230921	1.649067	-0.563347
H179	H	-0.269246	1.149060	-0.659711
H180	H	0.230754	1.649060	-0.159711
O181	O	-0.223809	1.075113	-0.737747
O182	O	0.276191	1.575113	-0.237747
C183	C	-0.165267	1.080284	-0.780654
C184	C	0.334733	1.580284	-0.280654
H185	H	-0.182665	1.055551	-0.827292
H186	H	0.317335	1.555551	-0.327292
H187	H	-0.115808	1.049048	-0.761737
H188	H	0.384192	1.549048	-0.261737
H189	H	-0.149990	1.140431	-0.787629
H190	H	0.350010	1.640431	-0.287629
O191	O	-0.223823	1.075001	-0.866668
O192	O	0.276177	1.575001	-0.366668
C193	C	-0.214329	1.012357	-0.904501
C194	C	0.285671	1.512357	-0.404501
H195	H	-0.248115	0.965025	-0.884765
H196	H	0.251885	1.465025	-0.384765
H197	H	-0.153834	0.996364	-0.905228
H198	H	0.346166	1.496364	-0.405228
H199	H	-0.233360	1.025028	-0.954100
H200	H	0.266640	1.525028	-0.454100
H201	H	-0.439822	0.978195	-1.063297
H202	H	0.060178	1.478195	-0.563297
O203	O	-0.447342	0.970777	-0.939535
O204	O	0.052658	1.470777	-0.439535
C205	C	-0.488845	0.929203	-0.982430
C206	C	0.011155	1.429203	-0.482430
H207	H	-0.491383	0.959348	-1.029083
H208	H	0.008617	1.459348	-0.529083
H209	H	-0.546833	0.921319	-0.963519
H210	H	-0.046833	1.421319	-0.463519
H211	H	-0.461880	0.873326	-0.989373
H212	H	0.038120	1.373326	-0.489373
O213	O	-0.485318	1.052088	-0.866542
O214	O	0.014682	1.552088	-0.366542
C215	C	-0.543857	1.046944	-0.823631
C216	C	-0.043857	1.546944	-0.323631
H217	H	-0.522415	1.025626	-0.776982
H218	H	-0.022415	1.525626	-0.276982
H219	H	-0.587122	1.007546	-0.842525
H220	H	-0.087122	1.507546	-0.342525
H221	H	-0.569370	1.103499	-0.816687
H222	H	-0.069370	1.603499	-0.316687
O223	O	-0.485285	1.052207	-0.737598
O224	O	0.014715	1.552207	-0.237598
C225	C	-0.494847	1.114846	-0.699771
C226	C	0.005153	1.614846	-0.199771
H227	H	-0.439138	1.140927	-0.689942
H228	H	0.060862	1.640927	-0.189942
H229	H	-0.521714	1.098185	-0.653770
H230	H	-0.021714	1.598185	-0.153770
H231	H	-0.531418	1.156074	-0.725013
H232	H	-0.031418	1.656074	-0.225013
O233	O	-0.447489	0.970829	-0.664724
O234	O	0.052511	1.470829	-0.164724
C235	C	-0.520846	0.986885	-0.648748
C236	C	-0.020846	1.486885	-0.148748
H237	H	-0.522393	1.015171	-0.601246
H238	H	-0.022393	1.515171	-0.101246
H239	H	-0.553837	0.933755	-0.646492
H240	H	-0.053837	1.433755	-0.146492
H241	H	-0.545628	1.024711	-0.685585
H242	H	-0.045628	1.524711	-0.185585
