data_functionalizedCrystal
_audit_creation_method	'MofGen! by Chris Wilmer'
_symmetry_space_group_name_H-M	'P1'
_symmetry_Int_Tables_number	1
_symmetry_cell_setting	triclinic
loop_
_symmetry_equiv_pos_as_xyz
  x,y,z
_cell_length_a	19.805407
_cell_length_b	21.295417
_cell_length_c	21.295411
_cell_angle_alpha	89.979403
_cell_angle_beta	89.976284
_cell_angle_gamma	90.027018
loop_
_atom_site_label
_atom_site_type_symbol
_atom_site_fract_x
_atom_site_fract_y
_atom_site_fract_z
Zn1	Zn	1.034760	-0.250726	-0.355902
Zn2	Zn	1.534760	0.249274	0.144098
Zn3	Zn	1.034656	-0.355978	-0.250629
Zn4	Zn	1.534656	0.144022	0.249371
Zn5	Zn	0.921563	-0.250722	-0.250648
Zn6	Zn	1.421563	0.249278	0.249352
Zn7	Zn	0.921531	-0.355956	-0.355862
Zn8	Zn	1.421531	0.144044	0.144138
O9	O	0.978127	-0.303345	-0.303260
O10	O	1.478127	0.196655	0.196740
O11	O	1.129462	-0.264699	-0.341946
O12	O	1.629462	0.235301	0.158054
O13	O	1.019624	-0.342022	-0.162542
O14	O	1.519624	0.157978	0.337458
O15	O	0.936635	-0.162633	-0.264635
O16	O	1.436635	0.337367	0.235365
O17	O	1.129387	-0.342027	-0.264602
O18	O	1.629387	0.157973	0.235398
O19	O	1.019800	-0.162636	-0.341964
O20	O	1.519800	0.337364	0.158036
O21	O	0.936535	-0.264691	-0.162556
O22	O	1.436535	0.235309	0.337444
O23	O	0.826842	-0.264670	-0.264597
O24	O	1.326842	0.235330	0.235403
O25	O	0.936581	-0.341990	-0.443957
O26	O	1.436581	0.158010	0.056043
O27	O	0.826819	-0.341986	-0.341897
O28	O	1.326819	0.158014	0.158103
O29	O	1.019770	-0.264678	-0.443986
O30	O	1.519770	0.235322	0.056014
O31	O	1.019594	-0.444064	-0.264564
O32	O	1.519594	0.055936	0.235436
O33	O	0.936481	-0.444049	-0.341878
O34	O	1.436481	0.055951	0.158122
C35	C	0.802271	-0.303326	-0.303245
C36	C	1.302271	0.196674	0.196755
C37	C	0.727039	-0.303332	-0.303254
C38	C	1.227039	0.196668	0.196746
C39	C	0.691735	-0.263139	-0.343587
C40	C	1.191735	0.236861	0.156413
C41	C	0.621047	-0.263142	-0.343590
C42	C	1.121047	0.236858	0.156410
C43	C	0.585664	-0.303343	-0.303261
C44	C	1.085664	0.196657	0.196739
C45	C	0.620973	-0.343538	-0.262923
C46	C	1.120973	0.156462	0.237077
C47	C	0.691660	-0.343531	-0.262918
C48	C	1.191660	0.156469	0.237082
C49	C	0.335899	-0.343566	-0.262942
C50	C	0.835899	0.156434	0.237058
C51	C	0.265207	-0.343571	-0.262952
C52	C	0.765207	0.156429	0.237048
C53	C	0.265287	-0.263178	-0.343614
C54	C	0.765287	0.236822	0.156386
C55	C	0.335974	-0.263171	-0.343609
C56	C	0.835974	0.236829	0.156391
C57	C	0.371276	-0.303363	-0.303269
C58	C	0.871276	0.196637	0.196731
C59	C	0.447925	-0.303358	-0.303266
C60	C	0.947925	0.196642	0.196734
C61	C	0.509017	-0.303351	-0.303267
C62	C	1.009017	0.196649	0.196733
C63	C	0.978041	-0.466897	-0.303229
C64	C	1.478041	0.033103	0.196771
C65	C	0.978066	-0.536865	-0.303236
C66	C	1.478066	-0.036865	0.196764
C67	C	1.021346	-0.569676	-0.343530
C68	C	1.521346	-0.069676	0.156470
C69	C	1.021370	-0.635419	-0.343546
C70	C	1.521370	-0.135419	0.156454
C71	C	0.978121	-0.668348	-0.303256
C72	C	1.478121	-0.168348	0.196744
C73	C	0.934833	-0.635529	-0.262959
C74	C	1.434833	-0.135529	0.237041
C75	C	0.934806	-0.569787	-0.262949
C76	C	1.434806	-0.069787	0.237051
N77	N	0.973004	-0.771600	-0.248165
N78	N	1.473004	-0.271600	0.251835
N79	N	0.973034	-0.834051	-0.248176
N80	N	1.473034	-0.334051	0.251824
C81	C	0.978200	-0.866422	-0.303284
C82	C	1.478200	-0.366422	0.196716
N83	N	0.983349	-0.833983	-0.358382
N84	N	1.483349	-0.333983	0.141618
N85	N	0.983322	-0.771526	-0.358370
N86	N	1.483322	-0.271526	0.141630
C87	C	0.978146	-0.739633	-0.303262
C88	C	1.478146	-0.239633	0.196738
C89	C	1.021508	-0.970519	-0.343599
C90	C	1.521508	-0.470519	0.156401
C91	C	1.021527	-1.036263	-0.343615
C92	C	1.521527	-0.536263	0.156385
C93	C	0.934994	-1.036371	-0.263023
C94	C	1.434994	-0.536371	0.236977
C95	C	0.934971	-0.970629	-0.263012
C96	C	1.434971	-0.470629	0.236988
C97	C	0.978232	-0.937707	-0.303299
C98	C	1.478232	-0.437707	0.196701
C99	C	1.154670	-0.303366	-0.303276
C100	C	1.654670	0.196634	0.196724
C101	C	1.229902	-0.303374	-0.303283
C102	C	1.729902	0.196626	0.196717
C103	C	0.978184	-0.303332	-0.467451
C104	C	1.478184	0.196668	0.032549
C105	C	0.978208	-0.303326	-0.537419
C106	C	1.478208	0.196674	-0.037419
C107	C	0.978232	-0.139155	-0.303306
C108	C	1.478232	0.360845	0.196694
C109	C	0.978277	-0.069187	-0.303326
C110	C	1.478277	0.430813	0.196674
C111	C	1.021522	-0.263068	-0.570302
C112	C	1.521522	0.236932	-0.070302
C113	C	1.021521	-0.263041	-0.636044
C114	C	1.521521	0.236959	-0.136044
C115	C	0.978213	-0.303283	-0.668901
C116	C	1.478213	0.196717	-0.168901
C117	C	0.934890	-0.343544	-0.636011
C118	C	1.434890	0.156456	-0.136011
C119	C	0.934887	-0.343566	-0.570269
C120	C	1.434887	0.156434	-0.070269
N121	N	0.972992	-0.358351	-0.772118
N122	N	1.472992	0.141649	-0.272118
N123	N	0.972998	-0.358328	-0.834569
N124	N	1.472998	0.141672	-0.334569
C125	C	0.978217	-0.303219	-0.866976
C126	C	1.478217	0.196781	-0.366976
N127	N	0.983443	-0.248132	-0.834572
N128	N	1.483443	0.251868	-0.334572
N129	N	0.983440	-0.248155	-0.772115
N130	N	1.483440	0.251845	-0.272115
C131	C	0.978211	-0.303264	-0.740187
C132	C	1.478211	0.196736	-0.240187
C133	C	1.021533	-0.262928	-0.971145
C134	C	1.521533	0.237072	-0.471145
C135	C	1.021527	-0.262900	-1.036888
C136	C	1.521527	0.237100	-0.536888
C137	C	0.934900	-0.343409	-1.036854
C138	C	1.434900	0.156591	-0.536854
C139	C	0.934902	-0.343431	-0.971111
C140	C	1.434902	0.156569	-0.471111
C141	C	0.978222	-0.303192	-0.938261
C142	C	1.478222	0.196808	-0.438261
C143	C	0.978110	-0.303313	-0.139709
C144	C	1.478110	0.196687	0.360291
C145	C	0.978218	-0.303142	-0.069741
C146	C	1.478218	0.196858	0.430259
H147	H	0.236535	-0.230448	-0.376459
H148	H	0.736535	0.269552	0.123541
C149	C	0.843833	-0.352329	-0.496306
C150	C	1.343833	0.147671	0.003694
C151	C	0.887276	-0.387825	-0.534122
C152	C	1.387276	0.112175	-0.034122
H153	H	0.814438	-0.379655	-0.473994
H154	H	1.314438	0.120345	0.026006
H155	H	0.869628	-0.328374	-0.467333
H156	H	1.369628	0.171626	0.032667
H157	H	0.817962	-0.324892	-0.521949
H158	H	1.317962	0.175108	-0.021949
H159	H	0.913150	-0.415259	-0.508479
H160	H	1.413150	0.084741	-0.008479
H161	H	0.861478	-0.411791	-0.563099
H162	H	1.361478	0.088209	-0.063099
C163	C	0.843983	-1.110371	-0.254217
C164	C	1.343983	-0.610371	0.245783
C165	C	0.887449	-1.072558	-0.218738
C166	C	1.387449	-0.572558	0.281262
H167	H	0.814631	-1.132715	-0.226877
H168	H	1.314631	-0.632715	0.273123
H169	H	0.818074	-1.084728	-0.281613
H170	H	1.318074	-0.584728	0.218387
H171	H	0.869769	-1.139323	-0.278214
H172	H	1.369769	-0.639323	0.221786
H173	H	0.861663	-1.043603	-0.194744
H174	H	1.361663	-0.543603	0.305256
H175	H	0.913361	-1.098203	-0.191331
H176	H	1.413361	-0.598203	0.308669
C177	C	0.541595	-0.178488	-0.352504
C178	C	1.041595	0.321512	0.147496
C179	C	0.582239	-0.218964	-0.387929
C180	C	1.082239	0.281036	0.112071
H181	H	0.517639	-0.151212	-0.379880
H182	H	1.017639	0.348788	0.120120
H183	H	0.510411	-0.202429	-0.328490
H184	H	1.010411	0.297571	0.171510
H185	H	0.569174	-0.154365	-0.325126
H186	H	1.069174	0.345635	0.174874
H187	H	0.554659	-0.243091	-0.415304
H188	H	1.054659	0.256909	0.084696
H189	H	0.613426	-0.195021	-0.411954
H190	H	1.113426	0.304979	0.088046
C191	C	0.843851	-0.352191	-0.897148
C192	C	1.343851	0.147809	-0.397148
C193	C	0.887294	-0.387690	-0.934961
C194	C	1.387294	0.112310	-0.434961
H195	H	0.814456	-0.379516	-0.874834
H196	H	1.314456	0.120484	-0.374834
H197	H	0.869646	-0.328234	-0.868177
H198	H	1.369646	0.171766	-0.368177
H199	H	0.817981	-0.324756	-0.922793
H200	H	1.317981	0.175244	-0.422793
H201	H	0.913168	-0.415122	-0.909316
H202	H	1.413168	0.084878	-0.409316
H203	H	0.861497	-0.411658	-0.963936
H204	H	1.361497	0.088342	-0.463936
H205	H	0.720539	-0.230405	-0.376430
H206	H	1.220539	0.269595	0.123570
C207	C	0.849275	-0.576499	-0.183289
C208	C	1.349275	-0.076499	0.316711
C209	C	0.887234	-0.533717	-0.218650
C210	C	1.387234	-0.033717	0.281350
H211	H	0.819911	-0.554229	-0.155938
H212	H	1.319911	-0.054229	0.344062
H213	H	0.823380	-0.602143	-0.210698
H214	H	1.323380	-0.102143	0.289302
H215	H	0.878794	-0.602133	-0.159241
H216	H	1.378794	-0.102133	0.340759
H217	H	0.857715	-0.508086	-0.242702
H218	H	1.357715	-0.008086	0.257298
H219	H	0.913131	-0.508062	-0.191238
H220	H	1.413131	-0.008062	0.308762
C221	C	1.054578	-0.156305	-1.057129
C222	C	1.554578	0.343695	-0.557129
C223	C	1.069143	-0.218641	-1.073032
C224	C	1.569143	0.281359	-0.573032
H225	H	1.083978	-0.128982	-1.079440
H226	H	1.583978	0.371018	-0.579440
H227	H	1.009115	-0.147083	-1.067891
H228	H	1.509115	0.352917	-0.567891
H229	H	1.060777	-0.150572	-1.013273
H230	H	1.560777	0.349428	-0.513273
H231	H	1.062939	-0.224374	-1.116888
H232	H	1.562939	0.275626	-0.616888
H233	H	1.114617	-0.227865	-1.062275
H234	H	1.614617	0.272135	-0.562275
C235	C	0.415511	-0.178507	-0.352502
C236	C	0.915511	0.321493	0.147498
C237	C	0.374869	-0.218982	-0.387939
C238	C	0.874869	0.281018	0.112061
H239	H	0.439525	-0.151228	-0.379870
H240	H	0.939525	0.348772	0.120130
H241	H	0.387929	-0.154391	-0.325129
H242	H	0.887929	0.345609	0.174871
H243	H	0.446650	-0.202453	-0.328482
H244	H	0.946650	0.297547	0.171518
H245	H	0.343726	-0.195036	-0.411955
H246	H	0.843726	0.304964	0.088045
H247	H	0.402453	-0.243100	-0.415323
H248	H	0.902453	0.256900	0.084677
H249	H	1.056803	-0.230159	-0.944396
H250	H	1.556803	0.269841	-0.444396
C251	C	0.599155	-0.450087	-0.232064
C252	C	1.099155	0.049913	0.267936
C253	C	0.582082	-0.387729	-0.218592
C254	C	1.082082	0.112271	0.281408
H255	H	0.575148	-0.477369	-0.204693
H256	H	1.075148	0.022631	0.295307
H257	H	0.587587	-0.459358	-0.274338
H258	H	1.087587	0.040642	0.225662
H259	H	0.646307	-0.455825	-0.226285
H260	H	1.146307	0.044175	0.273715
H261	H	0.534930	-0.381989	-0.224375
H262	H	1.034930	0.118011	0.275625
H263	H	0.593645	-0.378455	-0.176308
H264	H	1.093645	0.121545	0.323692
C265	C	0.799986	-0.379215	-0.227090
C266	C	1.299986	0.120785	0.272910
C267	C	0.730470	-0.387713	-0.218582
C268	C	1.230470	0.112287	0.281418
H269	H	0.823943	-0.406488	-0.199713
H270	H	1.323943	0.093512	0.300287
H271	H	0.811586	-0.388492	-0.269362
H272	H	1.311586	0.111508	0.230638
H273	H	0.811573	-0.336903	-0.217955
H274	H	1.311573	0.163097	0.282045
H275	H	0.718881	-0.430024	-0.227722
H276	H	1.218881	0.069976	0.272278
H277	H	0.718865	-0.378440	-0.176300
H278	H	1.218865	0.121560	0.323700
H279	H	1.056569	-0.542873	-0.376336
H280	H	1.556569	-0.042873	0.123664
H281	H	0.236400	-0.376309	-0.230109
H282	H	0.736400	0.123691	0.269891
C283	C	0.896452	-0.379135	-1.137611
C284	C	1.396452	0.120865	-0.637611
C285	C	0.887301	-0.387652	-1.072963
C286	C	1.387301	0.112348	-0.572963
H287	H	0.867069	-0.406453	-1.159904
H288	H	1.367069	0.093547	-0.659904
H289	H	0.886565	-0.336842	-1.148382
H290	H	1.386565	0.163158	-0.648382
H291	H	0.941928	-0.388343	-1.148392
H292	H	1.441928	0.111657	-0.648392
H293	H	0.841826	-0.378438	-1.062182
H294	H	1.341826	0.121562	-0.562182
H295	H	0.897184	-0.429954	-1.062188
H296	H	1.397184	0.070046	-0.562188
H297	H	1.056607	-0.662139	-0.376365
H298	H	1.556607	-0.162139	0.123635
C299	C	0.896461	-0.736354	-0.227185
C300	C	1.396461	-0.236354	0.272815
C301	C	0.887295	-0.671721	-0.218670
C302	C	1.387295	-0.171721	0.281330
H303	H	0.867112	-0.758696	-0.199840
H304	H	1.367112	-0.258696	0.300160
H305	H	0.886537	-0.747112	-0.269468
H306	H	1.386537	-0.247112	0.230532
H307	H	0.941950	-0.747089	-0.218010
H308	H	1.441950	-0.247089	0.281990
H309	H	0.841807	-0.660987	-0.227849
H310	H	1.341807	-0.160987	0.272151
H311	H	0.897214	-0.660959	-0.176377
H312	H	1.397214	-0.160959	0.323623
H313	H	0.364634	-0.376294	-0.230095
H314	H	0.864634	0.123706	0.269905
H315	H	1.056770	-1.062977	-0.376430
H316	H	1.556770	-0.562977	0.123570
C317	C	1.107030	-0.977013	-0.423273
C318	C	1.607030	-0.477013	0.076727
C319	C	1.069045	-0.934326	-0.387892
C320	C	1.569045	-0.434326	0.112108
H321	H	1.136373	-0.954668	-0.450622
H322	H	1.636373	-0.454668	0.049378
H323	H	1.132950	-1.002645	-0.395876
H324	H	1.632950	-0.502645	0.104124
H325	H	1.077527	-1.002668	-0.447324
H326	H	1.577527	-0.502668	0.052676
H327	H	1.098549	-0.908674	-0.363837
H328	H	1.598549	-0.408674	0.136163
H329	H	1.043123	-0.908683	-0.415293
H330	H	1.543123	-0.408683	0.084707
H331	H	0.899732	-0.943912	-0.230198
H332	H	1.399732	-0.443912	0.269802
H333	H	1.056796	-0.230301	-0.543559
H334	H	1.556796	0.269699	-0.043559
H335	H	1.056791	-0.230254	-0.662823
H336	H	1.556791	0.269746	-0.162823
C337	C	0.896441	-0.379267	-0.736773
C338	C	1.396441	0.120733	-0.236773
C339	C	0.887288	-0.387783	-0.672125
C340	C	1.387288	0.112217	-0.172125
H341	H	0.867054	-0.406581	-0.759067
H342	H	1.367054	0.093419	-0.259067
H343	H	0.886561	-0.336973	-0.747544
H344	H	1.386561	0.163027	-0.247544
H345	H	0.941916	-0.388481	-0.747554
H346	H	1.441916	0.111519	-0.247554
H347	H	0.841815	-0.378564	-0.661344
H348	H	1.341815	0.121436	-0.161344
H349	H	0.897164	-0.430087	-0.661350
H350	H	1.397164	0.069913	-0.161350
