data_functionalizedCrystal
_audit_creation_method	'MofGen! by Chris Wilmer'
_symmetry_space_group_name_H-M	'P1'
_symmetry_Int_Tables_number	1
_symmetry_cell_setting	triclinic
loop_
_symmetry_equiv_pos_as_xyz
  x,y,z
_cell_length_a	18.101398
_cell_length_b	13.032721
_cell_length_c	13.032268
_cell_angle_alpha	76.710373
_cell_angle_beta	97.157621
_cell_angle_gamma	82.799479
loop_
_atom_site_label
_atom_site_type_symbol
_atom_site_fract_x
_atom_site_fract_y
_atom_site_fract_z
Zn1	Zn	1.028325	0.499224	-0.654372
Zn2	Zn	1.528325	0.999224	-0.154372
Zn3	Zn	1.028244	0.654309	-0.499320
Zn4	Zn	1.528244	1.154309	0.000680
Zn5	Zn	0.922501	0.476704	-0.476774
Zn6	Zn	1.422501	0.976704	0.023226
Zn7	Zn	0.886455	0.676763	-0.676838
Zn8	Zn	1.386455	1.176763	-0.176838
O9	O	0.966381	0.576750	-0.576826
O10	O	1.466381	1.076750	-0.076826
O11	O	1.131942	0.519824	-0.633837
O12	O	1.631942	1.019824	-0.133837
O13	O	1.029269	0.611927	-0.347711
O14	O	1.529269	1.111927	0.152289
O15	O	0.951658	0.331063	-0.481495
O16	O	1.451658	0.831063	0.018505
O17	O	1.131883	0.633764	-0.519921
O18	O	1.631883	1.133764	-0.019921
O19	O	1.029407	0.347609	-0.611975
O20	O	1.529407	0.847609	-0.111975
O21	O	0.951579	0.481442	-0.331147
O22	O	1.451579	0.981442	0.168853
O23	O	0.814092	0.503215	-0.503280
O24	O	1.314092	1.003215	-0.003280
O25	O	0.890223	0.672034	-0.822475
O26	O	1.390223	1.172034	-0.322475
O27	O	0.787609	0.650197	-0.650266
O28	O	1.287609	1.150197	-0.150266
O29	O	0.994454	0.541597	-0.805969
O30	O	1.494454	1.041597	-0.305969
O31	O	0.994317	0.805916	-0.541705
O32	O	1.494317	1.305916	-0.041705
O33	O	0.890144	0.822413	-0.672127
O34	O	1.390144	1.322413	-0.172127
C35	C	0.773981	0.576700	-0.576765
C36	C	1.273981	1.076700	-0.076765
C37	C	0.691666	0.576707	-0.576767
C38	C	1.191666	1.076707	-0.076767
C39	C	0.938328	0.852705	-0.611824
C40	C	1.438328	1.352705	-0.111824
C41	C	0.926391	0.970764	-0.626832
C42	C	1.426391	1.470764	-0.126832
C43	C	0.938327	0.611832	-0.853835
C44	C	1.438327	1.111832	-0.353835
C45	C	0.926371	0.626782	-0.971879
C46	C	1.426371	1.126782	-0.471879
C47	C	0.392559	0.576785	-0.576865
C48	C	0.892559	1.076785	-0.076865
C49	C	0.440523	0.483948	-0.484733
C50	C	0.940523	0.983948	0.015267
C51	C	0.526154	0.484125	-0.484413
C52	C	1.026154	0.984125	0.015587
C53	C	0.540950	0.576745	-0.576816
C54	C	1.040950	1.076745	-0.076816
C55	C	0.501599	0.684750	-0.560440
C56	C	1.001599	1.184750	-0.060440
C57	C	0.416058	0.684220	-0.559814
C58	C	0.916058	1.184220	-0.059814
C59	C	0.415648	0.562613	-0.685689
C60	C	0.915648	1.062613	-0.185689
C61	C	0.501613	0.560044	-0.684759
C62	C	1.001613	1.060044	-0.184759
C63	C	0.624813	0.576730	-0.576792
C64	C	1.124813	1.076730	-0.076792
C65	C	0.308696	0.576807	-0.576888
C66	C	0.808696	1.076807	-0.076888
C67	C	1.159533	0.576801	-0.576888
C68	C	1.659533	1.076801	-0.076888
C69	C	1.241843	0.576823	-0.576914
C70	C	1.741843	1.076823	-0.076914
C71	C	0.994562	0.299721	-0.541714
C72	C	1.494562	0.799721	-0.041714
C73	C	1.006571	0.181667	-0.526752
C74	C	1.506571	0.681667	-0.026752
C75	C	0.972646	1.015207	-0.569041
C76	C	1.472646	1.515207	-0.069041
C77	C	0.960309	1.137227	-0.584551
C78	C	1.460309	1.637227	-0.084551
C79	C	0.972613	0.568909	-1.016340
C80	C	1.472613	1.068909	-0.516340
C81	C	0.960258	0.584359	-1.138346
C82	C	1.460258	1.084359	-0.638346
C83	C	0.994377	0.541728	-0.300885
C84	C	1.494377	1.041728	0.199115
C85	C	1.006506	0.526479	-0.182803
C86	C	1.506506	1.026479	0.317197
H87	H	0.553655	0.403590	-0.493048
H88	H	1.053655	0.903590	0.006952
O89	O	0.537598	0.703582	-0.456864
O90	O	1.037598	1.203582	0.043136
H91	H	0.561235	0.779195	-0.473699
H92	H	1.061235	1.279195	0.026301
O93	O	0.861810	0.707560	-1.041095
O94	O	1.361810	1.207560	-0.541095
H95	H	0.829812	0.747596	-0.989967
H96	H	1.329812	1.247596	-0.489967
H97	H	1.021347	0.507921	-0.964081
H98	H	1.521347	1.007921	-0.464081
O99	O	0.421856	0.376897	-0.495785
O100	O	0.921856	0.876897	0.004215
H101	H	0.378196	0.388709	-0.567062
H102	H	0.878196	0.888709	-0.067062
H103	H	0.425494	0.492026	-0.404266
H104	H	0.925494	0.992026	0.095734
O105	O	0.895692	0.665147	-1.207550
O106	O	1.395692	1.165147	-0.707550
H107	H	0.896122	0.664608	-1.292517
H108	H	1.396122	1.164608	-0.792517
O109	O	0.895749	1.206478	-0.665300
O110	O	1.395749	1.706478	-0.165300
H111	H	0.902095	1.195773	-0.745989
H112	H	1.402095	1.695773	-0.245989
H113	H	0.553155	0.492353	-0.403487
H114	H	1.053155	0.992353	0.096513
O115	O	1.037208	0.945968	-0.488293
O116	O	1.537208	1.445968	0.011707
H117	H	1.091337	0.969451	-0.509280
H118	H	1.591337	1.469451	-0.009280
H119	H	0.401941	0.697907	-0.480681
H120	H	0.901941	1.197907	0.019319
H121	H	0.383128	0.754968	-0.624764
H122	H	0.883128	1.254968	-0.124764
O123	O	1.071071	0.445694	-1.113593
O124	O	1.571071	0.945694	-0.613593
H125	H	1.103062	0.405649	-1.164722
H126	H	1.603062	0.905649	-0.664722
O127	O	1.071135	1.112431	-0.445998
O128	O	1.571135	1.612431	0.054002
H129	H	1.070693	1.027456	-0.446482
H130	H	1.570693	1.527456	0.053518
H131	H	0.509725	0.755157	-0.626067
H132	H	1.009725	1.255157	-0.126067
H133	H	0.399377	0.485975	-0.703315
H134	H	0.899377	0.985975	-0.203315
O135	O	0.861833	1.040018	-0.707577
O136	O	1.361833	1.540018	-0.207577
H137	H	0.868180	1.029312	-0.788266
H138	H	1.368180	1.529312	-0.288266
O139	O	0.536508	0.454863	-0.701473
O140	O	1.036508	0.954863	-0.201473
H141	H	0.581683	0.414642	-0.633197
H142	H	1.081683	0.914642	-0.133197
H143	H	0.510873	0.623871	-0.755933
H144	H	1.010873	1.123871	-0.255933
H145	H	0.383133	0.630405	-0.754160
H146	H	0.883133	1.130405	-0.254160
