data_functionalizedCrystal
_audit_creation_method	'MofGen! by Chris Wilmer'
_symmetry_space_group_name_H-M	'P1'
_symmetry_Int_Tables_number	1
_symmetry_cell_setting	triclinic
loop_
_symmetry_equiv_pos_as_xyz
  x,y,z
_cell_length_a	16.959455
_cell_length_b	16.959447
_cell_length_c	13.032721
_cell_angle_alpha	82.848812
_cell_angle_beta	82.796337
_cell_angle_gamma	89.983277
loop_
_atom_site_label
_atom_site_type_symbol
_atom_site_fract_x
_atom_site_fract_y
_atom_site_fract_z
Zn1	Zn	1.168408	-0.486915	0.416047
Zn2	Zn	1.668408	0.013085	0.916047
Zn3	Zn	1.151538	-0.371521	0.590818
Zn4	Zn	1.651538	0.128479	1.090818
Zn5	Zn	1.036233	-0.354751	0.416086
Zn6	Zn	1.536233	0.145249	0.916086
Zn7	Zn	1.019416	-0.503647	0.590746
Zn8	Zn	1.519416	-0.003647	1.090746
O9	O	1.093899	-0.429209	0.503424
O10	O	1.593899	0.070791	1.003424
O11	O	1.276780	-0.471624	0.439245
O12	O	1.776780	0.028376	0.939245
O13	O	1.136221	-0.258690	0.567686
O14	O	1.636221	0.241310	1.067686
O15	O	1.067865	-0.358262	0.269843
O16	O	1.567865	0.141738	0.769843
O17	O	1.264386	-0.386844	0.567648
O18	O	1.764386	0.113156	1.067648
O19	O	1.164973	-0.455363	0.269814
O20	O	1.664973	0.044637	0.769814
O21	O	1.051507	-0.246369	0.439311
O22	O	1.551507	0.253631	0.939311
O23	O	0.923393	-0.374486	0.439241
O24	O	1.423393	0.125514	0.939241
O25	O	1.039202	-0.612034	0.567526
O26	O	1.539202	-0.112034	1.067526
O27	O	0.911037	-0.483880	0.567563
O28	O	1.411037	0.016120	1.067563
O29	O	1.148666	-0.599741	0.439175
O30	O	1.648666	-0.099741	0.939175
O31	O	1.119914	-0.403069	0.737047
O32	O	1.619914	0.096931	1.237047
O33	O	1.022844	-0.500141	0.736994
O34	O	1.522844	-0.000141	1.236994
C35	C	0.888535	-0.429179	0.503400
C36	C	1.388535	0.070821	1.003400
C37	C	0.800677	-0.429188	0.503414
C38	C	1.300677	0.070812	1.003414
C39	C	0.765822	-0.372304	0.436507
C40	C	1.265822	0.127696	0.936507
C41	C	0.752978	-0.486085	0.570328
C42	C	1.252978	0.013915	1.070328
C43	C	0.670431	-0.486098	0.570340
C44	C	1.170431	0.013902	1.070340
C45	C	0.635576	-0.429213	0.503434
C46	C	1.135576	0.070787	1.003434
C47	C	0.683268	-0.372316	0.436515
C48	C	1.183268	0.127684	0.936515
C49	C	0.622734	-0.542999	0.637250
C50	C	1.122734	-0.042999	1.137250
C51	C	0.540182	-0.543014	0.637264
C52	C	1.040182	-0.043014	1.137264
C53	C	0.505325	-0.486126	0.570362
C54	C	1.005325	0.013874	1.070362
C55	C	0.553022	-0.429226	0.503442
C56	C	1.053022	0.070774	1.003442
C57	C	0.518166	-0.372341	0.436535
C58	C	1.018166	0.127659	0.936535
C59	C	0.565861	-0.315437	0.369619
C60	C	1.065861	0.184563	0.869619
C61	C	0.648410	-0.315428	0.369613
C62	C	1.148410	0.184572	0.869613
C63	C	0.422776	-0.486135	0.570368
C64	C	0.922776	0.013865	1.070368
C65	C	0.435612	-0.372354	0.436543
C66	C	0.935612	0.127646	0.936543
C67	C	1.093940	-0.635369	0.503338
C68	C	1.593940	-0.135369	1.003338
C69	C	1.093958	-0.723222	0.503301
C70	C	1.593958	-0.223222	1.003301
C71	C	1.037070	-1.101090	0.570017
C72	C	1.537070	-0.601090	1.070017
C73	C	1.151056	-1.088284	0.436365
C74	C	1.651056	-0.588284	0.936365
C75	C	1.151033	-1.005740	0.436387
C76	C	1.651033	-0.505740	0.936387
C77	C	1.094028	-0.970868	0.503226
C78	C	1.594028	-0.470868	1.003226
C79	C	1.037046	-1.018539	0.570043
C80	C	1.537046	-0.518539	1.070043
C81	C	1.208018	-0.958064	0.369578
C82	C	1.708018	-0.458064	0.869578
C83	C	1.207998	-0.875515	0.369599
C84	C	1.707998	-0.375515	0.869599
C85	C	1.150989	-0.840640	0.436434
C86	C	1.650989	-0.340640	0.936434
C87	C	1.094004	-0.888317	0.503253
C88	C	1.594004	-0.388317	1.003253
C89	C	1.037000	-0.853444	0.570092
C90	C	1.537000	-0.353444	1.070092
C91	C	0.980011	-0.901118	0.636907
C92	C	1.480011	-0.401118	1.136907
C93	C	0.980037	-0.983664	0.636878
C94	C	1.480037	-0.483664	1.136878
C95	C	1.150963	-0.758094	0.436462
C96	C	1.650963	-0.258094	0.936462
C97	C	1.036976	-0.770893	0.570118
C98	C	1.536976	-0.270893	1.070118
C99	C	1.300065	-0.429238	0.503450
C100	C	1.800065	0.070762	1.003450
C101	C	1.387920	-0.429251	0.503461
C102	C	1.887920	0.070749	1.003461
C103	C	1.067745	-0.455258	0.774938
C104	C	1.567745	0.044742	1.274938
C105	C	1.056628	-0.466428	0.891093
C106	C	1.556628	0.033572	1.391093
C107	C	1.093911	-0.223843	0.503435
C108	C	1.593911	0.276157	1.003435
C109	C	1.094075	-0.135962	0.503178
C110	C	1.594075	0.364038	1.003178
C111	C	1.120177	-0.403075	0.230851
C112	C	1.620177	0.096925	0.730851
C113	C	1.131375	-0.391939	0.114696
C114	C	1.631375	0.108061	0.614696
C115	C	1.099743	-0.423414	0.942870
C116	C	1.599743	0.076586	1.442870
C117	C	1.088254	-0.434958	1.062922
C118	C	1.588254	0.065042	1.562922
H119	H	0.537472	-0.269125	0.315138
H120	H	1.037472	0.230875	0.815138
H121	H	0.651120	-0.589313	0.691719
H122	H	1.151120	-0.089313	1.191719
H123	H	1.254433	-0.986464	0.315168
H124	H	1.754433	-0.486464	0.815168
F125	F	0.997267	-0.525738	0.949317
F126	F	1.497267	-0.025738	1.449317
H127	H	1.042837	-0.480336	1.107467
H128	H	1.542837	0.019664	1.607467
H129	H	1.176799	-0.346566	1.070151
H130	H	1.676799	0.153434	1.570151
H131	H	0.407239	-0.326030	0.382060
H132	H	0.907239	0.173970	0.882060
H133	H	0.687251	-0.269100	0.315133
H134	H	1.187251	0.230900	0.815133
F135	F	0.816581	-0.311744	0.365297
F136	F	1.316581	0.188256	0.865297
H137	H	0.990669	-1.139909	0.624413
H138	H	1.490669	-0.639909	1.124413
H139	H	1.197364	-0.719282	0.382065
H140	H	1.697364	-0.219282	0.882065
F141	F	0.790075	-0.546618	0.641536
F142	F	1.290075	-0.046618	1.141536
H143	H	0.501355	-0.589348	0.691753
H144	H	1.001355	-0.089348	1.191753
H145	H	0.383947	-0.532470	0.624843
H146	H	0.883947	-0.032470	1.124843
H147	H	0.990549	-0.742505	0.624538
H148	H	1.490549	-0.242505	1.124538
F149	F	0.919348	-0.863995	0.708045
F150	F	1.419348	-0.363995	1.208045
H151	H	1.197470	-1.116683	0.381953
H152	H	1.697470	-0.616683	0.881953
F153	F	1.159112	-0.364113	0.884646
F154	F	1.659112	0.135887	1.384646
H155	H	0.933643	-1.022488	0.691279
H156	H	1.433643	-0.522488	1.191279
F157	F	1.268648	-0.824783	0.298487
F158	F	1.768648	-0.324783	0.798487
