data_functionalizedCrystal
_audit_creation_method	'MofGen! by Chris Wilmer'
_symmetry_space_group_name_H-M	'P1'
_symmetry_Int_Tables_number	1
_symmetry_cell_setting	triclinic
loop_
_symmetry_equiv_pos_as_xyz
  x,y,z
_cell_length_a	18.215407
_cell_length_b	21.295417
_cell_length_c	18.215399
_cell_angle_alpha	89.968895
_cell_angle_beta	89.982187
_cell_angle_gamma	90.024215
loop_
_atom_site_label
_atom_site_type_symbol
_atom_site_fract_x
_atom_site_fract_y
_atom_site_fract_z
Zn1	Zn	1.125047	-0.250708	-0.416060
Zn2	Zn	1.124945	-0.355979	-0.292987
Zn3	Zn	1.001980	-0.250718	-0.293012
Zn4	Zn	1.001935	-0.355933	-0.416016
O5	O	1.063477	-0.303334	-0.354519
O6	O	1.228018	-0.264687	-0.399742
O7	O	1.108610	-0.342039	-0.190006
O8	O	1.018366	-0.162627	-0.309363
O9	O	1.227943	-0.342030	-0.309321
O10	O	1.108783	-0.162620	-0.399766
O11	O	1.018267	-0.264704	-0.190024
O12	O	0.898990	-0.264659	-0.309321
O13	O	1.018290	-0.341951	-0.519006
O14	O	0.898957	-0.341961	-0.399691
O15	O	1.108740	-0.264643	-0.519039
O16	O	1.108567	-0.444062	-0.309278
O17	O	1.018192	-0.444029	-0.399667
C18	C	0.872271	-0.303307	-0.354504
C19	C	0.790472	-0.303310	-0.354516
C20	C	0.525448	-0.263140	-0.401676
C21	C	0.602306	-0.263130	-0.401674
C22	C	0.602248	-0.343549	-0.307377
C23	C	0.525390	-0.343562	-0.307384
C24	C	0.486992	-0.303354	-0.354532
C25	C	0.640708	-0.303331	-0.354523
C26	C	0.724042	-0.303320	-0.354520
C27	C	0.403653	-0.303365	-0.354536
C28	C	1.063383	-0.466886	-0.354481
C29	C	1.063410	-0.536854	-0.354490
C30	C	1.110464	-0.569660	-0.401597
C31	C	1.110490	-0.635402	-0.401615
C32	C	1.063470	-0.668337	-0.354513
C33	C	1.016408	-0.635523	-0.307404
C34	C	1.016378	-0.569782	-0.307392
N35	N	1.057911	-0.771599	-0.290107
N36	N	1.057944	-0.834050	-0.290120
C37	C	1.063556	-0.866411	-0.354547
N38	N	1.069149	-0.833962	-0.418961
N39	N	1.069120	-0.771505	-0.418947
C40	C	1.063497	-0.739622	-0.354521
C41	C	1.110640	-0.970503	-0.401677
C42	C	1.110661	-1.036246	-0.401696
C43	C	1.016583	-1.036366	-0.307478
C44	C	1.016558	-0.970623	-0.307465
C45	C	1.063591	-0.937696	-0.354564
C46	C	1.255430	-0.303363	-0.354534
C47	C	1.337229	-0.303375	-0.354540
C48	C	1.063522	-0.303291	-0.546472
C49	C	1.063541	-0.303272	-0.628271
C50	C	1.063591	-0.139144	-0.354572
C51	C	1.063640	-0.069176	-0.354595
C52	C	1.110655	-0.262980	-0.816483
C53	C	1.110664	-0.262962	-0.893341
C54	C	1.016479	-0.343467	-0.893297
C55	C	1.016467	-0.343482	-0.816439
C56	C	1.063559	-0.303239	-0.778034
C57	C	1.063580	-0.303206	-0.931750
C58	C	1.063589	-0.303187	-1.015084
C59	C	1.063549	-0.303258	-0.694695
C60	C	1.063475	-0.303332	-0.163312
C61	C	1.063598	-0.303173	-0.081514
H62	H	0.494079	-0.376313	-0.268993
H63	H	0.978140	-0.376233	-0.924575
H64	H	0.978111	-0.376265	-0.785134
N65	N	0.641474	-0.384603	-0.259202
N66	N	0.632863	-0.380353	-0.191305
H67	H	0.660566	-0.409346	-0.157277
H68	H	0.494186	-0.230399	-0.440067
N69	N	1.158740	-0.221861	-0.777252
N70	N	1.132862	-0.181753	-0.734379
H71	H	1.166820	-0.152708	-0.706674
N72	N	0.641575	-0.222041	-0.449828
N73	N	0.633002	-0.163952	-0.445063
H74	H	0.660734	-0.134931	-0.479075
N75	N	1.158509	-0.536036	-0.449710
N76	N	1.200518	-0.565340	-0.491767
H77	H	1.234450	-0.541593	-0.525749
N78	N	1.158560	-0.668912	-0.449740
N79	N	1.200546	-0.639505	-0.491788
H80	H	1.234497	-0.663169	-0.525777
H81	H	0.978061	-0.543071	-0.269031
N82	N	0.968378	-0.669171	-0.259300
N83	N	0.968411	-0.727868	-0.259316
H84	H	0.934486	-0.751632	-0.225343
H85	H	1.149013	-0.230178	-0.924643
H86	H	1.148934	-0.943692	-0.440029
N87	N	0.968540	-1.069990	-0.259368
N88	N	0.900627	-1.062688	-0.264192
H89	H	0.866692	-1.086437	-0.230216
H90	H	1.148977	-1.062956	-0.440059
N91	N	0.968490	-0.937119	-0.259341
N92	N	0.926508	-0.966529	-0.217291
H93	H	0.892555	-0.942867	-0.183302
