data_functionalizedCrystal
_audit_creation_method	'MofGen! by Chris Wilmer'
_symmetry_space_group_name_H-M	'P1'
_symmetry_Int_Tables_number	1
_symmetry_cell_setting	triclinic
loop_
_symmetry_equiv_pos_as_xyz
  x,y,z
_cell_length_a	27.732048
_cell_length_b	10.540539
_cell_length_c	9.616153
_cell_angle_alpha	89.999862
_cell_angle_beta	90.011429
_cell_angle_gamma	96.415927
loop_
_atom_site_label
_atom_site_type_symbol
_atom_site_fract_x
_atom_site_fract_y
_atom_site_fract_z
O1	O	0.068115	-1.682925	0.115597
O2	O	0.074533	-1.313233	0.115616
O3	O	0.001000	-1.509561	0.115579
O4	O	0.141649	-1.486597	0.115634
O5	O	0.000994	-1.509553	-0.115712
O6	O	0.074528	-1.313226	-0.115676
O7	O	0.068110	-1.682917	-0.115694
Zn8	Zn	0.071318	-1.498070	-0.152407
Zn9	Zn	0.071325	-1.498080	0.152329
O10	O	0.141643	-1.486590	-0.115658
C11	C	0.074049	-1.265947	-0.000028
C12	C	0.072609	-1.125062	-0.000022
C13	C	-0.017013	-1.509075	-0.000070
C14	C	-0.070677	-1.507623	-0.000081
C15	C	0.068594	-1.730203	-0.000048
C16	C	0.070034	-1.871089	-0.000044
C17	C	-0.408819	-1.614502	-0.000015
C18	C	-0.610513	-1.609117	0.000004
O19	O	-0.641153	-1.706850	0.000060
N20	N	-0.630369	-1.492703	0.000009
C21	C	-0.599799	-1.377627	0.000018
O22	O	-0.621317	-1.278486	0.000036
C23	C	-0.398107	-1.383013	0.000008
C24	C	-0.378253	-1.499435	-0.000011
C25	C	-0.388965	-1.730915	-0.000033
C26	C	-0.338544	-1.732260	-0.000045
C27	C	-0.307978	-1.617193	-0.000040
C28	C	-0.327832	-1.500780	-0.000023
C29	C	-0.367538	-1.267939	0.000027
C30	C	-0.317112	-1.269296	0.000028
C31	C	-0.297258	-1.385718	0.000009
C32	C	-0.246846	-1.387058	-0.000031
N33	N	-0.226989	-1.503472	-0.000036
C34	C	-0.257555	-1.618540	-0.000040
C35	C	-0.705691	-1.374807	0.000020
C36	C	-0.756114	-1.373460	0.000020
C37	C	-0.766824	-1.604950	0.000009
C38	C	-0.716400	-1.606296	-0.000001
C39	C	-0.685834	-1.491221	0.000015
C40	C	-0.151668	-1.621356	-0.000068
C41	C	-0.101243	-1.622691	-0.000086
C42	C	-0.090538	-1.391201	-0.000068
C43	C	-0.140959	-1.389865	-0.000057
C44	C	-0.171523	-1.504953	-0.000052
O45	O	-0.216177	-1.289377	-0.000071
O46	O	-0.236029	-1.717666	-0.000028
C47	C	-0.459239	-1.613157	-0.000003
C48	C	-0.479094	-1.496745	0.000014
C49	C	-0.448528	-1.381678	0.000019
C50	C	-0.529517	-1.495398	0.000014
C51	C	-0.560083	-1.610465	0.000009
C52	C	-0.540226	-1.726879	0.000005
C53	C	-0.489806	-1.728224	-0.000008
C54	C	-0.468384	-1.265264	0.000023
C55	C	-0.518805	-1.263928	0.000034
C56	C	-0.549371	-1.378995	0.000030
C57	C	0.159656	-1.487075	-0.000005
C58	C	0.213320	-1.488527	0.000015
N59	N	0.071313	-1.498073	-0.360382
C60	C	0.017434	-0.944031	-0.000583
C61	C	0.018894	-1.090586	-0.000047
C62	C	0.098462	-1.062271	0.132062
C63	C	0.096629	-0.915806	0.132157
C64	C	0.097716	-0.915261	-0.130864
C65	C	0.098211	-1.062222	-0.132595
C66	C	0.032114	-1.603476	-0.580728
C67	C	0.031964	-1.603202	-0.419561
C68	C	0.059841	-1.365866	-0.418911
C69	C	0.059567	-1.366495	-0.580129
C70	C	0.122122	-1.523709	-0.580238
C71	C	0.121790	-1.526718	-0.419010
N72	N	0.071326	-1.498088	0.360303
H73	H	-0.176549	-1.715071	-0.000059
H74	H	-0.473646	-1.823027	-0.000022
H75	H	-0.003695	-0.914744	0.093599
N76	N	0.095919	-1.259558	-0.631828
H77	H	0.121311	-1.296125	-0.690180
H78	H	0.112017	-1.212250	-0.549817
H79	H	-0.085081	-1.717499	-0.000105
N80	N	-0.421930	-1.855030	-0.000047
H81	H	-0.415489	-1.905875	0.085683
H82	H	-0.415481	-1.905746	-0.085853
H83	H	0.152370	-1.454855	-0.378722
H84	H	-0.534965	-1.169116	0.000037
N85	N	-0.010682	-0.907362	-0.126042
H86	H	-0.044326	-0.955228	-0.124371
H87	H	0.006647	-0.929772	-0.213528
H88	H	0.077526	-0.888428	0.230876
N89	N	-0.008230	-1.147060	0.125581
H90	H	0.014458	-1.191847	0.185780
H91	H	-0.036142	-1.210375	0.094208
H92	H	0.151308	-1.446847	-0.618378
H93	H	-0.791720	-1.698643	0.000005
H94	H	-0.157124	-1.295065	-0.000081
N95	N	-0.017528	-1.582258	-0.634396
H96	H	-0.031582	-1.659570	-0.688947
H97	H	-0.014690	-1.504638	-0.696688
H98	H	-0.001448	-1.134080	-0.094731
N99	N	-0.317134	-1.857829	-0.000060
H100	H	-0.344155	-1.930509	-0.000058
H101	H	-0.296441	-1.863439	0.085681
H102	H	0.135261	-0.866159	0.138167
H103	H	0.023200	-1.342546	-0.378561
N104	N	0.150713	-1.089619	0.138618
H105	H	0.158146	-1.143103	0.055831
H106	H	0.156236	-1.137492	0.227145
N107	N	-0.017957	-1.581653	-0.368493
H108	H	-0.039950	-1.572286	-0.450711
H109	H	-0.015651	-1.501400	-0.310363
H110	H	0.080507	-1.105642	0.230347
H111	H	-0.772274	-1.278658	0.000011
N112	N	-0.694991	-1.731867	-0.000016
H113	H	-0.674303	-1.737599	0.085722
H114	H	-0.674340	-1.737507	-0.085815
N115	N	-0.573199	-1.850990	-0.000013
H116	H	-0.608152	-1.832458	-0.000005
H117	H	-0.566720	-1.901774	0.085726
N118	N	0.074689	-0.874480	-0.263487
H119	H	0.046076	-0.826949	-0.240106
H120	H	0.063314	-0.952413	-0.320796
N121	N	0.073197	-1.117553	-0.262038
H122	H	0.045396	-1.183053	-0.234932
H123	H	0.097148	-1.159532	-0.320606
H124	H	-0.680808	-1.281093	0.000033
N125	N	0.149109	-0.850482	-0.132035
H126	H	0.154456	-0.792797	-0.048285
H127	H	0.154700	-0.798163	-0.219716
H128	H	0.137373	-1.084747	-0.140555
H129	H	-0.383693	-1.173136	0.000050
N130	N	0.010476	-1.336407	-0.629985
H131	H	0.014510	-1.256350	-0.688497
H132	H	-0.010754	-1.322924	-0.547163
N133	N	-0.284145	-1.145176	0.000052
H134	H	-0.304377	-1.071228	0.000065
H135	H	-0.262998	-1.140680	-0.085694
N136	N	0.041100	-1.733417	-0.367127
H137	H	0.045261	-1.791513	-0.448743
H138	H	0.012627	-1.770432	-0.308951
N139	N	-0.057564	-1.267100	-0.000044
H140	H	-0.077789	-1.193138	-0.000029
H141	H	-0.036414	-1.262609	-0.085785
N142	N	-0.435420	-1.141149	0.000030
H143	H	-0.455655	-1.067207	0.000034
H144	H	-0.414275	-1.136659	-0.085720
N145	N	0.096630	-1.259522	-0.368128
H146	H	0.130093	-1.275628	-0.400143
H147	H	0.095857	-1.256313	-0.263192
N148	N	0.041109	-1.734145	-0.632065
H149	H	0.074248	-1.753578	-0.600591
H150	H	0.039535	-1.735961	-0.736986
N151	N	0.136583	-1.648608	-0.634073
H152	H	0.110349	-1.689849	-0.697561
H153	H	0.141064	-1.707294	-0.553201
H154	H	0.130484	-1.623970	-0.380756
