data_functionalizedCrystal
_audit_creation_method	'MofGen! by Chris Wilmer'
_symmetry_space_group_name_H-M	'P1'
_symmetry_Int_Tables_number	1
_symmetry_cell_setting	triclinic
loop_
_symmetry_equiv_pos_as_xyz
  x,y,z
_cell_length_a	15.995350
_cell_length_b	14.044220
_cell_length_c	13.101039
_cell_angle_alpha	86.332523
_cell_angle_beta	93.354042
_cell_angle_gamma	88.340626
loop_
_atom_site_label
_atom_site_type_symbol
_atom_site_fract_x
_atom_site_fract_y
_atom_site_fract_z
O1	O	-1.124322	-0.116953	-0.085130
O2	O	-0.881675	-0.132040	-0.085151
O3	O	-0.999356	0.013487	-0.085130
O4	O	-1.006641	-0.262481	-0.085150
O5	O	-0.990914	0.003029	0.085298
O6	O	-0.873233	-0.142498	0.085277
O7	O	-1.115880	-0.127412	0.085299
Zn8	Zn	-0.993216	-0.136616	0.112347
Zn9	Zn	-1.004339	-0.122836	-0.112199
O10	O	-0.998199	-0.272939	0.085278
C11	C	-0.991946	0.043573	0.000084
C12	C	-0.982435	0.148798	0.000084
C13	C	-0.846213	-0.136645	0.000061
C14	C	-0.753123	-0.134775	0.000053
C15	C	-1.151342	-0.122807	0.000085
C16	C	-1.244432	-0.124677	0.000086
C17	C	-0.414873	-0.128060	0.000075
C18	C	-0.454547	-0.024441	0.000462
C19	C	-0.551396	-0.026288	0.000071
C20	C	-0.582683	-0.131391	0.000064
C21	C	-0.550234	-0.176539	-0.097258
C22	C	-0.453408	-0.173930	-0.097332
C23	C	-0.443629	-0.187965	0.096477
C24	C	-0.540509	-0.188019	0.097756
C25	C	-0.677522	-0.133278	0.000055
C26	C	-0.320034	-0.126176	0.000077
C27	C	-1.005609	-0.303024	0.000062
C28	C	-1.015120	-0.408250	0.000055
N29	N	-0.985631	-0.146020	0.265595
C30	C	-0.965048	0.341461	0.000068
C31	C	-1.032504	0.399094	0.000071
C32	C	-1.022829	0.506298	0.000062
C33	C	-0.974721	0.234247	0.000077
N34	N	-1.011930	-0.113425	-0.265447
C35	C	-0.975312	-0.158822	0.474635
C36	C	-1.022247	-0.100625	0.525519
C37	C	-1.016505	-0.107749	0.641837
C38	C	-0.981052	-0.151700	0.358307
H39	H	-0.573368	0.009614	0.069836
C40	C	-0.877218	0.383569	0.000074
N41	N	-0.811065	0.415296	0.000086
H42	H	-0.930821	-0.213994	0.518425
H43	H	-1.066742	-0.045452	0.481725
C44	C	-0.568619	-0.292046	0.105704
N45	N	-0.589798	-0.370401	0.111688
C46	C	-0.420664	0.025742	0.094749
N47	N	-0.395137	0.063542	0.165767
C48	C	-1.120339	0.356984	0.000093
N49	N	-1.186493	0.325262	0.000115
H50	H	-0.435311	0.021055	-0.068941
H51	H	-0.579694	0.018455	-0.069810
H52	H	-0.435919	-0.132187	-0.170079
H53	H	-0.570306	-0.253533	-0.100882
C54	C	-0.417814	-0.276357	-0.103327
N55	N	-0.391009	-0.353503	-0.107853
H56	H	-0.416908	-0.158609	0.170244
C57	C	-0.589823	-0.122563	-0.195103
N58	N	-0.619639	-0.081902	-0.268798
C59	C	-0.408384	-0.291251	0.097363
N60	N	-0.381832	-0.369042	0.098023
C61	C	-0.568795	-0.143546	0.195024
N62	N	-0.590098	-0.110040	0.268285
