data_functionalizedCrystal
_audit_creation_method	'MofGen! by Chris Wilmer'
_symmetry_space_group_name_H-M	'P1'
_symmetry_Int_Tables_number	1
_symmetry_cell_setting	triclinic
loop_
_symmetry_equiv_pos_as_xyz
  x,y,z
_cell_length_a	10.723024
_cell_length_b	11.792254
_cell_length_c	9.798715
_cell_angle_alpha	90.003572
_cell_angle_beta	90.003403
_cell_angle_gamma	84.333234
loop_
_atom_site_label
_atom_site_type_symbol
_atom_site_fract_x
_atom_site_fract_y
_atom_site_fract_z
O1	O	1.656774	0.159192	0.113483
O2	O	1.293582	0.174429	0.113488
O3	O	1.483983	0.001660	0.113475
O4	O	1.466373	0.331961	0.113495
O5	O	1.483969	0.001659	-0.113507
O6	O	1.293568	0.174428	-0.113495
O7	O	1.656760	0.159190	-0.113499
Zn8	Zn	1.475162	0.166809	-0.149535
Zn9	Zn	1.475180	0.166811	0.149524
O10	O	1.466358	0.331960	-0.113487
C11	C	1.247078	0.173320	-0.000003
C12	C	1.108533	0.170002	-0.000001
C13	C	1.482867	-0.040634	-0.000015
C14	C	1.479546	-0.166654	-0.000014
C15	C	1.033299	0.266675	0.000005
C16	C	0.890105	0.263248	0.000007
C17	C	1.476849	-0.268996	-0.000009
C18	C	1.473475	-0.397390	0.000004
C19	C	1.703264	0.160300	-0.000006
C20	C	1.841809	0.163618	0.000002
C21	C	1.467475	0.374253	0.000007
C22	C	1.470795	0.500274	0.000014
N23	N	1.475158	0.166807	-0.353635
C24	C	1.547752	0.232623	-0.421410
C25	C	1.547772	0.232621	-0.578572
N26	N	1.475194	0.166804	0.353623
H27	H	0.825457	0.346007	0.000018
H28	H	1.413034	0.110459	-0.588101
C29	C	1.089489	0.381917	0.000021
C30	C	1.175138	0.412364	-0.117837
C31	C	1.231327	0.527609	-0.117817
C32	C	1.201865	0.612408	0.000061
C33	C	1.116212	0.581963	0.117928
C34	C	1.060024	0.466718	0.117908
H35	H	1.196951	0.349589	-0.205105
H36	H	1.294733	0.550146	-0.205070
H37	H	1.243459	0.697719	0.000076
H38	H	1.094399	0.644737	0.205196
H39	H	0.996617	0.444181	0.205161
C40	C	1.052348	0.054757	-0.000007
C41	C	0.966689	0.024312	-0.117874
C42	C	0.910509	-0.090936	-0.117880
C43	C	0.939986	-0.175740	-0.000019
C44	C	1.025649	-0.145297	0.117856
C45	C	1.081830	-0.030048	0.117862
H46	H	0.944865	0.087091	-0.205129
H47	H	0.847096	-0.113472	-0.205139
H48	H	0.898398	-0.261054	-0.000024
H49	H	1.047474	-0.208076	0.205111
H50	H	1.145243	-0.007513	0.205121
C51	C	1.631698	0.308751	-0.342628
C52	C	1.631557	0.308645	-0.185471
C53	C	1.715505	0.384777	-0.106694
C54	C	1.799594	0.461016	-0.185072
C55	C	1.799738	0.461125	-0.342237
C56	C	1.715790	0.384993	-0.421015
H57	H	1.569306	0.252206	-0.127443
H58	H	1.715398	0.384696	0.009651
H59	H	1.861737	0.517373	-0.126756
H60	H	1.861989	0.517564	-0.400266
H61	H	1.715897	0.385074	-0.537360
C62	C	1.391211	0.090680	-0.432417
C63	C	1.450422	-0.001334	-0.530678
C64	C	1.366472	-0.077464	-0.609456
C65	C	1.223310	-0.061581	-0.589972
C66	C	1.164091	0.030437	-0.491707
C67	C	1.248041	0.106567	-0.412929
H68	H	1.556406	-0.013095	-0.545105
H69	H	1.410311	-0.145581	-0.682198
H70	H	1.161165	-0.117937	-0.648288
H71	H	1.058108	0.042198	-0.477280
H72	H	1.204203	0.174684	-0.340186
H73	H	1.609916	0.288974	-0.636857
H74	H	0.906449	0.080854	0.000005
