data_functionalizedCrystal
_audit_creation_method	'MofGen! by Chris Wilmer'
_symmetry_space_group_name_H-M	'P1'
_symmetry_Int_Tables_number	1
_symmetry_cell_setting	triclinic
loop_
_symmetry_equiv_pos_as_xyz
  x,y,z
_cell_length_a	17.019282
_cell_length_b	17.038272
_cell_length_c	13.101039
_cell_angle_alpha	93.604737
_cell_angle_beta	90.519543
_cell_angle_gamma	87.241387
loop_
_atom_site_label
_atom_site_type_symbol
_atom_site_fract_x
_atom_site_fract_y
_atom_site_fract_z
O1	O	1.052994	0.099938	0.007738
O2	O	1.552994	0.599938	0.507738
O3	O	0.825137	0.111631	-0.012379
O4	O	1.325137	0.611631	0.487621
O5	O	0.937711	-0.008035	-0.002432
O6	O	1.437711	0.491965	0.497568
O7	O	0.940420	0.219604	-0.002209
O8	O	1.440420	0.719604	0.497791
O9	O	0.929635	0.000565	0.167284
O10	O	1.429635	0.500565	0.667284
O11	O	0.817061	0.120231	0.157338
O12	O	1.317061	0.620231	0.657338
O13	O	1.044917	0.108538	0.177454
O14	O	1.544917	0.608538	0.677454
Zn15	Zn	0.929707	0.115750	0.194342
Zn16	Zn	1.429707	0.615750	0.694342
Zn17	Zn	0.940348	0.104419	-0.029267
Zn18	Zn	1.440348	0.604419	0.470733
O19	O	0.932344	0.228204	0.167507
O20	O	1.432344	0.728204	0.667507
C21	C	0.791801	0.115320	0.069893
C22	C	1.291801	0.615320	0.569893
C23	C	0.704500	0.113489	0.062186
C24	C	1.204500	0.613489	0.562186
C25	C	0.659088	0.117316	0.151080
C26	C	1.159088	0.617316	0.651080
C27	C	0.577061	0.115583	0.143841
C28	C	1.077061	0.615583	0.643841
C29	C	0.540446	0.110030	0.047707
C30	C	1.040446	0.610030	0.547707
C31	C	0.585864	0.106202	-0.041193
C32	C	1.085864	0.606202	0.458807
C33	C	0.667890	0.107928	-0.033953
C34	C	1.167890	0.607928	0.466047
C35	C	0.293000	0.104577	0.021220
C36	C	0.793000	0.604577	0.521220
C37	C	0.210967	0.102853	0.013987
C38	C	0.710967	0.602853	0.513987
C39	C	0.202169	0.112233	0.199022
C40	C	0.702169	0.612233	0.699022
C41	C	0.284197	0.113964	0.206253
C42	C	0.784197	0.613964	0.706253
C43	C	0.329608	0.110131	0.117352
C44	C	0.829608	0.610131	0.617352
C45	C	0.456601	0.108262	0.040306
C46	C	0.956601	0.608262	0.540306
C47	C	0.413453	0.111894	0.124755
C48	C	0.913453	0.611894	0.624755
C49	C	0.931209	-0.032872	0.082209
C50	C	1.431209	0.467128	0.582209
C51	C	0.923860	-0.119691	0.081559
C52	C	1.423860	0.380309	0.581559
C53	C	0.991337	-0.169565	0.087518
C54	C	1.491337	0.330435	0.587518
C55	C	0.984427	-0.251141	0.086898
C56	C	1.484427	0.248859	0.586898
C57	C	0.910039	-0.282841	0.080327
C58	C	1.410039	0.217159	0.580327
C59	C	0.842557	-0.232961	0.074365
C60	C	1.342557	0.267039	0.574365
C61	C	0.849468	-0.151387	0.074978
C62	C	1.349468	0.348613	0.574978
C63	C	0.885624	-0.528686	0.078158
C64	C	1.385624	-0.028686	0.578158
C65	C	0.878718	-0.610266	0.077549
C66	C	1.378718	-0.110266	0.577549
C67	C	1.020589	-0.628441	0.090079
C68	C	1.520589	-0.128441	0.590079
C69	C	1.027493	-0.546864	0.090697
C70	C	1.527493	-0.046864	0.590697
C71	C	0.960011	-0.496992	0.084730
C72	C	1.460011	0.003008	0.584730
C73	C	0.902974	-0.366224	0.079697
C74	C	1.402974	0.133776	0.579697
C75	C	0.967077	-0.413611	0.085354
C76	C	1.467077	0.086389	0.585354
C77	C	1.078254	0.104849	0.095180
C78	C	1.578254	0.604849	0.595180
C79	C	1.165555	0.106679	0.102881
C80	C	1.665555	0.606679	0.602881
C81	C	0.938845	0.253041	0.082864
C82	C	1.438845	0.753041	0.582864
C83	C	0.946195	0.339860	0.083507
C84	C	1.446195	0.839860	0.583507
N85	N	0.922451	0.123483	0.346949
N86	N	1.422451	0.623483	0.846949
N87	N	0.947610	0.096680	-0.181873
N88	N	1.447610	0.596680	0.318127
C89	C	0.912579	0.134011	0.555120
C90	C	1.412579	0.634011	1.055120
C91	C	0.957479	0.086155	0.609963
C92	C	1.457479	0.586155	1.109963
C93	C	0.951986	0.092013	0.725796
C94	C	1.451986	0.592013	1.225796
C95	C	0.918071	0.128154	0.439276
C96	C	1.418071	0.628154	0.939276
H97	H	0.443268	0.116412	0.203026
H98	H	0.943268	0.616412	0.703026
Br99	Br	1.028779	0.010866	0.543263
Br100	Br	1.528779	0.510866	1.043263
Br101	Br	0.841638	0.209628	0.621851
Br102	Br	1.341638	0.709628	1.121851
H103	H	1.075528	-0.669056	0.094936
H104	H	1.575528	-0.169056	0.594936
H105	H	0.781990	-0.258777	0.069009
H106	H	1.281990	0.241223	0.569009
Br107	Br	0.708771	0.124860	0.281553
Br108	Br	1.208771	0.624860	0.781553
Br109	Br	0.802022	-0.409252	0.070770
Br110	Br	1.302022	0.090748	0.570770
Br111	Br	0.406905	0.100685	-0.090158
Br112	Br	0.906905	0.600685	0.409842
H113	H	0.540090	0.118686	0.216228
H114	H	1.040090	0.618686	0.716228
H115	H	0.556046	0.101675	-0.119467
H116	H	1.056046	0.601675	0.380533
Br117	Br	0.333882	0.121510	0.336725
Br118	Br	0.833882	0.621510	0.836725
Br119	Br	0.757889	-0.083700	0.066883
Br120	Br	1.257889	0.416300	0.566883
Br121	Br	1.092296	-0.126552	0.096450
Br122	Br	1.592296	0.373448	0.596450
Br123	Br	1.128453	-0.503851	0.099582
Br124	Br	1.628453	-0.003851	0.599582
H125	H	0.165187	0.115353	0.271399
H126	H	0.665187	0.615353	0.771399
H127	H	0.181158	0.098333	-0.064301
H128	H	0.681158	0.598333	0.435699
Br129	Br	1.076007	-0.318825	0.094984
Br130	Br	1.576007	0.181175	0.594984
H131	H	0.329964	0.101454	-0.051170
H132	H	0.829964	0.601454	0.448830
H133	H	0.818139	-0.636072	0.072214
H134	H	1.318139	-0.136072	0.572214
H135	H	1.027644	-0.387798	0.090681
H136	H	1.527644	0.112202	0.590681
Br137	Br	0.729523	0.102728	-0.154600
Br138	Br	1.229523	0.602728	0.345400
H139	H	0.830676	-0.488089	0.073299
H140	H	1.330676	0.011911	0.573299
