data_functionalizedCrystal
_audit_creation_method	'MofGen! by Chris Wilmer'
_symmetry_space_group_name_H-M	'P1'
_symmetry_Int_Tables_number	1
_symmetry_cell_setting	triclinic
loop_
_symmetry_equiv_pos_as_xyz
  x,y,z
_cell_length_a	10.686285
_cell_length_b	17.077404
_cell_length_c	17.077396
_cell_angle_alpha	89.981638
_cell_angle_beta	85.608118
_cell_angle_gamma	85.629649
loop_
_atom_site_label
_atom_site_type_symbol
_atom_site_fract_x
_atom_site_fract_y
_atom_site_fract_z
Zn1	Zn	-0.502416	1.224118	-0.419907
Zn2	Zn	-0.713437	1.234132	-0.278597
Zn3	Zn	-0.502452	1.092852	-0.288655
Zn4	Zn	-0.713354	1.102921	-0.409827
O5	O	-0.607915	1.163506	-0.349247
O6	O	-0.530428	1.335294	-0.401170
O7	O	-0.685499	1.215368	-0.170082
O8	O	-0.325872	1.101860	-0.314494
O9	O	-0.685464	1.342652	-0.297351
O10	O	-0.325845	1.198300	-0.410923
O11	O	-0.530490	1.111570	-0.177472
O12	O	-0.530409	0.984340	-0.304720
O13	O	-0.685323	1.119021	-0.521014
O14	O	-0.685358	0.991737	-0.393745
O15	O	-0.530348	1.208064	-0.528419
O16	O	-0.890002	1.225132	-0.287578
O17	O	-0.889941	1.128731	-0.383992
C18	C	-0.607879	0.959556	-0.349231
C19	C	-0.607894	0.872307	-0.349241
C20	C	-0.527311	0.827494	-0.403370
C21	C	-0.527319	0.745514	-0.403373
C22	C	-0.607918	0.708349	-0.349251
C23	C	-0.688505	0.753168	-0.295116
C24	C	-0.688490	0.835146	-0.295110
C25	C	-0.688534	0.582300	-0.295134
C26	C	-0.688551	0.500316	-0.295141
C27	C	-0.527363	0.492667	-0.403397
C28	C	-0.527347	0.574645	-0.403391
C29	C	-0.607937	0.619459	-0.349258
C30	C	-0.935755	1.179132	-0.333617
C31	C	-1.076007	1.185889	-0.326956
C32	C	-0.278794	1.147840	-0.364955
C33	C	-0.138543	1.141164	-0.371649
C34	C	-0.607822	1.163549	-0.553995
C35	C	-0.607782	1.163567	-0.641247
C36	C	-0.607952	1.368252	-0.349263
C37	C	-0.607967	1.455502	-0.349270
C38	C	-0.527080	1.209933	-0.686095
C39	C	-0.527038	1.209941	-0.768077
C40	C	-0.607706	1.163586	-0.805210
C41	C	-0.688411	1.117214	-0.760357
C42	C	-0.688446	1.117203	-0.678376
C43	C	-0.688335	1.117242	-0.931231
C44	C	-0.688303	1.117254	-1.013217
C45	C	-0.526928	1.209980	-1.020932
C46	C	-0.526962	1.209969	-0.938951
C47	C	-0.607670	1.163598	-0.894103
C48	C	-0.607916	1.163504	-0.145299
C49	C	-0.607601	1.163620	-0.058064
H50	H	-0.754155	0.618785	-0.251051
H51	H	-0.754183	0.470059	-0.251071
H52	H	-0.461325	1.247699	-0.804589
H53	H	-0.754108	0.871633	-0.251033
H54	H	-0.754124	0.722902	-0.251045
H55	H	-0.754149	1.079438	-0.641862
H56	H	-0.461742	0.456175	-0.447474
O57	O	-1.139940	1.237754	-0.275155
C58	C	-1.126286	1.336785	-0.176335
C59	C	-1.053727	1.278070	-0.234952
H60	H	-1.056614	1.369408	-0.143826
H61	H	-1.188037	1.303747	-0.132302
H62	H	-1.187939	1.380708	-0.209528
H63	H	-0.992005	1.234132	-0.201825
H64	H	-0.992056	1.311160	-0.278983
H65	H	-0.461724	0.604902	-0.447466
H66	H	-1.084787	1.097704	-0.415009
H67	H	-0.461395	1.247684	-0.655867
H68	H	-0.461681	0.857747	-0.447444
O69	O	-0.448487	1.255018	-0.903005
C70	C	-0.288473	1.347025	-0.919302
C71	C	-0.377264	1.296032	-0.960111
H72	H	-0.230885	1.380211	-0.965452
H73	H	-0.222422	1.307872	-0.884090
H74	H	-0.346454	1.390787	-0.878138
H75	H	-0.319384	1.252264	-1.001312
H76	H	-0.443318	1.335234	-0.995273
H77	H	-0.461210	1.247735	-1.057451
H78	H	-0.753986	1.079506	-1.043448
O79	O	-0.766874	1.072193	-0.887779
C80	C	-0.926935	0.980225	-0.888773
C81	C	-0.838061	1.031205	-0.938076
H82	H	-0.984494	0.947061	-0.929419
H83	H	-0.993010	1.019385	-0.847276
H84	H	-0.869022	0.936444	-0.853119
H85	H	-0.895872	1.074992	-0.973778
H86	H	-0.771983	0.991997	-0.979524
H87	H	-0.461702	0.709030	-0.447451
H88	H	-0.754087	1.079468	-0.790597
