data_functionalizedCrystal
_audit_creation_method	'MofGen! by Chris Wilmer'
_symmetry_space_group_name_H-M	'P1'
_symmetry_Int_Tables_number	1
_symmetry_cell_setting	triclinic
loop_
_symmetry_equiv_pos_as_xyz
  x,y,z
_cell_length_a	15.944545
_cell_length_b	8.559649
_cell_length_c	7.681481
_cell_angle_alpha	85.069100
_cell_angle_beta	95.726552
_cell_angle_gamma	76.637418
loop_
_atom_site_label
_atom_site_type_symbol
_atom_site_fract_x
_atom_site_fract_y
_atom_site_fract_z
O1	O	1.092320	0.221144	-0.146309
O2	O	0.846128	0.246565	-0.146336
O3	O	0.990914	0.001253	-0.146318
O4	O	0.947534	0.466455	-0.146327
O5	O	1.008739	-0.029009	0.146542
O6	O	0.863953	0.216303	0.146524
O7	O	1.110145	0.190882	0.146551
Zn8	Zn	0.989879	0.198788	0.193035
Zn9	Zn	0.966394	0.238659	-0.192820
O10	O	0.965359	0.436193	0.146533
C11	C	1.003114	-0.073407	0.000109
C12	C	1.012899	-0.250785	0.000100
C13	C	0.823814	0.230381	0.000090
C14	C	0.730771	0.227224	0.000079
C15	C	0.470562	0.065730	0.000101
C16	C	0.524908	0.128667	0.144499
C17	C	0.395856	0.215958	0.000110
C18	C	0.507311	0.158544	-0.144238
C19	C	0.560412	0.221485	0.000092
C20	C	0.448983	0.278842	0.144627
C21	C	0.431377	0.308710	-0.144240
C22	C	0.485685	0.371753	0.000194
C23	C	0.301060	0.212769	0.000121
C24	C	0.655205	0.224684	0.000093
C25	C	1.132459	0.207067	0.000121
C26	C	1.225501	0.210225	0.000120
C27	C	0.953159	0.510854	0.000102
C28	C	0.943374	0.688234	0.000099
N29	N	1.005914	0.171575	0.456371
N30	N	0.950367	0.265859	-0.456157
H31	H	0.876364	-0.228273	0.000097
H32	H	0.492826	0.501223	0.000276
H33	H	1.062624	0.075345	0.531584
H34	H	0.463267	-0.063662	0.000244
C35	C	1.103434	-0.363589	0.000120
N36	N	1.171623	-0.448553	0.000132
C37	C	0.873761	0.395863	0.442246
N38	N	0.816058	0.493782	0.365711
C39	C	0.376699	0.411382	-0.309171
N40	N	0.335514	0.488703	-0.433412
H41	H	0.565364	0.052607	0.266578
C42	C	0.414589	0.347420	0.309733
N43	N	0.388682	0.399064	0.434093
H44	H	0.532895	0.107687	-0.266308
