data_functionalizedCrystal
_audit_creation_method	'MofGen! by Chris Wilmer'
_symmetry_space_group_name_H-M	'P1'
_symmetry_Int_Tables_number	1
_symmetry_cell_setting	triclinic
loop_
_symmetry_equiv_pos_as_xyz
  x,y,z
_cell_length_a	11.169417
_cell_length_b	12.759394
_cell_length_c	11.169409
_cell_angle_alpha	89.965476
_cell_angle_beta	89.980176
_cell_angle_gamma	90.015716
loop_
_atom_site_label
_atom_site_type_symbol
_atom_site_fract_x
_atom_site_fract_y
_atom_site_fract_z
Zn1	Zn	1.834925	-0.418157	-0.678525
Zn2	Zn	1.834798	-0.593883	-0.477834
Zn3	Zn	1.634211	-0.418221	-0.477859
Zn4	Zn	1.634202	-0.593797	-0.678479
O5	O	1.734534	-0.506014	-0.578174
O6	O	2.002858	-0.441476	-0.651911
O7	O	1.808141	-0.570643	-0.309887
O8	O	1.660892	-0.271191	-0.504507
O9	O	2.002765	-0.570581	-0.504465
O10	O	1.808356	-0.271144	-0.651935
O11	O	1.660770	-0.441585	-0.309906
O12	O	1.466260	-0.441502	-0.504463
O13	O	1.660878	-0.570435	-0.846435
O14	O	1.466254	-0.570498	-0.651857
O15	O	1.808348	-0.441393	-0.846468
O16	O	1.808133	-0.740892	-0.504420
O17	O	1.660756	-0.740830	-0.651833
C18	C	1.422709	-0.505998	-0.578159
C19	C	1.289309	-0.506017	-0.578180
C20	C	1.734462	-0.778982	-0.578145
C21	C	1.734541	-0.895759	-0.578173
C22	C	1.888120	-0.895771	-0.424787
C23	C	1.964941	-0.950637	-0.348108
C24	C	1.965011	-1.060359	-0.348140
C25	C	1.888255	-1.115216	-0.424863
C26	C	1.811434	-1.060349	-0.501541
C27	C	1.811370	-0.950625	-0.501498
C28	C	1.657863	-1.060337	-0.654932
C29	C	1.657785	-0.950616	-0.654895
C30	C	1.581107	-1.115195	-0.731654
C31	C	1.504279	-1.060328	-0.808329
C32	C	1.504210	-0.950600	-0.808292
C33	C	1.580964	-0.895749	-0.731574
C34	C	2.047576	-0.506031	-0.578190
C35	C	2.180976	-0.506038	-0.578197
C36	C	1.734626	-0.505898	-0.891217
C37	C	1.734666	-0.505848	-1.024617
C38	C	1.734639	-0.231981	-0.578229
C39	C	1.734684	-0.115204	-0.578253
C40	C	1.734511	-0.506055	-0.266349
C41	C	1.734705	-0.505808	-0.132950
H42	H	1.888055	-0.806430	-0.424737
H43	H	1.580908	-0.806408	-0.731529
H44	H	2.027437	-0.905963	-0.285643
C45	C	1.419859	-1.120671	-0.892717
C46	C	1.325712	-1.196221	-0.840666
C47	C	1.241290	-1.256570	-0.925056
C48	C	1.251016	-1.241369	-1.061496
C49	C	1.345167	-1.165815	-1.113554
C50	C	1.429588	-1.105467	-1.029165
H51	H	1.318509	-1.207477	-0.739659
H52	H	1.171593	-1.312500	-0.886518
H53	H	1.188522	-1.286042	-1.123966
H54	H	1.352370	-1.154559	-1.214562
H55	H	1.499285	-1.049537	-1.067702
C56	C	1.419704	-0.890249	-0.892641
C57	C	1.283280	-0.905446	-0.882750
C58	C	1.198772	-0.845100	-0.967101
C59	C	1.250688	-0.769557	-1.061343
C60	C	1.387119	-0.754357	-1.071238
C61	C	1.471627	-0.814703	-0.986887
H62	H	1.244843	-0.961371	-0.812983
H63	H	1.097777	-0.856353	-0.959775
H64	H	1.188131	-0.724886	-1.123784
H65	H	1.425557	-0.698432	-1.141005
H66	H	1.572622	-0.803450	-0.994213
H67	H	2.027571	-1.105031	-0.285708
H68	H	1.888329	-1.204557	-0.424893
H69	H	1.581175	-1.204536	-0.731680
