data_functionalizedCrystal
_audit_creation_method	'MofGen! by Chris Wilmer'
_symmetry_space_group_name_H-M	'P1'
_symmetry_Int_Tables_number	1
_symmetry_cell_setting	triclinic
loop_
_symmetry_equiv_pos_as_xyz
  x,y,z
_cell_length_a	17.699077
_cell_length_b	15.944493
_cell_length_c	16.776229
_cell_angle_alpha	89.999222
_cell_angle_beta	89.993415
_cell_angle_gamma	83.377810
loop_
_atom_site_label
_atom_site_type_symbol
_atom_site_fract_x
_atom_site_fract_y
_atom_site_fract_z
O1	O	1.004243	0.106201	-0.066267
O2	O	1.504243	0.606201	0.433733
O3	O	0.783885	0.120026	-0.066270
O4	O	1.283885	0.620026	0.433730
O5	O	0.900104	-0.009177	-0.066275
O6	O	1.400104	0.490823	0.433725
O7	O	0.888023	0.235405	-0.066262
O8	O	1.388023	0.735405	0.433738
O9	O	0.900089	-0.009185	0.066301
O10	O	1.400089	0.490815	0.566301
O11	O	0.783869	0.120018	0.066307
O12	O	1.283869	0.620018	0.566307
O13	O	1.004227	0.106193	0.066309
O14	O	1.504227	0.606193	0.566309
Zn15	Zn	0.894046	0.113104	0.087357
Zn16	Zn	1.394046	0.613104	0.587357
Zn17	Zn	0.894066	0.113115	-0.087318
Zn18	Zn	1.394066	0.613115	0.412682
O19	O	0.888008	0.235397	0.066314
O20	O	1.388008	0.735397	0.566314
C21	C	0.755679	0.119528	0.000018
C22	C	1.255679	0.619528	0.500018
C23	C	0.671659	0.118044	0.000016
C24	C	1.171659	0.618044	0.500016
C25	C	0.632182	0.117341	0.072285
C26	C	1.132182	0.617341	0.572285
C27	C	0.553237	0.115933	0.072285
C28	C	1.053237	0.615933	0.572285
C29	C	0.513770	0.115235	0.000017
C30	C	1.013770	0.615235	0.500017
C31	C	0.553253	0.115936	-0.072257
C32	C	1.053253	0.615936	0.427743
C33	C	0.632197	0.117338	-0.072257
C34	C	1.132197	0.617338	0.427743
C35	C	0.234881	0.110283	-0.072259
C36	C	0.734881	0.610283	0.427741
C37	C	0.155931	0.108885	-0.072253
C38	C	0.655931	0.608885	0.427747
C39	C	0.155921	0.108879	0.072284
C40	C	0.655921	0.608879	0.572284
C41	C	0.234865	0.110281	0.072284
C42	C	0.734865	0.610281	0.572284
C43	C	0.274342	0.110977	0.000010
C44	C	0.774342	0.610977	0.500010
C45	C	0.359943	0.112501	0.000010
C46	C	0.859943	0.612501	0.500010
C47	C	0.428170	0.113717	0.000016
C48	C	0.928170	0.613717	0.500016
C49	C	0.899603	-0.040475	0.000010
C50	C	1.399603	0.459525	0.500010
C51	C	0.898122	-0.133721	-0.000000
C52	C	1.398122	0.366279	0.500000
C53	C	0.966532	-0.369626	0.000015
C54	C	1.466532	0.130374	0.500015
C55	C	0.929649	-0.420112	-0.065352
C56	C	1.429649	0.079888	0.434648
C57	C	0.895379	-0.304436	0.000009
C58	C	1.395379	0.195564	0.500009
C59	C	0.929617	-0.420096	0.065358
C60	C	1.429617	0.079904	0.565358
C61	C	0.892735	-0.469340	0.000022
C62	C	1.392735	0.030660	0.500022
C63	C	0.858516	-0.353693	-0.065412
C64	C	1.358516	0.146307	0.434588
C65	C	0.858494	-0.353674	0.065357
C66	C	1.358494	0.146326	0.565357
C67	C	0.821559	-0.404126	-0.000026
C68	C	1.321559	0.095874	0.499974
C69	C	0.896905	-0.209439	0.000001
C70	C	1.396905	0.290561	0.500001
C71	C	0.891204	-0.564334	0.000025
C72	C	1.391204	-0.064334	0.500025
C73	C	1.032433	0.106691	0.000020
C74	C	1.532433	0.606691	0.500020
C75	C	1.116453	0.108175	0.000016
C76	C	1.616453	0.608175	0.500016
C77	C	0.888509	0.266694	0.000028
C78	C	1.388509	0.766694	0.500028
C79	C	0.889990	0.359940	0.000033
C80	C	1.389990	0.859940	0.500033
N81	N	0.894038	0.113097	0.206569
N82	N	1.394038	0.613097	0.706569
N83	N	0.894081	0.113116	-0.206529
N84	N	1.394081	0.613116	0.293471
C85	C	0.945515	0.055909	0.248283
C86	C	1.445515	0.555909	0.748283
C87	C	0.945519	0.055908	0.331735
C88	C	1.445519	0.555908	0.831735
C89	C	0.894049	0.113100	0.373471
C90	C	1.394049	0.613100	0.873471
C91	C	0.842566	0.170291	0.331751
C92	C	1.342566	0.670291	0.831751
C93	C	0.842559	0.170287	0.248300
C94	C	1.342559	0.670287	0.748300
C95	C	0.842593	0.170307	0.668298
C96	C	1.342593	0.670307	1.168298
C97	C	0.842606	0.170308	0.751755
C98	C	1.342606	0.670308	1.251755
C99	C	0.945554	0.055929	0.751733
C100	C	1.445554	0.555929	1.251733
C101	C	0.945547	0.055925	0.668283
C102	C	1.445547	0.555925	1.168283
C103	C	0.894061	0.113112	0.626569
C104	C	1.394061	0.613112	1.126569
C105	C	0.894056	0.113111	0.536081
C106	C	1.394056	0.613111	1.036081
C107	C	0.894057	0.113106	0.463958
C108	C	1.394057	0.613106	0.963958
H109	H	0.521100	0.115346	0.131133
H110	H	1.021100	0.615346	0.631133
N111	N	0.787077	0.231991	0.623306
N112	N	1.287077	0.731991	1.123306
H113	H	0.753569	0.199939	0.588693
H114	H	1.253569	0.699939	1.088693
H115	H	0.754526	0.268213	0.662455
H116	H	1.254526	0.768213	1.162455
H117	H	0.123799	0.108315	-0.131106
H118	H	0.623799	0.608315	0.368894
N119	N	0.277432	0.111024	0.150231
N120	N	0.777432	0.611024	0.650231
H121	H	0.333433	0.112019	0.139264
H122	H	0.833433	0.612019	0.639264
H123	H	0.257486	0.162828	0.181796
H124	H	0.757486	0.662828	0.681796
N125	N	1.001068	-0.005754	0.376717
N126	N	1.501068	0.494246	0.876717
H127	H	0.992388	-0.065368	0.362201
H128	H	1.492388	0.434632	0.862201
H129	H	1.054742	0.003952	0.362144
H130	H	1.554742	0.503952	0.862144
N131	N	0.113343	0.108126	0.150238
N132	N	0.613343	0.608126	0.650238
H133	H	0.057214	0.108302	0.139281
H134	H	0.557214	0.608302	0.639281
H135	H	0.132565	0.055728	0.181316
H136	H	0.632565	0.555728	0.681316
H137	H	0.959704	-0.449118	-0.120615
H138	H	1.459704	0.050882	0.379385
N139	N	0.818732	-0.315222	0.138566
N140	N	1.318732	0.184778	0.638566
H141	H	0.819621	-0.252005	0.137735
H142	H	1.319621	0.247995	0.637735
H143	H	0.764289	-0.328459	0.139060
H144	H	1.264289	0.171541	0.639060
H145	H	0.664309	0.117916	0.131134
H146	H	1.164309	0.617916	0.631134
H147	H	0.267013	0.110848	-0.131108
H148	H	0.767013	0.610848	0.368892
H149	H	0.987461	0.009356	0.634304
H150	H	1.487461	0.509356	1.134304
H151	H	0.521113	0.115362	-0.131099
H152	H	1.021113	0.615362	0.368901
N153	N	1.001086	-0.005756	0.796724
N154	N	1.501086	0.494244	1.296724
H155	H	0.993282	0.002919	0.855923
H156	H	1.493282	0.502919	1.355923
H157	H	0.992357	-0.065335	0.782140
H158	H	1.492357	0.434665	1.282140
N159	N	0.674780	0.118090	-0.150203
N160	N	1.174780	0.618090	0.349797
H161	H	0.637800	0.117436	-0.195985
H162	H	1.137800	0.617436	0.304015
H163	H	0.701392	0.170721	-0.153352
H164	H	1.201392	0.670721	0.346648
N165	N	0.787085	0.231992	0.796773
N166	N	1.287085	0.731992	1.296773
H167	H	0.754464	0.268216	0.757686
H168	H	1.254464	0.768216	1.257686
H169	H	0.753644	0.199871	0.831407
H170	H	1.253644	0.699871	1.331407
H171	H	1.027820	-0.354128	-0.000050
H172	H	1.527820	0.145872	0.499950
H173	H	0.828491	-0.324806	-0.120734
H174	H	1.328491	0.175194	0.379266
H175	H	0.800654	0.216855	0.365737
H176	H	1.300654	0.716855	0.865737
N177	N	0.787032	0.231967	0.203309
N178	N	1.287032	0.731967	0.703309
H179	H	0.795735	0.291575	0.217824
H180	H	1.295735	0.791575	0.717824
H181	H	0.794861	0.223213	0.144125
H182	H	1.294861	0.723213	0.644125
H183	H	0.959674	-0.449094	0.120618
H184	H	1.459674	0.050906	0.620618
N185	N	0.740327	-0.424485	-0.000088
N186	N	1.240327	0.075515	0.499912
H187	H	0.713561	-0.400098	-0.049490
H188	H	1.213561	0.099902	0.450510
H189	H	0.739850	-0.487762	0.000406
H190	H	1.239850	0.012238	0.500406
H191	H	0.987431	0.009340	0.214307
H192	H	1.487431	0.509340	0.714307
