data_functionalizedCrystal
_audit_creation_method	'MofGen! by Chris Wilmer'
_symmetry_space_group_name_H-M	'P1'
_symmetry_Int_Tables_number	1
_symmetry_cell_setting	triclinic
loop_
_symmetry_equiv_pos_as_xyz
  x,y,z
_cell_length_a	11.792241
_cell_length_b	11.792241
_cell_length_c	10.868271
_cell_angle_alpha	90.005281
_cell_angle_beta	89.999461
_cell_angle_gamma	84.193416
loop_
_atom_site_label
_atom_site_type_symbol
_atom_site_fract_x
_atom_site_fract_y
_atom_site_fract_z
O1	O	-1.506908	-0.155568	-0.102185
O2	O	-1.256908	0.094432	0.147815
O3	O	-1.006908	0.344432	0.397815
O4	O	-0.756908	0.594432	0.647815
O5	O	-1.176567	-0.171601	-0.102218
O6	O	-0.926567	0.078399	0.147782
O7	O	-0.676567	0.328399	0.397782
O8	O	-0.426567	0.578399	0.647782
O9	O	-1.349754	0.001586	-0.102192
O10	O	-1.099754	0.251586	0.147808
O11	O	-0.849754	0.501586	0.397808
O12	O	-0.599754	0.751586	0.647808
O13	O	-1.333721	-0.328755	-0.102211
O14	O	-1.083721	-0.078755	0.147789
O15	O	-0.833721	0.171245	0.397789
O16	O	-0.583721	0.421245	0.647789
O17	O	-1.349740	0.001592	0.102453
O18	O	-1.099740	0.251592	0.352453
O19	O	-0.849740	0.501592	0.602453
O20	O	-0.599740	0.751592	0.852453
O21	O	-1.176553	-0.171595	0.102427
O22	O	-0.926553	0.078405	0.352427
O23	O	-0.676553	0.328405	0.602427
O24	O	-0.426553	0.578405	0.852427
O25	O	-1.506894	-0.155562	0.102460
O26	O	-1.256894	0.094438	0.352460
O27	O	-1.006894	0.344438	0.602460
O28	O	-0.756894	0.594438	0.852460
Zn29	Zn	-1.341721	-0.163577	0.134935
Zn30	Zn	-1.091721	0.086423	0.384935
Zn31	Zn	-0.841721	0.336423	0.634935
Zn32	Zn	-0.591721	0.586423	0.884935
Zn33	Zn	-1.341740	-0.163586	-0.134693
Zn34	Zn	-1.091740	0.086414	0.115307
Zn35	Zn	-0.841740	0.336414	0.365307
Zn36	Zn	-0.591740	0.586414	0.615307
O37	O	-1.333707	-0.328749	0.102434
O38	O	-1.083707	-0.078749	0.352434
O39	O	-0.833707	0.171251	0.602434
O40	O	-0.583707	0.421251	0.852434
C41	C	-1.134269	-0.170591	0.000101
C42	C	-0.884269	0.079409	0.250101
C43	C	-0.634269	0.329409	0.500101
C44	C	-0.384269	0.579409	0.750101
C45	C	-1.008255	-0.167576	0.000088
C46	C	-0.758255	0.082424	0.250088
C47	C	-0.508255	0.332424	0.500088
C48	C	-0.258255	0.582424	0.750088
C49	C	-1.348740	0.043880	0.000130
C50	C	-1.098740	0.293880	0.250130
C51	C	-0.848740	0.543880	0.500130
C52	C	-0.598740	0.793880	0.750130
C53	C	-1.345726	0.169894	0.000129
C54	C	-1.095726	0.419894	0.250129
C55	C	-0.845726	0.669894	0.500129
C56	C	-0.595726	0.919894	0.750129
C57	C	-0.777543	-0.162034	0.000121
C58	C	-0.527543	0.087966	0.250121
C59	C	-0.277543	0.337966	0.500121
C60	C	-0.027543	0.587966	0.750121
C61	C	-0.905928	-0.165113	0.000103
C62	C	-0.655928	0.084887	0.250103
C63	C	-0.405928	0.334887	0.500103
C64	C	-0.155928	0.584887	0.750103
C65	C	-0.549192	-0.156572	0.000136
C66	C	-0.299192	0.093428	0.250136
C67	C	-0.049192	0.343428	0.500136
C68	C	0.200808	0.593428	0.750136
C69	C	-0.675206	-0.159587	0.000131
C70	C	-0.425206	0.090413	0.250131
C71	C	-0.175206	0.340413	0.500131
C72	C	0.074794	0.590413	0.750131
C73	C	-1.334721	-0.371043	0.000109
C74	C	-1.084721	-0.121043	0.250109
C75	C	-0.834721	0.128957	0.500109
C76	C	-0.584721	0.378957	0.750109
C77	C	-1.337736	-0.497057	0.000103
C78	C	-1.087736	-0.247057	0.250103
C79	C	-0.837736	0.002943	0.500103
C80	C	-0.587736	0.252943	0.750103
N81	N	-1.341717	-0.163570	0.318949
N82	N	-1.091717	0.086430	0.568949
N83	N	-0.841717	0.336430	0.818949
N84	N	-0.591717	0.586430	1.068949
C85	C	-1.340183	0.400606	0.000107
C86	C	-1.090183	0.650606	0.250107
C87	C	-0.840183	0.900606	0.500107
C88	C	-0.590183	1.150606	0.750107
C89	C	-1.343262	0.272221	0.000119
C90	C	-1.093262	0.522221	0.250119
C91	C	-0.843262	0.772221	0.500119
C92	C	-0.593262	1.022221	0.750119
N93	N	-1.341754	-0.163584	-0.318707
N94	N	-1.091754	0.086416	-0.068707
N95	N	-0.841754	0.336416	0.181293
N96	N	-0.591754	0.586416	0.431293
C97	C	-1.341734	-0.163584	0.569955
C98	C	-1.091734	0.086416	0.819955
C99	C	-0.841734	0.336416	1.069955
C100	C	-0.591734	0.586416	1.319955
C101	C	-1.341721	-0.163580	0.430278
C102	C	-1.091721	0.086420	0.680278
C103	C	-0.841721	0.336420	0.930278
C104	C	-0.591721	0.586420	1.180278
