data_functionalizedCrystal
_audit_creation_method	'MofGen! by Chris Wilmer'
_symmetry_space_group_name_H-M	'P1'
_symmetry_Int_Tables_number	1
_symmetry_cell_setting	triclinic
loop_
_symmetry_equiv_pos_as_xyz
  x,y,z
_cell_length_a	17.640112
_cell_length_b	17.640280
_cell_length_c	17.640968
_cell_angle_alpha	65.682561
_cell_angle_beta	87.860920
_cell_angle_gamma	87.815931
loop_
_atom_site_label
_atom_site_type_symbol
_atom_site_fract_x
_atom_site_fract_y
_atom_site_fract_z
Zn1	Zn	1.251359	0.023073	0.189698
Zn2	Zn	1.251298	0.188752	0.024069
Zn3	Zn	1.106797	0.075311	0.076159
Zn4	Zn	1.148399	0.178182	0.179117
O5	O	1.189463	0.116329	0.117261
O6	O	1.354914	0.027613	0.150355
O7	O	1.214694	0.199989	-0.081425
O8	O	1.108588	-0.044008	0.117448
O9	O	1.354870	0.149337	0.028669
O10	O	1.214797	-0.082386	0.200865
O11	O	1.108529	0.116644	-0.043155
O12	O	1.008752	0.106394	0.107188
O13	O	1.179493	0.131321	0.292925
O14	O	1.039317	0.181973	0.182831
O15	O	1.255137	0.017364	0.300699
O16	O	1.255033	0.299739	0.018409
O17	O	1.179434	0.291973	0.132322
C18	C	0.997182	0.148705	0.149514
C19	C	0.914929	0.162571	0.163327
C20	C	1.221764	0.324990	0.068579
C21	C	1.235655	0.414238	0.047768
C22	C	0.564743	0.010979	0.012337
C23	C	0.487458	0.024022	0.025323
C24	C	0.519334	0.102905	0.103880
C25	C	0.596623	0.089865	0.090904
C26	C	0.619321	0.043903	0.045131
C27	C	0.651201	0.122789	0.123697
C28	C	0.728483	0.109754	0.110718
C29	C	0.751188	0.063796	0.064946
C30	C	0.696603	0.030868	0.032152
C31	C	0.628502	0.168756	0.169465
C32	C	0.683080	0.201680	0.202259
C33	C	0.760364	0.188640	0.189285
C34	C	0.783068	0.142682	0.143512
C35	C	0.814949	0.221568	0.222079
C36	C	0.892231	0.208534	0.209100
C37	C	0.860351	0.129647	0.130533
C38	C	1.221962	0.067336	0.326772
C39	C	1.235811	0.046458	0.416053
C40	C	1.382495	0.083827	0.084882
C41	C	1.464754	0.069977	0.071084
C42	C	1.157059	-0.093153	0.166147
C43	C	1.143250	-0.182422	0.186980
C44	C	1.084287	0.687787	0.275600
C45	C	1.097337	0.771655	0.256019
C46	C	1.176134	0.779643	0.137496
C47	C	1.163094	0.695773	0.157069
C48	C	1.117169	0.649852	0.226122
C49	C	1.195976	0.657837	0.107591
C50	C	1.182933	0.573976	0.127160
C51	C	1.137009	0.528050	0.196208
C52	C	1.104127	0.565990	0.245691
C53	C	1.241896	0.703761	0.038535
C54	C	1.274778	0.665825	-0.010944
C55	C	1.261740	0.581961	0.008629
C56	C	1.215815	0.536035	0.077677
C57	C	1.294622	0.544020	-0.040854
C58	C	1.281579	0.460159	-0.021285
C59	C	1.202773	0.452173	0.097246
C60	C	1.157124	0.165067	-0.091429
C61	C	1.143383	0.185695	-0.180681
C62	C	1.084469	0.274453	0.689444
C63	C	1.097496	0.254822	0.773337
C64	C	1.176258	0.136168	0.781421
C65	C	1.163234	0.155787	0.697528
C66	C	1.117340	0.224930	0.651546
C67	C	1.196105	0.106264	0.659630
C68	C	1.183085	0.125884	0.575743
C69	C	1.137195	0.195026	0.529754
C70	C	1.104320	0.244550	0.567659
C71	C	1.242004	0.037124	0.705612
C72	C	1.274874	-0.012398	0.667713
C73	C	1.261851	0.007218	0.583827
C74	C	1.215960	0.076360	0.537838
C75	C	1.294725	-0.042306	0.545922
C76	C	1.281706	-0.022686	0.462035
C77	C	1.202940	0.095980	0.453951
H78	H	0.878832	0.092205	0.093275
H79	H	0.443020	-0.002799	-0.001378
H80	H	1.312167	0.703226	-0.067168
F81	F	1.055256	0.517110	0.319191
H82	H	1.046897	0.650394	0.331835
H83	H	0.814117	0.053186	0.054377
H84	H	0.715084	-0.006574	-0.005106
F85	F	1.062505	0.307534	0.813669
H86	H	1.070568	0.802535	0.296324
F87	F	1.343491	0.592904	-0.114346
F88	F	1.316569	0.419785	-0.073950
H89	H	1.066927	0.300838	0.530225
H90	H	0.583224	-0.026463	-0.024921
H91	H	0.500842	0.140330	0.141145
F92	F	1.154087	0.169566	0.405012
F93	F	1.123342	0.215911	0.440472
H94	H	1.047076	0.330740	0.652010
F95	F	1.225103	0.062585	0.830366
H96	H	0.565572	0.179368	0.180031
H97	H	1.252605	0.021154	0.773917
H98	H	0.664588	0.239106	0.239524
H99	H	1.165383	0.414780	0.153481
H100	H	1.312244	-0.068693	0.705162
H101	H	1.332098	-0.098597	0.583371
F102	F	0.790781	0.270499	0.270776
F103	F	1.225010	0.828523	0.064008
H104	H	1.252515	0.772045	0.022606
F105	F	1.123283	0.438740	0.217158
H106	H	0.936671	0.235342	0.235805
F107	F	1.316693	-0.075391	0.421698
