data_functionalizedCrystal
_audit_creation_method	'MofGen! by Chris Wilmer'
_symmetry_space_group_name_H-M	'P1'
_symmetry_Int_Tables_number	1
_symmetry_cell_setting	triclinic
loop_
_symmetry_equiv_pos_as_xyz
  x,y,z
_cell_length_a	12.759395
_cell_length_b	25.639240
_cell_length_c	25.639234
_cell_angle_alpha	90.028287
_cell_angle_beta	90.009129
_cell_angle_gamma	90.033519
loop_
_atom_site_label
_atom_site_type_symbol
_atom_site_fract_x
_atom_site_fract_y
_atom_site_fract_z
Zn1	Zn	1.606013	-0.208192	0.295568
Zn2	Zn	1.939347	0.125142	0.628901
Zn3	Zn	2.272680	0.458475	0.962234
Zn4	Zn	1.605885	-0.295614	0.208121
Zn5	Zn	1.939219	0.037719	0.541455
Zn6	Zn	2.272552	0.371053	0.874788
Zn7	Zn	1.430348	-0.208196	0.208148
Zn8	Zn	1.763681	0.125138	0.541481
Zn9	Zn	2.097015	0.458471	0.874815
Zn10	Zn	1.430249	-0.295599	0.295527
Zn11	Zn	1.763582	0.037734	0.628861
Zn12	Zn	2.096915	0.371068	0.962194
O13	O	1.518124	-0.251900	0.251841
O14	O	1.851457	0.081433	0.585174
O15	O	2.184790	0.414767	0.918508
O16	O	1.753017	-0.219793	0.283974
O17	O	2.086351	0.113540	0.617307
O18	O	2.419684	0.446874	0.950640
O19	O	1.582588	-0.284026	0.134960
O20	O	1.915921	0.049308	0.468293
O21	O	2.249254	0.382641	0.801626
O22	O	1.453746	-0.135030	0.219773
O23	O	1.787079	0.198303	0.553106
O24	O	2.120412	0.531637	0.886439
O25	O	1.752923	-0.284022	0.219727
O26	O	2.086257	0.049311	0.553060
O27	O	2.419590	0.382645	0.886394
O28	O	1.582806	-0.135027	0.284000
O29	O	1.916140	0.198306	0.617333
O30	O	2.249473	0.531640	0.950666
O31	O	1.453621	-0.219800	0.134979
O32	O	1.786955	0.113534	0.468313
O33	O	2.120288	0.446867	0.801646
O34	O	1.283314	-0.219785	0.219733
O35	O	1.616647	0.113548	0.553067
O36	O	1.949980	0.446881	0.886400
O37	O	1.453576	-0.283996	0.368698
O38	O	1.786910	0.049337	0.702031
O39	O	2.120243	0.382670	1.035365
O40	O	1.283241	-0.284000	0.283931
O41	O	1.616574	0.049333	0.617264
O42	O	1.949907	0.382667	0.950597
O43	O	1.582710	-0.219778	0.368728
O44	O	1.916043	0.113555	0.702061
O45	O	2.249377	0.446888	1.035394
O46	O	1.582491	-0.368777	0.219688
O47	O	1.915825	-0.035444	0.553021
O48	O	2.249158	0.297889	0.886354
O49	O	1.453452	-0.368766	0.283905
O50	O	1.786785	-0.035433	0.617238
O51	O	2.120119	0.297900	0.950571
C52	C	1.245156	-0.251892	0.251831
C53	C	1.578490	0.081441	0.585164
C54	C	1.911823	0.414775	0.918498
C55	C	1.128380	-0.251901	0.251839
C56	C	1.461713	0.081432	0.585172
C57	C	1.795046	0.414766	0.918506
C58	C	0.909043	-0.185139	0.318864
C59	C	1.242376	0.148194	0.652198
C60	C	1.575709	0.481528	0.985531
C61	C	0.963958	-0.151747	0.352362
C62	C	1.297291	0.181586	0.685695
C63	C	1.630625	0.514920	1.019029
C64	C	1.073680	-0.151738	0.352353
C65	C	1.407013	0.181595	0.685686
C66	C	1.740346	0.514929	1.019020
C67	C	1.128489	-0.185126	0.318844
C68	C	1.461822	0.148208	0.652177
C69	C	1.795155	0.481541	0.985510
C70	C	1.073573	-0.218518	0.285346
C71	C	1.406907	0.114815	0.618679
C72	C	1.740240	0.448149	0.952012
C73	C	0.963849	-0.218522	0.285357
C74	C	1.297182	0.114811	0.618691
C75	C	1.630516	0.448145	0.952024
C76	C	1.073464	-0.285293	0.218341
C77	C	1.406798	0.048040	0.551674
C78	C	1.740131	0.381374	0.885008
C79	C	0.963743	-0.285300	0.218347
C80	C	1.297076	0.048033	0.551680
C81	C	1.630409	0.381366	0.885013
C82	C	1.128273	-0.318681	0.184832
C83	C	1.461607	0.014652	0.518165
C84	C	1.794940	0.347986	0.851498
C85	C	1.073358	-0.352071	0.151330
C86	C	1.406691	-0.018738	0.484664
C87	C	1.740025	0.314596	0.817997
C88	C	0.963630	-0.352078	0.151340
C89	C	1.296963	-0.018745	0.484674
C90	C	1.630296	0.314588	0.818007
C91	C	0.908828	-0.318692	0.184849
C92	C	1.242161	0.014641	0.518182
C93	C	1.575494	0.347974	0.851516
C94	C	1.517975	-0.387743	0.251800
C95	C	1.851309	-0.054409	0.585133
C96	C	2.184642	0.278924	0.918467
C97	C	1.518008	-0.445857	0.251800
C98	C	1.851341	-0.112523	0.585133
C99	C	2.184675	0.220810	0.918467
C100	C	1.585359	-0.806180	0.285344
C101	C	1.918692	-0.472846	0.618678
C102	C	2.252026	-0.139513	0.952011
C103	C	1.585390	-0.860784	0.285355
C104	C	1.918723	-0.527451	0.618688
C105	C	2.252057	-0.194117	0.952022
O106	O	1.642478	-0.888987	0.313833
O107	O	1.975811	-0.555653	0.647167
O108	O	2.309144	-0.222320	0.980500
N109	N	1.518270	-0.888139	0.251892
N110	N	1.851603	-0.554806	0.585225
N111	N	2.184936	-0.221472	0.918558
C112	C	1.451106	-0.860887	0.218419
C113	C	1.784440	-0.527554	0.551753
C114	C	2.117773	-0.194220	0.885086
O115	O	1.394017	-0.889169	0.189957
O116	O	1.727351	-0.555835	0.523291
O117	O	2.060684	-0.222502	0.856624
C118	C	1.451071	-0.806284	0.218412
C119	C	1.784404	-0.472950	0.551745
C120	C	2.117737	-0.139617	0.885078
C121	C	1.518203	-0.778931	0.251873
C122	C	1.851536	-0.445598	0.585207
C123	C	2.184870	-0.112265	0.918540
C124	C	1.652485	-0.778827	0.318804
C125	C	1.985818	-0.445494	0.652137
C126	C	2.319152	-0.112161	0.985471
C127	C	1.652455	-0.724227	0.318792
C128	C	1.985789	-0.390894	0.652126
C129	C	2.319122	-0.057560	0.985459
C130	C	1.585299	-0.696979	0.285321
C131	C	1.918633	-0.363645	0.618655
C132	C	2.251966	-0.030312	0.951988
C133	C	1.518173	-0.724331	0.251862
C134	C	1.851507	-0.390998	0.585195
C135	C	2.184840	-0.057664	0.918529
C136	C	1.383903	-0.779033	0.184942
C137	C	1.717236	-0.445699	0.518276
C138	C	2.050570	-0.112366	0.851609
C139	C	1.383873	-0.724426	0.184938
C140	C	1.717206	-0.391092	0.518271
C141	C	2.050539	-0.057759	0.851604
C142	C	1.451005	-0.697073	0.218400
C143	C	1.784338	-0.363740	0.551733
C144	C	2.117672	-0.030407	0.885066
C145	C	1.450987	-0.642482	0.218380
C146	C	1.784321	-0.309149	0.551713
C147	C	2.117654	0.024184	0.885046
N148	N	1.518108	-0.615127	0.251843
N149	N	1.851441	-0.281794	0.585176
N150	N	2.184775	0.051540	0.918510
C151	C	1.585264	-0.642375	0.285314
C152	C	1.918597	-0.309042	0.618647
C153	C	2.251930	0.024291	0.951981
C154	C	1.451185	-0.975558	0.218438
C155	C	1.784518	-0.642224	0.551772
C156	C	2.117851	-0.308891	0.885105
C157	C	1.451225	-1.030160	0.218443
C158	C	1.784558	-0.696827	0.551776
C159	C	2.117891	-0.363493	0.885110
C160	C	1.585507	-1.030053	0.285380
C161	C	1.918841	-0.696720	0.618713
C162	C	2.252174	-0.363387	0.952046
C163	C	1.585472	-0.975450	0.285372
C164	C	1.918805	-0.642117	0.618705
C165	C	2.252138	-0.308783	0.952039
C166	C	1.518305	-0.948203	0.251902
C167	C	1.851638	-0.614869	0.585235
C168	C	2.184972	-0.281536	0.918568
C169	C	1.585197	-0.527710	0.285287
C170	C	1.918530	-0.194377	0.618620
C171	C	2.251863	0.138956	0.951954
C172	C	1.585164	-0.473105	0.285271
C173	C	1.918497	-0.139772	0.618604
C174	C	2.251831	0.193562	0.951938
C175	C	1.450878	-0.473216	0.218337
C176	C	1.784211	-0.139883	0.551670
C177	C	2.117545	0.193450	0.885003
C178	C	1.450914	-0.527817	0.218350
C179	C	1.784247	-0.194484	0.551684
C180	C	2.117581	0.138850	0.885017
C181	C	1.518077	-0.555063	0.251830
C182	C	1.851410	-0.221729	0.585163
C183	C	2.184744	0.111604	0.918496
O184	O	1.393926	-0.614245	0.189917
O185	O	1.727259	-0.280911	0.523251
O186	O	2.060593	0.052422	0.856584
O187	O	1.642333	-0.614087	0.313776
O188	O	1.975667	-0.280754	0.647109
O189	O	2.309000	0.052580	0.980442
C190	C	1.792157	-0.251909	0.251852
C191	C	2.125491	0.081425	0.585185
C192	C	2.458824	0.414758	0.918518
C193	C	1.908934	-0.251912	0.251856
C194	C	2.242267	0.081421	0.585190
C195	C	2.575601	0.414754	0.918523
C196	C	1.518146	-0.251885	0.388214
C197	C	1.851480	0.081448	0.721547
C198	C	2.184813	0.414781	1.054881
C199	C	1.518156	-0.251879	0.446328
C200	C	1.851489	0.081454	0.779662
C201	C	2.184822	0.414788	1.112995
C202	C	1.518301	-0.115527	0.251894
C203	C	1.851635	0.217806	0.585227
C204	C	2.184968	0.551140	0.918560
C205	C	1.518377	-0.057413	0.251916
C206	C	1.851711	0.275920	0.585249
C207	C	2.185044	0.609254	0.918583
C208	C	1.518162	-0.251877	0.115999
C209	C	1.851495	0.081456	0.449332
C210	C	2.184829	0.414790	0.782665
C211	C	1.518356	-0.251736	0.057885
C212	C	1.851689	0.081597	0.391218
C213	C	2.185023	0.414931	0.724552
C214	C	1.450986	-0.285251	0.697501
C215	C	1.784319	0.048082	1.030834
C216	C	2.117653	0.381415	1.364167
C217	C	1.450968	-0.285263	0.642896
C218	C	1.784301	0.048070	0.976230
C219	C	2.117634	0.381403	1.309563
O220	O	1.393757	-0.313690	0.614642
O221	O	1.727090	0.019643	0.947975
O222	O	2.060423	0.352977	1.281308
N223	N	1.518196	-0.251837	0.615602
N224	N	1.851529	0.081497	0.948936
N225	N	2.184862	0.414830	1.282269
C226	C	1.585439	-0.218393	0.642915
C227	C	1.918773	0.114941	0.976249
C228	C	2.252106	0.448274	1.309582
O229	O	1.642620	-0.189961	0.614686
O230	O	1.975953	0.143372	0.948019
O231	O	2.309286	0.476705	1.281352
C232	C	1.585452	-0.218379	0.697519
C233	C	1.918785	0.114955	1.030852
C234	C	2.252118	0.448288	1.364185
C235	C	1.518227	-0.251811	0.724810
C236	C	1.851560	0.081522	1.058143
C237	C	2.184893	0.414856	1.391477
C238	C	1.383765	-0.318681	0.724792
C239	C	1.717099	0.014653	1.058125
C240	C	2.050432	0.347986	1.391459
C241	C	1.383786	-0.318670	0.779392
C242	C	1.717119	0.014664	1.112726
C243	C	2.050452	0.347997	1.446059
C244	C	1.451026	-0.285229	0.806702
C245	C	1.784359	0.048104	1.140035
C246	C	2.117693	0.381438	1.473368
C247	C	1.518247	-0.251800	0.779410
C248	C	1.851580	0.081534	1.112744
C249	C	2.184913	0.414867	1.446077
C250	C	1.652689	-0.184932	0.724831
C251	C	1.986022	0.148401	1.058164
C252	C	2.319356	0.481735	1.391497
C253	C	1.652695	-0.184921	0.779438
C254	C	1.986028	0.148413	1.112771
C255	C	2.319362	0.481746	1.446105
C256	C	1.585470	-0.218353	0.806729
C257	C	1.918803	0.114980	1.140062
C258	C	2.252137	0.448314	1.473396
C259	C	1.585507	-0.218348	0.861320
C260	C	1.918841	0.114985	1.194654
C261	C	2.252174	0.448319	1.527987
N262	N	1.518279	-0.251775	0.888614
N263	N	1.851612	0.081559	1.221948
N264	N	2.184946	0.414892	1.555281
C265	C	1.451038	-0.285215	0.861305
C266	C	1.784372	0.048118	1.194638
C267	C	2.117705	0.381452	1.527972
C268	C	1.585407	-0.218424	0.528245
C269	C	1.918740	0.114909	0.861578
C270	C	2.252074	0.448243	1.194911
C271	C	1.585401	-0.218440	0.473642
C272	C	1.918734	0.114893	0.806976
C273	C	2.252067	0.448226	1.140309
C274	C	1.450927	-0.285310	0.473627
C275	C	1.784261	0.048023	0.806960
C276	C	2.117594	0.381356	1.140294
C277	C	1.450940	-0.285296	0.528230
C278	C	1.784273	0.048037	0.861564
C279	C	2.117606	0.381370	1.194897
C280	C	1.518179	-0.251850	0.555539
C281	C	1.851512	0.081483	0.888872
C282	C	2.184845	0.414816	1.222205
C283	C	1.451086	-0.285189	0.975970
C284	C	1.784420	0.048144	1.309304
C285	C	2.117753	0.381477	1.642637
C286	C	1.451115	-0.285177	1.030576
C287	C	1.784449	0.048157	1.363909
C288	C	2.117782	0.381490	1.697242
C289	C	1.585585	-0.218305	1.030586
C290	C	1.918918	0.115029	1.363919
C291	C	2.252251	0.448362	1.697253
C292	C	1.585560	-0.218319	0.975986
C293	C	1.918893	0.115014	1.309319
C294	C	2.252226	0.448348	1.642652
C295	C	1.518302	-0.251763	0.948679
C296	C	1.851635	0.081570	1.282012
C297	C	2.184969	0.414904	1.615346
O298	O	1.642686	-0.189934	0.889610
O299	O	1.976019	0.143399	1.222943
O300	O	2.309352	0.476732	1.556276
O301	O	1.393858	-0.313636	0.889541
O302	O	1.727191	0.019697	1.222875
O303	O	2.060525	0.353030	1.556208
H304	H	1.639835	-0.450836	0.312520
H305	H	1.973168	-0.117503	0.645853
H306	H	2.306501	0.215830	0.979186
H307	H	1.396258	-0.550088	0.191099
H308	H	1.729591	-0.216755	0.524432
H309	H	2.062924	0.116578	0.857766
H310	H	0.819702	-0.185132	0.318864
H311	H	1.153035	0.148202	0.652197
H312	H	1.486368	0.481535	0.985530
H313	H	1.707432	-0.157708	0.702620
H314	H	2.040765	0.175625	1.035953
H315	H	2.374099	0.508958	1.369286
H316	H	1.217614	-0.318674	0.184830
H317	H	1.550948	0.014659	0.518163
H318	H	1.884281	0.347992	0.851496
H319	H	0.919321	-0.124564	0.379646
H320	H	1.252654	0.208769	0.712979
H321	H	1.585987	0.542102	1.046313
Br322	Br	1.277398	-0.185122	0.318841
Br323	Br	1.610731	0.148211	0.652175
Br324	Br	1.944064	0.481544	0.985508
Br325	Br	1.359744	-0.436226	0.172913
Br326	Br	1.693077	-0.102893	0.506246
Br327	Br	2.026410	0.230440	0.839580
H328	H	1.639880	-0.549887	0.312553
H329	H	1.973213	-0.216554	0.645886
H330	H	2.306546	0.116779	0.979219
H331	H	1.707117	-0.701960	0.346041
H332	H	2.040450	-0.368627	0.679375
H333	H	2.373784	-0.035293	1.012708
H334	H	1.329237	-0.801294	0.157694
H335	H	1.662570	-0.467960	0.491027
H336	H	1.995904	-0.134627	0.824360
Br337	Br	1.676657	-0.173075	0.436611
Br338	Br	2.009990	0.160259	0.769944
Br339	Br	2.343323	0.493592	1.103278
Br340	Br	1.743632	-0.815797	0.364238
Br341	Br	2.076966	-0.482464	0.697571
Br342	Br	2.410299	-0.149130	1.030904
Br343	Br	1.360026	-0.938585	0.173007
Br344	Br	1.693360	-0.605251	0.506341
Br345	Br	2.026693	-0.271918	0.839674
H346	H	1.329041	-0.345892	0.801608
H347	H	1.662374	-0.012559	1.134941
H348	H	1.995708	0.320774	1.468275
Br349	Br	1.676839	-0.172925	1.067659
Br350	Br	2.010172	0.160408	1.400993
Br351	Br	2.343505	0.493742	1.734326
H352	H	1.329004	-0.345912	0.702562
H353	H	1.662337	-0.012578	1.035896
H354	H	1.995670	0.320755	1.369229
H355	H	1.329174	-0.702244	0.157683
H356	H	1.662507	-0.368910	0.491016
H357	H	1.995841	-0.035577	0.824350
Br358	Br	0.889111	-0.397405	0.105882
Br359	Br	1.222444	-0.064071	0.439215
Br360	Br	1.555778	0.269262	0.772549
Br361	Br	1.148212	-0.106424	0.397818
Br362	Br	1.481546	0.226909	0.731151
Br363	Br	1.814879	0.560243	1.064485
Br364	Br	1.359674	-0.330696	0.436554
Br365	Br	1.693007	0.002637	0.769887
Br366	Br	2.026341	0.335971	1.103221
H367	H	0.819486	-0.318688	0.184854
H368	H	1.152820	0.014645	0.518187
H369	H	1.486153	0.347978	0.851521
H370	H	1.640169	-0.191189	0.550476
H371	H	1.973503	0.142144	0.883809
H372	H	2.306836	0.475478	1.217142
H373	H	1.707446	-0.157682	0.801669
H374	H	2.040779	0.175651	1.135003
H375	H	2.374113	0.508985	1.468336
Br376	Br	1.359881	-0.330555	1.067611
Br377	Br	1.693214	0.002778	1.400944
Br378	Br	2.026548	0.336112	1.734277
H379	H	1.117992	-0.379255	0.124052
H380	H	1.451325	-0.045922	0.457386
H381	H	1.784659	0.287411	0.790719
H382	H	1.640136	-0.953183	0.312620
H383	H	1.973469	-0.619850	0.645953
H384	H	2.306803	-0.286516	0.979286
H385	H	1.396309	-0.312418	0.953744
H386	H	1.729643	0.020915	1.287077
H387	H	2.062976	0.354249	1.620410
H388	H	1.640307	-0.191099	0.953764
H389	H	1.973641	0.142234	1.287097
H390	H	2.306974	0.475567	1.620431
Br391	Br	1.360131	-1.067274	0.173020
Br392	Br	1.693464	-0.733941	0.506353
Br393	Br	2.026797	-0.400607	0.839687
Br394	Br	1.676649	-1.067043	0.330805
Br395	Br	2.009983	-0.733710	0.664138
Br396	Br	2.343316	-0.400377	0.997471
Br397	Br	1.359702	-0.330670	0.565263
Br398	Br	1.693035	0.002663	0.898596
Br399	Br	2.026369	0.335997	1.231929
