data_functionalizedCrystal
_audit_creation_method	'MofGen! by Chris Wilmer'
_symmetry_space_group_name_H-M	'P1'
_symmetry_Int_Tables_number	1
_symmetry_cell_setting	triclinic
loop_
_symmetry_equiv_pos_as_xyz
  x,y,z
_cell_length_a	15.944480
_cell_length_b	9.616153
_cell_length_c	10.540539
_cell_angle_alpha	90.004388
_cell_angle_beta	83.997669
_cell_angle_gamma	90.001301
loop_
_atom_site_label
_atom_site_type_symbol
_atom_site_fract_x
_atom_site_fract_y
_atom_site_fract_z
O1	O	-1.115532	-0.115609	-0.163288
O2	O	-0.871095	-0.115618	-0.183566
O3	O	-0.998890	-0.115611	0.011358
O4	O	-0.987736	-0.115615	-0.358211
O5	O	-0.998885	0.115680	0.011371
O6	O	-0.871090	0.115674	-0.183552
O7	O	-1.115526	0.115682	-0.163274
Zn8	Zn	-0.993307	0.152400	-0.173411
Zn9	Zn	-0.993314	-0.152336	-0.173429
O10	O	-0.987731	0.115676	-0.358198
C11	C	-0.839792	0.000027	-0.182733
C12	C	-0.746528	0.000023	-0.180257
C13	C	-0.511451	0.000019	-0.295004
C14	C	-0.460521	0.114064	-0.233131
C15	C	-0.575779	0.000024	-0.175668
C16	C	-0.460531	-0.113971	-0.233116
C17	C	-0.410842	0.000019	-0.171245
C18	C	-0.526077	0.114163	-0.113827
C19	C	-0.526090	-0.113974	-0.113830
C20	C	-0.475193	0.000098	-0.051869
C21	C	-0.670795	0.000029	-0.178220
C22	C	-0.315829	0.000025	-0.168684
N23	N	-0.993309	0.360375	-0.173398
C24	C	-0.998051	0.000032	0.058656
C25	C	-0.995548	0.000024	0.199569
C26	C	-0.146828	0.000032	-0.164125
C27	C	-0.240087	0.000019	-0.166652
N28	N	-0.993319	-0.360310	-0.173432
C29	C	-1.061926	0.580705	-0.069480
C30	C	-1.061741	0.419538	-0.069090
C31	C	-0.905499	0.418903	-0.144497
C32	C	-0.905907	0.580121	-0.143769
C33	C	-1.011732	0.580249	-0.306589
C34	C	-1.013714	0.419020	-0.305689
C35	C	-0.988570	0.000030	-0.405496
C36	C	-0.991073	0.000028	-0.546409
C37	C	-0.899658	-0.000498	0.381653
C38	C	-0.902195	0.000022	0.235071
C39	C	-1.040471	0.132104	0.261863
C40	C	-1.037285	0.132216	0.408363
C41	C	-1.039190	-0.130806	0.408892
C42	C	-1.040050	-0.132552	0.261922
H43	H	-0.554603	0.210676	-0.063455
F44	F	-0.997423	-0.260285	0.207319
H45	H	-0.853280	0.619141	-0.216605
F46	F	-0.851457	-0.124302	0.418350
F47	F	-0.851525	0.122269	0.420898
F48	F	-1.129011	-0.142983	0.231503
H49	H	-0.853182	0.380582	-0.218191
H50	H	-0.889016	0.378540	-0.048489
H51	H	-1.104424	0.138210	0.457272
H52	H	-0.889800	0.617739	-0.046659
H53	H	-1.049893	0.380984	0.029732
F54	F	-1.127323	-0.131967	0.471855
H55	H	-0.527688	0.000125	-0.397794
H56	H	-0.866595	0.094858	0.192822
F57	F	-0.423086	0.240083	-0.298994
F58	F	-0.993882	0.261260	0.444625
H59	H	-1.074438	0.620899	-0.334377
H60	H	-1.109027	0.137018	0.240469
F61	F	-0.454169	0.000186	0.082583
H62	H	-0.554738	-0.210393	-0.063476
H63	H	-1.050248	0.621236	0.028777
F64	F	-0.423102	-0.239978	-0.299025
H65	H	-0.961711	0.618401	-0.383947
F66	F	-1.147021	0.367809	-0.091596
F67	F	-1.147498	0.631359	-0.091614
H68	H	-1.009261	0.230392	0.218832
F69	F	-1.098147	0.369011	-0.334365
F70	F	-0.952709	0.366380	-0.411530
H71	H	-0.866847	-0.094658	0.191967
H72	H	-1.008978	-0.230914	0.440017
