data_functionalizedCrystal
_audit_creation_method	'MofGen! by Chris Wilmer'
_symmetry_space_group_name_H-M	'P1'
_symmetry_Int_Tables_number	1
_symmetry_cell_setting	triclinic
loop_
_symmetry_equiv_pos_as_xyz
  x,y,z
_cell_length_a	27.440280
_cell_length_b	14.560438
_cell_length_c	14.560438
_cell_angle_alpha	90.001361
_cell_angle_beta	60.007584
_cell_angle_gamma	59.998988
loop_
_atom_site_label
_atom_site_type_symbol
_atom_site_fract_x
_atom_site_fract_y
_atom_site_fract_z
Zr1	Zr	0.533397	-0.120498	0.884883
O2	O	0.635056	-0.267144	0.738263
O3	O	0.431736	-0.075545	0.929813
O4	O	0.533396	-0.267143	0.929840
O5	O	0.533397	0.075593	0.738235
O6	O	0.533397	-0.267141	1.080978
O7	O	0.533396	-0.075545	0.738237
O8	O	0.351546	0.075594	1.080930
O9	O	0.715248	-0.267142	0.738283
O10	O	0.473552	-0.056369	1.061789
O11	O	0.473552	0.056422	0.948995
O12	O	0.593244	-0.169161	0.949026
O13	O	0.593244	-0.056370	0.836232
Zr14	Zr	0.533401	0.120554	1.125929
Zr15	Zr	0.533399	-0.120494	1.125931
Zr16	Zr	0.533399	0.120550	0.884881
Zr17	Zr	0.661294	-0.120495	0.884914
Zr18	Zr	0.405503	0.120551	1.125898
O19	O	0.635062	0.075601	1.080999
O20	O	0.635059	-0.267139	1.081003
O21	O	0.635059	0.075595	0.738260
O22	O	0.431742	0.267200	1.272549
O23	O	0.431739	-0.075539	1.272552
O24	O	0.431739	0.267195	0.929810
O25	O	0.533401	-0.075537	1.272577
O26	O	0.533402	0.267199	1.080973
O27	O	0.533401	0.267197	0.929835
O28	O	0.533402	0.075601	1.272576
O29	O	0.715250	-0.267139	0.929884
O30	O	0.351548	0.267195	1.080929
O31	O	0.351550	0.267198	1.272530
O32	O	0.351548	0.075597	1.272532
O33	O	0.715250	-0.075541	0.738281
O34	O	0.715252	-0.075538	0.929882
O35	O	0.473554	0.169217	1.061786
O36	O	0.473554	0.056426	1.174580
O37	O	0.593246	-0.056366	1.061818
O38	O	0.593246	0.056425	0.949024
C39	C	0.373418	0.000024	1.005367
C40	C	0.319122	0.000023	1.005354
C41	C	0.533396	0.000023	0.703892
C42	C	0.533395	0.000022	0.601561
C43	C	0.533402	0.301542	1.005403
C44	C	0.533402	0.403874	1.005402
C45	C	-0.017620	-0.058838	1.064315
C46	C	-0.068643	-0.058835	1.064325
O47	O	-0.095050	-0.108872	1.114432
N48	N	-0.094160	0.000039	1.005447
C49	C	-0.068654	0.058922	0.946564
O50	O	-0.095043	0.109000	0.896485
C51	C	-0.017635	0.058925	0.946561
C52	C	0.007884	0.000038	1.005434
C53	C	0.007898	-0.117719	1.123184
C54	C	0.058920	-0.117723	1.123172
C55	C	0.084423	-0.058847	1.064290
C56	C	0.058905	0.000034	1.005421
C57	C	0.007866	0.117814	0.887685
C58	C	0.058889	0.117813	0.887688
C59	C	0.084407	0.058926	0.946561
C60	C	0.135430	0.058906	0.946528
N61	N	0.160946	0.000032	1.005406
C62	C	0.135442	-0.058844	1.064287
C63	C	-0.175799	0.058913	0.946576
C64	C	-0.226814	0.058905	0.946572
C65	C	-0.226801	-0.058851	1.064335
C66	C	-0.175782	-0.058848	1.064332
C67	C	-0.150283	0.000040	1.005454
C68	C	0.242591	-0.058850	1.064257
C69	C	0.293619	-0.058853	1.064235
C70	C	0.293599	0.058907	0.946477
C71	C	0.242578	0.058906	0.946493
C72	C	0.217074	0.000025	1.005391
O73	O	0.161866	0.108921	0.896450
O74	O	0.161831	-0.108901	1.114370
C75	C	0.693379	0.000032	1.005445
C76	C	0.747675	0.000033	1.005458
C77	C	0.533396	-0.301486	1.005409
C78	C	0.533395	-0.403818	1.005410
C79	C	0.595879	0.393076	0.946547
C80	C	0.595876	0.489231	0.946547
C81	C	0.470914	0.606978	1.064267
C82	C	0.470918	0.510824	1.064260
C83	C	0.668025	0.325096	0.878586
C84	C	0.668022	0.421251	0.878586
C85	C	0.470919	0.058897	0.612343
C86	C	0.470922	0.058908	0.516188
C87	C	0.595884	-0.058843	0.398472
C88	C	0.595880	-0.058846	0.494625
C89	C	0.398773	0.126876	0.680305
C90	C	0.398776	0.126886	0.584150
C91	C	0.533402	0.000033	1.306921
C92	C	0.533402	0.000035	1.409252
C93	C	0.373421	0.000029	1.306882
C94	C	0.319126	0.000030	1.409200
C95	C	0.373421	0.301539	1.005365
C96	C	0.319126	0.403869	1.005350
C97	C	0.373424	0.301544	1.306879
C98	C	0.319130	0.403875	1.409196
C99	C	0.693374	-0.301488	0.703934
C100	C	0.747668	-0.403819	0.601617
C101	C	0.693377	0.000027	0.703931
C102	C	0.747672	0.000026	0.601613
C103	C	0.693377	-0.301483	1.005448
C104	C	0.747672	-0.403813	1.005462
C105	C	0.293627	-0.058858	1.398373
C106	C	0.242619	-0.058880	1.494503
C107	C	0.217106	-0.000007	1.601458
C108	C	0.242609	0.058882	1.612282
C109	C	0.293621	0.058897	1.516153
C110	C	0.293630	0.510812	1.064220
C111	C	0.242621	0.606971	1.064202
C112	C	0.217106	0.596185	1.005321
C113	C	0.242607	0.489230	0.946444
C114	C	0.293619	0.393074	0.946456
C115	C	0.293633	0.393056	1.516132
C116	C	0.242625	0.489198	1.612279
C117	C	0.217111	0.596159	1.601487
C118	C	0.242613	0.606976	1.494540
C119	C	0.293624	0.510835	1.398395
C120	C	0.773171	-0.393000	0.494680
C121	C	0.824195	-0.489142	0.398533
C122	C	0.849711	-0.596103	0.409325
C123	C	0.824206	-0.606920	0.516273
C124	C	0.773186	-0.510779	0.612417
C125	C	0.773176	0.058904	0.612439
C126	C	0.824198	0.058899	0.516310
C127	C	0.849713	0.000023	0.409355
C128	C	0.824207	-0.058861	0.398531
C129	C	0.773189	-0.058863	0.494659
C130	C	0.773170	-0.392990	1.064355
C131	C	0.824179	-0.489131	1.064390
C132	C	0.849692	-0.596093	1.005525
C133	C	0.824189	-0.606913	0.946631
C134	C	0.773177	-0.510774	0.946603
H135	H	0.314396	-0.106809	1.112176
H136	H	0.314398	0.519616	1.112168
O137	O	0.697689	0.257634	0.937994
H138	H	0.666615	0.310493	1.026768
H139	H	-0.155037	0.106861	0.898619
H140	H	0.314371	0.305999	0.898521
O141	O	0.321114	0.522521	1.283060
H142	H	0.360874	0.437706	1.218007
H143	H	0.175568	-0.000027	1.679722
H144	H	0.221829	0.106814	1.699377
H145	H	0.695728	0.272900	0.788563
H146	H	0.221860	-0.106834	1.485667
H147	H	0.371081	0.089059	0.584138
H148	H	-0.012903	0.165768	0.839746
O149	O	0.215118	0.722315	1.127726
H150	H	0.224919	0.768945	1.068301
H151	H	0.844953	-0.480312	0.311461
H152	H	0.844969	-0.694015	0.898705
O153	O	0.697682	0.432819	0.763288
H154	H	0.713413	0.361188	0.702158
H155	H	0.371118	0.216894	0.732455
H156	H	0.420041	0.694067	1.112186
H157	H	0.221826	0.480465	0.898505
H158	H	0.314375	0.106857	1.524984
H159	H	0.175569	0.674491	1.005321
H160	H	0.646754	-0.106784	0.485837
H161	H	0.844939	-0.480299	1.112347
O162	O	0.403530	0.522475	1.127728
H163	H	0.414028	0.437647	1.117827
H164	H	0.891254	-0.674378	0.331029
O165	O	0.215116	0.477519	1.727622
H166	H	0.241420	0.386989	1.718964
H167	H	0.752425	-0.106805	0.485828
H168	H	0.752405	0.106855	0.699519
H169	H	0.314398	0.305971	1.524941
O170	O	0.904721	-0.699785	1.005543
H171	H	0.918168	-0.674278	1.056375
H172	H	0.844989	-0.106797	0.311435
H173	H	0.891256	0.000034	0.331090
O174	O	0.745686	-0.522469	0.883068
H175	H	0.689412	-0.481499	0.942481
O176	O	0.704700	0.421270	0.928710
H177	H	0.722653	0.345029	0.953260
H178	H	0.175575	0.674434	1.679784
H179	H	0.221833	0.694077	1.485769
H180	H	0.752399	-0.305915	0.485871
O181	O	0.215093	-0.122367	1.127767
H182	H	0.241422	-0.163317	1.168684
O183	O	0.745650	-0.277630	1.127863
H184	H	0.771950	-0.286275	1.168829
H185	H	0.079692	-0.165670	1.171114
O186	O	0.745685	-0.522438	0.727764
H187	H	0.689409	-0.481451	0.774390
H188	H	-0.012864	-0.165662	1.171137
H189	H	0.646757	-0.106772	0.311395
O190	O	0.851695	0.122429	0.527996
H191	H	0.825368	0.163385	0.618520
H192	H	0.844988	-0.694019	0.525047
H193	H	-0.247576	-0.106789	1.112281
O194	O	-0.148263	-0.122352	1.127837
H195	H	-0.174576	-0.163285	1.168782
H196	H	-0.247580	0.106841	0.898617
H197	H	0.079648	0.165766	0.839740
H198	H	0.221808	0.106841	0.898539
H199	H	0.376389	0.082010	0.731208
O200	O	0.321074	0.122477	0.883039
H201	H	0.360821	0.112610	0.892962
O202	O	0.369107	0.242198	0.572592
H203	H	0.353373	0.303328	0.644227
O204	O	0.321146	-0.122372	1.283020
H205	H	0.294846	-0.163332	1.291660
