data_functionalizedCrystal
_audit_creation_method	'MofGen! by Chris Wilmer'
_symmetry_space_group_name_H-M	'P1'
_symmetry_Int_Tables_number	1
_symmetry_cell_setting	triclinic
loop_
_symmetry_equiv_pos_as_xyz
  x,y,z
_cell_length_a	27.732064
_cell_length_b	27.732048
_cell_length_c	14.048226
_cell_angle_alpha	89.988614
_cell_angle_beta	90.001165
_cell_angle_gamma	82.646040
loop_
_atom_site_label
_atom_site_type_symbol
_atom_site_fract_x
_atom_site_fract_y
_atom_site_fract_z
O1	O	0.640923	0.057556	-0.079001
O2	O	0.974256	0.390890	0.254332
O3	O	1.307590	0.724223	0.587666
O4	O	0.500131	0.066293	-0.079042
O5	O	0.833464	0.399627	0.254292
O6	O	1.166797	0.732960	0.587625
O7	O	0.574900	-0.008472	-0.079002
O8	O	0.908233	0.324862	0.254332
O9	O	1.241566	0.658195	0.587665
O10	O	0.566154	0.132321	-0.079041
O11	O	0.899488	0.465655	0.254293
O12	O	1.232821	0.798988	0.587626
O13	O	0.574891	-0.008476	0.079319
O14	O	0.908224	0.324857	0.412653
O15	O	1.241557	0.658191	0.745986
O16	O	0.500122	0.066289	0.079280
O17	O	0.833455	0.399622	0.412613
O18	O	1.166789	0.732956	0.745946
O19	O	0.640914	0.057552	0.079320
O20	O	0.974248	0.390885	0.412654
O21	O	1.307581	0.724219	0.745987
Zn22	Zn	0.570517	0.061920	0.104437
Zn23	Zn	0.903850	0.395253	0.437770
Zn24	Zn	1.237183	0.728586	0.771104
Zn25	Zn	0.570528	0.061925	-0.104158
Zn26	Zn	0.903862	0.395259	0.229175
Zn27	Zn	1.237195	0.728592	0.562509
O28	O	0.566145	0.132317	0.079281
O29	O	0.899479	0.465650	0.412614
O30	O	1.232812	0.798984	0.745947
C31	C	0.482120	0.066106	0.000114
C32	C	0.815453	0.399440	0.333448
C33	C	1.148786	0.732773	0.666781
C34	C	0.428465	0.065551	0.000100
C35	C	0.761798	0.398884	0.333433
C36	C	1.095132	0.732217	0.666766
C37	C	0.051392	0.017583	0.000167
C38	C	0.384726	0.350917	0.333500
C39	C	0.718059	0.684250	0.666834
C40	C	0.253053	0.019630	0.000142
C41	C	0.586386	0.352963	0.333475
C42	C	0.919719	0.686296	0.666808
O43	O	0.284305	-0.017591	0.000187
O44	O	0.617639	0.315742	0.333521
O45	O	0.950972	0.649075	0.666854
N46	N	0.272180	0.063964	0.000125
N47	N	0.605513	0.397297	0.333458
N48	N	0.938847	0.730631	0.666792
C49	C	0.240889	0.107790	0.000121
C50	C	0.574222	0.441123	0.333455
C51	C	0.907556	0.774456	0.666788
O52	O	0.261785	0.145546	0.000117
O53	O	0.595119	0.478879	0.333450
O54	O	0.928452	0.812212	0.666783
C55	C	0.039230	0.105743	0.000153
C56	C	0.372563	0.439076	0.333487
C57	C	0.705896	0.772410	0.666820
C58	C	0.020105	0.061406	0.000160
C59	C	0.353439	0.394739	0.333494
C60	C	0.686772	0.728072	0.666827
C61	C	0.032267	-0.026750	0.000175
C62	C	0.365601	0.306583	0.333508
C63	C	0.698934	0.639916	0.666841
C64	C	-0.018145	-0.027261	0.000176
C65	C	0.315189	0.306072	0.333509
C66	C	0.648522	0.639405	0.666843
C67	C	-0.049432	0.016561	0.000169
C68	C	0.283902	0.349895	0.333503
C69	C	0.617235	0.683228	0.666836
C70	C	-0.030307	0.060895	0.000161
C71	C	0.303027	0.394228	0.333495
C72	C	0.636360	0.727561	0.666828
C73	C	0.007940	0.149568	0.000156
C74	C	0.341273	0.482902	0.333490
C75	C	0.674606	0.816235	0.666823
C76	C	-0.042478	0.149053	0.000167
C77	C	0.290856	0.482386	0.333500
C78	C	0.624189	0.815719	0.666834
C79	C	-0.061602	0.104716	0.000174
C80	C	0.271731	0.438049	0.333507
C81	C	0.605064	0.771382	0.666840
C82	C	-0.112006	0.104206	0.000156
C83	C	0.221327	0.437539	0.333489
C84	C	0.554661	0.770873	0.666822
N85	N	-0.131134	0.059872	0.000172
N86	N	0.202200	0.393205	0.333506
N87	N	0.535533	0.726539	0.666839
C88	C	-0.099846	0.016049	0.000179
C89	C	0.233487	0.349383	0.333512
C90	C	0.566820	0.682716	0.666846
C91	C	0.346763	0.108861	0.000103
C92	C	0.680097	0.442194	0.333436
C93	C	1.013430	0.775528	0.666769
C94	C	0.397178	0.109373	0.000093
C95	C	0.730511	0.442706	0.333426
C96	C	1.063845	0.776040	0.666759
C97	C	0.409338	0.021213	0.000115
C98	C	0.742672	0.354546	0.333448
C99	C	1.076005	0.687879	0.666782
C100	C	0.358923	0.020701	0.000118
C101	C	0.692256	0.354035	0.333451
C102	C	1.025589	0.687368	0.666785
C103	C	0.327636	0.064527	0.000119
C104	C	0.660969	0.397860	0.333452
C105	C	0.994303	0.731194	0.666786
C106	C	-0.205716	0.014979	0.000181
C107	C	0.127617	0.348313	0.333514
C108	C	0.460951	0.681646	0.666847
C109	C	-0.256133	0.014472	0.000178
C110	C	0.077200	0.347806	0.333511
C111	C	0.410534	0.681139	0.666844
C112	C	-0.268289	0.102632	0.000161
C113	C	0.065045	0.435966	0.333494
C114	C	0.398378	0.769299	0.666827
C115	C	-0.217876	0.103140	0.000158
C116	C	0.115457	0.436473	0.333492
C117	C	0.448791	0.769806	0.666825
C118	C	-0.186590	0.059309	0.000172
C119	C	0.146743	0.392643	0.333505
C120	C	0.480076	0.725976	0.666838
O121	O	-0.143287	0.141407	0.000121
O122	O	0.190046	0.474741	0.333454
O123	O	0.523380	0.808074	0.666787
O124	O	-0.120752	-0.021701	0.000205
O125	O	0.212581	0.311632	0.333538
O126	O	0.545915	0.644966	0.666872
C127	C	0.101805	0.018094	0.000166
C128	C	0.435138	0.351428	0.333499
C129	C	0.768471	0.684761	0.666832
C130	C	0.120930	0.062428	0.000158
C131	C	0.454263	0.395761	0.333491
C132	C	0.787596	0.729095	0.666825
C133	C	0.089642	0.106250	0.000151
C134	C	0.422976	0.439584	0.333485
C135	C	0.756309	0.772917	0.666818
C136	C	0.171344	0.062940	0.000148
C137	C	0.504677	0.396273	0.333482
C138	C	0.838011	0.729606	0.666815
C139	C	0.202631	0.019117	0.000155
C140	C	0.535965	0.352451	0.333488
C141	C	0.869298	0.685784	0.666822
C142	C	0.183504	-0.025217	0.000171
C143	C	0.516837	0.308116	0.333505
C144	C	0.850170	0.641450	0.666838
C145	C	0.133092	-0.025728	0.000173
C146	C	0.466425	0.307605	0.333506
C147	C	0.799758	0.640939	0.666839
C148	C	0.108770	0.150585	0.000135
C149	C	0.442103	0.483918	0.333468
C150	C	0.775437	0.817251	0.666801
C151	C	0.159183	0.151092	0.000133
C152	C	0.492516	0.484426	0.333466
C153	C	0.825849	0.817759	0.666799
C154	C	0.190470	0.107270	0.000139
C155	C	0.523803	0.440603	0.333473
C156	C	0.857136	0.773936	0.666806
C157	C	0.574712	-0.026481	0.000161
C158	C	0.908045	0.306853	0.333495
C159	C	1.241378	0.640186	0.666828
C160	C	0.574159	-0.080136	0.000169
C161	C	0.907492	0.253198	0.333502
C162	C	1.240826	0.586531	0.666836
C163	C	0.614862	-0.418948	0.000132
C164	C	0.948196	-0.085615	0.333465
C165	C	1.281529	0.247718	0.666799
C166	C	0.612811	-0.620608	0.000118
C167	C	0.946145	-0.287275	0.333451
C168	C	1.279478	0.046059	0.666785
O169	O	0.650032	-0.651862	0.000087
O170	O	0.983365	-0.318528	0.333420
O171	O	1.316698	0.014805	0.666754
N172	N	0.568476	-0.639735	0.000106
N173	N	0.901810	-0.306401	0.333440
N174	N	1.235143	0.026932	0.666773
C175	C	0.524651	-0.608442	0.000092
C176	C	0.857985	-0.275109	0.333425
C177	C	1.191318	0.058224	0.666758
O178	O	0.486895	-0.629338	0.000071
O179	O	0.820228	-0.296004	0.333405
O180	O	1.153561	0.037329	0.666738
C181	C	0.526703	-0.406784	0.000099
C182	C	0.860036	-0.073450	0.333432
C183	C	1.193369	0.259883	0.666765
C184	C	0.571040	-0.387660	0.000120
C185	C	0.904374	-0.054327	0.333453
C186	C	1.237707	0.279006	0.666787
C187	C	0.659196	-0.399824	0.000152
C188	C	0.992530	-0.066491	0.333486
C189	C	1.325863	0.266842	0.666819
C190	C	0.659709	-0.349412	0.000161
C191	C	0.993042	-0.016079	0.333494
C192	C	1.326375	0.317254	0.666828
C193	C	0.615887	-0.318124	0.000149
C194	C	0.949220	0.015209	0.333483
C195	C	1.282554	0.348542	0.666816
C196	C	0.571553	-0.337248	0.000129
C197	C	0.904886	-0.003915	0.333462
C198	C	1.238219	0.329418	0.666795
C199	C	0.482878	-0.375493	0.000077
C200	C	0.816211	-0.042159	0.333410
C201	C	1.149545	0.291174	0.666744
C202	C	0.483395	-0.325075	0.000076
C203	C	0.816728	0.008258	0.333410
C204	C	1.150062	0.341591	0.666743
C205	C	0.527733	-0.305952	0.000098
C206	C	0.861066	0.027381	0.333431
C207	C	1.194399	0.360715	0.666765
C208	C	0.528243	-0.255548	0.000126
C209	C	0.861576	0.077785	0.333459
C210	C	1.194910	0.411118	0.666792
N211	N	0.572578	-0.236422	0.000137
N212	N	0.905911	0.096911	0.333471
N213	N	1.239245	0.430245	0.666804
C214	C	0.616400	-0.267710	0.000149
C215	C	0.949733	0.065623	0.333483
C216	C	1.283067	0.398957	0.666816
C217	C	0.523577	-0.714317	0.000090
C218	C	0.856911	-0.380983	0.333423
C219	C	1.190244	-0.047650	0.666756
C220	C	0.523064	-0.764731	0.000090
C221	C	0.856398	-0.431398	0.333423
C222	C	1.189731	-0.098064	0.666756
C223	C	0.611225	-0.776893	0.000114
C224	C	0.944558	-0.443560	0.333448
C225	C	1.277891	-0.110227	0.666781
C226	C	0.611737	-0.726478	0.000121
C227	C	0.945070	-0.393145	0.333455
C228	C	1.278404	-0.059811	0.666788
C229	C	0.567912	-0.695190	0.000102
C230	C	0.901245	-0.361857	0.333435
C231	C	1.234579	-0.028524	0.666768
C232	C	0.617472	-0.161841	0.000168
C233	C	0.950806	0.171493	0.333502
C234	C	1.284139	0.504826	0.666835
C235	C	0.617981	-0.111424	0.000181
C236	C	0.951314	0.221910	0.333514
C237	C	1.284647	0.555243	0.666848
C238	C	0.529821	-0.099266	0.000151
C239	C	0.863154	0.234067	0.333484
C240	C	1.196487	0.567401	0.666818
C241	C	0.529312	-0.149679	0.000144
C242	C	0.862645	0.183655	0.333477
C243	C	1.195979	0.516988	0.666810
C244	C	0.573142	-0.180965	0.000149
C245	C	0.906475	0.152368	0.333482
C246	C	1.239808	0.485701	0.666816
O247	O	0.491043	-0.224267	0.000146
O248	O	0.824376	0.109067	0.333479
O249	O	1.157709	0.442400	0.666812
O250	O	0.654151	-0.246805	0.000148
O251	O	0.987484	0.086528	0.333482
O252	O	1.320818	0.419861	0.666815
C253	C	0.614350	-0.469360	0.000123
C254	C	0.947683	-0.136027	0.333457
C255	C	1.281017	0.197306	0.666790
C256	C	0.570016	-0.488484	0.000103
C257	C	0.903349	-0.155151	0.333436
C258	C	1.236683	0.178182	0.666769
C259	C	0.526194	-0.457196	0.000091
C260	C	0.859527	-0.123863	0.333424
C261	C	1.192861	0.209470	0.666758
C262	C	0.569503	-0.538899	0.000103
C263	C	0.902836	-0.205565	0.333436
C264	C	1.236170	0.127768	0.666769
C265	C	0.613325	-0.570187	0.000115
C266	C	0.946658	-0.236853	0.333448
C267	C	1.279991	0.096480	0.666781
C268	C	0.657660	-0.551060	0.000126
C269	C	0.990993	-0.217727	0.333460
C270	C	1.324326	0.115606	0.666793
C271	C	0.658172	-0.500648	0.000135
C272	C	0.991505	-0.167315	0.333468
C273	C	1.324839	0.166018	0.666802
C274	C	0.481859	-0.476323	0.000079
C275	C	0.815193	-0.142989	0.333412
C276	C	1.148526	0.190344	0.666746
C277	C	0.481351	-0.526735	0.000072
C278	C	0.814684	-0.193402	0.333405
C279	C	1.148017	0.139932	0.666738
C280	C	0.525172	-0.558023	0.000083
C281	C	0.858506	-0.224690	0.333417
C282	C	1.191839	0.108643	0.666750
C283	C	0.658925	0.057739	0.000163
C284	C	0.992259	0.391072	0.333496
C285	C	1.325592	0.724405	0.666829
C286	C	0.712580	0.058295	0.000171
C287	C	1.045913	0.391628	0.333504
C288	C	1.379247	0.724961	0.666838
C289	C	0.566333	0.150326	0.000115
C290	C	0.899667	0.483659	0.333449
C291	C	1.233000	0.816993	0.666782
C292	C	0.566886	0.203981	0.000101
C293	C	0.900219	0.537314	0.333435
C294	C	1.233553	0.870648	0.666768
N295	N	0.570512	0.061916	0.246798
N296	N	0.903846	0.395249	0.580131
N297	N	1.237179	0.728582	0.913464
N298	N	0.570537	0.061926	-0.246519
N299	N	0.903870	0.395259	0.086815
N300	N	1.237203	0.728592	0.420148
C301	C	0.603630	0.028823	0.296633
C302	C	0.936963	0.362156	0.629967
C303	C	1.270297	0.695490	0.963300
C304	C	0.603633	0.028823	0.396291
C305	C	0.936967	0.362156	0.729624
C306	C	1.270300	0.695489	1.062958
C307	C	0.570521	0.061918	0.446111
C308	C	0.903854	0.395251	0.779445
C309	C	1.237187	0.728584	1.112778
C310	C	0.537399	0.095012	0.396269
C311	C	0.870733	0.428345	0.729602
C312	C	1.204066	0.761678	1.062935
C313	C	0.537394	0.095009	0.296613
C314	C	0.870727	0.428343	0.629946
C315	C	1.204061	0.761676	0.963279
C316	C	0.537413	0.095015	0.603983
C317	C	0.870747	0.428348	0.937316
C318	C	1.204080	0.761682	1.270650
C319	C	0.537419	0.095018	0.703646
C320	C	0.870752	0.428352	1.036979
C321	C	1.204086	0.761685	1.370312
C322	C	0.603652	0.028829	0.703661
C323	C	0.936986	0.362162	1.036994
C324	C	1.270319	0.695495	1.370328
C325	C	0.603647	0.028826	0.604005
C326	C	0.936981	0.362160	0.937339
C327	C	1.270314	0.695493	1.270672
C328	C	0.570526	0.061921	0.554170
C329	C	0.903860	0.395254	0.887503
C330	C	1.237193	0.728588	1.220836
H331	H	0.412744	0.145477	0.000074
H332	H	0.746078	0.478810	0.333407
H333	H	1.079411	0.812143	0.666741
H334	H	0.510455	0.121967	0.744204
H335	H	0.843788	0.455300	1.077538
H336	H	1.177121	0.788634	1.410871
H337	H	-0.271701	-0.021634	0.000181
H338	H	0.061632	0.311699	0.333514
H339	H	0.394966	0.645033	0.666847
H340	H	0.083300	0.186271	0.000131
H341	H	0.416634	0.519604	0.333464
H342	H	0.749967	0.852938	0.666797
H343	H	0.446774	-0.391054	0.000054
H344	H	0.780107	-0.057720	0.333387
H345	H	1.113440	0.275613	0.666720
H346	H	0.510441	0.121963	0.563410
H347	H	0.843774	0.455296	0.896743
H348	H	1.177108	0.788630	1.230077
H349	H	-0.067950	0.184742	0.000172
H350	H	0.265384	0.518075	0.333506
H351	H	0.598717	0.851408	0.666839
H352	H	0.445243	-0.542300	0.000062
H353	H	0.778576	-0.208967	0.333396
H354	H	1.111909	0.124367	0.666729
H355	H	0.647841	-0.710911	0.000138
H356	H	0.981174	-0.377578	0.333471
H357	H	1.314507	-0.044245	0.666805
H358	H	0.446173	-0.450852	0.000067
H359	H	0.779507	-0.117519	0.333401
H360	H	1.112840	0.215815	0.666734
H361	H	0.321293	0.144551	0.000102
H362	H	0.654627	0.477885	0.333436
H363	H	0.987960	0.811218	0.666769
H364	H	0.434821	-0.014469	0.000117
H365	H	0.768154	0.318864	0.333450
H366	H	1.101488	0.652197	0.666784
H367	H	0.343355	-0.015402	0.000124
H368	H	0.676689	0.317931	0.333457
H369	H	1.010022	0.651265	0.666791
H370	H	0.023502	0.185672	0.000147
H371	H	0.356835	0.519006	0.333480
H372	H	0.690168	0.852339	0.666813
H373	H	0.654087	-0.095857	0.000201
H374	H	0.987421	0.237477	0.333534
H375	H	1.320754	0.570810	0.666868
H376	H	0.630596	0.001875	0.256076
H377	H	0.963929	0.335209	0.589410
H378	H	1.297263	0.668542	0.922743
H379	H	-0.180248	-0.020712	0.000191
H380	H	0.153085	0.312622	0.333524
H381	H	0.486418	0.645955	0.666858
H382	H	-0.033711	-0.063365	0.000185
H383	H	0.299623	0.269968	0.333519
H384	H	0.632956	0.603302	0.666852
H385	H	0.510436	0.121957	0.436838
H386	H	0.843769	0.455290	0.770171
H387	H	1.177103	0.788623	1.103505
H388	H	0.694883	-0.425295	0.000159
H389	H	1.028217	-0.091962	0.333492
H390	H	1.361550	0.241372	0.666825
H391	H	0.057737	-0.062438	0.000183
H392	H	0.391070	0.270896	0.333517
H393	H	0.724404	0.604229	0.666850
H394	H	-0.202304	0.139243	0.000152
H395	H	0.131029	0.472576	0.333485
H396	H	0.464362	0.805909	0.666818
H397	H	0.695813	-0.333847	0.000175
H398	H	1.029146	-0.000514	0.333508
H399	H	1.362480	0.332819	0.666841
H400	H	0.646906	-0.802377	0.000125
H401	H	0.980239	-0.469043	0.333458
H402	H	1.313573	-0.135710	0.666791
H403	H	-0.293772	0.138311	0.000150
H404	H	0.039562	0.471645	0.333484
H405	H	0.372895	0.804978	0.666817
H406	H	0.630620	0.001882	0.744243
H407	H	0.963954	0.335215	1.077576
H408	H	1.297287	0.668548	1.410910
H409	H	0.486960	-0.780296	0.000089
H410	H	0.820293	-0.446963	0.333422
H411	H	1.153627	-0.113630	0.666755
H412	H	0.447706	-0.299603	0.000059
H413	H	0.781040	0.033731	0.333392
H414	H	1.114373	0.367064	0.666726
H415	H	0.630600	0.001876	0.436867
H416	H	0.963933	0.335209	0.770200
H417	H	1.297267	0.668543	1.103533
H418	H	0.510426	0.121956	0.256037
H419	H	0.843759	0.455289	0.589371
H420	H	1.177092	0.788623	0.922704
H421	H	0.630612	0.001880	0.563442
H422	H	0.963946	0.335214	0.896775
H423	H	1.297279	0.668547	1.230108
H424	H	0.487888	-0.688846	0.000074
H425	H	0.821221	-0.355513	0.333407
H426	H	1.154554	-0.022179	0.666741
H427	H	0.493209	-0.165249	0.000152
H428	H	0.826542	0.168084	0.333486
H429	H	1.159875	0.501417	0.666819
H430	H	0.693341	-0.576544	0.000140
H431	H	1.026674	-0.243211	0.333474
H432	H	1.360008	0.090122	0.666807
H433	H	0.117526	-0.061832	0.000178
H434	H	0.450859	0.271501	0.333512
H435	H	0.784192	0.604835	0.666845
H436	H	0.694276	-0.485083	0.000152
H437	H	1.027609	-0.151750	0.333486
H438	H	1.360943	0.181583	0.666819
H439	H	0.494142	-0.073782	0.000145
H440	H	0.827476	0.259551	0.333478
H441	H	1.160809	0.592884	0.666812
H442	H	0.208987	-0.060899	0.000171
H443	H	0.542320	0.272435	0.333505
H444	H	0.875653	0.605768	0.666838
H445	H	0.653163	-0.187309	0.000169
H446	H	0.986496	0.146024	0.333502
H447	H	1.319829	0.479358	0.666836
H448	H	0.174748	0.187200	0.000120
H449	H	0.508082	0.520533	0.333454
H450	H	0.841415	0.853866	0.666787
