data_functionalizedCrystal
_audit_creation_method	'MofGen! by Chris Wilmer'
_symmetry_space_group_name_H-M	'P1'
_symmetry_Int_Tables_number	1
_symmetry_cell_setting	triclinic
loop_
_symmetry_equiv_pos_as_xyz
  x,y,z
_cell_length_a	10.654550
_cell_length_b	14.971486
_cell_length_c	9.130313
_cell_angle_alpha	89.995272
_cell_angle_beta	89.999724
_cell_angle_gamma	84.049530
loop_
_atom_site_label
_atom_site_type_symbol
_atom_site_fract_x
_atom_site_fract_y
_atom_site_fract_z
O1	O	1.666492	0.125631	-0.121691
O2	O	1.300885	0.137600	-0.121718
O3	O	1.493487	0.001469	-0.121693
O4	O	1.473889	0.261762	-0.121716
O5	O	1.493474	0.001465	0.121906
O6	O	1.300872	0.137596	0.121881
O7	O	1.666479	0.125627	0.121908
Cu8	Cu	1.483674	0.131611	0.144137
Cu9	Cu	1.483689	0.131616	-0.143947
O10	O	1.473876	0.261758	0.121883
C11	C	1.254090	0.136720	0.000078
C12	C	1.114675	0.134090	0.000068
C13	C	1.034329	0.214242	0.000065
C14	C	0.903335	0.211766	0.000091
C15	C	0.933044	0.048979	0.000116
C16	C	1.064036	0.051456	0.000101
C17	C	1.492604	-0.031863	0.000106
C18	C	1.489978	-0.131174	0.000104
C19	C	1.603127	-0.187783	0.000114
C20	C	1.600651	-0.281096	0.000099
C21	C	1.485026	-0.317798	0.000085
C22	C	1.371868	-0.261181	0.000071
C23	C	1.374345	-0.167870	0.000075
C24	C	1.366714	-0.455672	0.000065
C25	C	1.364237	-0.548989	0.000064
C26	C	1.593020	-0.568898	0.000089
C27	C	1.595497	-0.475587	0.000093
C28	C	1.482339	-0.418976	0.000082
C29	C	1.713274	0.126508	0.000109
C30	C	1.852689	0.129137	0.000109
C31	C	1.474759	0.295090	0.000081
C32	C	1.477385	0.394401	0.000073
N33	N	1.483672	0.131608	0.346760
N34	N	1.483701	0.131613	-0.346570
C35	C	1.568985	0.071354	0.423422
C36	C	1.568997	0.071354	0.576759
C37	C	1.398379	0.191869	0.576757
C38	C	1.398362	0.191864	0.423423
H39	H	0.837922	0.277034	0.000092
H40	H	1.129457	-0.013817	0.000107
H41	H	0.891798	-0.018299	0.000152
H42	H	1.638465	0.022290	0.639174
H43	H	1.328884	0.240930	0.361000
O44	O	1.264350	-0.112967	-0.000127
C45	C	1.194181	-0.129689	-0.126316
H46	H	1.224911	-0.200270	-0.168372
H47	H	1.089447	-0.123772	-0.097956
H48	H	1.211443	-0.078550	-0.214658
H49	H	1.692789	-0.327185	0.000110
H50	H	1.277724	-0.291071	0.000051
H51	H	1.075554	0.281528	0.000050
O52	O	1.256677	-0.400807	0.000116
C53	C	1.154090	-0.453207	0.000069
H54	H	1.185856	-0.522645	0.046189
H55	H	1.074798	-0.419286	0.070786
H56	H	1.118661	-0.460063	-0.116801
O57	O	1.252001	-0.584752	-0.000156
C58	C	1.243742	-0.638110	-0.126338
H59	H	1.342699	-0.660722	-0.168377
H60	H	1.193598	-0.699521	-0.097974
H61	H	1.188253	-0.597238	-0.214694
O62	O	1.651891	0.012732	0.349177
C63	C	1.727212	-0.040434	0.449731
H64	H	1.675735	-0.041780	0.559040
H65	H	1.746263	-0.111743	0.405444
H66	H	1.820542	-0.010773	0.466017
O67	O	1.715557	-0.152284	0.000059
C68	C	1.814892	-0.222263	0.000095
H69	H	1.779590	-0.285856	-0.046024
H70	H	1.895613	-0.202265	-0.070627
H71	H	1.849800	-0.235256	0.116962
H72	H	1.689649	-0.445708	0.000115
H73	H	1.685158	-0.614995	0.000093
H74	H	1.328923	0.240930	0.639192
