data_functionalizedCrystal
_audit_creation_method	'MofGen! by Chris Wilmer'
_symmetry_space_group_name_H-M	'P1'
_symmetry_Int_Tables_number	1
_symmetry_cell_setting	triclinic
loop_
_symmetry_equiv_pos_as_xyz
  x,y,z
_cell_length_a	17.038272
_cell_length_b	19.288856
_cell_length_c	18.366186
_cell_angle_alpha	90.011039
_cell_angle_beta	89.993834
_cell_angle_gamma	92.877841
loop_
_atom_site_label
_atom_site_type_symbol
_atom_site_fract_x
_atom_site_fract_y
_atom_site_fract_z
O1	O	0.097482	-0.927388	-0.060584
O2	O	0.597482	-0.427388	0.439416
O3	O	0.110643	-0.725941	-0.060578
O4	O	0.610643	-0.225941	0.439422
O5	O	-0.009749	-0.825467	-0.060575
O6	O	0.490251	-0.325467	0.439425
O7	O	0.217874	-0.827861	-0.060587
O8	O	0.717874	-0.327861	0.439413
O9	O	-0.009755	-0.825448	0.060524
O10	O	0.490245	-0.325448	0.560524
O11	O	0.110637	-0.725922	0.060521
O12	O	0.610637	-0.225922	0.560521
O13	O	0.097476	-0.927369	0.060515
O14	O	0.597476	-0.427369	0.560515
Zn15	Zn	0.104056	-0.826643	0.079745
Zn16	Zn	0.604056	-0.326643	0.579745
Zn17	Zn	0.104064	-0.826667	-0.079808
Zn18	Zn	0.604064	-0.326667	0.420192
O19	O	0.217868	-0.827843	0.060513
O20	O	0.717868	-0.327843	0.560513
C21	C	0.110218	-0.700029	-0.000028
C22	C	0.610218	-0.200029	0.499972
C23	C	0.108950	-0.622846	-0.000025
C24	C	0.608950	-0.122846	0.499975
C25	C	-0.038873	-0.823280	-0.000026
C26	C	0.461127	-0.323280	0.499974
C27	C	-0.125645	-0.816782	-0.000026
C28	C	0.374355	-0.316782	0.499974
C29	C	0.171013	-0.062645	-0.000018
C30	C	0.671013	0.437355	0.499982
C31	C	0.172212	-0.135166	-0.000023
C32	C	0.672212	0.364834	0.499977
C33	C	0.101571	-0.175502	-0.000019
C34	C	0.601571	0.324498	0.499981
C35	C	0.029727	-0.143312	-0.000029
C36	C	0.529727	0.356688	0.499971
C37	C	0.028531	-0.070792	-0.000030
C38	C	0.528531	0.429208	0.499970
C39	C	0.048885	-0.293506	0.042410
C40	C	0.548885	0.206494	0.542410
C41	C	0.050084	-0.366024	0.042416
C42	C	0.550084	0.133976	0.542416
C43	C	0.105257	-0.399176	-0.000017
C44	C	0.605257	0.100824	0.499983
C45	C	0.159245	-0.359800	-0.042447
C46	C	0.659245	0.140200	0.457553
C47	C	0.158049	-0.287281	-0.042449
C48	C	0.658049	0.212719	0.457551
C49	C	0.102860	-0.254137	-0.000018
C50	C	0.602860	0.245863	0.499982
C51	C	0.178396	-0.509993	-0.000018
C52	C	0.678396	-0.009993	0.499982
C53	C	0.179591	-0.582515	-0.000028
C54	C	0.679591	-0.082515	0.499972
C55	C	0.037105	-0.590660	-0.000026
C56	C	0.537105	-0.090660	0.499974
C57	C	0.035912	-0.518139	-0.000024
C58	C	0.535912	-0.018139	0.499976
C59	C	0.106560	-0.477810	-0.000016
C60	C	0.606560	0.022190	0.499984
C61	C	-0.175953	-0.876438	-0.000027
C62	C	0.324047	-0.376438	0.499973
C63	C	-0.257484	-0.870329	-0.000033
C64	C	0.242516	-0.370329	0.499967
C65	C	-0.288704	-0.804563	-0.000034
C66	C	0.211296	-0.304563	0.499966
C67	C	-0.238389	-0.744902	-0.000035
C68	C	0.261611	-0.244902	0.499965
C69	C	-0.156860	-0.751012	-0.000034
C70	C	0.343140	-0.251012	0.499966
C71	C	-0.534392	-0.782977	-0.000043
C72	C	-0.034392	-0.282977	0.499957
C73	C	-0.615927	-0.776872	-0.000043
C74	C	-0.115927	-0.276872	0.499957
C75	C	-0.635017	-0.902299	-0.000042
C76	C	-0.135017	-0.402299	0.499958
C77	C	-0.553485	-0.908403	-0.000036
C78	C	-0.053485	-0.408403	0.499964
C79	C	-0.503177	-0.848743	-0.000041
C80	C	-0.003177	-0.348743	0.499959
C81	C	-0.372041	-0.798316	-0.000038
C82	C	0.127959	-0.298316	0.499962
C83	C	-0.419842	-0.854990	-0.000042
C84	C	0.080158	-0.354990	0.499958
C85	C	0.246992	-0.830030	-0.000039
C86	C	0.746992	-0.330030	0.499961
C87	C	0.333764	-0.836528	-0.000044
C88	C	0.833764	-0.336528	0.499956
C89	C	0.097904	0.046719	-0.000031
C90	C	0.597904	0.546719	0.499969
C91	C	0.099179	-0.030463	-0.000023
C92	C	0.599179	0.469537	0.499977
N93	N	0.104050	-0.826631	0.188637
N94	N	0.604050	-0.326631	0.688637
N95	N	0.104063	-0.826684	-0.188699
N96	N	0.604063	-0.326684	0.311301
C97	C	0.050767	-0.870719	0.226738
C98	C	0.550767	-0.370719	0.726738
C99	C	0.050763	-0.870723	0.302966
C100	C	0.550763	-0.370723	0.802966
C101	C	0.104056	-0.826647	0.341089
C102	C	0.604056	-0.326647	0.841089
C103	C	0.157344	-0.782551	0.302978
C104	C	0.657344	-0.282551	0.802978
C105	C	0.157341	-0.782543	0.226752
C106	C	0.657341	-0.282543	0.726752
C107	C	0.175280	-0.821756	0.461846
C108	C	0.675280	-0.321756	0.961846
C109	C	0.175285	-0.821768	0.538071
C110	C	0.675285	-0.321768	1.038071
C111	C	0.104066	-0.826667	0.576197
C112	C	0.604066	-0.326667	1.076197
C113	C	0.032840	-0.831568	0.538088
C114	C	0.532840	-0.331568	1.038088
C115	C	0.032837	-0.831560	0.461862
C116	C	0.532837	-0.331560	0.961862
C117	C	0.104066	-0.826650	0.423744
C118	C	0.604066	-0.326650	0.923744
C119	C	0.050775	-0.870762	0.696953
C120	C	0.550775	-0.370762	1.196953
C121	C	0.050770	-0.870761	0.773183
C122	C	0.550770	-0.370761	1.273183
C123	C	0.157358	-0.782593	0.773194
C124	C	0.657358	-0.282593	1.273194
C125	C	0.157356	-0.782590	0.696966
C126	C	0.657356	-0.282590	1.196966
C127	C	0.104065	-0.826678	0.658850
C128	C	0.604065	-0.326678	1.158850
H129	H	0.228541	-0.029813	-0.000016
H130	H	0.728541	0.470187	0.499984
Br131	Br	-0.026045	-0.248525	0.099954
Br132	Br	0.473955	0.251475	0.599954
H133	H	-0.022584	-0.491937	-0.000023
H134	H	0.477416	0.008063	0.499977
H135	H	0.007372	-0.906616	0.195707
H136	H	0.507372	-0.406616	0.695707
H137	H	0.200735	-0.746663	0.334022
H138	H	0.700735	-0.246663	0.834022
H139	H	-0.027789	-0.176158	-0.000027
H140	H	0.472211	0.323842	0.499973
Br141	Br	-0.063820	-0.838226	0.589820
Br142	Br	0.436180	-0.338226	1.089820
Br143	Br	-0.023175	-0.419455	0.100008
Br144	Br	0.476825	0.080545	0.600008
H145	H	-0.528072	-0.961957	-0.000036
H146	H	-0.028072	-0.461957	0.499964
Br147	Br	0.229659	-0.722705	0.175038
Br148	Br	0.729659	-0.222705	0.675038
H149	H	-0.115899	-0.702434	-0.000033
H150	H	0.384101	-0.202434	0.499967
Br151	Br	-0.280758	-0.655647	-0.000048
Br152	Br	0.219242	-0.155647	0.499952
H153	H	-0.397470	-0.744769	-0.000037
H154	H	0.102530	-0.244769	0.499963
Br155	Br	0.271945	-0.815176	0.410112
Br156	Br	0.771945	-0.315176	0.910112
H157	H	-0.493440	-0.734397	-0.000047
H158	H	0.006560	-0.234397	0.499953
H159	H	-0.394418	-0.908536	-0.000058
H160	H	0.105582	-0.408536	0.499942
H161	H	0.007371	-0.906625	0.333994
H162	H	0.507371	-0.406625	0.833994
Br163	Br	-0.068967	-0.027114	-0.000042
Br164	Br	0.431033	0.472886	0.499958
Br165	Br	0.231310	-0.233845	-0.100033
Br166	Br	0.731310	0.266155	0.399967
Br167	Br	0.269708	-0.178852	-0.000017
Br168	Br	0.769708	0.321148	0.499983
Br169	Br	-0.063821	-0.838204	0.410145
Br170	Br	0.436179	-0.338204	0.910145
H171	H	0.204174	-0.386791	-0.076998
H172	H	0.704174	0.113209	0.423002
H173	H	0.007376	-0.906660	0.804206
H174	H	0.507376	-0.406660	1.304206
Br175	Br	0.274272	-0.455256	-0.000009
Br176	Br	0.774272	0.044744	0.499991
Br177	Br	-0.133592	-0.965697	-0.000015
Br178	Br	0.366408	-0.465697	0.499985
H179	H	0.238090	-0.608716	-0.000030
H180	H	0.738090	-0.108716	0.499970
H181	H	-0.020412	-0.623501	-0.000028
H182	H	0.479588	-0.123501	0.499972
H183	H	0.007379	-0.906659	0.665919
H184	H	0.507379	-0.406659	1.165919
H185	H	0.200747	-0.746703	0.804233
H186	H	0.700747	-0.246703	1.304233
H187	H	0.200747	-0.746693	0.665941
H188	H	0.700747	-0.246693	1.165941
H189	H	-0.298443	-0.918908	-0.000032
H190	H	0.201557	-0.418908	0.499968
Br191	Br	-0.703295	-0.983262	-0.000035
Br192	Br	-0.203295	-0.483262	0.499965
Br193	Br	-0.658297	-0.687612	-0.000036
Br194	Br	-0.158297	-0.187612	0.499964
H195	H	0.233281	-0.817782	0.569093
H196	H	0.733281	-0.317782	1.069093
