data_functionalizedCrystal
_audit_creation_method	'MofGen! by Chris Wilmer'
_symmetry_space_group_name_H-M	'P1'
_symmetry_Int_Tables_number	1
_symmetry_cell_setting	triclinic
loop_
_symmetry_equiv_pos_as_xyz
  x,y,z
_cell_length_a	19.077236
_cell_length_b	21.295417
_cell_length_c	19.076919
_cell_angle_alpha	87.732301
_cell_angle_beta	90.112677
_cell_angle_gamma	92.322335
loop_
_atom_site_label
_atom_site_type_symbol
_atom_site_fract_x
_atom_site_fract_y
_atom_site_fract_z
Zn1	Zn	1.058269	-0.228507	0.440524
Zn2	Zn	1.391602	0.104826	0.773858
Zn3	Zn	1.724935	0.438160	1.107191
Zn4	Zn	1.062899	-0.329387	0.323010
Zn5	Zn	1.396232	0.003946	0.656344
Zn6	Zn	1.729565	0.337279	0.989677
Zn7	Zn	0.945484	-0.228177	0.318305
Zn8	Zn	1.278818	0.105156	0.651638
Zn9	Zn	1.612151	0.438490	0.984971
Zn10	Zn	0.940717	-0.337786	0.435748
Zn11	Zn	1.274050	-0.004452	0.769081
Zn12	Zn	1.607384	0.328881	1.102414
O13	O	1.001842	-0.280964	0.379397
O14	O	1.335176	0.052369	0.712730
O15	O	1.668509	0.385702	1.046063
O16	O	1.157217	-0.238513	0.428904
O17	O	1.490550	0.094821	0.762238
O18	O	1.823884	0.428154	1.095571
O19	O	1.051256	-0.312309	0.224055
O20	O	1.384589	0.021024	0.557389
O21	O	1.717923	0.354358	0.890722
O22	O	0.960503	-0.140130	0.334547
O23	O	1.293836	0.193203	0.667880
O24	O	1.627169	0.526536	1.001214
O25	O	1.160619	-0.312629	0.342567
O26	O	1.493952	0.020704	0.675900
O27	O	1.827285	0.354038	1.009234
O28	O	1.043365	-0.140373	0.424342
O29	O	1.376698	0.192960	0.757675
O30	O	1.710032	0.526294	1.091008
O31	O	0.964992	-0.237950	0.220598
O32	O	1.298326	0.095383	0.553932
O33	O	1.631659	0.428717	0.887265
O34	O	0.846518	-0.246093	0.329915
O35	O	1.179851	0.087240	0.663249
O36	O	1.513185	0.420573	0.996582
O37	O	0.952378	-0.326942	0.534712
O38	O	1.285711	0.006391	0.868045
O39	O	1.619044	0.339724	1.201379
O40	O	0.843015	-0.326622	0.416200
O41	O	1.176349	0.006711	0.749534
O42	O	1.509682	0.340044	1.082867
O43	O	1.038742	-0.246656	0.538221
O44	O	1.372076	0.086677	0.871555
O45	O	1.705409	0.420011	1.204888
O46	O	1.046634	-0.418592	0.337935
O47	O	1.379967	-0.085259	0.671269
O48	O	1.713300	0.248075	1.004602
O49	O	0.956867	-0.424762	0.420763
O50	O	1.290201	-0.091429	0.754096
O51	O	1.623534	0.241905	1.087430
C52	C	0.819270	-0.287234	0.372029
C53	C	1.152603	0.046100	0.705363
C54	C	1.485936	0.379433	1.038696
C55	C	0.741164	-0.289932	0.368894
C56	C	1.074497	0.043402	0.702227
C57	C	1.407830	0.376735	1.035561
C58	C	0.702696	-0.252677	0.412441
C59	C	1.036030	0.080656	0.745774
C60	C	1.369363	0.413990	1.079107
C61	C	0.629308	-0.255209	0.409489
C62	C	0.962641	0.078124	0.742822
C63	C	1.295974	0.411458	1.076156
C64	C	0.594388	-0.294999	0.362993
C65	C	0.927721	0.038335	0.696326
C66	C	1.261054	0.371668	1.029660
C67	C	0.632861	-0.332255	0.319442
C68	C	0.966194	0.001079	0.652775
C69	C	1.299527	0.334412	0.986108
C70	C	0.706248	-0.329719	0.322390
C71	C	1.039581	0.003614	0.655724
C72	C	1.372915	0.336947	0.989057
C73	C	0.375093	-0.306709	0.349343
C74	C	0.708426	0.026624	0.682676
C75	C	1.041760	0.359957	1.016009
C76	C	0.301700	-0.309243	0.346399
C77	C	0.635034	0.024090	0.679732
C78	C	0.968367	0.357423	1.013065
C79	C	0.298153	-0.232196	0.436445
C80	C	0.631486	0.101137	0.769779
C81	C	0.964819	0.434470	1.103112
C82	C	0.371541	-0.229667	0.439393
C83	C	0.704875	0.103666	0.772727
C84	C	1.038208	0.436999	1.106060
C85	C	0.410008	-0.266921	0.395839
C86	C	0.743341	0.066413	0.729172
C87	C	1.076675	0.399746	1.062506
N88	N	0.519373	-0.297589	0.359976
N89	N	0.852706	0.035744	0.693310
N90	N	1.186039	0.369078	1.026643
N91	N	0.485022	-0.264327	0.398853
N92	N	0.818355	0.069007	0.732186
N93	N	1.151688	0.402340	1.065520
C94	C	1.001754	-0.444518	0.379358
C95	C	1.335087	-0.111184	0.712691
C96	C	1.668421	0.222149	1.046024
C97	C	1.001780	-0.514485	0.379367
C98	C	1.335113	-0.181152	0.712700
C99	C	1.668446	0.152181	1.046034
C100	C	1.044899	-0.547423	0.426154
C101	C	1.378232	-0.214090	0.759487
C102	C	1.711566	0.119244	1.092821
C103	C	1.044923	-0.613165	0.426172
C104	C	1.378256	-0.279832	0.759506
C105	C	1.711590	0.053501	1.092839
C106	C	1.001836	-0.645967	0.379391
C107	C	1.335169	-0.312633	0.712725
C108	C	1.668502	0.020700	1.046058
C109	C	0.958708	-0.613021	0.332601
C110	C	1.292041	-0.279688	0.665934
C111	C	1.625375	0.053646	0.999267
C112	C	0.958680	-0.547280	0.332589
C113	C	1.292013	-0.213947	0.665922
C114	C	1.625346	0.119386	0.999255
N115	N	0.999002	-0.747112	0.317682
N116	N	1.332335	-0.413779	0.651016
N117	N	1.665669	-0.080445	0.984349
N118	N	0.999033	-0.809563	0.317696
N119	N	1.332366	-0.476230	0.651030
N120	N	1.665699	-0.142896	0.984363
C121	C	1.001917	-0.844040	0.379426
C122	C	1.335250	-0.510706	0.712760
C123	C	1.668583	-0.177373	1.046093
N124	N	1.004782	-0.813706	0.441144
N125	N	1.338116	-0.480372	0.774477
N126	N	1.671449	-0.147039	1.107811
N127	N	1.004755	-0.751249	0.441130
N128	N	1.338089	-0.417916	0.774463
N129	N	1.671422	-0.084582	1.107796
C130	C	1.001861	-0.717251	0.379400
C131	C	1.335194	-0.383918	0.712733
C132	C	1.668528	-0.050585	1.046066
C133	C	1.045064	-0.948263	0.426237
C134	C	1.378398	-0.614929	0.759571
C135	C	1.711731	-0.281596	1.092904
C136	C	1.045083	-1.014006	0.426256
C137	C	1.378417	-0.680673	0.759590
C138	C	1.711750	-0.347340	1.092923
C139	C	0.958872	-1.013861	0.332679
C140	C	1.292205	-0.680527	0.666012
C141	C	1.625539	-0.347194	0.999346
C142	C	0.958849	-0.948118	0.332666
C143	C	1.292182	-0.614785	0.665999
C144	C	1.625516	-0.281452	0.999332
C145	C	1.001949	-0.915323	0.379444
C146	C	1.335282	-0.581990	0.712777
C147	C	1.668616	-0.248657	1.046111
C148	C	1.185128	-0.274671	0.386793
C149	C	1.518461	0.058663	0.720127
C150	C	1.851794	0.391996	1.053460
C151	C	1.263233	-0.271989	0.389946
C152	C	1.596566	0.061344	0.723279
C153	C	1.929900	0.394678	1.056612
C154	C	0.994512	-0.287773	0.562676
C155	C	1.327845	0.045561	0.896009
C156	C	1.661179	0.378894	1.229342
C157	C	0.991388	-0.290674	0.640778
C158	C	1.324722	0.042659	0.974111
C159	C	1.658055	0.375993	1.307445
C160	C	1.001949	-0.116772	0.379452
C161	C	1.335283	0.216561	0.712786
C162	C	1.668616	0.549895	1.046119
C163	C	1.001995	-0.046803	0.379476
C164	C	1.335328	0.286530	0.712809
C165	C	1.668661	0.619863	1.046143
C166	C	1.009184	-0.274136	0.196833
C167	C	1.342518	0.059198	0.530166
C168	C	1.675851	0.392531	0.863499
C169	C	1.012444	-0.271052	0.118736
C170	C	1.345778	0.062281	0.452069
C171	C	1.679111	0.395614	0.785403
C172	C	1.034884	-0.250238	0.679299
C173	C	1.368217	0.083095	1.012632
C174	C	1.701550	0.416429	1.345966
C175	C	1.031940	-0.252962	0.752684
C176	C	1.365273	0.080371	1.086018
C177	C	1.698607	0.413705	1.419351
C178	C	0.985504	-0.296126	0.787547
C179	C	1.318837	0.037208	1.120881
C180	C	1.652171	0.370541	1.454214
C181	C	0.942004	-0.336563	0.749021
C182	C	1.275337	-0.003230	1.082354
C183	C	1.608670	0.330103	1.415688
C184	C	0.944944	-0.333836	0.675637
C185	C	1.278278	-0.000502	1.008970
C186	C	1.611611	0.332831	1.342304
C187	C	0.971884	-0.308762	1.006826
C188	C	1.305218	0.024571	1.340159
C189	C	1.638551	0.357904	1.673492
C190	C	0.968949	-0.311488	1.080215
C191	C	1.302282	0.021845	1.413548
C192	C	1.635615	0.355179	1.746882
C193	C	1.058885	-0.227886	1.083873
C194	C	1.392218	0.105447	1.417207
C195	C	1.725551	0.438781	1.750540
C196	C	1.061824	-0.225165	1.010488
C197	C	1.395157	0.108169	1.343821
C198	C	1.728491	0.441502	1.677154
C199	C	1.018321	-0.265600	0.971968
C200	C	1.351654	0.067733	1.305301
C201	C	1.684988	0.401067	1.638634
N202	N	0.982496	-0.298912	0.862559
N203	N	1.315829	0.034421	1.195892
N204	N	1.649162	0.367754	1.529225
N205	N	1.021327	-0.262810	0.896957
N206	N	1.354660	0.070524	1.230291
N207	N	1.687993	0.403857	1.563624
H208	H	0.406404	-0.337044	0.313879
H209	H	0.739737	-0.003711	0.647212
H210	H	1.073071	0.329622	0.980545
H211	H	0.604423	-0.364649	0.281580
H212	H	0.937756	-0.031316	0.614914
H213	H	1.271090	0.302017	0.948247
H214	H	1.067361	-0.220036	0.784045
H215	H	1.400694	0.113297	1.117378
H216	H	1.734027	0.446630	1.450712
Br217	Br	0.900325	-0.903414	0.269167
Br218	Br	1.233658	-0.570081	0.602500
Br219	Br	1.566991	-0.236747	0.935834
H220	H	1.080196	-1.040823	0.464359
H221	H	1.413529	-0.707490	0.797693
H222	H	1.746863	-0.374157	1.131026
Br223	Br	1.124849	-0.166586	0.963179
Br224	Br	1.458183	0.166748	1.296512
Br225	Br	1.791516	0.500081	1.629845
Br226	Br	0.900391	-1.058370	0.269193
Br227	Br	1.233724	-0.725036	0.602526
Br228	Br	1.567057	-0.391703	0.935860
H229	H	0.931133	-0.346639	1.108598
H230	H	1.264466	-0.013305	1.441932
H231	H	1.597799	0.320028	1.775265
Br232	Br	1.097913	-0.191661	0.631992
Br233	Br	1.431246	0.141672	0.965326
Br234	Br	1.764580	0.475006	1.298659
Br235	Br	1.103387	-0.502918	0.489642
Br236	Br	1.436721	-0.169585	0.822975
Br237	Br	1.770054	0.163748	1.156309
H238	H	1.094301	-0.194965	1.115244
H239	H	1.427635	0.138368	1.448577
H240	H	1.760968	0.471702	1.781911
Br241	Br	0.912843	-0.363638	0.954558
Br242	Br	1.246176	-0.030305	1.287891
Br243	Br	1.579510	0.303029	1.621224
H244	H	1.080157	-0.921560	0.464329
H245	H	1.413490	-0.588227	0.797663
H246	H	1.746823	-0.254893	1.130996
Br247	Br	0.878978	-0.395139	0.796334
Br248	Br	1.212311	-0.061806	1.129667
Br249	Br	1.545645	0.271527	1.463001
H250	H	0.909518	-0.366757	0.644274
H251	H	1.242852	-0.033424	0.977607
H252	H	1.576185	0.299910	1.310940
H253	H	0.923566	-0.520462	0.294488
H254	H	1.256899	-0.187128	0.627822
H255	H	1.590233	0.146205	0.961155
H256	H	0.737567	-0.360055	0.286929
H257	H	1.070901	-0.026722	0.620263
H258	H	1.404234	0.306611	0.953596
H259	H	0.597990	-0.224874	0.444951
H260	H	0.931324	0.108460	0.778284
H261	H	1.264657	0.441793	1.111617
Br262	Br	0.750080	-0.198678	0.475550
Br263	Br	1.083413	0.134655	0.808884
Br264	Br	1.416747	0.467988	1.142217
H265	H	0.399968	-0.197268	0.477258
H266	H	0.733301	0.136065	0.810591
H267	H	1.066635	0.469398	1.143924
Br268	Br	0.254308	-0.363266	0.283313
Br269	Br	0.587642	-0.029933	0.616646
Br270	Br	0.920975	0.303400	0.949980
Br271	Br	1.103450	-0.657876	0.489670
Br272	Br	1.436783	-0.324543	0.823004
Br273	Br	1.770117	0.008790	1.156337
Br274	Br	0.900225	-0.657535	0.269118
Br275	Br	1.233558	-0.324202	0.602451
Br276	Br	1.566891	0.009131	0.935785
Br277	Br	0.245945	-0.181641	0.495551
Br278	Br	0.579278	0.151693	0.828884
Br279	Br	0.912611	0.485026	1.162218
