data_functionalizedCrystal
_audit_creation_method	'MofGen! by Chris Wilmer'
_symmetry_space_group_name_H-M	'P1'
_symmetry_Int_Tables_number	1
_symmetry_cell_setting	triclinic
loop_
_symmetry_equiv_pos_as_xyz
  x,y,z
_cell_length_a	15.538191
_cell_length_b	14.044220
_cell_length_c	14.750779
_cell_angle_alpha	76.182253
_cell_angle_beta	97.572172
_cell_angle_gamma	70.230486
loop_
_atom_site_label
_atom_site_type_symbol
_atom_site_fract_x
_atom_site_fract_y
_atom_site_fract_z
O1	O	1.206574	-0.272382	-0.079830
O2	O	0.941253	-0.166009	-0.079832
O3	O	1.069934	-0.355813	-0.079822
O4	O	1.077894	-0.082578	-0.079840
O5	O	1.106310	-0.409464	0.079832
O6	O	0.977630	-0.219660	0.079821
O7	O	1.242951	-0.326033	0.079823
Zn8	Zn	1.116066	-0.281365	0.105171
Zn9	Zn	1.068138	-0.210677	-0.105179
O10	O	1.114271	-0.136229	0.079813
C11	C	0.925281	-0.181705	-0.000006
C12	C	0.823493	-0.148554	-0.000006
C13	C	0.508030	-0.477901	0.000002
C14	C	0.412383	-0.446726	-0.000001
C15	C	0.404671	-0.271379	-0.000013
C16	C	0.500321	-0.302541	-0.000005
C17	C	0.551992	-0.405802	0.000001
C18	C	0.544283	-0.230442	-0.000006
C19	C	0.639923	-0.261599	-0.000004
C20	C	0.691600	-0.364855	-0.000000
C21	C	0.647632	-0.436960	0.000003
C22	C	0.492608	-0.127179	-0.000020
C23	C	0.536570	-0.055080	-0.000020
C24	C	0.632213	-0.086239	-0.000011
C25	C	0.683891	-0.189495	-0.000008
C26	C	0.676182	-0.014135	-0.000015
C27	C	0.771821	-0.045293	-0.000012
C28	C	0.779531	-0.220653	-0.000005
C29	C	1.084636	-0.416754	0.000005
C30	C	1.074236	-0.518402	0.000007
C31	C	1.055220	-0.704517	-0.000007
C32	C	1.128978	-0.787527	-0.000010
C33	C	1.118398	-0.891088	-0.000018
C34	C	1.065800	-0.600946	0.000000
C35	C	1.258923	-0.310337	-0.000005
C36	C	1.360709	-0.343485	-0.000011
C37	C	1.099569	-0.075288	-0.000016
C38	C	1.109967	0.026362	-0.000024
N39	N	1.148782	-0.329610	0.248729
N40	N	1.035429	-0.162442	-0.248738
C41	C	0.944054	-0.027741	0.600530
C42	C	0.966986	-0.061544	0.701031
C43	C	1.080962	-0.229579	0.701003
C44	C	1.058036	-0.195791	0.600500
C45	C	0.989582	-0.094871	0.550272
C46	C	1.103564	-0.262921	0.550242
C47	C	1.080643	-0.229134	0.449748
C48	C	1.012193	-0.128217	0.399512
C49	C	0.966661	-0.061084	0.449778
C50	C	1.172023	-0.363838	0.600472
C51	C	1.217551	-0.430968	0.550214
C52	C	1.194625	-0.397185	0.449718
C53	C	1.126176	-0.296267	0.399482
C54	C	1.240158	-0.464318	0.399452
C55	C	1.217236	-0.430530	0.298958
C56	C	1.103254	-0.262480	0.298988
H57	H	0.769474	-0.390218	-0.000011
C58	C	0.364473	-0.524844	-0.000041
C59	C	0.269650	-0.475453	-0.000068
C60	C	0.225483	-0.547374	-0.000119
H61	H	0.394306	-0.584716	0.055620
H62	H	0.368988	-0.547249	-0.055736
H63	H	0.265141	-0.453063	0.055621
H64	H	0.239792	-0.415587	-0.055725
H65	H	0.229998	-0.569779	-0.055814
H66	H	0.255323	-0.607242	0.055543
H67	H	0.161139	-0.513870	-0.000146
C68	C	0.703571	-0.549105	-0.000039
C69	C	0.644599	-0.605578	-0.000058
C70	C	0.696093	-0.708877	-0.000113
H71	H	0.753734	-0.583745	0.055619
H72	H	0.728330	-0.546227	-0.055737
H73	H	0.619855	-0.608460	0.055635
H74	H	0.594437	-0.570970	-0.055712
H75	H	0.720851	-0.705999	-0.055812
H76	H	0.746253	-0.743507	0.055546
H77	H	0.656086	-0.747204	-0.000135
C78	C	1.223846	-0.778787	-0.000042
C79	C	1.289813	-0.875723	-0.000063
C80	C	1.377208	-0.867703	-0.000101
H81	H	1.243833	-0.761917	0.055623
H82	H	1.218395	-0.724468	-0.055733
H83	H	1.295265	-0.930026	0.055623
H84	H	1.269856	-0.892611	-0.055724
H85	H	1.371758	-0.813384	-0.055792
H86	H	1.397187	-0.850831	0.055565
H87	H	1.421976	-0.933468	-0.000124
C88	C	0.960521	-0.713688	0.000046
C89	C	0.968732	-0.816093	0.000067
C90	C	0.881521	-0.824599	0.000133
H91	H	0.915434	-0.663145	-0.055609
H92	H	0.940886	-0.700553	0.055748
H93	H	0.988355	-0.829217	-0.055630
H94	H	1.013802	-0.866656	0.055717
H95	H	0.861886	-0.811464	0.055835
H96	H	0.836441	-0.774051	-0.055523
H97	H	0.887082	-0.894083	0.000156
C98	C	0.869595	0.081734	0.545938
C99	C	0.796269	0.071288	0.488279
C100	C	0.727659	0.172106	0.437986
H101	H	0.896679	0.122048	0.506647
H102	H	0.845696	0.116891	0.590234
H103	H	0.820165	0.036147	0.443989
H104	H	0.769159	0.030993	0.527546
H105	H	0.703760	0.207263	0.482281
H106	H	0.754751	0.212413	0.398700
H107	H	0.677895	0.165032	0.398865
H108	H	0.821607	-0.304741	0.000006
H109	H	1.047505	-0.180305	0.258090
H110	H	0.362586	-0.187302	-0.000022
H111	H	0.993535	-0.100707	0.317683
H112	H	0.910911	0.021091	0.408880
C113	C	1.197077	-0.400697	0.709582
C114	C	1.266793	-0.503430	0.742813
C115	C	1.289906	-0.537412	0.843318
H116	H	1.142776	-0.400960	0.732454
H117	H	1.219785	-0.353803	0.732345
H118	H	1.244082	-0.550313	0.720059
H119	H	1.321109	-0.503195	0.719967
H120	H	1.312614	-0.490517	0.866081
H121	H	1.235599	-0.537669	0.866180
H122	H	1.337215	-0.607115	0.865878
H123	H	0.807618	0.013414	-0.000004
H124	H	1.254311	-0.485195	0.258037
H125	H	0.414731	-0.101813	-0.000025
C126	C	0.917402	0.011476	0.755426
C127	C	0.852531	0.107073	0.689924
C128	C	0.806828	0.174355	0.739996
H129	H	0.962392	0.025464	0.794628
H130	H	0.885398	-0.021717	0.794613
H131	H	0.884533	0.140260	0.650752
H132	H	0.807522	0.093119	0.650719
H133	H	0.774824	0.141163	0.779184
H134	H	0.851825	0.188335	0.779196
H135	H	0.762802	0.239222	0.695561
H136	H	1.136701	-0.311748	0.741911
C137	C	1.291775	-0.540630	0.604634
C138	C	1.263746	-0.617834	0.580175
C139	C	1.332099	-0.718869	0.630278
H140	H	1.298960	-0.551293	0.671697
H141	H	1.349972	-0.546140	0.588133
H142	H	1.205566	-0.612327	0.596683
H143	H	1.256568	-0.607206	0.513121
H144	H	1.390295	-0.724378	0.613777
H145	H	1.339279	-0.729520	0.697339
H146	H	1.313095	-0.771263	0.613684
H147	H	1.295900	-0.546484	0.440361
C148	C	0.619924	0.097911	0.000021
C149	C	0.526761	0.109760	0.000036
C150	C	0.474913	0.212959	0.000081
H151	H	0.621223	0.147642	-0.055639
H152	H	0.646644	0.110142	0.055718
H153	H	0.500047	0.097541	-0.055655
H154	H	0.525432	0.060054	0.055691
H155	H	0.501634	0.225190	0.055778
H156	H	0.476220	0.262681	-0.055580
H157	H	0.411699	0.221009	0.000100
H158	H	0.550106	-0.561988	0.000013
H159	H	0.494485	0.028997	-0.000030
