data_functionalizedCrystal
_audit_creation_method	'MofGen! by Chris Wilmer'
_symmetry_space_group_name_H-M	'P1'
_symmetry_Int_Tables_number	1
_symmetry_cell_setting	triclinic
loop_
_symmetry_equiv_pos_as_xyz
  x,y,z
_cell_length_a	11.792241
_cell_length_b	10.489763
_cell_length_c	10.868271
_cell_angle_alpha	89.993843
_cell_angle_beta	90.000156
_cell_angle_gamma	95.629111
loop_
_atom_site_label
_atom_site_type_symbol
_atom_site_fract_x
_atom_site_fract_y
_atom_site_fract_z
O1	O	1.507393	-0.174824	0.102217
O2	O	2.007393	0.325176	0.602217
O3	O	1.177102	-0.192842	0.102247
O4	O	1.677102	0.307158	0.602247
O5	O	1.349750	0.001789	0.102208
O6	O	1.849750	0.501789	0.602208
O7	O	1.334745	-0.369454	0.102256
O8	O	1.834745	0.130546	0.602256
O9	O	1.349734	0.001783	-0.102436
O10	O	1.849734	0.501783	0.397564
O11	O	1.177086	-0.192848	-0.102398
O12	O	1.677086	0.307152	0.397602
O13	O	1.507378	-0.174830	-0.102428
O14	O	2.007378	0.325170	0.397572
Zn15	Zn	1.342229	-0.183840	-0.134905
Zn16	Zn	1.842229	0.316160	0.365095
Zn17	Zn	1.342250	-0.183832	0.134724
Zn18	Zn	1.842250	0.316168	0.634724
O19	O	1.334730	-0.369461	-0.102389
O20	O	1.834730	0.130539	0.397611
C21	C	1.134800	-0.191713	-0.000072
C22	C	1.634800	0.308287	0.499928
C23	C	1.008777	-0.188325	-0.000061
C24	C	1.508777	0.311675	0.499939
C25	C	0.778048	-0.182096	-0.000098
C26	C	1.278048	0.317904	0.499902
C27	C	0.906442	-0.185557	-0.000078
C28	C	1.406442	0.314443	0.499922
C29	C	1.348603	0.049313	-0.000117
C30	C	1.848603	0.549313	0.499883
C31	C	1.345197	0.190930	-0.000127
C32	C	1.845197	0.690930	0.499873
C33	C	1.235332	0.258695	-0.000114
C34	C	1.735332	0.758695	0.499886
C35	C	1.287215	0.350990	-0.101027
C36	C	1.787215	0.850990	0.398973
C37	C	1.287256	0.350971	0.100737
C38	C	1.787256	0.850971	0.600737
C39	C	1.397124	0.281360	-0.101123
C40	C	1.897124	0.781360	0.398877
C41	C	1.397151	0.281331	0.100731
C42	C	1.897151	0.781331	0.600731
C43	C	1.449113	0.373599	-0.000206
C44	C	1.949113	0.873599	0.499794
C45	C	1.549679	-0.175959	-0.000106
C46	C	2.049679	0.324041	0.499894
C47	C	1.675703	-0.179346	-0.000109
C48	C	2.175703	0.320654	0.499891
N49	N	1.342224	-0.183845	-0.318919
N50	N	1.842224	0.316155	0.181081
C51	C	1.335858	0.583013	-0.000082
C52	C	1.835858	1.083013	0.499918
C53	C	1.339211	0.441389	-0.000128
C54	C	1.839211	0.941389	0.499872
C55	C	1.342232	-0.183845	-0.430256
C56	C	1.842232	0.316155	0.069744
C57	C	1.342247	-0.183834	-0.569934
C58	C	1.842247	0.316166	-0.069934
N59	N	1.342265	-0.183817	0.318738
N60	N	1.842265	0.316183	0.818738
H61	H	1.145010	0.208736	-0.000204
H62	H	1.645010	0.708736	0.499796
O63	O	1.452722	0.244648	0.202462
O64	O	1.952722	0.744648	0.702462
C65	C	1.564777	0.305484	0.203310
C66	C	2.064777	0.805484	0.703310
H67	H	1.568655	0.396212	0.145088
H68	H	2.068655	0.896212	0.645088
H69	H	1.590837	0.331551	0.301844
H70	H	2.090837	0.831551	0.801844
H71	H	1.625446	0.237887	0.163685
H72	H	2.125446	0.737887	0.663685
H73	H	1.240762	0.381779	0.186050
H74	H	1.740762	0.881779	0.686050
H75	H	1.539517	0.423331	-0.000274
H76	H	2.039517	0.923331	0.499726
O77	O	1.231645	0.387942	-0.202662
O78	O	1.731645	0.887942	0.297338
C79	C	1.136489	0.450419	-0.166439
C80	C	1.636489	0.950419	0.333561
H81	H	1.150449	0.489642	-0.069221
H82	H	1.650449	0.989642	0.430779
H83	H	1.125226	0.532704	-0.232442
H84	H	1.625226	1.032704	0.267558
H85	H	1.056849	0.379434	-0.168363
H86	H	1.556849	0.879434	0.331637
O87	O	1.452635	0.244638	-0.202881
O88	O	1.952635	0.744638	0.297119
C89	C	1.548446	0.183187	-0.166882
C90	C	2.048446	0.683187	0.333118
H91	H	1.535121	0.144171	-0.069503
H92	H	2.035121	0.644171	0.430497
H93	H	1.560061	0.100867	-0.232711
H94	H	2.060061	0.600867	0.267289
H95	H	1.627629	0.254829	-0.169323
H96	H	2.127629	0.754829	0.330677
