data_functionalizedCrystal
_audit_creation_method	'MofGen! by Chris Wilmer'
_symmetry_space_group_name_H-M	'P1'
_symmetry_Int_Tables_number	1
_symmetry_cell_setting	triclinic
loop_
_symmetry_equiv_pos_as_xyz
  x,y,z
_cell_length_a	18.760487
_cell_length_b	14.628931
_cell_length_c	14.628931
_cell_angle_alpha	120.000164
_cell_angle_beta	89.964904
_cell_angle_gamma	60.020388
loop_
_atom_site_label
_atom_site_type_symbol
_atom_site_fract_x
_atom_site_fract_y
_atom_site_fract_z
Zr1	Zr	0.686684	1.000577	0.119420
O2	O	0.572868	1.191283	0.265471
O3	O	0.721575	0.809872	0.074648
O4	O	0.721575	1.000577	0.265354
O5	O	0.572868	1.000578	-0.075666
O6	O	0.838878	1.000577	0.265261
O7	O	0.572868	1.000578	0.074765
O8	O	0.838877	0.659440	-0.075877
O9	O	0.572868	1.341715	0.265471
O10	O	0.823997	0.888311	0.055484
O11	O	0.736455	0.888312	-0.056713
O12	O	0.736456	1.112843	0.167819
O13	O	0.648914	1.112843	0.055622
Zr14	Zr	0.873769	1.000577	-0.120649
Zr15	Zr	0.873769	1.000577	0.119273
Zr16	Zr	0.686684	1.000577	-0.120501
Zr17	Zr	0.686685	1.240499	0.119421
Zr18	Zr	0.873768	0.760655	-0.120649
O19	O	0.838878	1.191283	-0.075876
O20	O	0.838878	1.191283	0.265261
O21	O	0.572868	1.191283	-0.075666
O22	O	0.987585	0.809871	-0.266700
O23	O	0.987585	0.809871	0.074438
O24	O	0.721574	0.809872	-0.266490
O25	O	0.987585	1.000577	0.074438
O26	O	0.838877	1.000577	-0.266582
O27	O	0.721575	1.000577	-0.266489
O28	O	0.987585	1.000577	-0.075994
O29	O	0.721576	1.341715	0.265354
O30	O	0.838877	0.659440	-0.266582
O31	O	0.987584	0.659439	-0.266700
O32	O	0.987585	0.659439	-0.075994
O33	O	0.572868	1.341715	0.074766
O34	O	0.721575	1.341715	0.074649
O35	O	0.823997	0.888311	-0.169047
O36	O	0.911539	0.888311	-0.056851
O37	O	0.823998	1.112843	0.055484
O38	O	0.736456	1.112843	-0.056712
C39	C	0.780226	0.700472	-0.000615
C40	C	0.780226	0.598619	-0.000615
C41	C	0.823653	0.553210	0.055042
C42	C	0.823654	0.447939	0.055043
C43	C	0.546212	1.000578	-0.000430
C44	C	0.466790	1.000578	-0.000367
C45	C	0.085277	1.117785	0.057829
C46	C	0.176676	0.883370	-0.059451
C47	C	0.251298	0.883368	-0.059355
C48	C	0.242913	1.000576	-0.000665
C49	C	0.159905	1.117787	0.057929
C50	C	0.334311	0.766160	-0.117938
C51	C	0.408940	0.766153	-0.117843
C52	C	0.400554	0.883363	-0.059159
C53	C	0.317540	1.000578	-0.000564
C54	C	0.309154	1.117786	0.058126
C55	C	0.226141	1.235003	0.116716
C56	C	0.151520	1.234996	0.116614
C57	C	0.475176	0.883369	-0.059057
C58	C	0.383782	1.117788	0.058227
C59	C	1.014241	1.000577	-0.000799
C60	C	1.093663	1.000577	-0.000861
C61	C	0.780227	1.000577	0.299491
C62	C	0.780227	1.000577	0.401344
C63	C	0.780227	1.300682	-0.000614
C64	C	0.780227	1.402535	-0.000614
C65	C	0.718813	1.000577	0.446802
C66	C	0.718811	1.000577	0.552072
C67	C	0.780226	1.000577	0.699281
C68	C	0.780226	1.000577	0.597428
C69	C	1.014240	0.700472	-0.000799
C70	C	1.093663	0.598618	-0.000862
C71	C	0.780226	0.700472	-0.300720
C72	C	0.780225	0.598619	-0.402573
C73	C	1.014240	0.700472	-0.300904
C74	C	1.093662	0.598618	-0.402820
C75	C	0.546213	1.300683	0.299676
C76	C	0.466791	1.402536	0.401592
C77	C	0.546212	1.300683	-0.000429
C78	C	0.466790	1.402536	-0.000366
C79	C	0.780227	1.300682	0.299492
C80	C	0.780228	1.402535	0.401345
C81	C	1.085264	0.550787	0.057756
C82	C	1.159883	0.455099	0.057719
C83	C	1.242899	0.407237	-0.000942
C84	C	1.251295	0.455077	-0.059562
C85	C	1.176678	0.550771	-0.059519
C86	C	1.176663	0.550787	-0.392116
C87	C	1.251296	0.455099	-0.487867
C88	C	1.242925	0.407237	-0.594322
C89	C	1.159915	0.455077	-0.605025
C90	C	1.085284	0.550771	-0.509274
C91	C	0.383790	1.450379	0.390887
C92	C	0.309157	1.546097	0.486639
C93	C	0.317528	1.593964	0.593094
C94	C	0.400538	1.546117	0.603796
C95	C	0.475168	1.450407	0.508046
C96	C	0.475189	1.450377	-0.058974
C97	C	0.400570	1.546092	-0.058911
C98	C	0.317554	1.593958	-0.000246
C99	C	0.309158	1.546112	0.058369
C100	C	0.383775	1.450406	0.058312
C101	C	0.823652	0.553210	-0.503708
C102	C	0.823652	0.447939	-0.608980
H103	H	0.743042	0.441586	-0.048261
H104	H	0.542778	1.411412	-0.106754
H105	H	1.318879	0.416156	-0.479133
Cl106	Cl	1.355665	0.394888	-0.133309
Cl107	Cl	0.637626	1.000587	0.386578
H108	H	0.241556	1.585099	0.106133
Cl109	Cl	0.223757	1.714274	-0.000188
Cl110	Cl	0.861415	1.000567	0.537078
H111	H	0.542750	1.411454	0.516775
Cl112	Cl	0.881053	0.387660	0.128623
H113	H	0.743050	0.559558	-0.048267
Cl114	Cl	0.344847	0.618823	-0.191711
H115	H	0.832803	1.000584	0.440363
Cl116	Cl	0.722825	0.462809	-0.464713
Cl117	Cl	0.204813	1.606223	0.473158
Cl118	Cl	0.223696	1.714284	0.713457
H119	H	0.476526	0.670709	-0.165549
H120	H	0.542761	0.787934	-0.106770
Cl121	Cl	0.047162	1.382339	0.190264
H122	H	0.860836	0.592261	0.102687
H123	H	0.407343	1.585103	0.690484
H124	H	0.407424	1.585032	-0.106647
Cl125	Cl	0.722816	0.538331	-0.389207
H126	H	1.303701	0.329317	-0.672279
H127	H	1.183528	0.589702	-0.107259
H128	H	0.017685	1.213220	0.105527
H129	H	0.666234	1.000570	0.591160
Cl130	Cl	1.149307	0.394970	0.131413
H131	H	1.153113	0.416094	-0.691713
Cl132	Cl	0.373202	1.390265	0.131990
H133	H	0.860826	0.592272	-0.512357
Cl134	Cl	0.881063	0.387646	-0.742929
H135	H	0.376943	1.213234	0.106008
H136	H	0.219323	1.330433	0.164507
H137	H	1.017675	0.589756	0.105539
H138	H	0.183498	0.787944	-0.107230
H139	H	1.303650	0.329316	-0.000970
H140	H	1.183495	0.589742	-0.305443
H141	H	1.017704	0.589703	-0.518006
Cl142	Cl	0.373243	1.390223	0.257069
