data_functionalizedCrystal
_audit_creation_method	'MofGen! by Chris Wilmer'
_symmetry_space_group_name_H-M	'P1'
_symmetry_Int_Tables_number	1
_symmetry_cell_setting	triclinic
loop_
_symmetry_equiv_pos_as_xyz
  x,y,z
_cell_length_a	15.995350
_cell_length_b	14.519709
_cell_length_c	12.996460
_cell_angle_alpha	89.998766
_cell_angle_beta	89.997437
_cell_angle_gamma	83.586260
loop_
_atom_site_label
_atom_site_type_symbol
_atom_site_fract_x
_atom_site_fract_y
_atom_site_fract_z
O1	O	-1.111166	-0.118867	0.085482
O2	O	-0.777833	0.214466	0.418815
O3	O	-0.444500	0.547800	0.752149
O4	O	-0.867413	-0.133546	0.085503
O5	O	-0.534080	0.199787	0.418837
O6	O	-0.200746	0.533121	0.752170
O7	O	-0.995752	0.008044	0.085483
O8	O	-0.662419	0.341377	0.418816
O9	O	-0.329086	0.674710	0.752149
O10	O	-0.982827	-0.260457	0.085502
O11	O	-0.649493	0.072877	0.418836
O12	O	-0.316160	0.406210	0.752169
O13	O	-0.995736	0.008035	-0.085651
O14	O	-0.662402	0.341369	0.247682
O15	O	-0.329069	0.674702	0.581016
O16	O	-0.867396	-0.133554	-0.085630
O17	O	-0.534063	0.199779	0.247703
O18	O	-0.200730	0.533112	0.581036
O19	O	-1.111150	-0.118875	-0.085652
O20	O	-0.777816	0.214458	0.247681
O21	O	-0.444483	0.547792	0.581015
Cu22	Cu	-0.989272	-0.126215	-0.101267
Cu23	Cu	-0.655938	0.207118	0.232066
Cu24	Cu	-0.322605	0.540451	0.565400
Cu25	Cu	-0.989291	-0.126206	0.101118
Cu26	Cu	-0.655958	0.207128	0.434452
Cu27	Cu	-0.322624	0.540461	0.767785
O28	O	-0.982810	-0.260465	-0.085631
O29	O	-0.649477	0.072868	0.247702
O30	O	-0.316144	0.406202	0.581035
C31	C	-0.995142	0.042398	-0.000084
C32	C	-0.661808	0.375732	0.333249
C33	C	-0.328475	0.709065	0.666582
C34	C	-0.993337	0.144776	-0.000085
C35	C	-0.660003	0.478110	0.333249
C36	C	-0.326670	0.811443	0.666582
C37	C	-0.836209	-0.132943	-0.000061
C38	C	-0.502876	0.200390	0.333272
C39	C	-0.169542	0.533723	0.666606
C40	C	-0.743256	-0.131124	-0.000053
C41	C	-0.409923	0.202209	0.333280
C42	C	-0.076589	0.535543	0.666614
C43	C	-1.142354	-0.119478	-0.000085
C44	C	-0.809020	0.213856	0.333248
C45	C	-0.475687	0.547189	0.666581
C46	C	-1.235307	-0.121297	-0.000087
C47	C	-0.901973	0.212036	0.333247
C48	C	-0.568640	0.545369	0.666580
C49	C	-0.405499	-0.124590	-0.000075
C50	C	-0.072165	0.208743	0.333258
C51	C	0.261168	0.542077	0.666592
C52	C	-0.452782	-0.023752	-0.000464
C53	C	-0.119448	0.309581	0.332869
C54	C	0.213885	0.642914	0.666203
C55	C	-0.549475	-0.025572	-0.000071
C56	C	-0.216141	0.307761	0.333262
C57	C	0.117192	0.641094	0.666596
C58	C	-0.573064	-0.127831	-0.000065
C59	C	-0.239731	0.205502	0.333269
C60	C	0.093603	0.538836	0.666602
C61	C	-0.532061	-0.177563	0.097661
C62	C	-0.198727	0.155770	0.430994
C63	C	0.134606	0.489104	0.764327
C64	C	-0.435421	-0.175030	0.097735
C65	C	-0.102088	0.158304	0.431069
C66	C	0.231245	0.491637	0.764402
C67	C	-0.435067	-0.177123	-0.096876
C68	C	-0.101733	0.156211	0.236457
C69	C	0.231600	0.489544	0.569791
C70	C	-0.532012	-0.177099	-0.098160
C71	C	-0.198679	0.156235	0.235173
C72	C	0.134655	0.489568	0.568506
C73	C	-0.667764	-0.129668	-0.000055
C74	C	-0.334431	0.203665	0.333278
C75	C	-0.001098	0.536999	0.666611
C76	C	-0.310798	-0.122756	-0.000077
C77	C	0.022535	0.210577	0.333256
C78	C	0.355869	0.543911	0.666589
C79	C	-0.983421	-0.294819	-0.000062
C80	C	-0.650088	0.038514	0.333271
C81	C	-0.316754	0.371847	0.666605
C82	C	-0.985226	-0.397197	-0.000055
C83	C	-0.651893	-0.063864	0.333278
C84	C	-0.318559	0.269469	0.666612
N85	N	-0.989264	-0.126222	-0.243614
N86	N	-0.655931	0.207112	0.089719
N87	N	-0.322597	0.540445	0.423052
C88	C	-0.986691	0.519660	-0.000057
C89	C	-0.653358	0.852993	0.333276
C90	C	-0.320024	1.186327	0.666609
C91	C	-0.988537	0.415355	-0.000065
C92	C	-0.655203	0.748689	0.333268
C93	C	-0.321870	1.082022	0.666601
C94	C	-0.990014	0.332221	-0.000072
C95	C	-0.656680	0.665555	0.333261
C96	C	-0.323347	0.998888	0.666595
C97	C	-0.991859	0.227910	-0.000078
C98	C	-0.658526	0.561244	0.333255
C99	C	-0.325193	0.894577	0.666589
C100	C	-0.989268	-0.126224	-0.336720
C101	C	-0.655934	0.207109	-0.003387
C102	C	-0.322601	0.540443	0.329947
C103	C	-0.989275	-0.126218	-0.453525
C104	C	-0.655942	0.207115	-0.120192
C105	C	-0.322609	0.540449	0.213141
C106	C	-0.989286	-0.126208	-0.546624
C107	C	-0.655953	0.207126	-0.213290
C108	C	-0.322619	0.540459	0.120043
C109	C	-0.989295	-0.126202	-0.663436
C110	C	-0.655961	0.207131	-0.330103
C111	C	-0.322628	0.540464	0.003231
N112	N	-0.989305	-0.126192	0.243466
N113	N	-0.655972	0.207141	0.576799
N114	N	-0.322639	0.540475	0.910132
H115	H	-0.577838	0.013520	-0.070125
H116	H	-0.244505	0.346853	0.263208
H117	H	0.088828	0.680187	0.596542
H118	H	-0.560390	-0.143015	0.170385
H119	H	-0.227057	0.190319	0.503719
H120	H	0.106276	0.523652	0.837052
F121	F	-0.428480	0.028928	-0.092068
F122	F	-0.095147	0.362261	0.241265
F123	F	0.238186	0.695594	0.574598
H124	H	-0.403416	-0.251469	-0.097532
H125	H	-0.070083	0.081864	0.235801
H126	H	0.263250	0.415197	0.569135
H127	H	-0.433135	0.016373	0.069227
H128	H	-0.099801	0.349706	0.402560
H129	H	0.233532	0.683039	0.735893
F130	F	-0.552235	-0.274571	-0.105869
F131	F	-0.218902	0.058762	0.227465
F132	F	0.114432	0.392095	0.560798
F133	F	-0.550689	-0.275752	0.102436
F134	F	-0.217356	0.057581	0.435770
F135	F	0.115977	0.390915	0.769103
F136	F	-0.585798	0.025670	0.091792
F137	F	-0.252464	0.359003	0.425125
F138	F	0.080869	0.692336	0.758459
H139	H	-0.417066	-0.138756	0.170783
H140	H	-0.083732	0.194577	0.504116
H141	H	0.249601	0.527911	0.837449
H142	H	-0.414475	-0.144160	-0.170949
H143	H	-0.081141	0.189173	0.162384
H144	H	0.252192	0.522507	0.495717
H145	H	-0.403284	-0.249063	0.102175
H146	H	-0.069951	0.084271	0.435508
H147	H	0.263383	0.417604	0.768841
F148	F	-0.567553	-0.129572	-0.192657
F149	F	-0.234220	0.203761	0.140676
F150	F	0.099114	0.537094	0.474010
