data_functionalizedCrystal
_audit_creation_method	'MofGen! by Chris Wilmer'
_symmetry_space_group_name_H-M	'P1'
_symmetry_Int_Tables_number	1
_symmetry_cell_setting	triclinic
loop_
_symmetry_equiv_pos_as_xyz
  x,y,z
_cell_length_a	10.908925
_cell_length_b	16.109301
_cell_length_c	14.586319
_cell_angle_alpha	90.005214
_cell_angle_beta	90.007284
_cell_angle_gamma	71.774069
loop_
_atom_site_label
_atom_site_type_symbol
_atom_site_fract_x
_atom_site_fract_y
_atom_site_fract_z
O1	O	-1.703890	0.128401	-0.076307
O2	O	-1.330002	0.063476	-0.076295
O3	O	-1.527217	0.218388	-0.076292
O4	O	-1.506675	-0.026511	-0.076310
O5	O	-1.527203	0.218388	0.076189
O6	O	-1.329989	0.063476	0.076186
O7	O	-1.703876	0.128401	0.076174
Cu8	Cu	-1.516931	0.095938	0.090102
Cu9	Cu	-1.516947	0.095939	-0.090224
O10	O	-1.506661	-0.026511	0.076171
C11	C	-1.282152	0.057409	-0.000053
C12	C	-1.139593	0.039340	-0.000048
C13	C	-0.943271	0.086607	-0.000056
C14	C	-1.090613	0.105284	-0.000047
C15	C	-0.751727	0.134469	-0.000064
C16	C	-0.894286	0.152541	-0.000055
C17	C	-1.526378	0.249248	-0.000051
C18	C	-1.523883	0.341199	-0.000050
C19	C	-1.507500	-0.057371	-0.000072
C20	C	-1.509995	-0.149322	-0.000080
N21	N	-1.516929	0.095940	0.216934
C22	C	-1.635106	0.578828	-0.000068
C23	C	-1.632752	0.665223	-0.000075
C24	C	-1.398763	0.613041	-0.000064
C25	C	-1.401119	0.526647	-0.000063
C26	C	-1.519294	0.509544	-0.000060
C27	C	-1.514585	0.682333	-0.000069
C28	C	-1.512031	0.776006	-0.000077
C29	C	-1.521848	0.415865	-0.000054
N30	N	-1.516960	0.095945	-0.217056
C31	C	-1.604285	0.164520	0.451942
C32	C	-1.604288	0.164523	0.547923
C33	C	-1.429595	0.027361	0.547930
C34	C	-1.429586	0.027362	0.451950
C35	C	-1.516938	0.095942	0.403959
C36	C	-1.516951	0.095943	0.595920
C37	C	-1.516954	0.095945	0.699987
C38	C	-1.516933	0.095941	0.299885
H39	H	-0.961431	0.222817	-0.000053
H40	H	-1.358451	-0.028483	0.412880
H41	H	-0.876127	0.016331	-0.000069
Br42	Br	-1.238391	0.636259	-0.000071
Br43	Br	-1.027701	-0.077802	-0.000069
H44	H	-1.675410	0.220363	0.412870
H45	H	-1.306805	0.470231	-0.000060
Br46	Br	-1.795485	0.555619	-0.000063
H47	H	-1.727058	0.721633	-0.000083
H48	H	-1.157754	0.175564	-0.000045
H49	H	-1.358476	-0.028476	0.587014
Br50	Br	-1.722829	0.257600	0.613042
