data_functionalizedCrystal
_audit_creation_method	'MofGen! by Chris Wilmer'
_symmetry_space_group_name_H-M	'P1'
_symmetry_Int_Tables_number	1
_symmetry_cell_setting	triclinic
loop_
_symmetry_equiv_pos_as_xyz
  x,y,z
_cell_length_a	27.731994
_cell_length_b	27.732048
_cell_length_c	13.596369
_cell_angle_alpha	89.989067
_cell_angle_beta	90.000755
_cell_angle_gamma	82.631595
loop_
_atom_site_label
_atom_site_type_symbol
_atom_site_fract_x
_atom_site_fract_y
_atom_site_fract_z
O1	O	0.640945	0.057393	-0.081662
O2	O	0.500148	0.066166	-0.081696
O3	O	0.574919	-0.008618	-0.081659
O4	O	0.566173	0.132177	-0.081699
O5	O	0.574912	-0.008622	0.081924
O6	O	0.500140	0.066162	0.081887
O7	O	0.640937	0.057389	0.081921
Zn8	Zn	0.570538	0.061775	0.107877
Zn9	Zn	0.570547	0.061780	-0.107651
O10	O	0.566166	0.132173	0.081884
C11	C	0.482137	0.065984	0.000092
C12	C	0.428480	0.065442	0.000079
C13	C	0.095758	0.062024	0.089287
C14	C	-0.105900	0.059962	0.089299
O15	O	-0.131976	0.059673	0.165134
N16	N	-0.131111	0.059708	0.000130
C17	C	-0.105904	0.059966	-0.089048
O18	O	-0.131974	0.059698	-0.164891
C19	C	0.095754	0.062025	-0.089059
C20	C	0.120961	0.062283	0.000116
C21	C	0.120965	0.062282	0.178455
C22	C	0.171377	0.062800	0.178451
C23	C	0.196580	0.063060	0.089280
C24	C	0.171372	0.062801	0.000112
C25	C	0.120961	0.062279	-0.178236
C26	C	0.171378	0.062793	-0.178231
C27	C	0.196586	0.063052	-0.089056
C28	C	0.246987	0.063579	-0.089063
N29	N	0.272198	0.063833	0.000106
C30	C	0.246994	0.063573	0.089277
C31	C	-0.211777	0.058887	-0.089036
C32	C	-0.262192	0.058373	-0.089034
C33	C	-0.262184	0.058368	0.089314
C34	C	-0.211770	0.058885	0.089310
C35	C	-0.186566	0.059141	0.000133
C36	C	0.352861	0.064662	0.089262
C37	C	0.403277	0.065182	0.089251
C38	C	0.403265	0.065185	-0.089096
C39	C	0.352854	0.064667	-0.089085
C40	C	0.327654	0.064404	0.000102
O41	O	0.273095	0.063863	-0.164858
O42	O	0.273074	0.063831	0.165109
C43	C	0.045347	0.061506	0.089291
C44	C	0.020139	0.061247	0.000124
C45	C	0.045342	0.061507	-0.089048
C46	C	-0.030275	0.060734	0.000126
C47	C	-0.055479	0.060474	0.089297
C48	C	-0.030268	0.060728	0.178466
C49	C	0.020143	0.061246	0.178462
C50	C	0.020132	0.061253	-0.178217
C51	C	-0.030280	0.060736	-0.178205
C52	C	-0.055483	0.060476	-0.089034
C53	C	0.574732	-0.026627	0.000135
C54	C	0.574179	-0.080282	0.000143
C55	C	0.614884	-0.419105	0.000103
C56	C	0.612833	-0.620764	0.000088
O57	O	0.650055	-0.652027	0.000054
N58	N	0.568496	-0.639879	0.000078
C59	C	0.524670	-0.608576	0.000066
O60	O	0.486912	-0.629462	0.000047
C61	C	0.526721	-0.406918	0.000073
C62	C	0.571061	-0.387805	0.000093
C63	C	0.659220	-0.399992	0.000121
C64	C	0.659732	-0.349580	0.000130
C65	C	0.615908	-0.318281	0.000120
C66	C	0.571573	-0.337394	0.000102
C67	C	0.482895	-0.375615	0.000053
C68	C	0.483412	-0.325198	0.000052
C69	C	0.527751	-0.306086	0.000072
C70	C	0.528262	-0.255683	0.000101
N71	N	0.572598	-0.236567	0.000111
C72	C	0.616421	-0.267867	0.000120
C73	C	0.523596	-0.714450	0.000064
C74	C	0.523083	-0.764864	0.000064
C75	C	0.611246	-0.777049	0.000085
C76	C	0.611759	-0.726633	0.000092
C77	C	0.567932	-0.695335	0.000074
C78	C	0.617494	-0.161998	0.000140
C79	C	0.618002	-0.111581	0.000153
C80	C	0.529839	-0.099401	0.000127
C81	C	0.529331	-0.149813	0.000119
C82	C	0.573162	-0.181111	0.000122
O83	O	0.491060	-0.224391	0.000124
O84	O	0.654174	-0.246971	0.000117
C85	C	0.614372	-0.469517	0.000094
C86	C	0.570036	-0.488629	0.000075
C87	C	0.526213	-0.457330	0.000065
C88	C	0.569523	-0.539043	0.000075
C89	C	0.613346	-0.570343	0.000085
C90	C	0.657683	-0.551228	0.000095
C91	C	0.658195	-0.500816	0.000103
C92	C	0.481876	-0.476445	0.000055
C93	C	0.481367	-0.526857	0.000047
C94	C	0.525191	-0.558157	0.000057
C95	C	0.658949	0.057571	0.000132
C96	C	0.712605	0.058114	0.000138
C97	C	0.566353	0.150182	0.000088
C98	C	0.566906	0.203837	0.000074
N99	N	0.570535	0.061771	0.254968
N100	N	0.570554	0.061780	-0.254743
C101	C	0.570547	0.061781	0.656259
C102	C	0.570542	0.061780	0.544608
C103	C	0.570541	0.061776	0.455617
C104	C	0.570536	0.061775	0.343959
H105	H	0.332348	0.064452	0.161887
H106	H	0.191896	0.063001	-0.250852
Cl107	Cl	0.203059	0.063122	0.290563
H108	H	0.332328	0.064464	-0.161698
Cl109	Cl	-0.180101	0.059210	-0.201157
H110	H	0.486977	-0.780420	0.000065
H111	H	0.100450	0.062069	0.251073
H112	H	0.446789	-0.391167	0.000031
Cl113	Cl	0.473589	-0.173841	0.000113
Cl114	Cl	0.714320	-0.439332	0.000135
Cl115	Cl	0.434960	0.065508	-0.201191
H116	H	0.693365	-0.576720	0.000107
H117	H	-0.282714	0.058158	0.161921
Cl118	Cl	0.468494	-0.675109	0.000042
Cl119	Cl	0.428312	-0.285854	0.000029
Cl120	Cl	0.426778	-0.437104	0.000041
Cl121	Cl	-0.180085	0.059209	0.201419
H122	H	0.647863	-0.711076	0.000107
H123	H	0.040663	0.061457	0.251078
Cl124	Cl	0.474750	-0.060044	0.000113
Cl125	Cl	-0.293876	0.058058	-0.201144
H126	H	0.654110	-0.096023	0.000172
Cl127	Cl	-0.061963	0.060413	-0.290323
Cl128	Cl	0.713939	-0.476797	0.000120
Cl129	Cl	-0.061962	0.060403	0.290566
Cl130	Cl	0.089284	0.061952	-0.290349
H131	H	0.040647	0.061463	-0.250832
H132	H	0.653186	-0.187475	0.000139
Cl133	Cl	0.715476	-0.325562	0.000127
H134	H	0.423798	0.065394	0.161871
Cl135	Cl	0.666338	-0.816405	0.000092
Cl136	Cl	0.425621	-0.550877	0.000027
