data_functionalizedCrystal
_audit_creation_method	'MofGen! by Chris Wilmer'
_symmetry_space_group_name_H-M	'P1'
_symmetry_Int_Tables_number	1
_symmetry_cell_setting	triclinic
loop_
_symmetry_equiv_pos_as_xyz
  x,y,z
_cell_length_a	11.026607
_cell_length_b	11.792241
_cell_length_c	10.065875
_cell_angle_alpha	98.849501
_cell_angle_beta	79.302338
_cell_angle_gamma	96.389716
loop_
_atom_site_label
_atom_site_type_symbol
_atom_site_fract_x
_atom_site_fract_y
_atom_site_fract_z
O1	O	1.630965	0.462836	-0.113504
O2	O	2.130965	0.962836	0.386496
O3	O	1.277303	0.408644	-0.113505
O4	O	1.777303	0.908644	0.386495
O5	O	1.462715	0.272275	-0.113495
O6	O	1.962715	0.772275	0.386505
O7	O	1.445553	0.599205	-0.113514
O8	O	1.945553	1.099205	0.386486
O9	O	1.427360	0.298412	0.113492
O10	O	1.927360	0.798412	0.613492
O11	O	1.241948	0.434781	0.113482
O12	O	1.741948	0.934781	0.613482
O13	O	1.595611	0.488973	0.113483
O14	O	2.095611	0.988973	0.613483
Zn15	Zn	1.413166	0.466027	0.149522
Zn16	Zn	1.913166	0.966027	0.649522
Zn17	Zn	1.459747	0.431590	-0.149543
Zn18	Zn	1.959747	0.931590	0.350457
O19	O	1.410198	0.625342	0.113473
O20	O	1.910198	1.125342	0.613473
C21	C	1.214349	0.411715	-0.000011
C22	C	1.714349	0.911715	0.499989
C23	C	1.079439	0.381912	-0.000011
C24	C	1.579439	0.881912	0.499989
C25	C	1.006175	0.464202	-0.000017
C26	C	1.506175	0.964202	0.499983
C27	C	0.866738	0.433401	-0.000017
C28	C	1.366738	0.933401	0.499983
C29	C	1.443960	0.242838	-0.000002
C30	C	1.943960	0.742838	0.499998
C31	C	1.440732	0.116183	-0.000003
C32	C	1.940732	0.616183	0.499997
C33	C	1.434802	-0.115710	-0.000026
C34	C	1.934802	0.384290	0.499974
C35	C	1.438097	0.013332	-0.000013
C36	C	1.938097	0.513332	0.499987
C37	C	1.658565	0.485901	-0.000014
C38	C	2.158565	0.985901	0.499986
C39	C	1.793477	0.515703	-0.000023
C40	C	2.293477	1.015703	0.499977
C41	C	1.428954	0.654778	-0.000023
C42	C	1.928954	1.154778	0.499977
C43	C	1.432183	0.781432	-0.000031
C44	C	1.932183	1.281432	0.499969
N45	N	1.381384	0.489530	0.353626
N46	N	1.881384	0.989530	0.853626
N47	N	1.491539	0.408079	-0.353647
N48	N	1.991539	0.908079	0.146353
C49	C	1.448682	0.439759	0.421408
C50	C	1.948682	0.939759	0.921408
C51	C	1.424231	0.457858	0.578574
C52	C	1.924231	0.957858	1.078574
H53	H	0.833974	0.608964	-0.000019
H54	H	1.333974	1.108964	0.499981
N55	N	1.543545	0.369376	0.348192
N56	N	2.043545	0.869376	0.848192
N57	N	1.538268	0.265766	0.364056
N58	N	2.038268	0.765766	0.864056
H59	H	1.605220	0.216016	0.312319
H60	H	2.105220	0.716016	0.812319
H61	H	1.038938	0.288655	-0.000041
H62	H	1.538938	0.788655	0.499959
N63	N	1.329232	0.528115	0.651742
N64	N	1.829232	1.028115	1.151742
N65	N	1.309500	0.542713	0.779309
N66	N	1.809500	1.042713	1.279309
H67	H	1.242406	0.592329	0.830988
H68	H	1.742406	1.092329	1.330988
H69	H	1.305662	0.545537	0.411948
H70	H	1.805662	1.045537	0.911948
N71	N	1.056994	0.581187	-0.000008
N72	N	1.556994	1.081187	0.499992
N73	N	1.170190	0.606042	-0.000002
N74	N	1.670190	1.106042	0.499998
H75	H	1.206080	0.688666	0.000005
H76	H	1.706080	1.188666	0.500005
N77	N	0.815921	0.316414	0.000008
N78	N	1.315921	0.816414	0.500008
N79	N	0.702722	0.291561	0.000016
N80	N	1.202722	0.791561	0.500016
H81	H	0.666828	0.208940	0.000036
H82	H	1.166828	0.708940	0.500036
N83	N	1.586520	0.337801	0.573188
N84	N	2.086520	0.837801	1.073188
N85	N	1.606246	0.323191	0.445620
N86	N	2.106246	0.823191	0.945620
H87	H	1.673324	0.273556	0.393944
H88	H	2.173324	0.773556	0.893944
