data_functionalizedCrystal
_audit_creation_method	'MofGen! by Chris Wilmer'
_symmetry_space_group_name_H-M	'P1'
_symmetry_Int_Tables_number	1
_symmetry_cell_setting	triclinic
loop_
_symmetry_equiv_pos_as_xyz
  x,y,z
_cell_length_a	19.188930
_cell_length_b	9.065218
_cell_length_c	8.140239
_cell_angle_alpha	90.001686
_cell_angle_beta	90.016597
_cell_angle_gamma	84.080333
loop_
_atom_site_label
_atom_site_type_symbol
_atom_site_fract_x
_atom_site_fract_y
_atom_site_fract_z
O1	O	-0.927574	-0.184174	-0.137136
O2	O	-0.427574	0.315826	0.362864
O3	O	-0.724455	-0.208967	-0.137023
O4	O	-0.224455	0.291033	0.362977
O5	O	-0.830213	0.018217	-0.137078
O6	O	-0.330213	0.518217	0.362922
O7	O	-0.821816	-0.411359	-0.137080
O8	O	-0.321816	0.088641	0.362920
O9	O	-0.830207	0.018220	0.136149
O10	O	-0.330207	0.518220	0.636149
O11	O	-0.724449	-0.208965	0.136205
O12	O	-0.224449	0.291035	0.636205
O13	O	-0.927568	-0.184172	0.136091
O14	O	-0.427568	0.315828	0.636091
Zn15	Zn	-0.826008	-0.196568	0.179529
Zn16	Zn	-0.326008	0.303432	0.679529
Zn17	Zn	-0.826016	-0.196571	-0.180460
Zn18	Zn	-0.326016	0.303429	0.319540
O19	O	-0.821810	-0.411356	0.136147
O20	O	-0.321810	0.088644	0.636147
C21	C	-0.698435	-0.208163	-0.000395
C22	C	-0.198435	0.291837	0.499605
C23	C	-0.620912	-0.205753	-0.000351
C24	C	-0.120912	0.294247	0.499649
C25	C	-0.829403	0.073177	-0.000467
C26	C	-0.329403	0.573177	0.499533
C27	C	-0.826990	0.236936	-0.000473
C28	C	-0.326990	0.736936	0.499527
C29	C	-0.953588	-0.184976	-0.000540
C30	C	-0.453588	0.315024	0.499460
C31	C	-1.031112	-0.187386	-0.000594
C32	C	-0.531112	0.312614	0.499406
C33	C	-0.577024	-0.339058	-0.000378
C34	C	-0.077024	0.160942	0.499622
C35	C	-0.504182	-0.336793	-0.000396
C36	C	-0.004182	0.163207	0.499604
C37	C	-0.475232	-0.201217	-0.000421
C38	C	0.024768	0.298783	0.499579
C39	C	-0.519130	-0.067895	-0.000385
C40	C	-0.019130	0.432105	0.499615
C41	C	-0.591970	-0.070163	-0.000350
C42	C	-0.091970	0.429837	0.499650
N43	N	-0.366449	-0.097586	-0.093477
N44	N	0.133551	0.402414	0.406523
N45	N	-0.297254	-0.095441	-0.093514
N46	N	0.202746	0.404559	0.406486
C47	C	-0.255771	-0.194375	-0.000521
C48	C	0.244229	0.305625	0.499479
N49	N	-0.286095	-0.295558	0.092489
N50	N	0.213905	0.204442	0.592489
N51	N	-0.355297	-0.297708	0.092518
N52	N	0.144703	0.202292	0.592518
C53	C	-0.396251	-0.198742	-0.000457
C54	C	0.103749	0.301258	0.499543
C55	C	-0.132899	-0.325234	-0.000565
C56	C	0.367101	0.174766	0.499435
C57	C	-0.060056	-0.322964	-0.000572
C58	C	0.439944	0.177036	0.499428
C59	C	-0.075006	-0.054061	-0.000578
C60	C	0.424994	0.445939	0.499422
C61	C	-0.147847	-0.056335	-0.000554
C62	C	0.352153	0.443665	0.499446
C63	C	-0.176789	-0.191925	-0.000555
C64	C	0.323211	0.308075	0.499445
C65	C	-0.822620	-0.466316	-0.000468
C66	C	-0.322620	0.033684	0.499532
C67	C	-0.825033	-0.630075	-0.000472
C68	C	-0.325033	-0.130075	0.499528
N69	N	-0.826008	-0.196565	0.425211
N70	N	-0.326008	0.303435	0.925211
N71	N	-0.826021	-0.196563	-0.426143
N72	N	-0.326021	0.303437	0.073857
H73	H	-0.600583	-0.449466	-0.000382
H74	H	-0.100583	0.050534	0.499618
O75	O	-0.461639	-0.466427	-0.000509
O76	O	0.038361	0.033573	0.499491
C77	C	-0.454493	-0.733376	-0.000454
C78	C	0.045507	-0.233376	0.499546
C79	C	-0.502750	-0.586679	-0.000357
C80	C	-0.002750	-0.086679	0.499643
H81	H	-0.487712	-0.830638	-0.000296
H82	H	0.012288	-0.330638	0.499704
H83	H	-0.420059	-0.739118	-0.114848
H84	H	0.079941	-0.239118	0.385152
H85	H	-0.419975	-0.738966	0.113842
H86	H	0.080025	-0.238966	0.613842
H87	H	-0.537311	-0.580991	-0.114575
H88	H	-0.037311	-0.080991	0.385425
H89	H	-0.537136	-0.580999	0.114114
H90	H	-0.037136	-0.080999	0.614114
H91	H	-0.183582	0.052216	-0.000541
H92	H	0.316418	0.552216	0.499459
O93	O	-0.634507	0.059472	-0.000409
O94	O	-0.134507	0.559472	0.499591
C95	C	-0.641648	0.326420	-0.000316
C96	C	-0.141648	0.826420	0.499684
C97	C	-0.593393	0.179720	-0.000282
C98	C	-0.093393	0.679720	0.499718
H99	H	-0.608427	0.423679	-0.000178
H100	H	-0.108427	0.923679	0.499822
H101	H	-0.676130	0.332180	-0.114677
H102	H	-0.176130	0.832180	0.385323
H103	H	-0.676117	0.331998	0.114013
H104	H	-0.176117	0.831998	0.614013
H105	H	-0.558880	0.174044	-0.114534
H106	H	-0.058880	0.674044	0.385466
H107	H	-0.558958	0.174021	0.114155
H108	H	-0.058958	0.674021	0.614155
H109	H	-0.024323	-0.431521	-0.000585
H110	H	0.475677	0.068479	0.499415
H111	H	-0.495555	0.042493	-0.000427
H112	H	0.004445	0.542493	0.499573
O113	O	-0.160903	-0.457068	-0.000476
O114	O	0.339097	0.042932	0.499524
C115	C	-0.138389	-0.723537	-0.000566
C116	C	0.361611	-0.223537	0.499434
C117	C	-0.106585	-0.574342	-0.000629
C118	C	0.393415	-0.074342	0.499371
H119	H	-0.094489	-0.818392	-0.000725
H120	H	0.405511	-0.318392	0.499275
H121	H	-0.172072	-0.731419	0.113817
H122	H	0.327928	-0.231419	0.613817
H123	H	-0.172161	-0.731244	-0.114873
H124	H	0.327839	-0.231244	0.385127
H125	H	-0.072781	-0.566534	0.113601
H126	H	0.427219	-0.066534	0.613601
H127	H	-0.072943	-0.566524	-0.115088
H128	H	0.427057	-0.066524	0.384912
O129	O	-0.046778	0.077510	-0.000678
O130	O	0.453222	0.577510	0.499322
C131	C	0.058810	0.200180	-0.000635
C132	C	0.558810	0.700180	0.499365
C133	C	0.026931	0.051068	-0.000566
C134	C	0.526931	0.551068	0.499434
H135	H	0.118408	0.178853	-0.000510
H136	H	0.618408	0.678853	0.499490
H137	H	0.040831	0.266051	-0.115004
H138	H	0.540831	0.766051	0.384996
H139	H	0.040784	0.266037	0.113686
H140	H	0.540784	0.766037	0.613686
H141	H	0.044942	-0.014909	-0.114810
H142	H	0.544942	0.485091	0.385190
H143	H	0.044908	-0.014690	0.113879
H144	H	0.544908	0.485310	0.613879
