data_functionalizedCrystal
_audit_creation_method	'MofGen! by Chris Wilmer'
_symmetry_space_group_name_H-M	'P1'
_symmetry_Int_Tables_number	1
_symmetry_cell_setting	triclinic
loop_
_symmetry_equiv_pos_as_xyz
  x,y,z
_cell_length_a	10.686154
_cell_length_b	19.805405
_cell_length_c	19.805399
_cell_angle_alpha	90.030709
_cell_angle_beta	85.646985
_cell_angle_gamma	94.405719
loop_
_atom_site_label
_atom_site_type_symbol
_atom_site_fract_x
_atom_site_fract_y
_atom_site_fract_z
Zn1	Zn	-1.928990	0.190036	-0.303451
Zn2	Zn	-1.928842	0.303233	-0.190265
Zn3	Zn	-1.717993	0.198746	-0.198945
Zn4	Zn	-1.717915	0.311880	-0.312079
O5	O	-1.823435	0.250974	-0.251185
O6	O	-2.105548	0.197788	-0.281193
O7	O	-1.900842	0.289399	-0.096701
O8	O	-1.746077	0.102870	-0.212830
O9	O	-2.105438	0.280954	-0.198036
O10	O	-1.901096	0.096471	-0.289610
O11	O	-1.745932	0.212633	-0.103078
O12	O	-1.541405	0.221018	-0.221196
O13	O	-1.745944	0.295691	-0.405650
O14	O	-1.541348	0.304137	-0.304315
O15	O	-1.901020	0.206173	-0.399311
O16	O	-1.900767	0.399101	-0.206403
O17	O	-1.745800	0.405454	-0.295898
C18	C	-1.495592	0.264461	-0.264634
C19	C	-1.355340	0.270247	-0.270404
C20	C	-1.823293	0.426836	-0.251158
C21	C	-1.823348	0.502066	-0.251165
C22	C	-1.823490	0.250925	-0.427726
C23	C	-1.823514	0.250904	-0.502957
C24	C	-1.152558	0.237428	-0.237680
C25	C	-1.292810	0.231639	-0.231913
C26	C	-1.823612	0.074424	-0.251226
C27	C	-1.823687	-0.000811	-0.251243
C28	C	-1.904117	0.534076	-0.204606
C29	C	-1.904171	0.604762	-0.204619
C30	C	-1.823447	0.643437	-0.251187
C31	C	-1.742674	0.611422	-0.297751
C32	C	-1.742628	0.540736	-0.297741
C33	C	-1.742860	0.896487	-0.297793
C34	C	-1.742910	0.967177	-0.297799
C35	C	-1.904403	0.960513	-0.204672
C36	C	-1.904357	0.889828	-0.204661
C37	C	-1.823589	0.857819	-0.251227
C38	C	-1.823533	0.781172	-0.251213
C39	C	-1.823496	0.720082	-0.251198
C40	C	-1.742875	0.210927	-0.541620
C41	C	-1.742893	0.210913	-0.612308
C42	C	-1.823556	0.250873	-0.644331
C43	C	-1.904198	0.290855	-0.605662
C44	C	-1.904173	0.290872	-0.534976
C45	C	-1.904298	0.290787	-0.890732
C46	C	-1.904319	0.290765	-0.961423
C47	C	-1.743017	0.210828	-0.968063
C48	C	-1.742993	0.210845	-0.897377
C49	C	-1.823629	0.250829	-0.858715
C50	C	-1.823608	0.250845	-0.782068
C51	C	-1.823585	0.250854	-0.720977
C52	C	-1.823452	0.250971	-0.075328
C53	C	-1.823673	0.250791	-0.000088
H54	H	-1.301570	0.307735	-0.307769
N55	N	-1.655886	0.167819	-0.507083
H56	H	-1.604805	0.142492	-0.542305
H57	H	-1.597451	0.197778	-0.480141
N58	N	-1.655932	0.167776	-0.653996
H59	H	-1.707267	0.134294	-0.681223
H60	H	-1.597434	0.197714	-0.685680
N61	N	-1.991518	0.995037	-0.154444
H62	H	-1.979304	1.045684	-0.161514
H63	H	-2.081618	0.978924	-0.161313
N64	N	-1.364013	0.181990	-0.182412
H65	H	-1.457472	0.184754	-0.185169
H66	H	-1.341077	0.134599	-0.193967
H67	H	-1.969869	0.323395	-0.631741
H68	H	-1.969846	0.502592	-0.166682
N69	N	-1.991274	0.333908	-0.849039
H70	H	-2.081445	0.319681	-0.857644
H71	H	-1.978914	0.327843	-0.799417
N72	N	-1.656018	0.167715	-1.009765
H73	H	-1.707328	0.134232	-1.037005
H74	H	-1.597544	0.197676	-1.041439
N75	N	-1.655836	1.008888	-0.348030
H76	H	-1.675374	0.995744	-0.395596
H77	H	-1.668156	1.058511	-0.340909
H78	H	-1.969941	0.630822	-0.166706
H79	H	-1.970008	0.323308	-0.987494
N80	N	-1.991151	0.333993	-0.493278
H81	H	-2.081323	0.319769	-0.501883
H82	H	-1.978791	0.327928	-0.443656
N83	N	-1.991425	0.848114	-0.154436
H84	H	-2.042606	0.879119	-0.124944
H85	H	-2.049762	0.816341	-0.179621
H86	H	-1.677313	0.178303	-0.871308
H87	H	-1.677094	0.870431	-0.335707
H88	H	-1.676859	0.514674	-0.335654
N89	N	-1.655610	0.653131	-0.347982
H90	H	-1.667890	0.702768	-0.340922
H91	H	-1.565498	0.644531	-0.341101
