data_functionalizedCrystal
_audit_creation_method	'MofGen! by Chris Wilmer'
_symmetry_space_group_name_H-M	'P1'
_symmetry_Int_Tables_number	1
_symmetry_cell_setting	triclinic
loop_
_symmetry_equiv_pos_as_xyz
  x,y,z
_cell_length_a	13.897449
_cell_length_b	25.639239
_cell_length_c	13.897441
_cell_angle_alpha	89.966666
_cell_angle_beta	89.981404
_cell_angle_gamma	90.039966
loop_
_atom_site_label
_atom_site_type_symbol
_atom_site_fract_x
_atom_site_fract_y
_atom_site_fract_z
Zn1	Zn	1.474542	-0.208121	-0.545356
Zn2	Zn	1.474382	-0.295562	-0.384047
Zn3	Zn	1.313237	-0.208145	-0.384075
Zn4	Zn	1.313153	-0.295529	-0.545300
O5	O	1.393829	-0.251839	-0.464694
O6	O	1.609502	-0.219725	-0.523970
O7	O	1.452974	-0.283990	-0.249069
O8	O	1.334736	-0.134976	-0.405504
O9	O	1.609385	-0.283967	-0.405457
O10	O	1.453246	-0.134959	-0.523997
O11	O	1.334581	-0.219764	-0.249089
O12	O	1.178244	-0.219733	-0.405449
O13	O	1.334594	-0.283911	-0.680289
O14	O	1.178183	-0.283934	-0.523901
O15	O	1.453165	-0.219693	-0.680331
O16	O	1.452894	-0.368723	-0.405403
O17	O	1.334439	-0.368699	-0.523874
C18	C	1.143214	-0.251832	-0.464673
C19	C	1.036000	-0.251842	-0.464686
C20	C	0.839705	-0.251844	-0.464711
C21	C	0.948938	-0.251841	-0.464695
C22	C	1.393666	-0.387682	-0.464650
C23	C	1.393685	-0.445796	-0.464664
C24	C	1.455669	-0.806159	-0.403111
C25	C	1.455706	-0.860763	-0.403124
O26	O	1.508238	-0.889000	-0.350742
N27	N	1.393998	-0.888078	-0.464758
C28	C	1.332256	-0.860786	-0.526391
O29	O	1.279772	-0.889034	-0.578817
C30	C	1.332224	-0.806183	-0.526382
C31	C	1.393929	-0.778871	-0.464737
C32	C	1.517369	-0.778847	-0.341472
C33	C	1.517331	-0.724246	-0.341458
C34	C	1.455591	-0.696958	-0.403084
C35	C	1.393890	-0.724270	-0.464723
C36	C	1.270487	-0.778892	-0.588018
C37	C	1.270461	-0.724285	-0.588004
C38	C	1.332166	-0.696973	-0.526359
C39	C	1.332111	-0.642382	-0.526334
N40	N	1.393819	-0.615066	-0.464700
C41	C	1.455559	-0.642355	-0.403075
C42	C	1.332328	-0.975457	-0.526405
C43	C	1.332354	-1.030059	-0.526410
C44	C	1.455806	-1.030033	-0.403145
C45	C	1.455775	-0.975429	-0.403136
C46	C	1.394036	-0.948142	-0.464771
C47	C	1.455472	-0.527690	-0.403050
C48	C	1.455425	-0.473084	-0.403038
C49	C	1.331977	-0.473116	-0.526307
C50	C	1.332020	-0.527716	-0.526315
C51	C	1.393776	-0.555002	-0.464683
O52	O	1.279609	-0.614110	-0.578693
O53	O	1.508043	-0.614100	-0.350666
C54	C	1.645421	-0.251847	-0.464717
C55	C	1.752635	-0.251850	-0.464727
C56	C	1.393888	-0.251796	-0.716288
C57	C	1.393913	-0.251777	-0.823502
C58	C	1.394018	-0.115466	-0.464760
C59	C	1.394098	-0.057352	-0.464788
C60	C	1.393933	-0.251762	-0.910571
C61	C	1.393960	-0.251739	-1.019804
C62	C	1.393825	-0.251845	-0.214080
C63	C	1.393987	-0.251717	-0.106867
H64	H	1.505672	-0.450848	-0.352836
C65	C	1.264400	-0.945446	-0.594197
H66	H	1.227652	-0.969537	-0.630895
H67	H	1.301253	-0.924108	-0.636260
H68	H	1.222374	-0.924184	-0.557251
C69	C	1.264473	-1.060097	-0.594213
H70	H	1.227706	-1.036020	-0.630915
H71	H	1.222478	-1.081438	-0.557289
H72	H	1.301367	-1.081358	-0.636288
H73	H	1.567651	-0.801059	-0.291289
C74	C	1.202624	-0.808926	-0.655839
H75	H	1.211473	-0.845356	-0.647028
H76	H	1.216713	-0.799938	-0.720652
H77	H	1.137810	-0.800019	-0.641667
C78	C	1.523394	-0.557696	-0.335249
H79	H	1.560123	-0.533603	-0.298535
H80	H	1.565423	-0.578960	-0.372178
H81	H	1.486527	-0.579032	-0.293187
H82	H	1.220187	-0.702070	-0.638198
C83	C	1.264145	-0.557761	-0.594121
H84	H	1.227374	-0.533687	-0.630823
H85	H	1.222154	-0.579105	-0.557199
H86	H	1.301047	-0.579019	-0.636193
H87	H	1.281706	-0.450889	-0.576479
C88	C	1.585219	-0.694210	-0.273660
H89	H	1.621996	-0.718288	-0.236973
H90	H	1.548345	-0.672943	-0.231587
H91	H	1.627218	-0.672875	-0.310601
C92	C	1.523717	-1.060057	-0.335355
H93	H	1.514898	-1.096487	-0.344198
H94	H	1.509631	-1.051141	-0.270530
H95	H	1.588520	-1.051070	-0.349529
C96	C	1.523657	-0.945391	-0.335335
H97	H	1.560432	-0.969468	-0.298642
H98	H	1.486778	-0.924123	-0.293268
H99	H	1.565659	-0.924056	-0.372274
