data_functionalizedCrystal
_audit_creation_method	'MofGen! by Chris Wilmer'
_symmetry_space_group_name_H-M	'P1'
_symmetry_Int_Tables_number	1
_symmetry_cell_setting	triclinic
loop_
_symmetry_equiv_pos_as_xyz
  x,y,z
_cell_length_a	17.699083
_cell_length_b	17.699083
_cell_length_c	7.540329
_cell_angle_alpha	89.995522
_cell_angle_beta	90.003072
_cell_angle_gamma	83.283015
loop_
_atom_site_label
_atom_site_type_symbol
_atom_site_fract_x
_atom_site_fract_y
_atom_site_fract_z
O1	O	1.004074	0.095710	-0.147237
O2	O	1.504074	0.595710	0.352763
O3	O	0.783696	0.108163	-0.147296
O4	O	1.283696	0.608163	0.352704
O5	O	0.900111	-0.008253	-0.147249
O6	O	1.400111	0.491747	0.352751
O7	O	0.887659	0.212126	-0.147284
O8	O	1.387659	0.712126	0.352716
O9	O	0.900104	-0.008254	0.147716
O10	O	1.400104	0.491746	0.647716
O11	O	0.783689	0.108161	0.147669
O12	O	1.283689	0.608161	0.647669
O13	O	1.004067	0.095709	0.147728
O14	O	1.504067	0.595709	0.647728
Cu15	Cu	0.893878	0.101935	0.174631
Cu16	Cu	1.393878	0.601935	0.674631
Cu17	Cu	0.893886	0.101936	-0.174199
Cu18	Cu	1.393886	0.601936	0.325801
O19	O	0.887652	0.212124	0.147681
O20	O	1.387652	0.712124	0.647681
C21	C	0.755495	0.107716	0.000179
C22	C	1.255495	0.607716	0.500179
C23	C	0.671477	0.106377	0.000157
C24	C	1.171477	0.606377	0.500157
C25	C	0.622856	0.174710	0.000147
C26	C	1.122856	0.674710	0.500147
C27	C	0.543913	0.173448	0.000170
C28	C	1.043913	0.673448	0.500170
C29	C	0.513592	0.103852	0.000191
C30	C	1.013592	0.603852	0.500191
C31	C	0.562219	0.035513	0.000207
C32	C	1.062219	0.535513	0.500207
C33	C	0.641161	0.036776	0.000196
C34	C	1.141161	0.536776	0.500196
C35	C	0.243856	0.030418	0.000251
C36	C	0.743856	0.530418	0.500251
C37	C	0.164908	0.029160	0.000256
C38	C	0.664908	0.529160	0.500256
C39	C	0.146608	0.167090	0.000226
C40	C	0.646608	0.667090	0.500226
C41	C	0.225550	0.168353	0.000215
C42	C	0.725550	0.668353	0.500215
C43	C	0.274170	0.100015	0.000240
C44	C	0.774170	0.600015	0.500240
C45	C	0.359769	0.101384	0.000218
C46	C	0.859769	0.601384	0.500218
C47	C	0.427995	0.102481	0.000200
C48	C	0.927995	0.602481	0.500200
C49	C	0.899662	-0.036451	0.000233
C50	C	1.399662	0.463549	0.500233
C51	C	0.898323	-0.120469	0.000234
C52	C	1.398323	0.379531	0.500234
C53	C	0.966656	-0.169090	0.000254
C54	C	1.466656	0.330910	0.500254
C55	C	0.965394	-0.248033	0.000238
C56	C	1.465394	0.251967	0.500238
C57	C	0.895798	-0.278354	0.000214
C58	C	1.395798	0.221646	0.500214
C59	C	0.827459	-0.229727	0.000188
C60	C	1.327459	0.270273	0.500188
C61	C	0.828722	-0.150785	0.000192
C62	C	1.328722	0.349215	0.500192
C63	C	0.822364	-0.548090	0.000173
C64	C	1.322364	-0.048090	0.500173
C65	C	0.821106	-0.627038	0.000175
C66	C	1.321106	-0.127038	0.500175
C67	C	0.959036	-0.645338	0.000219
C68	C	1.459036	-0.145338	0.500219
C69	C	0.960299	-0.566396	0.000223
C70	C	1.460299	-0.066396	0.500223
C71	C	0.891961	-0.517776	0.000187
C72	C	1.391961	-0.017776	0.500187
C73	C	0.893330	-0.432177	0.000201
C74	C	1.393330	0.067823	0.500201
C75	C	0.894427	-0.363951	0.000213
C76	C	1.394427	0.136049	0.500213
C77	C	1.032268	0.096156	0.000249
C78	C	1.532268	0.596156	0.500249
C79	C	1.116286	0.097494	0.000259
C80	C	1.616286	0.597494	0.500259
C81	C	0.888102	0.240322	0.000195
C82	C	1.388102	0.740322	0.500195
C83	C	0.889440	0.324340	0.000183
C84	C	1.389440	0.824340	0.500183
N85	N	0.893877	0.101933	0.419980
N86	N	1.393877	0.601933	0.919980
N87	N	0.893892	0.101932	-0.419548
N88	N	1.393892	0.601932	0.080452
H89	H	0.107012	0.222734	0.000215
H90	H	0.607012	0.722734	0.500215
H91	H	0.647537	0.231384	0.000129
H92	H	1.147537	0.731384	0.500129
H93	H	1.021038	-0.287618	0.000259
H94	H	1.521038	0.212382	0.500259
C95	C	1.043212	-0.135740	0.000287
C96	C	1.543212	0.364260	0.500287
H97	H	1.034180	-0.081761	0.000303
H98	H	1.534180	0.418239	0.500303
H99	H	1.071346	-0.152434	-0.102565
H100	H	1.571346	0.347566	0.397435
H101	H	1.071336	-0.152443	0.103170
H102	H	1.571336	0.347557	0.603170
H103	H	0.250232	0.225025	0.000190
H104	H	0.750232	0.725025	0.500190
H105	H	0.766718	-0.508512	0.000144
H106	H	1.266718	-0.008512	0.500144
H107	H	0.504328	0.229092	0.000160
H108	H	1.004328	0.729092	0.500160
C109	C	0.131557	-0.047400	0.000297
C110	C	0.631557	0.452600	0.500297
H111	H	0.171819	-0.087919	0.000328
H112	H	0.671819	0.412081	0.500328
H113	H	0.101138	-0.050763	-0.102559
H114	H	0.601138	0.449237	0.397441
H115	H	0.101146	-0.050750	0.103175
H116	H	0.601146	0.449250	0.603175
H117	H	0.283434	-0.025228	0.000273
H118	H	0.783434	0.474772	0.500273
H119	H	0.537526	-0.021154	0.000249
H120	H	1.037526	0.478846	0.500249
H121	H	1.016971	-0.541714	0.000251
H122	H	1.516971	-0.041714	0.500251
C123	C	0.694644	-0.038390	0.000190
C124	C	1.194644	0.461610	0.500190
H125	H	0.665282	-0.080021	0.000184
H126	H	1.165282	0.419979	0.500184
H127	H	0.725827	-0.040768	0.103043
H128	H	1.225827	0.459232	0.603043
H129	H	0.725812	-0.040761	-0.102691
H130	H	1.225812	0.459239	0.397309
H131	H	1.014680	-0.684934	0.000239
H132	H	1.514680	-0.184934	0.500239
C133	C	0.744546	-0.660389	0.000125
C134	C	1.244546	-0.160389	0.500125
H135	H	0.704027	-0.620127	0.000084
H136	H	1.204027	-0.120127	0.500084
H137	H	0.741179	-0.690808	0.102981
H138	H	1.241179	-0.190808	0.602981
H139	H	0.741200	-0.690800	-0.102753
H140	H	1.241200	-0.190800	0.397247
H141	H	0.773078	-0.111198	0.000175
H142	H	1.273078	0.388802	0.500175
C143	C	0.750904	-0.263077	0.000167
C144	C	1.250904	0.236923	0.500167
H145	H	0.759938	-0.317056	0.000188
H146	H	1.259938	0.182944	0.500188
H147	H	0.722774	-0.246377	-0.102699
H148	H	1.222774	0.253623	0.397301
H149	H	0.722775	-0.246381	0.103035
H150	H	1.222775	0.253619	0.603035
