data_functionalizedCrystal
_audit_creation_method	'MofGen! by Chris Wilmer'
_symmetry_space_group_name_H-M	'P1'
_symmetry_Int_Tables_number	1
_symmetry_cell_setting	triclinic
loop_
_symmetry_equiv_pos_as_xyz
  x,y,z
_cell_length_a	16.625548
_cell_length_b	21.295417
_cell_length_c	16.625539
_cell_angle_alpha	90.033373
_cell_angle_beta	90.020568
_cell_angle_gamma	90.031575
loop_
_atom_site_label
_atom_site_type_symbol
_atom_site_fract_x
_atom_site_fract_y
_atom_site_fract_z
Zn1	Zn	1.232635	-0.250590	0.455881
Zn2	Zn	1.732635	0.249410	0.955881
Zn3	Zn	1.232520	-0.355864	0.321036
Zn4	Zn	1.732520	0.144136	0.821036
Zn5	Zn	1.097797	-0.250614	0.321061
Zn6	Zn	1.597797	0.249386	0.821061
Zn7	Zn	1.097749	-0.355827	0.455826
Zn8	Zn	1.597749	0.144173	0.955826
O9	O	1.165175	-0.303224	0.388451
O10	O	1.665175	0.196776	0.888451
O11	O	1.345452	-0.264560	0.438006
O12	O	1.845452	0.235440	0.938006
O13	O	1.214620	-0.341927	0.208207
O14	O	1.714620	0.158073	0.708207
O15	O	1.115753	-0.162522	0.338979
O16	O	1.615753	0.337478	0.838979
O17	O	1.345367	-0.341904	0.338936
O18	O	1.845367	0.158096	0.838936
O19	O	1.214818	-0.162504	0.438030
O20	O	1.714818	0.337496	0.938030
O21	O	1.115640	-0.264601	0.208226
O22	O	1.615640	0.235399	0.708226
O23	O	0.984958	-0.264566	0.338926
O24	O	1.484958	0.235434	0.838926
O25	O	1.115670	-0.341842	0.568666
O26	O	1.615670	0.158158	1.068666
O27	O	0.984923	-0.341866	0.437937
O28	O	1.484923	0.158134	0.937937
O29	O	1.214771	-0.264525	0.568706
O30	O	1.714771	0.235475	1.068706
O31	O	1.214573	-0.443948	0.338883
O32	O	1.714573	0.056052	0.838883
O33	O	1.115558	-0.443922	0.437912
O34	O	1.615558	0.056078	0.937912
C35	C	0.955684	-0.303215	0.388429
C36	C	1.455684	0.196785	0.888429
C37	C	0.866063	-0.303226	0.388438
C38	C	1.366063	0.196774	0.888438
C39	C	0.537888	-0.303230	0.388473
C40	C	1.037888	0.196770	0.888473
C41	C	0.629196	-0.303227	0.388460
C42	C	1.129196	0.196773	0.888460
C43	C	0.701973	-0.303229	0.388455
C44	C	1.201973	0.196771	0.888455
C45	C	0.793287	-0.303225	0.388444
C46	C	1.293287	0.196775	0.888444
C47	C	1.165070	-0.466775	0.388407
C48	C	1.665070	0.033225	0.888407
C49	C	1.165098	-0.536744	0.388414
C50	C	1.665098	-0.036744	0.888414
C51	C	1.216701	-0.569603	0.336903
C52	C	1.716701	-0.069603	0.836903
C53	C	1.216739	-0.635346	0.336921
C54	C	1.716739	-0.135346	0.836921
C55	C	1.165159	-0.668226	0.388442
C56	C	1.665159	-0.168226	0.888442
C57	C	1.113552	-0.635359	0.439964
C58	C	1.613552	-0.135359	0.939964
C59	C	1.113522	-0.569617	0.439950
C60	C	1.613522	-0.069617	0.939950
N61	N	1.094624	-0.771493	0.394581
N62	N	1.594624	-0.271493	0.894581
N63	N	1.094656	-0.833944	0.394590
N64	N	1.594656	-0.333944	0.894590
C65	C	1.165250	-0.866301	0.388488
C66	C	1.665250	-0.366301	0.888488
N67	N	1.235813	-0.833847	0.382362
N68	N	1.735813	-0.333847	0.882362
N69	N	1.235780	-0.771389	0.382350
N70	N	1.735780	-0.271389	0.882350
C71	C	1.165187	-0.739511	0.388463
C72	C	1.665187	-0.239511	0.888463
C73	C	1.216898	-0.970446	0.336994
C74	C	1.716898	-0.470446	0.836994
C75	C	1.216937	-1.036189	0.337017
C76	C	1.716937	-0.536189	0.837017
C77	C	1.113743	-1.036201	0.440056
C78	C	1.613743	-0.536201	0.940056
C79	C	1.113711	-0.970459	0.440037
C80	C	1.613711	-0.470459	0.940037
C81	C	1.165288	-0.937585	0.388501
C82	C	1.665288	-0.437585	0.888501
C83	C	1.375484	-0.303233	0.388474
C84	C	1.875484	0.196767	0.888474
C85	C	1.465105	-0.303237	0.388484
C86	C	1.965105	0.196763	0.888484
C87	C	1.165228	-0.303177	0.598760
C88	C	1.665228	0.196823	1.098760
C89	C	1.165250	-0.303157	0.688381
C90	C	1.665250	0.196843	1.188381
C91	C	1.165303	-0.139033	0.388514
C92	C	1.665303	0.360967	0.888514
C93	C	1.165358	-0.069065	0.388540
C94	C	1.665358	0.430935	0.888540
C95	C	1.165169	-0.303225	0.178960
C96	C	1.665169	0.196775	0.678960
C97	C	1.165303	-0.303068	0.089340
C98	C	1.665303	0.196932	0.589340
C99	C	1.165287	-0.303086	1.016557
C100	C	1.665287	0.196914	1.516557
C101	C	1.165275	-0.303108	0.925249
C102	C	1.665275	0.196892	1.425249
C103	C	1.165269	-0.303122	0.852472
C104	C	1.665269	0.196878	1.352472
C105	C	1.165256	-0.303143	0.761158
C106	C	1.665256	0.196857	1.261158
H107	H	1.258764	-0.662105	0.294974
H108	H	1.758764	-0.162105	0.794974
O109	O	1.063752	-1.068201	0.490148
O110	O	1.563752	-0.568201	0.990148
C111	C	1.109649	-1.106150	0.542290
C112	C	1.609649	-0.606150	1.042290
H113	H	1.170774	-1.115973	0.513910
H114	H	1.670774	-0.615973	1.013910
H115	H	1.076823	-1.152397	0.553081
H116	H	1.576823	-0.652397	1.053081
H117	H	1.118465	-1.080770	0.602044
H118	H	1.618465	-0.580770	1.102044
O119	O	1.063559	-0.667365	0.490051
O120	O	1.563559	-0.167365	0.990051
C121	C	1.109454	-0.705319	0.542189
C122	C	1.609454	-0.205319	1.042189
H123	H	1.170579	-0.715141	0.513808
H124	H	1.670579	-0.215141	1.013808
H125	H	1.076626	-0.751566	0.552974
H126	H	1.576626	-0.251566	1.052974
H127	H	1.118270	-0.679943	0.601946
H128	H	1.618270	-0.179943	1.101946
H129	H	1.071500	-0.542862	0.481898
H130	H	1.571500	-0.042862	0.981898
H131	H	1.258897	-0.943679	0.295032
H132	H	1.758897	-0.443679	0.795032
H133	H	1.258964	-1.062943	0.295072
H134	H	1.758964	-0.562943	0.795072
H135	H	1.071688	-0.943703	0.481979
H136	H	1.571688	-0.443703	0.981979
H137	H	1.258700	-0.542839	0.294941
H138	H	1.758700	-0.042839	0.794941
