data_functionalizedCrystal
_audit_creation_method	'MofGen! by Chris Wilmer'
_symmetry_space_group_name_H-M	'P1'
_symmetry_Int_Tables_number	1
_symmetry_cell_setting	triclinic
loop_
_symmetry_equiv_pos_as_xyz
  x,y,z
_cell_length_a	16.959453
_cell_length_b	16.959455
_cell_length_c	19.805399
_cell_angle_alpha	89.976446
_cell_angle_beta	89.972778
_cell_angle_gamma	90.019746
loop_
_atom_site_label
_atom_site_type_symbol
_atom_site_fract_x
_atom_site_fract_y
_atom_site_fract_z
Zn1	Zn	-0.314763	1.208394	-0.382793
Zn2	Zn	0.185237	1.708394	0.117207
Zn3	Zn	-0.446945	1.208303	-0.269606
Zn4	Zn	0.053055	1.708303	0.230394
Zn5	Zn	-0.314778	1.076215	-0.269610
Zn6	Zn	0.185222	1.576215	0.230390
Zn7	Zn	-0.446896	1.076181	-0.382745
Zn8	Zn	0.053104	1.576181	0.117255
O9	O	-0.380845	1.142273	-0.326188
O10	O	0.119155	1.642273	0.173812
O11	O	-0.332311	1.318993	-0.367797
O12	O	0.167689	1.818993	0.132203
O13	O	-0.429440	1.190758	-0.174890
O14	O	0.070560	1.690758	0.325110
O15	O	-0.204165	1.093801	-0.284646
O16	O	0.295835	1.593801	0.215354
O17	O	-0.429425	1.318926	-0.284639
O18	O	0.070575	1.818926	0.215361
O19	O	-0.204154	1.190913	-0.367801
O20	O	0.295846	1.690913	0.132199
O21	O	-0.332337	1.093713	-0.174893
O22	O	0.167663	1.593713	0.325107
O23	O	-0.332289	0.965600	-0.284599
O24	O	0.167711	1.465600	0.215401
O25	O	-0.429342	1.093743	-0.477468
O26	O	0.070658	1.593743	0.022532
O27	O	-0.429356	0.965575	-0.367718
O28	O	0.070644	1.465575	0.132282
O29	O	-0.332264	1.190880	-0.477503
O30	O	0.167736	1.690880	0.022497
O31	O	-0.557550	1.190724	-0.284592
O32	O	-0.057550	1.690724	0.215408
O33	O	-0.557514	1.093655	-0.367714
O34	O	-0.057514	1.593655	0.132286
C35	C	-0.380820	0.936907	-0.326154
C36	C	0.119180	1.436907	0.173846
C37	C	-0.380828	0.849050	-0.326156
C38	C	0.119172	1.349050	0.173844
C39	C	-0.431363	0.477529	-0.282866
C40	C	0.068637	0.977529	0.217134
C41	C	-0.330394	0.477620	-0.369593
C42	C	0.169606	0.977620	0.130407
C43	C	-0.330381	0.560166	-0.369577
C44	C	0.169619	1.060166	0.130423
C45	C	-0.380860	0.601398	-0.326205
C46	C	0.119140	1.101398	0.173795
C47	C	-0.431353	0.560083	-0.282849
C48	C	0.068647	1.060083	0.217151
C49	C	-0.279895	0.601487	-0.412937
C50	C	0.220105	1.101487	0.087063
C51	C	-0.279881	0.684038	-0.412922
C52	C	0.220119	1.184038	0.087078
C53	C	-0.330357	0.725271	-0.369546
C54	C	0.169643	1.225271	0.130454
C55	C	-0.380850	0.683951	-0.326189
C56	C	0.119150	1.183951	0.173811
C57	C	-0.431330	0.725182	-0.282817
C58	C	0.068670	1.225182	0.217183
C59	C	-0.481820	0.683864	-0.239455
C60	C	0.018180	1.183864	0.260545
C61	C	-0.481829	0.601316	-0.239473
C62	C	0.018171	1.101316	0.260527
C63	C	-0.330348	0.807819	-0.369528
C64	C	0.169652	1.307819	0.130472
C65	C	-0.431320	0.807736	-0.282800
C66	C	0.068680	1.307736	0.217200
C67	C	-0.586212	1.142198	-0.326162
C68	C	-0.086212	1.642198	0.173838
C69	C	-0.674068	1.142238	-0.326173
C70	C	-0.174068	1.642238	0.173827
C71	C	-0.715416	1.091738	-0.282848
C72	C	-0.215416	1.591738	0.217152
C73	C	-0.715274	1.192771	-0.369514
C74	C	-0.215274	1.692771	0.130486
C75	C	-0.797820	1.192808	-0.369529
C76	C	-0.297820	1.692808	0.130471
C77	C	-0.839168	1.142308	-0.326203
C78	C	-0.339168	1.642308	0.173797
C79	C	-0.797970	1.091771	-0.282862
C80	C	-0.297970	1.591771	0.217138
C81	C	-0.839024	1.243338	-0.412873
C82	C	-0.339024	1.743338	0.087127
C83	C	-0.921575	1.243377	-0.412890
C84	C	-0.421575	1.743377	0.087110
C85	C	-0.962924	1.192880	-0.369561
C86	C	-0.462924	1.692880	0.130439
C87	C	-0.921721	1.142342	-0.326218
C88	C	-0.421721	1.642342	0.173782
C89	C	-0.963069	1.091842	-0.282892
C90	C	-0.463069	1.591842	0.217108
C91	C	-0.921868	1.041307	-0.239545
C92	C	-0.421868	1.541307	0.260455
C93	C	-0.839319	1.041275	-0.239533
C94	C	-0.339319	1.541275	0.260467
C95	C	-1.045473	1.192912	-0.369573
C96	C	-0.545473	1.692912	0.130427
C97	C	-1.045623	1.091876	-0.282907
C98	C	-0.545623	1.591876	0.217093
C99	C	-0.174677	1.142371	-0.326230
C100	C	0.325323	1.642371	0.173770
C101	C	-0.086821	1.142412	-0.326247
C102	C	0.413179	1.642412	0.173753
C103	C	-0.380796	1.142318	-0.502731
C104	C	0.119204	1.642318	-0.002731
C105	C	-0.380774	1.142337	-0.577963
C106	C	0.119226	1.642337	-0.077963
C107	C	-0.380872	1.348442	-0.326223
C108	C	0.119128	1.848442	0.173777
C109	C	-0.380883	1.436298	-0.326238
C110	C	0.119117	1.936298	0.173762
C111	C	-0.330223	1.192917	-0.613327
C112	C	0.169777	1.692917	-0.113327
C113	C	-0.330200	1.192925	-0.684016
C114	C	0.169800	1.692925	-0.184016
C115	C	-0.380733	1.142356	-0.719339
C116	C	0.119267	1.642356	-0.219339
C117	C	-0.431286	1.091771	-0.683970
C118	C	0.068714	1.591771	-0.183970
C119	C	-0.431305	1.091759	-0.613283
C120	C	0.068695	1.591759	-0.113283
C121	C	-0.431213	1.091815	-0.969043
C122	C	0.068787	1.591815	-0.469043
C123	C	-0.431192	1.091832	-1.039736
C124	C	0.068808	1.591832	-0.539736
C125	C	-0.330108	1.192981	-1.039776
C126	C	0.169892	1.692981	-0.539776
C127	C	-0.330127	1.192969	-0.969089
C128	C	0.169873	1.692969	-0.469089
C129	C	-0.380677	1.142381	-0.933726
C130	C	0.119323	1.642381	-0.433726
C131	C	-0.380700	1.142372	-0.857078
C132	C	0.119300	1.642372	-0.357078
C133	C	-0.380714	1.142369	-0.795986
C134	C	0.119286	1.642369	-0.295986
C135	C	-0.380838	1.142275	-0.150332
C136	C	0.119162	1.642275	0.349668
C137	C	-0.380637	1.142409	-0.075101
C138	C	0.119363	1.642409	0.424899
H139	H	-0.238768	0.717672	-0.448230
H140	H	0.261232	1.217672	0.051770
H141	H	-1.079015	1.234047	-0.404874
H142	H	-0.579015	1.734047	0.095126
N143	N	-0.225457	0.557019	-0.459718
N144	N	0.274543	1.057019	0.040282
H145	H	-0.233123	0.498456	-0.453145
H146	H	0.266877	0.998456	0.046855
H147	H	-0.168987	0.571454	-0.449269
H148	H	0.331013	1.071454	0.050731
N149	N	-0.275904	0.852385	-0.416295
N150	N	0.224096	1.352385	0.083705
H151	H	-0.243931	0.813739	-0.443776
H152	H	0.256069	1.313739	0.056224
H153	H	-0.239275	0.886621	-0.388795
H154	H	0.260725	1.386621	0.111205
H155	H	-0.472424	0.841301	-0.247479
H156	H	0.027576	1.341301	0.252521
N157	N	-0.536292	0.556750	-0.192719
N158	N	-0.036292	1.056750	0.307281
H159	H	-0.568270	0.595393	-0.165239
H160	H	-0.068270	1.095393	0.334761
H161	H	-0.504078	0.522479	-0.161453
H162	H	-0.004078	1.022479	0.338547
N163	N	-0.275626	1.247516	-0.930994
N164	N	0.224374	1.747516	-0.430994
H165	H	-0.219145	1.235268	-0.943303
H166	H	0.280855	1.735268	-0.443303
H167	H	-0.283376	1.239810	-0.880860
H168	H	0.216624	1.739810	-0.380860
N169	N	-0.275662	1.247463	-0.722159
N170	N	0.224338	1.747463	-0.222159
H171	H	-0.243652	1.279495	-0.689056
H172	H	0.256348	1.779495	-0.189056
H173	H	-0.307821	1.284035	-0.751498
H174	H	0.192179	1.784035	-0.251498
N175	N	-1.090217	1.037412	-0.236171
N176	N	-0.590217	1.537412	0.263829
H177	H	-1.051589	1.005398	-0.208711
H178	H	-0.551589	1.505398	0.291289
H179	H	-1.124472	1.000822	-0.263693
H180	H	-0.624472	1.500822	0.236307
H181	H	-0.289300	0.444045	-0.404909
H182	H	0.210700	0.944045	0.095091
N183	N	-0.670672	1.247233	-0.416238
N184	N	-0.170672	1.747233	0.083762
H185	H	-0.684999	1.303724	-0.405780
H186	H	-0.184999	1.803724	0.094220
H187	H	-0.685025	1.234861	-0.464573
H188	H	-0.185025	1.734861	0.035427
H189	H	-0.522925	0.717446	-0.204145
H190	H	-0.022925	1.217446	0.295855
H191	H	-0.955544	1.000186	-0.204273
H192	H	-0.455544	1.500186	0.295727
H193	H	-0.289076	1.234098	-0.584572
H194	H	0.210924	1.734098	-0.084572
N195	N	-0.485706	1.037229	-0.930907
N196	N	0.014294	1.537229	-0.430907
H197	H	-0.517707	1.005191	-0.964013
H198	H	-0.017707	1.505191	-0.464013
H199	H	-0.522308	1.069351	-0.901564
H200	H	-0.022308	1.569351	-0.401564
N201	N	-0.794882	0.986775	-0.192782
N202	N	-0.294882	1.486775	0.307218
H203	H	-0.736314	0.994416	-0.199350
H204	H	-0.236314	1.494416	0.300650
H205	H	-0.809345	0.930320	-0.203265
H206	H	-0.309345	1.430320	0.296735
N207	N	-0.670985	1.037240	-0.236092
N208	N	-0.170985	1.537240	0.263908
H209	H	-0.612416	1.044880	-0.242651
H210	H	-0.112416	1.544880	0.257349
H211	H	-0.685446	0.980784	-0.246575
H212	H	-0.185446	1.480784	0.253425
N213	N	-0.485811	0.432973	-0.236093
N214	N	0.014189	0.932973	0.263907
H215	H	-0.478158	0.374421	-0.242679
H216	H	0.021842	0.874421	0.257321
H217	H	-0.542279	0.447394	-0.246535
H218	H	-0.042279	0.947394	0.253465
N219	N	-0.275582	1.247544	-1.077917
N220	N	0.224418	1.747544	-0.577917
H221	H	-0.283233	1.239879	-1.128057
H222	H	0.216767	1.739879	-0.628057
H223	H	-0.219132	1.235270	-1.065568
H224	H	0.280868	1.735270	-0.565568
N225	N	-0.966026	1.297876	-0.459631
N226	N	-0.466026	1.797876	0.040369
H227	H	-1.000276	1.265736	-0.490967
H228	H	-0.500276	1.765736	0.009033
H229	H	-0.927269	1.329857	-0.487037
H230	H	-0.427269	1.829857	0.012963
N231	N	-0.794419	1.297799	-0.459596
N232	N	-0.294419	1.797799	0.040404
H233	H	-0.808750	1.354290	-0.449142
H234	H	-0.308750	1.854290	0.050858
H235	H	-0.808764	1.285424	-0.507932
H236	H	-0.308764	1.785424	-0.007932
N237	N	-0.485697	1.037288	-1.077837
N238	N	0.014303	1.537288	-0.577837
H239	H	-0.517723	1.005237	-1.044709
H240	H	-0.017723	1.505237	-0.544709
H241	H	-0.453506	1.000735	-1.107166
H242	H	0.046494	1.500735	-0.607166
H243	H	-0.472428	1.050594	-0.712736
H244	H	0.027572	1.550594	-0.212736
N245	N	-0.485820	1.037198	-0.575137
N246	N	0.014180	1.537198	-0.075137
H247	H	-0.517829	1.005163	-0.608239
H248	H	-0.017829	1.505163	-0.108239
H249	H	-0.522413	1.069344	-0.545804
H250	H	-0.022413	1.569344	-0.045804
