data_functionalizedCrystal
_audit_creation_method	'MofGen! by Chris Wilmer'
_symmetry_space_group_name_H-M	'P1'
_symmetry_Int_Tables_number	1
_symmetry_cell_setting	triclinic
loop_
_symmetry_equiv_pos_as_xyz
  x,y,z
_cell_length_a	18.100771
_cell_length_b	13.032831
_cell_length_c	13.032268
_cell_angle_alpha	90.886977
_cell_angle_beta	82.580658
_cell_angle_gamma	96.847532
loop_
_atom_site_label
_atom_site_type_symbol
_atom_site_fract_x
_atom_site_fract_y
_atom_site_fract_z
Zn1	Zn	0.500099	1.494451	-0.784134
Zn2	Zn	1.000099	1.994451	-0.284134
Zn3	Zn	0.610429	1.515305	-0.612882
Zn4	Zn	1.110429	2.015305	-0.112882
Zn5	Zn	0.469164	1.344559	-0.590171
Zn6	Zn	0.969164	1.844559	-0.090171
Zn7	Zn	0.606425	1.321585	-0.762981
Zn8	Zn	1.106425	1.821585	-0.262981
O9	O	0.546529	1.418975	-0.687542
O10	O	1.046529	1.918975	-0.187542
O11	O	0.529356	1.641020	-0.779775
O12	O	1.029356	2.141020	-0.279775
O13	O	0.580419	1.510997	-0.465878
O14	O	1.080419	2.010997	0.034122
O15	O	0.369650	1.365329	-0.615249
O16	O	0.869650	1.865329	-0.115249
O17	O	0.610415	1.656341	-0.653957
O18	O	1.110415	2.156341	-0.153957
O19	O	0.392377	1.475455	-0.757753
O20	O	0.892377	1.975455	-0.257753
O21	O	0.476632	1.385550	-0.449193
O22	O	0.976632	1.885550	0.050807
O23	O	0.472750	1.197708	-0.594737
O24	O	0.972750	1.697708	-0.094737
O25	O	0.603591	1.326174	-0.909778
O26	O	1.103591	1.826174	-0.409778
O27	O	0.573595	1.180830	-0.721700
O28	O	1.073595	1.680830	-0.221700
O29	O	0.525474	1.453178	-0.925319
O30	O	1.025474	1.953178	-0.425319
O31	O	0.713516	1.488720	-0.633445
O32	O	1.213516	1.988720	-0.133445
O33	O	0.710574	1.346395	-0.743722
O34	O	1.210574	1.846395	-0.243722
C35	C	0.519382	1.151982	-0.653459
C36	C	1.019382	1.651982	-0.153459
C37	C	0.507788	1.037759	-0.638903
C38	C	1.007788	1.537759	-0.138903
C39	C	0.353395	1.420629	-0.686327
C40	C	0.853395	1.920629	-0.186327
C41	C	0.271093	1.421333	-0.685809
C42	C	0.771093	1.921333	-0.185809
C43	C	0.552580	0.978522	-0.695139
C44	C	1.052580	1.478522	-0.195139
C45	C	0.540599	0.860465	-0.680096
C46	C	1.040599	1.360465	-0.180096
C47	C	-0.028038	1.418285	-0.688166
C48	C	0.471962	1.918285	-0.188166
C49	C	0.017588	1.487585	-0.777811
C50	C	0.517588	1.987585	-0.277811
C51	C	0.103227	1.488799	-0.776944
C52	C	0.603227	1.988799	-0.276944
C53	C	0.120364	1.419797	-0.686997
C54	C	0.620364	1.919797	-0.186997
C55	C	0.082613	1.462698	-0.582574
C56	C	0.582613	1.962698	-0.082574
C57	C	-0.002950	1.462341	-0.583784
C58	C	0.497050	1.962341	-0.083784
C59	C	-0.004190	1.306332	-0.701718
C60	C	0.495810	1.806332	-0.201718
C61	C	0.081733	1.307473	-0.703511
C62	C	0.581733	1.807473	-0.203511
C63	C	0.204234	1.420651	-0.686330
C64	C	0.704234	1.920651	-0.186330
C65	C	-0.111909	1.417434	-0.688826
C66	C	0.388091	1.917434	-0.188826
C67	C	0.738917	1.417353	-0.688778
C68	C	1.238917	1.917353	-0.188778
C69	C	0.821233	1.416748	-0.689354
C70	C	1.321233	1.916748	-0.189354
C71	C	0.567537	1.384787	-0.955928
C72	C	1.067537	1.884787	-0.455928
C73	C	0.576489	1.370219	-1.070298
C74	C	1.076489	1.870219	-0.570298
C75	C	0.573783	1.687010	-0.721759
C76	C	1.073783	2.187010	-0.221759
C77	C	0.585397	1.801230	-0.736340
C78	C	1.085397	2.301230	-0.236340
C79	C	0.541829	1.426563	-1.128977
C80	C	1.041829	1.926563	-0.628977
C81	C	0.551080	1.411507	-1.247185
C82	C	1.051080	1.911507	-0.747185
C83	C	0.525556	1.453089	-0.420208
C84	C	1.025556	1.953089	0.079792
C85	C	0.516416	1.467858	-0.305862
C86	C	1.016416	1.967858	0.194138
H87	H	0.599797	1.015207	-0.754425
H88	H	1.099797	1.515207	-0.254425
H89	H	0.460567	1.001072	-0.579625
H90	H	0.960567	1.501072	-0.079625
H91	H	0.505303	1.485943	-1.091702
H92	H	1.005303	1.985943	-0.591702
Cl93	Cl	0.460034	1.559566	-1.248331
Cl94	Cl	0.960034	2.059566	-0.748331
H95	H	0.587600	1.352111	-1.284454
H96	H	1.087600	1.852111	-0.784454
H97	H	-0.034146	1.414820	-0.515436
H98	H	0.465854	1.914820	-0.015436
Cl99	Cl	0.467687	0.803839	-0.588566
Cl100	Cl	0.967687	1.303839	-0.088566
Cl101	Cl	0.632875	1.278525	-1.127838
Cl102	Cl	1.132875	1.778525	-0.627838
H103	H	0.002293	1.458905	-0.856301
H104	H	0.502293	1.958905	-0.356301
Cl105	Cl	0.658295	0.857852	-0.827891
Cl106	Cl	1.158295	1.357852	-0.327891
H107	H	-0.021551	1.269452	-0.776170
H108	H	0.478449	1.769452	-0.276170
Cl109	Cl	0.143808	1.444975	-0.897214
Cl110	Cl	0.643808	1.944975	-0.397214
Cl111	Cl	0.143997	1.617123	-0.764289
Cl112	Cl	0.643997	2.117123	-0.264289
Cl113	Cl	-0.006556	1.614494	-0.765932
Cl114	Cl	0.493444	2.114494	-0.265932
Cl115	Cl	0.123833	1.589119	-0.560944
Cl116	Cl	0.623833	2.089119	-0.060944
Cl117	Cl	-0.025515	1.589372	-0.563474
Cl118	Cl	0.474485	2.089372	-0.063474
H119	H	0.092477	1.414821	-0.514225
H120	H	0.592477	1.914821	-0.014225
H121	H	0.106907	1.275342	-0.780310
H122	H	0.606907	1.775342	-0.280310
H123	H	0.092674	1.252428	-0.641535
H124	H	0.592674	1.752428	-0.141535
Cl125	Cl	-0.051736	1.226399	-0.600618
Cl126	Cl	0.448264	1.726399	-0.100618
