data_functionalizedCrystal
_audit_creation_method	'MofGen! by Chris Wilmer'
_symmetry_space_group_name_H-M	'P1'
_symmetry_Int_Tables_number	1
_symmetry_cell_setting	triclinic
loop_
_symmetry_equiv_pos_as_xyz
  x,y,z
_cell_length_a	8.634740
_cell_length_b	15.944564
_cell_length_c	7.088929
_cell_angle_alpha	83.774337
_cell_angle_beta	82.825047
_cell_angle_gamma	87.962879
loop_
_atom_site_label
_atom_site_type_symbol
_atom_site_fract_x
_atom_site_fract_y
_atom_site_fract_z
O1	O	2.030282	-0.281216	0.159000
O2	O	1.581326	-0.258252	0.159003
O3	O	1.818056	-0.148450	0.158983
O4	O	1.793553	-0.391018	0.159020
O5	O	1.849692	-0.133737	-0.158995
O6	O	1.612962	-0.243539	-0.158975
O7	O	2.061919	-0.266503	-0.158978
Cu8	Cu	1.840329	-0.253678	-0.188010
Cu9	Cu	1.802916	-0.271078	0.188036
O10	O	1.825189	-0.376305	-0.158958
C11	C	1.539693	-0.245693	0.000015
C12	C	1.368507	-0.230182	0.000015
C13	C	1.832854	-0.109717	-0.000006
C14	C	1.829794	-0.016224	-0.000008
C15	C	1.675738	0.211093	0.000017
C16	C	1.762861	0.273578	-0.156766
C17	C	1.824258	0.154948	0.000005
C18	C	1.731704	0.259053	0.156735
C19	C	1.818898	0.320292	0.000026
C20	C	1.911434	0.216207	-0.156908
C21	C	1.880243	0.201671	0.156734
C22	C	1.967478	0.264131	-0.000087
C23	C	1.827341	0.059697	-0.000009
C24	C	1.815827	0.415541	0.000026
C25	C	2.103551	-0.279062	0.000015
C26	C	2.274736	-0.294574	0.000027
C27	C	1.810370	0.584962	0.000034
C28	C	1.813366	0.491469	0.000041
N29	N	1.866656	-0.241440	-0.452500
N30	N	1.776602	-0.283310	0.452526
H31	H	1.317820	-0.163189	0.000055
O32	O	1.334981	-0.374557	0.000296
C33	C	1.336770	-0.514882	0.165118
C34	C	1.268394	-0.424342	0.165027
H35	H	1.282988	-0.555154	0.298309
H36	H	1.309349	-0.542949	0.032144
H37	H	1.468698	-0.513553	0.165020
H38	H	1.136458	-0.425597	0.165192
H39	H	1.295938	-0.396311	0.297989
H40	H	2.090867	0.287312	-0.000177
H41	H	1.683271	-0.326697	-0.465820
H42	H	1.552481	0.187765	-0.000138
H43	H	1.713230	0.304901	-0.289313
H44	H	1.960004	-0.198056	-0.534164
H45	H	1.929819	0.170330	0.289288
H46	H	1.655679	0.278080	0.289292
O47	O	2.001953	0.193491	-0.315156
C48	C	2.106459	0.079337	-0.492641
C49	C	2.003885	0.104948	-0.313369
H50	H	2.108081	0.007748	-0.491236
H51	H	2.056859	0.109613	-0.626153
H52	H	2.230476	0.101695	-0.493187
H53	H	1.879846	0.082595	-0.312639
H54	H	2.053612	0.074682	-0.179939
