data_functionalizedCrystal
_audit_creation_method	'MofGen! by Chris Wilmer'
_symmetry_space_group_name_H-M	'P1'
_symmetry_Int_Tables_number	1
_symmetry_cell_setting	triclinic
loop_
_symmetry_equiv_pos_as_xyz
  x,y,z
_cell_length_a	19.188930
_cell_length_b	27.732048
_cell_length_c	17.666332
_cell_angle_alpha	89.988553
_cell_angle_beta	89.976766
_cell_angle_gamma	82.893716
loop_
_atom_site_label
_atom_site_type_symbol
_atom_site_fract_x
_atom_site_fract_y
_atom_site_fract_z
O1	O	0.925765	0.060348	-0.063200
O2	O	1.425765	0.560348	0.436800
O3	O	0.722402	0.068472	-0.063149
O4	O	1.222402	0.568472	0.436851
O5	O	0.830399	-0.005968	-0.063161
O6	O	1.330399	0.494032	0.436839
O7	O	0.817767	0.134787	-0.063187
O8	O	1.317767	0.634787	0.436813
O9	O	0.830380	-0.005971	0.062735
O10	O	1.330380	0.494029	0.562735
O11	O	0.722383	0.068468	0.062748
O12	O	1.222383	0.568468	0.562748
O13	O	0.925746	0.060344	0.062697
O14	O	1.425746	0.560344	0.562697
Cu15	Cu	0.824063	0.064406	0.074218
Cu16	Cu	1.324063	0.564406	0.574218
Cu17	Cu	0.824085	0.064410	-0.074670
Cu18	Cu	1.324085	0.564410	0.425330
O19	O	0.817748	0.134783	0.062710
O20	O	1.317748	0.634783	0.562710
C21	C	0.696383	0.068207	-0.000194
C22	C	1.196383	0.568207	0.499806
C23	C	0.618883	0.067417	-0.000174
C24	C	1.118883	0.567417	0.499826
C25	C	0.573681	0.111096	-0.000194
C26	C	1.073681	0.611096	0.499806
C27	C	0.500862	0.110354	-0.000202
C28	C	1.000862	0.610354	0.499798
C29	C	0.473249	0.065931	-0.000205
C30	C	0.973249	0.565931	0.499795
C31	C	0.518461	0.022246	-0.000181
C32	C	1.018461	0.522246	0.499819
C33	C	0.591278	0.022990	-0.000165
C34	C	1.091278	0.522990	0.499835
N35	N	0.365491	0.031976	-0.043078
N36	N	0.865491	0.531976	0.456922
N37	N	0.296317	0.031273	-0.043094
N38	N	0.796317	0.531273	0.456906
C39	C	0.253854	0.063689	-0.000251
C40	C	0.753854	0.563689	0.499749
N41	N	0.283177	0.096841	0.042600
N42	N	0.783177	0.596841	0.542600
N43	N	0.352357	0.097546	0.042613
N44	N	0.852357	0.597546	0.542613
C45	C	0.394291	0.065120	-0.000222
C46	C	0.894291	0.565120	0.499778
C47	C	0.129692	0.106566	-0.000279
C48	C	0.629692	0.606566	0.499721
C49	C	0.056872	0.105822	-0.000282
C50	C	0.556872	0.605822	0.499718
C51	C	0.074473	0.017714	-0.000269
C52	C	0.574473	0.517714	0.499731
C53	C	0.147292	0.018459	-0.000258
C54	C	0.647292	0.518459	0.499742
C55	C	0.174897	0.062886	-0.000267
C56	C	0.674897	0.562886	0.499733
C57	C	0.830125	-0.023977	-0.000211
C58	C	1.330125	0.476023	0.499789
C59	C	0.829326	-0.077635	-0.000204
C60	C	1.329326	0.422365	0.499796
C61	C	0.888119	-0.416270	-0.000258
C62	C	1.388119	0.083730	0.499742
C63	C	0.885157	-0.617939	-0.000268
C64	C	1.385157	-0.117939	0.499732
O65	O	0.938918	-0.649030	-0.000314
O66	O	1.438918	-0.149030	0.499686
N67	N	0.821118	-0.637258	-0.000251
N68	N	1.321118	-0.137258	0.499749
C69	C	0.757816	-0.606157	-0.000237
C70	C	1.257816	-0.106157	0.499763
O71	O	0.703280	-0.627217	-0.000231
O72	O	1.203280	-0.127217	0.499769
C73	C	0.760780	-0.404489	-0.000233
C74	C	1.260780	0.095511	0.499767
C75	C	0.824822	-0.385173	-0.000242
C76	C	1.324822	0.114827	0.499758
C77	C	0.952156	-0.396953	-0.000268
C78	C	1.452156	0.103047	0.499732
C79	C	0.952896	-0.346539	-0.000261
C80	C	1.452896	0.153461	0.499739
C81	C	0.889599	-0.315441	-0.000245
C82	C	1.389599	0.184559	0.499755
C83	C	0.825562	-0.334759	-0.000235
C84	C	1.325562	0.165241	0.499765
C85	C	0.697478	-0.373389	-0.000224
C86	C	1.197478	0.126611	0.499776
C87	C	0.698225	-0.322969	-0.000225
C88	C	1.198225	0.177031	0.499775
C89	C	0.762267	-0.303653	-0.000234
C90	C	1.262267	0.196347	0.499766
C91	C	0.763005	-0.253247	-0.000212
C92	C	1.263005	0.246753	0.499788
N93	N	0.827043	-0.233928	-0.000229
N94	N	1.327043	0.266072	0.499771
C95	C	0.890340	-0.265025	-0.000245
C96	C	1.390340	0.234975	0.499755
C97	C	0.756265	-0.712036	-0.000238
C98	C	1.256265	-0.212036	0.499762
C99	C	0.755524	-0.762452	-0.000238
C100	C	1.255524	-0.262452	0.499762
C101	C	0.882865	-0.774231	-0.000270
C102	C	1.382865	-0.274231	0.499730
C103	C	0.883605	-0.723813	-0.000265
C104	C	1.383605	-0.223813	0.499735
C105	C	0.820303	-0.692716	-0.000254
C106	C	1.320303	-0.192716	0.499746
C107	C	0.891889	-0.159151	-0.000231
C108	C	1.391889	0.340849	0.499769
C109	C	0.892623	-0.108732	-0.000221
C110	C	1.392623	0.391268	0.499779
C111	C	0.765283	-0.096958	-0.000193
C112	C	1.265283	0.403042	0.499807
C113	C	0.764549	-0.147373	-0.000198
C114	C	1.264549	0.352627	0.499802
C115	C	0.827857	-0.178468	-0.000220
C116	C	1.327857	0.321532	0.499780
O117	O	0.709272	-0.222127	-0.000174
O118	O	1.209272	0.277873	0.499826
O119	O	0.944868	-0.243956	-0.000268
O120	O	1.444868	0.256044	0.499732
C121	C	0.887379	-0.466684	-0.000265
C122	C	1.387379	0.033316	0.499735
C123	C	0.823342	-0.486001	-0.000255
C124	C	1.323342	0.013999	0.499745
C125	C	0.760045	-0.454904	-0.000238
C126	C	1.260045	0.045096	0.499762
C127	C	0.822601	-0.536418	-0.000254
C128	C	1.322601	-0.036418	0.499746
C129	C	0.885898	-0.567515	-0.000271
C130	C	1.385898	-0.067515	0.499729
C131	C	0.949936	-0.548195	-0.000288
C132	C	1.449936	-0.048195	0.499712
C133	C	0.950676	-0.497781	-0.000281
C134	C	1.450676	0.002219	0.499719
C135	C	0.696007	-0.474223	-0.000222
C136	C	1.196007	0.025777	0.499778
C137	C	0.695272	-0.524638	-0.000227
C138	C	1.195272	-0.024638	0.499773
C139	C	0.758569	-0.555735	-0.000244
C140	C	1.258569	-0.055735	0.499756
C141	C	0.951765	0.060609	-0.000260
C142	C	1.451765	0.560609	0.499740
C143	C	1.029264	0.061399	-0.000285
C144	C	1.529264	0.561399	0.499715
C145	C	0.818023	0.152793	-0.000243
C146	C	1.318023	0.652793	0.499757
C147	C	0.818821	0.206450	-0.000254
C148	C	1.318821	0.706450	0.499746
N149	N	0.824052	0.064402	0.178937
N150	N	1.324052	0.564402	0.678937
N151	N	0.824101	0.064410	-0.179389
N152	N	1.324101	0.564410	0.320611
C153	C	0.871889	0.031456	0.218541
C154	C	1.371889	0.531456	0.718541
C155	C	0.871893	0.031454	0.297789
C156	C	1.371893	0.531454	0.797789
C157	C	0.824067	0.064406	0.337429
C158	C	1.324067	0.564406	0.837429
C159	C	0.776221	0.097354	0.297816
C160	C	1.276221	0.597354	0.797816
C161	C	0.776214	0.097352	0.218570
C162	C	1.276214	0.597352	0.718570
N163	N	0.814718	0.107196	0.461842
N164	N	1.314718	0.607196	0.961842
N165	N	0.814729	0.107196	0.537122
N166	N	1.314729	0.607196	1.037122
C167	C	0.824085	0.064412	0.576193
C168	C	1.324085	0.564412	1.076193
N169	N	0.833444	0.021627	0.537140
N170	N	1.333444	0.521627	1.037140
N171	N	0.833436	0.021628	0.461853
N172	N	1.333436	0.521628	0.961853
C173	C	0.824069	0.064411	0.423359
C174	C	1.324069	0.564411	0.923359
C175	C	0.871929	0.031462	0.701727
C176	C	1.371929	0.531462	1.201727
C177	C	0.871928	0.031459	0.780976
C178	C	1.371928	0.531459	1.280976
C179	C	0.776260	0.097363	0.781001
C180	C	1.276260	0.597363	1.281001
C181	C	0.776257	0.097361	0.701754
C182	C	1.276257	0.597361	1.201754
C183	C	0.824096	0.064411	0.662121
C184	C	1.324096	0.564411	1.162121
H185	H	0.184097	-0.017109	-0.000246
H186	H	0.684097	0.482891	0.499754
H187	H	0.737307	0.124191	0.669506
H188	H	1.237307	0.624191	1.169506
H189	H	0.737259	0.124181	0.186323
H190	H	1.237259	0.624181	0.686323
H191	H	0.934404	-0.799559	-0.000283
H192	H	1.434404	-0.299559	0.499717
H193	H	0.051991	-0.018456	-0.000319
H194	H	0.551991	0.481544	0.499681
C195	C	0.962231	-0.087854	-0.000273
C196	C	1.462231	0.412146	0.499727
C197	C	1.017503	-0.125883	-0.000312
C198	C	1.517503	0.374117	0.499688
C199	C	1.081632	-0.106671	-0.000372
C200	C	1.581632	0.393329	0.499628
H201	H	0.965263	-0.068446	0.043619
H202	H	1.465263	0.431554	0.543619
H203	H	0.965211	-0.068439	-0.044193
H204	H	1.465211	0.431561	0.455807
H205	H	1.014523	-0.145290	0.043603
H206	H	1.514523	0.354710	0.543603
H207	H	1.014493	-0.145294	-0.044201
H208	H	1.514493	0.354706	0.455799
H209	H	1.084613	-0.087256	-0.044291
H210	H	1.584613	0.412744	0.455709
H211	H	1.084657	-0.087263	0.043521
H212	H	1.584657	0.412737	0.543521
H213	H	1.119142	-0.132470	-0.000405
H214	H	1.619142	0.367530	0.499595
C215	C	0.960602	-0.192930	-0.000405
C216	C	1.460602	0.307070	0.499595
C217	C	0.963927	-0.222201	-0.065189
C218	C	1.463927	0.277799	0.434811
C219	C	1.027217	-0.253320	-0.065375
C220	C	1.527217	0.246680	0.434625
H221	H	0.963023	-0.212895	0.043444
H222	H	1.463023	0.287105	0.543444
H223	H	0.998861	-0.174216	-0.000450
H224	H	1.498861	0.325784	0.499550
H225	H	0.925678	-0.240914	-0.065137
H226	H	1.425678	0.259086	0.434863
H227	H	0.961518	-0.202250	-0.109049
H228	H	1.461518	0.297750	0.390951
H229	H	1.065477	-0.234606	-0.065420
H230	H	1.565477	0.265394	0.434580
H231	H	1.029633	-0.273281	-0.021523
H232	H	1.529633	0.226719	0.478477
H233	H	1.029485	-0.273181	-0.109333
H234	H	1.529485	0.226819	0.390667
C235	C	0.724327	0.133207	0.340752
C236	C	1.224327	0.633207	0.840752
C237	C	0.735115	0.180689	0.321434
C238	C	1.235115	0.680689	0.821434
C239	C	0.687312	0.213729	0.360962
C240	C	1.187312	0.713729	0.860962
H241	H	0.731131	0.128560	0.393632
H242	H	1.231131	0.628560	0.893632
H243	H	0.677774	0.128064	0.327776
H244	H	1.177774	0.628064	0.827776
H245	H	0.781657	0.185830	0.334415
H246	H	1.281657	0.685830	0.834415
H247	H	0.728305	0.185352	0.268560
H248	H	1.228305	0.685352	0.768560
H249	H	0.640759	0.208585	0.347986
H250	H	1.140759	0.708585	0.847986
H251	H	0.694120	0.209076	0.413841
H252	H	1.194120	0.709076	0.913841
H253	H	0.694621	0.245948	0.347856
H254	H	1.194621	0.745948	0.847856
C255	C	0.627873	-0.394258	-0.000257
C256	C	1.127873	0.105742	0.499743
C257	C	0.572608	-0.356225	-0.000267
C258	C	1.072608	0.143775	0.499733
C259	C	0.508473	-0.375430	-0.000309
C260	C	1.008473	0.124570	0.499691
H261	H	0.624819	-0.413680	0.043632
H262	H	1.124819	0.086320	0.543632
H263	H	0.624905	-0.413659	-0.044180
H264	H	1.124905	0.086341	0.455820
H265	H	0.575574	-0.336832	0.043651
H266	H	1.075574	0.163168	0.543651
H267	H	0.575638	-0.336801	-0.044153
H268	H	1.075638	0.163199	0.455847
H269	H	0.505505	-0.394831	-0.044232
H270	H	1.005505	0.105169	0.455768
H271	H	0.505426	-0.394851	0.043580
H272	H	1.005426	0.105149	0.543580
H273	H	0.470968	-0.349627	-0.000323
H274	H	0.970968	0.150373	0.499677
C275	C	0.923852	-0.004375	0.175650
C276	C	1.423852	0.495625	0.675650
C277	C	0.965734	-0.033237	0.227302
C278	C	1.465734	0.466763	0.727302
C279	C	1.013602	-0.066256	0.187817
C280	C	1.513602	0.433744	0.687817
H281	H	0.952790	0.012905	0.144708
H282	H	1.452790	0.512905	0.644708
H283	H	0.898970	-0.024483	0.144776
H284	H	1.398970	0.475517	0.644776
H285	H	0.990614	-0.013132	0.258163
H286	H	1.490614	0.486868	0.758163
H287	H	0.936815	-0.050528	0.258245
H288	H	1.436815	0.449472	0.758245
H289	H	0.988720	-0.086364	0.156943
H290	H	1.488720	0.413636	0.656943
H291	H	1.042535	-0.048971	0.156876
H292	H	1.542535	0.451029	0.656876
H293	H	1.042020	-0.085846	0.222856
H294	H	1.542020	0.414154	0.722856
C295	C	1.022501	-0.325665	-0.000317
C296	C	1.522501	0.174335	0.499683
C297	C	1.077768	-0.363697	-0.000354
C298	C	1.577768	0.136303	0.499646
C299	C	1.141901	-0.344491	-0.000418
C300	C	1.641901	0.155509	0.499582
H301	H	1.025538	-0.306255	0.043573
H302	H	1.525538	0.193745	0.543573
H303	H	1.025484	-0.306251	-0.044239
H304	H	1.525484	0.193749	0.455761
H305	H	1.074786	-0.383102	0.043563
H306	H	1.574786	0.116898	0.543563
H307	H	1.074754	-0.383109	-0.044241
H308	H	1.574754	0.116891	0.455759
H309	H	1.144884	-0.325077	-0.044339
H310	H	1.644884	0.174923	0.455661
H311	H	1.144930	-0.325082	0.043473
H312	H	1.644930	0.174918	0.543473
H313	H	1.179407	-0.370292	-0.000450
H314	H	1.679407	0.129708	0.499550
H315	H	1.003703	-0.422268	-0.000284
H316	H	1.503703	0.077732	0.499716
H317	H	0.704714	-0.686720	-0.000229
H318	H	1.204714	-0.186720	0.499771
H319	H	0.495974	-0.013923	-0.000195
H320	H	0.995974	0.486077	0.499805
H321	H	0.628083	-0.012580	-0.000150
H322	H	1.128083	0.487420	0.499850
C323	C	0.953209	-0.702937	-0.000322
C324	C	1.453209	-0.202937	0.499678
C325	C	1.008478	-0.740967	-0.000354
C326	C	1.508478	-0.240967	0.499646
C327	C	1.072609	-0.721758	-0.000420
C328	C	1.572609	-0.221758	0.499580
H329	H	0.956243	-0.683525	0.043566
H330	H	1.456243	-0.183525	0.543566
H331	H	0.956191	-0.683526	-0.044246
H332	H	1.456191	-0.183526	0.455754
H333	H	1.005497	-0.760371	0.043565
H334	H	1.505497	-0.260371	0.543565
H335	H	1.005467	-0.760382	-0.044239
H336	H	1.505467	-0.260382	0.455761
H337	H	1.075591	-0.702347	-0.044344
H338	H	1.575591	-0.202347	0.455656
H339	H	1.075637	-0.702347	0.043468
H340	H	1.575637	-0.202347	0.543468
H341	H	1.110117	-0.747559	-0.000449
H342	H	1.610117	-0.247559	0.499551
C343	C	0.923837	-0.004391	0.823880
C344	C	1.423837	0.495609	1.323880
C345	C	0.913051	-0.051873	0.804609
C346	C	1.413051	0.448127	1.304609
C347	C	0.960864	-0.084910	0.844109
C348	C	1.460864	0.415090	1.344109
H349	H	0.917042	0.000259	0.876764
H350	H	1.417042	0.500259	1.376764
H351	H	0.970387	0.000755	0.810849
H352	H	1.470387	0.500755	1.310849
H353	H	0.866512	-0.057017	0.817645
H354	H	1.366512	0.442983	1.317645
H355	H	0.919852	-0.056538	0.751731
H356	H	1.419852	0.443462	1.251731
H357	H	1.007414	-0.079764	0.831079
H358	H	1.507414	0.420236	1.331079
H359	H	0.954065	-0.080256	0.896992
H360	H	1.454065	0.419744	1.396992
H361	H	0.953557	-0.117130	0.831035
H362	H	1.453557	0.382870	1.331035
C363	C	0.685920	-0.783327	-0.000258
C364	C	1.185920	-0.283327	0.499742
C365	C	0.630651	-0.745297	-0.000265
C366	C	1.130651	-0.245297	0.499735
C367	C	0.566519	-0.764506	-0.000298
C368	C	1.066519	-0.264506	0.499702
H369	H	0.682872	-0.802748	0.043633
H370	H	1.182872	-0.302748	0.543633
H371	H	0.682951	-0.802730	-0.044179
H372	H	1.182951	-0.302730	0.455821
H373	H	0.633618	-0.725903	0.043652
H374	H	1.133618	-0.225903	0.543652
H375	H	0.633675	-0.725873	-0.044152
H376	H	1.133675	-0.225873	0.455848
H377	H	0.563550	-0.783909	-0.044219
H378	H	1.063550	-0.283909	0.455781
H379	H	0.563479	-0.783927	0.043593
H380	H	1.063479	-0.283927	0.543593
H381	H	0.529011	-0.738706	-0.000310
H382	H	1.029011	-0.238706	0.499690
H383	H	0.644461	-0.448908	-0.000210
H384	H	1.144461	0.051092	0.499790
H385	H	0.737317	0.124191	0.813276
H386	H	1.237317	0.624191	1.313276
C387	C	0.629516	-0.289184	-0.000367
C388	C	1.129516	0.210816	0.499633
C389	C	0.626223	-0.259894	-0.065144
C390	C	1.126223	0.240106	0.434856
C391	C	0.562937	-0.228771	-0.065304
C392	C	1.062937	0.271229	0.434696
H393	H	0.627080	-0.269232	0.043487
H394	H	1.127080	0.230768	0.543487
H395	H	0.591253	-0.307895	-0.000403
H396	H	1.091253	0.192105	0.499597
H397	H	0.664476	-0.241185	-0.065101
H398	H	1.164476	0.258815	0.434899
H399	H	0.628648	-0.279833	-0.109009
H400	H	1.128648	0.220167	0.390991
H401	H	0.524674	-0.247482	-0.065340
H402	H	1.024674	0.252518	0.434660
H403	H	0.560506	-0.208823	-0.021448
H404	H	1.060506	0.291177	0.478552
H405	H	0.560692	-0.208897	-0.109258
H406	H	1.060692	0.291103	0.390742
H407	H	0.152169	0.142741	-0.000275
H408	H	0.652169	0.642741	0.499725
H409	H	0.910880	0.004630	0.669457
H410	H	1.410880	0.504630	1.169457
H411	H	0.910848	0.004625	0.330041
H412	H	1.410848	0.504625	0.830041
C413	C	0.694946	-0.168254	-0.000225
C414	C	1.194946	0.331746	0.499775
C415	C	0.639672	-0.130227	-0.000226
C416	C	1.139672	0.369773	0.499774
C417	C	0.575544	-0.149440	-0.000272
C418	C	1.075544	0.350560	0.499728
H419	H	0.691899	-0.187680	0.043659
H420	H	1.191899	0.312320	0.543659
H421	H	0.691982	-0.187652	-0.044153
H422	H	1.191982	0.312348	0.455847
H423	H	0.642635	-0.110837	0.043696
H424	H	1.142635	0.389163	0.543696
H425	H	0.642697	-0.110798	-0.044108
H426	H	1.142697	0.389202	0.455892
H427	H	0.572580	-0.168838	-0.044199
H428	H	1.072580	0.331162	0.455801
H429	H	0.572504	-0.168866	0.043614
H430	H	1.072504	0.331134	0.543614
H431	H	0.538034	-0.123642	-0.000279
H432	H	1.038034	0.376358	0.499721
H433	H	0.713749	-0.071630	-0.000177
H434	H	1.213749	0.428370	0.499823
C435	C	0.451806	0.157793	-0.000387
C436	C	0.951806	0.657793	0.499613
C437	C	0.464234	0.184542	-0.065174
C438	C	0.964234	0.684542	0.434826
C439	C	0.419053	0.228242	-0.065377
C440	C	0.919053	0.728242	0.434623
H441	H	0.460052	0.176077	0.043461
H442	H	0.960052	0.676077	0.543461
H443	H	0.404475	0.151006	-0.000438
H444	H	0.904475	0.651006	0.499562
H445	H	0.511554	0.191331	-0.065115
H446	H	1.011554	0.691331	0.434885
H447	H	0.455983	0.166273	-0.109031
H448	H	0.955983	0.666273	0.390969
H449	H	0.371722	0.221455	-0.065428
H450	H	0.871722	0.721455	0.434572
H451	H	0.427303	0.246522	-0.021527
H452	H	0.927303	0.746522	0.478473
H453	H	0.427475	0.246394	-0.109337
H454	H	0.927475	0.746394	0.390663
C455	C	1.018638	-0.581988	-0.000465
C456	C	1.518638	-0.081988	0.499535
C457	C	1.021940	-0.611255	-0.065251
C458	C	1.521940	-0.111255	0.434749
C459	C	1.085217	-0.642388	-0.065450
C460	C	1.585217	-0.142388	0.434550
H461	H	1.021056	-0.601954	0.043383
H462	H	1.521056	-0.101954	0.543383
H463	H	1.056909	-0.563283	-0.000514
H464	H	1.556909	-0.063283	0.499486
H465	H	0.983679	-0.629958	-0.065195
H466	H	1.483679	-0.129958	0.434805
H467	H	1.019534	-0.591302	-0.109109
H468	H	1.519534	-0.091302	0.390891
H469	H	1.123488	-0.623684	-0.065499
H470	H	1.623488	-0.123684	0.434501
H471	H	1.087629	-0.662351	-0.021599
H472	H	1.587629	-0.162351	0.478401
H473	H	1.087468	-0.662247	-0.109409
H474	H	1.587468	-0.162247	0.390591
C475	C	1.020281	-0.476907	-0.000336
C476	C	1.520281	0.023093	0.499664
C477	C	1.075548	-0.514940	-0.000372
C478	C	1.575548	-0.014940	0.499628
C479	C	1.139681	-0.495733	-0.000434
C480	C	1.639681	0.004267	0.499566
H481	H	1.023317	-0.457498	0.043555
H482	H	1.523317	0.042502	0.543555
H483	H	1.023265	-0.457494	-0.044257
H484	H	1.523265	0.042506	0.455743
H485	H	1.072566	-0.534345	0.043545
H486	H	1.572566	-0.034345	0.543545
H487	H	1.072535	-0.534352	-0.044259
H488	H	1.572535	-0.034352	0.455741
H489	H	1.142665	-0.476320	-0.044355
H490	H	1.642665	0.023680	0.455645
H491	H	1.142710	-0.476324	0.043457
H492	H	1.642710	0.023676	0.543457
H493	H	1.177187	-0.521535	-0.000466
H494	H	1.677187	-0.021535	0.499534
H495	H	0.596152	0.147272	-0.000202
H496	H	1.096152	0.647272	0.499798
H497	H	0.020068	0.141392	-0.000294
H498	H	0.520068	0.641392	0.499706
C499	C	0.625662	-0.545513	-0.000256
C500	C	1.125662	-0.045513	0.499744
C501	C	0.570393	-0.507482	-0.000262
C502	C	1.070393	-0.007482	0.499738
C503	C	0.506262	-0.526691	-0.000306
C504	C	1.006262	-0.026691	0.499694
H505	H	0.622612	-0.564936	0.043631
H506	H	1.122612	-0.064936	0.543631
H507	H	0.622697	-0.564912	-0.044181
H508	H	1.122697	-0.064912	0.455819
H509	H	0.573357	-0.488091	0.043659
H510	H	1.073357	0.011909	0.543659
H511	H	0.573421	-0.488055	-0.044145
H512	H	1.073421	0.011945	0.455855
H513	H	0.503296	-0.546091	-0.044231
H514	H	1.003296	-0.046091	0.455769
H515	H	0.503218	-0.546115	0.043582
H516	H	1.003218	-0.046115	0.543582
H517	H	0.468754	-0.500891	-0.000317
H518	H	0.968754	-0.000891	0.499683
