data_functionalizedCrystal
_audit_creation_method	'MofGen! by Chris Wilmer'
_symmetry_space_group_name_H-M	'P1'
_symmetry_Int_Tables_number	1
_symmetry_cell_setting	triclinic
loop_
_symmetry_equiv_pos_as_xyz
  x,y,z
_cell_length_a	16.959455
_cell_length_b	11.169416
_cell_length_c	11.169409
_cell_angle_alpha	90.030874
_cell_angle_beta	89.977953
_cell_angle_gamma	89.992713
loop_
_atom_site_label
_atom_site_type_symbol
_atom_site_fract_x
_atom_site_fract_y
_atom_site_fract_z
Zn1	Zn	1.208498	0.477808	-0.678626
Zn2	Zn	1.708498	0.977808	-0.178626
Zn3	Zn	1.208425	0.678548	-0.477948
Zn4	Zn	1.708425	1.178548	0.022052
Zn5	Zn	1.076308	0.477867	-0.477953
Zn6	Zn	1.576308	0.977867	0.022047
Zn7	Zn	1.076313	0.678437	-0.678585
Zn8	Zn	1.576313	1.178437	-0.178585
O9	O	1.142386	0.578165	-0.578278
O10	O	1.642386	1.078165	-0.078278
O11	O	1.319099	0.504458	-0.652021
O12	O	1.819099	1.004458	-0.152021
O13	O	1.190867	0.651999	-0.309999
O14	O	1.690867	1.151999	0.190001
O15	O	1.093872	0.309909	-0.504591
O16	O	1.593872	0.809909	-0.004591
O17	O	1.319045	0.651941	-0.504584
O18	O	1.819045	1.151941	-0.004584
O19	O	1.190991	0.309866	-0.652025
O20	O	1.690991	0.809866	-0.152025
O21	O	1.093801	0.504559	-0.310002
O22	O	1.593801	1.004559	0.189998
O23	O	0.965698	0.504451	-0.504552
O24	O	1.465698	1.004451	-0.004552
O25	O	1.093880	0.651751	-0.846540
O26	O	1.593880	1.151751	-0.346540
O27	O	0.965702	0.651809	-0.651956
O28	O	1.465702	1.151809	-0.151956
O29	O	1.190996	0.504350	-0.846570
O30	O	1.690996	1.004350	-0.346570
O31	O	1.190871	0.846483	-0.504544
O32	O	1.690871	1.346483	-0.004544
O33	O	1.093810	0.846401	-0.651951
O34	O	1.593810	1.346401	-0.151951
C35	C	0.937020	0.578125	-0.578250
C36	C	1.437020	1.078125	-0.078250
C37	C	0.849163	0.578137	-0.578267
C38	C	1.349163	1.078137	-0.078267
C39	C	1.142355	0.889990	-0.578269
C40	C	1.642355	1.389990	-0.078269
C41	C	1.142413	1.023390	-0.578305
C42	C	1.642413	1.523390	-0.078305
C43	C	1.142439	0.265123	-0.578313
C44	C	1.642439	0.765123	-0.078313
C45	C	1.142461	0.131723	-0.578329
C46	C	1.642461	0.631723	-0.078329
C47	C	0.477661	0.501373	-0.501685
C48	C	0.977661	1.001373	-0.001685
C49	C	0.477714	0.655056	-0.654940
C50	C	0.977714	1.155056	-0.154940
C51	C	0.560260	0.655039	-0.654932
C52	C	1.060260	1.155039	-0.154932
C53	C	0.601510	0.578189	-0.578299
C54	C	1.101510	1.078189	-0.078299
C55	C	0.560215	0.501356	-0.501673
C56	C	1.060215	1.001356	-0.001673
C57	C	0.601561	0.731878	-0.731548
C58	C	1.101561	1.231878	-0.231548
C59	C	0.684112	0.731865	-0.731543
C60	C	1.184112	1.231865	-0.231543
C61	C	0.725364	0.655008	-0.654915
C62	C	1.225364	1.155008	-0.154915
C63	C	0.684064	0.578172	-0.578287
C64	C	1.184064	1.078172	-0.078287
C65	C	0.725314	0.501322	-0.501653
C66	C	1.225314	1.001322	-0.001653
C67	C	0.684015	0.424478	-0.425030
C68	C	1.184015	0.924478	0.074970
C69	C	0.601467	0.424499	-0.425045
C70	C	1.101467	0.924499	0.074955
C71	C	0.807913	0.654987	-0.654901
C72	C	1.307913	1.154987	-0.154901
C73	C	0.807868	0.501305	-0.501641
C74	C	1.307868	1.001305	-0.001641
C75	C	1.348554	0.578206	-0.578306
C76	C	1.848554	1.078206	-0.078306
C77	C	1.436411	0.578223	-0.578318
C78	C	1.936411	1.078223	-0.078318
C79	C	1.142447	0.578032	-0.891321
C80	C	1.642447	1.078032	-0.391321
C81	C	1.142472	0.577975	-1.024721
C82	C	1.642472	1.077975	-0.524721
C83	C	1.142371	0.578211	-0.266453
C84	C	1.642371	1.078211	0.233547
C85	C	1.142498	0.577930	-0.133054
C86	C	1.642498	1.077930	0.366946
H87	H	0.841448	0.438716	-0.439243
H88	H	1.341448	0.938716	0.060757
H89	H	0.444123	0.717630	-0.717324
H90	H	0.944123	1.217630	-0.217324
O91	O	0.433120	0.418494	-0.419049
O92	O	0.933120	0.918494	0.080951
H93	H	0.475675	0.365050	-0.365768
H94	H	0.975675	0.865050	0.134232
O95	O	0.852447	0.737847	-0.737557
O96	O	1.352447	1.237847	-0.237557
H97	H	0.890068	0.684177	-0.798700
H98	H	1.390068	1.184177	-0.298700
H99	H	0.717731	0.794435	-0.793935
H100	H	1.217731	1.294435	-0.293935
O101	O	0.557074	0.814761	-0.814202
O102	O	1.057074	1.314761	-0.314202
H103	H	0.492735	0.801849	-0.801348
H104	H	0.992735	1.301849	-0.301348
H105	H	0.717612	0.361912	-0.362630
H106	H	1.217612	0.861912	0.137370
H107	H	0.567834	0.361938	-0.362661
H108	H	1.067834	0.861938	0.137339
