data_functionalizedCrystal
_audit_creation_method	'MofGen! by Chris Wilmer'
_symmetry_space_group_name_H-M	'P1'
_symmetry_Int_Tables_number	1
_symmetry_cell_setting	triclinic
loop_
_symmetry_equiv_pos_as_xyz
  x,y,z
_cell_length_a	14.044220
_cell_length_b	19.288865
_cell_length_c	18.366186
_cell_angle_alpha	89.987206
_cell_angle_beta	89.993826
_cell_angle_gamma	91.837437
loop_
_atom_site_label
_atom_site_type_symbol
_atom_site_fract_x
_atom_site_fract_y
_atom_site_fract_z
O1	O	1.256984	-0.167415	0.060488
O2	O	1.756984	0.332585	0.560488
O3	O	0.981040	-0.161373	0.060506
O4	O	1.481040	0.338627	0.560506
O5	O	1.126986	-0.063776	0.060482
O6	O	1.626986	0.436224	0.560482
O7	O	1.111039	-0.265012	0.060512
O8	O	1.611039	0.234988	0.560512
O9	O	1.126989	-0.063766	-0.060617
O10	O	1.626989	0.436234	0.439383
O11	O	0.981044	-0.161363	-0.060593
O12	O	1.481044	0.338637	0.439407
O13	O	1.256987	-0.167404	-0.060611
O14	O	1.756987	0.332596	0.439389
Zn15	Zn	1.119016	-0.164382	-0.079829
Zn16	Zn	1.619016	0.335618	0.420171
Zn17	Zn	1.119012	-0.164396	0.079724
Zn18	Zn	1.619012	0.335604	0.579724
O19	O	1.111042	-0.265002	-0.060587
O20	O	1.611042	0.234998	0.439413
C21	C	0.945739	-0.158724	-0.000041
C22	C	1.445739	0.341276	0.499959
C23	C	0.840547	-0.150836	-0.000035
C24	C	1.340547	0.349164	0.499965
N25	N	1.119009	-0.164400	0.188616
N26	N	1.619009	0.335600	0.688616
C27	C	1.126474	-0.037862	-0.000069
C28	C	1.626474	0.462138	0.499931
C29	C	1.124934	0.039341	-0.000076
C30	C	1.624934	0.539341	0.499924
C31	C	0.647947	-0.136416	-0.000052
C32	C	1.147947	0.363584	0.499948
C33	C	0.590075	-0.192359	-0.000047
C34	C	1.090075	0.307641	0.499953
C35	C	0.482906	-0.184335	-0.000056
C36	C	0.982906	0.315665	0.499944
C37	C	0.755126	-0.144438	-0.000043
C38	C	1.255126	0.355562	0.499957
C39	C	1.292289	-0.170054	-0.000062
C40	C	1.792289	0.329946	0.499938
C41	C	1.397481	-0.177942	-0.000063
C42	C	1.897481	0.322058	0.499937
C43	C	1.111554	-0.290916	-0.000034
C44	C	1.611554	0.209084	0.499966
C45	C	1.113094	-0.368119	-0.000023
C46	C	1.613094	0.131881	0.499977
C47	C	1.210568	0.078535	-0.000085
C48	C	1.710568	0.578535	0.499915
C49	C	1.209121	0.151075	-0.000073
C50	C	1.709121	0.651075	0.499927
C51	C	1.122035	0.184418	-0.000067
C52	C	1.622035	0.684418	0.499933
C53	C	1.036390	0.145215	-0.000054
C54	C	1.536390	0.645215	0.499946
C55	C	1.037839	0.072676	-0.000058
C56	C	1.537839	0.572676	0.499942
C57	C	1.053576	0.297108	-0.042481
C58	C	1.553576	0.797108	0.457519
C59	C	1.052130	0.369645	-0.042481
C60	C	1.552130	0.869645	0.457519
C61	C	1.117560	0.408151	-0.000051
C62	C	1.617560	0.908151	0.499949
C63	C	1.184453	0.374112	0.042371
C64	C	1.684453	0.874112	0.542371
C65	C	1.185902	0.301573	0.042367
C66	C	1.685902	0.801573	0.542367
C67	C	1.120453	0.263074	-0.000062
C68	C	1.620453	0.763074	0.499938
C69	C	1.201631	0.526002	-0.000046
C70	C	1.701631	1.026002	0.499954
C71	C	1.200181	0.598543	-0.000030
C72	C	1.700181	1.098543	0.499970
C73	C	1.027447	0.592681	-0.000018
C74	C	1.527447	1.092681	0.499982
C75	C	1.028900	0.520142	-0.000027
C76	C	1.528900	1.020142	0.499973
C77	C	1.115995	0.486806	-0.000044
C78	C	1.615995	0.986806	0.499956
N79	N	1.119026	-0.164373	-0.188720
N80	N	1.619026	0.335627	0.311280
C81	C	1.183748	-0.121283	0.226705
C82	C	1.683748	0.378717	0.726705
C83	C	1.183757	-0.121282	0.302933
C84	C	1.683757	0.378718	0.802933
C85	C	1.119009	-0.164390	0.341068
C86	C	1.619009	0.335610	0.841068
C87	C	1.054265	-0.207515	0.302969
C88	C	1.554265	0.292485	0.802969
C89	C	1.054265	-0.207520	0.226743
C90	C	1.554265	0.292480	0.726743
C91	C	1.032667	-0.167987	0.461842
C92	C	1.532667	0.332013	0.961842
C93	C	1.032666	-0.167978	0.538067
C94	C	1.532666	0.332022	1.038067
C95	C	1.119010	-0.164380	0.576176
C96	C	1.619010	0.335620	1.076176
C97	C	1.205359	-0.160777	0.538051
C98	C	1.705359	0.339223	1.038051
C99	C	1.205359	-0.160781	0.461824
C100	C	1.705359	0.339219	0.961824
C101	C	1.119003	-0.164390	0.423723
C102	C	1.619003	0.335610	0.923723
C103	C	1.183764	-0.121260	0.696921
C104	C	1.683764	0.378740	1.196921
C105	C	1.183773	-0.121264	0.773150
C106	C	1.683773	0.378736	1.273150
C107	C	1.054273	-0.207493	0.773184
C108	C	1.554273	0.292507	1.273184
C109	C	1.054272	-0.207493	0.696957
C110	C	1.554272	0.292507	1.196957
C111	C	1.119016	-0.164373	0.658829
C112	C	1.619016	0.335627	1.158829
H113	H	0.621016	-0.246280	-0.000035
H114	H	1.121016	0.253720	0.499965
H115	H	1.281487	0.051398	-0.000097
H116	H	1.781487	0.551398	0.499903
H117	H	1.001551	-0.242600	0.665942
H118	H	1.501551	0.257400	1.165942
H119	H	0.617008	-0.082499	-0.000064
H120	H	1.117008	0.417501	0.499936
Cl121	Cl	1.316783	0.200358	-0.000084
Cl122	Cl	1.816783	0.700358	0.499916
Cl123	Cl	1.269985	0.258782	0.095699
Cl124	Cl	1.769985	0.758782	0.595699
Cl125	Cl	1.266712	0.422511	0.095718
Cl126	Cl	1.766712	0.922511	0.595718
Cl127	Cl	1.311119	0.484091	-0.000072
Cl128	Cl	1.811119	0.984091	0.499928
Cl129	Cl	0.972884	-0.261692	0.821120
Cl130	Cl	1.472884	0.238308	1.321120
Cl131	Cl	1.307845	0.647817	-0.000036
Cl132	Cl	1.807845	1.147817	0.499964
H133	H	1.236477	-0.086170	0.333952
H134	H	1.736477	0.413830	0.833952
H135	H	0.956540	0.619828	-0.000009
H136	H	1.456540	1.119828	0.499991
H137	H	0.968103	0.040764	-0.000051
H138	H	1.468103	0.540764	0.499949
Cl139	Cl	1.265144	-0.067080	0.178774
Cl140	Cl	1.765144	0.432920	0.678774
H141	H	0.959167	0.488229	-0.000023
H142	H	1.459167	0.988229	0.499977
H143	H	0.997659	0.397354	-0.077019
H144	H	1.497659	0.897354	0.422981
H145	H	1.001546	-0.242632	0.195730
H146	H	1.501546	0.257368	0.695730
Cl147	Cl	1.313907	-0.156259	0.413898
Cl148	Cl	1.813907	0.343741	0.913898
H149	H	1.000293	0.265762	-0.077037
H150	H	1.500293	0.765762	0.422963
Cl151	Cl	0.926910	0.187131	-0.000040
Cl152	Cl	1.426910	0.687131	0.499960
Cl153	Cl	1.313914	-0.156248	0.585950
Cl154	Cl	1.813914	0.343752	1.085950
Cl155	Cl	1.265161	-0.067056	0.648988
Cl156	Cl	1.765161	0.432944	1.148988
H157	H	1.236497	-0.086155	0.804163
H158	H	1.736497	0.413845	1.304163
Cl159	Cl	0.924116	-0.172569	0.585988
Cl160	Cl	1.424116	0.327431	1.085988
Cl161	Cl	0.924108	-0.172514	0.413941
Cl162	Cl	1.424108	0.327486	0.913941
Cl163	Cl	0.972872	-0.261712	0.350909
Cl164	Cl	1.472872	0.238288	0.850909
