data_functionalizedCrystal
_audit_creation_method	'MofGen! by Chris Wilmer'
_symmetry_space_group_name_H-M	'P1'
_symmetry_Int_Tables_number	1
_symmetry_cell_setting	triclinic
loop_
_symmetry_equiv_pos_as_xyz
  x,y,z
_cell_length_a	17.699083
_cell_length_b	16.992695
_cell_length_c	16.176319
_cell_angle_alpha	89.993125
_cell_angle_beta	89.998611
_cell_angle_gamma	86.975619
loop_
_atom_site_label
_atom_site_type_symbol
_atom_site_fract_x
_atom_site_fract_y
_atom_site_fract_z
O1	O	1.010252	0.099146	-0.068631
O2	O	1.510252	0.599146	0.431369
O3	O	0.790676	0.112045	-0.068658
O4	O	1.290676	0.612045	0.431342
O5	O	0.899584	-0.008546	-0.068638
O6	O	1.399584	0.491454	0.431362
O7	O	0.901344	0.219736	-0.068651
O8	O	1.401344	0.719736	0.431349
O9	O	0.899567	-0.008553	0.068855
O10	O	1.399567	0.491447	0.568855
O11	O	0.790660	0.112037	0.068835
O12	O	1.290660	0.612037	0.568835
O13	O	1.010235	0.099138	0.068862
O14	O	1.510235	0.599138	0.568862
Cu15	Cu	0.900446	0.105587	0.081403
Cu16	Cu	1.400446	0.605587	0.581403
Cu17	Cu	0.900465	0.105596	-0.081199
Cu18	Cu	1.400465	0.605596	0.418801
O19	O	0.901328	0.219729	0.068842
O20	O	1.401328	0.719729	0.568842
C21	C	0.762442	0.111579	0.000085
C22	C	1.262442	0.611579	0.500085
C23	C	0.678338	0.110192	0.000075
C24	C	1.178338	0.610192	0.500075
C25	C	0.634124	0.180976	0.000071
C26	C	1.134124	0.680976	0.500071
C27	C	0.555099	0.179669	0.000082
C28	C	1.055099	0.679669	0.500082
C29	C	0.520290	0.107576	0.000091
C30	C	1.020290	0.607576	0.500091
C31	C	0.564510	0.036787	0.000097
C32	C	1.064510	0.536787	0.500097
C33	C	0.643533	0.038095	0.000092
C34	C	1.143533	0.538095	0.500092
C35	C	0.245818	0.031509	0.000118
C36	C	0.745818	0.531509	0.500118
C37	C	0.166789	0.030206	0.000120
C38	C	0.666789	0.530206	0.500120
C39	C	0.157384	0.173082	0.000108
C40	C	0.657384	0.673082	0.500108
C41	C	0.236408	0.174391	0.000103
C42	C	0.736408	0.674391	0.500103
C43	C	0.280621	0.103602	0.000113
C44	C	0.780621	0.603602	0.500113
C45	C	0.366308	0.105020	0.000103
C46	C	0.866308	0.605020	0.500103
C47	C	0.434604	0.106157	0.000095
C48	C	0.934604	0.606157	0.500095
C49	C	0.897311	-0.037758	0.000108
C50	C	1.397311	0.462242	0.500108
C51	C	0.890554	-0.124789	0.000107
C52	C	1.390554	0.375211	0.500107
C53	C	0.955751	-0.175154	0.000116
C54	C	1.455751	0.324846	0.500116
C55	C	0.949398	-0.256928	0.000107
C56	C	1.449398	0.243072	0.500107
C57	C	0.877846	-0.288336	0.000096
C58	C	1.377846	0.211664	0.500096
C59	C	0.812643	-0.237965	0.000084
C60	C	1.312643	0.262035	0.500084
C61	C	0.818998	-0.156192	0.000087
C62	C	1.318998	0.343808	0.500087
C63	C	0.851510	-0.531884	0.000081
C64	C	1.351510	-0.031884	0.500081
C65	C	0.845160	-0.613663	0.000081
C66	C	1.345160	-0.113663	0.500081
C67	C	0.981915	-0.632621	0.000102
C68	C	1.481915	-0.132621	0.500102
C69	C	0.988263	-0.550845	0.000110
C70	C	1.488263	-0.050845	0.500110
C71	C	0.923061	-0.500481	0.000094
C72	C	1.423061	-0.000481	0.500094
N73	N	0.871350	-0.371923	0.000090
N74	N	1.371350	0.128077	0.500090
N75	N	0.929558	-0.416897	0.000095
N76	N	1.429558	0.083103	0.500095
C77	C	1.038469	0.099604	0.000117
C78	C	1.538469	0.599604	0.500117
C79	C	1.122574	0.100991	0.000122
C80	C	1.622574	0.600991	0.500122
C81	C	0.903601	0.248941	0.000094
C82	C	1.403601	0.748941	0.500094
C83	C	0.910358	0.335972	0.000090
C84	C	1.410358	0.835972	0.500090
N85	N	0.900438	0.105580	0.195768
N86	N	1.400438	0.605580	0.695768
N87	N	0.900479	0.105597	-0.195564
N88	N	1.400479	0.605597	0.304436
C89	C	0.948679	0.052204	0.239041
C90	C	1.448679	0.552204	0.739041
C91	C	0.948683	0.052203	0.325588
C92	C	1.448683	0.552203	0.825588
C93	C	0.900449	0.105583	0.368861
C94	C	1.400449	0.605583	0.868861
C95	C	0.852202	0.158961	0.325582
C96	C	1.352202	0.658961	0.825582
C97	C	0.852195	0.158957	0.239036
C98	C	1.352195	0.658957	0.739036
C99	C	0.852229	0.158976	0.674610
C100	C	1.352229	0.658976	1.174610
C101	C	0.852242	0.158977	0.761161
C102	C	1.352242	0.658977	1.261161
C103	C	0.948717	0.052222	0.761162
C104	C	1.448717	0.552222	1.261162
C105	C	0.948709	0.052218	0.674617
C106	C	1.448709	0.552218	1.174617
C107	C	0.900461	0.105593	0.631345
C108	C	1.400461	0.605593	1.131345
C109	C	0.900456	0.105593	0.537501
C110	C	1.400456	0.605593	1.037501
C111	C	0.900457	0.105588	0.462703
C112	C	1.400457	0.605588	0.962703
H113	H	0.519103	0.237308	0.000078
H114	H	1.019103	0.737308	0.500078
O115	O	0.288795	-0.037230	0.000264
O116	O	0.788795	0.462770	0.500264
C117	C	0.383511	-0.118664	0.071463
C118	C	0.883511	0.381336	0.571463
C119	C	0.334866	-0.040794	0.071413
C120	C	0.834866	0.459206	0.571413
H121	H	0.420783	-0.121564	0.128972
H122	H	0.920783	0.378436	0.628972
H123	H	0.345094	-0.170446	0.071517
H124	H	0.845094	0.329554	0.571517
H125	H	0.420706	-0.121607	0.013893
H126	H	0.920706	0.378393	0.513893
H127	H	0.297664	-0.037775	0.128973
H128	H	0.797664	0.462225	0.628973
H129	H	0.373326	0.010951	0.071316
H130	H	0.873326	0.510951	0.571316
H131	H	1.034999	-0.673635	0.000114
H132	H	1.534999	-0.173635	0.500114
O133	O	0.775592	-0.644044	0.000024
O134	O	1.275592	-0.144044	0.500024
C135	C	0.640620	-0.616616	0.000033
C136	C	1.140620	-0.116616	0.500033
C137	C	0.719352	-0.582105	0.000079
C138	C	1.219352	-0.082105	0.500079
H139	H	0.595128	-0.566556	0.000095
H140	H	1.095128	-0.066556	0.500095
H141	H	0.634194	-0.654393	-0.057523
H142	H	1.134194	-0.154393	0.442477
H143	H	0.634254	-0.654460	0.057558
H144	H	1.134254	-0.154460	0.557558
H145	H	0.725772	-0.544226	-0.057407
H146	H	1.225772	-0.044226	0.442593
H147	H	0.725742	-0.544374	0.057673
H148	H	1.225742	-0.044374	0.557673
O149	O	0.995452	0.000228	0.197066
O150	O	1.495452	0.500228	0.697066
C151	C	1.031563	-0.136174	0.170706
C152	C	1.531563	0.363826	0.670706
C153	C	0.978535	-0.077383	0.218264
C154	C	1.478535	0.422617	0.718264
H155	H	1.017916	-0.198934	0.187840
H156	H	1.517916	0.301066	0.687840
H157	H	1.023286	-0.127101	0.101401
H158	H	1.523286	0.372899	0.601401
H159	H	1.092790	-0.126002	0.187713
H160	H	1.592790	0.373998	0.687713
H161	H	0.917289	-0.087520	0.201327
H162	H	1.417289	0.412480	0.701327
H163	H	0.986878	-0.086470	0.287558
H164	H	1.486878	0.413530	0.787558
O165	O	0.755610	-0.107344	-0.000031
O166	O	1.255610	0.392656	0.499969
C167	C	0.640707	-0.066075	-0.071309
C168	C	1.140707	0.433925	0.428691
C169	C	0.712455	-0.121452	-0.071263
C170	C	1.212455	0.378548	0.428737
H171	H	0.605804	-0.077450	-0.128903
H172	H	1.105804	0.422550	0.371097
H173	H	0.605676	-0.077490	-0.013814
H174	H	1.105676	0.422510	0.486186
H175	H	0.657558	-0.002242	-0.071268
H176	H	1.157558	0.497758	0.428732
H177	H	0.695672	-0.185305	-0.071333
H178	H	1.195672	0.314695	0.428667
H179	H	0.747468	-0.109969	-0.128753
H180	H	1.247468	0.390031	0.371247
H181	H	0.798417	-0.490887	0.000069
H182	H	1.298417	0.009113	0.500069
O183	O	0.805418	0.210784	0.367742
O184	O	1.305418	0.710784	0.867742
C185	C	0.762642	0.258077	0.501067
C186	C	1.262642	0.758077	1.001067
C187	C	0.815674	0.199354	0.453426
C188	C	1.315674	0.699354	0.953426
H189	H	0.770903	0.248845	0.570351
H190	H	1.270903	0.748845	1.070351
H191	H	0.776297	0.320877	0.484097
H192	H	1.276297	0.820877	0.984097
H193	H	0.701418	0.247946	0.484012
H194	H	1.201418	0.747946	0.984012
H195	H	0.876915	0.209413	0.470455
H196	H	1.376915	0.709413	0.970455
H197	H	0.801953	0.136575	0.470400
H198	H	1.301953	0.636575	0.970400
H199	H	0.138450	-0.028504	0.000128
H200	H	0.638450	0.471496	0.500128
H201	H	0.812912	0.202420	0.203804
H202	H	1.312912	0.702420	0.703804
H203	H	0.987964	0.008741	0.360821
H204	H	1.487964	0.508741	0.860821
O205	O	0.270311	0.244370	0.000197
O206	O	0.770311	0.744370	0.500197
C207	C	0.354050	0.328782	0.071426
C208	C	0.854050	0.828782	0.571426
C209	C	0.315716	0.249497	0.071415
C210	C	0.815716	0.749497	0.571415
H211	H	0.390755	0.332960	0.129008
H212	H	0.890755	0.832960	0.629008
H213	H	0.390857	0.332972	0.013919
H214	H	0.890857	0.832972	0.513919
H215	H	0.308865	0.379142	0.071383
H216	H	0.808865	0.879142	0.571383
H217	H	0.360849	0.199092	0.071487
H218	H	0.860849	0.699092	0.571487
H219	H	0.278892	0.245376	0.128917
H220	H	0.778892	0.745376	0.628917
O221	O	0.530735	-0.033265	0.000250
O222	O	1.030735	0.466735	0.500250
C223	C	0.514637	-0.155812	0.071460
C224	C	1.014637	0.344188	0.571460
C225	C	0.552919	-0.076497	0.071404
C226	C	1.052919	0.423503	0.571404
H227	H	0.532571	-0.190795	0.128973
H228	H	1.032571	0.309205	0.628973
H229	H	0.450556	-0.144639	0.071512
H230	H	0.950556	0.355361	0.571512
H231	H	0.532486	-0.190746	0.013894
H232	H	1.032486	0.309254	0.513894
H233	H	0.535131	-0.041523	0.128960
H234	H	1.035131	0.458477	0.628960
H235	H	0.616993	-0.087727	0.071309
H236	H	1.116993	0.412273	0.571309
O237	O	0.114467	0.241870	-0.000041
O238	O	0.614467	0.741870	0.499959
C239	C	0.082281	0.363613	-0.071261
C240	C	0.582281	0.863613	0.428739
C241	C	0.130913	0.285735	-0.071201
C242	C	0.630913	0.785735	0.428799
H243	H	0.095572	0.399107	-0.128778
H244	H	0.595572	0.899107	0.371222
H245	H	0.019809	0.350345	-0.071305
H246	H	0.519809	0.850345	0.428695
H247	H	0.095496	0.399065	-0.013700
H248	H	0.595496	0.899065	0.486300
H249	H	0.117764	0.250244	-0.128752
H250	H	0.617764	0.750244	0.371248
H251	H	0.193371	0.299058	-0.071113
H252	H	0.693371	0.799058	0.428887
H253	H	0.662460	0.239682	0.000064
H254	H	1.162460	0.739682	0.500064
H255	H	0.679531	-0.019545	0.000095
H256	H	1.179531	0.480455	0.500095
H257	H	1.014017	-0.149588	0.000131
H258	H	1.514017	0.350412	0.500131
O259	O	0.743095	-0.268379	0.000181
O260	O	1.243095	0.231621	0.500181
C261	C	0.624273	-0.277234	0.071416
C262	C	1.124273	0.222766	0.571416
C263	C	0.703007	-0.242728	0.071399
C264	C	1.203007	0.257272	0.571399
H265	H	0.591845	-0.256522	0.128999
H266	H	1.091845	0.243478	0.628999
H267	H	0.591763	-0.256450	0.013909
H268	H	1.091763	0.243550	0.513909
H269	H	0.630946	-0.344330	0.071378
H270	H	1.130946	0.155670	0.571378
H271	H	0.696404	-0.175632	0.071466
H272	H	1.196404	0.324368	0.571466
H273	H	0.735490	-0.263573	0.128901
H274	H	1.235490	0.236427	0.628901
H275	H	1.002489	-0.297933	0.000117
H276	H	1.502489	0.202067	0.500117
H277	H	1.046528	-0.525279	0.000120
H278	H	1.546528	-0.025279	0.500120
O279	O	0.995587	0.000289	0.632711
O280	O	1.495587	0.500289	1.132711
C281	C	1.091309	-0.105574	0.641848
C282	C	1.591309	0.394426	1.141848
C283	C	1.038248	-0.046816	0.689407
C284	C	1.538248	0.453184	1.189407
H285	H	1.125826	-0.143663	0.687666
H286	H	1.625826	0.356337	1.187666
H287	H	1.056300	-0.144753	0.601364
H288	H	1.556300	0.355247	1.101364
H289	H	1.131123	-0.071761	0.601295
H290	H	1.631123	0.428239	1.101295
H291	H	0.998424	-0.080565	0.730005
H292	H	1.498424	0.419435	1.230005
H293	H	1.073305	-0.007638	0.729838
H294	H	1.573305	0.492362	1.229838
O295	O	0.805308	0.210857	0.803070
O296	O	1.305308	0.710857	1.303070
C297	C	0.709634	0.316768	0.793941
C298	C	1.209634	0.816768	1.293941
C299	C	0.762731	0.258049	0.746378
C300	C	1.262731	0.758049	1.246378
H301	H	0.675208	0.354949	0.748126
H302	H	1.175208	0.854949	1.248126
H303	H	0.669744	0.283002	0.834450
H304	H	1.169744	0.783002	1.334450
H305	H	0.744687	0.355862	0.834470
H306	H	1.244687	0.855862	1.334470
H307	H	0.727739	0.218940	0.705804
H308	H	1.227739	0.718940	1.205804
H309	H	0.802623	0.291864	0.705921
H310	H	1.302623	0.791864	1.205921
H311	H	0.812945	0.202437	0.639385
H312	H	1.312945	0.702437	1.139385
H313	H	0.988001	0.008758	0.796403
H314	H	1.488001	0.508758	1.296403
