data_functionalizedCrystal
_audit_creation_method	'MofGen! by Chris Wilmer'
_symmetry_space_group_name_H-M	'P1'
_symmetry_Int_Tables_number	1
_symmetry_cell_setting	triclinic
loop_
_symmetry_equiv_pos_as_xyz
  x,y,z
_cell_length_a	14.519731
_cell_length_b	10.967870
_cell_length_c	13.596369
_cell_angle_alpha	102.133670
_cell_angle_beta	90.006374
_cell_angle_gamma	95.788657
loop_
_atom_site_label
_atom_site_type_symbol
_atom_site_fract_x
_atom_site_fract_y
_atom_site_fract_z
O1	O	1.224674	-0.163706	-0.109540
O2	O	1.558008	0.169627	0.223793
O3	O	1.891341	0.502960	0.557126
O4	O	0.956298	-0.182942	-0.112802
O5	O	1.289631	0.150391	0.220531
O6	O	1.622965	0.483725	0.553865
O7	O	1.096679	0.008313	-0.080379
O8	O	1.430013	0.341646	0.252955
O9	O	1.763346	0.674979	0.586288
O10	O	1.084293	-0.354961	-0.141964
O11	O	1.417626	-0.021628	0.191370
O12	O	1.750960	0.311706	0.524703
O13	O	1.096697	0.008323	0.083206
O14	O	1.430030	0.341656	0.416539
O15	O	1.763363	0.674990	0.749873
O16	O	0.956315	-0.182931	0.050783
O17	O	1.289649	0.150402	0.384116
O18	O	1.622982	0.483735	0.717449
O19	O	1.224692	-0.163696	0.054044
O20	O	1.558025	0.169638	0.387378
O21	O	1.891358	0.502971	0.720711
Zn22	Zn	1.090506	-0.173312	0.078386
Zn23	Zn	1.423840	0.160021	0.411719
Zn24	Zn	1.757173	0.493355	0.745053
Zn25	Zn	1.090483	-0.173326	-0.137144
Zn26	Zn	1.423817	0.160008	0.196189
Zn27	Zn	1.757150	0.493341	0.529523
O28	O	1.084310	-0.354950	0.021621
O29	O	1.417644	-0.021617	0.354954
O30	O	1.750977	0.311716	0.688288
C31	C	0.921943	-0.182035	-0.030857
C32	C	1.255276	0.151298	0.302476
C33	C	1.588609	0.484631	0.635809
C34	C	0.819549	-0.179335	-0.030400
C35	C	1.152882	0.153999	0.302933
C36	C	1.486215	0.487332	0.636267
C37	C	1.095788	0.054810	0.009293
C38	C	1.429121	0.388143	0.342626
C39	C	1.762454	0.721477	0.675960
C40	C	1.093094	0.193342	0.032772
C41	C	1.426427	0.526675	0.366105
C42	C	1.759761	0.860009	0.699438
C43	C	0.736393	-0.177140	-0.030032
C44	C	1.069727	0.156193	0.303302
C45	C	1.403060	0.489527	0.636635
C46	C	0.632071	-0.174398	-0.029567
C47	C	0.965404	0.158936	0.303766
C48	C	1.298737	0.492269	0.637099
C49	C	0.548921	-0.172221	-0.029198
C50	C	0.882254	0.161112	0.304135
C51	C	1.215587	0.494445	0.637468
C52	C	0.444591	-0.169480	-0.028736
C53	C	0.777924	0.163854	0.304598
C54	C	1.111258	0.497187	0.637931
C55	C	1.091884	0.255092	-0.041503
C56	C	1.425218	0.588426	0.291830
C57	C	1.758551	0.921759	0.625163
C58	C	1.089100	0.398272	-0.017239
C59	C	1.422434	0.731606	0.316094
C60	C	1.755767	1.064939	0.649428
C61	C	1.259047	-0.164602	-0.027903
C62	C	1.592380	0.168731	0.305431
C63	C	1.925714	0.502064	0.638764
C64	C	1.361441	-0.167303	-0.028367
C65	C	1.694774	0.166030	0.304967
C66	C	2.028108	0.499363	0.638300
C67	C	1.085201	0.598552	-0.068050
C68	C	1.418534	0.931885	0.265284
C69	C	1.751867	1.265219	0.598617
C70	C	1.087890	0.460019	-0.091525
C71	C	1.421224	0.793353	0.241809
C72	C	1.754557	1.126686	0.575142
N73	N	1.090468	-0.173326	-0.284236
N74	N	1.423802	0.160007	0.049098
N75	N	1.757135	0.493341	0.382431
C76	C	1.090472	-0.173327	-0.373234
C77	C	1.423805	0.160006	-0.039900
C78	C	1.757138	0.493339	0.293433
C79	C	1.090485	-0.173324	-0.484885
C80	C	1.423818	0.160009	-0.151551
C81	C	1.757151	0.493342	0.181782
C82	C	1.090501	-0.173315	-0.573874
C83	C	1.423834	0.160018	-0.240540
C84	C	1.757167	0.493351	0.092793
C85	C	1.090513	-0.173311	-0.685531
C86	C	1.423846	0.160023	-0.352198
C87	C	1.757180	0.493356	-0.018865
N88	N	1.090529	-0.173302	0.225480
N89	N	1.423862	0.160032	0.558813
N90	N	1.757195	0.493365	0.892146
H91	H	1.092905	0.201958	-0.123057
H92	H	1.426239	0.535291	0.210276
H93	H	1.759572	0.868625	0.543610
H94	H	1.088905	0.406890	-0.173084
H95	H	1.422238	0.740224	0.160249
H96	H	1.755571	1.073557	0.493582
H97	H	1.088069	0.451400	0.064320
H98	H	1.421402	0.784733	0.397653
H99	H	1.754736	1.118067	0.730986
H100	H	1.092063	0.246474	0.114325
H101	H	1.425396	0.579808	0.447658
H102	H	1.758730	0.913141	0.780992
