data_functionalizedCrystal
_audit_creation_method	'MofGen! by Chris Wilmer'
_symmetry_space_group_name_H-M	'P1'
_symmetry_Int_Tables_number	1
_symmetry_cell_setting	triclinic
loop_
_symmetry_equiv_pos_as_xyz
  x,y,z
_cell_length_a	14.853558
_cell_length_b	10.654550
_cell_length_c	13.930277
_cell_angle_alpha	90.000509
_cell_angle_beta	89.995722
_cell_angle_gamma	95.941982
loop_
_atom_site_label
_atom_site_type_symbol
_atom_site_fract_x
_atom_site_fract_y
_atom_site_fract_z
O1	O	1.197248	-0.163900	-0.079817
O2	O	1.697248	0.336100	0.420183
O3	O	0.934892	-0.183443	-0.079821
O4	O	1.434892	0.316557	0.420179
O5	O	1.072102	0.009131	-0.079815
O6	O	1.572102	0.509131	0.420185
O7	O	1.060038	-0.356474	-0.079822
O8	O	1.560038	0.143526	0.420178
O9	O	1.072089	0.009125	0.079847
O10	O	1.572089	0.509125	0.579847
O11	O	0.934879	-0.183449	0.079841
O12	O	1.434879	0.316551	0.579841
O13	O	1.197235	-0.163905	0.079845
O14	O	1.697235	0.336095	0.579845
Zn15	Zn	1.066054	-0.173678	0.105193
Zn16	Zn	1.566054	0.326322	0.605193
Zn17	Zn	1.066072	-0.173671	-0.105168
Zn18	Zn	1.566072	0.326329	0.394832
O19	O	1.060024	-0.356479	0.079839
O20	O	1.560024	0.143521	0.579839
C21	C	0.901292	-0.182563	0.000010
C22	C	1.401292	0.317437	0.500010
C23	C	0.801194	-0.179915	0.000008
C24	C	1.301194	0.320085	0.500008
C25	C	0.754174	-0.178671	-0.087027
C26	C	1.254174	0.321329	0.412973
C27	C	0.754158	-0.178662	0.087042
C28	C	1.254158	0.321338	0.587042
C29	C	0.660111	-0.176168	0.087044
C30	C	1.160111	0.323832	0.587044
C31	C	0.613091	-0.174923	0.000009
C32	C	1.113091	0.325077	0.500009
C33	C	0.660119	-0.176173	-0.087028
C34	C	1.160119	0.323827	0.412972
C35	C	0.613077	-0.174905	0.174079
C36	C	1.113077	0.325095	0.674079
C37	C	0.519024	-0.172410	0.174084
C38	C	1.019024	0.327590	0.674084
C39	C	0.472002	-0.171174	0.087048
C40	C	0.972002	0.328826	0.587048
C41	C	0.519036	-0.172425	0.000007
C42	C	1.019036	0.327575	0.500007
C43	C	0.472016	-0.171181	-0.087028
C44	C	0.972016	0.328819	0.412972
C45	C	0.519047	-0.172441	-0.174069
C46	C	1.019047	0.327559	0.325931
C47	C	0.613097	-0.174937	-0.174065
C48	C	1.113097	0.325063	0.325935
C49	C	0.377953	-0.168678	0.087043
C50	C	0.877953	0.331322	0.587043
C51	C	0.377961	-0.168683	-0.087029
C52	C	0.877961	0.331317	0.412971
C53	C	1.071210	0.055917	0.000015
C54	C	1.571210	0.555917	0.500015
C55	C	1.068559	0.195332	0.000011
C56	C	1.568559	0.695332	0.500011
C57	C	1.230835	-0.164786	0.000013
C58	C	1.730835	0.335214	0.500013
C59	C	1.330933	-0.167433	0.000008
C60	C	1.830933	0.332567	0.500008
C61	C	1.060917	-0.403265	0.000008
C62	C	1.560917	0.096735	0.500008
C63	C	1.063567	-0.542681	0.000005
C64	C	1.563567	-0.042681	0.500005
N65	N	1.066049	-0.173682	0.248759
N66	N	1.566049	0.326318	0.748759
C67	C	1.149347	0.275661	0.000015
C68	C	1.649347	0.775661	0.500015
C69	C	1.146851	0.406656	0.000009
C70	C	1.646851	0.906656	0.500009
C71	C	0.982774	0.376980	-0.000002
C72	C	1.482774	0.876980	0.499998
C73	C	0.985271	0.245988	-0.000003
C74	C	1.485271	0.745988	0.499997
C75	C	1.244075	0.292795	0.000026
C76	C	1.744075	0.792795	0.500026
C77	C	1.241580	0.423790	0.000019
C78	C	1.741580	0.923790	0.500019
N79	N	1.066085	-0.173657	-0.248735
N80	N	1.566085	0.326343	0.251265
C81	C	1.005284	-0.258928	0.299020
C82	C	1.505284	0.241072	0.799020
C83	C	1.126820	-0.088431	0.299003
C84	C	1.626820	0.411569	0.799003
C85	C	1.126829	-0.088426	0.399499
C86	C	1.626829	0.411574	0.899499
C87	C	1.066064	-0.173672	0.449760
C88	C	1.566064	0.326328	0.949760
C89	C	1.005289	-0.258923	0.399525
C90	C	1.505289	0.241077	0.899525
C91	C	1.187596	-0.003168	0.449741
C92	C	1.687596	0.496832	0.949741
C93	C	1.187608	-0.003159	0.550243
C94	C	1.687608	0.496841	1.050243
C95	C	1.126846	-0.088412	0.600506
C96	C	1.626846	0.411588	1.100506
C97	C	1.066070	-0.173667	0.550265
C98	C	1.566070	0.326333	1.050265
C99	C	1.005305	-0.258912	0.600525
C100	C	1.505305	0.241088	1.100525
C101	C	0.944532	-0.344175	0.550286
C102	C	1.444532	0.155825	1.050286
C103	C	0.944528	-0.344175	0.449787
C104	C	1.444528	0.155825	0.949787
C105	C	1.126850	-0.088411	0.701005
C106	C	1.626850	0.411589	1.201005
C107	C	1.005311	-0.258907	0.701030
C108	C	1.505311	0.241093	1.201030
H109	H	0.651368	-0.175907	0.244938
H110	H	1.151368	0.324093	0.744938
C111	C	0.326224	-0.167289	0.182783
C112	C	0.826224	0.332711	0.682783
N113	N	0.287262	-0.166246	0.254899
N114	N	0.787262	0.333754	0.754899
H115	H	0.914963	0.418241	-0.000014
H116	H	1.414963	0.918241	0.499986
C117	C	0.664839	-0.176307	-0.269802
C118	C	1.164839	0.323693	0.230198
N119	N	0.703815	-0.177332	-0.341910
N120	N	1.203815	0.322668	0.158090
C121	C	0.938462	-0.352686	0.756309
C122	C	1.438462	0.147314	1.256309
N123	N	0.888110	-0.423319	0.797945
N124	N	1.388110	0.076681	1.297945
C125	C	1.254402	0.090638	0.394449
C126	C	1.754402	0.590638	0.894449
N127	N	1.304714	0.161308	0.352798
N128	N	1.804714	0.661308	0.852798
C129	C	0.877686	-0.437933	0.605586
C130	C	1.377686	0.062067	1.105586
N131	N	0.827338	-0.508547	0.647242
N132	N	1.327338	-0.008547	1.147242
C133	C	1.254451	0.090641	0.605497
C134	C	1.754451	0.590641	1.105497
N135	N	1.304796	0.161294	0.647116
N136	N	1.804796	0.661294	1.147116
H137	H	0.895048	-0.413592	0.408876
H138	H	1.395048	0.086408	0.908876
C139	C	0.938435	-0.352710	0.243756
C140	C	1.438435	0.147290	0.743756
N141	N	0.888084	-0.423346	0.202131
N142	N	1.388084	0.076654	0.702131
C143	C	0.805876	-0.180097	0.182775
C144	C	1.305876	0.319903	0.682775
N145	N	0.844832	-0.181206	0.254886
N146	N	1.344832	0.318794	0.754886
C147	C	0.896399	0.157630	-0.000028
C148	C	1.396399	0.657630	0.499972
N149	N	0.829456	0.091078	-0.000051
N150	N	1.329456	0.591078	0.499949
H151	H	0.480740	-0.171382	0.244959
H152	H	0.980740	0.328618	0.744959
H153	H	1.270214	0.469734	-0.068918
H154	H	1.770214	0.969734	0.431082
H155	H	1.281133	0.263826	-0.066787
H156	H	1.781133	0.763826	0.433213
C157	C	0.326247	-0.167311	-0.182777
C158	C	0.826247	0.332689	0.317223
N159	N	0.287298	-0.166275	-0.254895
N160	N	0.787298	0.333725	0.245105
C161	C	1.193637	0.005362	0.243713
C162	C	1.693637	0.505362	0.743713
N163	N	1.243961	0.076018	0.202064
N164	N	1.743961	0.576018	0.702064
C165	C	1.284819	0.245081	0.093159
C166	C	1.784819	0.745081	0.593159
N167	N	1.315506	0.209141	0.163308
N168	N	1.815506	0.709141	0.663308
H169	H	0.480752	-0.171420	-0.244933
H170	H	0.980752	0.328580	0.255067
C171	C	1.289781	0.480710	0.090289
C172	C	1.789781	0.980710	0.590289
N173	N	1.326083	0.523581	0.158279
N174	N	1.826083	1.023581	0.658279
H175	H	0.792470	-0.179702	-0.157894
H176	H	1.292470	0.320298	0.342106
C177	C	1.193697	0.005369	0.756263
C178	C	1.693697	0.505369	1.256263
N179	N	1.244053	0.076007	0.797883
N180	N	1.744053	0.576007	1.297883
