data_functionalizedCrystal
_audit_creation_method	'MofGen! by Chris Wilmer'
_symmetry_space_group_name_H-M	'P1'
_symmetry_Int_Tables_number	1
_symmetry_cell_setting	triclinic
loop_
_symmetry_equiv_pos_as_xyz
  x,y,z
_cell_length_a	12.759394
_cell_length_b	21.395364
_cell_length_c	21.395355
_cell_angle_alpha	90.025677
_cell_angle_beta	89.985423
_cell_angle_gamma	89.991130
loop_
_atom_site_label
_atom_site_type_symbol
_atom_site_fract_x
_atom_site_fract_y
_atom_site_fract_z
Zn1	Zn	-0.418555	-0.957928	-0.354297
Zn2	Zn	0.081445	-0.457928	0.145703
Zn3	Zn	-0.594220	-0.957860	-0.249527
Zn4	Zn	-0.094220	-0.457860	0.250473
Zn5	Zn	-0.418537	-0.853143	-0.249532
Zn6	Zn	0.081463	-0.353143	0.250468
Zn7	Zn	-0.594175	-0.853141	-0.354265
Zn8	Zn	-0.094175	-0.353141	0.145735
O9	O	-0.506372	-0.905518	-0.301905
O10	O	-0.006372	-0.405518	0.198095
O11	O	-0.441884	-1.045597	-0.340411
O12	O	0.058116	-0.545597	0.159589
O13	O	-0.570927	-0.943941	-0.161850
O14	O	-0.070927	-0.443941	0.338150
O15	O	-0.271519	-0.867073	-0.263445
O16	O	0.228481	-0.367073	0.236555
O17	O	-0.570944	-1.045547	-0.263436
O18	O	-0.070944	-0.545547	0.236564
O19	O	-0.271532	-0.944058	-0.340416
O20	O	0.228468	-0.444058	0.159584
O21	O	-0.441853	-0.867006	-0.161853
O22	O	0.058147	-0.367006	0.338147
O23	O	-0.441809	-0.765465	-0.263414
O24	O	0.058191	-0.265465	0.236586
O25	O	-0.570867	-0.867069	-0.441947
O26	O	-0.070867	-0.367069	0.058053
O27	O	-0.570850	-0.765464	-0.340361
O28	O	-0.070850	-0.265464	0.159639
O29	O	-0.441840	-0.944056	-0.441971
O30	O	0.058160	-0.444056	0.058029
O31	O	-0.741235	-0.943939	-0.263405
O32	O	-0.241235	-0.443939	0.236595
O33	O	-0.741202	-0.867003	-0.340356
O34	O	-0.241202	-0.367003	0.159644
C35	C	-0.506323	-0.742730	-0.301885
C36	C	-0.006323	-0.242730	0.198115
C37	C	-0.506328	-0.673089	-0.301891
C38	C	-0.006328	-0.173089	0.198109
C39	C	-0.439292	-0.171319	-0.342045
C40	C	0.060708	0.328681	0.157955
C41	C	-0.439287	-0.236754	-0.342046
C42	C	0.060713	0.263246	0.157954
C43	C	-0.506372	-0.269451	-0.301907
C44	C	-0.006372	0.230549	0.198093
C45	C	-0.573485	-0.236707	-0.261774
C46	C	-0.073485	0.263293	0.238226
C47	C	-0.573495	-0.171273	-0.261778
C48	C	-0.073495	0.328727	0.238222
C49	C	-0.514513	-0.373089	-0.245442
C50	C	-0.014513	0.126911	0.254558
C51	C	-0.514495	-0.438522	-0.245436
C52	C	-0.014495	0.061478	0.254564
C53	C	-0.506347	-0.471272	-0.301893
C54	C	-0.006347	0.028728	0.198107
C55	C	-0.498194	-0.438581	-0.358358
C56	C	0.001806	0.061419	0.141642
C57	C	-0.498204	-0.373146	-0.358362
C58	C	0.001796	0.126854	0.141638
C59	C	-0.506369	-0.340403	-0.301898
C60	C	-0.006369	0.159597	0.198102
C61	C	-0.439239	-0.574960	-0.342028
C62	C	0.060761	-0.074960	0.157972
C63	C	-0.439241	-0.640397	-0.342030
C64	C	0.060759	-0.140397	0.157970
C65	C	-0.573434	-0.640349	-0.261752
C66	C	-0.073434	-0.140349	0.238248
C67	C	-0.573436	-0.574913	-0.261755
C68	C	-0.073436	-0.074913	0.238245
C69	C	-0.506333	-0.542223	-0.301892
C70	C	-0.006333	-0.042223	0.198108
C71	C	-0.779339	-0.905480	-0.301890
C72	C	-0.279339	-0.405480	0.198110
C73	C	-0.896116	-0.905522	-0.301905
C74	C	-0.396116	-0.405522	0.198095
C75	C	-0.896097	-0.985695	-0.221836
C76	C	-0.396097	-0.485695	0.278164
C77	C	-0.950949	-1.025799	-0.181809
C78	C	-0.450949	-0.525799	0.318191
C79	C	-1.060671	-1.025835	-0.181826
C80	C	-0.560671	-0.525835	0.318174
C81	C	-1.115543	-0.985766	-0.221876
C82	C	-0.615543	-0.485766	0.278124
C83	C	-1.060692	-0.945663	-0.261903
C84	C	-0.560692	-0.445663	0.238097
C85	C	-0.950968	-0.945629	-0.261880
C86	C	-0.450968	-0.445629	0.238120
C87	C	-1.060710	-0.865493	-0.341974
C88	C	-0.560710	-0.365493	0.158026
C89	C	-0.950989	-0.865452	-0.341954
C90	C	-0.450989	-0.365452	0.158046
C91	C	-1.115583	-0.825424	-0.382023
C92	C	-0.615583	-0.325424	0.117977
C93	C	-1.060731	-0.785316	-0.422048
C94	C	-0.560731	-0.285316	0.077952
C95	C	-0.951003	-0.785281	-0.422029
C96	C	-0.451003	-0.285281	0.077971
C97	C	-0.896137	-0.825349	-0.381981
C98	C	-0.396137	-0.325349	0.118019
C99	C	-0.232339	-0.905573	-0.301934
C100	C	0.267661	-0.405573	0.198066
C101	C	-0.115562	-0.905596	-0.301947
C102	C	0.384438	-0.405596	0.198053
C103	C	-0.506351	-0.905570	-0.465329
C104	C	-0.006351	-0.405570	0.034671
C105	C	-0.506342	-0.905592	-0.534970
C106	C	-0.006342	-0.405592	-0.034970
C107	C	-0.506409	-0.068941	-0.301922
C108	C	-0.006409	0.431059	0.198078
C109	C	-0.506392	-0.138583	-0.301915
C110	C	-0.006392	0.361417	0.198085
C111	C	-0.439155	-0.945677	-0.567696
C112	C	0.060845	-0.445677	-0.067696
C113	C	-0.439109	-0.945676	-0.633132
C114	C	0.060891	-0.445676	-0.133132
C115	C	-0.506270	-0.905597	-0.665838
C116	C	-0.006270	-0.405597	-0.165838
C117	C	-0.573462	-0.865504	-0.633104
C118	C	-0.073462	-0.365504	-0.133104
C119	C	-0.573498	-0.865502	-0.567670
C120	C	-0.073498	-0.365502	-0.067670
C121	C	-0.600868	-0.900637	-0.769508
C122	C	-0.100868	-0.400637	-0.269508
C123	C	-0.600834	-0.900644	-0.834941
C124	C	-0.100834	-0.400644	-0.334941
C125	C	-0.506159	-0.905601	-0.867659
C126	C	-0.006159	-0.405601	-0.367659
C127	C	-0.411515	-0.910565	-0.834937
C128	C	0.088485	-0.410565	-0.334937
C129	C	-0.411551	-0.910562	-0.769503
C130	C	0.088449	-0.410562	-0.269503
C131	C	-0.506238	-0.905595	-0.736791
C132	C	-0.006238	-0.405595	-0.236791
C133	C	-0.438917	-0.945687	-0.971338
C134	C	0.061083	-0.445687	-0.471338
C135	C	-0.438870	-0.945682	-1.036775
C136	C	0.061130	-0.445682	-0.536775
C137	C	-0.573232	-0.865513	-1.036746
C138	C	-0.073232	-0.365513	-0.536746
C139	C	-0.573270	-0.865515	-0.971311
C140	C	-0.073270	-0.365515	-0.471311
C141	C	-0.506114	-0.905605	-0.938611
C142	C	-0.006114	-0.405605	-0.438611
C143	C	-0.506317	-0.905502	-0.139118
C144	C	-0.006317	-0.405502	0.360882
C145	C	-0.506030	-0.905602	-0.069477
C146	C	-0.006030	-0.405602	0.430523
H147	H	-0.384642	-0.263413	-0.374724
H148	H	0.115358	0.236587	0.125276
C149	C	-0.775407	-0.985654	-0.221813
C150	C	-0.275407	-0.485654	0.278187
H151	H	-0.750583	-1.015262	-0.192232
H152	H	-0.250583	-0.515262	0.307768
H153	H	-0.750644	-0.945217	-0.210942
H154	H	-0.250644	-0.445217	0.289058
H155	H	-0.750535	-0.996470	-0.262252
H156	H	-0.250535	-0.496470	0.237748
C157	C	-1.121091	-0.741246	-0.466096
C158	C	-0.621091	-0.241246	0.033904
H159	H	-1.194292	-0.747012	-0.460373
H160	H	-0.694292	-0.247012	0.039627
H161	H	-1.103057	-0.750389	-0.508198
H162	H	-0.603057	-0.250389	-0.008198
H163	H	-1.103174	-0.699143	-0.456881
H164	H	-0.603174	-0.199143	0.043119
H165	H	-0.491554	-0.465244	-0.404330
H166	H	0.008446	0.034756	0.095670
C167	C	-0.365278	-0.989770	-0.531730
C168	C	0.134722	-0.489770	-0.031730
H169	H	-0.325251	-1.013640	-0.560596
H170	H	0.174749	-0.513640	-0.060596
H171	H	-0.405487	-1.017060	-0.506215
H172	H	0.094513	-0.517060	-0.006215
H173	H	-0.319500	-0.965807	-0.506195
H174	H	0.180500	-0.465807	-0.006195
H175	H	-0.384392	-0.978317	-0.659783
H176	H	0.115608	-0.478317	-0.159783
H177	H	-0.334421	-0.914602	-0.861575
H178	H	0.165579	-0.414602	-0.361575
H179	H	-0.627987	-0.832877	-0.944664
H180	H	-0.127987	-0.332877	-0.444664
C181	C	-0.890675	-0.741168	-0.466061
C182	C	-0.390675	-0.241168	0.033939
H183	H	-0.939073	-0.717310	-0.489911
H184	H	-0.439073	-0.217310	0.010089
H185	H	-0.847817	-0.765111	-0.493372
H186	H	-0.347817	-0.265111	0.006628
H187	H	-0.847929	-0.713858	-0.442062
H188	H	-0.347929	-0.213858	0.057938
C189	C	-0.647421	-0.821415	-0.531669
C190	C	-0.147421	-0.321415	-0.031669
H191	H	-0.687421	-0.797547	-0.560517
H192	H	-0.187421	-0.297547	-0.060517
H193	H	-0.607248	-0.794123	-0.506124
H194	H	-0.107248	-0.294123	-0.006124
H195	H	-0.693222	-0.845383	-0.506162
H196	H	-0.193222	-0.345383	-0.006162
C197	C	-0.523586	-0.474476	-0.183336
C198	C	-0.023586	0.025524	0.316664
H199	H	-0.528497	-0.445601	-0.149716
H200	H	-0.028497	0.054399	0.350284
H201	H	-0.463402	-0.500028	-0.177837
H202	H	0.036598	-0.000028	0.322163
H203	H	-0.584521	-0.499972	-0.184141
H204	H	-0.084521	0.000028	0.315859
C205	C	-0.890588	-1.069871	-0.137758
C206	C	-0.390588	-0.569871	0.362242
H207	H	-0.817386	-1.064104	-0.143474
H208	H	-0.317386	-0.564104	0.356526
H209	H	-0.908513	-1.111971	-0.146965
H210	H	-0.408513	-0.611971	0.353035
H211	H	-0.908620	-1.060719	-0.095653
H212	H	-0.408620	-0.560719	0.404347
H213	H	-0.677899	-0.896606	-0.861578
H214	H	-0.177899	-0.396606	-0.361578
C215	C	-0.647273	-0.272671	-0.217620
C216	C	-0.147273	0.227329	0.282380
H217	H	-0.637649	-0.316330	-0.223360
H218	H	-0.137649	0.183670	0.276640
H219	H	-0.717888	-0.261951	-0.226718
H220	H	-0.217888	0.238049	0.273282
H221	H	-0.631791	-0.261924	-0.175537
H222	H	-0.131791	0.238076	0.324463
H223	H	-0.384229	-0.978328	-0.944713
H224	H	0.115771	-0.478328	-0.444713
C225	C	-0.365491	-0.135363	-0.386199
C226	C	0.134509	0.364637	0.113801
H227	H	-0.325533	-0.164235	-0.410103
H228	H	0.174467	0.335765	0.089897
H229	H	-0.319661	-0.109824	-0.362282
H230	H	0.180339	0.390176	0.137718
H231	H	-0.405756	-0.109852	-0.413464
H232	H	0.094244	0.390148	0.086536
H233	H	-1.204924	-0.825459	-0.382037
H234	H	-0.704924	-0.325459	0.117963
C235	C	-0.647339	-0.821417	-0.669075
C236	C	-0.147339	-0.321417	-0.169075
H237	H	-0.687355	-0.797540	-0.640210
H238	H	-0.187355	-0.297540	-0.140210
H239	H	-0.693111	-0.845376	-0.694613
H240	H	-0.193111	-0.345376	-0.194613
H241	H	-0.607120	-0.794126	-0.694588
H242	H	-0.107120	-0.294126	-0.194588
C243	C	-1.121009	-1.069946	-0.137797
C244	C	-0.621009	-0.569946	0.362203
H245	H	-1.072620	-1.093802	-0.113940
H246	H	-0.572620	-0.593802	0.386060
H247	H	-1.163763	-1.097248	-0.161794
H248	H	-0.663763	-0.597248	0.338206
H249	H	-1.163860	-1.045995	-0.110483
H250	H	-0.663860	-0.545995	0.389517
H251	H	-0.628063	-0.666970	-0.229074
H252	H	-0.128063	-0.166970	0.270926
C253	C	-0.489254	-0.337188	-0.420467
C254	C	0.010746	0.162812	0.079533
H255	H	-0.484407	-0.366060	-0.454093
H256	H	0.015593	0.133940	0.045907
H257	H	-0.428359	-0.311661	-0.419719
H258	H	0.071641	0.188339	0.080281
H259	H	-0.549494	-0.311666	-0.425910
H260	H	-0.049494	0.188334	0.074090
H261	H	-0.806796	-0.825320	-0.381958
H262	H	-0.306796	-0.325320	0.118042
C263	C	-0.307451	-0.916012	-0.733510
C264	C	0.192549	-0.416012	-0.233510
H265	H	-0.251056	-0.918960	-0.762363
H266	H	0.248944	-0.418960	-0.262363
H267	H	-0.308837	-0.952327	-0.707996
H268	H	0.191163	-0.452327	-0.207996
H269	H	-0.298230	-0.880098	-0.707972
H270	H	0.201770	-0.380098	-0.207972
C271	C	-0.364961	-0.989778	-1.072774
C272	C	0.135039	-0.489778	-0.572774
H273	H	-0.324981	-1.013657	-1.043925
H274	H	0.175019	-0.513657	-0.543925
H275	H	-0.319158	-0.965825	-1.098288
H276	H	0.180842	-0.465825	-0.598288
H277	H	-0.405157	-1.017070	-1.098313
H278	H	0.094843	-0.517070	-0.598313
C279	C	-0.365446	-0.538998	-0.386185
C280	C	0.134554	-0.038998	0.113815
H281	H	-0.325495	-0.567869	-0.410094
H282	H	0.174505	-0.067869	0.089906
H283	H	-0.319611	-0.513461	-0.362270
H284	H	0.180389	-0.013461	0.137730
H285	H	-0.405719	-0.513486	-0.413446
H286	H	0.094281	-0.013486	0.086554
H287	H	-0.627905	-0.832873	-1.063375
H288	H	-0.127905	-0.332873	-0.563375
C289	C	-0.365426	-0.676407	-0.386174
C290	C	0.134574	-0.176407	0.113826
H291	H	-0.325459	-0.647564	-0.410073
H292	H	0.174541	-0.147564	0.089927
H293	H	-0.405670	-0.701945	-0.413435
H294	H	0.094330	-0.201945	0.086565
H295	H	-0.319590	-0.701922	-0.362244
H296	H	0.180410	-0.201922	0.137756
H297	H	-0.677944	-0.896432	-0.742874
H298	H	-0.177944	-0.396432	-0.242874
C299	C	-1.236234	-0.985812	-0.221904
C300	C	-0.736234	-0.485812	0.278096
H301	H	-1.261057	-0.956209	-0.251490
H302	H	-0.761057	-0.456209	0.248510
H303	H	-1.261117	-0.975006	-0.181468
H304	H	-0.761117	-0.475006	0.318532
H305	H	-1.260985	-1.026252	-0.232785
H306	H	-0.760985	-0.526252	0.267215
C307	C	-0.647241	-0.538899	-0.217611
C308	C	-0.147241	-0.038899	0.282389
H309	H	-0.637647	-0.495246	-0.223366
H310	H	-0.137647	0.004754	0.276634
H311	H	-0.631770	-0.549600	-0.175527
H312	H	-0.131770	-0.049600	0.324473
H313	H	-0.717855	-0.549626	-0.226716
H314	H	-0.217855	-0.049626	0.273284
H315	H	-0.521152	-0.346429	-0.199465
H316	H	-0.021152	0.153571	0.300535
H317	H	-0.628138	-0.144619	-0.229099
H318	H	-0.128138	0.355381	0.270901
