data_functionalizedCrystal
_audit_creation_method	'MofGen! by Chris Wilmer'
_symmetry_space_group_name_H-M	'P1'
_symmetry_Int_Tables_number	1
_symmetry_cell_setting	triclinic
loop_
_symmetry_equiv_pos_as_xyz
  x,y,z
_cell_length_a	15.995350
_cell_length_b	27.731996
_cell_length_c	14.472310
_cell_angle_alpha	89.992904
_cell_angle_beta	89.990621
_cell_angle_gamma	83.056881
loop_
_atom_site_label
_atom_site_type_symbol
_atom_site_fract_x
_atom_site_fract_y
_atom_site_fract_z
O1	O	1.110170	0.062303	-0.076775
O2	O	0.866293	0.069997	-0.076796
O3	O	0.995829	-0.004216	-0.076765
O4	O	0.980635	0.136516	-0.076806
O5	O	0.995795	-0.004212	0.076917
O6	O	0.866260	0.070001	0.076886
O7	O	1.110137	0.062307	0.076907
Cu8	Cu	0.988195	0.066154	0.090929
Cu9	Cu	0.988235	0.066149	-0.090818
O10	O	0.980601	0.136520	0.076876
C11	C	0.835086	0.069681	0.000043
C12	C	0.742148	0.068727	0.000036
C13	C	0.995500	-0.022223	0.000079
C14	C	0.994560	-0.075883	0.000089
C15	C	0.404446	0.065303	0.000056
C16	C	0.452581	0.012450	0.000415
C17	C	0.549259	0.013403	0.000062
C18	C	0.571984	0.067001	0.000047
C19	C	0.530570	0.093068	-0.087717
C20	C	0.433952	0.091740	-0.087784
C21	C	0.433561	0.092837	0.086981
C22	C	0.530506	0.092824	0.088135
C23	C	0.666669	0.067964	0.000038
C24	C	0.309761	0.064341	0.000059
C25	C	0.988663	-0.408627	-0.083729
C26	C	0.985093	-0.610301	-0.083746
O27	O	0.984611	-0.636375	-0.154991
N28	N	0.984632	-0.635517	0.000026
C29	C	0.985057	-0.610312	0.083807
O30	O	0.984574	-0.636387	0.155059
C31	C	0.988621	-0.408639	0.083823
C32	C	0.989091	-0.383426	0.000046
C33	C	0.989132	-0.383413	-0.167499
C34	C	0.990029	-0.332998	-0.167494
C35	C	0.990457	-0.307797	-0.083719
C36	C	0.989988	-0.333011	0.000051
C37	C	0.989041	-0.383434	0.167603
C38	C	0.989930	-0.333013	0.167599
C39	C	0.990399	-0.307799	0.083823
C40	C	0.991313	-0.257394	0.083831
N41	N	0.991775	-0.232177	0.000060
C42	C	0.991347	-0.257379	-0.083715
C43	C	0.983188	-0.716194	0.083793
C44	C	0.982298	-0.766612	0.083789
C45	C	0.982333	-0.766597	-0.083764
C46	C	0.983228	-0.716178	-0.083759
C47	C	0.983649	-0.690977	0.000022
C48	C	0.993231	-0.151504	-0.083699
C49	C	0.994132	-0.101084	-0.083686
C50	C	0.994093	-0.101104	0.083866
C51	C	0.993197	-0.151519	0.083854
C52	C	0.992763	-0.176717	0.000064
O53	O	0.991786	-0.231287	0.155039
O54	O	0.991811	-0.231293	-0.154957
C55	C	0.987766	-0.459042	-0.083734
C56	C	0.987297	-0.484256	0.000036
C57	C	0.987725	-0.459054	0.083811
C58	C	0.986407	-0.534674	0.000032
C59	C	0.985979	-0.559875	-0.083743
C60	C	0.986441	-0.534659	-0.167514
C61	C	0.987338	-0.484244	-0.167509
C62	C	0.987264	-0.484271	0.167582
C63	C	0.986367	-0.534686	0.167570
C64	C	0.985939	-0.559888	0.083795
C65	C	1.141344	0.062623	0.000066
C66	C	1.234282	0.063577	0.000067
C67	C	0.980930	0.154526	0.000030
C68	C	0.981870	0.208187	0.000014
N69	N	0.988174	0.066158	0.218760
N70	N	0.988263	0.066142	-0.218649
C71	C	0.988233	0.066147	0.592851
C72	C	0.918693	0.105724	0.553669
C73	C	0.918850	0.105868	0.446581
C74	C	0.988203	0.066153	0.407260
C75	C	1.075422	0.077168	0.446101
C76	C	1.075030	0.077450	0.553222
C77	C	0.971337	0.015438	0.553394
C78	C	0.969329	0.015776	0.446266
C79	C	0.988192	0.066154	0.302372
C80	C	0.988251	0.066147	0.697739
H81	H	0.577946	-0.007086	0.062975
C82	C	0.548950	0.146261	-0.092151
H83	H	0.582128	0.153060	-0.040396
H84	H	0.497385	0.167220	-0.091341
H85	H	0.578696	0.151315	-0.147451
C86	C	0.933348	0.156700	0.411926
H87	H	0.933491	0.156962	0.346283
H88	H	0.985984	0.164472	0.434111
H89	H	0.889506	0.180025	0.433994
C90	C	0.990542	-0.305267	-0.259647
H91	H	0.991142	-0.271630	-0.247659
H92	H	0.941558	-0.309842	-0.294072
H93	H	1.039255	-0.317220	-0.294059
H94	H	0.905173	0.007416	0.420881
H95	H	1.128378	0.049110	0.420629
H96	H	0.929261	0.143143	0.580568
C97	C	0.988670	-0.411128	-0.259659
H98	H	0.989084	-0.388885	-0.309541
H99	H	0.939483	-0.427111	-0.263166
H100	H	1.037179	-0.434481	-0.263138
C101	C	0.426506	-0.015965	-0.084118
H102	H	0.386415	0.004242	-0.119631
H103	H	0.402328	-0.043789	-0.063929
H104	H	0.474692	-0.025871	-0.120959
H105	H	0.434325	-0.008675	0.063354
H106	H	1.016741	-0.015055	0.419504
C107	C	0.992777	-0.179217	-0.175865
H108	H	0.993198	-0.156975	-0.225748
H109	H	0.943590	-0.195200	-0.179378
H110	H	1.041287	-0.202570	-0.179334
C111	C	0.983737	-0.688447	-0.175912
H112	H	0.983350	-0.710681	-0.225801
H113	H	1.032927	-0.672465	-0.179394
H114	H	0.935231	-0.665093	-0.179401
H115	H	0.985991	-0.555211	0.235796
C116	C	0.981854	-0.794324	-0.175914
H117	H	0.981249	-0.827961	-0.163910
H118	H	1.030846	-0.789750	-0.210344
H119	H	0.933150	-0.782371	-0.210330
C120	C	1.039847	-0.024350	0.587629
H121	H	1.078565	-0.010154	0.625785
H122	H	1.068833	-0.039614	0.536120
H123	H	1.014407	-0.047824	0.622127
H124	H	0.545352	0.131910	0.093425
H125	H	0.990260	-0.312496	0.235825
C126	C	0.981789	-0.794342	0.175943
H127	H	0.982162	-0.772107	0.225833
H128	H	1.030284	-0.817699	0.179438
H129	H	0.932587	-0.810319	0.179420
C130	C	0.389961	0.145479	0.087770
H131	H	0.354182	0.150672	0.035415
H132	H	0.431341	0.167312	0.085835
H133	H	0.357446	0.150925	0.142540
H134	H	1.090022	0.114432	0.578188
H135	H	0.983535	-0.695680	0.152021
C136	C	1.096190	0.126558	0.409842
H137	H	1.149093	0.132898	0.433728
H138	H	1.053710	0.151432	0.429160
H139	H	1.098591	0.125809	0.344261
C140	C	0.409570	0.066055	-0.176390
H141	H	0.350423	0.065021	-0.177215
H142	H	0.437796	0.033893	-0.177750
H143	H	0.425440	0.083412	-0.228876
C144	C	0.988515	-0.411157	0.259759
H145	H	0.988886	-0.388920	0.309644
H146	H	1.037007	-0.434516	0.263263
H147	H	0.939311	-0.427133	0.263233
H148	H	0.853628	0.099269	0.579454
H149	H	1.128358	0.049761	0.579140
C150	C	0.587289	-0.014459	-0.085066
H151	H	0.646574	-0.013974	-0.085570
H152	H	0.563610	0.000532	-0.139655
H153	H	0.575154	-0.047131	-0.082485
H154	H	0.401190	0.130544	-0.091777
H155	H	0.413240	0.075560	0.153504
C156	C	0.994644	-0.073352	-0.175844
H157	H	0.994251	-0.095584	-0.225736
H158	H	1.043838	-0.057373	-0.179326
H159	H	0.946142	-0.049995	-0.179329
C160	C	0.994559	-0.073375	0.176011
H161	H	0.995150	-0.039737	0.164008
H162	H	1.043246	-0.085325	0.210448
H163	H	0.945549	-0.077949	0.210420
H164	H	0.558061	0.073796	0.153062
C165	C	0.569234	0.068605	-0.175941
H166	H	0.610603	0.042510	-0.159478
H167	H	0.594669	0.091690	-0.211455
H168	H	0.526276	0.056511	-0.211311
H169	H	0.853997	0.099305	0.420322
H170	H	0.909154	0.004845	0.580460
H171	H	0.992822	-0.172049	0.152072
C172	C	0.985982	-0.562385	-0.259666
H173	H	0.986397	-0.540152	-0.309564
H174	H	0.936793	-0.578367	-0.263156
H175	H	1.034489	-0.585740	-0.263132
H176	H	0.987720	-0.463719	-0.235729
H177	H	0.987613	-0.463757	0.235803
