data_functionalizedCrystal
_audit_creation_method	'MofGen! by Chris Wilmer'
_symmetry_space_group_name_H-M	'P1'
_symmetry_Int_Tables_number	1
_symmetry_cell_setting	triclinic
loop_
_symmetry_equiv_pos_as_xyz
  x,y,z
_cell_length_a	10.654550
_cell_length_b	17.038272
_cell_length_c	9.730223
_cell_angle_alpha	89.998176
_cell_angle_beta	89.996251
_cell_angle_gamma	87.798229
loop_
_atom_site_label
_atom_site_type_symbol
_atom_site_fract_x
_atom_site_fract_y
_atom_site_fract_z
O1	O	1.678036	0.109875	-0.114405
O2	O	2.178036	0.609875	0.385595
O3	O	1.313530	0.120343	-0.114384
O4	O	1.813530	0.620343	0.385616
O5	O	1.493617	0.001281	-0.114383
O6	O	1.993617	0.501281	0.385617
O7	O	1.497950	0.228936	-0.114406
O8	O	1.997950	0.728936	0.385594
O9	O	1.493615	0.001284	0.114196
O10	O	1.993615	0.501284	0.614196
O11	O	1.313528	0.120346	0.114196
O12	O	1.813528	0.620346	0.614196
O13	O	1.678034	0.109878	0.114175
O14	O	2.178034	0.609878	0.614175
Zn15	Zn	1.495781	0.115112	0.150477
Zn16	Zn	1.995781	0.615112	0.650477
Zn17	Zn	1.495783	0.115108	-0.150686
Zn18	Zn	1.995783	0.615108	0.349314
O19	O	1.497948	0.228939	0.114174
O20	O	1.997948	0.728939	0.614174
C21	C	1.266660	0.119576	-0.000091
C22	C	1.766660	0.619576	0.499909
C23	C	1.127003	0.117276	-0.000082
C24	C	1.627003	0.617276	0.499918
C25	C	1.054026	0.187378	-0.000109
C26	C	1.554026	0.687378	0.499891
C27	C	0.922804	0.185212	-0.000132
C28	C	1.422804	0.685212	0.499868
C29	C	0.937548	0.042837	-0.000108
C30	C	1.437548	0.542837	0.499892
C31	C	1.068767	0.045004	-0.000075
C32	C	1.568767	0.545004	0.499925
C33	C	1.112262	0.259650	-0.000116
C34	C	1.612262	0.759650	0.499884
C35	C	1.039285	0.329758	-0.000145
C36	C	1.539285	0.829758	0.499855
C37	C	0.908063	0.327592	-0.000168
C38	C	1.408063	0.827592	0.499832
C39	C	0.849818	0.255319	-0.000163
C40	C	1.349818	0.755319	0.499837
C41	C	1.489675	-0.027867	-0.000093
C42	C	1.989675	0.472133	0.499907
C43	C	1.477918	-0.114726	-0.000093
C44	C	1.977918	0.385274	0.499907
C45	C	1.585862	-0.164237	-0.000098
C46	C	2.085862	0.335763	0.499902
C47	C	1.574808	-0.245850	-0.000111
C48	C	2.074808	0.254150	0.499889
C49	C	1.455808	-0.277949	-0.000108
C50	C	1.955808	0.222051	0.499892
C51	C	1.347856	-0.228431	-0.000107
C52	C	1.847856	0.271569	0.499893
C53	C	1.358911	-0.146821	-0.000105
C54	C	1.858911	0.353179	0.499895
C55	C	1.416750	-0.523925	-0.000125
C56	C	1.916750	-0.023925	0.499875
C57	C	1.405702	-0.605542	-0.000123
C58	C	1.905702	-0.105542	0.499877
C59	C	1.632656	-0.622955	-0.000129
C60	C	2.132656	-0.122955	0.499871
C61	C	1.643701	-0.541342	-0.000118
C62	C	2.143701	-0.041342	0.499882
C63	C	1.535749	-0.491831	-0.000124
C64	C	2.035749	0.008169	0.499876
C65	C	1.444505	-0.361370	-0.000116
C66	C	1.944505	0.138630	0.499884
C67	C	1.547052	-0.408412	-0.000126
C68	C	2.047052	0.091588	0.499874
C69	C	1.724905	0.110645	-0.000121
C70	C	2.224905	0.610645	0.499879
C71	C	1.864562	0.112944	-0.000139
C72	C	2.364562	0.612944	0.499861
C73	C	1.501889	0.258088	-0.000119
C74	C	2.001889	0.758088	0.499881
C75	C	1.513646	0.344947	-0.000128
C76	C	2.013646	0.844947	0.499872
N77	N	1.495788	0.115115	0.356014
N78	N	1.995788	0.615115	0.856014
N79	N	1.495785	0.115100	-0.356223
N80	N	1.995785	0.615100	0.143777
C81	C	1.575554	0.062412	0.427940
C82	C	2.075554	0.562412	0.927940
C83	C	1.575550	0.062402	0.571823
C84	C	2.075550	0.562402	1.071823
C85	C	1.416010	0.167805	0.571841
C86	C	1.916010	0.667805	1.071841
C87	C	1.416009	0.167810	0.427961
C88	C	1.916009	0.667810	0.927961
C89	C	1.655334	0.009717	0.355993
C90	C	2.155334	0.509717	0.855993
C91	C	1.735107	-0.042990	0.427919
C92	C	2.235107	0.457010	0.927919
C93	C	1.735103	-0.042999	0.571802
C94	C	2.235103	0.457001	1.071802
C95	C	1.655325	0.009697	0.643759
C96	C	2.155325	0.509697	1.143759
H97	H	0.890114	-0.016004	-0.000127
H98	H	1.390114	0.483996	0.499873
H99	H	1.682764	-0.138109	-0.000092
H100	H	2.182764	0.361891	0.499908
H101	H	1.128187	-0.012079	-0.000056
H102	H	1.628187	0.487921	0.499944
H103	H	1.662708	-0.286159	-0.000112
H104	H	2.162708	0.213841	0.499888
Cl105	Cl	1.256091	-0.645894	-0.000112
Cl106	Cl	1.756091	-0.145894	0.499888
Cl107	Cl	1.277226	0.262378	-0.000094
Cl108	Cl	1.777226	0.762378	0.499906
H109	H	1.086717	0.388600	-0.000137
H110	H	1.586717	0.888600	0.499863
H111	H	0.848648	0.384677	-0.000177
H112	H	1.348648	0.884677	0.499823
H113	H	0.742968	0.253562	-0.000161
H114	H	1.242968	0.753562	0.499839
Cl115	Cl	1.793307	-0.500995	-0.000166
Cl116	Cl	2.293307	-0.000995	0.499834
Cl117	Cl	1.315730	0.234050	0.662301
Cl118	Cl	1.815730	0.734050	1.162301
Cl119	Cl	1.768358	-0.685200	-0.000125
Cl120	Cl	2.268358	-0.185200	0.499875
H121	H	1.800049	-0.085920	0.630363
H122	H	2.300049	0.414080	1.130363
Cl123	Cl	1.281036	-0.461694	-0.000136
Cl124	Cl	1.781036	0.038306	0.499864
H125	H	1.351055	0.210725	0.369398
H126	H	1.851055	0.710725	0.869398
Cl127	Cl	1.198254	-0.268785	-0.000121
Cl128	Cl	1.698254	0.231215	0.499879
Cl129	Cl	1.223204	-0.084577	-0.000103
Cl130	Cl	1.723204	0.415423	0.499897
H131	H	1.643941	-0.382273	-0.000158
H132	H	2.143941	0.117727	0.499842
Cl133	Cl	1.655348	0.009729	0.175112
Cl134	Cl	2.155348	0.509729	0.675112
Cl135	Cl	1.294910	-0.401730	-0.000120
Cl136	Cl	1.794910	0.098270	0.499880
Cl137	Cl	1.835382	-0.109240	0.337463
Cl138	Cl	2.335382	0.390760	0.837463
Cl139	Cl	1.655314	0.009675	0.824642
Cl140	Cl	2.155314	0.509675	1.324642
