data_functionalizedCrystal
_audit_creation_method	'MofGen! by Chris Wilmer'
_symmetry_space_group_name_H-M	'P1'
_symmetry_Int_Tables_number	1
_symmetry_cell_setting	triclinic
loop_
_symmetry_equiv_pos_as_xyz
  x,y,z
_cell_length_a	21.395362
_cell_length_b	19.805405
_cell_length_c	21.395355
_cell_angle_alpha	89.981337
_cell_angle_beta	90.043940
_cell_angle_gamma	89.950948
loop_
_atom_site_label
_atom_site_type_symbol
_atom_site_fract_x
_atom_site_fract_y
_atom_site_fract_z
Zn1	Zn	0.957849	0.269255	0.354585
Zn2	Zn	1.457849	0.769255	0.854585
Zn3	Zn	0.957747	0.382425	0.249807
Zn4	Zn	1.457747	0.882425	0.749807
Zn5	Zn	0.853064	0.269286	0.249786
Zn6	Zn	1.353064	0.769286	0.749786
Zn7	Zn	0.853028	0.382439	0.354512
Zn8	Zn	1.353028	0.882439	0.854512
O9	O	0.905422	0.325851	0.302173
O10	O	1.405422	0.825851	0.802173
O11	O	1.045513	0.284248	0.340725
O12	O	1.545513	0.784248	0.840725
O13	O	0.943832	0.367424	0.162126
O14	O	1.443832	0.867424	0.662126
O15	O	0.867021	0.174565	0.263710
O16	O	1.367021	0.674565	0.763710
O17	O	1.045438	0.367393	0.263746
O18	O	1.545438	0.867393	0.763746
O19	O	0.944006	0.174542	0.340705
O20	O	1.444006	0.674542	0.840705
O21	O	0.866922	0.284302	0.162111
O22	O	1.366922	0.784302	0.662111
O23	O	0.765381	0.284315	0.263639
O24	O	1.265381	0.784315	0.763639
O25	O	0.866961	0.367417	0.442200
O26	O	1.366961	0.867417	0.942200
O27	O	0.765355	0.367448	0.340580
O28	O	1.265355	0.867448	0.840580
O29	O	0.943972	0.284261	0.442253
O30	O	1.443972	0.784261	0.942253
O31	O	0.943798	0.477143	0.263675
O32	O	1.443798	0.977143	0.763675
O33	O	0.866862	0.477153	0.340601
O34	O	1.366862	0.977153	0.840601
C35	C	0.742634	0.325887	0.302100
C36	C	1.242634	0.825887	0.802100
C37	C	0.672993	0.325918	0.302084
C38	C	1.172993	0.825918	0.802084
C39	C	0.640283	0.369263	0.342087
C40	C	1.140283	0.869263	0.842087
C41	C	0.574847	0.369246	0.342115
C42	C	1.074847	0.869246	0.842115
C43	C	0.542125	0.325892	0.302128
C44	C	1.042125	0.825892	0.802128
C45	C	0.574843	0.282539	0.262122
C46	C	1.074843	0.782539	0.762122
C47	C	0.640277	0.282553	0.262100
C48	C	1.140277	0.782553	0.762100
C49	C	0.438400	0.320440	0.245723
C50	C	0.938400	0.820440	0.745723
C51	C	0.372967	0.320431	0.245744
C52	C	0.872967	0.820431	0.745744
C53	C	0.340304	0.325848	0.302197
C54	C	0.840304	0.825848	0.802197
C55	C	0.373082	0.331288	0.358631
C56	C	0.873082	0.831288	0.858631
C57	C	0.438516	0.331301	0.358609
C58	C	0.938516	0.831301	0.858609
C59	C	0.471172	0.325873	0.302148
C60	C	0.971172	0.825873	0.802148
C61	C	0.236641	0.369177	0.342235
C62	C	0.736641	0.869177	0.842235
C63	C	0.171205	0.369156	0.342264
C64	C	0.671205	0.869156	0.842264
C65	C	0.171201	0.282452	0.262265
C66	C	0.671201	0.782452	0.762265
C67	C	0.236637	0.282470	0.262242
C68	C	0.736637	0.782470	0.762242
C69	C	0.269353	0.325836	0.302226
C70	C	0.769353	0.825836	0.802226
C71	C	0.905332	0.501707	0.302146
C72	C	1.405332	1.001707	0.802146
C73	C	0.905351	0.576939	0.302155
C74	C	1.405351	1.076939	0.802155
C75	C	0.945410	0.612213	0.342277
C76	C	1.445410	1.112213	0.842277
C77	C	0.945425	0.682901	0.342287
C78	C	1.445425	1.182901	0.842287
C79	C	0.905384	0.718315	0.302172
C80	C	1.405384	1.218315	0.802172
C81	C	0.865321	0.683036	0.262048
C82	C	1.365321	1.183036	0.762048
C83	C	0.865303	0.612349	0.262042
C84	C	1.365303	1.112349	0.762042
C85	C	0.865392	0.968109	0.262073
C86	C	1.365392	1.468109	0.762073
C87	C	0.865414	1.038801	0.262082
C88	C	1.365414	1.538801	0.762082
C89	C	0.945514	1.038662	0.342319
C90	C	1.445514	1.538662	0.842319
C91	C	0.945496	0.967975	0.342313
C92	C	1.445496	1.467975	0.842313
C93	C	0.905431	0.932702	0.302192
C94	C	1.405431	1.432702	0.802192
C95	C	0.905414	0.856054	0.302182
C96	C	1.405414	1.356054	0.802182
C97	C	0.905404	0.794962	0.302178
C98	C	1.405404	1.294962	0.802178
C99	C	1.068845	0.325816	0.302246
C100	C	1.568845	0.825816	0.802246
C101	C	1.138487	0.325800	0.302277
C102	C	1.638487	0.825800	0.802277
C103	C	0.905474	0.325837	0.465596
C104	C	1.405474	0.825837	0.965596
C105	C	0.905496	0.325831	0.535237
C106	C	1.405496	0.825831	1.035237
C107	C	0.905503	1.149308	0.302207
C108	C	1.405503	1.649308	0.802207
C109	C	0.905471	1.074076	0.302207
C110	C	1.405471	1.574076	0.802207
C111	C	0.905406	0.325816	0.139385
C112	C	1.405406	0.825816	0.639385
C113	C	0.905505	0.325631	0.069744
C114	C	1.405505	0.825631	0.569744
C115	C	0.945594	0.282530	0.567979
C116	C	1.445594	0.782530	1.067979
C117	C	0.945593	0.282501	0.633415
C118	C	1.445593	0.782501	1.133415
C119	C	0.905501	0.325785	0.666106
C120	C	1.405501	0.825785	1.166106
C121	C	0.865395	0.369089	0.633356
C122	C	1.365395	0.869089	1.133356
C123	C	0.865393	0.369112	0.567921
C124	C	1.365393	0.869112	1.067921
C125	C	0.900523	0.386731	0.769769
C126	C	1.400523	0.886731	1.269769
C127	C	0.900529	0.386709	0.835202
C128	C	1.400529	0.886709	1.335202
C129	C	0.905505	0.325714	0.867926
C130	C	1.405505	0.825714	1.367926
C131	C	0.910487	0.264738	0.835210
C132	C	1.410487	0.764738	1.335210
C133	C	0.910484	0.264762	0.769775
C134	C	1.410484	0.764762	1.269775
C135	C	0.905499	0.325765	0.737058
C136	C	1.405499	0.825765	1.237058
C137	C	0.945604	0.282378	0.971621
C138	C	1.445604	0.782378	1.471621
C139	C	0.945599	0.282347	1.037058
C140	C	1.445599	0.782347	1.537058
C141	C	0.865404	0.368941	1.036997
C142	C	1.365404	0.868941	1.536997
C143	C	0.865406	0.368966	0.971562
C144	C	1.365406	0.868966	1.471562
C145	C	0.905509	0.325685	0.938878
C146	C	1.405509	0.825685	1.438878
H147	H	0.346285	0.316007	0.199793
H148	H	0.846285	0.816007	0.699793
H149	H	0.832805	1.067633	0.229414
H150	H	1.332805	1.567633	0.729414
H151	H	0.978103	0.939143	0.374976
H152	H	1.478103	1.439143	0.874976
H153	H	0.832737	0.404372	0.541263
H154	H	1.332737	0.904372	1.041263
H155	H	0.896303	0.436388	0.743131
H156	H	1.396303	0.936388	1.243131
H157	H	0.914539	0.215070	0.861852
H158	H	1.414539	0.715070	1.361852
O159	O	0.135910	0.235695	0.219136
O160	O	0.635910	0.735695	0.719136
H161	H	0.148527	0.182591	0.229969
H162	H	0.648527	0.682591	0.729969
H163	H	0.978135	1.067389	0.374990
H164	H	1.478135	1.567389	0.874990
O165	O	0.675570	0.416031	0.385214
O166	O	1.175570	0.916031	0.885214
H167	H	0.705449	0.385794	0.417129
H168	H	1.205449	0.885794	0.917129
O169	O	0.822194	0.930068	0.218790
O170	O	1.322194	1.430068	0.718790
H171	H	0.794364	0.966571	0.190889
H172	H	1.294364	1.466571	0.690889
O173	O	0.822140	0.721226	0.218770
O174	O	1.322140	1.221226	0.718770
H175	H	0.828890	0.776306	0.225506
H176	H	1.328890	1.276306	0.725506
O177	O	0.473872	0.337153	0.419471
O178	O	0.973872	0.837153	0.919471
H179	H	0.440172	0.340911	0.458734
H180	H	0.940172	0.840911	0.958734
H181	H	0.978244	0.247237	0.660079
H182	H	1.478244	0.747237	1.160079
H183	H	0.978249	0.247287	0.541372
H184	H	1.478249	0.747287	1.041372
H185	H	0.832682	0.583629	0.229371
H186	H	1.332682	1.083629	0.729371
O187	O	0.135924	0.415907	0.385417
O188	O	0.635924	0.915907	0.885417
H189	H	0.084927	0.408607	0.378723
H190	H	0.584927	0.908607	0.878723
H191	H	0.914539	0.215113	0.743140
H192	H	1.414539	0.715113	1.243140
O193	O	0.337864	0.337125	0.419528
O194	O	0.837864	0.837125	0.919528
H195	H	0.286857	0.336192	0.410066
H196	H	0.786857	0.836192	0.910066
O197	O	0.539568	0.416026	0.385248
O198	O	1.039568	0.916026	0.885248
H199	H	0.552190	0.404525	0.434443
H200	H	1.052190	0.904525	0.934443
H201	H	0.263270	0.247178	0.229663
H202	H	0.763270	0.747178	0.729663
H203	H	0.548196	0.247239	0.229566
H204	H	1.048196	0.747239	0.729566
H205	H	0.978255	0.247132	0.945008
H206	H	1.478255	0.747132	1.445008
O207	O	0.988850	0.235643	1.072378
O208	O	1.488850	0.735643	1.572378
H209	H	1.016739	0.205559	1.038654
H210	H	1.516739	0.705559	1.538654
O211	O	0.822159	0.415628	1.072246
O212	O	1.322159	0.915628	1.572246
H213	H	0.828898	0.408340	1.123248
H214	H	1.328898	0.908340	1.623248
H215	H	0.832758	0.404230	0.944903
H216	H	1.332758	0.904230	1.444903
O217	O	0.675564	0.235814	0.218940
O218	O	1.175564	0.735814	0.718940
H219	H	0.641819	0.205668	0.191133
H220	H	1.141819	0.705668	0.691133
O221	O	0.895150	0.452470	0.870489
O222	O	1.395150	0.952470	1.370489
H223	H	0.891674	0.494886	0.836743
H224	H	1.391674	0.994886	1.336743
O225	O	0.988603	0.574018	0.385539
O226	O	1.488603	1.074018	0.885539
H227	H	1.016458	0.610425	0.413442
H228	H	1.516458	1.110425	0.913442
O229	O	0.822150	0.415774	0.668609
O230	O	1.322150	0.915774	1.168609
H231	H	0.828891	0.408488	0.719611
H232	H	1.328891	0.908488	1.219611
H233	H	0.263280	0.404485	0.374795
H234	H	0.763280	0.904485	0.874795
H235	H	0.464989	0.316026	0.199749
H236	H	0.964989	0.816026	0.699749
O237	O	0.988632	0.720950	0.385561
O238	O	1.488632	1.220950	0.885561
H239	H	1.016477	0.684449	0.413448
H240	H	1.516477	1.184449	0.913448
