data_functionalizedCrystal
_audit_creation_method	'MofGen! by Chris Wilmer'
_symmetry_space_group_name_H-M	'P1'
_symmetry_Int_Tables_number	1
_symmetry_cell_setting	triclinic
loop_
_symmetry_equiv_pos_as_xyz
  x,y,z
_cell_length_a	17.038272
_cell_length_b	11.792254
_cell_length_c	10.268362
_cell_angle_alpha	89.995475
_cell_angle_beta	89.994496
_cell_angle_gamma	87.655077
loop_
_atom_site_label
_atom_site_type_symbol
_atom_site_fract_x
_atom_site_fract_y
_atom_site_fract_z
O1	O	0.107255	1.516299	-0.108301
O2	O	0.118293	1.186927	-0.108304
O3	O	-0.001050	1.349655	-0.108292
O4	O	0.226598	1.353570	-0.108313
O5	O	-0.001055	1.349639	0.108309
O6	O	0.118288	1.186911	0.108297
O7	O	0.107250	1.516283	0.108300
Cu8	Cu	0.112768	1.351596	0.128076
Cu9	Cu	0.112774	1.351614	-0.128080
O10	O	0.226593	1.353555	0.108288
C11	C	0.117595	1.144567	-0.000004
C12	C	0.115514	1.018372	-0.000005
C13	C	0.113823	0.915887	-0.000010
C14	C	0.111708	0.787315	-0.000011
C15	C	-0.030197	1.346086	0.000008
C16	C	-0.117037	1.335462	0.000008
C17	C	-0.166717	1.433002	0.000010
C18	C	-0.248312	1.423013	-0.000002
C19	C	-0.280225	1.315483	-0.000008
C20	C	-0.230539	1.217937	-0.000014
C21	C	-0.148946	1.227927	-0.000011
C22	C	-0.526140	1.280190	-0.000026
C23	C	-0.607740	1.270208	-0.000025
C24	C	-0.625508	1.475285	-0.000016
C25	C	-0.543912	1.485266	-0.000005
C26	C	-0.494233	1.387719	-0.000018
C27	C	-0.363628	1.305271	-0.000016
C28	C	-0.410831	1.397933	-0.000019
C29	C	0.255740	1.357123	-0.000015
C30	C	0.342580	1.367747	-0.000023
C31	C	0.107947	1.558642	-0.000003
C32	C	0.110029	1.684838	-0.000011
N33	N	0.112764	1.351591	0.308242
N34	N	0.112773	1.351627	-0.308245
C35	C	0.112773	1.351608	0.573912
C36	C	0.112770	1.351595	0.426074
H37	H	-0.140740	1.520564	0.000022
H38	H	-0.485701	1.200760	-0.000036
C39	C	-0.680155	1.582576	-0.000021
H40	H	-0.733320	1.561230	-0.000035
H41	H	-0.670441	1.626344	0.075510
H42	H	-0.670426	1.626341	-0.075567
C43	C	-0.302957	1.530307	0.000013
H44	H	-0.272264	1.595777	0.000036
H45	H	-0.335152	1.530690	-0.075520
H46	H	-0.335159	1.530658	0.075557
C47	C	-0.508813	1.603548	-0.000016
H48	H	-0.550087	1.660210	-0.000030
H49	H	-0.477355	1.611707	0.075515
H50	H	-0.477350	1.611705	-0.075562
H51	H	-0.633720	1.182640	-0.000009
C52	C	-0.265642	1.099657	-0.000016
H53	H	-0.321351	1.107675	-0.000003
H54	H	-0.248615	1.059166	-0.075548
H55	H	-0.248622	1.059163	0.075528
C56	C	-0.094298	1.120634	-0.000010
H57	H	-0.124988	1.055161	-0.000002
H58	H	-0.062094	1.120275	-0.075543
H59	H	-0.062104	1.120261	0.075534
H60	H	-0.384844	1.485483	-0.000043
H61	H	-0.389621	1.217719	-0.000018
