data_functionalizedCrystal
_audit_creation_method	'MofGen! by Chris Wilmer'
_symmetry_space_group_name_H-M	'P1'
_symmetry_Int_Tables_number	1
_symmetry_cell_setting	triclinic
loop_
_symmetry_equiv_pos_as_xyz
  x,y,z
_cell_length_a	11.169417
_cell_length_b	18.101395
_cell_length_c	11.169409
_cell_angle_alpha	90.035674
_cell_angle_beta	90.019824
_cell_angle_gamma	90.031983
loop_
_atom_site_label
_atom_site_type_symbol
_atom_site_fract_x
_atom_site_fract_y
_atom_site_fract_z
Zn1	Zn	1.834789	-0.294752	0.678515
Zn2	Zn	1.834606	-0.418619	0.477820
Zn3	Zn	1.634075	-0.294797	0.477849
Zn4	Zn	1.634010	-0.418558	0.678465
O5	O	1.734370	-0.356682	0.578162
O6	O	2.002715	-0.311190	0.651901
O7	O	1.807956	-0.402238	0.309874
O8	O	1.660804	-0.191159	0.504501
O9	O	2.002580	-0.402194	0.504451
O10	O	1.808268	-0.191125	0.651929
O11	O	1.660626	-0.311267	0.309896
O12	O	1.466117	-0.311208	0.504453
O13	O	1.660693	-0.402091	0.846421
O14	O	1.466069	-0.402135	0.651844
O15	O	1.808205	-0.311131	0.846458
O16	O	1.807892	-0.522244	0.504403
O17	O	1.660515	-0.522199	0.651816
C18	C	1.422545	-0.356670	0.578147
C19	C	1.289145	-0.356684	0.578169
C20	C	1.734209	-0.549092	0.578127
C21	C	1.734250	-0.631406	0.578152
C22	C	1.734514	-0.930497	0.578217
C23	C	1.642003	-0.899175	0.671195
C24	C	1.641564	-0.813557	0.670904
C25	C	1.734383	-0.782115	0.578186
C26	C	1.700132	-0.813278	0.451699
C27	C	1.699535	-0.898923	0.452255
C28	C	1.861478	-0.898837	0.610612
C29	C	1.860732	-0.813186	0.613386
C30	C	1.734311	-0.698255	0.578160
C31	C	1.734583	-1.014357	0.578234
C32	C	2.047412	-0.356694	0.578178
C33	C	2.180812	-0.356699	0.578185
C34	C	1.734462	-0.356599	0.891205
C35	C	1.734501	-0.356564	1.024605
C36	C	1.734564	-0.163520	0.578224
C37	C	1.734647	-0.081206	0.578250
C38	C	1.734347	-0.356710	0.266338
C39	C	1.734541	-0.356537	0.132938
H40	H	1.662994	-0.792484	0.764693
H41	H	1.930402	-0.919092	0.542892
N42	N	1.668582	-0.924942	0.789243
N43	N	1.604367	-0.905711	0.875419
H44	H	1.623137	-0.923914	0.958794
H45	H	1.548466	-0.920764	0.650008
N46	N	1.951780	-0.786351	0.534611
N47	N	2.012635	-0.830775	0.474316
H48	H	2.076938	-0.811827	0.418671
H49	H	1.547455	-0.793137	0.649447
H50	H	1.606724	-0.918969	0.424813
N51	N	1.780381	-0.924931	0.362383
N52	N	1.867435	-0.964514	0.391082
H53	H	1.924525	-0.982878	0.327604
N54	N	1.584936	-0.786451	0.416663
N55	N	1.527865	-0.744390	0.484629
H56	H	1.446506	-0.725443	0.459890
H57	H	1.765392	-0.792913	0.380534
N58	N	1.900644	-0.925866	0.724343
N59	N	1.835447	-0.968797	0.782908
H60	H	1.863096	-0.987889	0.863234
N61	N	1.893125	-0.787627	0.730163
N62	N	1.823483	-0.746678	0.787319
H63	H	1.846355	-0.728624	0.869796
