data_functionalizedCrystal
_audit_creation_method	'MofGen! by Chris Wilmer'
_symmetry_space_group_name_H-M	'P1'
_symmetry_Int_Tables_number	1
_symmetry_cell_setting	triclinic
loop_
_symmetry_equiv_pos_as_xyz
  x,y,z
_cell_length_a	6.817900
_cell_length_b	11.168121
_cell_length_c	11.168136
_cell_angle_alpha	92.020174
_cell_angle_beta	108.508683
_cell_angle_gamma	108.508496
loop_
_atom_site_label
_atom_site_type_symbol
_atom_site_fract_x
_atom_site_fract_y
_atom_site_fract_z
V1	V	-4.109882	-0.174724	-0.393710
O2	O	-4.069466	0.008377	-0.386204
O3	O	-4.086169	-0.346429	-0.391027
O4	O	-4.086172	-0.172045	-0.565415
O5	O	-4.069463	-0.167215	-0.210609
V6	V	-4.587111	-0.152822	-0.371808
O7	O	-4.384945	-0.222767	-0.441753
O8	O	-4.762245	-0.104778	-0.323765
O9	O	-4.387617	0.018883	-0.374490
O10	O	-4.744924	-0.335922	-0.379314
O11	O	-4.744927	-0.160331	-0.554909
O12	O	-4.387614	-0.155501	-0.200102
C13	C	-3.936377	-0.388286	-0.384819
C14	C	-3.998441	-0.528658	-0.383771
C15	C	-3.915419	-0.730203	-0.376231
C16	C	-3.851269	-0.585122	-0.377314
C17	C	-3.936379	-0.165840	-0.607267
C18	C	-3.998441	-0.164786	-0.747637
C19	C	-4.200949	-0.170305	-0.816329
C20	C	-4.265097	-0.169216	-0.961409
C21	C	-4.200752	0.060735	-0.380695
C22	C	-4.117928	0.201105	-0.381752
C23	C	-4.200749	-0.161709	-0.158244
C24	C	-4.117925	-0.162757	-0.017873
H25	H	-3.677784	-0.526070	-0.372583
H26	H	-4.171920	-0.587698	-0.388483
H27	H	-3.944443	-0.158040	-0.958832
H28	H	-4.243814	-0.750299	-0.387287
H29	H	-4.326829	-0.175828	-0.767731
H30	H	-4.438582	-0.173947	-1.020461
O31	O	-3.848349	-0.158019	-0.805717
C32	C	-3.814389	-0.047188	-0.864466
H33	H	-3.963910	-0.015884	-0.883963
H34	H	-3.661274	0.032476	-0.798527
C35	C	-3.598503	-0.114471	-0.967427
C36	C	-3.782156	-0.076029	-0.991384
H37	H	-3.578610	-0.132258	-1.045713
H38	H	-3.621375	-0.189138	-0.927843
H39	H	-3.470928	-0.048077	-0.912475
H40	H	-3.909731	-0.142428	-1.046321
H41	H	-3.759305	-0.001374	-1.030979
H42	H	-3.789539	-0.778801	-0.370708
