data_functionalizedCrystal
_audit_creation_method	'MofGen! by Chris Wilmer'
_symmetry_space_group_name_H-M	'P1'
_symmetry_Int_Tables_number	1
_symmetry_cell_setting	triclinic
loop_
_symmetry_equiv_pos_as_xyz
  x,y,z
_cell_length_a	12.759401
_cell_length_b	16.625545
_cell_length_c	12.759393
_cell_angle_alpha	90.033904
_cell_angle_beta	90.019684
_cell_angle_gamma	90.024672
loop_
_atom_site_label
_atom_site_type_symbol
_atom_site_fract_x
_atom_site_fract_y
_atom_site_fract_z
Zn1	Zn	1.606176	-0.320973	0.593998
Zn2	Zn	1.606037	-0.455830	0.418310
Zn3	Zn	1.430478	-0.321013	0.418333
Zn4	Zn	1.430433	-0.455765	0.593948
O5	O	1.518281	-0.388395	0.506147
O6	O	1.753179	-0.338873	0.570703
O7	O	1.582709	-0.437990	0.271292
O8	O	1.453862	-0.208175	0.441666
O9	O	1.753077	-0.437951	0.441627
O10	O	1.582946	-0.208146	0.570725
O11	O	1.453727	-0.338940	0.271309
O12	O	1.283451	-0.338878	0.441618
O13	O	1.453786	-0.437841	0.740976
O14	O	1.283418	-0.437880	0.570642
O15	O	1.582903	-0.338810	0.741012
O16	O	1.582666	-0.568654	0.441579
O17	O	1.453651	-0.568606	0.570619
C18	C	1.245314	-0.388377	0.506127
C19	C	1.128537	-0.388388	0.506144
C20	C	1.518167	-0.597886	0.506114
C21	C	1.518214	-0.687507	0.506135
C22	C	1.073661	-0.336770	0.439085
C23	C	0.963937	-0.336789	0.439098
C24	C	0.963975	-0.440047	0.573239
C25	C	1.073697	-0.440031	0.573219
C26	C	1.128502	-0.285127	0.372009
C27	C	1.073626	-0.233504	0.304946
C28	C	0.963902	-0.233523	0.304959
C29	C	0.909054	-0.285165	0.372036
C30	C	1.518255	-0.760290	0.506156
C31	C	1.518316	-0.851598	0.506179
C32	C	1.518371	-0.924375	0.506193
C33	C	1.518431	-1.015689	0.506214
C34	C	1.792314	-0.388415	0.506168
C35	C	1.909091	-0.388423	0.506177
C36	C	1.518355	-0.388314	0.780181
C37	C	1.518386	-0.388279	0.896958
C38	C	1.518424	-0.178086	0.506204
C39	C	1.518485	-0.088465	0.506228
C40	C	1.518268	-0.388418	0.233180
C41	C	1.518441	-0.388226	0.116404
C42	C	1.585627	-0.336709	0.951840
C43	C	1.585652	-0.336680	1.061564
C44	C	1.451192	-0.439798	1.061514
C45	C	1.451163	-0.439823	0.951791
C46	C	1.652850	-0.285165	0.897006
C47	C	1.720097	-0.233591	0.951889
C48	C	1.720122	-0.233562	1.061613
C49	C	1.652900	-0.285107	1.116455
H50	H	1.118291	-0.191463	0.250328
N51	N	1.652808	-0.285179	0.784927
N52	N	1.570855	-0.268323	0.735954
H53	H	1.570824	-0.268334	0.656797
N54	N	1.788804	-0.180870	1.117660
N55	N	1.848810	-0.134852	1.068684
H56	H	1.897322	-0.097637	1.108264
H57	H	0.919308	-0.482090	0.627851
N58	N	1.652916	-0.285091	1.228536
N59	N	1.592901	-0.331121	1.277484
H60	H	1.592915	-0.331113	1.356640
N61	N	1.382537	-0.492440	1.117546
N62	N	1.382573	-0.492410	1.215511
H63	H	1.334085	-0.529591	1.255085
H64	H	1.774820	-0.191620	0.907230
N65	N	1.129777	-0.492753	0.641707
N66	N	1.190971	-0.544086	0.604606
H67	H	1.230582	-0.581323	0.652973
N68	N	0.907864	-0.180785	0.236457
N69	N	0.920150	-0.106389	0.243603
H70	H	0.880577	-0.069138	0.195224
N71	N	1.382466	-0.492500	0.895739
N72	N	1.322455	-0.538519	0.944707
H73	H	1.273932	-0.575721	0.905121
H74	H	1.217845	-0.285103	0.371994
H75	H	0.819709	-0.285180	0.372037
