data_functionalizedCrystal
_audit_creation_method	'MofGen! by Chris Wilmer'
_symmetry_space_group_name_H-M	'P1'
_symmetry_Int_Tables_number	1
_symmetry_cell_setting	triclinic
loop_
_symmetry_equiv_pos_as_xyz
  x,y,z
_cell_length_a	16.974813
_cell_length_b	11.792254
_cell_length_c	15.455313
_cell_angle_alpha	87.300348
_cell_angle_beta	89.012317
_cell_angle_gamma	83.796100
loop_
_atom_site_label
_atom_site_type_symbol
_atom_site_fract_x
_atom_site_fract_y
_atom_site_fract_z
O1	O	0.104635	1.511261	-0.079473
O2	O	0.604635	2.011261	0.420527
O3	O	0.115757	1.180859	-0.080256
O4	O	0.615757	1.680859	0.419744
O5	O	-0.004484	1.354716	-0.071811
O6	O	0.495516	1.854716	0.428189
O7	O	0.224876	1.337404	-0.087919
O8	O	0.724876	1.837404	0.412081
O9	O	0.002363	1.344774	0.071971
O10	O	0.502363	1.844774	0.571971
O11	O	0.122604	1.170917	0.063525
O12	O	0.622604	1.670917	0.563525
O13	O	0.111483	1.501319	0.064308
O14	O	0.611483	2.001319	0.564308
Cu15	Cu	0.117668	1.335210	0.077045
Cu16	Cu	0.617668	1.835210	0.577045
Cu17	Cu	0.109571	1.346968	-0.092993
Cu18	Cu	0.609571	1.846968	0.407007
O19	O	0.231723	1.327462	0.055863
O20	O	0.731723	1.827462	0.555863
C21	C	0.118480	1.133602	-0.008316
C22	C	0.618480	1.633602	0.491684
C23	C	0.116383	1.007600	-0.008170
C24	C	0.616383	1.507600	0.491830
C25	C	0.114679	0.905274	-0.008054
C26	C	0.614679	1.405274	0.491946
C27	C	0.112548	0.776899	-0.007905
C28	C	0.612548	1.276899	0.492095
C29	C	-0.030424	1.348902	0.002140
C30	C	0.469576	1.848902	0.502140
C31	C	-0.117917	1.346376	0.008279
C32	C	0.382083	1.846376	0.508279
C33	C	-0.162750	1.350611	-0.067211
C34	C	0.337250	1.850611	0.432789
C35	C	-0.244958	1.348230	-0.061440
C36	C	0.255042	1.848230	0.438560
C37	C	-0.282333	1.341622	0.019822
C38	C	0.217667	1.841622	0.519822
C39	C	-0.237495	1.337383	0.095318
C40	C	0.262505	1.837383	0.595318
C41	C	-0.155287	1.339756	0.089546
C42	C	0.344713	1.839756	0.589546
C43	C	-0.527797	1.333937	0.045489
C44	C	-0.027797	1.833937	0.545489
C45	C	-0.610012	1.331567	0.051255
C46	C	-0.110012	1.831567	0.551255
C47	C	-0.617469	1.342412	-0.105504
C48	C	-0.117469	1.842412	0.394496
C49	C	-0.535260	1.344792	-0.111268
C50	C	-0.035260	1.844792	0.388732
C51	C	-0.490428	1.340547	-0.035772
C52	C	0.009572	1.840547	0.464228
N53	N	-0.366364	1.339192	0.025723
N54	N	0.133636	1.839192	0.525723
N55	N	-0.406398	1.342969	-0.041674
N56	N	0.093602	1.842969	0.458326
C57	C	0.257663	1.333276	-0.018090
C58	C	0.757663	1.833276	0.481910
C59	C	0.345156	1.335803	-0.024235
C60	C	0.845156	1.835803	0.475765
C61	C	0.108759	1.548576	-0.007634
C62	C	0.608759	2.048576	0.492366
C63	C	0.110856	1.674578	-0.007786
C64	C	0.610856	2.174578	0.492214
N65	N	0.123364	1.326949	0.196640
N66	N	0.623364	1.826949	0.696640
N67	N	0.103869	1.355238	-0.212588
N68	N	0.603869	1.855238	0.287412
C69	C	0.072300	1.400835	0.245621
C70	C	0.572300	1.900835	0.745621
C71	C	0.076614	1.394598	0.336126
C72	C	0.576614	1.894598	0.836126
C73	C	0.131997	1.314479	0.377648
C74	C	0.631997	1.814479	0.877648
C75	C	0.183062	1.240585	0.328661
C76	C	0.683062	1.740585	0.828661
C77	C	0.178744	1.246818	0.238158
C78	C	0.678744	1.746818	0.738158
C79	C	0.150616	1.287577	0.647922
C80	C	0.650616	1.787577	1.147922
C81	C	0.154933	1.281352	0.738431
C82	C	0.654933	1.781352	1.238431
C83	C	0.048483	1.435364	0.745890
C84	C	0.548483	1.935364	1.245890
C85	C	0.044173	1.441594	0.655385
C86	C	0.544173	1.941594	1.155385
C87	C	0.095236	1.367696	0.606406
C88	C	0.595236	1.867696	1.106406
N89	N	0.136409	1.308104	0.470159
N90	N	0.636409	1.808104	0.970159
N91	N	0.090818	1.374066	0.513897
N92	N	0.590818	1.874066	1.013897
H93	H	-0.132326	1.355998	-0.133383
H94	H	0.367674	1.855998	0.366617
H95	H	-0.267931	1.331996	0.161484
H96	H	0.232069	1.831996	0.661484
H97	H	0.006910	1.495527	0.785777
H98	H	0.506910	1.995527	1.285777
H99	H	0.200035	1.216106	0.772234
H100	H	0.700035	1.716106	1.272234
C101	C	-0.066941	1.433600	0.174598
C102	C	0.433059	1.933600	0.674598
C103	C	-0.106006	1.335098	0.172529
C104	C	0.393994	1.835098	0.672529
H105	H	-0.036515	1.430713	0.225829
H106	H	0.463485	1.930713	0.725829
H107	H	-0.104887	1.499015	0.174000
H108	H	0.395113	1.999015	0.674000
H109	H	-0.032918	1.437864	0.125374
H110	H	0.467082	1.937864	0.625374
H111	H	-0.140034	1.330839	0.221751
H112	H	0.359966	1.830839	0.721751
H113	H	-0.068055	1.269666	0.173136
H114	H	0.431945	1.769666	0.673136
C115	C	-0.244081	1.359288	-0.216966
C116	C	0.255919	1.859288	0.283034
C117	C	-0.294244	1.352949	-0.144421
C118	C	0.205756	1.852949	0.355579
H119	H	-0.274512	1.362223	-0.268196
H120	H	0.225488	1.862223	0.231804
H121	H	-0.206153	1.293853	-0.216389
H122	H	0.293847	1.793853	0.283611
H123	H	-0.217569	1.426099	-0.215516
H124	H	0.282431	1.926099	0.284484
H125	H	-0.320752	1.286133	-0.145867
H126	H	0.179248	1.786133	0.354133
H127	H	-0.332186	1.418390	-0.144999
H128	H	0.167814	1.918390	0.355001
C129	C	-0.550892	1.355256	-0.265639
C130	C	-0.050892	1.855256	0.234361
C131	C	-0.494179	1.352046	-0.200595
C132	C	0.005821	1.852046	0.299405
H133	H	-0.525528	1.359730	-0.320785
H134	H	-0.025528	1.859730	0.179215
H135	H	-0.588522	1.420226	-0.259727
H136	H	-0.088522	1.920226	0.240273
H137	H	-0.577078	1.287975	-0.260523
H138	H	-0.077078	1.787975	0.239477
H139	H	-0.467997	1.419331	-0.205707
H140	H	0.032003	1.919331	0.294293
H141	H	-0.456535	1.287069	-0.206509
H142	H	0.043465	1.787069	0.293491
H143	H	-0.653980	1.345866	-0.166968
H144	H	-0.153980	1.845866	0.333032
C145	C	-0.058165	1.458931	0.373541
C146	C	0.441835	1.958931	0.873541
C147	C	0.020489	1.475833	0.389958
C148	C	0.520489	1.975833	0.889958
H149	H	-0.092813	1.509094	0.406770
H150	H	0.407187	2.009094	0.906770
H151	H	-0.066378	1.382153	0.389025
H152	H	0.433622	1.882153	0.889025
H153	H	-0.068647	1.474103	0.313695
H154	H	0.431353	1.974103	0.813695
H155	H	0.030974	1.460653	0.449804
H156	H	0.530974	1.960653	0.949804
H157	H	0.028707	1.552629	0.374480
H158	H	0.528707	2.052629	0.874480
H159	H	0.192195	1.227408	0.608050
H160	H	0.692195	1.727408	1.108050
H161	H	-0.491307	1.330503	0.106964
H162	H	0.008693	1.830503	0.606964
C163	C	0.236955	1.162654	0.464082
C164	C	0.736955	1.662654	0.964082
C165	C	0.243942	1.152518	0.374300
C166	C	0.743942	1.652518	0.874300
H167	H	0.274545	1.108290	0.492253
H168	H	0.774545	1.608290	0.992253
H169	H	0.185016	1.149134	0.482618
H170	H	0.685016	1.649134	0.982618
H171	H	0.246578	1.237411	0.478262
H172	H	0.746578	1.737411	0.978262
H173	H	0.234313	1.077764	0.360119
H174	H	0.734313	1.577764	0.860119
H175	H	0.295892	1.166030	0.355757
H176	H	0.795892	1.666030	0.855757
H177	H	-0.640439	1.326180	0.117432
H178	H	-0.140439	1.826180	0.617432
H179	H	0.220324	1.186650	0.198279
H180	H	0.720324	1.686650	0.698279
H181	H	-0.000924	1.506833	0.621579
H182	H	0.499076	2.006833	1.121579
H183	H	0.027206	1.466081	0.211820
H184	H	0.527206	1.966081	0.711820
