data_functionalizedCrystal
_audit_creation_method	'MofGen! by Chris Wilmer'
_symmetry_space_group_name_H-M	'P1'
_symmetry_Int_Tables_number	1
_symmetry_cell_setting	triclinic
loop_
_symmetry_equiv_pos_as_xyz
  x,y,z
_cell_length_a	17.000371
_cell_length_b	17.038272
_cell_length_c	16.098571
_cell_angle_alpha	87.133130
_cell_angle_beta	86.758802
_cell_angle_gamma	83.355402
loop_
_atom_site_label
_atom_site_type_symbol
_atom_site_fract_x
_atom_site_fract_y
_atom_site_fract_z
O1	O	1.054623	0.025154	0.069260
O2	O	1.554623	0.525154	0.569260
O3	O	0.824802	0.053399	0.069261
O4	O	1.324802	0.553399	0.569261
O5	O	0.938347	-0.074445	0.069254
O6	O	1.438347	0.425555	0.569254
O7	O	0.941078	0.152998	0.069267
O8	O	1.441078	0.652998	0.569267
O9	O	0.945094	-0.068671	-0.069258
O10	O	1.445094	0.431329	0.430742
O11	O	0.831549	0.059173	-0.069251
O12	O	1.331549	0.559173	0.430749
O13	O	1.061369	0.030928	-0.069252
O14	O	1.561369	0.530928	0.430748
Zn15	Zn	0.947530	0.045967	-0.091243
Zn16	Zn	1.447530	0.545967	0.408757
Zn17	Zn	0.938641	0.038360	0.091252
Zn18	Zn	1.438641	0.538360	0.591252
O19	O	0.947825	0.158772	-0.069245
O20	O	1.447825	0.658772	0.430755
C21	C	0.798625	0.057803	0.000005
C22	C	1.298625	0.557803	0.500005
C23	C	0.710572	0.062314	0.000005
C24	C	1.210572	0.562314	0.500005
C25	C	0.673845	-0.007108	-0.000000
C26	C	1.173845	0.492892	0.500000
C27	C	0.591110	-0.002864	0.000006
C28	C	1.091110	0.497136	0.500006
C29	C	0.545101	0.070801	0.000012
C30	C	1.045101	0.570801	0.500012
C31	C	0.581833	0.140228	0.000020
C32	C	1.081833	0.640228	0.500020
C33	C	0.664567	0.135984	0.000019
C34	C	1.164567	0.635984	0.500019
C35	C	0.295065	0.087195	0.000018
C36	C	0.795065	0.587195	0.500018
C37	C	0.212326	0.091434	0.000016
C38	C	0.712326	0.591434	0.500016
C39	C	0.221608	-0.051659	0.000004
C40	C	0.721608	0.448341	0.500004
C41	C	0.304344	-0.055897	-0.000001
C42	C	0.804344	0.444103	0.499999
C43	C	0.341068	0.013530	0.000011
C44	C	0.841068	0.513530	0.500011
C45	C	0.460532	0.075140	0.000016
C46	C	0.960532	0.575140	0.500016
C47	C	0.425635	0.009190	0.000013
C48	C	0.925635	0.509190	0.500013
C49	C	0.939236	-0.100516	-0.000002
C50	C	1.439236	0.399484	0.499998
C51	C	0.931823	-0.186802	-0.000002
C52	C	1.431823	0.313198	0.499998
C53	C	0.999881	-0.241577	-0.000003
C54	C	1.499881	0.258423	0.499997
C55	C	0.992911	-0.322651	0.000005
C56	C	1.492911	0.177349	0.500005
C57	C	0.917882	-0.348947	0.000008
C58	C	1.417882	0.151053	0.500008
C59	C	0.849818	-0.294165	0.000012
C60	C	1.349818	0.205835	0.500012
C61	C	0.856789	-0.213093	0.000010
C62	C	1.356789	0.286907	0.500010
C63	C	0.893255	-0.593018	0.000020
C64	C	1.393255	-0.093018	0.500020
C65	C	0.886290	-0.674097	0.000019
C66	C	1.386290	-0.174097	0.500019
C67	C	1.029384	-0.702577	0.000014
C68	C	1.529384	-0.202577	0.500014
C69	C	1.036348	-0.621503	0.000007
C70	C	1.536348	-0.121503	0.500007
C71	C	0.968284	-0.566728	0.000015
C72	C	1.468284	-0.066728	0.500015
C73	C	0.910755	-0.431816	0.000013
C74	C	1.410755	0.068184	0.500013
C75	C	0.975411	-0.483860	0.000015
C76	C	1.475411	0.016140	0.500015
C77	C	1.087547	0.026524	0.000005
C78	C	1.587547	0.526524	0.500005
C79	C	1.175600	0.022012	0.000011
C80	C	1.675600	0.522012	0.500011
C81	C	0.946936	0.184843	0.000013
C82	C	1.446936	0.684843	0.500013
C83	C	0.954348	0.271128	0.000018
C84	C	1.454348	0.771128	0.500018
N85	N	0.953602	0.051158	-0.215791
N86	N	1.453602	0.551158	0.284209
C87	C	0.981695	0.075269	-0.740606
C88	C	1.481695	0.575269	-0.240606
C89	C	0.977451	0.071632	-0.653418
C90	C	1.477451	0.571632	-0.153418
C91	C	0.924090	0.025883	-0.609825
C92	C	1.424090	0.525883	-0.109825
C93	C	0.874965	-0.016225	-0.653425
C94	C	1.374965	0.483775	-0.153425
C95	C	0.879205	-0.012583	-0.740612
C96	C	1.379205	0.487417	-0.240612
C97	C	0.908718	0.012692	-0.346578
C98	C	1.408718	0.512692	0.153422
C99	C	0.904483	0.009051	-0.259385
C100	C	1.404483	0.509051	0.240615
C101	C	1.006968	0.096910	-0.259384
C102	C	1.506968	0.596910	0.240616
C103	C	1.011208	0.100544	-0.346572
C104	C	1.511208	0.600544	0.153428
C105	C	0.962079	0.058439	-0.390165
C106	C	1.462079	0.558439	0.109835
C107	C	0.919752	0.022162	-0.520705
C108	C	1.419752	0.522162	-0.020705
C109	C	0.966414	0.062165	-0.479284
C110	C	1.466414	0.562165	0.020716
N111	N	0.932575	0.033162	0.215800
N112	N	1.432575	0.533162	0.715800
H113	H	0.694468	0.192514	0.000020
H114	H	1.194468	0.692514	0.500020
Br115	Br	0.736278	-0.107087	-0.000017
Br116	Br	1.236278	0.392913	0.499983
Br117	Br	0.541269	-0.097085	0.000028
Br118	Br	1.041269	0.402915	0.500028
Br119	Br	0.784458	-0.709783	0.000015
Br120	Br	1.284458	-0.209783	0.500015
H121	H	0.463098	-0.050789	0.000013
H122	H	0.963098	0.449211	0.500013
Br123	Br	0.366779	-0.155875	-0.000019
Br124	Br	0.866779	0.344125	0.499981
Br125	Br	0.842042	-0.044449	-0.405728
Br126	Br	1.342042	0.455551	0.094272
H127	H	0.191698	-0.108183	0.000003
H128	H	0.691698	0.391817	0.500003
H129	H	0.174868	0.151425	0.000017
H130	H	0.674868	0.651425	0.500017
H131	H	1.046964	0.131190	-0.223882
H132	H	1.546964	0.631190	0.276118
H133	H	0.544366	0.200208	0.000030
H134	H	1.044366	0.700208	0.500030
Br135	Br	0.398086	0.175112	0.000028
Br136	Br	0.898086	0.675112	0.500028
Br137	Br	0.832088	-0.053072	-0.200223
Br138	Br	1.332088	0.446928	0.299777
Br139	Br	1.101712	-0.205898	-0.000020
Br140	Br	1.601712	0.294102	0.499980
H141	H	0.324955	0.143726	0.000034
H142	H	0.824955	0.643726	0.500034
Br143	Br	0.802539	-0.078307	-0.594264
Br144	Br	1.302539	0.421693	-0.094264
Br145	Br	1.085281	-0.396987	0.000003
Br146	Br	1.585281	0.103013	0.500003
H147	H	1.097444	-0.600099	0.000004
H148	H	1.597444	-0.100099	0.500004
Br149	Br	1.121751	-0.776917	0.000003
Br150	Br	1.621751	-0.276917	0.500003
Br151	Br	0.800882	-0.518692	0.000036
Br152	Br	1.300882	-0.018692	0.500036
Br153	Br	0.747991	-0.329852	0.000030
Br154	Br	1.247991	0.170148	0.500030
Br155	Br	1.054123	0.137352	-0.799760
Br156	Br	1.554123	0.637352	-0.299760
Br157	Br	1.044087	0.128813	-0.594258
Br158	Br	1.544087	0.628813	-0.094258
Br159	Br	1.083628	0.162634	-0.405728
Br160	Br	1.583628	0.662634	0.094272
H161	H	0.801368	-0.168494	0.000011
H162	H	1.301368	0.331506	0.500011
Br163	Br	0.812535	-0.069725	-0.799776
Br164	Br	1.312535	0.430275	-0.299776
H165	H	1.036498	-0.462447	0.000031
H166	H	1.536498	0.037553	0.500031
H167	H	0.849666	-0.453236	0.000014
H168	H	1.349666	0.046764	0.500014
H169	H	1.009856	0.099418	-0.514781
H170	H	1.509856	0.599418	-0.014781
H171	H	0.876307	-0.015089	-0.485202
H172	H	1.376307	0.484911	0.014798
