data_functionalizedCrystal
_audit_creation_method	'MofGen! by Chris Wilmer'
_symmetry_space_group_name_H-M	'P1'
_symmetry_Int_Tables_number	1
_symmetry_cell_setting	triclinic
loop_
_symmetry_equiv_pos_as_xyz
  x,y,z
_cell_length_a	19.077236
_cell_length_b	15.297327
_cell_length_c	19.076919
_cell_angle_alpha	101.510342
_cell_angle_beta	89.887323
_cell_angle_gamma	102.353600
loop_
_atom_site_label
_atom_site_type_symbol
_atom_site_fract_x
_atom_site_fract_y
_atom_site_fract_z
Zn1	Zn	1.011717	-0.332096	-0.483479
Zn2	Zn	1.345050	0.001237	-0.150145
Zn3	Zn	1.678383	0.334571	0.183188
Zn4	Zn	0.995795	-0.478709	-0.384927
Zn5	Zn	1.329129	-0.145375	-0.051594
Zn6	Zn	1.662462	0.187958	0.281739
Zn7	Zn	0.899000	-0.331616	-0.361197
Zn8	Zn	1.232333	0.001717	-0.027863
Zn9	Zn	1.565666	0.335050	0.305470
Zn10	Zn	0.871903	-0.490914	-0.499244
Zn11	Zn	1.205236	-0.157580	-0.165910
Zn12	Zn	1.538569	0.175753	0.167423
O13	O	0.944604	-0.408334	-0.432212
O14	O	1.277937	-0.075000	-0.098878
O15	O	1.611270	0.258333	0.234455
O16	O	1.108627	-0.346637	-0.473739
O17	O	1.441960	-0.013304	-0.140406
O18	O	1.775293	0.320029	0.192927
O19	O	0.987632	-0.453888	-0.282762
O20	O	1.320965	-0.120554	0.050571
O21	O	1.654299	0.212779	0.383904
O22	O	0.931955	-0.203656	-0.360888
O23	O	1.265288	0.129678	-0.027555
O24	O	1.598622	0.463011	0.305778
O25	O	1.096929	-0.454353	-0.401334
O26	O	1.430262	-0.121020	-0.068001
O27	O	1.763596	0.212314	0.265332
O28	O	1.014768	-0.204008	-0.450728
O29	O	1.348101	0.129325	-0.117395
O30	O	1.681435	0.462659	0.215938
O31	O	0.916517	-0.345820	-0.265327
O32	O	1.249850	-0.012486	0.068006
O33	O	1.583183	0.320847	0.401339
O34	O	0.796383	-0.357655	-0.376175
O35	O	1.129717	-0.024321	-0.042842
O36	O	1.463050	0.309012	0.290492
O37	O	0.885772	-0.475155	-0.596170
O38	O	1.219106	-0.141822	-0.262836
O39	O	1.552439	0.191512	0.070497
O40	O	0.776475	-0.474690	-0.477598
O41	O	1.109809	-0.141356	-0.144264
O42	O	1.443142	0.191977	0.189069
O43	O	0.988493	-0.358472	-0.584587
O44	O	1.321827	-0.025139	-0.251254
O45	O	1.655160	0.308194	0.082080
O46	O	0.961357	-0.608352	-0.416621
O47	O	1.294691	-0.275019	-0.083288
O48	O	1.628024	0.058315	0.250046
O49	O	0.870334	-0.617319	-0.500609
O50	O	1.203667	-0.283986	-0.167275
O51	O	1.537001	0.049348	0.166058
C52	C	0.760754	-0.417445	-0.426023
C53	C	1.094087	-0.084112	-0.092689
C54	C	1.427421	0.249221	0.240644
C55	C	0.682098	-0.421366	-0.423394
C56	C	1.015432	-0.088033	-0.090061
C57	C	1.348765	0.245300	0.243272
C58	C	0.651220	-0.367223	-0.459938
C59	C	0.984554	-0.033890	-0.126605
C60	C	1.317887	0.299444	0.206728
C61	C	0.577316	-0.370903	-0.457462
C62	C	0.910649	-0.037569	-0.124129
C63	C	1.243983	0.295764	0.209204
C64	C	0.534290	-0.428730	-0.418446
C65	C	0.867623	-0.095397	-0.085113
C66	C	1.200957	0.237936	0.248221
C67	C	0.565173	-0.482876	-0.381898
C68	C	0.898506	-0.149542	-0.048564
C69	C	1.231840	0.183791	0.284769
C70	C	0.639077	-0.479191	-0.384370
C71	C	0.972410	-0.145857	-0.051037
C72	C	1.305744	0.187476	0.282297
C73	C	0.312610	-0.445750	-0.406997
C74	C	0.645943	-0.112416	-0.073664
C75	C	0.979276	0.220917	0.259670
C76	C	0.238701	-0.449433	-0.404529
C77	C	0.572034	-0.116099	-0.071196
C78	C	0.905367	0.217234	0.262137
C79	C	0.250849	-0.337458	-0.480093
C80	C	0.584182	-0.004124	-0.146760
C81	C	0.917516	0.329209	0.186574
C82	C	0.324753	-0.333782	-0.482565
C83	C	0.658086	-0.000449	-0.149232
C84	C	0.991420	0.332884	0.184101
C85	C	0.355630	-0.387924	-0.446014
C86	C	0.688964	-0.054590	-0.112681
C87	C	1.022297	0.278743	0.220653
N88	N	0.458747	-0.432495	-0.415916
N89	N	0.792081	-0.099162	-0.082583
N90	N	1.125414	0.234172	0.250751
N91	N	0.431173	-0.384154	-0.448540
N92	N	0.764506	-0.050820	-0.115207
N93	N	1.097839	0.282513	0.218126
C94	C	0.911196	-0.646031	-0.462917
C95	C	1.244529	-0.312697	-0.129583
C96	C	1.577863	0.020636	0.203750
C97	C	0.896968	-0.747717	-0.476078
C98	C	1.230301	-0.414383	-0.142745
C99	C	1.563634	-0.081050	0.190588
C100	C	1.046575	-1.015551	-0.338395
C101	C	1.379909	-0.682217	-0.005061
C102	C	1.713242	-0.348884	0.328272
C103	C	1.059943	-0.920012	-0.326025
C104	C	1.393277	-0.586678	0.007308
C105	C	1.726610	-0.253345	0.340642
C106	C	1.019201	-0.876933	-0.363537
C107	C	1.352534	-0.543600	-0.030204
C108	C	1.685868	-0.210266	0.303129
C109	C	0.965088	-0.929403	-0.413421
C110	C	1.298421	-0.596070	-0.080088
C111	C	1.631754	-0.262736	0.253245
C112	C	0.951715	-1.024952	-0.425788
C113	C	1.285048	-0.691618	-0.092455
C114	C	1.618381	-0.358285	0.240879
C115	C	0.924340	-0.886334	-0.450931
C116	C	1.257673	-0.553001	-0.117597
C117	C	1.591007	-0.219667	0.215736
C118	C	0.870227	-0.938804	-0.500815
C119	C	1.203560	-0.605471	-0.167481
C120	C	1.536893	-0.272137	0.165852
C121	C	0.856857	-1.034343	-0.513179
C122	C	1.190190	-0.701010	-0.179846
C123	C	1.523523	-0.367676	0.153487
C124	C	0.897599	-1.077421	-0.475667
C125	C	1.230932	-0.744088	-0.142334
C126	C	1.564266	-0.410755	0.191000
C127	C	0.937713	-0.790786	-0.438564
C128	C	1.271046	-0.457452	-0.105231
C129	C	1.604380	-0.124119	0.228103
C130	C	0.842852	-0.800186	-0.525957
C131	C	1.176186	-0.466853	-0.192624
C132	C	1.509519	-0.133520	0.140709
C133	C	0.829484	-0.895725	-0.538327
C134	C	1.162818	-0.562392	-0.204994
C135	C	1.496151	-0.229059	0.128340
C136	C	1.129171	-0.399187	-0.438425
C137	C	1.462504	-0.065854	-0.105092
C138	C	1.795838	0.267479	0.228241
C139	C	1.207823	-0.395289	-0.441073
C140	C	1.541156	-0.061956	-0.107740
C141	C	1.874489	0.271377	0.225593
C142	C	0.935886	-0.418229	-0.616770
C143	C	1.269220	-0.084895	-0.283437
C144	C	1.602553	0.248438	0.049897
C145	C	0.932171	-0.422445	-0.695418
C146	C	1.265505	-0.089112	-0.362085
C147	C	1.598838	0.244222	-0.028751
C148	C	0.978160	-0.169708	-0.401403
C149	C	1.311493	0.163625	-0.068069
C150	C	1.644827	0.496958	0.265264
C151	C	0.992460	-0.068021	-0.388274
C152	C	1.325793	0.265313	-0.054940
C153	C	1.659127	0.598646	0.278393
C154	C	0.983905	-0.363678	-0.726338
C155	C	1.317238	-0.030345	-0.393005
C156	C	1.650571	0.302988	-0.059671
C157	C	0.980406	-0.367637	-0.800235
C158	C	1.313740	-0.034304	-0.466902
C159	C	1.647073	0.299029	-0.133569
C160	C	0.925177	-0.430368	-0.843212
C161	C	1.258510	-0.097035	-0.509879
C162	C	1.591843	0.236299	-0.176545
C163	C	0.873438	-0.489137	-0.812287
C164	C	1.206772	-0.155804	-0.478954
C165	C	1.540105	0.177529	-0.145620
C166	C	0.876935	-0.485173	-0.738390
C167	C	1.210268	-0.151840	-0.405057
C168	C	1.543601	0.181493	-0.071724
C169	C	0.908983	-0.448733	-1.064866
C170	C	1.242316	-0.115400	-0.731533
C171	C	1.575649	0.217933	-0.398199
C172	C	0.905492	-0.452695	-1.138768
C173	C	1.238825	-0.119362	-0.805434
C174	C	1.572158	0.213972	-0.472101
C175	C	1.012459	-0.331193	-1.126711
C176	C	1.345793	0.002140	-0.793377
C177	C	1.679126	0.335473	-0.460044
C178	C	1.015953	-0.327239	-1.052814
C179	C	1.349286	0.006095	-0.719480
C180	C	1.682620	0.339428	-0.386147
C181	C	0.964213	-0.386004	-1.021894
C182	C	1.297546	-0.052671	-0.688561
C183	C	1.630879	0.280662	-0.355228
N184	N	0.921601	-0.434418	-0.918747
N185	N	1.254934	-0.101085	-0.585414
N186	N	1.588267	0.232249	-0.252081
N187	N	0.967786	-0.381949	-0.946360
N188	N	1.301120	-0.048616	-0.613026
N189	N	1.634453	0.284717	-0.279693
C190	C	0.953337	-0.398409	-0.248364
C191	C	1.286670	-0.065076	0.084970
C192	C	1.620004	0.268257	0.418303
C193	C	0.957225	-0.393928	-0.169688
C194	C	1.290558	-0.060595	0.163646
C195	C	1.623892	0.272739	0.496979
H196	H	0.359780	-0.286696	-0.514339
H197	H	0.693113	0.046637	-0.181006
H198	H	1.026447	0.379971	0.152327
F199	F	0.345465	-0.503356	-0.368081
F200	F	0.678798	-0.170023	-0.034748
F201	F	1.012131	0.163310	0.298585
H202	H	0.866860	-0.496598	-1.039703
H203	H	1.200194	-0.163264	-0.706370
H204	H	1.533527	0.170069	-0.373036
H205	H	0.828467	-0.540211	-0.847284
H206	H	1.161800	-0.206877	-0.513951
H207	H	1.495134	0.126456	-0.180618
H208	H	0.981772	-0.748073	-0.397948
H209	H	1.315106	-0.414739	-0.064615
H210	H	1.648439	-0.081406	0.268719
H211	H	1.028880	-0.312599	-0.691351
H212	H	1.362214	0.020734	-0.358018
H213	H	1.695547	0.354068	-0.024685
F214	F	0.519380	-0.544416	-0.340369
F215	F	0.852714	-0.211082	-0.007036
F216	F	1.186047	0.122251	0.326297
F217	F	1.117537	-0.864176	-0.272942
F218	F	1.450870	-0.530843	0.060391
F219	F	1.784204	-0.197509	0.393724
F220	F	0.671939	-0.536818	-0.345476
F221	F	1.005272	-0.203485	-0.012142
F222	F	1.338605	0.129849	0.321191
F223	F	0.799484	-0.754344	-0.565880
F224	F	1.132818	-0.421011	-0.232546
F225	F	1.466151	-0.087678	0.100787
H226	H	1.030088	-0.799141	-0.353462
H227	H	1.363421	-0.465807	-0.020129
H228	H	1.696754	-0.132474	0.313204
H229	H	0.225701	-0.293378	-0.509850
H230	H	0.559034	0.039956	-0.176517
H231	H	0.892367	0.373289	0.156817
H232	H	0.860515	-0.503780	-1.173758
H233	H	1.193848	-0.170447	-0.840425
H234	H	1.527181	0.162887	-0.507092
H235	H	0.886719	-1.155217	-0.485738
H236	H	1.220053	-0.821884	-0.152404
H237	H	1.553386	-0.488550	0.180929
H238	H	0.834802	-0.533019	-0.713216
H239	H	1.168135	-0.199685	-0.379882
H240	H	1.501469	0.133648	-0.046549
F241	F	1.089928	-1.061403	-0.298476
F242	F	1.423262	-0.728070	0.034858
F243	F	1.756595	-0.394737	0.368191
F244	F	0.697005	-0.305679	-0.501469
F245	F	1.030338	0.027655	-0.168135
F246	F	1.363672	0.360988	0.165198
F247	F	0.799261	-1.090183	-0.566267
F248	F	1.132594	-0.756850	-0.232934
F249	F	1.465928	-0.423516	0.100400
H250	H	0.552179	-0.326815	-0.487222
H251	H	0.885512	0.006518	-0.153888
H252	H	1.218845	0.339851	0.179445
H253	H	0.785424	-0.938460	-0.578943
H254	H	1.118758	-0.605127	-0.245609
H255	H	1.452091	-0.271793	0.087724
F256	F	1.035488	-0.305120	-0.833144
F257	F	1.368821	0.028214	-0.499810
F258	F	1.702155	0.361547	-0.166477
F259	F	1.074736	-0.260472	-1.007079
F260	F	1.408069	0.072861	-0.673746
F261	F	1.741403	0.406194	-0.340413
F262	F	0.192907	-0.511001	-0.363016
F263	F	0.526240	-0.177668	-0.029683
F264	F	0.859574	0.155665	0.303650
H265	H	1.054583	-0.283348	-1.151893
H266	H	1.387916	0.049985	-0.818560
H267	H	1.721249	0.383318	-0.485226
