data_functionalizedCrystal
_audit_creation_method	'MofGen! by Chris Wilmer'
_symmetry_space_group_name_H-M	'P1'
_symmetry_Int_Tables_number	1
_symmetry_cell_setting	triclinic
loop_
_symmetry_equiv_pos_as_xyz
  x,y,z
_cell_length_a	12.594517
_cell_length_b	18.050589
_cell_length_c	12.594505
_cell_angle_alpha	89.943659
_cell_angle_beta	89.957004
_cell_angle_gamma	90.028021
loop_
_atom_site_label
_atom_site_type_symbol
_atom_site_fract_x
_atom_site_fract_y
_atom_site_fract_z
Zn1	Zn	1.627405	-0.295431	-0.601865
Zn2	Zn	1.627190	-0.419697	-0.423887
Zn3	Zn	1.449341	-0.295525	-0.423893
Zn4	Zn	1.449353	-0.419583	-0.601818
O5	O	1.538322	-0.357559	-0.512866
O6	O	1.776322	-0.311923	-0.578273
O7	O	1.603504	-0.403312	-0.274942
O8	O	1.473047	-0.191588	-0.447524
O9	O	1.776165	-0.403221	-0.447514
O10	O	1.603869	-0.191519	-0.578278
O11	O	1.472839	-0.312083	-0.274946
O12	O	1.300397	-0.311973	-0.447478
O13	O	1.473067	-0.403027	-0.750770
O14	O	1.300406	-0.403118	-0.578198
O15	O	1.603880	-0.311813	-0.750804
O16	O	1.603515	-0.523607	-0.447468
O17	O	1.472859	-0.523523	-0.578193
C18	C	1.261781	-0.357544	-0.512834
C19	C	1.143476	-0.357556	-0.512846
C20	C	1.074187	-0.307914	-0.441883
C21	C	1.003346	-0.375665	-0.415704
C22	C	1.003518	-0.289838	-0.539043
C23	C	1.074193	-0.425343	-0.486616
C24	C	1.074372	-0.339469	-0.610001
C25	C	1.003562	-0.407267	-0.583859
C26	C	1.538194	-0.550511	-0.512848
C27	C	1.538236	-0.633057	-0.512876
C28	C	1.467255	-0.832489	-0.583939
C29	C	1.441270	-0.881968	-0.486814
C30	C	1.538341	-0.784187	-0.512890
C31	C	1.564378	-0.881790	-0.610026
C32	C	1.538440	-0.930172	-0.512912
C33	C	1.512305	-0.832579	-0.415713
C34	C	1.635458	-0.832396	-0.538991
C35	C	1.609510	-0.881853	-0.441799
C36	C	1.538281	-0.700089	-0.512879
C37	C	1.538500	-1.014269	-0.512912
C38	C	1.815943	-0.357575	-0.512898
C39	C	1.934249	-0.357581	-0.512912
C40	C	1.538499	-0.357397	-0.790487
C41	C	1.538574	-0.357328	-0.908793
C42	C	1.538480	-0.163853	-0.512907
C43	C	1.538548	-0.081308	-0.512924
C44	C	1.538208	-0.357667	-0.236324
C45	C	1.538339	-0.357527	-0.118019
C46	C	1.466917	-0.308136	0.021941
C47	C	1.441451	-0.376087	-0.048567
C48	C	1.563756	-0.289585	-0.049083
C49	C	1.513059	-0.425314	0.022258
C50	C	1.635409	-0.338765	0.021748
C51	C	1.609981	-0.406763	-0.048728
H52	H	0.972151	-0.390979	-0.333570
H53	H	1.105198	-0.265975	-0.381798
C54	C	1.331955	-0.988932	-0.456405
C55	C	1.330460	-0.911367	-0.457012
H56	H	1.263545	-1.007078	-0.438006
H57	H	1.350899	-1.006499	-0.524909
H58	H	1.382423	-1.005821	-0.405874
H59	H	1.279998	-0.894478	-0.507549
H60	H	1.311503	-0.893793	-0.388498
H61	H	1.105108	-0.482639	-0.464395
C62	C	1.745220	-0.725412	-0.567530
C63	C	1.746242	-0.802976	-0.568819
H64	H	1.813616	-0.707250	-0.585946
H65	H	1.694522	-0.707781	-0.617290
H66	H	1.726844	-0.708605	-0.498470
H67	H	1.764610	-0.819784	-0.637882
H68	H	1.796956	-0.820614	-0.519057
H69	H	1.669667	-0.903391	-0.381655
C70	C	0.850438	-0.213522	-0.569569
C71	C	0.961605	-0.212515	-0.568923
H72	H	0.824567	-0.165784	-0.588001
H73	H	0.826267	-0.248731	-0.620078
H74	H	0.825089	-0.226724	-0.501055
H75	H	0.986954	-0.199318	-0.637439
H76	H	0.985787	-0.177295	-0.518411
C77	C	1.639953	-0.516205	-0.152695
C78	C	1.691647	-0.463098	-0.090368
H79	H	1.690369	-0.550982	-0.178408
H80	H	1.588217	-0.541160	-0.110986
H81	H	1.606230	-0.492489	-0.210973
H82	H	1.725364	-0.486813	-0.032086
H83	H	1.743403	-0.438141	-0.132079
C84	C	1.332098	-0.397924	-0.201460
C85	C	1.330770	-0.397399	-0.090292
H86	H	1.263768	-0.411079	-0.227215
H87	H	1.350567	-0.350072	-0.226919
H88	H	1.382851	-0.432989	-0.225636
H89	H	1.280022	-0.362330	-0.066115
H90	H	1.312288	-0.445258	-0.064821
H91	H	1.491568	-0.482704	0.053456
H92	H	1.490227	-0.811051	-0.333553
H93	H	1.586361	-0.903408	-0.692164
H94	H	1.406374	-0.266504	0.052971
C95	C	1.080920	-0.247783	-0.748088
C96	C	1.116530	-0.318770	-0.720844
H97	H	1.106955	-0.234998	-0.816514
H98	H	1.005513	-0.247199	-0.748764
H99	H	1.106159	-0.213009	-0.697467
H100	H	1.091284	-0.353545	-0.771460
H101	H	1.191952	-0.319360	-0.720175
H102	H	0.972746	-0.449307	-0.643898
C103	C	1.284390	-0.828249	-0.637348
C104	C	1.385990	-0.803219	-0.664934
H105	H	1.234220	-0.810173	-0.687344
H106	H	1.283424	-0.880864	-0.637468
H107	H	1.266616	-0.810671	-0.568526
H108	H	1.403767	-0.820802	-0.733753
H109	H	1.386958	-0.750593	-0.664825
H110	H	1.717378	-0.322956	0.052666
H111	H	1.585156	-0.232211	-0.080408
