data_functionalizedCrystal
_audit_creation_method	'MofGen! by Chris Wilmer'
_symmetry_space_group_name_H-M	'P1'
_symmetry_Int_Tables_number	1
_symmetry_cell_setting	triclinic
loop_
_symmetry_equiv_pos_as_xyz
  x,y,z
_cell_length_a	18.215407
_cell_length_b	12.759400
_cell_length_c	18.215398
_cell_angle_alpha	89.977980
_cell_angle_beta	89.980536
_cell_angle_gamma	90.015132
loop_
_atom_site_label
_atom_site_type_symbol
_atom_site_fract_x
_atom_site_fract_y
_atom_site_fract_z
Zn1	Zn	1.125121	-0.418291	-0.416133
Zn2	Zn	1.125053	-0.593980	-0.293074
Zn3	Zn	1.002055	-0.418317	-0.293081
Zn4	Zn	1.002042	-0.593930	-0.416099
O5	O	1.063568	-0.506129	-0.354597
O6	O	1.228097	-0.441606	-0.399821
O7	O	1.108713	-0.570711	-0.190091
O8	O	1.018414	-0.271293	-0.309421
O9	O	1.228046	-0.570685	-0.309410
O10	O	1.108831	-0.271273	-0.399827
O11	O	1.018347	-0.441652	-0.190096
O12	O	0.899069	-0.441603	-0.309388
O13	O	1.018392	-0.570598	-0.519088
O14	O	0.899059	-0.570624	-0.399769
O15	O	1.108818	-0.441557	-0.519113
O16	O	1.108701	-0.740995	-0.309377
O17	O	1.018325	-0.740957	-0.399763
C18	C	0.872361	-0.506111	-0.354576
C19	C	0.790562	-0.506129	-0.354584
C20	C	0.602383	-0.573416	-0.401587
C21	C	0.525524	-0.573420	-0.401596
C22	C	0.525504	-0.438862	-0.307623
C23	C	0.602362	-0.438854	-0.307618
C24	C	0.640799	-0.506137	-0.354599
C25	C	0.487083	-0.506148	-0.354613
C26	C	0.403749	-0.506151	-0.354623
C27	C	0.724138	-0.506133	-0.354590
C28	C	1.063524	-0.779097	-0.354582
C29	C	1.063573	-0.895873	-0.354600
C30	C	1.110683	-0.950720	-0.307588
C31	C	1.110729	-1.060444	-0.307610
C32	C	1.016546	-1.060465	-0.401659
C33	C	1.016505	-0.950743	-0.401639
C34	C	1.157751	-0.895850	-0.260548
C35	C	1.204865	-0.950697	-0.213532
C36	C	1.204910	-1.060421	-0.213554
C37	C	1.157841	-1.115298	-0.260593
C38	C	1.255521	-0.506148	-0.354618
C39	C	1.337319	-0.506156	-0.354628
C40	C	1.063611	-0.506069	-0.546550
C41	C	1.063630	-0.506043	-0.628349
C42	C	1.063632	-0.232096	-0.354628
C43	C	1.063659	-0.115320	-0.354642
C44	C	1.110717	-0.573115	-0.893409
C45	C	1.110706	-0.573151	-0.816550
C46	C	1.016598	-0.438769	-0.816538
C47	C	1.016606	-0.438739	-0.893395
C48	C	1.063670	-0.505910	-0.931829
C49	C	1.063651	-0.505977	-0.778112
C50	C	1.063638	-0.506016	-0.694779
C51	C	1.063682	-0.505873	-1.015168
C52	C	1.063567	-0.506114	-0.163391
C53	C	1.063691	-0.505844	-0.081592
H54	H	0.494200	-0.384084	-0.269372
Cl55	Cl	1.169852	-0.657642	-0.768253
Cl56	Cl	1.264144	-1.129368	-0.154456
H57	H	0.978282	-0.384080	-0.785236
Cl58	Cl	0.957445	-0.354262	-0.941698
Cl59	Cl	1.169880	-0.657561	-0.941722
Cl60	Cl	0.957280	-0.881788	-0.460743
Cl61	Cl	1.157903	-0.757912	-0.260722
Cl62	Cl	0.650701	-0.657996	-0.460651
Cl63	Cl	0.477233	-0.658001	-0.460670
H64	H	0.633641	-0.384061	-0.269355
H65	H	1.157888	-1.204643	-0.260614
Cl66	Cl	1.264040	-0.881710	-0.154407
H67	H	0.978224	-1.105155	-0.439955
