data_functionalizedCrystal
_audit_creation_method	'MofGen! by Chris Wilmer'
_symmetry_space_group_name_H-M	'P1'
_symmetry_Int_Tables_number	1
_symmetry_cell_setting	triclinic
loop_
_symmetry_equiv_pos_as_xyz
  x,y,z
_cell_length_a	10.654550
_cell_length_b	11.026607
_cell_length_c	9.130313
_cell_angle_alpha	89.997484
_cell_angle_beta	89.999724
_cell_angle_gamma	96.535474
loop_
_atom_site_label
_atom_site_type_symbol
_atom_site_fract_x
_atom_site_fract_y
_atom_site_fract_z
O1	O	1.704908	0.170768	-0.121683
O2	O	1.342961	0.187037	-0.121709
O3	O	1.493937	0.001997	-0.121693
O4	O	1.553932	0.355808	-0.121699
O5	O	1.493922	0.001991	0.121906
O6	O	1.342947	0.187032	0.121889
O7	O	1.704894	0.170762	0.121916
Cu8	Cu	1.523919	0.178896	0.144145
Cu9	Cu	1.523936	0.178903	-0.143939
O10	O	1.553918	0.355802	0.121899
C11	C	1.295897	0.185840	0.000087
C12	C	1.155678	0.182266	0.000076
C13	C	1.099841	0.291214	0.000079
C14	C	0.968090	0.287849	0.000104
C15	C	0.948022	0.066576	0.000119
C16	C	1.079771	0.069943	0.000104
C17	C	1.482861	-0.043310	0.000104
C18	C	1.449867	-0.178302	0.000096
C19	C	1.540970	-0.251341	0.000101
C20	C	1.506871	-0.390862	0.000093
C21	C	1.751958	0.171959	0.000116
C22	C	1.892177	0.175533	0.000117
C23	C	1.564993	0.401109	0.000099
C24	C	1.597988	0.536101	0.000097
N25	N	1.523916	0.178891	0.346768
N26	N	1.523947	0.178898	-0.346561
C27	C	1.590804	0.096990	0.423427
C28	C	1.590816	0.096990	0.576764
C29	C	1.457050	0.260803	0.576769
C30	C	1.457031	0.260796	0.423435
H31	H	1.125232	-0.018782	0.000106
C32	C	1.664372	0.006901	0.339091
H33	H	1.654795	0.018634	0.236790
H34	H	1.632379	-0.074369	0.364228
H35	H	1.751342	0.020878	0.364212
C36	C	1.183340	0.414760	0.000060
H37	H	1.269803	0.401165	0.000036
H38	H	1.165879	0.459667	0.085008
H39	H	1.165861	0.459663	-0.084899
H40	H	1.645281	0.030298	0.639175
H41	H	1.402557	0.327490	0.361015
C42	C	0.906675	0.407693	0.000096
H43	H	0.970756	0.475065	0.000066
H44	H	0.855705	0.410987	0.085050
H45	H	0.855691	0.410973	-0.084857
C46	C	0.864521	-0.056968	0.000131
H47	H	0.778059	-0.043372	0.000124
H48	H	0.881993	-0.101879	0.085076
H49	H	0.881988	-0.101868	-0.084831
C50	C	1.737470	-0.408862	0.000106
H51	H	1.790203	-0.472781	0.000097
H52	H	1.754128	-0.359934	0.085054
H53	H	1.754132	-0.359931	-0.084853
H54	H	1.644212	-0.210580	0.000117
C55	C	1.367392	-0.445908	0.000081
H56	H	1.362771	-0.532460	0.000087
H57	H	1.326683	-0.419611	-0.084867
H58	H	1.326679	-0.419626	0.085040
H59	H	1.346625	-0.219062	0.000079
H60	H	1.402596	0.327491	0.639206
