data_functionalizedCrystal
_audit_creation_method	'MofGen! by Chris Wilmer'
_symmetry_space_group_name_H-M	'P1'
_symmetry_Int_Tables_number	1
_symmetry_cell_setting	triclinic
loop_
_symmetry_equiv_pos_as_xyz
  x,y,z
_cell_length_a	16.992694
_cell_length_b	8.559649
_cell_length_c	16.053802
_cell_angle_alpha	92.204030
_cell_angle_beta	87.249047
_cell_angle_gamma	80.223444
loop_
_atom_site_label
_atom_site_type_symbol
_atom_site_fract_x
_atom_site_fract_y
_atom_site_fract_z
O1	O	1.023824	0.329978	-0.069320
O2	O	0.795762	0.326287	-0.069345
O3	O	0.929885	0.098096	-0.069329
O4	O	0.889700	0.558168	-0.069335
O5	O	0.922506	0.110601	0.069529
O6	O	0.788383	0.338792	0.069513
O7	O	1.016444	0.342483	0.069538
Zn8	Zn	0.901242	0.342623	0.091572
Zn9	Zn	0.910964	0.326147	-0.091379
O10	O	0.882321	0.570673	0.069523
C11	C	0.763145	0.327794	0.000081
C12	C	0.676954	0.313635	0.000072
C13	C	0.618488	0.450242	0.000071
C14	C	0.537502	0.436931	0.000082
C15	C	0.514985	0.287010	0.000089
C16	C	0.573459	0.150392	0.000093
C17	C	0.654442	0.163706	0.000087
C18	C	0.274709	0.231830	0.000112
C19	C	0.193719	0.218527	0.000115
C20	C	0.157768	0.505067	0.000106
C21	C	0.238755	0.518367	0.000096
C22	C	0.297221	0.381749	0.000104
N23	N	0.432206	0.273399	0.000099
N24	N	0.379998	0.395362	0.000100
C25	C	0.929241	0.045208	0.000098
C26	C	0.938306	-0.131015	0.000095
C27	C	1.049061	0.340975	0.000110
C28	C	1.135252	0.355134	0.000114
C29	C	0.882965	0.623562	0.000093
C30	C	0.873901	0.799784	0.000091
N31	N	0.894612	0.353867	0.216432
N32	N	0.917601	0.314891	-0.216239
C33	C	0.951698	0.256811	0.260132
C34	C	0.947067	0.264692	0.347539
C35	C	0.885353	0.369639	0.391243
C36	C	0.828261	0.466699	0.347536
C37	C	0.832890	0.458808	0.260132
C38	C	0.865138	0.404060	0.652650
C39	C	0.860515	0.411947	0.740061
C40	C	0.979321	0.209937	0.740057
C41	C	0.983946	0.202063	0.652651
C42	C	0.926852	0.299117	0.608952
N43	N	0.880619	0.377701	0.480586
N44	N	0.931583	0.291046	0.519610
H45	H	0.555119	0.028324	0.000110
O46	O	1.012416	-0.221007	-0.000006
C47	C	1.057995	-0.193168	-0.071931
H48	H	1.032678	-0.072272	-0.095915
H49	H	1.122745	-0.195215	-0.055751
H50	H	1.055421	-0.289502	-0.122284
O51	O	1.011681	0.154727	0.217811
C52	C	1.061083	0.070781	0.275130
H53	H	1.025992	0.070505	0.337439
H54	H	1.081918	-0.056603	0.249885
H55	H	1.115286	0.130555	0.284415
O56	O	0.711139	0.030840	0.000047
C57	C	0.673901	-0.104338	0.000073
H58	H	0.612296	-0.074197	-0.026213
H59	H	0.712010	-0.204323	-0.040241
H60	H	0.667286	-0.143805	0.066691
H61	H	0.993551	0.185660	0.383119
H62	H	0.257081	0.640447	0.000080
O63	O	1.043834	0.099592	0.610424
C64	C	1.039293	-0.056835	0.632078
H65	H	0.975693	-0.063062	0.655996
H66	H	1.056139	-0.140859	0.574768
H67	H	1.082374	-0.093075	0.682980
O68	O	1.034672	0.115487	0.782547
C69	C	0.996214	0.016888	0.833132
H70	H	0.936413	0.003933	0.806799
H71	H	1.035494	-0.104969	0.834130
H72	H	0.985639	0.071969	0.899372
O73	O	0.100870	0.637611	0.000143
C74	C	0.024563	0.593720	0.000128
H75	H	0.027558	0.471143	0.026418
H76	H	-0.019831	0.683790	0.040444
H77	H	0.004259	0.590737	-0.066488
O78	O	0.171981	0.072766	0.000159
C79	C	0.240951	-0.044965	0.000142
H80	H	0.292016	0.008884	0.026432
H81	H	0.227981	-0.145378	0.040457
H82	H	0.258626	-0.093603	-0.066474
H83	H	0.636813	0.572324	0.000064
O84	O	0.800483	0.513919	0.782387
C85	C	0.751090	0.597911	0.725076
H86	H	0.757431	0.527170	0.662773
H87	H	0.686163	0.616342	0.750340
H88	H	0.769733	0.718137	0.715772
O89	O	0.809792	0.498432	0.610121
C90	C	0.848244	0.597093	0.559570
H91	H	0.913619	0.540588	0.546461
H92	H	0.817507	0.612473	0.498114
H93	H	0.844698	0.717995	0.593254
H94	H	0.322304	0.120586	0.000119
H95	H	0.778008	0.552143	0.383125
H96	H	0.811826	-0.124646	0.000087
H97	H	0.786403	0.537840	0.224552
H98	H	0.489901	0.548171	0.000080
