data_functionalizedCrystal
_audit_creation_method	'MofGen! by Chris Wilmer'
_symmetry_space_group_name_H-M	'P1'
_symmetry_Int_Tables_number	1
_symmetry_cell_setting	triclinic
loop_
_symmetry_equiv_pos_as_xyz
  x,y,z
_cell_length_a	8.559649
_cell_length_b	8.559649
_cell_length_c	7.088929
_cell_angle_alpha	84.655305
_cell_angle_beta	95.325015
_cell_angle_gamma	69.778664
loop_
_atom_site_label
_atom_site_type_symbol
_atom_site_fract_x
_atom_site_fract_y
_atom_site_fract_z
O1	O	-2.108185	0.036318	0.158958
O2	O	-1.632699	-0.047464	0.158966
O3	O	-1.912333	0.232170	0.158956
O4	O	-1.828551	-0.243316	0.158967
O5	O	-1.949713	0.269616	-0.159020
O6	O	-1.670079	-0.010018	-0.159011
O7	O	-2.145565	0.073764	-0.159019
Cu8	Cu	-1.911235	0.035292	-0.188049
Cu9	Cu	-1.867029	-0.008992	0.187995
O10	O	-1.865930	-0.205870	-0.159010
C11	C	-1.591080	-0.035090	-0.000021
C12	C	-1.411380	-0.053990	-0.000018
N13	N	-1.942338	0.066441	-0.452538
C14	C	-1.937372	0.311202	-0.000029
C15	C	-1.956270	0.490900	-0.000021
C16	C	-2.187183	0.061390	-0.000028
C17	C	-2.366882	0.080288	-0.000018
C18	C	-1.840891	-0.284902	-0.000020
C19	C	-1.821992	-0.464602	-0.000016
N20	N	-1.835940	-0.040127	0.452484
H21	H	-1.311990	-0.183419	-0.000005
O22	O	-1.704524	-0.172069	-0.450207
C23	C	-1.567962	-0.473007	-0.388690
C24	C	-1.716896	-0.323736	-0.498990
H25	H	-1.577896	-0.595665	-0.428120
H26	H	-1.570478	-0.470596	-0.228458
H27	H	-1.445174	-0.463252	-0.427936
H28	H	-1.839761	-0.333393	-0.459904
H29	H	-1.714231	-0.326197	-0.659194
H30	H	-2.052625	0.176874	-0.534197
O31	O	-2.110805	0.609244	-0.000103
C32	C	-2.406862	0.666118	0.000018
C33	C	-2.231955	0.531916	0.000064
H34	H	-2.504854	0.603645	0.000193
H35	H	-2.438343	0.762687	-0.133084
H36	H	-2.406851	0.731373	0.133061
H37	H	-2.231835	0.466536	-0.132889
H38	H	-2.200545	0.435457	0.133255
O39	O	-1.667463	0.416963	0.000242
C40	C	-1.386040	0.281475	0.165045
C41	C	-1.560949	0.415685	0.164967
H42	H	-1.299886	0.280373	0.298231
H43	H	-1.330949	0.311762	0.032068
H44	H	-1.397842	0.152837	0.164947
H45	H	-1.549292	0.544374	0.165133
H46	H	-1.615977	0.385253	0.297933
H47	H	-1.466259	0.209707	-0.000012
