data_functionalizedCrystal
_audit_creation_method	'MofGen! by Chris Wilmer'
_symmetry_space_group_name_H-M	'P1'
_symmetry_Int_Tables_number	1
_symmetry_cell_setting	triclinic
loop_
_symmetry_equiv_pos_as_xyz
  x,y,z
_cell_length_a	6.394989
_cell_length_b	16.992694
_cell_length_c	16.053802
_cell_angle_alpha	92.750953
_cell_angle_beta	87.356563
_cell_angle_gamma	88.582967
loop_
_atom_site_label
_atom_site_type_symbol
_atom_site_fract_x
_atom_site_fract_y
_atom_site_fract_z
O1	O	-0.435392	-1.047996	-0.069315
O2	O	-0.430522	-0.819664	-0.069340
O3	O	-0.129434	-0.937071	-0.069328
O4	O	-0.736480	-0.930589	-0.069327
O5	O	-0.145934	-0.930608	0.069530
O6	O	-0.447022	-0.813201	0.069518
O7	O	-0.451892	-1.041533	0.069543
Zn8	Zn	-0.452077	-0.926341	0.091577
Zn9	Zn	-0.430337	-0.934856	-0.091374
O10	O	-0.752980	-0.924126	0.069531
C11	C	-0.432511	-0.787158	0.000086
C12	C	-0.413828	-0.699930	0.000076
N13	N	-0.466913	-0.920535	0.216437
N14	N	-0.415486	-0.940668	-0.216234
C15	C	-0.059648	-0.932558	0.000098
C16	C	0.177241	-0.928641	0.000097
C17	C	-0.449903	-1.074039	0.000115
C18	C	-0.468585	-1.161268	0.000119
C19	C	-0.594076	-0.651471	0.000077
C20	C	-0.576512	-0.569510	0.000089
C21	C	-0.378698	-0.536010	0.000093
C22	C	-0.198436	-0.584476	0.000095
C23	C	-0.216003	-0.666435	0.000089
C24	C	-0.305891	-0.291692	0.000116
C25	C	-0.288337	-0.209727	0.000119
C26	C	-0.666415	-0.194766	0.000114
C27	C	-0.683964	-0.276728	0.000103
C28	C	-0.503703	-0.325186	0.000109
N29	N	-0.360739	-0.452234	0.000102
N30	N	-0.521664	-0.408961	0.000106
C31	C	-0.338851	-0.970511	0.260136
C32	C	-0.349250	-0.966457	0.347542
C33	C	-0.487723	-0.912431	0.391248
C34	C	-0.615790	-0.862449	0.347543
C35	C	-0.605379	-0.866500	0.260138
C36	C	-0.533141	-0.894737	0.652656
C37	C	-0.543548	-0.890692	0.740067
C38	C	-0.277004	-0.994700	0.740060
C39	C	-0.266614	-0.998749	0.652654
C40	C	-0.394673	-0.948764	0.608956
N41	N	-0.498361	-0.908288	0.480591
N42	N	-0.384023	-0.952904	0.519615
H43	H	-0.755158	-0.678739	0.000073
H44	H	-0.127244	-0.182455	0.000122
H45	H	-0.037372	-0.557194	0.000111
H46	H	-0.723290	-0.530057	0.000088
O47	O	-0.841675	-0.147770	0.000225
C48	C	-1.167932	-0.106535	0.072192
C49	C	-0.969562	-0.159812	0.072156
H50	H	-1.271363	-0.116240	0.130350
H51	H	-1.257851	-0.121665	0.014118
H52	H	-1.121355	-0.042210	0.072156
H53	H	-1.015956	-0.224153	0.072221
H54	H	-0.879692	-0.144614	0.130224
O55	O	-0.204001	-1.022910	0.217740
C56	C	0.155259	-1.066585	0.191111
C57	C	0.002743	-1.007186	0.239145
H58	H	0.322440	-1.053904	0.208412
H59	H	0.140950	-1.060915	0.121118
H60	H	0.115263	-1.128955	0.208286
H61	H	0.042640	-0.944791	0.222039
H62	H	0.017080	-1.012925	0.309126
O63	O	-0.131911	-1.051249	0.610330
C64	C	0.131280	-1.154013	0.619551
C65	C	-0.021135	-1.094578	0.667586
H66	H	0.220851	-1.189072	0.665821
H67	H	0.246521	-1.121009	0.578662
H68	H	0.039178	-1.196000	0.578598
H69	H	0.070793	-1.052577	0.708584
H70	H	-0.136376	-1.127634	0.708422
O71	O	-0.130875	-0.338786	0.000259
C72	C	0.060119	-0.436704	0.072159
C73	C	-0.138167	-0.383391	0.072114
H74	H	0.054269	-0.472792	0.130239
H75	H	0.204589	-0.398719	0.072211
H76	H	0.068226	-0.478109	0.014017
H77	H	-0.146476	-0.341976	0.130245
H78	H	-0.282542	-0.421423	0.072018
O79	O	-0.657660	-0.846305	0.610128
C80	C	-0.928964	-0.836984	0.511493
C81	C	-0.788016	-0.891923	0.559590
H82	H	-1.034423	-0.873843	0.470634
H83	H	-0.827291	-0.798760	0.470523
H84	H	-1.029629	-0.797667	0.557768
H85	H	-0.687327	-0.931289	0.513374
H86	H	-0.889810	-0.930093	0.600572
O87	O	-0.224635	-1.014898	0.390024
C88	C	0.046464	-1.024245	0.488744
C89	C	-0.094510	-0.969292	0.440675
H90	H	0.151675	-0.987394	0.529720
H91	H	0.147352	-1.063542	0.442525
H92	H	-0.055394	-1.062488	0.529619
H93	H	0.007187	-0.930999	0.399799
H94	H	-0.195412	-0.930048	0.486939
H95	H	-0.172742	-1.035394	0.775647
H96	H	-0.069225	-0.705890	0.000088
H97	H	-0.845044	-0.303997	0.000090
O98	O	-0.678096	-0.838130	0.782395
C99	C	-0.941412	-0.735410	0.773183
C100	C	-0.789114	-0.794884	0.725143
H101	H	-1.031242	-0.700441	0.726916
H102	H	-0.849410	-0.693346	0.814089
H103	H	-1.056442	-0.768457	0.814119
H104	H	-0.674049	-0.761902	0.684161
H105	H	-0.881252	-0.836946	0.684289
O106	O	-0.750019	-0.809928	0.390090
C107	C	-0.788224	-0.698510	0.488751
C108	C	-0.635977	-0.757951	0.440635
H109	H	-0.696078	-0.656461	0.529615
H110	H	-0.903303	-0.731508	0.529717
H111	H	-0.878012	-0.663520	0.442488
H112	H	-0.546046	-0.792957	0.486838
H113	H	-0.521034	-0.724907	0.399656
O114	O	-0.729996	-0.817922	0.217815
C115	C	-0.995381	-0.714301	0.227041
C116	C	-0.854410	-0.769287	0.275073
H117	H	-1.095973	-0.674955	0.273313
H118	H	-1.100880	-0.751095	0.186132
H119	H	-0.893524	-0.676109	0.186108
H120	H	-0.956103	-0.807490	0.316052
H121	H	-0.748898	-0.732447	0.315929
