data_functionalizedCrystal
_audit_creation_method	'MofGen! by Chris Wilmer'
_symmetry_space_group_name_H-M	'P1'
_symmetry_Int_Tables_number	1
_symmetry_cell_setting	triclinic
loop_
_symmetry_equiv_pos_as_xyz
  x,y,z
_cell_length_a	8.559649
_cell_length_b	12.811415
_cell_length_c	7.088929
_cell_angle_alpha	78.355812
_cell_angle_beta	95.324505
_cell_angle_gamma	76.943994
loop_
_atom_site_label
_atom_site_type_symbol
_atom_site_fract_x
_atom_site_fract_y
_atom_site_fract_z
O1	O	2.103993	-0.023798	-0.154854
O2	O	1.638172	0.031104	-0.164377
O3	O	1.885551	-0.152139	-0.132596
O4	O	1.856615	0.159446	-0.186635
O5	O	1.918611	-0.176677	0.189635
O6	O	1.671232	0.006566	0.157854
O7	O	2.137053	-0.048336	0.167377
Cu8	Cu	1.907162	-0.023125	0.192037
Cu9	Cu	1.868064	0.005894	-0.189038
O10	O	1.889675	0.134908	0.135596
C11	C	1.595126	0.022996	-0.003984
C12	C	1.417606	0.035381	-0.006133
C13	C	1.901473	-0.203928	0.035369
C14	C	1.899643	-0.321684	0.055780
C15	C	1.860129	-0.516192	-0.257203
C16	C	1.858409	-0.626834	-0.238035
C17	C	1.894470	-0.653609	0.113283
C18	C	1.896191	-0.542967	0.094115
C19	C	1.879022	-0.474263	-0.091134
C20	C	1.880754	-0.363621	-0.110301
C21	C	1.916803	-0.390396	0.241015
C22	C	1.915083	-0.501038	0.260183
C23	C	2.180100	-0.040227	0.006979
C24	C	2.357618	-0.052611	0.009115
C25	C	1.873752	0.186697	-0.032374
C26	C	1.875581	0.304454	-0.052798
N27	N	1.934672	-0.043537	0.460066
N28	N	1.840566	0.026296	-0.457065
H29	H	1.866779	-0.307684	-0.261140
H30	H	1.333154	0.120191	-0.020860
H31	H	1.846164	-0.460254	-0.408040
H32	H	1.442077	-0.137425	0.023824
H33	H	1.843018	-0.660966	-0.373266
H34	H	1.908435	-0.709564	0.264104
H35	H	1.929055	-0.556991	0.411008
H36	H	1.932193	-0.356248	0.376241
H37	H	1.743036	0.098665	0.448738
O38	O	2.063881	-0.139405	0.584831
H39	H	2.061607	-0.137716	0.740495
