data_functionalizedCrystal
_audit_creation_method	'MofGen! by Chris Wilmer'
_symmetry_space_group_name_H-M	'P1'
_symmetry_Int_Tables_number	1
_symmetry_cell_setting	triclinic
loop_
_symmetry_equiv_pos_as_xyz
  x,y,z
_cell_length_a	18.050589
_cell_length_b	17.077404
_cell_length_c	17.077396
_cell_angle_alpha	90.019501
_cell_angle_beta	89.975358
_cell_angle_gamma	89.971554
loop_
_atom_site_label
_atom_site_type_symbol
_atom_site_fract_x
_atom_site_fract_y
_atom_site_fract_z
Zn1	Zn	-0.295655	-1.200026	-0.443864
Zn2	Zn	-0.419852	-1.199920	-0.312606
Zn3	Zn	-0.295681	-1.068757	-0.312612
Zn4	Zn	-0.419808	-1.068713	-0.443830
O5	O	-0.357749	-1.134354	-0.378228
O6	O	-0.312138	-1.309858	-0.426464
O7	O	-0.403410	-1.182496	-0.202760
O8	O	-0.191753	-1.086233	-0.330039
O9	O	-0.403385	-1.309781	-0.330030
O10	O	-0.191734	-1.182675	-0.426469
O11	O	-0.312182	-1.086131	-0.202764
O12	O	-0.312139	-0.958905	-0.330006
O13	O	-0.403310	-1.086157	-0.553681
O14	O	-0.403335	-0.958872	-0.426412
O15	O	-0.312095	-1.182632	-0.553706
O16	O	-0.523771	-1.182453	-0.329997
O17	O	-0.523739	-1.086056	-0.426407
C18	C	-0.357736	-0.930406	-0.378206
C19	C	-0.357748	-0.843156	-0.378216
C20	C	-0.550701	-1.134259	-0.378215
C21	C	-0.633247	-1.134291	-0.378236
C22	C	-0.357694	-1.134402	-0.582972
C23	C	-0.357671	-1.134422	-0.670222
C24	C	-0.832707	-1.081921	-0.430645
C25	C	-0.882149	-1.062786	-0.359016
C26	C	-0.784377	-1.134368	-0.378246
C27	C	-0.882017	-1.153541	-0.449883
C28	C	-0.930362	-1.134441	-0.378262
C29	C	-0.832732	-1.115195	-0.306579
C30	C	-0.832596	-1.205984	-0.397495
C31	C	-0.882016	-1.186876	-0.325816
C32	C	-0.700279	-1.134324	-0.378238
C33	C	-1.014459	-1.134485	-0.378262
C34	C	-0.164043	-1.134471	-0.378258
C35	C	-0.081498	-1.134520	-0.378271
C36	C	-0.357763	-1.339098	-0.378250
C37	C	-0.357769	-1.426348	-0.378260
C38	C	-0.405305	-0.802170	-0.428333
C39	C	-0.405307	-0.720189	-0.428346
C40	C	-0.357754	-0.679197	-0.378236
C41	C	-0.310192	-0.720189	-0.328116
C42	C	-0.310187	-0.802168	-0.328108
C43	C	-0.310206	-0.549319	-0.328135
C44	C	-0.310212	-0.467335	-0.328142
C45	C	-0.405326	-0.467340	-0.428373
C46	C	-0.405321	-0.549319	-0.428365
C47	C	-0.357760	-0.590306	-0.378244
C48	C	-0.310172	-1.184658	-0.711226
C49	C	-0.310147	-1.184667	-0.793207
C50	C	-0.357626	-1.134444	-0.834182
C51	C	-0.405128	-1.084202	-0.793172
C52	C	-0.405148	-1.084190	-0.711193
C53	C	-0.405083	-1.084234	-0.964042
C54	C	-0.405064	-1.084248	-1.046026
C55	C	-0.310082	-1.184712	-1.046056
C56	C	-0.310102	-1.184699	-0.964077
C57	C	-0.357605	-1.134458	-0.923073
C58	C	-0.357750	-1.134352	-0.174280
C59	C	-0.357564	-1.134484	-0.087031
H60	H	-0.811056	-1.037504	-0.474894
H61	H	-0.903931	-1.002257	-0.342749
H62	H	-0.903530	-1.231259	-0.281460
H63	H	-0.810816	-1.266499	-0.413795
H64	H	-0.444033	-0.686822	-0.469156
H65	H	-0.903667	-1.169729	-0.510460
H66	H	-0.811172	-1.098937	-0.245986
H67	H	-0.271511	-1.225558	-0.677871
H68	H	-0.271470	-0.582688	-0.287328
H69	H	-0.271457	-0.835538	-0.287301
H70	H	-0.271402	-1.225619	-1.079446
H71	H	-0.271471	-0.686807	-0.287319
H72	H	-0.444030	-0.835540	-0.469136
H73	H	-0.271482	-0.433961	-0.287347
H74	H	-0.271470	-1.225577	-0.826589
H75	H	-0.444047	-0.582693	-0.469164
H76	H	-0.271445	-1.225600	-0.930718
H77	H	-0.443724	-1.043350	-1.079386
H78	H	-0.443819	-1.043274	-0.677808
H79	H	-0.443753	-1.043310	-0.930658
H80	H	-0.444050	-0.433965	-0.469186
H81	H	-0.443783	-1.043307	-0.826540
