data_functionalizedCrystal
_audit_creation_method	'MofGen! by Chris Wilmer'
_symmetry_space_group_name_H-M	'P1'
_symmetry_Int_Tables_number	1
_symmetry_cell_setting	triclinic
loop_
_symmetry_equiv_pos_as_xyz
  x,y,z
_cell_length_a	21.295417
_cell_length_b	21.295418
_cell_length_c	19.805399
_cell_angle_alpha	89.962178
_cell_angle_beta	89.969157
_cell_angle_gamma	90.046319
loop_
_atom_site_label
_atom_site_type_symbol
_atom_site_fract_x
_atom_site_fract_y
_atom_site_fract_z
Zn1	Zn	-0.250358	0.962319	-0.383034
Zn2	Zn	-0.355627	0.962232	-0.269839
Zn3	Zn	-0.250404	0.857053	-0.269823
Zn4	Zn	-0.355622	0.857012	-0.382950
O5	O	-0.303003	0.909654	-0.326411
O6	O	-0.264305	1.050397	-0.368061
O7	O	-0.341690	0.948261	-0.175120
O8	O	-0.162309	0.871070	-0.284868
O9	O	-0.341645	1.050333	-0.284897
O10	O	-0.162275	0.948409	-0.368044
O11	O	-0.264384	0.870986	-0.175108
O12	O	-0.264379	0.768958	-0.284787
O13	O	-0.341638	0.871000	-0.477678
O14	O	-0.341683	0.768928	-0.367901
O15	O	-0.264300	0.948369	-0.477739
O16	O	-0.443716	0.948221	-0.284816
O17	O	-0.443712	0.870916	-0.367917
C18	C	-0.303036	0.746102	-0.326334
C19	C	-0.303065	0.676134	-0.326316
C20	C	-0.466555	0.909572	-0.326374
C21	C	-0.536523	0.909594	-0.326381
C22	C	-0.343370	0.643268	-0.369529
C23	C	-0.343355	0.577526	-0.369560
C24	C	-0.303041	0.544652	-0.326365
C25	C	-0.262728	0.577526	-0.283149
C26	C	-0.262740	0.643267	-0.283125
N27	N	-0.298123	0.441381	-0.267165
N28	N	-0.298115	0.378930	-0.267190
C29	C	-0.303001	0.346577	-0.326437
N30	N	-0.307907	0.379035	-0.385659
N31	N	-0.307919	0.441492	-0.385633
C32	C	-0.303023	0.473366	-0.326387
C33	C	-0.343291	0.242426	-0.369686
C34	C	-0.343271	0.176682	-0.369718
C35	C	-0.262648	0.176683	-0.283301
C36	C	-0.262664	0.242426	-0.283276
C37	C	-0.302989	0.275293	-0.326467
C38	C	-0.569370	0.949882	-0.283154
C39	C	-0.635113	0.949912	-0.283169
C40	C	-0.668005	0.909642	-0.326404
C41	C	-0.635150	0.869350	-0.369639
C42	C	-0.569409	0.869326	-0.369627
N43	N	-0.771286	0.854574	-0.331538
N44	N	-0.833738	0.854598	-0.331545
C45	C	-0.866080	0.909712	-0.326443
N46	N	-0.833611	0.964801	-0.321320
N47	N	-0.771154	0.964776	-0.321309
C48	C	-0.739291	0.909663	-0.326422
C49	C	-0.970213	0.950036	-0.283230
C50	C	-1.035956	0.950067	-0.283250
C51	C	-1.035992	0.869499	-0.369717
C52	C	-0.970250	0.869474	-0.369700
C53	C	-0.937364	0.909742	-0.326453
C54	C	-0.138813	0.909754	-0.326464
C55	C	-0.068844	0.909797	-0.326486
C56	C	-0.302963	0.909689	-0.502954
C57	C	-0.302946	0.909704	-0.578186
C58	C	-0.302970	1.073844	-0.326490
C59	C	-0.302956	1.143812	-0.326524
C60	C	-0.262675	0.949991	-0.613564
C61	C	-0.262657	0.949998	-0.684252
C62	C	-0.302914	0.909720	-0.719562
C63	C	-0.343187	0.869429	-0.684180
C64	C	-0.343201	0.869420	-0.613492
C65	C	-0.343128	0.869464	-0.969253
C66	C	-0.343112	0.869478	-1.039945
C67	C	-0.262583	0.950042	-1.040013
C68	C	-0.262598	0.950033	-0.969326
C69	C	-0.302869	0.909740	-0.933949
C70	C	-0.302887	0.909733	-0.857301
C71	C	-0.302899	0.909730	-0.796209
C72	C	-0.302997	0.909655	-0.150555
C73	C	-0.302837	0.909762	-0.075324
H74	H	-0.376205	0.670025	-0.404700
F75	F	-0.670078	0.992794	-0.237159
H76	H	-0.229819	0.982834	-0.940580
F77	F	-0.219721	0.992925	-1.077668
H78	H	-0.542664	0.836518	-0.404829
H79	H	-0.661935	0.836563	-0.404843
F80	F	-0.935211	0.992891	-0.237203
F81	F	-0.219830	0.992864	-0.575991
H82	H	-1.062773	0.836713	-0.404922
H83	H	-0.229917	0.670026	-0.247935
F84	F	-0.219816	0.992898	-0.721900
H85	H	-0.229847	0.269185	-0.248084
H86	H	-0.376176	0.550761	-0.404751
H87	H	-0.375895	0.836676	-1.068693
F88	F	-0.385988	0.826580	-0.931612
H89	H	-0.229903	0.550756	-0.247981
H90	H	-0.375988	0.836607	-0.584689
H91	H	-1.062700	0.982878	-0.248051
H92	H	-0.542596	0.982672	-0.247941
F93	F	-0.386029	0.826559	-0.721761
F94	F	-0.386205	0.277408	-0.415657
H95	H	-0.376091	0.149923	-0.404911
F96	F	-0.219739	0.141701	-0.237333
H97	H	-0.943504	0.836665	-0.404897
