data_functionalizedCrystal
_audit_creation_method	'MofGen! by Chris Wilmer'
_symmetry_space_group_name_H-M	'P1'
_symmetry_Int_Tables_number	1
_symmetry_cell_setting	triclinic
loop_
_symmetry_equiv_pos_as_xyz
  x,y,z
_cell_length_a	14.044220
_cell_length_b	9.065218
_cell_length_c	8.140239
_cell_angle_alpha	89.997972
_cell_angle_beta	90.002157
_cell_angle_gamma	89.102381
loop_
_atom_site_label
_atom_site_type_symbol
_atom_site_fract_x
_atom_site_fract_y
_atom_site_fract_z
O1	O	1.260761	0.356074	-0.136429
O2	O	1.760761	0.856074	0.363571
O3	O	0.984682	0.343225	-0.136471
O4	O	1.484682	0.843225	0.363529
O5	O	1.128428	0.135640	-0.136444
O6	O	1.628428	0.635640	0.363556
O7	O	1.117015	0.563660	-0.136455
O8	O	1.617015	1.063660	0.363545
O9	O	1.128420	0.135636	0.136783
O10	O	1.628420	0.635636	0.636783
O11	O	0.984674	0.343222	0.136757
O12	O	1.484674	0.843222	0.636757
O13	O	1.260753	0.356071	0.136798
O14	O	1.760753	0.856071	0.636798
Zn15	Zn	1.122712	0.349646	0.180158
Zn16	Zn	1.622712	0.849646	0.680158
Zn17	Zn	1.122723	0.349650	-0.179830
Zn18	Zn	1.622723	0.849650	0.320170
O19	O	1.117007	0.563656	0.136772
O20	O	1.617007	1.063656	0.636772
C21	C	0.949315	0.337599	0.000138
C22	C	1.449315	0.837599	0.500138
C23	C	0.843945	0.320822	0.000121
C24	C	1.343945	0.820822	0.500121
C25	C	0.651021	0.290150	0.000155
C26	C	1.151021	0.790150	0.500155
C27	C	0.594409	0.409139	0.000159
C28	C	1.094409	0.909139	0.500159
C29	C	0.487059	0.392073	0.000177
C30	C	0.987059	0.892073	0.500177
C31	C	0.758381	0.307214	0.000136
C32	C	1.258381	0.807214	0.500136
C33	C	1.127327	0.080530	0.000167
C34	C	1.627327	0.580530	0.500167
C35	C	1.124048	-0.083677	0.000160
C36	C	1.624048	0.416323	0.500160
C37	C	1.296120	0.361697	0.000187
C38	C	1.796120	0.861697	0.500187
C39	C	1.401490	0.378474	0.000192
C40	C	1.901490	0.878474	0.500192
C41	C	1.118108	0.618766	0.000157
C42	C	1.618108	1.118766	0.500157
C43	C	1.121388	0.782972	0.000154
C44	C	1.621388	1.282972	0.500154
N45	N	1.122712	0.349642	0.425841
N46	N	1.622712	0.849642	0.925841
N47	N	1.122731	0.349643	-0.425513
N48	N	1.622731	0.849643	0.074487
H49	H	0.618867	0.175472	0.000167
H50	H	1.118867	0.675472	0.500167
H51	H	0.626565	0.523826	0.000148
H52	H	1.126565	1.023826	0.500148
