data_functionalizedCrystal
_audit_creation_method	'MofGen! by Chris Wilmer'
_symmetry_space_group_name_H-M	'P1'
_symmetry_Int_Tables_number	1
_symmetry_cell_setting	triclinic
loop_
_symmetry_equiv_pos_as_xyz
  x,y,z
_cell_length_a	14.519709
_cell_length_b	14.853567
_cell_length_c	12.996460
_cell_angle_alpha	89.997651
_cell_angle_beta	90.000034
_cell_angle_gamma	83.657537
loop_
_atom_site_label
_atom_site_type_symbol
_atom_site_fract_x
_atom_site_fract_y
_atom_site_fract_z
O1	O	-1.223821	-0.118181	0.085424
O2	O	-0.973821	0.131819	0.335424
O3	O	-0.723821	0.381819	0.585424
O4	O	-0.473821	0.631819	0.835424
O5	O	-0.955338	-0.132098	0.085454
O6	O	-0.705338	0.117902	0.335454
O7	O	-0.455338	0.367902	0.585454
O8	O	-0.205338	0.617902	0.835454
O9	O	-1.096751	0.006088	0.085441
O10	O	-0.846751	0.256088	0.335441
O11	O	-0.596751	0.506088	0.585441
O12	O	-0.346751	0.756088	0.835441
O13	O	-1.082408	-0.256366	0.085437
O14	O	-0.832408	-0.006366	0.335437
O15	O	-0.582408	0.243634	0.585437
O16	O	-0.332408	0.493634	0.835437
O17	O	-1.096736	0.006095	-0.085692
O18	O	-0.846736	0.256095	0.164308
O19	O	-0.596736	0.506095	0.414308
O20	O	-0.346736	0.756095	0.664308
O21	O	-0.955323	-0.132090	-0.085679
O22	O	-0.705323	0.117910	0.164321
O23	O	-0.455323	0.367910	0.414321
O24	O	-0.205323	0.617910	0.664321
O25	O	-1.223806	-0.118173	-0.085710
O26	O	-0.973806	0.131827	0.164290
O27	O	-0.723806	0.381827	0.414290
O28	O	-0.473806	0.631827	0.664290
Cu29	Cu	-1.089563	-0.125131	-0.101321
Cu30	Cu	-0.839563	0.124869	0.148679
Cu31	Cu	-0.589563	0.374869	0.398679
Cu32	Cu	-0.339563	0.624869	0.648679
Cu33	Cu	-1.089581	-0.125140	0.101065
Cu34	Cu	-0.839581	0.124860	0.351065
Cu35	Cu	-0.589581	0.374860	0.601065
Cu36	Cu	-0.339581	0.624860	0.851065
O37	O	-1.082393	-0.256359	-0.085697
O38	O	-0.832393	-0.006359	0.164303
O39	O	-0.582393	0.243641	0.414303
O40	O	-0.332393	0.493641	0.664303
C41	C	-0.920971	-0.131446	-0.000109
C42	C	-0.670971	0.118554	0.249891
C43	C	-0.420971	0.368554	0.499891
C44	C	-0.170971	0.618554	0.749891
C45	C	-0.818591	-0.129502	-0.000097
C46	C	-0.568591	0.120498	0.249903
C47	C	-0.318591	0.370498	0.499903
C48	C	-0.068591	0.620498	0.749903
C49	C	-1.096094	0.039680	-0.000122
C50	C	-0.846094	0.289680	0.249878
C51	C	-0.596094	0.539680	0.499878
C52	C	-0.346094	0.789680	0.749878
C53	C	-1.094146	0.139765	-0.000113
C54	C	-0.844146	0.389765	0.249887
C55	C	-0.594146	0.639765	0.499887
C56	C	-0.344146	0.889765	0.749887
C57	C	-1.258173	-0.118826	-0.000145
C58	C	-1.008173	0.131174	0.249855
C59	C	-0.758173	0.381174	0.499855
C60	C	-0.508173	0.631174	0.749855
C61	C	-1.360553	-0.120769	-0.000150
C62	C	-1.110553	0.129231	0.249850
C63	C	-0.860553	0.379231	0.499850
C64	C	-0.610553	0.629231	0.749850
C65	C	-0.443698	-0.122347	-0.000143
C66	C	-0.193698	0.127653	0.249857
C67	C	0.056302	0.377653	0.499857
C68	C	0.306302	0.627653	0.749857
C69	C	-0.548005	-0.124334	-0.000130
C70	C	-0.298005	0.125666	0.249870
C71	C	-0.048005	0.375666	0.499870
C72	C	0.201995	0.625666	0.749870
C73	C	-0.631141	-0.125924	-0.000119
C74	C	-0.381141	0.124076	0.249881
C75	C	-0.131141	0.374076	0.499881
C76	C	0.118859	0.624076	0.749881
C77	C	-0.735455	-0.127912	-0.000108
C78	C	-0.485455	0.122088	0.249892
C79	C	-0.235455	0.372088	0.499892
C80	C	0.014545	0.622088	0.749892
C81	C	-1.083050	-0.289952	-0.000131
C82	C	-0.833050	-0.039952	0.249869
C83	C	-0.583050	0.210048	0.499869
C84	C	-0.333050	0.460048	0.749869
C85	C	-1.084998	-0.390036	-0.000133
C86	C	-0.834998	-0.140036	0.249867
C87	C	-0.584998	0.109964	0.499867
C88	C	-0.334998	0.359964	0.749867
N89	N	-1.089558	-0.125124	-0.243668
N90	N	-0.839558	0.124876	0.006332
N91	N	-0.589558	0.374876	0.256332
N92	N	-0.339558	0.624876	0.506332
C93	C	-1.001911	0.552334	-0.000122
C94	C	-0.751911	0.802334	0.249878
C95	C	-0.501911	1.052334	0.499878
C96	C	-0.251911	1.302334	0.749878
C97	C	-1.169913	0.573550	-0.000141
C98	C	-0.919913	0.823550	0.249859
C99	C	-0.669913	1.073550	0.499859
C100	C	-0.419913	1.323550	0.749859
C101	C	-1.171744	0.479516	-0.000135
C102	C	-0.921744	0.729516	0.249865
C103	C	-0.671744	0.979516	0.499865
C104	C	-0.421744	1.229516	0.749865
C105	C	-1.088658	0.421886	-0.000125
C106	C	-0.838658	0.671886	0.249875
C107	C	-0.588658	0.921886	0.499875
C108	C	-0.338658	1.171886	0.749875
C109	C	-1.003740	0.458291	-0.000120
C110	C	-0.753740	0.708291	0.249880
C111	C	-0.503740	0.958291	0.499880
C112	C	-0.253740	1.208291	0.749880
C113	C	-1.256661	0.443104	-0.000151
C114	C	-1.006661	0.693104	0.249849
C115	C	-0.756661	0.943104	0.499849
C116	C	-0.506661	1.193104	0.749849
C117	C	-1.258495	0.349064	-0.000146
C118	C	-1.008495	0.599064	0.249854
C119	C	-0.758495	0.849064	0.499854
C120	C	-0.508495	1.099064	0.749854
C121	C	-1.175408	0.291433	-0.000128
C122	C	-0.925408	0.541433	0.249872
C123	C	-0.675408	0.791433	0.499872
C124	C	-0.425408	1.041433	0.749872
C125	C	-1.090486	0.327843	-0.000122
C126	C	-0.840486	0.577843	0.249878
C127	C	-0.590486	0.827843	0.499878
C128	C	-0.340486	1.077843	0.749878
C129	C	-1.007400	0.270213	-0.000111
C130	C	-0.757400	0.520213	0.249889
C131	C	-0.507400	0.770213	0.499889
C132	C	-0.257400	1.020213	0.749889
C133	C	-0.922478	0.306621	-0.000098
C134	C	-0.672478	0.556621	0.249902
C135	C	-0.422478	0.806621	0.499902
C136	C	-0.172478	1.056621	0.749902
C137	C	-0.920653	0.400660	-0.000101
C138	C	-0.670653	0.650660	0.249899
C139	C	-0.420653	0.900660	0.499899
C140	C	-0.170653	1.150660	0.749899
C141	C	-1.177233	0.197394	-0.000124
C142	C	-0.927233	0.447394	0.249876
C143	C	-0.677233	0.697394	0.499876
C144	C	-0.427233	0.947394	0.749876
C145	C	-1.009229	0.176170	-0.000108
C146	C	-0.759229	0.426170	0.249892
C147	C	-0.509229	0.676170	0.499892
C148	C	-0.259229	0.926170	0.749892
C149	C	-1.089580	-0.125141	-0.663482
C150	C	-0.839580	0.124859	-0.413482
C151	C	-0.589580	0.374859	-0.163482
C152	C	-0.339580	0.624859	0.086518
C153	C	-1.089571	-0.125139	-0.546677
C154	C	-0.839571	0.124861	-0.296677
C155	C	-0.589571	0.374861	-0.046677
C156	C	-0.339571	0.624861	0.203323
C157	C	-1.089569	-0.125133	-0.453579
C158	C	-0.839569	0.124867	-0.203579
C159	C	-0.589569	0.374867	0.046421
C160	C	-0.339569	0.624867	0.296421
C161	C	-1.089559	-0.125130	-0.336766
C162	C	-0.839559	0.124870	-0.086766
C163	C	-0.589559	0.374870	0.163234
C164	C	-0.339559	0.624870	0.413234
N165	N	-1.089594	-0.125140	0.243412
N166	N	-0.839594	0.124860	0.493412
N167	N	-0.589594	0.374860	0.743412
N168	N	-0.339594	0.624860	0.993412
H169	H	-0.854829	0.259687	-0.000096
H170	H	-0.604829	0.509687	0.249904
H171	H	-0.354829	0.759687	0.499904
H172	H	-0.104829	1.009687	0.749904
O173	O	-0.829063	0.439925	-0.000109
O174	O	-0.579063	0.689925	0.249891
O175	O	-0.329063	0.939925	0.499891
O176	O	-0.079063	1.189925	0.749891
H177	H	-0.841753	0.514998	-0.000131
H178	H	-0.591753	0.764998	0.249869
H179	H	-0.341753	1.014998	0.499869
H180	H	-0.091753	1.264998	0.749869
H181	H	-0.941568	0.129253	-0.000095
H182	H	-0.691568	0.379253	0.249905
H183	H	-0.441568	0.629253	0.499905
H184	H	-0.191568	0.879253	0.749905
O185	O	-0.910318	0.591593	-0.000120
O186	O	-0.660318	0.841593	0.249880
O187	O	-0.410318	1.091593	0.499880
O188	O	-0.160318	1.341593	0.749880
H189	H	-0.922999	0.666666	-0.000131
H190	H	-0.672999	0.916666	0.249869
H191	H	-0.422999	1.166666	0.499869
H192	H	-0.172999	1.416666	0.749869
H193	H	-1.327644	0.319429	-0.000156
H194	H	-1.077644	0.569429	0.249844
H195	H	-0.827644	0.819429	0.499844
H196	H	-0.577644	1.069429	0.749844
H197	H	-1.237558	0.620477	-0.000158
H198	H	-0.987558	0.870477	0.249842
H199	H	-0.737558	1.120477	0.499842
H200	H	-0.487558	1.370477	0.749842
H201	H	-1.324305	0.490032	-0.000169
H202	H	-1.074305	0.740032	0.249831
H203	H	-0.824305	0.990032	0.499831
H204	H	-0.574305	1.240032	0.749831
H205	H	-1.246375	0.167755	-0.000142
H206	H	-0.996375	0.417755	0.249858
H207	H	-0.746375	0.667755	0.499858
H208	H	-0.496375	0.917755	0.749858
