data_functionalizedCrystal
_audit_creation_method	'MofGen! by Chris Wilmer'
_symmetry_space_group_name_H-M	'P1'
_symmetry_Int_Tables_number	1
_symmetry_cell_setting	triclinic
loop_
_symmetry_equiv_pos_as_xyz
  x,y,z
_cell_length_a	27.440280
_cell_length_b	20.875641
_cell_length_c	20.875625
_cell_angle_alpha	59.251205
_cell_angle_beta	92.975195
_cell_angle_gamma	62.438438
loop_
_atom_site_label
_atom_site_type_symbol
_atom_site_fract_x
_atom_site_fract_y
_atom_site_fract_z
Zr1	Zr	0.484745	0.702037	-0.109855
O2	O	0.406424	0.835870	-0.217201
O3	O	0.506301	0.568214	-0.073544
O4	O	0.504561	0.702036	-0.212275
O5	O	0.412328	0.702045	0.027091
O6	O	0.584764	0.702023	-0.212261
O7	O	0.408164	0.702048	-0.078470
O8	O	0.587877	0.462641	0.035904
O9	O	0.409215	0.941428	-0.221074
O10	O	0.578314	0.623244	-0.062160
O11	O	0.521566	0.623252	0.016609
O12	O	0.519517	0.780809	-0.146729
O13	O	0.462770	0.780817	-0.067960
Zr14	Zr	0.619300	0.702013	0.058525
Zr15	Zr	0.612660	0.702017	-0.109833
Zr16	Zr	0.491386	0.702033	0.058503
Zr17	Zr	0.489196	0.870390	-0.116031
Zr18	Zr	0.614849	0.533660	0.064701
O19	O	0.597744	0.835836	0.022213
O20	O	0.588302	0.835841	-0.217170
O21	O	0.415866	0.835864	0.022182
O22	O	0.697622	0.568180	0.165871
O23	O	0.688179	0.568186	-0.073513
O24	O	0.515744	0.568208	0.165840
O25	O	0.691717	0.702004	-0.078422
O26	O	0.599485	0.702014	0.160944
O27	O	0.519282	0.702027	0.160931
O28	O	0.695881	0.702002	0.027140
O29	O	0.510890	0.941412	-0.221056
O30	O	0.593156	0.462638	0.169726
O31	O	0.694831	0.462622	0.169743
O32	O	0.689552	0.462625	0.035921
O33	O	0.414493	0.941425	-0.087251
O34	O	0.516168	0.941409	-0.087234
O35	O	0.584528	0.623240	0.095398
O36	O	0.641276	0.623233	0.016630
O37	O	0.582479	0.780798	-0.067940
O38	O	0.525732	0.780805	0.010829
C39	C	0.546455	0.491441	-0.017940
C40	C	0.544566	0.419970	-0.015318
C41	C	0.573298	0.386390	-0.055203
C42	C	0.571524	0.319231	-0.052732
C43	C	0.541014	0.285659	-0.010380
C44	C	0.512281	0.319242	0.029510
C45	C	0.514059	0.386395	0.027043
C46	C	0.532525	0.084816	0.001411
C47	C	0.530748	0.017660	0.003873
C48	C	0.589992	0.017652	-0.078368
C49	C	0.591763	0.084810	-0.080835
C50	C	0.563033	0.118385	-0.040942
N51	N	0.539199	0.217014	-0.007856
N52	N	0.564853	0.187024	-0.043462
C53	C	0.392021	0.702050	-0.025693
C54	C	0.337718	0.702058	-0.025702
C55	C	0.031713	0.619763	0.018501
C56	C	-0.019306	0.619758	0.018508
O57	O	-0.019591	0.549809	0.056075
N58	N	-0.075514	0.702004	-0.025637
C59	C	-0.080702	0.784261	-0.069785
O60	O	-0.133196	0.854217	-0.107333
C61	C	-0.029684	0.784265	-0.069787
C62	C	0.026523	0.702013	-0.025646
C63	C	0.087917	0.537517	0.062640
C64	C	0.138932	0.537523	0.062631
C65	C	0.133742	0.619773	0.018484
C66	C	0.077537	0.702018	-0.025654
C67	C	-0.034873	0.866521	-0.113930
C68	C	0.016151	0.866518	-0.113928
C69	C	0.072358	0.784266	-0.069787
C70	C	0.123362	0.784274	-0.069810
N71	N	0.179570	0.702028	-0.025665
C72	C	0.184760	0.619777	0.018482
C73	C	-0.187841	0.784246	-0.069776
C74	C	-0.238858	0.784243	-0.069779
C75	C	-0.177458	0.619739	0.018515
C76	C	-0.126440	0.619743	0.018513
C77	C	-0.131633	0.702000	-0.025631
C78	C	0.291892	0.619795	0.018460
C79	C	0.342908	0.619807	0.018445
C80	C	0.281504	0.784310	-0.069846
C81	C	0.230492	0.784298	-0.069835
C82	C	0.235690	0.702033	-0.025675
O83	O	0.123693	0.854187	-0.107355
O84	O	0.237256	0.549833	0.056032
C85	C	0.712024	0.702000	-0.025638
C86	C	0.766327	0.701992	-0.025629
C87	C	0.543716	0.702030	-0.236255
C88	C	0.540897	0.702032	-0.307728
C89	C	0.557590	0.912609	-0.033390
C90	C	0.559480	0.984079	-0.036012
C91	C	0.583757	0.702027	-0.341298
C92	C	0.581109	0.702020	-0.408450
C93	C	0.535599	0.702025	-0.442033
C94	C	0.492737	0.702028	-0.408457
C95	C	0.495388	0.702028	-0.341303
C96	C	0.522937	0.702020	-0.642872
C97	C	0.520289	0.702023	-0.710032
C98	C	0.608662	0.702014	-0.710020
C99	C	0.611306	0.702019	-0.642868
C100	C	0.568446	0.702017	-0.609294
N101	N	0.532891	0.702022	-0.510674
N102	N	0.571157	0.702014	-0.540651
C103	C	0.560329	0.702020	0.184925
C104	C	0.563149	0.702018	0.256397
C105	C	0.706457	0.491416	-0.017913
C106	C	0.758870	0.419937	-0.015282
C107	C	0.554762	0.491436	0.192650
C108	C	0.555691	0.419963	0.266744
C109	C	0.714763	0.491411	0.192677
C110	C	0.769996	0.419930	0.266781
C111	C	0.389282	0.912639	-0.244008
C112	C	0.334050	0.984119	-0.318111
C113	C	0.397589	0.912634	-0.033418
C114	C	0.345175	0.984112	-0.036049
C115	C	0.549284	0.912614	-0.243981
C116	C	0.548354	0.984086	-0.318075
C117	C	0.750618	0.386376	-0.055180
C118	C	0.799861	0.319223	-0.052724
C119	C	0.857355	0.285629	-0.010364
C120	C	0.865606	0.319197	0.029535
C121	C	0.816364	0.386353	0.027074
C122	C	0.588994	0.386394	0.342674
C123	C	0.589865	0.319247	0.412299
C124	C	0.557438	0.285668	0.405994
C125	C	0.524131	0.319244	0.330056
C126	C	0.523257	0.386394	0.260432
C127	C	0.825561	0.386359	0.260464
C128	C	0.877462	0.319205	0.330085
C129	C	0.873798	0.285619	0.406023
C130	C	0.818228	0.319197	0.412338
C131	C	0.766327	0.386355	0.342717
C132	C	0.278485	1.017699	-0.311795
C133	C	0.226584	1.084874	-0.381417
C134	C	0.230248	1.118463	-0.457354
C135	C	0.285819	1.084881	-0.463669
C136	C	0.337719	1.017711	-0.394048
C137	C	0.353427	1.017681	0.003843
C138	C	0.304184	1.084852	0.001367
C139	C	0.246690	1.118449	-0.040995
C140	C	0.238439	1.084878	-0.080892
C141	C	0.287682	1.017712	-0.078421
C142	C	0.580788	1.017645	-0.311743
C143	C	0.579927	1.084791	-0.381356
C144	C	0.546627	1.118383	-0.457299
C145	C	0.514192	1.084818	-0.463629
C146	C	0.515057	1.017668	-0.394017
H147	H	0.487443	0.291898	0.063998
H148	H	0.496140	0.413717	0.198609
O149	O	0.278779	0.981500	-0.121440
H150	H	0.230526	1.016144	-0.151302
O151	O	0.483094	0.422603	0.070083
H152	H	0.448888	0.496692	0.025861
O153	O	0.478292	1.121054	-0.545552
H154	H	0.494596	1.064685	-0.550320
O155	O	0.660387	0.702032	-0.606660
H156	H	0.655023	0.702049	-0.554332
O157	O	0.199551	0.448806	0.110251
H158	H	0.222547	0.444859	0.068882
O159	O	0.558395	0.213232	0.481098
H160	H	0.512554	0.239004	0.480120
O161	O	0.497845	-0.018564	0.049559
H162	H	0.517595	-0.049177	0.113890
O163	O	0.616711	0.981421	-0.229839
H164	H	0.611867	0.929092	-0.182488
H165	H	0.912424	0.291834	0.064024
O166	O	0.654893	0.702005	-0.746223
H167	H	0.645409	0.701998	-0.798557
H168	H	0.277288	0.851277	-0.105792
H169	H	0.721086	0.413680	0.347872
H170	H	0.181342	1.112206	-0.376259
O171	O	0.480065	0.981486	-0.400851
H172	H	0.456761	1.016138	-0.465356
O173	O	0.614913	1.120983	-0.374514
H174	H	0.584205	1.195068	-0.405871
H175	H	0.288795	1.112238	-0.525506
O176	O	0.829520	0.422587	0.178564
H177	H	0.876882	0.387961	0.185881
O178	O	0.471207	0.702013	-0.746250
H179	H	0.441853	0.701999	-0.711617
H180	H	0.497730	0.291894	0.324933
O181	O	0.929781	0.213174	0.481108
H182	H	0.917904	0.195455	0.534978
H183	H	0.455684	0.702026	-0.435801
O184	O	0.501532	0.121035	0.044426
H185	H	0.480012	0.086415	0.074279
H186	H	0.092153	0.470536	0.098594
O187	O	0.937395	0.282984	0.323266
H188	H	0.931218	0.317611	0.258765
O189	O	0.814278	0.282957	0.494244
H190	H	0.859705	0.230609	0.541588
H191	H	-0.173240	0.552766	0.054460
H192	H	0.897446	0.230945	-0.008366
O193	O	0.403534	0.531090	0.066058
H194	H	0.398567	0.473898	0.096762
H195	H	0.382960	0.990371	-0.399201
H196	H	0.488038	0.702021	-0.615544
H197	H	0.823091	0.413670	0.059569
O198	O	0.623969	0.422609	0.349485
H199	H	0.647264	0.387984	0.413986
H200	H	0.275490	0.990355	-0.249969
H201	H	0.187983	1.173157	-0.514038
O202	O	0.620981	-0.018566	-0.121388
H203	H	0.601918	0.037809	-0.186663
H204	H	0.400238	0.990331	0.038344
H205	H	0.310914	1.112174	0.033859
O206	O	0.193580	1.190866	-0.043631
H207	H	0.208983	1.208544	-0.008757
O208	O	0.176426	1.121118	-0.126582
H209	H	0.143577	1.173454	-0.121586
H210	H	0.598139	0.413724	-0.089695
H211	H	0.594920	0.291889	-0.085209
H212	H	0.616989	0.291917	0.474124
H213	H	0.545927	1.173061	-0.513976
H214	H	-0.284621	0.851221	-0.105734
O215	O	0.297500	0.531069	0.066078
H216	H	0.345157	0.473887	0.096756
H217	H	-0.080677	0.552767	0.054464
H218	H	0.703808	0.413728	-0.089685
O219	O	0.624668	0.121024	-0.126517
H220	H	0.644352	0.086387	-0.153834
H221	H	-0.080632	0.933499	-0.149874
O222	O	-0.193444	0.872970	-0.117407
H223	H	-0.241102	0.930153	-0.148107
H224	H	0.184724	0.851274	-0.105788
O225	O	0.010576	0.955218	-0.161558
H226	H	-0.012213	0.994690	-0.139268
O227	O	0.632845	0.702016	-0.305073
H228	H	0.662207	0.702001	-0.339696
H229	H	0.616009	0.702015	-0.435782
H230	H	0.460487	0.702030	-0.313970
O231	O	0.790956	0.283018	-0.095753
H232	H	0.742703	0.317652	-0.125607
