data_functionalizedCrystal
_audit_creation_method	'MofGen! by Chris Wilmer'
_symmetry_space_group_name_H-M	'P1'
_symmetry_Int_Tables_number	1
_symmetry_cell_setting	triclinic
loop_
_symmetry_equiv_pos_as_xyz
  x,y,z
_cell_length_a	12.759401
_cell_length_b	17.637651
_cell_length_c	12.759387
_cell_angle_alpha	78.723202
_cell_angle_beta	89.960529
_cell_angle_gamma	101.219778
loop_
_atom_site_label
_atom_site_type_symbol
_atom_site_fract_x
_atom_site_fract_y
_atom_site_fract_z
Zn1	Zn	1.521934	-0.314504	-0.509372
Zn2	Zn	1.486195	-0.446830	-0.298091
Zn3	Zn	1.346141	-0.314619	-0.333680
Zn4	Zn	1.310691	-0.446697	-0.473768
O5	O	1.416240	-0.380663	-0.403728
O6	O	1.664212	-0.332065	-0.481351
O7	O	1.467496	-0.429395	-0.155763
O8	O	1.399253	-0.203949	-0.386780
O9	O	1.637955	-0.429284	-0.326124
O10	O	1.528407	-0.203865	-0.515860
O11	O	1.364599	-0.332260	-0.181910
O12	O	1.194419	-0.332132	-0.352257
O13	O	1.338834	-0.429058	-0.625540
O14	O	1.168374	-0.429169	-0.455179
O15	O	1.494033	-0.331937	-0.651698
O16	O	1.433121	-0.557467	-0.291601
O17	O	1.304179	-0.557369	-0.420670
C18	C	1.143276	-0.380649	-0.403717
C19	C	1.026496	-0.380662	-0.403732
C20	C	0.985282	-0.330132	-0.484637
C21	C	0.875556	-0.330140	-0.484642
C22	C	0.848265	-0.431216	-0.322831
C23	C	0.957991	-0.431203	-0.322822
C24	C	0.750707	-0.236918	-0.547491
C25	C	0.709488	-0.186395	-0.628411
C26	C	0.748433	-0.174299	-0.734204
C27	C	0.828593	-0.212739	-0.759094
C28	C	0.869805	-0.263268	-0.678178
C29	C	0.830866	-0.275349	-0.572374
C30	C	1.082841	-0.524426	-0.259984
C31	C	1.124054	-0.574960	-0.179071
C32	C	1.085109	-0.587064	-0.073275
C33	C	1.004942	-0.548638	-0.048385
C34	C	0.963729	-0.498104	-0.129298
C35	C	1.002682	-0.485999	-0.235094
C36	C	1.360954	-0.586109	-0.348433
C37	C	1.337399	-0.674000	-0.324812
C38	C	1.595871	-0.962549	-0.583499
C39	C	1.573704	-1.045136	-0.561286
C40	C	1.439305	-1.045331	-0.426745
C41	C	1.461465	-0.962743	-0.448943
C42	C	1.539748	-0.921358	-0.527322
C43	C	1.405342	-0.921551	-0.392766
C44	C	1.427496	-0.838970	-0.414967
C45	C	1.505774	-0.797580	-0.493345
C46	C	1.561903	-0.838777	-0.549523
C47	C	1.327053	-0.962937	-0.314393
C48	C	1.270930	-0.921746	-0.258216
C49	C	1.293090	-0.839163	-0.280411
C50	C	1.371367	-0.797773	-0.358789
C51	C	1.236961	-0.797966	-0.224233
C52	C	1.259115	-0.715385	-0.246434
C53	C	1.393522	-0.715192	-0.380989
C54	C	1.690270	-0.380677	-0.403739
C55	C	1.807045	-0.380683	-0.403744
C56	C	1.416465	-0.380470	-0.677813
C57	C	1.416561	-0.380388	-0.794612
C58	C	1.471771	-0.174414	-0.459262
C59	C	1.495435	-0.086523	-0.482927
C60	C	1.416092	-0.380798	-0.130724
C61	C	1.416259	-0.380657	-0.013985
C62	C	1.470643	-0.430659	0.164120
C63	C	1.470495	-0.430792	0.054432
C64	C	1.362176	-0.330380	0.027289
C65	C	1.362330	-0.330243	0.136974
C66	C	1.587034	-0.458559	-0.088166
C67	C	1.641103	-0.508843	-0.129434
C68	C	1.637279	-0.585866	-0.072849
C69	C	1.579367	-0.612620	0.025006
C70	C	1.525289	-0.562340	0.066270
C71	C	1.529135	-0.485306	0.009684
C72	C	1.245788	-0.302485	0.279576
C73	C	1.191703	-0.252209	0.320842
C74	C	1.195517	-0.175185	0.264259
C75	C	1.253410	-0.148433	0.166401
C76	C	1.307495	-0.198710	0.125135
C77	C	1.303683	-0.275733	0.181725
H78	H	0.792475	-0.472365	-0.256958
H79	H	1.688259	-0.487051	-0.209109
H80	H	1.590166	-0.395838	-0.134241
H81	H	1.354649	-0.176918	0.045460
H82	H	1.375564	-1.079038	-0.362932
H83	H	1.041058	-0.288975	-0.550516
H84	H	1.625657	-0.805080	-0.613339
H85	H	0.973227	-0.558497	0.037763
H86	H	0.860288	-0.202893	-0.845245
H87	H	1.659626	-0.928853	-0.647316
H88	H	1.681297	-0.626809	-0.106462
H89	H	1.619397	-1.078671	-0.607053
H90	H	1.189344	-0.606238	-0.199343
H91	H	1.309008	-1.030181	-0.296330
H92	H	1.118648	-0.628235	-0.007401
H93	H	1.207190	-0.955453	-0.194403
H94	H	0.935074	-0.294561	-0.698442
H95	H	0.898452	-0.466815	-0.109024
H96	H	1.256515	-0.085714	0.120328
H97	H	1.242684	-0.365203	0.325660
H98	H	0.719001	-0.246753	-0.461346
H99	H	0.644221	-0.155097	-0.608136
H100	H	1.114566	-0.514568	-0.346131
H101	H	1.318021	-0.289555	-0.028426
H102	H	1.457276	-0.681495	-0.444806
H103	H	1.173216	-0.831674	-0.160424
H104	H	1.151466	-0.134253	0.297865
H105	H	1.523811	-0.730337	-0.511418
H106	H	1.514812	-0.471483	0.219818
H107	H	0.714865	-0.133161	-0.800090
H108	H	1.144553	-0.274000	0.400519
H109	H	1.213413	-0.681847	-0.200689
H110	H	1.478134	-0.584125	0.145939
H111	H	1.576246	-0.675344	0.071066
