data_functionalizedCrystal
_audit_creation_method	'MofGen! by Chris Wilmer'
_symmetry_space_group_name_H-M	'P1'
_symmetry_Int_Tables_number	1
_symmetry_cell_setting	triclinic
loop_
_symmetry_equiv_pos_as_xyz
  x,y,z
_cell_length_a	16.120530
_cell_length_b	17.640280
_cell_length_c	17.639477
_cell_angle_alpha	70.346041
_cell_angle_beta	82.232195
_cell_angle_gamma	104.611321
loop_
_atom_site_label
_atom_site_type_symbol
_atom_site_fract_x
_atom_site_fract_y
_atom_site_fract_z
Zn1	Zn	1.239282	0.283492	0.449205
Zn2	Zn	1.309861	0.451991	0.286388
Zn3	Zn	1.135194	0.307212	0.307249
Zn4	Zn	1.135172	0.417087	0.417187
O5	O	1.204877	0.364945	0.365007
O6	O	1.365314	0.310524	0.432276
O7	O	1.316238	0.457320	0.175007
O8	O	1.119473	0.187564	0.348210
O9	O	1.417168	0.434320	0.312655
O10	O	1.195947	0.170138	0.452505
O11	O	1.187911	0.350951	0.190333
O12	O	1.018522	0.317106	0.317163
O13	O	1.119435	0.374832	0.535582
O14	O	1.018505	0.397832	0.397934
O15	O	1.195925	0.276680	0.559106
O16	O	1.316216	0.563862	0.281608
O17	O	1.187873	0.538218	0.377705
C18	C	0.988263	0.356256	0.356338
C19	C	0.895594	0.352554	0.352645
C20	C	1.259719	0.581244	0.323937
C21	C	1.283249	0.673775	0.306398
C22	C	1.149805	0.319216	0.577769
C23	C	1.126336	0.299729	0.668436
C24	C	0.725921	0.345775	0.345913
C25	C	0.684674	0.384164	0.384149
C26	C	0.590262	0.380392	0.380403
C27	C	0.820341	0.349546	0.349658
C28	C	1.422338	0.373669	0.373710
C29	C	1.515006	0.377387	0.377419
C30	C	1.149840	0.147799	0.406256
C31	C	1.126386	0.055264	0.423834
C32	C	1.026383	0.911535	0.498563
C33	C	1.048502	0.998487	0.482056
C34	C	1.182185	1.025104	0.382099
C35	C	1.160079	0.938152	0.398600
C36	C	1.082176	0.881374	0.456833
C37	C	1.215873	0.907991	0.356869
C38	C	1.193766	0.821046	0.373367
C39	C	1.115866	0.764263	0.431595
C40	C	1.060070	0.794429	0.473330
C41	C	1.293772	0.964771	0.298633
C42	C	1.349565	0.934610	0.256902
C43	C	1.327462	0.847664	0.273403
C44	C	1.249562	0.790881	0.331631
C45	C	1.383258	0.817498	0.231668
C46	C	1.361152	0.730553	0.248165
C47	C	1.227456	0.703936	0.348129
C48	C	1.259768	0.410438	0.153086
C49	C	1.283338	0.429697	0.062471
C50	C	1.383229	0.512544	0.926704
C51	C	1.361163	0.494223	1.011900
C52	C	1.227545	0.383469	1.027858
C53	C	1.249597	0.401783	0.942661
C54	C	1.327441	0.466321	0.892090
C55	C	1.193809	0.355560	0.908047
C56	C	1.215862	0.373870	0.822858
C57	C	1.293703	0.438403	0.772282
C58	C	1.349493	0.484631	0.806901
C59	C	1.115969	0.291019	0.958620
C60	C	1.060181	0.244796	0.924006
C61	C	1.082231	0.263109	0.838814
C62	C	1.160072	0.327642	0.788239
C63	C	1.026440	0.216882	0.804196
C64	C	1.048493	0.235192	0.719006
C65	C	1.182124	0.345953	0.703050
H66	H	0.720267	0.419861	0.419698
Cl67	Cl	1.321431	0.461421	0.665186
H68	H	0.962951	0.865302	0.545988
Cl69	Cl	0.670971	0.290665	0.291031
H70	H	0.996803	0.192247	0.965192
H71	H	1.446682	0.863740	0.184250
Cl72	Cl	1.129525	0.632550	0.421345
Cl73	Cl	1.431287	0.692634	0.195695
Cl74	Cl	1.088216	0.654928	0.452531
Cl75	Cl	1.447347	0.565776	0.743317
H76	H	1.003067	0.197549	0.690824
Cl77	Cl	0.962139	0.723043	0.546546
H78	H	1.003069	1.023037	0.516053
Cl79	Cl	1.280117	1.096489	0.308897
H80	H	1.245518	0.398498	0.661874
H81	H	1.406600	0.531867	1.040079
Cl82	Cl	1.321585	1.074069	0.277924
H83	H	1.412992	0.980851	0.209487
Cl84	Cl	1.481083	0.593690	0.863120
Cl85	Cl	1.088250	0.267996	1.065718
Cl86	Cl	1.129690	0.302337	1.091440
H87	H	0.963065	0.164330	0.845384
