data_functionalizedCrystal
_audit_creation_method	'MofGen! by Chris Wilmer'
_symmetry_space_group_name_H-M	'P1'
_symmetry_Int_Tables_number	1
_symmetry_cell_setting	triclinic
loop_
_symmetry_equiv_pos_as_xyz
  x,y,z
_cell_length_a	21.295418
_cell_length_b	29.839131
_cell_length_c	21.295411
_cell_angle_alpha	89.979636
_cell_angle_beta	89.956262
_cell_angle_gamma	90.057233
loop_
_atom_site_label
_atom_site_type_symbol
_atom_site_fract_x
_atom_site_fract_y
_atom_site_fract_z
Zn1	Zn	0.962308	-0.178715	-0.356239
Zn2	Zn	1.462308	0.321285	0.143761
Zn3	Zn	0.962190	-0.253830	-0.250967
Zn4	Zn	1.462190	0.246170	0.249033
Zn5	Zn	0.857031	-0.178736	-0.250949
Zn6	Zn	1.357031	0.321264	0.249051
Zn7	Zn	0.856981	-0.253839	-0.356163
Zn8	Zn	1.356981	0.246161	0.143837
O9	O	0.909628	-0.216280	-0.303580
O10	O	1.409628	0.283720	0.196420
O11	O	1.050382	-0.188667	-0.342314
O12	O	1.550382	0.311333	0.157686
O13	O	0.948213	-0.243874	-0.162875
O14	O	1.448213	0.256126	0.337125
O15	O	0.871067	-0.115866	-0.264940
O16	O	1.371067	0.384134	0.235060
O17	O	1.050295	-0.243854	-0.264971
O18	O	1.550295	0.256146	0.235029
O19	O	0.948413	-0.115851	-0.342296
O20	O	1.448413	0.384149	0.157704
O21	O	0.870953	-0.188703	-0.162862
O22	O	1.370953	0.311297	0.337138
O23	O	0.768935	-0.188711	-0.264867
O24	O	1.268935	0.311289	0.235133
O25	O	0.870981	-0.243869	-0.444263
O26	O	1.370981	0.256131	0.055737
O27	O	0.768898	-0.243889	-0.342167
O28	O	1.268898	0.256111	0.157833
O29	O	0.948364	-0.188675	-0.444319
O30	O	1.448364	0.311325	0.055681
O31	O	0.948164	-0.316699	-0.264897
O32	O	1.448164	0.183301	0.235103
O33	O	0.870866	-0.316705	-0.342185
O34	O	1.370866	0.183295	0.157815
C35	C	0.746076	-0.216304	-0.303507
C36	C	1.246076	0.283696	0.196493
C37	C	0.676108	-0.216325	-0.303491
C38	C	1.176108	0.283675	0.196509
C39	C	0.909514	-0.333003	-0.303548
C40	C	1.409514	0.166997	0.196452
C41	C	0.909523	-0.382937	-0.303556
C42	C	1.409523	0.117063	0.196444
C43	C	0.643238	-0.245094	-0.343681
C44	C	1.143238	0.254906	0.156319
C45	C	0.577496	-0.245083	-0.343710
C46	C	1.077496	0.254917	0.156290
C47	C	0.544625	-0.216307	-0.303536
C48	C	1.044625	0.283693	0.196464
C49	C	0.577503	-0.187532	-0.263343
C50	C	1.077503	0.312468	0.236657
C51	C	0.643244	-0.187541	-0.263321
C52	C	1.143244	0.312459	0.236679
N53	N	0.441350	-0.212791	-0.248479
N54	N	0.941350	0.287209	0.251521
N55	N	0.378899	-0.212785	-0.248502
N56	N	0.878899	0.287215	0.251498
C57	C	0.346551	-0.216279	-0.303603
C58	C	0.846551	0.283721	0.196397
N59	N	0.379013	-0.219787	-0.358681
N60	N	0.879013	0.280213	0.141319
N61	N	0.441470	-0.219795	-0.358657
N62	N	0.941470	0.280205	0.141343
C63	C	0.473340	-0.216294	-0.303557
C64	C	0.973340	0.283706	0.196443
C65	C	0.242396	-0.245037	-0.343827
C66	C	0.742396	0.254963	0.156173
C67	C	0.176652	-0.245023	-0.343857
C68	C	0.676652	0.254977	0.156143
C69	C	0.176660	-0.187475	-0.263485
C70	C	0.676660	0.312525	0.236515
C71	C	0.242403	-0.187487	-0.263461
C72	C	0.742403	0.312513	0.236539
C73	C	0.275266	-0.216271	-0.303632
C74	C	0.775266	0.283729	0.196368
C75	C	0.949949	-0.692564	-0.263395
C76	C	1.449949	-0.192564	0.236605
C77	C	0.950027	-0.880238	-0.263419
C78	C	1.450027	-0.380238	0.236581
O79	O	0.984309	-0.904489	-0.229249
O80	O	1.484309	-0.404489	0.270751
N81	N	0.909758	-0.903722	-0.303627
N82	N	1.409758	-0.403722	0.196373
C83	C	0.869470	-0.880286	-0.343835
C84	C	1.369470	-0.380286	0.156165
O85	O	0.835225	-0.904567	-0.378039
O86	O	1.335225	-0.404567	0.121961
C87	C	0.869396	-0.692614	-0.343813
C88	C	1.369396	-0.192614	0.156187
C89	C	0.909663	-0.669131	-0.303598
C90	C	1.409663	-0.169131	0.196402
C91	C	0.990214	-0.669082	-0.223184
C92	C	1.490214	-0.169082	0.276816
C93	C	0.990192	-0.622167	-0.223176
C94	C	1.490192	-0.122167	0.276824
C95	C	0.949905	-0.598734	-0.263379
C96	C	1.449905	-0.098734	0.236621
C97	C	0.909641	-0.622216	-0.303590
C98	C	1.409641	-0.122216	0.196410
C99	C	0.829111	-0.669178	-0.384023
C100	C	1.329111	-0.169178	0.115977
C101	C	0.829097	-0.622257	-0.384015
C102	C	1.329097	-0.122257	0.115985
C103	C	0.869364	-0.598775	-0.343800
C104	C	1.369364	-0.098775	0.156200
C105	C	0.869332	-0.551867	-0.343785
C106	C	1.369332	-0.051867	0.156215
N107	N	0.909601	-0.528383	-0.303577
N108	N	1.409601	-0.028383	0.196423
C109	C	0.949887	-0.551816	-0.263374
C110	C	1.449887	-0.051816	0.236626
C111	C	0.869511	-0.978816	-0.343842
C112	C	1.369511	-0.478816	0.156158
C113	C	0.869528	-1.025734	-0.343847
C114	C	1.369528	-0.525734	0.156153
C115	C	0.950087	-1.025683	-0.263432
C116	C	1.450087	-0.525683	0.236568
C117	C	0.950065	-0.978764	-0.263425
C118	C	1.450065	-0.478764	0.236575
C119	C	0.909780	-0.955332	-0.303634
C120	C	1.409780	-0.455332	0.196366
C121	C	0.949837	-0.453290	-0.263359
C122	C	1.449837	0.046710	0.236641
C123	C	0.949810	-0.406370	-0.263353
C124	C	1.449810	0.093630	0.236647
C125	C	0.869254	-0.406426	-0.343770
C126	C	1.369254	0.093574	0.156230
C127	C	0.869279	-0.453341	-0.343774
C128	C	1.369279	0.046659	0.156226
C129	C	0.909576	-0.476772	-0.303567
C130	C	1.409576	0.023228	0.196433
O131	O	0.835073	-0.527587	-0.377942
O132	O	1.335073	-0.027587	0.122058
O133	O	0.984137	-0.527526	-0.229185
O134	O	1.484137	-0.027526	0.270815
C135	C	0.949972	-0.739480	-0.263403
C136	C	1.449972	-0.239480	0.236597
C137	C	0.909707	-0.762962	-0.303614
C138	C	1.409707	-0.262962	0.196386
C139	C	0.869421	-0.739529	-0.343817
C140	C	1.369421	-0.239529	0.156183
C141	C	0.909725	-0.809880	-0.303619
C142	C	1.409725	-0.309880	0.196381
C143	C	0.950012	-0.833313	-0.263416
C144	C	1.450012	-0.333313	0.236584
C145	C	0.990281	-0.809829	-0.223208
C146	C	1.490281	-0.309829	0.276792
C147	C	0.990258	-0.762913	-0.223200
C148	C	1.490258	-0.262913	0.276800
C149	C	0.829152	-0.763014	-0.384025
C150	C	1.329152	-0.263014	0.115975
C151	C	0.829177	-0.809929	-0.384029
C152	C	1.329177	-0.309929	0.115971
C153	C	0.869463	-0.833362	-0.343826
C154	C	1.369463	-0.333362	0.156174
C155	C	1.073818	-0.216257	-0.303653
C156	C	1.573818	0.283743	0.196347
C157	C	1.143786	-0.216247	-0.303684
C158	C	1.643786	0.283753	0.196316
C159	C	0.909680	-0.216271	-0.467770
C160	C	1.409680	0.283729	0.032230
C161	C	0.909702	-0.216267	-0.537738
C162	C	1.409702	0.283733	-0.037738
C163	C	0.909759	-0.099102	-0.303625
C164	C	1.409759	0.400898	0.196375
C165	C	0.909815	-0.049167	-0.303644
C166	C	1.409815	0.450833	0.196356
C167	C	0.949994	-0.187526	-0.570635
C168	C	1.449994	0.312474	-0.070635
C169	C	0.949993	-0.187507	-0.636377
C170	C	1.449993	0.312493	-0.136377
C171	C	0.909707	-0.216236	-0.669221
C172	C	1.409707	0.283764	-0.169221
C173	C	0.869407	-0.244978	-0.636316
C174	C	1.369407	0.255022	-0.136316
C175	C	0.869405	-0.244994	-0.570575
C176	C	1.369405	0.255006	-0.070575
N177	N	0.904840	-0.255537	-0.772436
N178	N	1.404840	0.244463	-0.272436
N179	N	0.904846	-0.255521	-0.834887
N180	N	1.404846	0.244479	-0.334887
C181	C	0.909711	-0.216190	-0.867295
C182	C	1.409711	0.283810	-0.367295
N183	N	0.914582	-0.176875	-0.834893
N184	N	1.414582	0.323125	-0.334893
N185	N	0.914580	-0.176891	-0.772436
N186	N	1.414580	0.323109	-0.272436
C187	C	0.909705	-0.216222	-0.740506
C188	C	1.409705	0.283778	-0.240506
C189	C	0.950004	-0.187426	-0.971478
C190	C	1.450004	0.312574	-0.471478
C191	C	0.949999	-0.187406	-1.037221
C192	C	1.449999	0.312594	-0.537221
C193	C	0.869416	-0.244882	-1.037159
C194	C	1.369416	0.255118	-0.537159
C195	C	0.869418	-0.244898	-0.971417
C196	C	1.369418	0.255102	-0.471417
C197	C	0.909716	-0.216171	-0.938580
C198	C	1.409716	0.283829	-0.438580
C199	C	0.909612	-0.216257	-0.140028
C200	C	1.409612	0.283743	0.359972
C201	C	0.909712	-0.216135	-0.070060
C202	C	1.409712	0.283865	0.429940
H203	H	0.669992	-0.268531	-0.376392
H204	H	1.169992	0.231469	0.123608
C205	C	0.994406	-1.051468	-0.219212
C206	C	1.494406	-0.551468	0.280788
N207	N	1.027789	-1.070891	-0.185911
N208	N	1.527789	-0.570891	0.314089
C209	C	0.679402	-0.155894	-0.219103
C210	C	1.179402	0.344106	0.280897
N211	N	0.706637	-0.132057	-0.185796
N212	N	1.206637	0.367943	0.314204
C213	C	0.784815	-0.694998	-0.428265
C214	C	1.284815	-0.194998	0.071735
N215	N	0.751449	-0.714445	-0.461592
N216	N	1.251449	-0.214445	0.038408
C217	C	0.541344	-0.155879	-0.219153
C218	C	1.041344	0.344121	0.280847
N219	N	0.514109	-0.132036	-0.185868
N220	N	1.014109	0.367964	0.314132
H221	H	0.836704	-0.959741	-0.376586
H222	H	1.336704	-0.459741	0.123414
C223	C	0.994162	-0.479057	-0.219126
C224	C	1.494162	0.020943	0.280874
N225	N	1.027544	-0.498465	-0.185805
N226	N	1.527544	0.001535	0.314195
C227	C	1.034484	-0.596342	-0.178931
C228	C	1.534484	-0.096342	0.321069
N229	N	1.067846	-0.576894	-0.145601
N230	N	1.567846	-0.076894	0.354399
C231	C	1.034533	-0.694851	-0.178950
C232	C	1.534533	-0.194851	0.321050
N233	N	1.067913	-0.714257	-0.145626
N234	N	1.567913	-0.214257	0.354374
H235	H	0.796292	-0.603181	-0.416761
H236	H	1.296292	-0.103181	0.083239
H237	H	0.836608	-0.268269	-1.063899
H238	H	1.336608	0.231731	-0.563899
H239	H	1.023048	-0.743797	-0.190453
H240	H	1.523048	-0.243797	0.309547
H241	H	0.269155	-0.268472	-0.376540
H242	H	0.769155	0.231528	0.123460
C243	C	0.994314	-0.155919	-0.534518
C244	C	1.494314	0.344081	-0.034518
N245	N	1.027694	-0.132111	-0.507314
N246	N	1.527694	0.367889	-0.007314
C247	C	1.034595	-0.835614	-0.178984
C248	C	1.534595	-0.335614	0.321016
N249	N	1.067974	-0.855038	-0.145679
N250	N	1.567974	-0.355038	0.354321
H251	H	0.149891	-0.268450	-0.376588
H252	H	0.649891	0.231550	0.123412
H253	H	0.982855	-0.959647	-0.230679
H254	H	1.482855	-0.459647	0.269321
C255	C	0.140507	-0.155821	-0.219294
C256	C	0.640507	0.344179	0.280706
N257	N	0.113272	-0.131978	-0.186009
N258	N	0.613272	0.368022	0.313991
H259	H	0.269165	-0.164062	-0.230731
H260	H	0.769165	0.335938	0.269269
H261	H	0.982802	-0.164100	-0.663167
H262	H	1.482802	0.335900	-0.163167
C263	C	0.825080	-0.276613	-0.534387
C264	C	1.325080	0.223387	-0.034387
N265	N	0.791695	-0.300430	-0.507130
N266	N	1.291695	0.199570	-0.007130
H267	H	0.982808	-0.163999	-1.064005
H268	H	1.482808	0.336001	-0.564005
C269	C	0.994105	-0.380543	-0.219109
C270	C	1.494105	0.119457	0.280891
N271	N	1.027468	-0.361091	-0.185784
N272	N	1.527468	0.138909	0.314216
H273	H	0.836612	-0.268304	-0.944632
H274	H	1.336612	0.231696	-0.444632
C275	C	0.825225	-1.051559	-0.388080
C276	C	1.325225	-0.551559	0.111920
N277	N	0.791857	-1.071009	-0.421401
N278	N	1.291857	-0.571009	0.078599
C279	C	0.825090	-0.276578	-0.672445
C280	C	1.325090	0.223422	-0.172445
N281	N	0.791706	-0.300379	-0.699657
N282	N	1.291706	0.199621	-0.199657
C283	C	0.994326	-0.155822	-0.935355
C284	C	1.494326	0.344178	-0.435355
N285	N	1.027709	-0.132017	-0.908149
N286	N	1.527709	0.367983	-0.408149
H287	H	0.796381	-0.829044	-0.416777
H288	H	1.296381	-0.329044	0.083223
H289	H	0.836492	-0.472462	-0.376522
H290	H	1.336492	0.027538	0.123478
H291	H	0.836451	-0.387339	-0.376501
H292	H	1.336451	0.112661	0.123499
H293	H	0.796346	-0.743938	-0.416764
H294	H	1.296346	-0.243938	0.083236
C295	C	0.541332	-0.276734	-0.387922
C296	C	1.041332	0.223266	0.112078
N297	N	0.514095	-0.300575	-0.421221
N298	N	1.014095	0.199425	0.078779
