data_functionalizedCrystal
_audit_creation_method	'MofGen! by Chris Wilmer'
_symmetry_space_group_name_H-M	'P1'
_symmetry_Int_Tables_number	1
_symmetry_cell_setting	triclinic
loop_
_symmetry_equiv_pos_as_xyz
  x,y,z
_cell_length_a	21.395364
_cell_length_b	16.120444
_cell_length_c	21.395355
_cell_angle_alpha	92.881464
_cell_angle_beta	89.975448
_cell_angle_gamma	92.941529
loop_
_atom_site_label
_atom_site_type_symbol
_atom_site_fract_x
_atom_site_fract_y
_atom_site_fract_z
Zn1	Zn	0.945239	-0.331681	-0.366899
Zn2	Zn	0.939837	-0.471080	-0.267433
Zn3	Zn	0.840452	-0.331717	-0.262137
Zn4	Zn	0.835118	-0.471095	-0.372174
O5	O	0.890162	-0.401393	-0.317161
O6	O	1.032201	-0.350151	-0.353714
O7	O	0.926625	-0.452602	-0.179053
O8	O	0.858846	-0.215043	-0.271611
O9	O	1.028233	-0.452567	-0.280637
O10	O	0.935832	-0.215016	-0.348579
O11	O	0.853608	-0.350213	-0.175162
O12	O	0.752066	-0.350227	-0.276725
O13	O	0.849754	-0.452592	-0.459152
O14	O	0.748147	-0.452628	-0.357569
O15	O	0.930659	-0.350165	-0.455277
O16	O	0.921453	-0.587751	-0.285751
O17	O	0.844517	-0.587762	-0.362704
C18	C	0.727373	-0.401434	-0.317145
C19	C	0.657730	-0.401471	-0.317154
C20	C	0.627102	-0.348230	-0.355270
C21	C	0.561668	-0.348208	-0.355272
C22	C	0.526863	-0.401442	-0.317164
C23	C	0.557498	-0.454686	-0.279040
C24	C	0.622932	-0.454701	-0.279035
C25	C	0.420281	-0.476523	-0.314987
C26	C	0.354849	-0.476510	-0.314997
C27	C	0.325044	-0.401396	-0.317176
C28	C	0.360679	-0.326292	-0.319359
C29	C	0.426113	-0.326307	-0.319354
C30	C	0.455911	-0.401431	-0.317165
C31	C	0.223465	-0.348126	-0.355297
C32	C	0.158029	-0.348103	-0.355294
C33	C	0.153860	-0.454588	-0.279065
C34	C	0.219295	-0.454604	-0.279064
C35	C	0.254093	-0.401375	-0.317184
C36	C	0.881837	-0.618007	-0.325388
C37	C	0.878333	-0.710676	-0.328929
C38	C	0.908493	-0.921598	-0.298929
C39	C	0.871947	-0.880337	-0.335400
C40	C	0.875501	-0.785929	-0.331798
C41	C	0.904939	-1.016015	-0.302530
C42	C	1.053587	-0.401353	-0.317178
C43	C	1.123228	-0.401336	-0.317185
C44	C	0.890214	-0.401376	-0.480584
C45	C	0.890237	-0.401369	-0.550225
C46	C	0.898536	-0.183933	-0.308915
C47	C	0.902105	-0.091264	-0.305402
C48	C	0.932362	-0.348033	-0.580921
C49	C	0.932363	-0.347997	-0.646355
C50	C	0.890244	-0.401312	-0.681091
C51	C	0.848110	-0.454652	-0.650387
C52	C	0.848107	-0.454680	-0.584954
C53	C	0.882412	-0.476383	-0.787617
C54	C	0.882419	-0.476356	-0.853049
C55	C	0.890251	-0.401224	-0.882909
C56	C	0.898088	-0.326117	-0.847328
C57	C	0.898085	-0.326145	-0.781895
C58	C	0.890243	-0.401287	-0.752042
C59	C	0.932380	-0.347845	-0.984556
C60	C	0.932376	-0.347807	-1.049991
C61	C	0.848126	-0.454470	-1.054022
C62	C	0.848127	-0.454499	-0.988588
C63	C	0.890257	-0.401188	-0.953858
C64	C	0.890148	-0.401350	-0.154372
C65	C	0.890256	-0.401122	-0.084722
H66	H	0.444543	-0.537695	-0.313212
Br67	Br	0.116462	-0.275835	-0.407023
H68	H	0.536726	-0.304849	-0.386310
H69	H	0.942447	-0.886024	-0.265002
H70	H	0.244232	-0.497962	-0.248028
Br71	Br	0.106632	-0.526826	-0.227339
Br72	Br	0.306494	-0.578435	-0.312048
H73	H	0.837990	-0.915915	-0.369328
Br74	Br	0.510265	-0.526926	-0.227316
H75	H	0.647868	-0.498057	-0.247995
H76	H	0.813815	-0.498059	-0.678673
Br77	Br	0.989536	-0.275679	-0.533791
Br78	Br	0.871792	-0.578287	-0.901330
H79	H	0.655431	-0.304886	-0.386309
Br80	Br	0.871801	-0.578360	-0.747100
H81	H	0.966666	-0.304560	-0.671353
H82	H	0.904464	-0.264990	-0.752928
Br83	Br	0.908723	-0.224144	-0.887843
Br84	Br	0.989552	-0.275493	-0.937419
Br85	Br	0.989561	-0.275429	-1.091652
Br86	Br	0.790956	-0.526817	-1.101156
H87	H	0.813800	-0.498112	-0.559962
Br88	Br	0.474473	-0.224387	-0.322314
Br89	Br	0.320238	-0.224344	-0.322318
Br90	Br	0.790954	-0.526890	-0.946925
Br91	Br	0.270695	-0.275883	-0.407024
