data_functionalizedCrystal
_audit_creation_method	'MofGen! by Chris Wilmer'
_symmetry_space_group_name_H-M	'P1'
_symmetry_Int_Tables_number	1
_symmetry_cell_setting	triclinic
loop_
_symmetry_equiv_pos_as_xyz
  x,y,z
_cell_length_a	14.853567
_cell_length_b	14.750779
_cell_length_c	14.853559
_cell_angle_alpha	102.657964
_cell_angle_beta	83.633192
_cell_angle_gamma	77.337139
loop_
_atom_site_label
_atom_site_type_symbol
_atom_site_fract_x
_atom_site_fract_y
_atom_site_fract_z
O1	O	1.176832	0.079755	0.137223
O2	O	0.914368	0.079771	0.151248
O3	O	1.052615	0.079762	0.013005
O4	O	1.038585	0.079765	0.275466
O5	O	1.091696	-0.079891	-0.026071
O6	O	0.953449	-0.079882	0.112173
O7	O	1.215913	-0.079898	0.098147
Zn8	Zn	1.090886	-0.105238	0.098956
Zn9	Zn	1.039395	0.105112	0.150440
O10	O	1.077666	-0.079888	0.236391
C11	C	0.900320	-0.000053	0.131076
C12	C	0.800234	-0.000047	0.129173
N13	N	1.126033	-0.248796	0.063819
C14	C	0.387709	-0.000069	0.039002
C15	C	0.366422	-0.000067	0.203236
C16	C	0.460455	-0.000063	0.205027
C17	C	0.518119	-0.000062	0.123804
C18	C	0.481750	-0.000063	0.040791
C19	C	0.496829	-0.000052	0.288041
C20	C	0.590867	-0.000048	0.289836
C21	C	0.648534	-0.000053	0.208610
C22	C	0.612160	-0.000056	0.125593
C23	C	0.669824	-0.000054	0.044371
C24	C	0.633454	-0.000064	-0.038649
C25	C	0.539417	-0.000069	-0.040434
C26	C	0.742570	-0.000048	0.210396
C27	C	0.763865	-0.000048	0.046160
C28	C	0.906093	-0.600599	0.283661
C29	C	0.930729	-0.701100	0.259046
C30	C	1.053172	-0.701071	0.136676
C31	C	1.028543	-0.600568	0.161279
C32	C	0.955004	-0.550340	0.234772
C33	C	1.077454	-0.550309	0.112390
C34	C	1.052830	-0.449815	0.136994
C35	C	0.979296	-0.399580	0.210486
C36	C	0.930380	-0.449846	0.259376
C37	C	1.150997	-0.600539	0.038901
C38	C	1.199908	-0.550280	-0.009988
C39	C	1.175281	-0.449784	0.014611
C40	C	1.101746	-0.399549	0.088104
C41	C	1.224196	-0.399518	-0.034278
C42	C	1.199573	-0.299024	-0.009675
C43	C	1.077123	-0.299055	0.112708
C44	C	1.229961	-0.000071	0.118320
C45	C	1.330045	-0.000071	0.120224
C46	C	1.071521	-0.000063	-0.040121
C47	C	1.069619	-0.000057	-0.140204
N48	N	1.004255	0.248670	0.185569
C49	C	1.040252	0.086970	-0.542079
C50	C	1.082859	-0.087090	-0.584675
C51	C	1.084653	-0.087091	-0.490642
C52	C	1.064244	-0.000060	-0.422323
C53	C	1.042042	0.086972	-0.448036
C54	C	1.106845	-0.174121	-0.464920
C55	C	1.108639	-0.174125	-0.370882
C56	C	1.088237	-0.087093	-0.302561
C57	C	1.066035	-0.000058	-0.328280
C58	C	1.045626	0.086973	-0.259960
C59	C	1.023431	0.174009	-0.285678
C60	C	1.021640	0.174004	-0.379715
C61	C	1.090027	-0.087088	-0.208523
C62	C	1.047417	0.086975	-0.165917
C63	C	1.058760	-0.000061	0.289517
C64	C	1.060660	-0.000061	0.389602
H65	H	0.810811	-0.000051	-0.019983
H66	H	0.620471	-0.000040	0.357435
H67	H	0.846203	-0.559702	0.343501
H68	H	1.030802	0.157847	-0.110296
H69	H	1.239402	-0.258103	-0.049484
H70	H	0.772180	-0.000042	0.277989
Cl71	Cl	0.837919	-0.386699	0.351762
H72	H	1.006808	0.244869	-0.230039
H73	H	1.123456	-0.244976	-0.520551
Cl74	Cl	0.984661	-0.235907	0.205093
Cl75	Cl	0.948344	-0.273243	0.241422
H76	H	1.003569	0.244864	-0.400664
H77	H	0.890894	-0.742016	0.298864
H78	H	0.358092	-0.000081	-0.028592
Cl79	Cl	1.012360	0.196382	-0.574409
H80	H	1.108078	-0.157952	-0.187586
Cl81	Cl	0.293927	-0.000056	0.305341
Cl82	Cl	0.424331	-0.000038	0.390146
H83	H	1.113051	-0.741978	0.076839
H84	H	0.680414	-0.000056	-0.104778
H85	H	1.099469	-0.157946	-0.640305
Cl86	Cl	1.181954	-0.726876	0.007978
H87	H	1.126715	-0.244995	-0.349952
H88	H	1.284079	-0.440427	-0.094112
Cl89	Cl	0.493687	-0.000075	-0.144790
H90	H	1.259787	-0.591187	-0.069825
