data_functionalizedCrystal
_audit_creation_method	'MofGen! by Chris Wilmer'
_symmetry_space_group_name_H-M	'P1'
_symmetry_Int_Tables_number	1
_symmetry_cell_setting	triclinic
loop_
_symmetry_equiv_pos_as_xyz
  x,y,z
_cell_length_a	8.559649
_cell_length_b	10.540539
_cell_length_c	7.681481
_cell_angle_alpha	84.202085
_cell_angle_beta	94.913240
_cell_angle_gamma	77.152078
loop_
_atom_site_label
_atom_site_type_symbol
_atom_site_fract_x
_atom_site_fract_y
_atom_site_fract_z
O1	O	2.104686	-0.029542	-0.146402
O2	O	1.640228	0.035941	-0.146408
O3	O	1.883054	-0.182616	-0.146403
O4	O	1.861861	0.189016	-0.146407
O5	O	1.912941	-0.209571	0.146456
O6	O	1.670116	0.008986	0.146450
O7	O	2.134573	-0.056497	0.146457
Zn8	Zn	1.907089	-0.028035	0.192951
Zn9	Zn	1.867712	0.007479	-0.192902
O10	O	1.891748	0.162061	0.146451
C11	C	1.595699	0.027426	0.000020
C12	C	1.418487	0.042198	0.000017
C13	C	1.896408	-0.243230	0.000023
C14	C	1.891652	-0.383679	0.000014
C15	C	1.709382	-0.547970	-0.000646
C16	C	1.714270	-0.401917	0.000013
C17	C	1.994083	-0.469667	0.167252
C18	C	1.988043	-0.615591	0.167393
C19	C	1.957664	-0.585834	-0.165642
C20	C	1.959072	-0.438819	-0.167853
C21	C	2.179102	-0.047981	0.000025
C22	C	2.356313	-0.062752	0.000016
C23	C	1.878393	0.222675	0.000021
C24	C	1.883148	0.363125	0.000019
N25	N	1.933975	-0.052274	0.456286
N26	N	1.840839	0.031708	-0.456237
H27	H	1.336134	0.143358	0.000006
H28	H	2.087366	-0.427208	-0.177950
N29	N	2.059939	-0.165819	0.555895
H30	H	2.037146	-0.251062	0.523912
H31	H	2.170113	-0.159283	0.523829
H32	H	1.634867	-0.341248	-0.119869
N33	N	1.465362	-0.196750	0.000020
H34	H	1.524156	-0.197682	-0.108540
H35	H	1.546214	-0.217586	0.108658
N36	N	1.714898	0.145260	0.444168
H37	H	1.717944	0.142501	0.313431
H38	H	1.604727	0.138793	0.476320
H39	H	1.887318	-0.599710	-0.292398
H40	H	1.627073	-0.558196	-0.120575
N41	N	1.633052	-0.592830	0.157316
H42	H	1.710542	-0.670492	0.229306
H43	H	1.606739	-0.518901	0.231858
H44	H	1.658885	-0.364132	0.120094
H45	H	1.937713	-0.648691	0.292404
H46	H	1.883986	-0.380035	-0.291571
N47	N	2.158041	-0.697760	0.177457
H48	H	2.236568	-0.639117	0.181791
H49	H	2.181378	-0.763435	0.287072
N50	N	2.167490	-0.458932	0.175472
H51	H	2.181349	-0.398073	0.070621
H52	H	2.197238	-0.423052	0.287542
H53	H	1.947485	-0.432314	0.291703
N54	N	2.127223	-0.666011	-0.167143
H55	H	2.155696	-0.735066	-0.061094
H56	H	2.134364	-0.709810	-0.278159
