data_functionalizedCrystal
_audit_creation_method	'MofGen! by Chris Wilmer'
_symmetry_space_group_name_H-M	'P1'
_symmetry_Int_Tables_number	1
_symmetry_cell_setting	triclinic
loop_
_symmetry_equiv_pos_as_xyz
  x,y,z
_cell_length_a	16.959455
_cell_length_b	29.839131
_cell_length_c	16.959447
_cell_angle_alpha	90.041568
_cell_angle_beta	90.014322
_cell_angle_gamma	90.032176
loop_
_atom_site_label
_atom_site_type_symbol
_atom_site_fract_x
_atom_site_fract_y
_atom_site_fract_z
Zn1	Zn	1.208301	-0.178881	0.446847
Zn2	Zn	1.208188	-0.254014	0.314642
Zn3	Zn	1.076129	-0.178895	0.314684
Zn4	Zn	1.076059	-0.253981	0.446781
O5	O	1.142169	-0.216443	0.380739
O6	O	1.318896	-0.188856	0.429320
O7	O	1.190652	-0.244070	0.204037
O8	O	1.093738	-0.116026	0.332261
O9	O	1.318814	-0.244056	0.332190
O10	O	1.190844	-0.116016	0.429360
O11	O	1.093629	-0.188880	0.204068
O12	O	0.965509	-0.188847	0.332197
O13	O	1.093618	-0.243999	0.557401
O14	O	0.965457	-0.244012	0.429248
O15	O	1.190776	-0.188823	0.557449
O16	O	1.190584	-0.316877	0.332126
O17	O	1.093509	-0.316852	0.429207
C18	C	0.936803	-0.216428	0.380721
C19	C	0.848946	-0.216433	0.380732
C20	C	0.477473	-0.187695	0.330310
C21	C	0.477468	-0.245228	0.431213
C22	C	0.560014	-0.245221	0.431208
C23	C	0.601293	-0.216452	0.380752
C24	C	0.560027	-0.187688	0.330302
C25	C	0.601287	-0.273987	0.481652
C26	C	0.683838	-0.273982	0.481648
C27	C	0.725118	-0.245210	0.431196
C28	C	0.683847	-0.216445	0.380744
C29	C	0.725126	-0.187676	0.330289
C30	C	0.683856	-0.158908	0.279840
C31	C	0.601307	-0.158916	0.279850
C32	C	0.807667	-0.245202	0.431187
C33	C	0.807680	-0.187669	0.330281
C34	C	1.142048	-0.333165	0.380672
C35	C	1.142069	-0.383100	0.380670
C36	C	1.192721	-0.692703	0.431370
C37	C	1.192807	-0.880376	0.431418
O38	O	1.235755	-0.904607	0.474476
N39	N	1.142303	-0.903885	0.380826
C40	C	1.091771	-0.880473	0.330223
O41	O	1.048811	-0.904775	0.287199
C42	C	1.091682	-0.692800	0.330180
C43	C	1.142194	-0.669294	0.380769
C44	C	1.243229	-0.669196	0.481956
C45	C	1.243210	-0.622281	0.481940
C46	C	1.192683	-0.598872	0.431339
C47	C	1.142175	-0.622379	0.380754
C48	C	1.041146	-0.669389	0.279582
C49	C	1.041127	-0.622468	0.279577
C50	C	1.091639	-0.598962	0.330166
C51	C	1.091630	-0.552054	0.330137
N52	N	1.142133	-0.528545	0.380729
C53	C	1.192660	-0.551954	0.431330
C54	C	1.091823	-0.979003	0.330248
C55	C	1.091846	-1.025921	0.330258
C56	C	1.192881	-1.025821	0.431454
C57	C	1.192861	-0.978902	0.431439
C58	C	1.142326	-0.955494	0.380840
C59	C	1.192617	-0.453428	0.431293
C60	C	1.192596	-0.406509	0.431271
C61	C	1.091558	-0.406613	0.330078
C62	C	1.091582	-0.453528	0.330097
C63	C	1.142114	-0.476935	0.380711
O64	O	1.048698	-0.527795	0.287109
O65	O	1.235601	-0.527644	0.474360
C66	C	1.192740	-0.739618	0.431386
C67	C	1.142232	-0.763125	0.380800
C68	C	1.091705	-0.739716	0.330199
C69	C	1.142255	-0.810043	0.380810
C70	C	1.192782	-0.833452	0.431411
C71	C	1.243286	-0.809943	0.482002
C72	C	1.243267	-0.763027	0.481987
C73	C	1.041202	-0.763225	0.279608
C74	C	1.041226	-0.810140	0.279627
C75	C	1.091752	-0.833549	0.330228
C76	C	1.348337	-0.216458	0.380757
C77	C	1.436194	-0.216465	0.380765
C78	C	1.142202	-0.216406	0.586907
C79	C	1.142216	-0.216390	0.674764
C80	C	1.142312	-0.099264	0.380823
C81	C	1.142372	-0.049330	0.380859
C82	C	1.142182	-0.216447	0.175372
C83	C	1.142321	-0.216337	0.087516
C84	C	1.091725	-0.245070	1.046217
C85	C	1.192896	-0.187615	1.046262
C86	C	1.192875	-0.187625	0.963716
C87	C	1.142279	-0.216358	0.922417
C88	C	1.091704	-0.245081	0.963663
C89	C	1.243455	-0.158905	0.922464
C90	C	1.243436	-0.158914	0.839913
C91	C	1.192836	-0.187645	0.798612
C92	C	1.142258	-0.216369	0.839863
C93	C	1.091662	-0.245102	0.798564
C94	C	1.041080	-0.273824	0.839814
C95	C	1.041103	-0.273812	0.922362
C96	C	1.192812	-0.187657	0.716063
C97	C	1.091641	-0.245113	0.716010
H98	H	0.443867	-0.164272	0.289238
O99	O	1.241971	-0.159722	1.086499
C100	C	1.286883	-0.134267	1.213694
C101	C	1.231249	-0.165872	1.168221
H102	H	1.278246	-0.139236	1.279774
H103	H	1.273043	-0.098032	1.197560
H104	H	1.350596	-0.142159	1.197405
H105	H	1.167518	-0.158021	1.184485
H106	H	1.245157	-0.202098	1.184359
O107	O	0.437251	-0.273132	0.480195
C108	C	0.310074	-0.298660	0.524887
C109	C	0.355525	-0.267028	0.469384
H110	H	0.243991	-0.293743	0.516153
H111	H	0.326269	-0.290813	0.588666
H112	H	0.326322	-0.334869	0.510891
H113	H	0.339301	-0.230808	0.483308
H114	H	0.339326	-0.274914	0.405620
H115	H	1.000014	-0.688520	0.238386
H116	H	1.284652	-0.135515	0.956096
H117	H	0.567671	-0.297413	0.522724
H118	H	1.234022	-1.044889	0.472654
H119	H	0.717433	-0.297406	0.522727
O120	O	1.042844	-0.956218	0.281049
C121	C	1.032254	-0.903331	0.174267
C122	C	1.087807	-0.929097	0.229950
H123	H	1.068585	-0.881405	0.132928
H124	H	0.990895	-0.881337	0.210464
H125	H	0.996150	-0.928205	0.138149
H126	H	1.123962	-0.904256	0.266080
H127	H	1.129114	-0.951098	0.193708
O128	O	1.042519	-0.272985	1.086159
C129	C	0.942203	-0.329994	1.077390
C130	C	0.997875	-0.298395	1.032057
H131	H	0.906105	-0.350553	1.033668
H132	H	0.900851	-0.309382	1.116031
H133	H	0.978485	-0.353462	1.116041
H134	H	0.961657	-0.274920	0.993363
H135	H	1.039229	-0.319035	0.993466
O136	O	0.992009	-0.599800	0.230349
C137	C	0.891753	-0.604855	0.130025
C138	C	0.947350	-0.630581	0.185721
H139	H	0.855619	-0.629730	0.093940
H140	H	0.928015	-0.582905	0.088662
H141	H	0.850425	-0.582878	0.166287
H142	H	0.988689	-0.652582	0.149522
H143	H	0.911039	-0.652502	0.227085
H144	H	1.050422	-0.387546	0.288877
H145	H	0.841265	-0.268625	0.472259
O146	O	1.042445	-0.476296	0.280927
C147	C	0.942260	-0.471437	0.180525
C148	C	0.997862	-0.445602	0.236175
H149	H	0.906212	-0.446633	0.144316
H150	H	0.900859	-0.493387	0.216749
H151	H	0.978593	-0.493424	0.139269
H152	H	0.961592	-0.423592	0.277442
H153	H	1.039265	-0.423681	0.199901
H154	H	1.284398	-0.743892	0.523181
H155	H	1.284429	-0.829010	0.523200
H156	H	0.567698	-0.135496	0.238776
H157	H	1.233997	-0.164273	0.682481
H158	H	1.233732	-0.387371	0.472466
O159	O	1.292356	-0.691981	0.531002
C160	C	1.399144	-0.744863	0.541742
C161	C	1.343535	-0.719100	0.486111
H162	H	1.440548	-0.766788	0.505469
H163	H	1.362893	-0.766858	0.583040
H164	H	1.435196	-0.719987	0.577907
H165	H	1.307471	-0.743944	0.449894
H166	H	1.379831	-0.697098	0.444865
O167	O	0.992080	-0.832902	0.230454
C168	C	0.891888	-0.828037	0.130060
C169	C	0.947496	-0.802205	0.185710
H170	H	0.855839	-0.803229	0.093858
H171	H	0.850488	-0.849988	0.166284
H172	H	0.928217	-0.850021	0.088798
H173	H	0.911230	-0.780196	0.226984
H174	H	0.988898	-0.780283	0.149437
H175	H	0.999925	-0.297198	0.955955
H176	H	1.233760	-0.472481	0.472513
H177	H	1.284339	-0.603145	0.523137
H178	H	1.284623	-0.135526	0.806334
H179	H	1.000056	-0.744169	0.238403
H180	H	1.233992	-0.959766	0.472634
H181	H	1.050432	-0.268507	0.682390
H182	H	0.999888	-0.297221	0.806177
H183	H	1.050722	-1.045056	0.289055
H184	H	0.841283	-0.164238	0.289198
H185	H	0.717476	-0.135486	0.238756
