data_functionalizedCrystal
_audit_creation_method	'MofGen! by Chris Wilmer'
_symmetry_space_group_name_H-M	'P1'
_symmetry_Int_Tables_number	1
_symmetry_cell_setting	triclinic
loop_
_symmetry_equiv_pos_as_xyz
  x,y,z
_cell_length_a	12.759401
_cell_length_b	12.594516
_cell_length_c	12.759393
_cell_angle_alpha	90.029124
_cell_angle_beta	90.018496
_cell_angle_gamma	90.016214
loop_
_atom_site_label
_atom_site_type_symbol
_atom_site_fract_x
_atom_site_fract_y
_atom_site_fract_z
Zn1	Zn	1.606246	-0.423675	0.593999
Zn2	Zn	1.606136	-0.601694	0.418327
Zn3	Zn	1.430547	-0.423730	0.418339
Zn4	Zn	1.430532	-0.601612	0.593968
O5	O	1.518365	-0.512678	0.506158
O6	O	1.753252	-0.447300	0.570704
O7	O	1.582804	-0.578144	0.271307
O8	O	1.453907	-0.274777	0.441658
O9	O	1.753171	-0.578090	0.441638
O10	O	1.582991	-0.274736	0.570715
O11	O	1.453800	-0.447395	0.271316
O12	O	1.283524	-0.447316	0.441628
O13	O	1.453880	-0.577951	0.740993
O14	O	1.283513	-0.578005	0.570663
O15	O	1.582976	-0.447221	0.741016
O16	O	1.582789	-0.750629	0.441608
O17	O	1.453774	-0.750569	0.570651
C18	C	1.245398	-0.512658	0.506144
C19	C	1.128621	-0.512676	0.506163
C20	C	1.518296	-0.789219	0.506148
C21	C	1.518363	-0.907524	0.506179
C22	C	1.073781	-0.580834	0.573240
C23	C	0.964057	-0.580848	0.573251
C24	C	0.964023	-0.444541	0.439099
C25	C	1.073745	-0.444523	0.439094
C26	C	1.128657	-0.648987	0.640308
C27	C	1.073816	-0.717152	0.707390
C28	C	0.964092	-0.717165	0.707402
C29	C	0.909209	-0.649014	0.640331
C30	C	1.448185	-0.976783	0.576316
C31	C	1.422585	-1.047654	0.480449
C32	C	1.544058	-1.047453	0.602062
C33	C	1.492713	-0.976836	0.410261
C34	C	1.614230	-0.976629	0.531938
C35	C	1.588667	-1.047468	0.436006
C36	C	1.792398	-0.512698	0.506173
C37	C	1.909175	-0.512707	0.506179
C38	C	1.518439	-0.512570	0.780192
C39	C	1.518470	-0.512525	0.896968
C40	C	1.518463	-0.235057	0.506192
C41	C	1.518505	-0.116752	0.506206
C42	C	1.518352	-0.512708	0.233191
C43	C	1.518525	-0.512454	0.116415
C44	C	1.585700	-0.444447	0.951844
C45	C	1.585725	-0.444409	1.061568
C46	C	1.451288	-0.580534	1.061531
C47	C	1.451258	-0.580567	0.951809
C48	C	1.652912	-0.376405	0.897003
C49	C	1.720147	-0.308323	0.951879
C50	C	1.720172	-0.308284	1.061603
C51	C	1.652962	-0.376328	1.116451
H52	H	1.118509	-0.772632	0.762003
H53	H	1.695219	-0.945412	0.553750
H54	H	1.652901	-0.376431	0.807660
H55	H	1.565734	-1.078472	0.683138
H56	H	1.396567	-0.635932	1.106198
H57	H	1.217999	-0.648985	0.640305
H58	H	1.774861	-0.252918	0.907214
O59	O	1.659409	-1.084399	0.365118
C60	C	1.687812	-1.189181	0.209638
C61	C	1.607600	-1.147446	0.289861
H62	H	1.645952	-1.240144	0.148760
H63	H	1.749453	-1.238996	0.251634
H64	H	1.727412	-1.119225	0.169087
H65	H	1.567923	-1.217338	0.330436
H66	H	1.546025	-1.097599	0.247807
H67	H	1.396498	-0.635985	0.907128
O68	O	1.785576	-0.242116	1.114748
C69	C	1.918875	-0.107061	1.103198
C70	C	1.844870	-0.181957	1.042884
H71	H	1.966818	-0.058387	1.045122
H72	H	1.973874	-0.155867	1.154534
H73	H	1.870659	-0.051427	1.154602
H74	H	1.893001	-0.237606	0.991423
H75	H	1.789869	-0.133085	0.991614
O76	O	0.910772	-0.783221	0.772676
C77	C	0.786903	-0.797740	0.914468
C78	C	0.847237	-0.722804	0.840629
H79	H	0.735504	-0.748924	0.969411
H80	H	0.844928	-0.846424	0.962477
H81	H	0.735552	-0.853362	0.866119
H82	H	0.898589	-0.667117	0.888896
H83	H	0.789155	-0.674194	0.792617
O84	O	0.910550	-0.378454	0.373975
C85	C	0.741500	-0.318048	0.314559
C86	C	0.801925	-0.392956	0.388356
H87	H	0.653666	-0.329730	0.326176
H88	H	0.762965	-0.336643	0.229790
H89	H	0.763147	-0.232249	0.333131
H90	H	0.780311	-0.478780	0.369879
H91	H	0.780455	-0.374269	0.473103
H92	H	1.652975	-0.376279	1.205796
H93	H	0.819864	-0.649021	0.640355
H94	H	1.118397	-0.389014	0.384482
H95	H	1.388731	-0.945746	0.635542
H96	H	1.470943	-0.945945	0.329163
O97	O	1.325878	-1.084826	0.454633
C98	C	1.142493	-1.090932	0.499298
C99	C	1.251960	-1.048791	0.528660
H100	H	1.082697	-1.061796	0.559120
H101	H	1.143617	-1.181442	0.498858
H102	H	1.120116	-1.060694	0.418121
H103	H	1.274405	-1.078950	0.609843
H104	H	1.250777	-0.958282	0.529028
