data_functionalizedCrystal
_audit_creation_method	'MofGen! by Chris Wilmer'
_symmetry_space_group_name_H-M	'P1'
_symmetry_Int_Tables_number	1
_symmetry_cell_setting	triclinic
loop_
_symmetry_equiv_pos_as_xyz
  x,y,z
_cell_length_a	15.298709
_cell_length_b	15.299816
_cell_length_c	11.169409
_cell_angle_alpha	80.352328
_cell_angle_beta	80.355811
_cell_angle_gamma	88.426258
loop_
_atom_site_label
_atom_site_type_symbol
_atom_site_fract_x
_atom_site_fract_y
_atom_site_fract_z
Zn1	Zn	1.399325	-0.116585	0.383846
Zn2	Zn	1.424556	-0.263063	0.211112
Zn3	Zn	1.252860	-0.142009	0.222695
Zn4	Zn	1.278156	-0.288347	0.451225
O5	O	1.338724	-0.202501	0.317219
O6	O	1.525238	-0.114794	0.327887
O7	O	1.401753	-0.247063	0.044719
O8	O	1.251144	-0.016092	0.220721
O9	O	1.543775	-0.222411	0.200981
O10	O	1.358751	0.002587	0.339118
O11	O	1.275609	-0.158125	0.053228
O12	O	1.133650	-0.182642	0.286055
O13	O	1.294256	-0.265504	0.610217
O14	O	1.152235	-0.290156	0.453955
O15	O	1.383279	-0.139311	0.560714
O16	O	1.426281	-0.388961	0.266315
O17	O	1.318721	-0.407537	0.442724
C18	C	1.111163	-0.241902	0.378574
C19	C	1.013815	-0.258779	0.404855
C20	C	0.977799	-0.322770	0.504510
C21	C	0.886335	-0.338622	0.529212
C22	C	0.830878	-0.290491	0.454256
C23	C	0.866895	-0.226504	0.354593
C24	C	0.958367	-0.210645	0.329894
C25	C	0.811446	-0.178366	0.279640
C26	C	0.847463	-0.114379	0.179977
C27	C	0.938926	-0.098523	0.155282
C28	C	0.994383	-0.146654	0.230239
C29	C	0.719974	-0.194225	0.304339
C30	C	0.700542	-0.082100	0.129723
C31	C	0.792006	-0.066247	0.105021
C32	C	1.378008	-0.430019	0.360594
C33	C	1.394894	-0.527339	0.379168
C34	C	1.218613	-0.840826	0.184719
C35	C	1.202743	-0.749391	0.167271
C36	C	1.250780	-0.693873	0.220244
C37	C	1.314688	-0.729800	0.290667
C38	C	1.330554	-0.821246	0.308124
C39	C	1.362721	-0.674293	0.343649
C40	C	1.426630	-0.710220	0.414073
C41	C	1.442493	-0.801657	0.431526
C42	C	1.394457	-0.857174	0.378554
C43	C	1.346855	-0.582847	0.326192
C44	C	1.458796	-0.563267	0.449598
C45	C	1.474666	-0.654703	0.467045
C46	C	1.567174	-0.162946	0.255626
C47	C	1.664526	-0.146090	0.229378
C48	C	1.338775	-0.202392	0.630225
C49	C	1.338796	-0.202345	0.763610
C50	C	1.299311	0.025910	0.273695
C51	C	1.282516	0.123246	0.255148
C52	C	1.338713	-0.202537	0.005406
C53	C	1.338819	-0.202308	-0.128071
H54	H	0.968247	-0.046415	0.074136
H55	H	0.655389	-0.042905	0.068690
C56	C	1.411910	-0.957760	0.397743
N57	N	1.425053	-1.033524	0.412195
C58	C	1.233325	-0.593291	0.201042
N59	N	1.220178	-0.517528	0.186570
H60	H	1.068862	-0.133754	0.210127
H61	H	0.821344	-0.014148	0.023875
H62	H	1.150709	-0.720142	0.109935
C63	C	0.680368	-0.264617	0.413957
N64	N	0.650539	-0.317644	0.496525
C65	C	1.544959	-0.694236	0.544516
N66	N	1.597904	-0.724013	0.602868
H67	H	0.756404	-0.303402	0.474375
C68	C	0.846726	-0.409022	0.638820
N69	N	0.816894	-0.462056	0.721375
H70	H	1.497910	-0.518065	0.492735
C71	C	1.038805	-0.375706	0.586950
N72	N	1.084758	-0.415582	0.649048
C73	C	1.165842	-0.901889	0.126358
N74	N	1.126114	-0.947880	0.082359
H75	H	1.294820	-0.553604	0.268853
H76	H	1.494528	-0.830906	0.488876
