data_functionalizedCrystal
_audit_creation_method	'MofGen! by Chris Wilmer'
_symmetry_space_group_name_H-M	'P1'
_symmetry_Int_Tables_number	1
_symmetry_cell_setting	triclinic
loop_
_symmetry_equiv_pos_as_xyz
  x,y,z
_cell_length_a	14.853567
_cell_length_b	15.995350
_cell_length_c	13.930277
_cell_angle_alpha	89.997676
_cell_angle_beta	89.995755
_cell_angle_gamma	83.563653
loop_
_atom_site_label
_atom_site_type_symbol
_atom_site_fract_x
_atom_site_fract_y
_atom_site_fract_z
O1	O	1.196221	0.109317	-0.079760
O2	O	1.696221	0.609317	0.420240
O3	O	0.933744	0.122339	-0.079776
O4	O	1.433744	0.622339	0.420224
O5	O	1.072157	-0.006051	-0.079766
O6	O	1.572157	0.493949	0.420234
O7	O	1.057808	0.237707	-0.079769
O8	O	1.557808	0.737707	0.420231
O9	O	1.072138	-0.006054	0.079895
O10	O	1.572138	0.493946	0.579895
O11	O	0.933725	0.122336	0.079886
O12	O	1.433725	0.622336	0.579886
O13	O	1.196202	0.109314	0.079902
O14	O	1.696202	0.609314	0.579902
Zn15	Zn	1.064960	0.115825	0.105244
Zn16	Zn	1.564960	0.615825	0.605244
Zn17	Zn	1.064986	0.115828	-0.105117
Zn18	Zn	1.564986	0.615828	0.394883
O19	O	1.057788	0.237705	0.079893
O20	O	1.557788	0.737705	0.579893
C21	C	0.900146	0.121748	0.000053
C22	C	1.400146	0.621748	0.500053
C23	C	0.800065	0.119980	0.000047
C24	C	1.300065	0.619980	0.500047
C25	C	0.387644	0.036238	0.000069
C26	C	0.887644	0.536238	0.500069
C27	C	0.366158	0.188769	0.000067
C28	C	0.866158	0.688769	0.500067
C29	C	0.460189	0.190432	0.000064
C30	C	0.960189	0.690432	0.500064
C31	C	0.517953	0.114996	0.000062
C32	C	1.017953	0.614996	0.500062
C33	C	0.481685	0.037899	0.000063
C34	C	0.981685	0.537899	0.500063
C35	C	0.496464	0.267528	0.000053
C36	C	0.996464	0.767528	0.500053
C37	C	0.590501	0.269194	0.000048
C38	C	1.090501	0.769194	0.500048
C39	C	0.648266	0.193758	0.000054
C40	C	1.148266	0.693758	0.500054
C41	C	0.611993	0.116657	0.000056
C42	C	1.111993	0.616657	0.500056
C43	C	0.669757	0.041221	0.000054
C44	C	1.169757	0.541221	0.500054
C45	C	0.633485	-0.035880	0.000064
C46	C	1.133485	0.464120	0.500064
C47	C	0.539450	-0.037538	0.000069
C48	C	1.039450	0.462462	0.500069
C49	C	0.742302	0.195415	0.000049
C50	C	1.242302	0.695415	0.500049
C51	C	0.763797	0.042882	0.000048
C52	C	1.263797	0.542882	0.500048
C53	C	1.071555	-0.037248	0.000063
C54	C	1.571555	0.462752	0.500063
C55	C	1.069776	-0.130201	0.000057
C56	C	1.569776	0.369799	0.500057
C57	C	1.063389	-0.467956	0.000060
C58	C	1.563389	0.032044	0.500060
C59	C	0.964813	-0.420636	-0.000304
C60	C	1.464813	0.079364	0.499696
C61	C	0.966592	-0.323944	0.000056
C62	C	1.466592	0.176056	0.500056
C63	C	1.066557	-0.300391	0.000058
C64	C	1.566557	0.199609	0.500058
C65	C	1.115167	-0.341414	0.091234
C66	C	1.615167	0.158586	0.591234
C67	C	1.112691	-0.438052	0.091310
C68	C	1.612691	0.061948	0.591310
C69	C	1.114749	-0.438405	-0.090255
C70	C	1.614749	0.061595	0.409745
C71	C	1.114726	-0.341460	-0.091460
C72	C	1.614726	0.158540	0.408540
C73	C	1.068353	-0.205692	0.000060
C74	C	1.568353	0.294308	0.500060
C75	C	1.061596	-0.562655	0.000064
C76	C	1.561596	-0.062655	0.500064
C77	C	1.229799	0.109906	0.000071
C78	C	1.729799	0.609906	0.500071
C79	C	1.329881	0.111674	0.000071
C80	C	1.829881	0.611674	0.500071
C81	C	1.058391	0.268901	0.000062
C82	C	1.558391	0.768901	0.500062
C83	C	1.060170	0.361854	0.000061
C84	C	1.560170	0.861854	0.500061
N85	N	1.064950	0.115822	0.248810
N86	N	1.564950	0.615822	0.748810
N87	N	1.065003	0.115825	-0.248684
N88	N	1.565003	0.615825	0.251316
C89	C	1.003694	0.172657	0.701075
C90	C	1.503694	0.672657	1.201075
C91	C	1.126302	0.058993	0.701053
C92	C	1.626302	0.558993	1.201053
C93	C	1.126292	0.058990	0.600557
C94	C	1.626292	0.558990	1.100557
C95	C	1.064982	0.115823	0.550316
C96	C	1.564982	0.615823	1.050316
C97	C	1.003683	0.172658	0.600570
C98	C	1.503683	0.672658	1.100570
C99	C	1.187595	0.002162	0.550295
C100	C	1.687595	0.502162	1.050295
C101	C	1.187588	0.002158	0.449793
C102	C	1.687588	0.502158	0.949793
C103	C	1.126273	0.058987	0.399550
C104	C	1.626273	0.558987	0.899550
C105	C	1.064971	0.115824	0.449811
C106	C	1.564971	0.615824	0.949811
C107	C	1.003661	0.172656	0.399569
C108	C	1.503661	0.672656	0.899569
C109	C	0.942354	0.229490	0.449828
C110	C	1.442354	0.729490	0.949828
C111	C	0.942368	0.229487	0.550327
C112	C	1.442368	0.729487	1.050327
C113	C	1.126259	0.058989	0.299051
C114	C	1.626259	0.558989	0.799051
C115	C	1.003651	0.172657	0.299064
C116	C	1.503651	0.672657	0.799064
H117	H	0.620025	0.331975	0.000041
H118	H	1.120025	0.831975	0.500041
N119	N	0.915627	-0.287092	0.086778
N120	N	1.415627	0.212908	0.586778
H121	H	0.957651	-0.257203	0.128322
H122	H	1.457651	0.242797	0.628322
H123	H	0.863165	-0.245750	0.065120
H124	H	1.363165	0.254250	0.565120
N125	N	0.826097	-0.038482	0.000058
N126	N	1.326097	0.461518	0.500058
H127	H	0.788848	-0.087572	0.000066
H128	H	1.288848	0.412428	0.500066
H129	H	0.865582	-0.041120	-0.059134
H130	H	1.365582	0.458880	0.440866
N131	N	0.915977	-0.286351	-0.086518
N132	N	1.415977	0.213649	0.413482
H133	H	0.945838	-0.310852	-0.146953
H134	H	1.445838	0.189148	0.353047
H135	H	0.851153	-0.299704	-0.084063
H136	H	1.351153	0.200296	0.415937
H137	H	0.509909	-0.100310	0.000099
H138	H	1.009909	0.399690	0.500099
H139	H	0.953721	0.218934	0.258164
H140	H	1.453721	0.718934	0.758164
N141	N	0.348531	-0.046919	0.000092
N142	N	0.848531	0.453081	0.500092
H143	H	0.280195	-0.036529	0.000102
H144	H	0.780195	0.463471	0.500102
H145	H	0.369658	-0.079936	-0.059095
H146	H	0.869658	0.420064	0.440905
N147	N	0.876255	0.290780	0.604542
N148	N	1.376255	0.790780	1.104542
H149	H	0.910713	0.327910	0.646226
H150	H	1.410713	0.827910	1.146226
H151	H	0.837424	0.326728	0.557412
H152	H	1.337424	0.826728	1.057412
H153	H	0.319121	0.250185	0.000060
H154	H	0.819121	0.750185	0.500060
H155	H	1.079186	-0.314251	-0.158910
H156	H	1.579186	0.185749	0.341090
N157	N	0.434166	0.348886	0.000044
N158	N	0.934166	0.848886	0.500044
H159	H	0.369093	0.336133	0.000054
H160	H	0.869093	0.836133	0.500054
H161	H	0.445910	0.382483	0.059228
H162	H	0.945910	0.882483	0.559228
N163	N	0.781426	0.278563	0.000028
N164	N	1.281426	0.778563	0.500028
H165	H	0.730564	0.326098	0.000024
H166	H	1.230564	0.826098	0.500024
H167	H	0.819971	0.282579	0.059215
H168	H	1.319971	0.782579	0.559215
H169	H	0.680529	-0.097299	0.000056
H170	H	1.180529	0.402701	0.500056
H171	H	0.925421	-0.439212	-0.065688
H172	H	1.425421	0.060788	0.434312
H173	H	0.925581	-0.440277	0.064711
H174	H	1.425581	0.059723	0.564711
H175	H	1.077228	-0.456396	0.159464
H176	H	1.577228	0.043604	0.659464
H177	H	1.188608	-0.327203	0.094626
H178	H	1.688608	0.172797	0.594626
H179	H	1.185063	-0.470216	0.095448
H180	H	1.685063	0.029784	0.595448
H181	H	0.892439	0.275767	0.408910
H182	H	1.392439	0.775767	0.908910
N183	N	0.937567	0.233950	0.755274
N184	N	1.437567	0.733950	1.255274
H185	H	0.946870	0.225327	0.826564
H186	H	1.446870	0.725327	1.326564
H187	H	0.947974	0.293368	0.737704
H188	H	1.447974	0.793368	1.237704
H189	H	1.081389	-0.313073	0.159082
H190	H	1.581389	0.186927	0.659082
H191	H	1.082528	-0.458981	-0.159361
H192	H	1.582528	0.041019	0.340639
N193	N	1.253699	-0.059136	0.604499
N194	N	1.753699	0.440864	1.104499
H195	H	1.243312	-0.118579	0.587011
H196	H	1.743312	0.381421	1.087011
H197	H	1.317658	-0.049323	0.586996
H198	H	1.817658	0.450677	1.086996
N199	N	1.192433	-0.002296	0.755236
N200	N	1.692433	0.497704	1.255236
H201	H	1.183141	0.006330	0.826528
H202	H	1.683141	0.506330	1.326528
H203	H	1.182021	-0.061714	0.737679
H204	H	1.682021	0.438286	1.237679
H205	H	1.187625	-0.326013	-0.096963
H206	H	1.687625	0.173987	0.403037
H207	H	1.187428	-0.470081	-0.090866
H208	H	1.687428	0.029919	0.409134
N209	N	1.253706	-0.059138	0.395589
N210	N	1.753706	0.440862	0.895589
H211	H	1.292547	-0.095140	0.442668
H212	H	1.792547	0.404860	0.942668
H213	H	1.219189	-0.096215	0.353904
H214	H	1.719189	0.403785	0.853904
H215	H	1.176179	0.012720	0.258135
H216	H	1.676179	0.512720	0.758135
