data_functionalizedCrystal
_audit_creation_method	'MofGen! by Chris Wilmer'
_symmetry_space_group_name_H-M	'P1'
_symmetry_Int_Tables_number	1
_symmetry_cell_setting	triclinic
loop_
_symmetry_equiv_pos_as_xyz
  x,y,z
_cell_length_a	14.908993
_cell_length_b	14.908178
_cell_length_c	14.908308
_cell_angle_alpha	90.221621
_cell_angle_beta	83.629285
_cell_angle_gamma	96.795214
loop_
_atom_site_label
_atom_site_type_symbol
_atom_site_fract_x
_atom_site_fract_y
_atom_site_fract_z
Zn1	Zn	1.337566	-0.305884	0.415341
Zn2	Zn	1.837566	0.194116	0.915341
Zn3	Zn	1.338483	-0.447538	0.256253
Zn4	Zn	1.838483	0.052462	0.756253
Zn5	Zn	1.194937	-0.305927	0.272717
Zn6	Zn	1.694937	0.194073	0.772717
Zn7	Zn	1.177450	-0.465958	0.415277
Zn8	Zn	1.677450	0.034042	0.915277
O9	O	1.262109	-0.381327	0.339897
O10	O	1.762109	0.118673	0.839897
O11	O	1.464771	-0.316948	0.387374
O12	O	1.964771	0.183052	0.887374
O13	O	1.327143	-0.421062	0.132196
O14	O	1.827143	0.078938	0.632196
O15	O	1.220792	-0.179665	0.298554
O16	O	1.720792	0.320335	0.798554
O17	O	1.465445	-0.421021	0.270492
O18	O	1.965445	0.078979	0.770492
O19	O	1.325581	-0.179634	0.403339
O20	O	1.825581	0.320366	0.903339
O21	O	1.221681	-0.317021	0.144292
O22	O	1.721681	0.182979	0.644292
O23	O	1.065534	-0.334882	0.298492
O24	O	1.565534	0.165118	0.798492
O25	O	1.190987	-0.452415	0.541527
O26	O	1.690987	0.047585	1.041527
O27	O	1.052686	-0.452457	0.403230
O28	O	1.552686	0.047543	0.903230
O29	O	1.308624	-0.334809	0.541574
O30	O	1.808624	0.165191	1.041574
O31	O	1.310186	-0.576238	0.270430
O32	O	1.810186	-0.076238	0.770430
O33	O	1.191876	-0.589771	0.387265
O34	O	1.691876	-0.089771	0.887265
C35	C	1.026158	-0.395674	0.352641
C36	C	1.526158	0.104326	0.852641
C37	C	0.925215	-0.401834	0.358114
C38	C	1.425215	0.098166	0.858114
C39	C	0.748859	-0.290817	0.259503
C40	C	1.248859	0.209183	0.759503
C41	C	0.654014	-0.296602	0.264642
C42	C	1.154014	0.203398	0.764642
C43	C	0.640679	-0.419194	0.373525
C44	C	1.140679	0.080806	0.873525
C45	C	0.735524	-0.413408	0.368386
C46	C	1.235524	0.086592	0.868386
C47	C	0.789611	-0.349217	0.311374
C48	C	1.289611	0.150783	0.811374
C49	C	0.884457	-0.343428	0.306241
C50	C	1.384457	0.156572	0.806241
C51	C	0.871121	-0.466023	0.415118
C52	C	1.371121	0.033977	0.915118
C53	C	0.776276	-0.471808	0.420257
C54	C	1.276276	0.028192	0.920257
C55	C	1.249256	-0.615741	0.327072
C56	C	1.749256	-0.115741	0.827072
C57	C	1.243839	-0.716021	0.321612
C58	C	1.743839	-0.216021	0.821612
C59	C	1.342681	-0.904288	0.420591
C60	C	1.842681	-0.404288	0.920591
C61	C	1.337594	-0.998510	0.415463
C62	C	1.837594	-0.498510	0.915463
C63	C	1.228574	-0.998689	0.306233
C64	C	1.728574	-0.498689	0.806233
C65	C	1.233661	-0.904467	0.311361
C66	C	1.733661	-0.404467	0.811361
C67	C	1.290717	-0.857270	0.368541
C68	C	1.790717	-0.357270	0.868541
C69	C	1.295809	-0.763045	0.373664
C70	C	1.795809	-0.263045	0.873664
C71	C	1.186785	-0.763227	0.264438
C72	C	1.686785	-0.263227	0.764438
C73	C	1.181698	-0.857449	0.259310
C74	C	1.681698	-0.357449	0.759310
C75	C	1.498981	-0.366925	0.327104
C76	C	1.998981	0.133075	0.827104
C77	C	1.599921	-0.360788	0.321652
C78	C	2.099921	0.139212	0.821652
C79	C	1.247753	-0.395662	0.575199
C80	C	1.747753	0.104338	1.075199
C81	C	1.241635	-0.401771	0.675470
C82	C	1.741635	0.098229	1.175470
C83	C	1.275035	-0.145997	0.352790
C84	C	1.775035	0.354003	0.852790
C85	C	1.280544	-0.045714	0.358285
C86	C	1.780544	0.454286	0.858285
C87	C	1.276465	-0.366979	0.105512
C88	C	1.776465	0.133021	0.605512
C89	C	1.282772	-0.360606	0.005245
C90	C	1.782772	0.139394	0.505245
C91	C	1.352633	-0.290766	0.863943
C92	C	1.852633	0.209234	1.363943
C93	C	1.346888	-0.296503	0.958157
C94	C	1.846888	0.203497	1.458157
C95	C	1.224396	-0.418975	0.958114
C96	C	1.724396	0.081025	1.458114
C97	C	1.230141	-0.413239	0.863900
C98	C	1.730141	0.086761	1.363900
C99	C	1.294263	-0.349133	0.816818
C100	C	1.794263	0.150867	1.316818
C101	C	1.300012	-0.343401	0.722601
C102	C	1.800012	0.156599	1.222601
C103	C	1.177516	-0.465869	0.722561
C104	C	1.677516	0.034131	1.222561
C105	C	1.171771	-0.471605	0.816775
C106	C	1.671771	0.028395	1.316775
H107	H	0.596626	-0.471463	0.419932
H108	H	1.096626	0.028537	0.919932
Cl109	Cl	0.816856	-0.210115	0.187842
Cl110	Cl	1.316856	0.289885	0.687842
Cl111	Cl	1.402920	-1.057616	0.480903
Cl112	Cl	1.902920	-0.557616	0.980903
H113	H	1.119563	-0.523797	0.855123
H114	H	1.619563	-0.023797	1.355123
H115	H	0.904311	-0.513572	0.457361
H116	H	1.404311	-0.013572	0.957361
H117	H	1.352224	-0.291204	0.684268
H118	H	1.852224	0.208796	1.184268
H119	H	1.404848	-0.238573	0.825607
H120	H	1.904848	0.261427	1.325607
Cl121	Cl	0.952451	-0.262730	0.234572
Cl122	Cl	1.452451	0.237270	0.734572
H123	H	0.620838	-0.249046	0.222404
H124	H	1.120838	0.250954	0.722404
H125	H	0.732226	-0.524074	0.466671
H126	H	1.232226	-0.024074	0.966671
H127	H	1.135242	-0.895890	0.212758
H128	H	1.635242	-0.395890	0.712758
Cl129	Cl	1.420270	-0.223123	1.017397
Cl130	Cl	1.920270	0.276877	1.517397
H131	H	1.389145	-0.865858	0.467143
H132	H	1.889145	-0.365858	0.967143
Cl133	Cl	1.367538	-0.703712	0.445544
Cl134	Cl	1.867538	-0.203712	0.945544
H135	H	1.182118	-1.037134	0.259684
H136	H	1.682118	-0.537134	0.759684
H137	H	1.144475	-0.724934	0.222053
H138	H	1.644475	-0.224934	0.722053
Cl139	Cl	1.143787	-0.499552	1.017319
Cl140	Cl	1.643787	0.000448	1.517319
H141	H	1.129989	-0.513398	0.684182
H142	H	1.629989	-0.013398	1.184182
