data_functionalizedCrystal
_audit_creation_method	'MofGen! by Chris Wilmer'
_symmetry_space_group_name_H-M	'P1'
_symmetry_Int_Tables_number	1
_symmetry_cell_setting	triclinic
loop_
_symmetry_equiv_pos_as_xyz
  x,y,z
_cell_length_a	16.120530
_cell_length_b	25.639239
_cell_length_c	16.120297
_cell_angle_alpha	92.868703
_cell_angle_beta	90.128140
_cell_angle_gamma	87.134054
loop_
_atom_site_label
_atom_site_type_symbol
_atom_site_fract_x
_atom_site_fract_y
_atom_site_fract_z
Zn1	Zn	1.247330	-0.264883	-0.534536
Zn2	Zn	1.254246	-0.348114	-0.395469
Zn3	Zn	1.115324	-0.256048	-0.388455
Zn4	Zn	1.108202	-0.347633	-0.527439
O5	O	1.181275	-0.304170	-0.461475
O6	O	1.364612	-0.279823	-0.521994
O7	O	1.241692	-0.332406	-0.278174
O8	O	1.132921	-0.184058	-0.407868
O9	O	1.369693	-0.340973	-0.419823
O10	O	1.229905	-0.190549	-0.515193
O11	O	1.139627	-0.264765	-0.273020
O12	O	0.998015	-0.264298	-0.400986
O13	O	1.120783	-0.340152	-0.644745
O14	O	0.992782	-0.331585	-0.503096
O15	O	1.223000	-0.279356	-0.649960
O16	O	1.234787	-0.421212	-0.412941
O17	O	1.127489	-0.420858	-0.509898
C18	C	0.965226	-0.296931	-0.450510
C19	C	0.872799	-0.293847	-0.445839
C20	C	1.181138	-0.440006	-0.461430
C21	C	1.181153	-0.498121	-0.461442
C22	C	0.703571	-0.288206	-0.437318
C23	C	0.659817	-0.320174	-0.485692
C24	C	0.565653	-0.317035	-0.480951
C25	C	0.797744	-0.291344	-0.442058
C26	C	1.237279	-0.858668	-0.411087
C27	C	1.237311	-0.913274	-0.411099
O28	O	1.284889	-0.941661	-0.368236
N29	N	1.181419	-0.940415	-0.461537
C30	C	1.125497	-0.912948	-0.511972
O31	O	1.077960	-0.941048	-0.554875
C32	C	1.125470	-0.858344	-0.511963
C33	C	1.181360	-0.831205	-0.461515
C34	C	1.293166	-0.831529	-0.360644
C35	C	1.293133	-0.776927	-0.360630
C36	C	1.237214	-0.749464	-0.411059
C37	C	1.181327	-0.776603	-0.461502
C38	C	1.069553	-0.830878	-0.562401
C39	C	1.069531	-0.776270	-0.562388
C40	C	1.125421	-0.749131	-0.511941
C41	C	1.125375	-0.694538	-0.511917
N42	N	1.181267	-0.667396	-0.461479
C43	C	1.237187	-0.694860	-0.411050
C44	C	1.125559	-1.027621	-0.511988
C45	C	1.125581	-1.082224	-0.511993
C46	C	1.237397	-1.082546	-0.411121
C47	C	1.237370	-1.027942	-0.411113
C48	C	1.181451	-1.000480	-0.461550
C49	C	1.237113	-0.580191	-0.411025
C50	C	1.237072	-0.525584	-0.411013
C51	C	1.125260	-0.525267	-0.511887
C52	C	1.125297	-0.579869	-0.511896
C53	C	1.181230	-0.607330	-0.461463
O54	O	1.077824	-0.666116	-0.554760
O55	O	1.284723	-0.666754	-0.368163
C56	C	1.398168	-0.311437	-0.472483
C57	C	1.490595	-0.314534	-0.477173
C58	C	1.170326	-0.310686	-0.678368
C59	C	1.165659	-0.313462	-0.770795
C60	C	1.181436	-0.167804	-0.461539
C61	C	1.181504	-0.109693	-0.461567
C62	C	1.157110	-0.318520	-0.940019
C63	C	1.205605	-0.289668	-0.983790
C64	C	1.200848	-0.292482	-1.077952
C65	C	1.161866	-0.315706	-0.845849
C66	C	1.192231	-0.297643	-0.245427
C67	C	1.197058	-0.294724	-0.153009
H68	H	0.670314	-0.258482	-0.392347
C69	C	1.096207	-0.354745	-0.984924
H70	H	1.100969	-0.351910	-1.043238
H71	H	1.041044	-0.344812	-0.967903
H72	H	1.109050	-0.389866	-0.971351
H73	H	1.282585	-0.503490	-0.369930
H74	H	1.079729	-0.502898	-0.552943
H75	H	1.080017	-1.005264	-0.553057
C76	C	1.298631	-0.610390	-0.355543
H77	H	1.331901	-0.586400	-0.325497
H78	H	1.333249	-0.633830	-0.389214
H79	H	1.268688	-0.629566	-0.317672
C80	C	0.704743	-0.360345	-0.546425
H81	H	0.763057	-0.357221	-0.541671
H82	H	0.687771	-0.353981	-0.601628
H83	H	0.691130	-0.394625	-0.533423
C84	C	1.266526	-0.253449	-0.938886
H85	H	1.261779	-0.256290	-0.880572
H86	H	1.253704	-0.218328	-0.952458
H87	H	1.321686	-0.263396	-0.955915
H88	H	1.338706	-0.853884	-0.319579
C89	C	1.354622	-0.747082	-0.305149
H90	H	1.387932	-0.771266	-0.275128
H91	H	1.324674	-0.723655	-0.267268
H92	H	1.389214	-0.727922	-0.338829
H93	H	1.282932	-1.104917	-0.370062
C94	C	1.298854	-0.998095	-0.355628
H95	H	1.332162	-1.022276	-0.325602
H96	H	1.268901	-0.974666	-0.317753
H97	H	1.333449	-0.978935	-0.389307
H98	H	1.080062	-1.104316	-0.553064
C99	C	1.008078	-0.860719	-0.617901
H100	H	0.974784	-0.836536	-0.647936
H101	H	0.973482	-0.879886	-0.584242
H102	H	1.038047	-0.884141	-0.655781
H103	H	1.023996	-0.753913	-0.603463
C104	C	1.063819	-0.609723	-0.567385
H105	H	1.030514	-0.585544	-0.597419
H106	H	1.029233	-0.628893	-0.533722
H107	H	1.093792	-0.633142	-0.605266
