data_functionalizedCrystal
_audit_creation_method	'MofGen! by Chris Wilmer'
_symmetry_space_group_name_H-M	'P1'
_symmetry_Int_Tables_number	1
_symmetry_cell_setting	triclinic
loop_
_symmetry_equiv_pos_as_xyz
  x,y,z
_cell_length_a	13.635800
_cell_length_b	10.992421
_cell_length_c	10.992410
_cell_angle_alpha	88.168975
_cell_angle_beta	71.235349
_cell_angle_gamma	108.764763
loop_
_atom_site_label
_atom_site_type_symbol
_atom_site_fract_x
_atom_site_fract_y
_atom_site_fract_z
V1	V	-2.057124	-0.177761	0.400575
O2	O	-2.036188	0.008542	0.392968
O3	O	-2.045913	-0.352470	0.397818
O4	O	-2.045920	-0.175026	0.575288
O5	O	-2.036181	-0.170129	0.214270
V6	V	-2.295571	-0.155477	0.378294
O7	O	-2.195024	-0.226642	0.449452
O8	O	-2.382769	-0.106595	0.329417
O9	O	-2.195178	0.019232	0.381051
O10	O	-2.375205	-0.341780	0.385901
O11	O	-2.375212	-0.163108	0.564599
O12	O	-2.195172	-0.158211	0.203581
V13	V	-1.557124	-0.177761	0.400575
O14	O	-1.536188	0.008542	0.392968
O15	O	-1.545913	-0.352470	0.397818
O16	O	-1.545920	-0.175026	0.575288
O17	O	-1.536181	-0.170129	0.214270
V18	V	-1.795571	-0.155477	0.378294
O19	O	-1.695024	-0.226642	0.449452
O20	O	-1.882769	-0.106595	0.329417
O21	O	-1.695178	0.019232	0.381051
O22	O	-1.875205	-0.341780	0.385901
O23	O	-1.875212	-0.163108	0.564599
O24	O	-1.695172	-0.158211	0.203581
C25	C	-1.971153	-0.395060	0.391494
C26	C	-2.002717	-0.537887	0.390404
C27	C	-1.936549	-0.733174	0.381618
C28	C	-1.903508	-0.584530	0.382242
C29	C	-2.038022	-0.576522	0.270588
C30	C	-2.070140	-0.725065	0.269320
C31	C	-2.135893	-0.763647	0.514935
C32	C	-2.101366	-0.615133	0.517535
C33	C	-1.971161	-0.168712	0.617873
C34	C	-2.002728	-0.167632	0.760702
C35	C	-2.101610	0.061816	0.387371
C36	C	-2.059665	0.204641	0.388470
C37	C	-2.101601	-0.164530	0.160989
C38	C	-2.059653	-0.165603	0.018159
C39	C	-1.471153	-0.395060	0.391494
C40	C	-1.502717	-0.537887	0.390404
C41	C	-1.936290	-0.157795	0.955826
C42	C	-1.903515	-0.159451	0.807343
C43	C	-2.101736	-0.294312	0.837793
C44	C	-2.133893	-0.293192	0.986360
C45	C	-2.072776	-0.047893	0.948352
C46	C	-2.037422	-0.047293	0.799340
C47	C	-1.471161	-0.168712	0.617873
C48	C	-1.502728	-0.167632	0.760702
C49	C	-1.601610	0.061816	0.387371
C50	C	-1.559665	0.204641	0.388470
C51	C	-1.601601	-0.164530	0.160989
C52	C	-1.559653	-0.165603	0.018159
C53	C	-1.436549	-0.733174	0.381618
C54	C	-1.403508	-0.584530	0.382242
C55	C	-1.538022	-0.576522	0.270588
C56	C	-1.570140	-0.725065	0.269320
C57	C	-1.635893	-0.763647	0.514935
C58	C	-1.601366	-0.615133	0.517535
C59	C	-1.436290	-0.157795	0.955826
C60	C	-1.403515	-0.159451	0.807343
C61	C	-1.601736	-0.294312	0.837793
C62	C	-1.633893	-0.293192	0.986360
C63	C	-1.572776	-0.047893	0.948352
C64	C	-1.537422	-0.047293	0.799340
H65	H	-1.874947	-0.558765	0.467855
N66	N	-1.442540	0.076835	0.729996
H67	H	-1.466030	0.127760	0.673672
H68	H	-1.420696	0.130593	0.796135
H69	H	-1.610838	-0.546286	0.271970
H70	H	-1.608478	-0.045805	0.766828
N71	N	-2.200571	-0.575133	0.535243
H72	H	-2.265569	-0.653124	0.536978
H73	H	-2.219627	-0.539382	0.619824
H74	H	-1.378653	-0.753734	0.290415
N75	N	-2.068917	-0.583507	0.634963
H76	H	-1.990647	-0.519408	0.605946
H77	H	-2.120767	-0.544323	0.693461
H78	H	-2.126112	-0.382320	1.032621
H79	H	-2.132723	-0.813163	0.605597
H80	H	-1.676924	-0.304874	0.808989
H81	H	-1.377688	-0.066081	0.974664
N82	N	-2.131499	-0.045307	0.756190
H83	H	-2.197625	-0.127078	0.798733
H84	H	-2.151879	0.033054	0.782288
H85	H	-1.658245	-0.765948	0.269130
H86	H	-1.521319	0.048305	0.968721
H87	H	-2.225817	-0.804764	0.521215
H88	H	-1.923821	-0.242371	1.003810
N89	N	-1.919433	-0.794674	0.494303
H90	H	-1.839905	-0.753381	0.488048
H91	H	-1.969783	-0.780937	0.578655
H92	H	-1.662268	-0.052498	0.989193
H93	H	-1.329168	-0.532087	0.290964
H94	H	-2.158245	-0.765948	0.269130
H95	H	-1.374947	-0.558765	0.467855
N96	N	-1.571434	-0.412664	0.803866
H97	H	-1.504765	-0.408555	0.827323
H98	H	-1.635729	-0.493624	0.853969
H99	H	-2.162268	-0.052498	0.989193
H100	H	-1.423821	-0.242371	1.003810
H101	H	-1.967727	-0.522284	0.176470
N102	N	-2.071429	-0.412662	0.803871
H103	H	-2.075762	-0.463142	0.885000
H104	H	-2.124578	-0.469538	0.765231
N105	N	-1.805279	-0.038747	0.736599
H106	H	-1.741464	-0.064361	0.683273
H107	H	-1.825830	0.012867	0.677392
H108	H	-1.423638	-0.779594	0.466700
N109	N	-1.865639	-0.273026	0.774417
H110	H	-1.786678	-0.240107	0.711871
H111	H	-1.870261	-0.322189	0.856475
N112	N	-1.858655	-0.036317	0.980781
H113	H	-1.902693	0.014837	1.032737
H114	H	-1.815939	-0.061166	1.031113
H115	H	-1.374925	-0.245200	0.782519
N116	N	-2.254429	-0.307774	1.042840
H117	H	-2.286459	-0.314905	0.971208
H118	H	-2.295993	-0.388757	1.109750
N119	N	-2.004625	0.079536	0.975332
H120	H	-1.924044	0.088525	0.942435
H121	H	-2.014346	0.153657	0.929627
H122	H	-1.514739	-0.742580	0.174188
N123	N	-1.805039	-0.515027	0.261342
H124	H	-1.741160	-0.461587	0.286789
H125	H	-1.783035	-0.581013	0.207467
N126	N	-1.700587	-0.575158	0.535268
H127	H	-1.719736	-0.539440	0.619861
H128	H	-1.682852	-0.506135	0.460744
H129	H	-1.725817	-0.804764	0.521215
N130	N	-2.201339	-0.308314	0.799653
H131	H	-2.183195	-0.232492	0.731870
H132	H	-2.222067	-0.392050	0.762916
H133	H	-1.467727	-0.522284	0.176470
N134	N	-1.568917	-0.583507	0.634963
H135	H	-1.490647	-0.519408	0.605946
H136	H	-1.620767	-0.544323	0.693461
N137	N	-1.631709	-0.829240	0.635033
H138	H	-1.580353	-0.880186	0.608672
H139	H	-1.603680	-0.761239	0.687311
N140	N	-1.859847	-0.760384	0.260806
H141	H	-1.879379	-0.857383	0.262922
H142	H	-1.867878	-0.721822	0.181464
N143	N	-1.942535	0.076837	0.730014
H144	H	-1.922027	0.078431	0.632975
H145	H	-1.965401	0.153830	0.755344
N146	N	-1.305189	-0.038801	0.736686
H147	H	-1.282795	0.015939	0.801938
H148	H	-1.241476	-0.064620	0.683439
H149	H	-2.014739	-0.742580	0.174188
H150	H	-1.626112	-0.382320	1.032621
H151	H	-2.110838	-0.546286	0.271970
H152	H	-1.724894	-0.304208	1.028990
