data_functionalizedCrystal
_audit_creation_method	'MofGen! by Chris Wilmer'
_symmetry_space_group_name_H-M	'P1'
_symmetry_Int_Tables_number	1
_symmetry_cell_setting	triclinic
loop_
_symmetry_equiv_pos_as_xyz
  x,y,z
_cell_length_a	16.959455
_cell_length_b	19.120786
_cell_length_c	19.120904
_cell_angle_alpha	89.866497
_cell_angle_beta	92.417981
_cell_angle_gamma	92.461932
loop_
_atom_site_label
_atom_site_type_symbol
_atom_site_fract_x
_atom_site_fract_y
_atom_site_fract_z
Zn1	Zn	1.175686	-0.296106	-0.384560
Zn2	Zn	1.425686	-0.046106	-0.134560
Zn3	Zn	1.675686	0.203894	0.115440
Zn4	Zn	1.925686	0.453894	0.365440
Zn5	Zn	1.176074	-0.408350	-0.262319
Zn6	Zn	1.426074	-0.158350	-0.012319
Zn7	Zn	1.676074	0.091650	0.237681
Zn8	Zn	1.926074	0.341650	0.487681
Zn9	Zn	1.049380	-0.291118	-0.267329
Zn10	Zn	1.299380	-0.041118	-0.017329
Zn11	Zn	1.549380	0.208882	0.232671
Zn12	Zn	1.799380	0.458882	0.482671
Zn13	Zn	1.038083	-0.413306	-0.379505
Zn14	Zn	1.288083	-0.163306	-0.129505
Zn15	Zn	1.538083	0.086694	0.120495
Zn16	Zn	1.788083	0.336694	0.370495
O17	O	1.109806	-0.352220	-0.323428
O18	O	1.359806	-0.102220	-0.073428
O19	O	1.609806	0.147780	0.176572
O20	O	1.859806	0.397780	0.426572
O21	O	1.286347	-0.311009	-0.368363
O22	O	1.536347	-0.061009	-0.118363
O23	O	1.786347	0.188991	0.131637
O24	O	2.036347	0.438991	0.381637
O25	O	1.164157	-0.388638	-0.164879
O26	O	1.414157	-0.138638	0.085121
O27	O	1.664157	0.111362	0.335121
O28	O	1.914157	0.361362	0.585121
O29	O	1.070700	-0.193670	-0.287092
O30	O	1.320700	0.056330	-0.037092
O31	O	1.570700	0.306330	0.212908
O32	O	1.820700	0.556330	0.462908
O33	O	1.286632	-0.393474	-0.278553
O34	O	1.536632	-0.143474	-0.028553
O35	O	1.786632	0.106526	0.221447
O36	O	2.036632	0.356526	0.471447
O37	O	1.163497	-0.197334	-0.373221
O38	O	1.413497	0.052666	-0.123221
O39	O	1.663497	0.302666	0.126779
O40	O	1.913497	0.552666	0.376779
O41	O	1.071075	-0.302508	-0.168560
O42	O	1.321075	-0.052508	0.081440
O43	O	1.571075	0.197492	0.331440
O44	O	1.821075	0.447492	0.581440
O45	O	0.937272	-0.307313	-0.282191
O46	O	1.187272	-0.057313	-0.032191
O47	O	1.437272	0.192687	0.217809
O48	O	1.687272	0.442687	0.467809
O49	O	1.051447	-0.401920	-0.478280
O50	O	1.301447	-0.151920	-0.228280
O51	O	1.551447	0.098080	0.021720
O52	O	1.801447	0.348080	0.271720
O53	O	0.928972	-0.397084	-0.364606
O54	O	1.178972	-0.147084	-0.114606
O55	O	1.428972	0.102916	0.135394
O56	O	1.678972	0.352916	0.385394
O57	O	1.152543	-0.315814	-0.481994
O58	O	1.402543	-0.065814	-0.231994
O59	O	1.652543	0.184186	0.018006
O60	O	1.902543	0.434186	0.268006
O61	O	1.153204	-0.507118	-0.273652
O62	O	1.403204	-0.257118	-0.023652
O63	O	1.653204	-0.007118	0.226348
O64	O	1.903204	0.242882	0.476348
O65	O	1.051823	-0.510759	-0.359748
O66	O	1.301823	-0.260759	-0.109748
O67	O	1.551823	-0.010759	0.140252
O68	O	1.801823	0.239241	0.390252
C69	C	0.904442	-0.352196	-0.323394
C70	C	1.154442	-0.102196	-0.073394
C71	C	1.404442	0.147804	0.176606
C72	C	1.654442	0.397804	0.426606
C73	C	0.816585	-0.352203	-0.323395
C74	C	1.066585	-0.102203	-0.073395
C75	C	1.316585	0.147797	0.176605
C76	C	1.566585	0.397797	0.426605
C77	C	0.445248	-0.395114	-0.276644
C78	C	0.695248	-0.145114	-0.026644
C79	C	0.945248	0.104886	0.223356
C80	C	1.195248	0.354886	0.473356
C81	C	0.444960	-0.309388	-0.370296
C82	C	0.694960	-0.059388	-0.120296
C83	C	0.944960	0.190612	0.129704
C84	C	1.194960	0.440612	0.379704
C85	C	0.527507	-0.309375	-0.370280
C86	C	0.777507	-0.059375	-0.120280
C87	C	1.027507	0.190625	0.129720
C88	C	1.277507	0.440625	0.379720
C89	C	0.568928	-0.352234	-0.323445
C90	C	0.818928	-0.102234	-0.073445
C91	C	1.068928	0.147766	0.176555
C92	C	1.318928	0.397766	0.426555
C93	C	0.527803	-0.395105	-0.276627
C94	C	0.777803	-0.145105	-0.026627
C95	C	1.027803	0.104895	0.223373
C96	C	1.277803	0.354895	0.473373
C97	C	0.568638	-0.266511	-0.417102
C98	C	0.818638	-0.016511	-0.167102
C99	C	1.068638	0.233489	0.082898
C100	C	1.318638	0.483489	0.332898
C101	C	0.651190	-0.266497	-0.417087
C102	C	0.901190	-0.016497	-0.167087
C103	C	1.151190	0.233503	0.082913
C104	C	1.401190	0.483503	0.332913
C105	C	0.692614	-0.309353	-0.370249
C106	C	0.942614	-0.059353	-0.120249
C107	C	1.192614	0.190647	0.129751
C108	C	1.442614	0.440647	0.379751
C109	C	0.651483	-0.352225	-0.323428
C110	C	0.901483	-0.102225	-0.073428
C111	C	1.151483	0.147775	0.176572
C112	C	1.401483	0.397775	0.426572
C113	C	0.692905	-0.395083	-0.276594
C114	C	0.942905	-0.145083	-0.026594
C115	C	1.192905	0.104917	0.223406
C116	C	1.442905	0.354917	0.473406
C117	C	0.651776	-0.437952	-0.229769
C118	C	0.901776	-0.187952	0.020231
C119	C	1.151776	0.062048	0.270231
C120	C	1.401776	0.312048	0.520231
C121	C	0.569226	-0.437960	-0.229788
C122	C	0.819226	-0.187960	0.020212
C123	C	1.069226	0.062040	0.270212
C124	C	1.319226	0.312040	0.520212
C125	C	0.775164	-0.309344	-0.370230
C126	C	1.025164	-0.059344	-0.120230
C127	C	1.275164	0.190656	0.129770
C128	C	1.525164	0.440656	0.379770
C129	C	0.775460	-0.395074	-0.276577
C130	C	1.025460	-0.145074	-0.026577
C131	C	1.275460	0.104926	0.223423
C132	C	1.525460	0.354926	0.473423
C133	C	1.101350	-0.534378	-0.315624
C134	C	1.351350	-0.284378	-0.065624
C135	C	1.601350	-0.034378	0.184376
C136	C	1.851350	0.215622	0.434376
C137	C	1.097804	-0.612307	-0.312308
C138	C	1.347804	-0.362307	-0.062308
C139	C	1.597804	-0.112307	0.187692
C140	C	1.847804	0.137693	0.437692
C141	C	1.144413	-0.650767	-0.355630
C142	C	1.394413	-0.400767	-0.105630
C143	C	1.644413	-0.150767	0.144370
C144	C	1.894413	0.099233	0.394370
C145	C	1.141078	-0.723989	-0.352516
C146	C	1.391078	-0.473989	-0.102516
C147	C	1.641078	-0.223989	0.147484
C148	C	1.891078	0.026011	0.397484
C149	C	1.091137	-0.758750	-0.306076
C150	C	1.341137	-0.508750	-0.056076
C151	C	1.591137	-0.258750	0.193924
C152	C	1.841137	-0.008750	0.443924
C153	C	1.044523	-0.720285	-0.262753
C154	C	1.294523	-0.470285	-0.012753
C155	C	1.544523	-0.220285	0.237247
C156	C	1.794523	0.029715	0.487247
C157	C	1.047855	-0.647064	-0.265871
C158	C	1.297855	-0.397064	-0.015871
C159	C	1.547855	-0.147064	0.234129
C160	C	1.797855	0.102936	0.484129
C161	C	1.078659	-0.979738	-0.294419
C162	C	1.328659	-0.729738	-0.044419
C163	C	1.578659	-0.479738	0.205581
C164	C	1.828659	-0.229738	0.455581
C165	C	1.075332	-1.052964	-0.291303
C166	C	1.325332	-0.802964	-0.041303
C167	C	1.575332	-0.552964	0.208697
C168	C	1.825332	-0.302964	0.458697
C169	C	1.171886	-1.056663	-0.381067
C170	C	1.421886	-0.806663	-0.131067
C171	C	1.671886	-0.556663	0.118933
C172	C	1.921886	-0.306663	0.368933
C173	C	1.175217	-0.983441	-0.384178
C174	C	1.425217	-0.733441	-0.134178
C175	C	1.675217	-0.483441	0.115822
C176	C	1.925217	-0.233441	0.365822
C177	C	1.128600	-0.944982	-0.340858
C178	C	1.378600	-0.694982	-0.090858
C179	C	1.628600	-0.444982	0.159142
C180	C	1.878600	-0.194982	0.409142
C181	C	1.087728	-0.833595	-0.302890
C182	C	1.337728	-0.583595	-0.052890
C183	C	1.587728	-0.333595	0.197110
C184	C	1.837728	-0.083595	0.447110
C185	C	1.132005	-0.870138	-0.344047
C186	C	1.382005	-0.620138	-0.094047
C187	C	1.632005	-0.370138	0.155953
C188	C	1.882005	-0.120138	0.405953
C189	C	1.315971	-0.352245	-0.323463
C190	C	1.565971	-0.102245	-0.073463
C191	C	1.815971	0.147755	0.176537
C192	C	2.065971	0.397755	0.426537
C193	C	1.403826	-0.352256	-0.323478
C194	C	1.653826	-0.102256	-0.073478
C195	C	1.903826	0.147744	0.176522
C196	C	2.153826	0.397744	0.426522
C197	C	1.100692	-0.359976	-0.506286
C198	C	1.350692	-0.109976	-0.256286
C199	C	1.600692	0.140024	-0.006286
C200	C	1.850692	0.390024	0.243714
C201	C	1.096808	-0.363281	-0.584208
C202	C	1.346808	-0.113281	-0.334208
C203	C	1.596808	0.136719	-0.084208
C204	C	1.846808	0.386719	0.165792
C205	C	1.118315	-0.169352	-0.331279
C206	C	1.368315	0.080648	-0.081279
C207	C	1.618315	0.330648	0.168721
C208	C	1.868315	0.580648	0.418721
C209	C	1.121941	-0.091424	-0.334625
C210	C	1.371941	0.158576	-0.084625
C211	C	1.621941	0.408576	0.165375
C212	C	1.871941	0.658576	0.415375
C213	C	1.147616	-0.320005	-0.622751
C214	C	1.397616	-0.070005	-0.372751
C215	C	1.647616	0.179995	-0.122751
C216	C	1.897616	0.429995	0.127249
C217	C	1.143957	-0.323108	-0.695968
C218	C	1.393957	-0.073108	-0.445968
C219	C	1.643957	0.176892	-0.195968
C220	C	1.893957	0.426892	0.054032
C221	C	1.089494	-0.369491	-0.730641
C222	C	1.339494	-0.119491	-0.480641
C223	C	1.589494	0.130509	-0.230641
C224	C	1.839494	0.380509	0.019359
C225	C	1.038680	-0.412769	-0.692093
C226	C	1.288680	-0.162769	-0.442093
C227	C	1.538680	0.087231	-0.192093
C228	C	1.788680	0.337231	0.057907
C229	C	1.042336	-0.409662	-0.618877
C230	C	1.292336	-0.159662	-0.368877
C231	C	1.542336	0.090338	-0.118877
C232	C	1.792336	0.340338	0.131123
C233	C	1.075820	-0.381112	-0.951607
C234	C	1.325820	-0.131112	-0.701607
C235	C	1.575820	0.118888	-0.451607
C236	C	1.825820	0.368888	-0.201607
C237	C	1.072170	-0.384217	-1.024828
C238	C	1.322170	-0.134217	-0.774828
C239	C	1.572170	0.115783	-0.524828
C240	C	1.822170	0.365783	-0.274828
C241	C	1.177447	-0.294555	-1.028698
C242	C	1.427447	-0.044555	-0.778698
C243	C	1.677447	0.205445	-0.528698
C244	C	1.927447	0.455445	-0.278698
C245	C	1.181100	-0.291455	-0.955481
C246	C	1.431100	-0.041455	-0.705481
C247	C	1.681100	0.208545	-0.455481
C248	C	1.931100	0.458545	-0.205481
C249	C	1.130284	-0.334730	-0.916940
C250	C	1.380284	-0.084730	-0.666940
C251	C	1.630284	0.165270	-0.416940
C252	C	1.880284	0.415270	-0.166940
C253	C	1.085754	-0.372666	-0.805480
C254	C	1.335754	-0.122666	-0.555480
C255	C	1.585754	0.127334	-0.305480
C256	C	1.835754	0.377334	-0.055480
C257	C	1.134020	-0.331552	-0.842102
C258	C	1.384020	-0.081552	-0.592102
C259	C	1.634020	0.168448	-0.342102
C260	C	1.884020	0.418448	-0.092102
C261	C	1.118932	-0.344444	-0.141285
C262	C	1.368932	-0.094444	0.108715
C263	C	1.618932	0.155556	0.358715
C264	C	1.868932	0.405556	0.608715
C265	C	1.122978	-0.340941	-0.063371
C266	C	1.372978	-0.090941	0.186629
C267	C	1.622978	0.159059	0.436629
C268	C	1.872978	0.409059	0.686629
H269	H	0.411229	-0.274498	-0.408430
H270	H	0.661229	-0.024498	-0.158430
H271	H	0.911229	0.225502	0.091570
H272	H	1.161229	0.475502	0.341570
Br273	Br	0.513405	-0.496135	-0.166248
Br274	Br	0.763405	-0.246135	0.083752
Br275	Br	1.013405	0.003865	0.333752
Br276	Br	1.263405	0.253865	0.583752
H277	H	1.041413	-0.410434	-0.833719
H278	H	1.291413	-0.160434	-0.583719
H279	H	1.541413	0.089566	-0.333719
H280	H	1.791413	0.339566	-0.083719
Br281	Br	1.015382	-0.927553	-0.235635
Br282	Br	1.265382	-0.677553	0.014365
Br283	Br	1.515382	-0.427553	0.264365
Br284	Br	1.765382	-0.177553	0.514365
H285	H	1.179038	-0.755300	-0.387787
H286	H	1.429038	-0.505300	-0.137787
H287	H	1.679038	-0.255300	0.112213
H288	H	1.929038	-0.005300	0.362213
Br289	Br	1.255021	-0.228507	-0.908430
Br290	Br	1.505021	0.021493	-0.658430
Br291	Br	1.755021	0.271493	-0.408430
Br292	Br	2.005021	0.521493	-0.158430
H293	H	1.172664	-0.841834	-0.381861
H294	H	1.422664	-0.591834	-0.131861
H295	H	1.672664	-0.341834	0.118139
H296	H	1.922664	-0.091834	0.368139
H297	H	1.215883	-0.955140	-0.421993
H298	H	1.465883	-0.705140	-0.171993
H299	H	1.715883	-0.455140	0.078007
H300	H	1.965883	-0.205140	0.328007
H301	H	0.534906	-0.231622	-0.455236
H302	H	0.784906	0.018378	-0.205236
H303	H	1.034906	0.268378	0.044764
H304	H	1.284906	0.518378	0.294764
H305	H	1.218817	-0.259322	-1.060087
H306	H	1.468817	-0.009322	-0.810087
H307	H	1.718817	0.240678	-0.560087
H308	H	1.968817	0.490678	-0.310087
H309	H	1.185333	-0.287870	-0.727347
H310	H	1.435333	-0.037870	-0.477347
H311	H	1.685333	0.212130	-0.227347
H312	H	1.935333	0.462130	0.022653
Br313	Br	0.831669	-0.453236	-0.213007
Br314	Br	1.081669	-0.203236	0.036993
Br315	Br	1.331669	0.046764	0.286993
Br316	Br	1.581669	0.296764	0.536993
Br317	Br	0.976735	-0.767460	-0.199736
Br318	Br	1.226735	-0.517460	0.050264
Br319	Br	1.476735	-0.267460	0.300264
Br320	Br	1.726735	-0.017460	0.550264
Br321	Br	0.998247	-0.447167	-1.071884
Br322	Br	1.248247	-0.197167	-0.821884
Br323	Br	1.498247	0.052833	-0.571884
Br324	Br	1.748247	0.302833	-0.321884
H325	H	0.684671	-0.231590	-0.455214
H326	H	0.934671	0.018410	-0.205214
H327	H	1.184671	0.268410	0.044786
H328	H	1.434671	0.518410	0.294786
H329	H	0.685512	-0.472851	-0.191640
H330	H	0.935512	-0.222851	0.058360
H331	H	1.185512	0.027149	0.308360
H332	H	1.435512	0.277149	0.558360
Br333	Br	0.973374	-0.468392	-0.566568
Br334	Br	1.223374	-0.218392	-0.316568
Br335	Br	1.473374	0.031608	-0.066568
Br336	Br	1.723374	0.281608	0.183432
Br337	Br	0.389435	-0.453286	-0.213094
Br338	Br	0.639435	-0.203286	0.036906
Br339	Br	0.889435	0.046714	0.286906
Br340	Br	1.139435	0.296714	0.536906
H341	H	0.808647	-0.274443	-0.408355
H342	H	1.058647	-0.024443	-0.158355
H343	H	1.308647	0.225557	0.091645
H344	H	1.558647	0.475557	0.341645
H345	H	1.185083	-0.622469	-0.393443
H346	H	1.435083	-0.372469	-0.143443
H347	H	1.685083	-0.122469	0.106557
H348	H	1.935083	0.127531	0.356557
H349	H	1.209839	-1.087984	-0.416337
H350	H	1.459839	-0.837984	-0.166337
H351	H	1.709839	-0.587984	0.083663
H352	H	1.959839	-0.337984	0.333663
H353	H	1.034453	-0.416360	-0.920235
H354	H	1.284453	-0.166360	-0.670235
H355	H	1.534453	0.083640	-0.420235
H356	H	1.784453	0.333640	-0.170235
H357	H	0.994332	-0.450532	-0.720329
H358	H	1.244332	-0.200532	-0.470329
H359	H	1.494332	0.049468	-0.220329
H360	H	1.744332	0.299468	0.029671
H361	H	1.034661	-1.081264	-0.253486
H362	H	1.284661	-0.831264	-0.003486
H363	H	1.534661	-0.581264	0.246514
H364	H	1.784661	-0.331264	0.496514
H365	H	1.009900	-0.615750	-0.230595
H366	H	1.259900	-0.365750	0.019405
H367	H	1.509900	-0.115750	0.269405
H368	H	1.759900	0.134250	0.519405
H369	H	1.178361	-0.293784	-0.813869
H370	H	1.428361	-0.043784	-0.563869
H371	H	1.678361	0.206216	-0.313869
H372	H	1.928361	0.456216	-0.063869
H373	H	1.047069	-0.861906	-0.265077
H374	H	1.297069	-0.611906	-0.015077
H375	H	1.547069	-0.361906	0.234923
H376	H	1.797069	-0.111906	0.484923
H377	H	1.191969	-0.282238	-0.594526
H378	H	1.441969	-0.032238	-0.344526
H379	H	1.691969	0.217762	-0.094526
H380	H	1.941969	0.467762	0.155474
