data_functionalizedCrystal
_audit_creation_method	'MofGen! by Chris Wilmer'
_symmetry_space_group_name_H-M	'P1'
_symmetry_Int_Tables_number	1
_symmetry_cell_setting	triclinic
loop_
_symmetry_equiv_pos_as_xyz
  x,y,z
_cell_length_a	19.188930
_cell_length_b	16.109301
_cell_length_c	15.186229
_cell_angle_alpha	90.000638
_cell_angle_beta	89.991143
_cell_angle_gamma	96.696869
loop_
_atom_site_label
_atom_site_type_symbol
_atom_site_fract_x
_atom_site_fract_y
_atom_site_fract_z
O1	O	0.089744	-1.102833	-0.073183
O2	O	0.589744	-0.602833	0.426817
O3	O	0.100912	-0.860734	-0.073198
O4	O	0.600912	-0.360734	0.426802
O5	O	-0.006311	-0.988770	-0.073173
O6	O	0.493689	-0.488770	0.426827
O7	O	0.196967	-0.974797	-0.073208
O8	O	0.696967	-0.474797	0.426792
O9	O	-0.006313	-0.988762	0.073284
O10	O	0.493687	-0.488762	0.573284
O11	O	0.100911	-0.860726	0.073259
O12	O	0.600911	-0.360726	0.573259
O13	O	0.089742	-1.102825	0.073274
O14	O	0.589742	-0.602825	0.573274
Zn15	Zn	0.095326	-0.981774	0.096520
Zn16	Zn	0.595326	-0.481774	0.596520
Zn17	Zn	0.095328	-0.981785	-0.096444
Zn18	Zn	0.595328	-0.481785	0.403556
O19	O	0.196966	-0.974789	0.073249
O20	O	0.696966	-0.474789	0.573249
C21	C	0.100459	-0.829757	0.000029
C22	C	0.600459	-0.329757	0.500029
C23	C	0.099103	-0.737466	0.000024
C24	C	0.599103	-0.237466	0.500024
C25	C	-0.032324	-0.988313	0.000058
C26	C	0.467676	-0.488313	0.500058
C27	C	-0.109832	-0.986955	0.000066
C28	C	0.390168	-0.486955	0.500066
C29	C	0.090196	-1.133802	0.000045
C30	C	0.590196	-0.633802	0.500045
C31	C	0.091552	-1.226093	0.000045
C32	C	0.591552	-0.726093	0.500045
C33	C	-0.154580	-1.062082	0.000075
C34	C	0.345420	-0.562082	0.500075
C35	C	-0.227407	-1.060806	0.000060
C36	C	0.272593	-0.560806	0.500060
C37	C	-0.255482	-0.984399	0.000055
C38	C	0.244518	-0.484399	0.500055
C39	C	-0.210724	-0.909261	0.000041
C40	C	0.289276	-0.409261	0.500041
C41	C	-0.137899	-0.910540	0.000046
C42	C	0.362101	-0.410540	0.500046
N43	N	-0.363624	-0.925991	0.049893
N44	N	0.136376	-0.425991	0.549893
N45	N	-0.432805	-0.924782	0.049890
N46	N	0.067195	-0.424782	0.549890
C47	C	-0.474900	-0.980543	0.000037
C48	C	0.025100	-0.480543	0.500037
N49	N	-0.445200	-1.037571	-0.049802
N50	N	0.054800	-0.537571	0.450198
N51	N	-0.376013	-1.038783	-0.049795
N52	N	0.123987	-0.538783	0.450205
C53	C	-0.334448	-0.983004	0.000049
C54	C	0.165552	-0.483004	0.500049
C55	C	-0.598616	-1.054292	0.000029
C56	C	-0.098616	-0.554292	0.500029
C57	C	-0.671443	-1.053012	0.000010
C58	C	-0.171443	-0.553012	0.500010
C59	C	-0.654759	-0.901465	-0.000001
C60	C	-0.154759	-0.401465	0.499999
C61	C	-0.581933	-0.902747	0.000010
C62	C	-0.081933	-0.402747	0.500010
C63	C	-0.553866	-0.979162	0.000029
C64	C	-0.053866	-0.479162	0.500029
C65	C	0.222979	-0.975246	0.000016
C66	C	0.722979	-0.475246	0.500016
C67	C	0.300486	-0.976604	0.000003
C68	C	0.800486	-0.476604	0.500003
N69	N	0.095325	-0.981772	0.228213
N70	N	0.595325	-0.481772	0.728213
C71	C	0.159573	-0.514993	0.000023
C72	C	0.659573	-0.014993	0.500023
C73	C	0.158294	-0.428277	0.000029
C74	C	0.658294	0.071723	0.500029
C75	C	0.031076	-0.448573	0.000048
C76	C	0.531076	0.051427	0.500048
C77	C	0.032357	-0.535287	0.000048
C78	C	0.532357	-0.035287	0.500048
C79	C	0.096608	-0.568495	0.000031
C80	C	0.596608	-0.068495	0.500031
C81	C	0.094047	-0.395064	0.000037
C82	C	0.594047	0.104936	0.500037
C83	C	0.092659	-0.301043	0.000043
C84	C	0.592659	0.198957	0.500043
C85	C	0.097996	-0.662522	0.000027
C86	C	0.597996	-0.162522	0.500027
N87	N	0.095325	-0.981793	-0.228137
N88	N	0.595325	-0.481793	0.271863
C89	C	0.047862	-1.038486	0.453947
C90	C	0.547862	-0.538486	0.953947
C91	C	0.047860	-1.038488	0.546136
C92	C	0.547860	-0.538488	1.046136
C93	C	0.142790	-0.925074	0.546123
C94	C	0.642790	-0.425074	1.046123
C95	C	0.142787	-0.925068	0.453935
C96	C	0.642787	-0.425068	0.953935
C97	C	0.095324	-0.981779	0.407849
C98	C	0.595324	-0.481779	0.907849
C99	C	0.095325	-0.981787	0.592227
C100	C	0.595325	-0.481787	1.092227
C101	C	0.095323	-0.981790	0.692183
C102	C	0.595323	-0.481790	1.192183
C103	C	0.095325	-0.981775	0.307887
C104	C	0.595325	-0.481775	0.807887
H105	H	-0.131733	-1.124306	0.000087
H106	H	0.368267	-0.624306	0.500087
H107	H	-0.545497	-0.841570	0.000008
H108	H	-0.045497	-0.341570	0.500008
H109	H	-0.021234	-0.421524	0.000066
H110	H	0.478766	0.078476	0.500066
N111	N	0.225195	-0.548929	0.000026
N112	N	0.725195	-0.048929	0.500026
N113	N	0.226332	-0.626352	0.000029
N114	N	0.726332	-0.126352	0.500029
H115	H	0.272679	-0.650319	0.000035
H116	H	0.772679	-0.150319	0.500035
H117	H	-0.263848	-1.121986	0.000064
H118	H	0.236152	-0.621986	0.500064
H119	H	-0.233587	-0.847050	0.000035
H120	H	0.266413	-0.347050	0.500035
N121	N	-0.000636	-1.096404	0.593215
N122	N	0.499364	-0.596404	1.093215
N123	N	-0.065170	-1.095492	0.582919
N124	N	0.434830	-0.595492	1.082919
H125	H	-0.099426	-1.136396	0.616165
H126	H	0.400574	-0.636396	1.116165
N127	N	-0.569927	-1.132335	0.000046
N128	N	-0.069927	-0.632335	0.500046
N129	N	-0.531162	-1.149949	0.061788
N130	N	-0.031162	-0.649949	0.561788
H131	H	-0.510900	-1.205067	0.061800
H132	H	-0.010900	-0.705067	0.561800
H133	H	-0.101464	-0.849360	0.000039
H134	H	0.398536	-0.349360	0.500039
N135	N	-0.031971	-0.589933	0.000065
N136	N	0.468029	-0.089933	0.500065
N137	N	-0.089332	-0.560275	0.000076
N138	N	0.410668	-0.060275	0.500076
H139	H	-0.134763	-0.598867	0.000092
H140	H	0.365237	-0.098867	0.500092
N141	N	0.191283	-0.867140	0.406857
N142	N	0.691283	-0.367140	0.906857
N143	N	0.255819	-0.868043	0.417136
N144	N	0.755819	-0.368043	0.917136
H145	H	0.290067	-0.827131	0.383888
H146	H	0.790067	-0.327131	0.883888
H147	H	-0.707878	-1.114193	0.000012
H148	H	-0.207878	-0.614193	0.500012
N149	N	-0.000665	-1.096367	0.406884
N150	N	0.499335	-0.596367	0.906884
N151	N	-0.043067	-1.146960	0.448058
N152	N	0.456933	-0.646960	0.948058
H153	H	-0.077358	-1.187821	0.414823
H154	H	0.422642	-0.687821	0.914823
N155	N	-0.683439	-0.823423	-0.000017
N156	N	-0.183439	-0.323423	0.499983
N157	N	-0.748462	-0.822290	-0.000026
N158	N	-0.248462	-0.322290	0.499974
H159	H	-0.768721	-0.767170	-0.000041
H160	H	-0.268721	-0.267170	0.499959
N161	N	0.191264	-0.867153	0.593214
N162	N	0.691264	-0.367153	1.093214
N163	N	0.191261	-0.867165	0.675524
N164	N	0.691261	-0.367165	1.175524
H165	H	0.225498	-0.826259	0.708782
H166	H	0.725498	-0.326259	1.208782
H167	H	0.209567	-0.384719	0.000024
H168	H	0.709567	0.115281	0.500024
