data_functionalizedCrystal
_audit_creation_method	'MofGen! by Chris Wilmer'
_symmetry_space_group_name_H-M	'P1'
_symmetry_Int_Tables_number	1
_symmetry_cell_setting	triclinic
loop_
_symmetry_equiv_pos_as_xyz
  x,y,z
_cell_length_a	19.121275
_cell_length_b	19.120786
_cell_length_c	13.032268
_cell_angle_alpha	94.409956
_cell_angle_beta	99.886552
_cell_angle_gamma	90.130801
loop_
_atom_site_label
_atom_site_type_symbol
_atom_site_fract_x
_atom_site_fract_y
_atom_site_fract_z
Zn1	Zn	1.015110	-0.365846	-0.503123
Zn2	Zn	1.026191	-0.468259	-0.321168
Zn3	Zn	0.912722	-0.347253	-0.336084
Zn4	Zn	0.892792	-0.478101	-0.503702
O5	O	0.961704	-0.414865	-0.416019
O6	O	1.115258	-0.383094	-0.472502
O7	O	1.024117	-0.440307	-0.176849
O8	O	0.930007	-0.252098	-0.364242
O9	O	1.123399	-0.458336	-0.338820
O10	O	1.005231	-0.265759	-0.486965
O11	O	0.940752	-0.351404	-0.187807
O12	O	0.811400	-0.360947	-0.364803
O13	O	0.896040	-0.475110	-0.649923
O14	O	0.796758	-0.457081	-0.487952
O15	O	0.985906	-0.392637	-0.649498
O16	O	1.004792	-0.567185	-0.339382
O17	O	0.906785	-0.574416	-0.473489
C18	C	0.778493	-0.408065	-0.428059
C19	C	0.700111	-0.405175	-0.433234
C20	C	0.954846	-0.596115	-0.404901
C21	C	0.951973	-0.673660	-0.400175
C22	C	0.667535	-0.442911	-0.365969
C23	C	0.593886	-0.440197	-0.370845
C24	C	0.552816	-0.399742	-0.442982
C25	C	0.585396	-0.362005	-0.510254
C26	C	0.659043	-0.364723	-0.505382
C27	C	0.330236	-0.389582	-0.461182
C28	C	0.256585	-0.386864	-0.466047
C29	C	0.265080	-0.465058	-0.326639
C30	C	0.338728	-0.467769	-0.321770
C31	C	0.371302	-0.430035	-0.389045
C32	C	0.477535	-0.396965	-0.447965
C33	C	0.446581	-0.432816	-0.384066
C34	C	0.989750	-0.717146	-0.461907
C35	C	0.987048	-0.790007	-0.457469
C36	C	0.946572	-0.819382	-0.391292
C37	C	0.908791	-0.775890	-0.329558
C38	C	0.911489	-0.703030	-0.334003
C39	C	0.936464	-1.039019	-0.374679
C40	C	0.933770	-1.111885	-0.370236
C41	C	1.012027	-1.125997	-0.498149
C42	C	1.014725	-1.053135	-0.502583
C43	C	0.976940	-1.009650	-0.440853
C44	C	0.943811	-0.893858	-0.386752
C45	C	0.979698	-0.935175	-0.445400
C46	C	1.145630	-0.421691	-0.403932
C47	C	1.224009	-0.424600	-0.398782
C48	C	0.937514	-0.437046	-0.688704
C49	C	0.927205	-0.446498	-0.804906
C50	C	0.968606	-0.232909	-0.427202
C51	C	0.971547	-0.155370	-0.431968
C52	C	0.967074	-0.409906	-0.856502
C53	C	0.956420	-0.419674	-0.976603
C54	C	0.985842	-0.392721	-0.144395
C55	C	0.996294	-0.383077	-0.028197
H56	H	0.567366	-0.470926	-0.316071
H57	H	0.905699	-1.003619	-0.324413
N58	N	1.027783	-0.836930	-0.524041
H59	H	0.993671	-0.870042	-0.572484
H60	H	1.053841	-0.807236	-0.566583
H61	H	0.910858	-0.917782	-0.332868
N62	N	0.865135	-0.807568	-0.258179
H63	H	0.869161	-0.860323	-0.264724
H64	H	0.883250	-0.789172	-0.183583
N65	N	0.900758	-0.470753	-1.035865
H66	H	0.911485	-0.519474	-1.013140
H67	H	0.852477	-0.456458	-1.020877
H68	H	0.885181	-0.485053	-0.849648
N69	N	1.058378	-1.021454	-0.573962
H70	H	1.081899	-1.060059	-0.612400
H71	H	1.026474	-0.994106	-0.626037
H72	H	1.038313	-0.344511	-0.983462
H73	H	0.900806	-1.135798	-0.316347
N74	N	0.711831	-0.486539	-0.288157
H75	H	0.680015	-0.510033	-0.246287
H76	H	0.737408	-0.523451	-0.326626
H77	H	0.223147	-0.353915	-0.524786
H78	H	0.372163	-0.500711	-0.263027
N79	N	1.052775	-1.172891	-0.564738
H80	H	1.088125	-1.200864	-0.518307
H81	H	1.018629	-1.205965	-0.613187
H82	H	1.012650	-0.911257	-0.499284
N83	N	0.229947	-0.505754	-0.254079
H84	H	0.177060	-0.497894	-0.268107
H85	H	0.239508	-0.557382	-0.266318
N86	N	1.022747	-0.358843	-0.797240
H87	H	0.999318	-0.321791	-0.755791
H88	H	1.058312	-0.384821	-0.748114
N89	N	0.365365	-0.348884	-0.533740
H90	H	0.328170	-0.322842	-0.580172
H91	H	0.400904	-0.314228	-0.491230
H92	H	0.685566	-0.333994	-0.560156
N93	N	0.541102	-0.318375	-0.588065
H94	H	0.489504	-0.322376	-0.580943
H95	H	0.557289	-0.267697	-0.574122
N96	N	0.490871	-0.476448	-0.306260
H97	H	0.516452	-0.513399	-0.344656
H98	H	0.526741	-0.445185	-0.257630
N99	N	0.433233	-0.353328	-0.525758
H100	H	0.449355	-0.302629	-0.511853
H101	H	0.439041	-0.370842	-0.598880
H102	H	0.880726	-0.667624	-0.283736
H103	H	1.022713	-0.693235	-0.515790
