data_functionalizedCrystal
_audit_creation_method	'MofGen! by Chris Wilmer'
_symmetry_space_group_name_H-M	'P1'
_symmetry_Int_Tables_number	1
_symmetry_cell_setting	triclinic
loop_
_symmetry_equiv_pos_as_xyz
  x,y,z
_cell_length_a	19.805407
_cell_length_b	13.032721
_cell_length_c	19.805399
_cell_angle_alpha	97.155902
_cell_angle_beta	89.980427
_cell_angle_gamma	97.204665
loop_
_atom_site_label
_atom_site_type_symbol
_atom_site_fract_x
_atom_site_fract_y
_atom_site_fract_z
Zn1	Zn	1.000535	-0.416068	-0.416943
Zn2	Zn	1.500535	0.083932	0.083057
Zn3	Zn	0.986084	-0.590828	-0.318130
Zn4	Zn	1.486084	-0.090828	0.181870
Zn5	Zn	0.887347	-0.416097	-0.303770
Zn6	Zn	1.387347	0.083903	0.196230
Zn7	Zn	0.872952	-0.590772	-0.431272
Zn8	Zn	1.372952	-0.090772	0.068728
O9	O	0.936729	-0.503441	-0.367529
O10	O	1.436729	-0.003441	0.132471
O11	O	1.093333	-0.439261	-0.403849
O12	O	1.593333	0.060739	0.096151
O13	O	0.972963	-0.567684	-0.221512
O14	O	1.472963	-0.067684	0.278488
O15	O	0.914433	-0.269853	-0.306777
O16	O	1.414433	0.230147	0.193223
O17	O	1.082717	-0.567656	-0.331251
O18	O	1.582717	-0.067656	0.168749
O19	O	0.997592	-0.269832	-0.389925
O20	O	1.497592	0.230168	0.110075
O21	O	0.900421	-0.439310	-0.210962
O22	O	1.400421	0.060690	0.289038
O23	O	0.790722	-0.439257	-0.320671
O24	O	1.290722	0.060743	0.179329
O25	O	0.889899	-0.567562	-0.524085
O26	O	1.389899	-0.067562	-0.024085
O27	O	0.780146	-0.567590	-0.414346
O28	O	1.280146	-0.067590	0.085654
O29	O	0.983634	-0.439207	-0.513558
O30	O	1.483634	0.060793	-0.013558
O31	O	0.959005	-0.737060	-0.345145
O32	O	1.459005	-0.237060	0.154855
O33	O	0.875887	-0.737019	-0.428270
O34	O	1.375887	-0.237019	0.071730
C35	C	0.760875	-0.503421	-0.367506
C36	C	1.260875	-0.003421	0.132494
C37	C	0.685642	-0.503438	-0.367514
C38	C	1.185642	-0.003438	0.132486
C39	C	0.644800	-0.570361	-0.416228
C40	C	1.144800	-0.070361	0.083772
C41	C	0.574112	-0.570363	-0.416238
C42	C	1.074112	-0.070363	0.083762
C43	C	0.544265	-0.503446	-0.367529
C44	C	1.044265	-0.003446	0.132471
C45	C	0.585113	-0.436515	-0.318812
C46	C	1.085113	0.063485	0.181188
C47	C	0.655800	-0.436508	-0.318806
C48	C	1.155800	0.063492	0.181194
C49	C	0.300037	-0.436538	-0.318836
C50	C	0.800037	0.063462	0.181164
C51	C	0.229344	-0.436551	-0.318845
C52	C	0.729344	0.063449	0.181155
C53	C	0.218349	-0.570393	-0.416269
C54	C	0.718349	-0.070393	0.083731
C55	C	0.289036	-0.570386	-0.416262
C56	C	0.789036	-0.070386	0.083738
C57	C	0.329878	-0.503452	-0.367548
C58	C	0.829878	-0.003452	0.132452
C59	C	0.406526	-0.503449	-0.367538
C60	C	0.906526	-0.003449	0.132462
C61	C	0.467618	-0.503453	-0.367535
C62	C	0.967618	-0.003453	0.132465
C63	C	0.914334	-0.774958	-0.389835
C64	C	1.414334	-0.274958	0.110165
C65	C	0.904816	-0.891114	-0.399401
C66	C	1.404816	-0.391114	0.100599
C67	C	0.941733	-0.942886	-0.362567
C68	C	1.441733	-0.442886	0.137433
C69	C	0.931896	-1.062939	-0.372453
C70	C	1.431896	-0.562939	0.127547
C71	C	1.113270	-0.503462	-0.367553
C72	C	1.613270	-0.003462	0.132447
C73	C	1.188502	-0.503471	-0.367563
C74	C	1.688502	-0.003471	0.132437
C75	C	0.936773	-0.503375	-0.544066
C76	C	1.436773	-0.003375	-0.044066
C77	C	0.936791	-0.503347	-0.619296
C78	C	1.436791	-0.003347	-0.119296
C79	C	0.959230	-0.230864	-0.345151
C80	C	1.459230	0.269136	0.154849
C81	C	0.968819	-0.114708	-0.335614
C82	C	1.468819	0.385292	0.164386
C83	C	0.985600	-0.436510	-0.649160
C84	C	1.485600	0.063490	-0.149160
C85	C	0.985609	-0.436479	-0.719846
C86	C	1.485609	0.063521	-0.219846
C87	C	0.936813	-0.503293	-0.760667
C88	C	1.436813	-0.003293	-0.260667
C89	C	0.887999	-0.570133	-0.730799
C90	C	1.387999	-0.070133	-0.230799
C91	C	0.887987	-0.570157	-0.660114
C92	C	1.387987	-0.070157	-0.160114
C93	C	0.888045	-0.570036	-1.015865
C94	C	1.388045	-0.070036	-0.515865
C95	C	0.888062	-0.570008	-1.086555
C96	C	1.388062	-0.070008	-0.586555
C97	C	0.985668	-0.436358	-1.075596
C98	C	1.485668	0.063642	-0.575596
C99	C	0.985656	-0.436382	-1.004911
C100	C	1.485656	0.063618	-0.504911
C101	C	0.936840	-0.503218	-0.975049
C102	C	1.436840	-0.003218	-0.475049
C103	C	0.936830	-0.503249	-0.898403
C104	C	1.436830	-0.003249	-0.398403
C105	C	0.936825	-0.503268	-0.837312
C106	C	1.436825	-0.003268	-0.337312
C107	C	0.936731	-0.503431	-0.191672
C108	C	1.436731	-0.003431	0.308328
C109	C	0.936868	-0.503165	-0.116419
C110	C	1.436868	-0.003165	0.383581
H111	H	0.185087	-0.624890	-0.455937
H112	H	0.685087	-0.124890	0.044063
H113	H	0.313333	-0.624881	-0.455924
H114	H	0.813333	-0.124881	0.044076
H115	H	1.025338	-0.382106	-0.615927
H116	H	1.525338	0.117894	-0.115927
N117	N	0.880373	-1.121944	-0.423916
N118	N	1.380373	-0.621944	0.076084
H119	H	0.857086	-1.070900	-0.447138
H120	H	1.357086	-0.570900	0.052862
H121	H	0.904224	-1.167166	-0.458964
H122	H	1.404224	-0.667166	0.041036
N123	N	0.835429	-0.642074	-1.130587
N124	N	1.335429	-0.142074	-0.630587
H125	H	0.804501	-0.684417	-1.100944
H126	H	1.304501	-0.184417	-0.600944
H127	H	0.807628	-0.599516	-1.156418
H128	H	1.307628	-0.099516	-0.656418
H129	H	1.007714	-1.070157	-0.296761
H130	H	1.507714	-0.570157	0.203239
H131	H	0.865929	-0.935669	-0.438256
H132	H	1.365929	-0.435669	0.061744
N133	N	0.676990	-0.642536	-0.468765
N134	N	1.176990	-0.142536	0.031235
H135	H	0.702316	-0.690908	-0.445178
H136	H	1.202316	-0.190908	0.054822
H137	H	0.640352	-0.684860	-0.499613
H138	H	1.140352	-0.184860	0.000387
H139	H	1.025356	-0.382056	-0.744157
H140	H	1.525356	0.117944	-0.244157
H141	H	1.025393	-0.381979	-0.971677
H142	H	1.525393	0.118021	-0.471677
N143	N	1.038319	-0.364264	-1.107804
N144	N	1.538319	0.135736	-0.607804
H145	H	1.030924	-0.374380	-1.158777
H146	H	1.530924	0.125620	-0.658777
H147	H	1.033947	-0.289632	-1.089317
H148	H	1.533947	0.210368	-0.589317
N149	N	0.197151	-0.364374	-0.266307
N150	N	0.697151	0.135626	0.233693
H151	H	0.233749	-0.321968	-0.235445
H152	H	0.733749	0.178032	0.264555
H153	H	0.171814	-0.316078	-0.289947
H154	H	0.671814	0.183922	0.210053
H155	H	0.848305	-0.624473	-0.991561
H156	H	1.348305	-0.124473	-0.491561
H157	H	0.333282	-0.382044	-0.279165
H158	H	0.833282	0.117956	0.220835
N159	N	0.835353	-0.642174	-0.774823
N160	N	1.335353	-0.142174	-0.274823
H161	H	0.842764	-0.632014	-0.824133
H162	H	1.342764	-0.132014	-0.324133
H163	H	0.839711	-0.716821	-0.768602
H164	H	1.339711	-0.216821	-0.268602
H165	H	0.848236	-0.624573	-0.635800
H166	H	1.348236	-0.124573	-0.135800
H167	H	0.540861	-0.624860	-0.455906
H168	H	1.040861	-0.124860	0.044094
H169	H	0.689054	-0.382007	-0.279140
H170	H	1.189054	0.117993	0.220860
N171	N	0.552919	-0.364359	-0.266267
N172	N	1.052919	0.135641	0.233733
H173	H	0.527581	-0.315989	-0.289844
H174	H	1.027581	0.184011	0.210156
H175	H	0.520120	-0.406867	-0.238366
H176	H	1.020120	0.093133	0.261634
N177	N	0.993254	-0.883881	-0.311106
N178	N	1.493254	-0.383881	0.188894
H179	H	0.992980	-0.806482	-0.311340
H180	H	1.492980	-0.306482	0.188660
H181	H	0.981198	-0.902962	-0.264315
H182	H	1.481198	-0.402962	0.235685
