data_functionalizedCrystal
_audit_creation_method	'MofGen! by Chris Wilmer'
_symmetry_space_group_name_H-M	'P1'
_symmetry_Int_Tables_number	1
_symmetry_cell_setting	triclinic
loop_
_symmetry_equiv_pos_as_xyz
  x,y,z
_cell_length_a	9.065215
_cell_length_b	11.026607
_cell_length_c	7.540329
_cell_angle_alpha	89.998289
_cell_angle_beta	90.002218
_cell_angle_gamma	83.199610
loop_
_atom_site_label
_atom_site_type_symbol
_atom_site_fract_x
_atom_site_fract_y
_atom_site_fract_z
O1	O	-2.004898	0.178437	-0.147447
O2	O	-1.579264	0.193078	-0.147457
O3	O	-1.756805	0.008717	-0.147446
O4	O	-1.827357	0.362798	-0.147458
O5	O	-1.756791	0.008714	0.147519
O6	O	-1.579250	0.193075	0.147508
O7	O	-2.004884	0.178434	0.147518
Cu8	Cu	-1.792066	0.185755	0.174446
Cu9	Cu	-1.792083	0.185758	-0.174385
O10	O	-1.827343	0.362795	0.147507
C11	C	-1.523920	0.191670	0.000025
C12	C	-1.359028	0.187465	0.000021
C13	C	-1.743782	-0.036638	0.000034
C14	C	-1.704982	-0.171778	0.000027
C15	C	-1.812116	-0.244407	0.000027
C16	C	-1.772017	-0.384082	0.000019
C17	C	-1.060229	0.179842	0.000032
C18	C	-1.225120	0.184046	0.000020
C19	C	-1.840366	0.408150	0.000023
C20	C	-1.879166	0.543291	0.000019
N21	N	-1.792065	0.185752	0.419794
N22	N	-1.792093	0.185751	-0.419733
H23	H	-1.933523	-0.203182	0.000040
O24	O	-2.024040	-0.407608	-0.000287
C25	C	-2.094880	-0.446501	-0.153027
H26	H	-2.008281	-0.473866	-0.259806
H27	H	-2.155494	-0.528254	-0.118486
C28	C	-2.313723	-0.307973	-0.091138
C29	C	-2.207362	-0.341574	-0.222293
H30	H	-2.383112	-0.243252	-0.133862
H31	H	-2.266000	-0.281773	0.011769
H32	H	-2.364218	-0.376110	-0.062367
H33	H	-2.156856	-0.273442	-0.251046
H34	H	-2.255079	-0.367760	-0.325207
H35	H	-1.650601	-0.425301	0.000005
H36	H	-1.583575	-0.213003	0.000012
