data_functionalizedCrystal
_audit_creation_method	'MofGen! by Chris Wilmer'
_symmetry_space_group_name_H-M	'P1'
_symmetry_Int_Tables_number	1
_symmetry_cell_setting	triclinic
loop_
_symmetry_equiv_pos_as_xyz
  x,y,z
_cell_length_a	13.897449
_cell_length_b	18.101397
_cell_length_c	13.897441
_cell_angle_alpha	90.034904
_cell_angle_beta	90.020733
_cell_angle_gamma	90.021745
loop_
_atom_site_label
_atom_site_type_symbol
_atom_site_fract_x
_atom_site_fract_y
_atom_site_fract_z
Zn1	Zn	1.474684	-0.294781	0.545352
Zn2	Zn	1.724684	-0.044781	0.795352
Zn3	Zn	1.974684	0.205219	1.045352
Zn4	Zn	2.224684	0.455219	1.295352
Zn5	Zn	1.474570	-0.418636	0.384042
Zn6	Zn	1.724570	-0.168636	0.634042
Zn7	Zn	1.974570	0.081364	0.884042
Zn8	Zn	2.224570	0.331364	1.134042
Zn9	Zn	1.313373	-0.294816	0.384071
Zn10	Zn	1.563373	-0.044816	0.634071
Zn11	Zn	1.813373	0.205184	0.884071
Zn12	Zn	2.063373	0.455184	1.134071
Zn13	Zn	1.313347	-0.418588	0.545294
Zn14	Zn	1.563347	-0.168588	0.795294
Zn15	Zn	1.813347	0.081412	1.045294
Zn16	Zn	2.063347	0.331412	1.295294
O17	O	1.393994	-0.356705	0.464690
O18	O	1.643994	-0.106705	0.714690
O19	O	1.893994	0.143295	0.964690
O20	O	2.143994	0.393295	1.214690
O21	O	1.609651	-0.311216	0.523966
O22	O	1.859651	-0.061216	0.773966
O23	O	2.109651	0.188784	1.023966
O24	O	2.359651	0.438784	1.273966
O25	O	1.453150	-0.402246	0.249064
O26	O	1.703150	-0.152246	0.499064
O27	O	1.953150	0.097754	0.749064
O28	O	2.203150	0.347754	0.999064
O29	O	1.334830	-0.191178	0.405502
O30	O	1.584830	0.058822	0.655502
O31	O	1.834830	0.308822	0.905502
O32	O	2.084830	0.558822	1.155502
O33	O	1.609567	-0.402212	0.405452
O34	O	1.859567	-0.152212	0.655452
O35	O	2.109567	0.097788	0.905452
O36	O	2.359567	0.347788	1.155452
O37	O	1.453344	-0.191152	0.523994
O38	O	1.703344	0.058848	0.773994
O39	O	1.953344	0.308848	1.023994
O40	O	2.203344	0.558848	1.273994
O41	O	1.334720	-0.311276	0.249085
O42	O	1.584720	-0.061276	0.499085
O43	O	1.834720	0.188724	0.749085
O44	O	2.084720	0.438724	0.999085
O45	O	1.178388	-0.311229	0.405445
O46	O	1.428388	-0.061229	0.655445
O47	O	1.678388	0.188771	0.905445
O48	O	1.928388	0.438771	1.155445
O49	O	1.334785	-0.402129	0.680284
O50	O	1.584785	-0.152129	0.930284
O51	O	1.834785	0.097871	1.180284
O52	O	2.084785	0.347871	1.430284
O53	O	1.178369	-0.402163	0.523895
O54	O	1.428369	-0.152163	0.773895
O55	O	1.678369	0.097837	1.023895
O56	O	1.928369	0.347837	1.273895
O57	O	1.453319	-0.311169	0.680326
O58	O	1.703319	-0.061169	0.930326
O59	O	1.953319	0.188831	1.180326
O60	O	2.203319	0.438831	1.430326
O61	O	1.453125	-0.522263	0.405396
O62	O	1.703125	-0.272263	0.655396
O63	O	1.953125	-0.022263	0.905396
O64	O	2.203125	0.227737	1.155396
O65	O	1.334675	-0.522227	0.523867
O66	O	1.584675	-0.272227	0.773867
O67	O	1.834675	-0.022227	1.023867
O68	O	2.084675	0.227773	1.273867
C69	C	1.143379	-0.356695	0.464668
C70	C	1.393379	-0.106695	0.714668
C71	C	1.643379	0.143305	0.964668
C72	C	1.893379	0.393305	1.214668
C73	C	1.036165	-0.356709	0.464681
C74	C	1.286165	-0.106709	0.714681
C75	C	1.536165	0.143291	0.964681
C76	C	1.786165	0.393291	1.214681
C77	C	0.839870	-0.356711	0.464706
C78	C	1.089870	-0.106711	0.714706
C79	C	1.339870	0.143289	0.964706
C80	C	1.589870	0.393289	1.214706
C81	C	0.949103	-0.356708	0.464690
C82	C	1.199103	-0.106708	0.714690
C83	C	1.449103	0.143292	0.964690
C84	C	1.699103	0.393292	1.214690
C85	C	1.393911	-0.549116	0.464643
C86	C	1.643911	-0.299116	0.714643
C87	C	1.893911	-0.049116	0.964643
C88	C	2.143911	0.200884	1.214643
C89	C	1.393964	-0.631430	0.464655
C90	C	1.643964	-0.381430	0.714655
C91	C	1.893964	-0.131430	0.964655
C92	C	2.143964	0.118570	1.214655
C93	C	1.394087	-0.930521	0.464743
C94	C	1.644087	-0.680521	0.714743
C95	C	1.894087	-0.430521	0.964743
C96	C	2.144087	-0.180521	1.214743
C97	C	1.468405	-0.899187	0.390004
C98	C	1.718405	-0.649187	0.640004
C99	C	1.968405	-0.399187	0.890004
C100	C	2.218405	-0.149187	1.140004
C101	C	1.468662	-0.813569	0.390198
C102	C	1.718662	-0.563569	0.640198
C103	C	1.968662	-0.313569	0.890198
C104	C	2.218662	-0.063569	1.140198
C105	C	1.394026	-0.782138	0.464699
C106	C	1.644026	-0.532138	0.714699
C107	C	1.894026	-0.282138	0.964699
C108	C	2.144026	-0.032138	1.214699
C109	C	1.421587	-0.813139	0.566372
C110	C	1.671587	-0.563139	0.816372
C111	C	1.921587	-0.313139	1.066372
C112	C	2.171587	-0.063139	1.316372
C113	C	1.422162	-0.898784	0.565965
C114	C	1.672162	-0.648784	0.815965
C115	C	1.922162	-0.398784	1.065965
C116	C	2.172162	-0.148784	1.315965
C117	C	1.292011	-0.899033	0.438689
C118	C	1.542011	-0.649033	0.688689
C119	C	1.792011	-0.399033	0.938689
C120	C	2.042011	-0.149033	1.188689
C121	C	1.292515	-0.813384	0.436419
C122	C	1.542515	-0.563384	0.686419
C123	C	1.792515	-0.313384	0.936419
C124	C	2.042515	-0.063384	1.186419
C125	C	1.393990	-0.698279	0.464680
C126	C	1.643990	-0.448279	0.714680
C127	C	1.893990	-0.198279	0.964680
C128	C	2.143990	0.051721	1.214680
C129	C	1.394126	-1.014380	0.464769
C130	C	1.644126	-0.764380	0.714769
C131	C	1.894126	-0.514380	0.964769
C132	C	2.144126	-0.264380	1.214769
C133	C	1.645587	-0.356716	0.464712
C134	C	1.895587	-0.106716	0.714712
C135	C	2.145587	0.143284	0.964712
C136	C	2.395587	0.393284	1.214712
C137	C	1.752800	-0.356720	0.464722
C138	C	2.002800	-0.106720	0.714722
C139	C	2.252800	0.143280	0.964722
C140	C	2.502800	0.393280	1.214722
C141	C	1.394062	-0.356640	0.716283
C142	C	1.644062	-0.106640	0.966283
C143	C	1.894062	0.143360	1.216283
C144	C	2.144062	0.393360	1.466283
C145	C	1.394091	-0.356612	0.823497
C146	C	1.644091	-0.106612	1.073497
C147	C	1.894091	0.143388	1.323497
C148	C	2.144091	0.393388	1.573497
C149	C	1.394103	-0.163543	0.464758
C150	C	1.644103	0.086457	0.714758
C151	C	1.894103	0.336457	0.964758
C152	C	2.144103	0.586457	1.214758
C153	C	1.394149	-0.081229	0.464787
C154	C	1.644149	0.168771	0.714787
C155	C	1.894149	0.418771	0.964787
C156	C	2.144149	0.668771	1.214787
C157	C	1.393981	-0.356717	0.214075
C158	C	1.643981	-0.106717	0.464075
C159	C	1.893981	0.143283	0.714075
C160	C	2.143981	0.393283	0.964075
C161	C	1.394139	-0.356536	0.106862
C162	C	1.644139	-0.106536	0.356862
C163	C	1.894139	0.143464	0.606862
C164	C	2.144139	0.393464	0.856862
C165	C	1.394117	-0.356562	1.019792
C166	C	1.644117	-0.106562	1.269792
C167	C	1.894117	0.143438	1.519792
C168	C	2.144117	0.393438	1.769792
C169	C	1.394100	-0.356592	0.910560
C170	C	1.644100	-0.106592	1.160560
C171	C	1.894100	0.143408	1.410560
C172	C	2.144100	0.393408	1.660560
H173	H	1.451419	-0.792612	0.314809
H174	H	1.701419	-0.542612	0.564809
H175	H	1.951419	-0.292612	0.814809
H176	H	2.201419	-0.042612	1.064809
H177	H	1.234164	-0.791996	0.486869
H178	H	1.484164	-0.541996	0.736869
H179	H	1.734164	-0.291996	0.986869
H180	H	1.984164	-0.041996	1.236869
C181	C	1.445401	-0.927089	0.287850
C182	C	1.695401	-0.677089	0.537850
C183	C	1.945401	-0.427089	0.787850
C184	C	2.195401	-0.177089	1.037850
N185	N	1.428072	-0.948108	0.210905
N186	N	1.678072	-0.698108	0.460905
N187	N	1.928072	-0.448108	0.710905
N188	N	2.178072	-0.198108	0.960905
H189	H	1.543604	-0.920653	0.407045
H190	H	1.793604	-0.670653	0.657045
H191	H	2.043604	-0.420653	0.907045
H192	H	2.293604	-0.170653	1.157045
C193	C	1.217204	-0.926412	0.512224
C194	C	1.467204	-0.676412	0.762224
C195	C	1.717204	-0.426412	1.012224
C196	C	1.967204	-0.176412	1.262224
N197	N	1.160867	-0.947037	0.567614
N198	N	1.410867	-0.697037	0.817614
N199	N	1.660867	-0.447037	1.067614
N200	N	1.910867	-0.197037	1.317614
H201	H	1.544275	-0.793023	0.407437
H202	H	1.794275	-0.543023	0.657437
H203	H	2.044275	-0.293023	0.907437
H204	H	2.294275	-0.043023	1.157437
H205	H	1.496775	-0.918700	0.588035
H206	H	1.746775	-0.668700	0.838035
H207	H	1.996775	-0.418700	1.088035
H208	H	2.246775	-0.168700	1.338035
H209	H	1.370404	-0.919508	0.623570
H210	H	1.620404	-0.669508	0.873570
H211	H	1.870404	-0.419508	1.123570
H212	H	2.120404	-0.169508	1.373570
H213	H	1.369113	-0.792777	0.623556
H214	H	1.619113	-0.542777	0.873556
H215	H	1.869113	-0.292777	1.123556
H216	H	2.119113	-0.042777	1.373556
H217	H	1.266939	-0.920698	0.365834
H218	H	1.516939	-0.670698	0.615834
H219	H	1.766939	-0.420698	0.865834
H220	H	2.016939	-0.170698	1.115834
H221	H	1.271733	-0.793130	0.361596
H222	H	1.521733	-0.543130	0.611596
H223	H	1.771733	-0.293130	0.861596
H224	H	2.021733	-0.043130	1.111596
H225	H	1.495365	-0.791629	0.588815
H226	H	1.745365	-0.541629	0.838815
H227	H	1.995365	-0.291629	1.088815
H228	H	2.245365	-0.041629	1.338815
