data_functionalizedCrystal
_audit_creation_method	'MofGen! by Chris Wilmer'
_symmetry_space_group_name_H-M	'P1'
_symmetry_Int_Tables_number	1
_symmetry_cell_setting	triclinic
loop_
_symmetry_equiv_pos_as_xyz
  x,y,z
_cell_length_a	25.639242
_cell_length_b	25.639239
_cell_length_c	19.120904
_cell_angle_alpha	87.589896
_cell_angle_beta	87.577846
_cell_angle_gamma	90.030990
loop_
_atom_site_label
_atom_site_type_symbol
_atom_site_fract_x
_atom_site_fract_y
_atom_site_fract_z
Zn1	Zn	0.786628	-0.220879	0.397121
Zn2	Zn	1.286628	0.279121	0.897121
Zn3	Zn	0.790277	-0.304584	0.279670
Zn4	Zn	1.290277	0.195416	0.779670
Zn5	Zn	0.702929	-0.217153	0.279686
Zn6	Zn	1.202929	0.282847	0.779686
Zn7	Zn	0.699151	-0.308272	0.397076
Zn8	Zn	1.199151	0.191728	0.897076
O9	O	0.744746	-0.262722	0.338388
O10	O	1.244746	0.237278	0.838388
O11	O	0.860277	-0.231999	0.381554
O12	O	1.360277	0.268001	0.881554
O13	O	0.781799	-0.289883	0.181390
O14	O	1.281799	0.210117	0.681390
O15	O	0.714086	-0.144483	0.295289
O16	O	1.214086	0.355517	0.795289
O17	O	0.862958	-0.293496	0.295263
O18	O	1.362958	0.206504	0.795263
O19	O	0.775579	-0.147221	0.381569
O20	O	1.275579	0.352779	0.881569
O21	O	0.717625	-0.225648	0.181401
O22	O	1.217625	0.274352	0.681401
O23	O	0.629263	-0.229225	0.295245
O24	O	1.129263	0.270775	0.795245
O25	O	0.707646	-0.299782	0.495364
O26	O	1.207646	0.200218	0.995364
O27	O	0.626487	-0.296169	0.381491
O28	O	1.126487	0.203831	0.881491
O29	O	0.771915	-0.235575	0.495398
O30	O	1.271915	0.264425	0.995398
O31	O	0.778135	-0.378238	0.295219
O32	O	1.278135	0.121762	0.795219
O33	O	0.711185	-0.380948	0.381476
O34	O	1.211185	0.119052	0.881476
C35	C	0.608904	-0.262693	0.338366
C36	C	1.108904	0.237307	0.838366
C37	C	0.550790	-0.262694	0.338372
C38	C	1.050790	0.237306	0.838372
C39	C	0.298206	-0.230763	0.383402
C40	C	0.798206	0.269237	0.883402
C41	C	0.352810	-0.230757	0.383398
C42	C	0.852810	0.269243	0.883398
O43	O	0.379864	-0.203585	0.421679
O44	O	0.879864	0.296415	0.921679
N45	N	0.381516	-0.262717	0.338396
N46	N	0.881516	0.237283	0.838396
C47	C	0.355614	-0.294687	0.293401
C48	C	0.855614	0.205313	0.793401
O49	O	0.385044	-0.321871	0.255123
O50	O	0.885044	0.178129	0.755123
C51	C	0.301010	-0.294695	0.293409
C52	C	0.801010	0.205305	0.793409
C53	C	0.272307	-0.262729	0.338408
C54	C	0.772307	0.237271	0.838408
C55	C	0.269503	-0.198800	0.428399
C56	C	0.769503	0.301200	0.928399
C57	C	0.214902	-0.198805	0.428401
C58	C	0.714902	0.301195	0.928401
C59	C	0.189004	-0.230772	0.383408
C60	C	0.689004	0.269228	0.883408
C61	C	0.217707	-0.262734	0.338411
C62	C	0.717707	0.237266	0.838411
C63	C	0.275109	-0.326668	0.248417
C64	C	0.775109	0.173332	0.748417
C65	C	0.220502	-0.326673	0.248429
C66	C	0.720502	0.173327	0.748429
C67	C	0.191799	-0.294708	0.293429
C68	C	0.691799	0.205292	0.793429
C69	C	0.137208	-0.294706	0.293421
C70	C	0.637208	0.205294	0.793421
N71	N	0.108503	-0.262747	0.338422
N72	N	0.608503	0.237253	0.838422
C73	C	0.134401	-0.230780	0.383416
C74	C	0.634401	0.269220	0.883416
C75	C	0.470285	-0.294669	0.293388
C76	C	0.970285	0.205331	0.793388
C77	C	0.524887	-0.294659	0.293376
C78	C	1.024887	0.205341	0.793376
C79	C	0.522080	-0.230730	0.383374
C80	C	1.022080	0.269270	0.883374
C81	C	0.467476	-0.230738	0.383382
C82	C	0.967476	0.269262	0.883382
C83	C	0.441579	-0.262710	0.338390
C84	C	0.941579	0.237290	0.838390
C85	C	0.019736	-0.230792	0.383418
C86	C	0.519736	0.269208	0.883418
C87	C	-0.034870	-0.230797	0.383415
C88	C	0.465130	0.269203	0.883415
C89	C	-0.032058	-0.294728	0.293419
C90	C	0.467942	0.205272	0.793419
C91	C	0.022543	-0.294721	0.293420
C92	C	0.522543	0.205279	0.793420
C93	C	0.048438	-0.262751	0.338425
C94	C	0.548438	0.237249	0.838425
O95	O	0.110119	-0.321866	0.255161
O96	O	0.610119	0.178134	0.755161
O97	O	0.104964	-0.203606	0.421693
O98	O	0.604964	0.296394	0.921693
C99	C	0.744659	-0.398564	0.338356
C100	C	1.244659	0.101436	0.838356
C101	C	0.744669	-0.456678	0.338366
C102	C	1.244669	0.043322	0.838366
C103	C	0.779692	-0.815621	0.293550
C104	C	1.279692	-0.315621	0.793550
C105	C	0.779712	-0.870225	0.293560
C106	C	1.279712	-0.370225	0.793560
O107	O	0.809399	-0.897253	0.255421
O108	O	1.309399	-0.397253	0.755421
N109	N	0.744837	-0.898963	0.338435
N110	N	1.244837	-0.398963	0.838435
C111	C	0.709943	-0.873093	0.383308
C112	C	1.209943	-0.373093	0.883308
O113	O	0.680281	-0.902550	0.421479
O114	O	1.180281	-0.402550	0.921479
C115	C	0.709926	-0.818490	0.383302
C116	C	1.209926	-0.318490	0.883302
C117	C	0.744800	-0.789755	0.338419
C118	C	1.244800	-0.289755	0.838419
C119	C	0.814563	-0.786886	0.248672
C120	C	1.314563	-0.286886	0.748672
C121	C	0.814543	-0.732285	0.248661
C122	C	1.314543	-0.232285	0.748661
C123	C	0.779650	-0.706419	0.293530
C124	C	1.279650	-0.206419	0.793530
C125	C	0.744779	-0.735154	0.338409
C126	C	1.244779	-0.235154	0.838409
C127	C	0.675035	-0.792621	0.428179
C128	C	1.175035	-0.292621	0.928179
C129	C	0.675021	-0.738013	0.428169
C130	C	1.175021	-0.238013	0.928169
C131	C	0.709895	-0.709279	0.383286
C132	C	1.209895	-0.209279	0.883286
C133	C	0.709866	-0.654687	0.383267
C134	C	1.209866	-0.154687	0.883267
N135	N	0.744741	-0.625950	0.338392
N136	N	1.244741	-0.125950	0.838392
C137	C	0.779633	-0.651816	0.293524
C138	C	1.279633	-0.151816	0.793524
C139	C	0.709982	-0.987764	0.383319
C140	C	1.209982	-0.487764	0.883319
C141	C	0.709996	-1.042366	0.383323
C142	C	1.209996	-0.542366	0.883323
C143	C	0.779766	-1.039495	0.293575
C144	C	1.279766	-0.539495	0.793575
C145	C	0.779749	-0.984892	0.293568
C146	C	1.279749	-0.484892	0.793568
C147	C	0.744857	-0.959027	0.338444
C148	C	1.244857	-0.459027	0.838444
C149	C	0.779587	-0.537150	0.293505
C150	C	1.279587	-0.037150	0.793505
C151	C	0.779562	-0.482544	0.293497
C152	C	1.279562	0.017456	0.793497
C153	C	0.709794	-0.485421	0.383247
C154	C	1.209794	0.014579	0.883247
C155	C	0.709817	-0.540021	0.383253
C156	C	1.209817	-0.040021	0.883253
C157	C	0.744718	-0.565885	0.338380
C158	C	1.244718	-0.065885	0.838380
O159	O	0.680195	-0.627624	0.421389
O160	O	1.180195	-0.127624	0.921389
O161	O	0.809295	-0.622352	0.255366
O162	O	1.309295	-0.122352	0.755366
C163	C	0.881118	-0.262752	0.338411
C164	C	1.381118	0.237248	0.838411
C165	C	0.939232	-0.262764	0.338421
C166	C	1.439232	0.237236	0.838421
C167	C	0.738952	-0.268506	0.521577
C168	C	1.238952	0.231494	1.021577
C169	C	0.736483	-0.270971	0.599641
C170	C	1.236483	0.229029	1.099641
C171	C	0.744847	-0.126351	0.338436
C172	C	1.244847	0.373649	0.838436
C173	C	0.744890	-0.068237	0.338456
C174	C	1.244890	0.431763	0.838456
C175	C	0.750548	-0.256924	0.155912
C176	C	1.250548	0.243076	0.655912
C177	C	0.753118	-0.254312	0.077849
C178	C	1.253118	0.245688	0.577849
C179	C	0.768783	-0.238701	0.636334
C180	C	1.268783	0.261299	1.136334
C181	C	0.766456	-0.241014	0.709684
C182	C	1.266456	0.258986	1.209684
C183	C	0.731833	-0.275601	0.746339
C184	C	1.231833	0.224399	1.246339
C185	C	0.699529	-0.307872	0.709640
C186	C	1.199529	0.192128	1.209640
C187	C	0.701853	-0.305555	0.636292
C188	C	1.201853	0.194445	1.136292
C189	C	0.723139	-0.284266	0.967802
C190	C	1.223139	0.215734	1.467802
C191	C	0.720819	-0.286582	1.041155
C192	C	1.220819	0.213418	1.541155
C193	C	0.787745	-0.219723	1.041194
C194	C	1.287745	0.280277	1.541194
C195	C	0.790068	-0.217411	0.967844
C196	C	1.290068	0.282589	1.467844
C197	C	0.757763	-0.249680	0.931152
C198	C	1.257763	0.250320	1.431152
C199	C	0.729455	-0.277968	0.821314
C200	C	1.229455	0.222032	1.321314
C201	C	0.760139	-0.247310	0.856178
C202	C	1.260139	0.252690	1.356178
H203	H	0.543176	-0.204701	0.420011
H204	H	1.043176	0.295299	0.920011
H205	H	0.814046	-0.193450	1.071076
H206	H	1.314046	0.306550	1.571076
H207	H	0.199419	-0.352711	0.211792
H208	H	0.699419	0.147289	0.711792
H209	H	0.671336	-0.336032	0.739491
H210	H	1.171336	0.163968	1.239491
H211	H	0.681564	-0.966708	0.419860
H212	H	1.181564	-0.466708	0.919860
H213	H	0.675546	-0.331828	0.606418
H214	H	1.175546	0.168172	1.106418
Cl215	Cl	0.823462	-0.569655	0.237091
Cl216	Cl	1.323462	-0.069655	0.737091
H217	H	0.646608	-0.716957	0.464714
H218	H	1.146608	-0.216957	0.964714
Cl219	Cl	0.677285	-0.330062	1.087235
Cl220	Cl	1.177285	0.169938	1.587235
H221	H	0.681421	-0.563419	0.419803
H222	H	1.181421	-0.063419	0.919803
Cl223	Cl	-0.064626	-0.334913	0.236858
Cl224	Cl	0.435374	0.165087	0.736858
H225	H	0.681593	-1.065758	0.419864
H226	H	1.181593	-0.565758	0.919864
H227	H	0.808179	-1.060565	0.257043
H228	H	1.308179	-0.560565	0.757043
Cl229	Cl	0.052281	-0.190599	0.439995
Cl230	Cl	0.552281	0.309401	0.939995
H231	H	0.646634	-0.816007	0.464724
H232	H	1.146634	-0.316007	0.964724
H233	H	0.808146	-0.961499	0.257021
H234	H	1.308146	-0.461499	0.757021
H235	H	0.696841	-0.310550	0.937936
H236	H	1.196841	0.189450	1.437936
H237	H	0.788327	-0.219148	0.826331
H238	H	1.288327	0.280852	1.326331
Cl239	Cl	0.807087	-0.200468	0.755809
Cl240	Cl	1.307087	0.299532	1.255809
H241	H	0.807960	-0.459150	0.256946
H242	H	1.307960	0.040850	0.756946
H243	H	0.842942	-0.708893	0.212116
H244	H	1.342942	-0.208893	0.712116
H245	H	0.701267	-0.306131	0.851166
H246	H	1.201267	0.193869	1.351166
H247	H	-0.058237	-0.204765	0.420059
H248	H	0.441763	0.295235	0.920059
H249	H	0.681383	-0.464352	0.419777
H250	H	1.181383	0.035648	0.919777
Cl251	Cl	0.812315	-0.195220	0.590261
Cl252	Cl	1.312315	0.304780	1.090261
H253	H	0.548253	-0.320683	0.256725
H254	H	1.048253	0.179317	0.756725
Cl255	Cl	0.302051	-0.158608	0.484971
Cl256	Cl	0.802051	0.341392	0.984971
Cl257	Cl	0.431399	-0.190553	0.439957
Cl258	Cl	0.931399	0.309447	0.939957
Cl259	Cl	0.437734	-0.334861	0.236812
Cl260	Cl	0.937734	0.165139	0.736812
Cl261	Cl	0.178827	-0.158623	0.484983
Cl262	Cl	0.678827	0.341377	0.984983
Cl263	Cl	0.058627	-0.334910	0.236853
Cl264	Cl	0.558627	0.165090	0.736853
Cl265	Cl	0.858434	-0.819393	0.192257
Cl266	Cl	1.358434	-0.319393	0.692257
Cl267	Cl	0.311179	-0.366847	0.191832
Cl268	Cl	0.811179	0.133153	0.691832
Cl269	Cl	0.833598	-0.173929	0.921769
Cl270	Cl	1.333598	0.326071	1.421769
