data_functionalizedCrystal
_audit_creation_method	'MofGen! by Chris Wilmer'
_symmetry_space_group_name_H-M	'P1'
_symmetry_Int_Tables_number	1
_symmetry_cell_setting	triclinic
loop_
_symmetry_equiv_pos_as_xyz
  x,y,z
_cell_length_a	23.096457
_cell_length_b	23.096457
_cell_length_c	20.875652
_cell_angle_alpha	89.998395
_cell_angle_beta	57.590915
_cell_angle_gamma	60.001944
loop_
_atom_site_label
_atom_site_type_symbol
_atom_site_fract_x
_atom_site_fract_y
_atom_site_fract_z
Zr1	Zr	0.639538	0.554884	-0.087364
O2	O	0.767361	0.458922	-0.193678
O3	O	0.516595	0.584299	-0.054777
O4	O	0.646581	0.579706	-0.193687
O5	O	0.630117	0.467140	0.054811
O6	O	0.646585	0.674985	-0.193689
O7	O	0.637375	0.463515	-0.054768
O8	O	0.414063	0.683201	0.054796
O9	O	0.862639	0.458924	-0.193674
O10	O	0.565358	0.667953	-0.040875
O11	O	0.559939	0.599553	0.040904
O12	O	0.712981	0.594145	-0.122645
O13	O	0.707562	0.525745	-0.040865
Zr14	Zr	0.627969	0.712626	0.087399
Zr15	Zr	0.639544	0.706843	-0.087367
Zr16	Zr	0.627963	0.560666	0.087403
Zr17	Zr	0.791494	0.554888	-0.087356
Zr18	Zr	0.476012	0.712621	0.087392
O19	O	0.750912	0.683210	0.054812
O20	O	0.767370	0.674988	-0.193683
O21	O	0.750903	0.467144	0.054817
O22	O	0.500145	0.808588	0.193714
O23	O	0.516603	0.800366	-0.054781
O24	O	0.500136	0.592521	0.193719
O25	O	0.637389	0.800369	-0.054775
O26	O	0.620926	0.687803	0.193722
O27	O	0.620922	0.592524	0.193724
O28	O	0.630131	0.803995	0.054804
O29	O	0.862644	0.579712	-0.193676
O30	O	0.404863	0.687798	0.193712
O31	O	0.404868	0.808585	0.193709
O32	O	0.414068	0.803989	0.054794
O33	O	0.853438	0.463521	-0.054758
O34	O	0.853443	0.584308	-0.054760
O35	O	0.554526	0.673364	0.122680
O36	O	0.559945	0.741764	0.040901
O37	O	0.707567	0.667957	-0.040868
O38	O	0.702148	0.599557	0.040911
C39	C	0.443678	0.633750	0.000009
C40	C	0.379169	0.633748	0.000005
C41	C	0.633745	0.443677	0.000022
C42	C	0.633743	0.379166	0.000023
C43	C	0.648232	0.626522	-0.218588
C44	C	0.653146	0.624067	-0.292781
C45	C	0.351697	0.669447	-0.042685
C46	C	0.291074	0.669454	-0.042679
C47	C	0.257938	0.633748	0.000008
C48	C	0.285413	0.598047	0.042708
C49	C	0.346029	0.598047	0.042707
N50	N	0.195932	0.573149	-0.005910
N51	N	0.138351	0.573150	-0.005913
C52	C	0.075305	0.633747	0.000015
N53	N	0.072024	0.694342	0.005932
N54	N	0.129612	0.694339	0.005931
C55	C	0.192210	0.633744	0.000014
C56	C	-0.017901	0.669458	-0.042670
C57	C	-0.078529	0.669467	-0.042658
C58	C	-0.084183	0.598053	0.042723
C59	C	-0.023562	0.598051	0.042716
C60	C	0.009578	0.633751	0.000015
C61	C	0.823828	0.633760	0.000027
C62	C	0.888338	0.633762	0.000030
C63	C	0.556706	-0.042829	0.042703
C64	C	0.556701	0.017789	0.042701
C65	C	0.633758	0.009576	0.000019
C66	C	0.710826	-0.059264	-0.042681
C67	C	0.710829	-0.119880	-0.042684
N68	N	0.688616	0.077320	0.005947
N69	N	0.688608	0.134905	0.005954
C70	C	0.633754	0.192207	0.000025
N71	N	0.578895	0.189754	-0.005897
N72	N	0.578901	0.132165	-0.005900
C73	C	0.633764	0.075300	0.000017
C74	C	0.556686	0.326766	0.042714
C75	C	0.556685	0.387384	0.042706
C76	C	0.710812	0.310329	-0.042670
C77	C	0.710811	0.249713	-0.042667
C78	C	0.633746	0.257937	0.000030
C79	C	0.633761	0.823833	0.000014
C80	C	0.633764	0.888343	0.000013
C81	C	0.689107	0.606071	-0.715006
C82	C	0.684483	0.608382	-0.645291
C83	C	0.605112	0.648070	-0.567753
C84	C	0.530361	0.685442	-0.559931
C85	C	0.534985	0.683126	-0.629646
C86	C	0.583018	0.659124	-0.354674
C87	C	0.578400	0.661439	-0.284958
C88	C	0.732523	0.584377	-0.370323
C89	C	0.737140	0.582068	-0.440035
C90	C	0.662388	0.619438	-0.432208
N91	N	0.600384	0.650435	-0.496491
N92	N	0.667117	0.617068	-0.503469
C93	C	0.619275	0.640988	0.218624
C94	C	0.614361	0.643442	0.292817
C95	C	0.443686	0.823828	0.000005
C96	C	0.379179	0.888337	0.000000
C97	C	0.429200	0.640982	0.218615
C98	C	0.359776	0.643436	0.292804
C99	C	0.429207	0.831060	0.218611
C100	C	0.359787	0.898024	0.292799
C101	C	0.838299	0.436449	-0.218575
C102	C	0.907720	0.369485	-0.292764
C103	C	0.823820	0.443682	0.000031
C104	C	0.888327	0.379173	0.000035
C105	C	0.838307	0.626527	-0.218579
C106	C	0.907730	0.624074	-0.292769
C107	C	0.351712	0.880102	-0.042696
C108	C	0.291110	0.940708	-0.042716
C109	C	0.257972	1.009549	-0.000036
C110	C	0.285445	1.017783	0.042662
C111	C	0.346050	0.957177	0.042677
C112	C	0.324348	0.683117	0.370338
C113	C	0.259125	0.685419	0.440054
C114	C	0.229328	0.648044	0.432234
C115	C	0.264762	0.608358	0.354692
C116	C	0.329988	0.606052	0.284978
C117	C	0.330015	0.965182	0.284951
C118	C	0.264795	1.028107	0.354652
C119	C	0.229345	1.023873	0.432201
C120	C	0.259123	0.956708	0.440048
C121	C	0.324345	0.893785	0.370347
C122	C	0.937499	0.302328	-0.284915
C123	C	1.002737	0.239402	-0.354617
C124	C	1.038191	0.243636	-0.432165
C125	C	1.008409	0.310801	-0.440012
C126	C	0.943176	0.373724	-0.370311
C127	C	0.915801	0.387408	0.042724
C128	C	0.976421	0.326800	0.042725
C129	C	1.009561	0.257959	0.000042
C130	C	0.982085	0.249725	-0.042652
C131	C	0.921471	0.310332	-0.042657
C132	C	0.937507	0.661457	-0.284923
C133	C	1.002729	0.659166	-0.354625
C134	C	1.038178	0.619488	-0.432173
C135	C	1.008395	0.582103	-0.440017
C136	C	0.943170	0.584399	-0.370316
H137	H	0.268702	0.698526	-0.077444
H138	H	0.773580	-0.175925	-0.077449
N139	N	1.033132	0.697360	-0.346586
N140	N	1.001476	0.732776	-0.277340
H141	H	1.022945	0.759751	-0.271659
N142	N	0.901285	0.701997	-0.205709
N143	N	0.843045	0.704053	-0.143474
H144	H	0.817462	0.732689	-0.087530
H145	H	0.745349	0.577951	-0.651668
H146	H	0.368405	0.963892	0.077450
N147	N	1.071479	0.196062	0.000058
N148	N	1.095996	0.203433	0.038180
H149	H	1.139725	0.159720	0.038195
H150	H	1.009077	0.193667	-0.077403
N151	N	0.881959	0.457727	0.086311
N152	N	0.827843	0.511842	0.086305
H153	H	0.803948	0.561504	0.117086
N154	N	0.162704	1.088152	0.503394
N155	N	0.091731	1.100302	0.553559
H156	H	0.044663	1.145701	0.603838
N157	N	1.004488	0.335207	0.086333
N158	N	1.081356	0.308454	0.049187
H159	H	1.101179	0.314391	0.079985
N160	N	0.234319	0.570189	0.346697
N161	N	0.265948	0.534764	0.277468
H162	H	0.244443	0.507810	0.271822
H163	H	0.908636	0.298867	-0.221778
H164	H	0.358869	0.968643	0.221813
H165	H	-0.001191	0.568978	0.077477
H166	H	0.493936	0.333462	0.077477
N167	N	0.354722	0.825195	0.378393
N168	N	0.304922	0.808345	0.414777
H169	H	0.326369	0.759906	0.420469
N170	N	0.818203	0.541524	-0.519248
N171	N	0.837986	0.572214	-0.567692
H172	H	0.895236	0.543577	-0.623639
N173	N	0.222909	0.952392	0.519265
N174	N	0.226463	0.979543	0.567692
H175	H	0.200881	0.976497	0.623642
N176	N	1.104799	0.617145	-0.503375
N177	N	1.094590	0.639510	-0.553549
H178	H	1.141641	0.637858	-0.603834
H179	H	0.793381	0.553952	-0.376686
N180	N	0.497313	0.702018	-0.205757
N181	N	0.430577	0.735403	-0.198778
H182	H	0.373312	0.764074	-0.142844
N183	N	0.893419	0.301901	-0.086268
N184	N	0.923019	0.240429	-0.124370
H185	H	0.903212	0.234469	-0.155174
H186	H	0.773553	0.303640	-0.077426
N187	N	0.251573	0.561575	0.086322
N188	N	0.212770	0.579806	0.161586
H189	H	0.188869	0.554048	0.192394
N190	N	0.789526	0.179404	-0.086281
N191	N	0.844210	0.158837	-0.161545
H192	H	0.899807	0.109179	-0.192353
N193	N	0.234396	1.096701	0.346611
N194	N	0.266053	1.100465	0.277364
H195	H	0.244586	1.148908	0.271682
H196	H	0.522150	0.689555	-0.348290
N197	N	0.222947	0.725962	0.519248
N198	N	0.249558	0.759334	0.526211
H199	H	0.224010	0.787968	0.582140
N200	N	0.770190	0.565533	-0.794201
N201	N	0.836921	0.532169	-0.801171
H202	H	0.894189	0.503536	-0.857102
N203	N	1.044618	0.541580	-0.519239
N204	N	1.102856	0.539540	-0.581459
H205	H	1.128443	0.510917	-0.637412
H206	H	0.465735	0.717753	-0.496793
N207	N	0.263065	0.932275	-0.086336
N208	N	0.292656	0.870804	-0.124430
H209	H	0.272851	0.864845	-0.155237
N210	N	1.033122	0.170811	-0.346569
N211	N	0.983334	0.153948	-0.310199
H212	H	1.004787	0.105507	-0.304511
H213	H	0.378675	0.698518	-0.077453
H214	H	0.918931	0.428405	-0.376711
N215	N	0.477969	0.457693	0.086302
N216	N	0.429458	0.475175	0.068206
H217	H	0.373862	0.524832	0.098995
H218	H	0.918933	0.553954	-0.376716
H219	H	1.037284	0.314239	-0.503160
N220	N	0.458626	0.721299	-0.621642
N221	N	0.387763	0.756730	-0.552409
H222	H	0.333831	0.783688	-0.546753
N223	N	0.477981	-0.034417	0.086320
N224	N	0.409184	0.027047	0.124434
H225	H	0.353583	0.032988	0.155238
N226	N	1.104826	0.179365	-0.503368
N227	N	1.175798	0.167215	-0.553541
H228	H	1.222857	0.121822	-0.603827
H229	H	0.176216	0.649928	0.489007
N230	N	0.477988	0.088105	0.086297
N231	N	0.429476	0.105596	0.068200
H232	H	0.373885	0.155256	0.098989
N233	N	0.015954	0.705918	-0.086300
N234	N	-0.008585	0.737791	-0.124416
H235	H	0.015328	0.763538	-0.155234
N236	N	-0.106592	0.705946	-0.086264
N237	N	-0.076995	0.737818	-0.124382
H238	H	-0.096815	0.763584	-0.155179
H239	H	0.773566	-0.065947	-0.077434
H240	H	0.208623	1.058893	-0.000054
H241	H	0.378694	0.824053	-0.077461
H242	H	0.258455	1.073842	0.077410
H243	H	0.368397	0.568975	0.077471
H244	H	0.348601	0.713553	0.376721
N245	N	0.366163	0.565514	0.205786
N246	N	0.339543	0.532151	0.198825
H247	H	0.365089	0.503518	0.142897
H248	H	-0.111162	0.568981	0.077480
