data_functionalizedCrystal
_audit_creation_method	'MofGen! by Chris Wilmer'
_symmetry_space_group_name_H-M	'P1'
_symmetry_Int_Tables_number	1
_symmetry_cell_setting	triclinic
loop_
_symmetry_equiv_pos_as_xyz
  x,y,z
_cell_length_a	11.026607
_cell_length_b	13.101018
_cell_length_c	11.026607
_cell_angle_alpha	85.900546
_cell_angle_beta	108.586017
_cell_angle_gamma	94.101240
loop_
_atom_site_label
_atom_site_type_symbol
_atom_site_fract_x
_atom_site_fract_y
_atom_site_fract_z
O1	O	1.732216	0.085212	0.528129
O2	O	1.365636	0.085214	0.467365
O3	O	1.518544	0.085210	0.314457
O4	O	1.579308	0.085217	0.681037
O5	O	1.507560	-0.085220	0.325437
O6	O	1.354652	-0.085216	0.478345
O7	O	1.721232	-0.085218	0.539109
Zn8	Zn	1.536198	-0.112276	0.510470
Zn9	Zn	1.550670	0.112273	0.496004
O10	O	1.568324	-0.085213	0.692017
C11	C	1.312485	-0.000001	0.461645
C12	C	1.170471	-0.000000	0.428228
C13	C	1.116822	0.000002	0.520498
C14	C	0.970043	0.000003	0.485962
N15	N	1.526330	-0.265525	0.520344
C16	C	1.573964	-0.525436	0.472681
C17	C	1.512915	-0.474561	0.533781
C18	C	1.520381	-0.358243	0.526303
C19	C	1.566500	-0.641765	0.480159
C20	C	1.774384	-0.000001	0.544829
C21	C	1.916398	0.000006	0.578245
C22	C	1.501842	-0.000004	0.272288
C23	C	1.468426	-0.000000	0.130273
N24	N	1.560546	0.265521	0.486122
C25	C	1.560695	0.000001	0.076624
C26	C	1.526160	0.000005	-0.070155
C27	C	1.585026	0.000003	0.734186
C28	C	1.618443	0.000006	0.876200
H29	H	1.179554	-0.000001	0.625061
H30	H	1.723018	0.000082	-0.061077
H31	H	1.107739	0.000024	0.323664
H32	H	0.979125	0.000001	0.682816
H33	H	1.455044	-0.518365	0.591708
H34	H	1.631834	-0.481638	0.414760
H35	H	0.907315	0.000027	0.381391
H36	H	1.665258	-0.000006	0.139358
H37	H	1.363863	0.000007	0.067540
H38	H	1.421591	0.000012	-0.132884
