data_functionalizedCrystal
_audit_creation_method	'MofGen! by Chris Wilmer'
_symmetry_space_group_name_H-M	'P1'
_symmetry_Int_Tables_number	1
_symmetry_cell_setting	triclinic
loop_
_symmetry_equiv_pos_as_xyz
  x,y,z
_cell_length_a	29.839131
_cell_length_b	17.640112
_cell_length_c	29.839135
_cell_angle_alpha	78.815776
_cell_angle_beta	90.015241
_cell_angle_gamma	101.262129
loop_
_atom_site_label
_atom_site_type_symbol
_atom_site_fract_x
_atom_site_fract_y
_atom_site_fract_z
Zn1	Zn	-0.039919	1.208270	0.115396
Zn2	Zn	0.460081	1.708270	0.615396
Zn3	Zn	-0.115029	1.208178	0.040266
Zn4	Zn	0.384971	1.708178	0.540266
Zn5	Zn	-0.055111	1.076115	0.055436
Zn6	Zn	0.444889	1.576115	0.555436
Zn7	Zn	-0.130241	1.076024	0.130525
Zn8	Zn	0.369759	1.576024	0.630525
O9	O	-0.085075	1.142147	0.085406
O10	O	0.414925	1.642147	0.585406
O11	O	-0.037159	1.318872	0.092749
O12	O	0.462841	1.818872	0.592749
O13	O	-0.107072	1.190659	-0.020589
O14	O	0.392928	1.690659	0.479411
O15	O	0.009780	1.093722	0.063407
O16	O	0.509780	1.593722	0.563407
O17	O	-0.092341	1.318805	0.037552
O18	O	0.407659	1.818805	0.537552
O19	O	0.020941	1.190816	0.107459
O20	O	0.520941	1.690816	0.607459
O21	O	-0.063050	1.093633	-0.009443
O22	O	0.436950	1.593633	0.490557
O23	O	-0.077801	0.965488	0.078078
O24	O	0.422199	1.465488	0.578078
O25	O	-0.118269	1.093567	0.191385
O26	O	0.381731	1.593567	0.691385
O27	O	-0.132999	0.965421	0.133245
O28	O	0.367001	1.465421	0.633245
O29	O	-0.051910	1.190727	0.180270
O30	O	0.448090	1.690727	0.680270
O31	O	-0.179923	1.190571	0.052222
O32	O	0.320077	1.690571	0.552222
O33	O	-0.191099	1.093478	0.118535
O34	O	0.308901	1.593478	0.618535
C35	C	-0.108700	0.936774	0.108950
C36	C	0.391300	1.436774	0.608950
C37	C	-0.118817	0.848914	0.119032
C38	C	0.381183	1.348914	0.619032
C39	C	-0.008205	0.560020	0.008812
C40	C	0.491795	1.060020	0.508812
C41	C	-0.017721	0.477463	0.018292
C42	C	0.482279	0.977463	0.518292
C43	C	-0.075278	0.477447	0.075639
C44	C	0.424722	0.977447	0.575639
C45	C	-0.065765	0.560006	0.066165
C46	C	0.434235	1.060006	0.566165
C47	C	-0.032229	0.601286	0.032751
C48	C	0.467771	1.101286	0.532751
C49	C	-0.089789	0.601272	0.090104
C50	C	0.410211	1.101272	0.590104
C51	C	-0.080278	0.683824	0.080629
C52	C	0.419722	1.183824	0.580629
C53	C	-0.046744	0.725110	0.047215
C54	C	0.453256	1.225110	0.547215
C55	C	-0.022718	0.683838	0.023276
C56	C	0.477282	1.183838	0.523276
C57	C	-0.123328	0.559991	0.123516
C58	C	0.376672	1.059991	0.623516
C59	C	-0.147351	0.601257	0.147455
C60	C	0.352649	1.101257	0.647455
C61	C	-0.137838	0.683811	0.137982
C62	C	0.362162	1.183811	0.637982
C63	C	-0.104304	0.725096	0.104569
C64	C	0.395696	1.225096	0.604569
C65	C	-0.161865	0.725083	0.161922
C66	C	0.338135	1.225083	0.661922
C67	C	-0.152354	0.807634	0.152447
C68	C	0.347646	1.307634	0.652447
C69	C	-0.094794	0.807648	0.095093
C70	C	0.405206	1.307648	0.595093
C71	C	-0.201812	1.142026	0.085382
C72	C	0.298188	1.642026	0.585382
C73	C	-0.251744	1.142047	0.085378
C74	C	0.248256	1.642047	0.585378
C75	C	-0.555530	1.192692	0.108386
C76	C	-0.055530	1.692692	0.608386
C77	C	-0.743194	1.192778	0.108403
C78	C	-0.243194	1.692778	0.608403
O79	O	-0.762492	1.235721	0.127950
O80	O	-0.262492	1.735721	0.627950
N81	N	-0.772502	1.142281	0.085440
N82	N	-0.272502	1.642281	0.585440
C83	C	-0.754892	1.091755	0.062474
C84	C	-0.254892	1.591755	0.562474
O85	O	-0.784127	1.048800	0.042947
O86	O	-0.284127	1.548800	0.542947
C87	C	-0.567230	1.091666	0.062460
C88	C	-0.067230	1.591666	0.562460
C89	C	-0.537923	1.142172	0.085420
C90	C	-0.037923	1.642172	0.585420
C91	C	-0.526224	1.243194	0.131345
C92	C	-0.026224	1.743194	0.631345
C93	C	-0.479311	1.243175	0.131338
C94	C	0.020689	1.743175	0.631338
C95	C	-0.461704	1.192654	0.108373
C96	C	0.038296	1.692654	0.608373
C97	C	-0.491010	1.142153	0.085414
C98	C	0.008990	1.642153	0.585414
C99	C	-0.549622	1.041136	0.039497
C100	C	-0.049622	1.541136	0.539497
C101	C	-0.502703	1.041117	0.039496
C102	C	-0.002703	1.541117	0.539496
C103	C	-0.473396	1.091623	0.062457
C104	C	0.026604	1.591623	0.562457
C105	C	-0.426490	1.091614	0.062442
C106	C	0.073510	1.591614	0.562442
N107	N	-0.397182	1.142111	0.085404
N108	N	0.102818	1.642111	0.585404
C109	C	-0.414789	1.192631	0.108370
C110	C	0.085211	1.692631	0.608370
C111	C	-0.853417	1.091806	0.062482
C112	C	-0.353417	1.591806	0.562482
C113	C	-0.900332	1.091829	0.062485
C114	C	-0.400332	1.591829	0.562485
C115	C	-0.888630	1.192852	0.108415
C116	C	-0.388630	1.692852	0.608415
C117	C	-0.841714	1.192832	0.108409
C118	C	-0.341714	1.692832	0.608409
C119	C	-0.824109	1.142304	0.085445
C120	C	-0.324109	1.642304	0.585445
C121	C	-0.316268	1.192588	0.108354
C122	C	0.183732	1.692588	0.608354
C123	C	-0.269351	1.192567	0.108344
C124	C	0.230649	1.692567	0.608344
C125	C	-0.281057	1.091542	0.062416
C126	C	0.218943	1.591542	0.562416
C127	C	-0.327969	1.091566	0.062424
C128	C	0.172031	1.591566	0.562424
C129	C	-0.345574	1.142092	0.085396
C130	C	0.154426	1.642092	0.585396
O131	O	-0.407160	1.048687	0.042909
O132	O	0.092840	1.548687	0.542909
O133	O	-0.385548	1.235567	0.127902
O134	O	0.114452	1.735567	0.627902
C135	C	-0.602444	1.192711	0.108392
C136	C	-0.102444	1.692711	0.608392
C137	C	-0.631750	1.142210	0.085434
C138	C	-0.131750	1.642210	0.585434
C139	C	-0.614143	1.091689	0.062468
C140	C	-0.114143	1.591689	0.562468
C141	C	-0.678665	1.142233	0.085436
C142	C	-0.178665	1.642233	0.585436
C143	C	-0.696272	1.192753	0.108402
C144	C	-0.196272	1.692753	0.608402
C145	C	-0.666964	1.243251	0.131365
C146	C	-0.166964	1.743251	0.631365
C147	C	-0.620051	1.243232	0.131358
C148	C	-0.120051	1.743232	0.631358
C149	C	-0.643451	1.041192	0.039505
C150	C	-0.143451	1.541192	0.539505
C151	C	-0.690364	1.041216	0.039513
C152	C	-0.190364	1.541216	0.539513
C153	C	-0.707971	1.091736	0.062479
C154	C	-0.207971	1.591736	0.562479
C155	C	0.032120	1.142289	0.085437
C156	C	0.532120	1.642289	0.585437
C157	C	0.082061	1.142350	0.085451
C158	C	0.582061	1.642350	0.585451
C159	C	-0.085092	1.142147	0.202584
C160	C	0.414908	1.642147	0.702584
C161	C	-0.085099	1.142147	0.252518
C162	C	0.414901	1.642147	0.752518
C163	C	-0.061358	1.348321	0.061770
C164	C	0.438642	1.848321	0.561770
C165	C	-0.051252	1.436181	0.051698
C166	C	0.448748	1.936181	0.551698
C167	C	-0.050525	1.192737	0.556377
C168	C	0.449475	1.692737	1.056377
C169	C	-0.050519	1.192743	0.744049
C170	C	0.449481	1.692743	1.244049
O171	O	-0.021126	1.235740	0.763398
O172	O	0.478874	1.735740	1.263398
N173	N	-0.085069	1.142160	0.773302
N174	N	0.414931	1.642160	1.273302
C175	C	-0.119621	1.091568	0.755635
C176	C	0.380379	1.591568	1.255635
O177	O	-0.149005	1.048538	0.784823
O178	O	0.350995	1.548538	1.284823
C179	C	-0.119625	1.091558	0.567964
C180	C	0.380375	1.591558	1.067964
C181	C	-0.085075	1.142151	0.538712
C182	C	0.414925	1.642151	1.038712
C183	C	-0.015978	1.243325	0.527126
C184	C	0.484022	1.743325	1.027126
C185	C	-0.015982	1.243326	0.480211
C186	C	0.484018	1.743326	0.980211
C187	C	-0.050532	1.192739	0.462546
C188	C	0.449468	1.692739	0.962546
C189	C	-0.085078	1.142152	0.491797
C190	C	0.414922	1.642152	0.991797
C191	C	-0.154174	1.040963	0.550297
C192	C	0.345826	1.540963	1.050297
C193	C	-0.154171	1.040964	0.503376
C194	C	0.345829	1.540964	1.003376
C195	C	-0.119622	1.091556	0.474125
C196	C	0.380378	1.591556	0.974125
C197	C	-0.119632	1.091566	0.427216
C198	C	0.380368	1.591566	0.927216
N199	N	-0.085082	1.142150	0.397964
N200	N	0.414918	1.642150	0.897964
C201	C	-0.050532	1.192736	0.415628
C202	C	0.449468	1.692736	0.915628
C203	C	-0.119617	1.091577	0.854164
C204	C	0.380383	1.591577	1.354164
C205	C	-0.119617	1.091581	0.901082
C206	C	0.380383	1.591581	1.401082
C207	C	-0.050515	1.192755	0.889493
C208	C	0.449485	1.692755	1.389493
C209	C	-0.050517	1.192755	0.842575
C210	C	0.449483	1.692755	1.342575
C211	C	-0.085067	1.142161	0.824912
C212	C	0.414933	1.642161	1.324912
C213	C	-0.050542	1.192735	0.317103
C214	C	0.449458	1.692735	0.817103
C215	C	-0.050549	1.192734	0.270183
C216	C	0.449451	1.692734	0.770183
C217	C	-0.119649	1.091557	0.281776
C218	C	0.380351	1.591557	0.781776
C219	C	-0.119644	1.091561	0.328691
C220	C	0.380356	1.591561	0.828691
C221	C	-0.085086	1.142152	0.346353
C222	C	0.414914	1.642152	0.846353
O223	O	-0.149007	1.048586	0.407837
O224	O	0.350993	1.548586	0.907837
O225	O	-0.021147	1.235747	0.386434
O226	O	0.478853	1.735747	0.886434
C227	C	-0.050522	1.192736	0.603293
C228	C	0.449478	1.692736	1.103293
C229	C	-0.085069	1.142149	0.632543
C230	C	0.414931	1.642149	1.132543
C231	C	-0.119619	1.091562	0.614879
C232	C	0.380381	1.591562	1.114879
C233	C	-0.085069	1.142152	0.679461
C234	C	0.414931	1.642152	1.179461
C235	C	-0.050519	1.192738	0.697126
C236	C	0.449481	1.692738	1.197126
C237	C	-0.015969	1.243322	0.667873
C238	C	0.484031	1.743322	1.167873
C239	C	-0.015972	1.243323	0.620958
C240	C	0.484028	1.743323	1.120958
C241	C	-0.154168	1.040979	0.644131
C242	C	0.345832	1.540979	1.144131
C243	C	-0.154163	1.040983	0.691046
C244	C	0.345837	1.540983	1.191046
C245	C	-0.119613	1.091569	0.708711
C246	C	0.380387	1.591569	1.208711
C247	C	-0.085070	1.142147	0.968683
C248	C	0.414930	1.642147	1.468683
C249	C	-0.085067	1.142167	0.918746
C250	C	0.414933	1.642167	1.418746
H251	H	-0.174658	0.567636	0.174660
H252	H	0.325342	1.067636	0.674660
F253	F	-0.544955	1.296966	0.155792
F254	F	-0.044955	1.796966	0.655792
F255	F	-0.036624	0.812970	0.037129
F256	F	0.463376	1.312970	0.537129
H257	H	-0.131070	0.492772	0.131230
H258	H	0.368930	0.992772	0.631230
F259	F	-0.177923	0.851555	0.177924
F260	F	0.322077	1.351555	0.677924
F261	F	-0.013744	1.246593	0.908301
F262	F	0.486256	1.746593	1.408301
H263	H	-0.924189	1.050711	0.043783
H264	H	-0.424189	1.550711	0.543783
H265	H	0.001847	0.443867	-0.001201
H266	H	0.501847	0.943867	0.498799
F267	F	-0.834687	1.038021	0.038041
F268	F	-0.334687	1.538021	0.538041
H269	H	-0.573476	1.000009	0.020800
H270	H	-0.073476	1.500009	0.520800
F271	F	-0.359160	1.037822	0.037981
F272	F	0.140840	1.537822	0.537981
H273	H	-0.245489	1.233698	0.127040
H274	H	0.254511	1.733698	0.627040
H275	H	0.012153	1.284522	0.456398
H276	H	0.512153	1.784522	0.956398
F277	F	-0.190945	0.987111	0.484581
F278	F	0.309055	1.487111	0.984581
H279	H	0.004597	0.717450	-0.003927
H280	H	0.504597	1.217450	0.496073
H281	H	-0.147755	1.050378	0.839788
H282	H	0.352245	1.550378	1.339788
F283	F	-0.907377	1.246620	0.132856
F284	F	-0.407377	1.746620	0.632856
H285	H	0.012162	1.284520	0.597145
H286	H	0.512162	1.784520	1.097145
F287	F	0.020795	1.297178	0.545918
F288	F	0.520795	1.797178	1.045918
H289	H	-0.189173	0.691460	0.189125
H290	H	0.310827	1.191460	0.689125
H291	H	-0.488372	0.999968	0.020797
H292	H	0.011628	1.499968	0.520797
F293	F	-0.059097	0.851586	0.059533
F294	F	0.440903	1.351586	0.559533
F295	F	-0.262309	1.037778	0.037975
F296	F	0.237691	1.537778	0.537975
H297	H	-0.147780	1.050373	0.267384
H298	H	0.352220	1.550373	0.767384
H299	H	-0.596192	1.284358	0.150055
H300	H	-0.096192	1.784358	0.650055
F301	F	-0.448126	1.296926	0.155779
F302	F	0.051874	1.796926	0.655779
H303	H	-0.714222	1.000089	0.020812
H304	H	-0.214222	1.500089	0.520812
F305	F	-0.013745	1.246601	0.811447
F306	F	0.486255	1.746601	1.311447
H307	H	-0.330596	1.233726	0.127064
H308	H	0.169404	1.733726	0.627064
H309	H	-0.817854	1.233958	0.127106
H310	H	-0.317854	1.733958	0.627106
F311	F	0.020801	1.297162	0.686681
F312	F	0.520801	1.797162	1.186681
F313	F	-0.190943	0.987134	0.625338
F314	F	0.309057	1.487134	1.125338
H315	H	-0.681307	1.284389	0.150062
H316	H	-0.181307	1.784389	0.650062
H317	H	-0.182301	0.999786	0.714859
H318	H	0.317699	1.499786	1.214859
H319	H	-0.022400	1.233929	0.331477
H320	H	0.477600	1.733929	0.831477
F321	F	-0.624720	0.987415	0.015063
F322	F	-0.124720	1.487415	0.515063
F323	F	-0.190948	0.987117	0.581419
F324	F	0.309052	1.487117	1.081419
H325	H	-0.022414	1.233935	0.246368
H326	H	0.477586	1.733935	0.746368
F327	F	-0.156417	1.037720	0.359823
F328	F	0.343583	1.537720	0.859823
F329	F	0.027491	0.603957	-0.026749
F330	F	0.527491	1.103957	0.473251
F331	F	-0.156394	1.037745	0.932207
F332	F	0.343606	1.537745	1.432207
F333	F	-0.110974	0.433506	0.111196
F334	F	0.389026	0.933506	0.611196
