data_functionalizedCrystal
_audit_creation_method	'MofGen! by Chris Wilmer'
_symmetry_space_group_name_H-M	'P1'
_symmetry_Int_Tables_number	1
_symmetry_cell_setting	triclinic
loop_
_symmetry_equiv_pos_as_xyz
  x,y,z
_cell_length_a	11.792241
_cell_length_b	8.965430
_cell_length_c	11.792241
_cell_angle_alpha	89.999725
_cell_angle_beta	95.806584
_cell_angle_gamma	90.001014
loop_
_atom_site_label
_atom_site_type_symbol
_atom_site_fract_x
_atom_site_fract_y
_atom_site_fract_z
O1	O	-1.506909	0.123873	0.155559
O2	O	-1.006909	0.623873	0.655559
O3	O	-1.176567	0.123912	0.171592
O4	O	-0.676567	0.623912	0.671592
O5	O	-1.349754	0.123881	-0.001595
O6	O	-0.849754	0.623881	0.498405
O7	O	-1.333722	0.123904	0.328746
O8	O	-0.833722	0.623904	0.828746
O9	O	-1.349740	-0.124198	-0.001583
O10	O	-0.849740	0.375802	0.498417
O11	O	-1.176553	-0.124166	0.171604
O12	O	-0.676553	0.375834	0.671604
O13	O	-1.506894	-0.124206	0.155571
O14	O	-1.006894	0.375794	0.655571
Cu15	Cu	-1.341722	-0.146838	0.163588
Cu16	Cu	-0.841722	0.353162	0.663588
Cu17	Cu	-1.341739	0.146544	0.163575
Cu18	Cu	-0.841739	0.646544	0.663575
O19	O	-1.333707	-0.124175	0.328758
O20	O	-0.833707	0.375825	0.828758
C21	C	-1.134269	-0.000122	0.170591
C22	C	-0.634269	0.499878	0.670591
C23	C	-1.008255	-0.000107	0.167576
C24	C	-0.508255	0.499893	0.667576
C25	C	-0.777543	-0.000147	0.162034
C26	C	-0.277543	0.499853	0.662034
C27	C	-0.905928	-0.000125	0.165113
C28	C	-0.405928	0.499875	0.665113
N29	N	-1.341718	-0.353187	0.163597
N30	N	-0.841718	0.146813	0.663597
C31	C	-1.261600	-0.450478	0.243664
C32	C	-0.761600	0.049522	0.743664
C33	C	-1.364301	-0.549903	0.266319
C34	C	-0.864301	-0.049903	0.766319
C35	C	-1.239061	-0.549890	0.140952
C36	C	-0.739061	-0.049890	0.640952
C37	C	-1.444471	-0.450422	0.186304
C38	C	-0.944471	0.049578	0.686304
C39	C	-1.319163	-0.450401	0.060892
C40	C	-0.819163	0.049599	0.560892
C41	C	-1.421938	-0.549780	0.083504
C42	C	-0.921938	-0.049780	0.583504
C43	C	-0.549192	-0.000165	0.156572
C44	C	-0.049192	0.499835	0.656572
C45	C	-0.675206	-0.000159	0.159587
C46	C	-0.175206	0.499841	0.659587
C47	C	-1.348740	-0.000158	-0.043880
C48	C	-0.848740	0.499842	0.456120
C49	C	-1.345726	-0.000156	-0.169894
C50	C	-0.845726	0.499844	0.330106
N51	N	-1.341752	0.352893	0.163557
N52	N	-0.841752	0.852893	0.663557
C53	C	-1.340183	-0.000130	-0.400606
C54	C	-0.840183	0.499870	0.099394
C55	C	-1.343262	-0.000144	-0.272221
C56	C	-0.843262	0.499856	0.227779
C57	C	-1.334721	-0.000133	0.371043
C58	C	-0.834721	0.499867	0.871043
C59	C	-1.337736	-0.000125	0.497057
C60	C	-0.837736	0.499875	0.997057
H61	H	-1.193909	-0.406877	0.311436
H62	H	-0.693909	0.093123	0.811436
F63	F	-1.125569	-0.607002	0.115937
F64	F	-0.625569	-0.107002	0.615937
H65	H	-1.383402	-0.593608	0.353157
H66	H	-0.883402	-0.093608	0.853157
F67	F	-1.294156	-0.393226	-0.052577
F68	F	-0.794156	0.106774	0.447423
H69	H	-1.531321	-0.406914	0.205544
H70	H	-1.031321	0.093086	0.705544
H71	H	-1.489780	-0.593108	0.015773
H72	H	-0.989780	-0.093108	0.515773
