data_functionalizedCrystal
_audit_creation_method	'MofGen! by Chris Wilmer'
_symmetry_space_group_name_H-M	'P1'
_symmetry_Int_Tables_number	1
_symmetry_cell_setting	triclinic
loop_
_symmetry_equiv_pos_as_xyz
  x,y,z
_cell_length_a	17.077404
_cell_length_b	15.297327
_cell_length_c	17.077396
_cell_angle_alpha	99.647268
_cell_angle_beta	89.980499
_cell_angle_gamma	99.707136
loop_
_atom_site_label
_atom_site_type_symbol
_atom_site_fract_x
_atom_site_fract_y
_atom_site_fract_z
Zn1	Zn	1.145953	-0.359161	-0.497895
Zn2	Zn	1.123133	-0.510035	-0.389335
Zn3	Zn	1.014680	-0.359192	-0.366647
Zn4	Zn	0.991934	-0.509981	-0.520550
O5	O	1.068925	-0.434592	-0.443607
O6	O	1.252771	-0.379184	-0.483507
O7	O	1.108715	-0.490061	-0.276484
O8	O	1.051163	-0.232941	-0.365082
O9	O	1.236005	-0.490030	-0.403749
O10	O	1.147608	-0.232918	-0.461508
O11	O	1.029035	-0.379238	-0.259815
O12	O	0.901817	-0.379186	-0.387050
O13	O	1.012395	-0.489939	-0.627386
O14	O	0.885105	-0.489970	-0.500121
O15	O	1.125553	-0.379132	-0.610742
O16	O	1.086659	-0.636275	-0.425717
O17	O	0.990268	-0.636236	-0.522120
C18	C	0.864979	-0.434576	-0.443583
C19	C	0.777727	-0.434591	-0.443594
C20	C	0.728043	-0.492363	-0.502403
C21	C	0.646062	-0.492365	-0.502416
C22	C	0.613767	-0.434599	-0.443616
C23	C	0.663458	-0.376820	-0.384804
C24	C	0.745438	-0.376814	-0.384795
C25	C	0.492585	-0.376838	-0.384825
C26	C	0.410599	-0.376844	-0.384833
C27	C	0.393210	-0.492389	-0.502446
C28	C	0.475189	-0.492383	-0.502438
C29	C	0.524875	-0.434605	-0.443624
C30	C	1.033541	-0.668990	-0.478856
C31	C	1.018475	-0.769266	-0.493962
C32	C	1.176925	-1.051885	-0.335910
C33	C	1.191079	-0.957670	-0.321713
C34	C	1.147930	-0.910565	-0.364774
C35	C	1.090623	-0.957683	-0.422034
C36	C	1.076462	-1.051907	-0.436228
C37	C	1.047467	-0.910586	-0.465092
C38	C	0.990160	-0.957705	-0.522352
C39	C	0.976003	-1.051919	-0.536544
C40	C	1.019152	-1.099025	-0.493483
C41	C	1.061628	-0.816363	-0.450898
C42	C	0.961165	-0.816384	-0.551217
C43	C	0.947010	-0.910599	-0.565413
C44	C	1.273666	-0.434609	-0.443632
C45	C	1.360915	-0.434617	-0.443642
C46	C	1.068982	-0.434526	-0.648341
C47	C	1.069007	-0.434498	-0.735587
C48	C	1.104468	-0.199279	-0.408237
C49	C	1.119615	-0.099003	-0.393165
C50	C	1.127930	-0.376795	-0.767910
C51	C	1.127944	-0.376765	-0.849886
C52	C	1.069037	-0.434443	-0.899538
C53	C	1.010108	-0.492147	-0.867209
C54	C	1.010091	-0.492172	-0.785234
C55	C	1.010148	-0.492093	-1.038071
C56	C	1.010165	-0.492070	-1.120052
C57	C	1.128000	-0.376686	-1.102724
C58	C	1.127984	-0.376711	-1.020748
C59	C	1.069055	-0.434417	-0.988425
C60	C	1.068922	-0.434593	-0.239659
C61	C	1.069088	-0.434368	-0.152376
H62	H	0.501481	-0.539426	-0.550314
F63	F	1.122616	-0.766227	-0.389960
F64	F	0.340332	-0.553870	-0.565048
F65	F	0.798316	-0.315323	-0.322204
F66	F	1.252073	-0.907531	-0.260781
H67	H	1.159457	-0.833851	-0.353211
H68	H	1.175927	-0.329781	-0.876200
F69	F	0.762406	-0.553852	-0.564984
H70	H	0.384309	-0.329795	-0.336961
H71	H	1.175901	-0.329830	-0.727489
H72	H	0.962151	-0.539070	-1.011755
F73	F	0.947464	-0.553449	-1.172893
F74	F	1.190683	-0.315330	-0.967908
F75	F	0.593187	-0.553854	-0.565009
F76	F	0.545462	-0.315342	-0.322230
F77	F	1.003841	-1.199300	-0.508340
F78	F	0.947412	-0.553529	-0.920053
H79	H	0.962103	-0.539150	-0.758916
F80	F	0.915234	-0.766256	-0.597044
H81	H	0.637157	-0.329781	-0.336930
H82	H	1.212046	-1.090247	-0.300851
F83	F	0.886021	-0.960756	-0.626352
F84	F	0.915008	-1.102063	-0.597482
F85	F	1.190718	-0.315271	-1.137125
