data_functionalizedCrystal
_audit_creation_method	'MofGen! by Chris Wilmer'
_symmetry_space_group_name_H-M	'P1'
_symmetry_Int_Tables_number	1
_symmetry_cell_setting	triclinic
loop_
_symmetry_equiv_pos_as_xyz
  x,y,z
_cell_length_a	10.654549
_cell_length_b	10.540510
_cell_length_c	9.730217
_cell_angle_alpha	89.999207
_cell_angle_beta	89.997559
_cell_angle_gamma	84.500114
loop_
_atom_site_label
_atom_site_type_symbol
_atom_site_fract_x
_atom_site_fract_y
_atom_site_fract_z
O1	O	1.667877	0.178330	-0.114315
O2	O	1.302403	0.195312	-0.114310
O3	O	1.493498	0.002109	-0.114312
O4	O	1.476783	0.371533	-0.114313
O5	O	1.493492	0.002107	0.114268
O6	O	1.302397	0.195310	0.114270
O7	O	1.667871	0.178329	0.114265
Zn8	Zn	1.485133	0.186819	0.150559
Zn9	Zn	1.485141	0.186821	-0.150605
O10	O	1.476777	0.371531	0.114267
C11	C	1.255602	0.194063	-0.000019
C12	C	1.116158	0.190328	-0.000017
C13	C	0.826229	0.414344	-0.000057
C14	C	0.877795	0.531615	-0.000051
C15	C	1.008814	0.535128	-0.000033
C16	C	1.088271	0.421357	-0.000025
C17	C	1.036705	0.304086	-0.000030
C18	C	0.905682	0.300586	-0.000044
C19	C	1.064592	0.073057	-0.000023
C20	C	0.933574	0.069541	-0.000031
C21	C	1.144050	-0.040713	-0.000014
C22	C	1.092484	-0.157987	-0.000010
C23	C	0.961457	-0.161495	-0.000026
C24	C	0.882008	-0.047730	-0.000037
C25	C	1.492249	-0.045195	-0.000025
C26	C	1.488523	-0.186143	-0.000033
C27	C	1.621275	-0.403644	0.000488
C28	C	1.625250	-0.257050	-0.000034
C29	C	1.418535	-0.230877	-0.130560
C30	C	1.415528	-0.377637	-0.130662
C31	C	1.412674	-0.377447	0.129276
C32	C	1.419159	-0.231108	0.130994
C33	C	1.714672	0.179578	-0.000029
C34	C	1.854116	0.183312	-0.000040
C35	C	1.478025	0.418835	-0.000023
C36	C	1.481752	0.559784	-0.000024
N37	N	1.485137	0.186817	0.356096
N38	N	1.485147	0.186814	-0.356141
C39	C	1.654421	0.015786	0.356085
C40	C	1.739071	-0.069725	0.428019
C41	C	1.739084	-0.069726	0.571899
C42	C	1.654435	0.015791	0.643847
C43	C	1.569785	0.101303	0.571913
C44	C	1.569784	0.101297	0.428030
C45	C	1.400497	0.272325	0.571925
C46	C	1.400488	0.272334	0.428045
C47	C	1.315848	0.357843	0.643874
C48	C	1.231201	0.443362	0.571939
C49	C	1.231193	0.443360	0.428051
C50	C	1.315838	0.357845	0.356111
H51	H	0.813086	0.624244	-0.000063
H52	H	1.310017	-0.399562	0.130157
H53	H	1.654440	0.015775	0.761002
N54	N	1.277885	-0.037156	-0.000006
N55	N	1.342606	-0.087170	-0.096346
H56	H	1.437131	-0.084664	-0.096337
N57	N	1.475560	-0.428096	-0.253056
N58	N	1.588260	-0.411670	-0.276220
H59	H	1.630664	-0.447299	-0.362663
H60	H	0.919481	-0.256992	-0.000039
N61	N	1.144756	0.530720	0.645428
N62	N	1.147499	0.648080	0.629370
H63	H	1.086445	0.709780	0.681276
N64	N	1.825519	-0.157075	0.354504
N65	N	1.825501	-0.157069	0.226040
H66	H	1.886551	-0.218761	0.174122
H67	H	1.654430	0.015789	0.238930
H68	H	1.319337	-0.182007	0.138878
N69	N	1.825549	-0.157090	0.645364
N70	N	1.901113	-0.233442	0.581118
H71	H	1.962179	-0.295145	0.633001
N72	N	1.061494	0.654914	0.000003
N73	N	1.131476	0.682638	0.096371
H74	H	1.168683	0.767237	0.096400
N75	N	1.315864	0.357819	0.790842
N76	N	1.391449	0.281465	0.855056
H77	H	1.391462	0.281450	0.958855
H78	H	1.315843	0.357841	0.238956
H79	H	0.775324	-0.050575	-0.000038
H80	H	1.194952	0.424228	-0.000026
N81	N	1.687741	-0.458216	-0.116276
N82	N	1.800770	-0.440188	-0.134721
H83	H	1.847711	-0.478731	-0.217187
N84	N	1.694355	-0.221448	-0.117620
N85	N	1.739787	-0.304918	-0.199561
H86	H	1.788593	-0.279777	-0.282614
H87	H	1.162256	0.512989	0.369490
N88	N	1.693948	-0.220273	0.117346
N89	N	1.739289	-0.302949	0.200225
H90	H	1.787815	-0.276984	0.283127
H91	H	0.719545	0.411495	-0.000047
H92	H	1.674540	-0.445618	0.094096
H93	H	1.313264	-0.400597	-0.136574
H94	H	1.467144	-0.200036	-0.227699
N95	N	1.173662	-0.274176	-0.000018
N96	N	1.290641	-0.271022	-0.000020
H97	H	1.347979	-0.353082	-0.000026
N98	N	1.292274	-0.171359	-0.136679
N99	N	1.257534	-0.102856	-0.237128
H100	H	1.168363	-0.060815	-0.241449
N101	N	1.466885	-0.430724	0.253381
N102	N	1.557102	-0.515615	0.248035
H103	H	1.595401	-0.553247	0.335677
N104	N	1.483054	-0.195236	0.252124
N105	N	1.579319	-0.136769	0.242097
H106	H	1.624450	-0.111428	0.327643
