data_functionalizedCrystal
_audit_creation_method	'MofGen! by Chris Wilmer'
_symmetry_space_group_name_H-M	'P1'
_symmetry_Int_Tables_number	1
_symmetry_cell_setting	triclinic
loop_
_symmetry_equiv_pos_as_xyz
  x,y,z
_cell_length_a	12.759401
_cell_length_b	18.215405
_cell_length_c	12.759393
_cell_angle_alpha	89.962381
_cell_angle_beta	89.980163
_cell_angle_gamma	90.026410
loop_
_atom_site_label
_atom_site_type_symbol
_atom_site_fract_x
_atom_site_fract_y
_atom_site_fract_z
Zn1	Zn	1.606181	-0.292911	-0.593976
Zn2	Zn	1.606044	-0.415997	-0.418278
Zn3	Zn	1.430483	-0.292952	-0.418311
Zn4	Zn	1.430440	-0.415943	-0.593915
O5	O	1.518287	-0.354451	-0.506120
O6	O	1.753183	-0.309243	-0.570681
O7	O	1.582716	-0.399715	-0.271261
O8	O	1.453865	-0.189962	-0.441653
O9	O	1.753083	-0.399674	-0.441596
O10	O	1.582949	-0.189932	-0.570714
O11	O	1.453732	-0.309314	-0.271286
O12	O	1.283456	-0.309262	-0.441594
O13	O	1.453792	-0.399583	-0.740944
O14	O	1.283425	-0.399623	-0.570609
O15	O	1.582908	-0.309191	-0.740989
O16	O	1.582674	-0.518974	-0.441537
O17	O	1.453659	-0.518935	-0.570577
C18	C	1.245319	-0.354442	-0.506099
C19	C	1.128543	-0.354456	-0.506115
C20	C	1.073692	-0.401578	-0.573188
C21	C	0.963968	-0.401581	-0.573209
C22	C	0.963955	-0.307337	-0.439076
C23	C	1.073677	-0.307331	-0.439061
C24	C	1.518176	-0.545657	-0.506070
C25	C	1.518224	-0.627456	-0.506083
C26	C	1.585561	-0.815646	-0.439016
C27	C	1.585608	-0.892505	-0.439041
C28	C	1.451147	-0.892503	-0.573300
C29	C	1.451107	-0.815646	-0.573279
C30	C	1.518312	-0.777219	-0.506131
C31	C	1.518399	-0.930935	-0.506178
C32	C	1.518450	-1.014269	-0.506206
C33	C	1.518263	-0.693880	-0.506104
C34	C	1.792320	-0.354460	-0.506142
C35	C	1.909097	-0.354464	-0.506151
C36	C	1.518360	-0.354376	-0.780154
C37	C	1.518391	-0.354345	-0.896930
C38	C	1.518427	-0.162498	-0.506194
C39	C	1.518486	-0.080699	-0.506225
C40	C	1.451254	-0.307264	-0.951805
C41	C	1.451278	-0.307242	-1.061529
C42	C	1.585587	-0.401382	-1.061495
C43	C	1.585557	-0.401407	-0.951773
C44	C	1.518274	-0.354472	-0.233153
C45	C	1.518446	-0.354296	-0.116377
H46	H	0.919313	-0.439952	-0.627827
O47	O	0.910494	-0.261632	-0.373974
C48	C	0.801888	-0.271728	-0.388387
H49	H	0.786886	-0.328553	-0.422642
H50	H	0.770804	-0.228126	-0.444459
C51	C	0.763932	-0.195098	-0.240038
C52	C	0.745506	-0.264895	-0.282103
H53	H	0.729151	-0.190880	-0.174479
H54	H	0.837102	-0.188294	-0.230330
H55	H	0.738028	-0.158772	-0.286775
H56	H	0.771421	-0.301219	-0.235373
H57	H	0.672339	-0.271705	-0.291801
H58	H	1.640272	-0.439698	-1.106161
H59	H	1.640284	-0.784361	-0.384341
O60	O	1.126804	-0.261530	-0.373802
C61	C	1.054853	-0.219929	-0.314633
H62	H	0.976619	-0.250072	-0.310921
H63	H	1.043233	-0.164070	-0.353256
C64	C	1.193721	-0.172205	-0.207400
C65	C	1.097636	-0.209230	-0.202833
H66	H	1.220113	-0.165601	-0.138438
H67	H	1.242197	-0.200229	-0.247265
H68	H	1.184025	-0.125659	-0.239590
H69	H	1.107336	-0.255778	-0.170655
H70	H	1.049163	-0.181212	-0.162960
H71	H	1.118360	-0.439949	-0.627791
O72	O	1.651100	-0.929842	-0.374025
C73	C	1.718932	-0.974203	-0.433964
H74	H	1.725271	-0.950988	-0.516717
H75	H	1.686538	-1.032487	-0.437540
C76	C	1.820436	-1.003804	-0.281184
C77	C	1.828229	-0.975286	-0.382820
H78	H	1.887854	-1.004475	-0.249635
H79	H	1.774734	-0.973919	-0.240800
H80	H	1.793437	-1.052370	-0.284178
H81	H	1.855215	-0.926718	-0.379824
H82	H	1.873937	-1.005163	-0.423202
H83	H	1.640231	-0.439748	-0.907093
H84	H	1.396430	-0.923800	-0.627968
H85	H	1.396344	-0.784357	-0.627938
H86	H	1.396563	-0.268943	-0.907156
H87	H	1.396607	-0.268905	-1.106203
