data_functionalizedCrystal
_audit_creation_method	'MofGen! by Chris Wilmer'
_symmetry_space_group_name_H-M	'P1'
_symmetry_Int_Tables_number	1
_symmetry_cell_setting	triclinic
loop_
_symmetry_equiv_pos_as_xyz
  x,y,z
_cell_length_a	10.685980
_cell_length_b	13.032868
_cell_length_c	13.034059
_cell_angle_alpha	74.935080
_cell_angle_beta	77.854058
_cell_angle_gamma	77.919775
loop_
_atom_site_label
_atom_site_type_symbol
_atom_site_fract_x
_atom_site_fract_y
_atom_site_fract_z
Zn1	Zn	1.988644	0.385976	-0.766198
Zn2	Zn	1.939787	0.544048	-0.608423
Zn3	Zn	1.749366	0.377229	-0.575166
Zn4	Zn	1.749647	0.576974	-0.775190
O5	O	1.856861	0.471057	-0.681244
O6	O	2.161876	0.396826	-0.755423
O7	O	1.893962	0.504478	-0.454271
O8	O	1.801436	0.228642	-0.582825
O9	O	2.125981	0.512960	-0.639506
O10	O	1.977233	0.235068	-0.723175
O11	O	1.754061	0.381917	-0.429837
O12	O	1.569690	0.413844	-0.591545
O13	O	1.801915	0.569078	-0.923738
O14	O	1.569896	0.560596	-0.738502
O15	O	1.977505	0.428753	-0.917131
O16	O	1.894235	0.698163	-0.648226
O17	O	1.754540	0.722353	-0.770750
C18	C	1.523195	0.489845	-0.662391
C19	C	1.380452	0.497911	-0.654354
C20	C	1.819155	0.749087	-0.714098
C21	C	1.803146	0.868027	-0.728195
C22	C	1.865203	0.909052	-0.673911
C23	C	1.848659	1.031982	-0.688480
C24	C	2.191829	0.452196	-0.700171
C25	C	2.334573	0.444159	-0.708237
C26	C	1.895192	0.503564	-0.960346
C27	C	1.911526	0.517417	-1.079283
C28	C	1.894709	1.191943	-0.648273
C29	C	1.910725	1.073004	-0.634187
C30	C	1.818764	0.438594	-0.403223
C31	C	1.802719	0.424426	-0.284266
C32	C	1.865409	0.478239	-0.243246
C33	C	1.848827	0.463597	-0.120298
H34	H	1.310519	0.550105	-0.602066
H35	H	1.404498	0.391961	-0.760514
H36	H	1.782872	0.406685	-0.064397
Br37	Br	2.021442	0.612289	-0.172444
Br38	Br	1.974188	0.815916	-0.578479
Br39	Br	1.739696	1.125116	-0.783936
H40	H	1.976112	1.017122	-0.576927
H41	H	1.737775	0.923913	-0.785461
H42	H	1.931349	0.535155	-0.299151
H43	H	1.736768	0.367519	-0.228362
