data_functionalizedCrystal
_audit_creation_method	'MofGen! by Chris Wilmer'
_symmetry_space_group_name_H-M	'P1'
_symmetry_Int_Tables_number	1
_symmetry_cell_setting	triclinic
loop_
_symmetry_equiv_pos_as_xyz
  x,y,z
_cell_length_a	19.077105
_cell_length_b	19.077114
_cell_length_c	19.076919
_cell_angle_alpha	85.527261
_cell_angle_beta	90.076224
_cell_angle_gamma	89.883258
loop_
_atom_site_label
_atom_site_type_symbol
_atom_site_fract_x
_atom_site_fract_y
_atom_site_fract_z
Zn1	Zn	1.044040	0.340451	-0.453511
Zn2	Zn	1.544040	0.840451	0.046489
Zn3	Zn	1.043950	0.453600	-0.340356
Zn4	Zn	1.543950	0.953600	0.159644
Zn5	Zn	0.931652	0.331023	-0.330942
Zn6	Zn	1.431652	0.831023	0.169058
Zn7	Zn	0.921790	0.453176	-0.453093
Zn8	Zn	1.421790	0.953176	0.046907
O9	O	0.985358	0.394563	-0.394476
O10	O	1.485358	0.894563	0.105524
O11	O	1.142187	0.359583	-0.442616
O12	O	1.642187	0.859583	0.057384
O13	O	1.033143	0.433573	-0.240631
O14	O	1.533143	0.933573	0.259369
O15	O	0.950725	0.233799	-0.343437
O16	O	1.450725	0.733799	0.156563
O17	O	1.142122	0.442714	-0.359482
O18	O	1.642122	0.942714	0.140518
O19	O	1.033296	0.240725	-0.433488
O20	O	1.533296	0.740725	0.066512
O21	O	0.950638	0.343516	-0.233715
O22	O	1.450638	0.843516	0.266285
O23	O	0.832184	0.343104	-0.343031
O24	O	1.332184	0.843104	0.156969
O25	O	0.933917	0.441990	-0.551624
O26	O	1.433917	0.941990	-0.051624
O27	O	0.824939	0.432849	-0.432774
O28	O	1.324939	0.932849	0.067226
O29	O	1.023733	0.359172	-0.551932
O30	O	1.523733	0.859172	-0.051932
O31	O	1.023581	0.552019	-0.359076
O32	O	1.523581	1.052019	0.140924
O33	O	0.933830	0.551707	-0.441902
O34	O	1.433830	1.051707	0.058098
C35	C	0.803110	0.386908	-0.386836
C36	C	1.303110	0.886908	0.113164
C37	C	0.725142	0.383651	-0.383585
C38	C	1.225142	0.883651	0.116415
C39	C	0.977644	0.577398	-0.401481
C40	C	1.477644	1.077398	0.098519
C41	C	0.974407	0.655619	-0.404504
C42	C	1.474407	1.155619	0.095496
C43	C	0.977735	0.401585	-0.578026
C44	C	1.477735	0.901585	-0.078026
C45	C	0.974487	0.404578	-0.656244
C46	C	1.474487	0.904578	-0.156244
C47	C	0.684758	0.428912	-0.428714
C48	C	1.184758	0.928912	0.071286
C49	C	0.611499	0.425842	-0.425662
C50	C	1.111499	0.925842	0.074338
C51	C	0.578625	0.377515	-0.377477
C52	C	1.078625	0.877515	0.122523
C53	C	0.619014	0.332250	-0.332346
C54	C	1.119014	0.832250	0.167654
C55	C	0.692271	0.335317	-0.335402
C56	C	1.192271	0.835317	0.164598
C57	C	0.359931	0.363323	-0.363339
C58	C	0.859931	0.863323	0.136661
C59	C	0.286668	0.360262	-0.360285
C60	C	0.786668	0.860262	0.139715
C61	C	0.279158	0.453853	-0.453602
C62	C	0.779158	0.953853	0.046398
C63	C	0.352418	0.456918	-0.456651
C64	C	0.852418	0.956918	0.043349
C65	C	0.392800	0.411651	-0.411522
C66	C	0.892800	0.911651	0.088478
N67	N	0.503743	0.374378	-0.374355
N68	N	1.003743	0.874378	0.125645
N69	N	0.467681	0.414785	-0.414648
N70	N	0.967681	0.914785	0.085352
C71	C	1.168318	0.402247	-0.402146
C72	C	1.668318	0.902247	0.097854
C73	C	1.246284	0.405522	-0.405414
C74	C	1.746284	0.905522	0.094586
C75	C	1.019648	0.692509	-0.362840
C76	C	1.519648	1.192509	0.137160
C77	C	1.016607	0.766007	-0.365688
C78	C	1.516607	1.266007	0.134312
C79	C	0.968322	0.802612	-0.410197
C80	C	1.468322	1.302612	0.089803
C81	C	0.923079	0.765717	-0.451866
C82	C	1.423079	1.265717	0.048134
C83	C	0.926123	0.692221	-0.449021
C84	C	1.426123	1.192221	0.050979
C85	C	0.954205	1.022407	-0.423328
C86	C	1.454205	1.522407	0.076672
C87	C	0.951163	1.095908	-0.426168
C88	C	1.451163	1.595908	0.073832
C89	C	1.044693	1.096193	-0.339990
C90	C	1.544693	1.596193	0.160010
C91	C	1.047730	1.022695	-0.337147
C92	C	1.547730	1.522695	0.162853
C93	C	1.002489	0.985806	-0.378818
C94	C	1.502489	1.485806	0.121182
N95	N	0.965211	0.877739	-0.413107
N96	N	1.465211	1.377739	0.086893
N97	N	1.005604	0.910682	-0.375911
N98	N	1.505604	1.410682	0.124089
C99	C	0.993114	1.211015	-0.387468
C100	C	1.493114	1.711015	0.112532
C101	C	0.996404	1.132798	-0.384504
C102	C	1.496404	1.632798	0.115496
C103	C	1.019721	0.362866	-0.693152
C104	C	1.519721	0.862866	-0.193152
C105	C	1.016660	0.365675	-0.766646
C106	C	1.516660	0.865675	-0.266646
C107	C	0.968368	0.410200	-0.803231
C108	C	1.468368	0.910200	-0.303231
C109	C	0.923129	0.451913	-0.766317
C110	C	1.423129	0.951913	-0.266317
C111	C	0.926187	0.449100	-0.692824
C112	C	1.426187	0.949100	-0.192824
C113	C	0.954205	0.423233	-1.023013
C114	C	1.454205	0.923233	-0.523013
C115	C	0.951152	0.426044	-1.096511
C116	C	1.451152	0.926044	-0.596511
C117	C	1.044683	0.339806	-1.096835
C118	C	1.544683	0.839806	-0.596835
C119	C	1.047739	0.337000	-1.023341
C120	C	1.547739	0.837000	-0.523341
C121	C	1.002498	0.378710	-0.986434
C122	C	1.502498	0.878710	-0.486434
N123	N	0.965240	0.413074	-0.878353
N124	N	1.465240	0.913074	-0.378353
N125	N	1.005623	0.375832	-0.911312
N126	N	1.505623	0.875832	-0.411312
C127	C	0.992994	0.387518	-0.211639
C128	C	1.492994	0.887518	0.288361
C129	C	0.996386	0.384333	-0.133419
C130	C	1.496386	0.884333	0.366581
H131	H	0.711519	0.468267	-0.467949
H132	H	1.211519	0.968267	0.032051
C133	C	1.054937	0.248818	-0.786134
C134	C	1.554937	0.748818	-0.286134
C135	C	1.066387	0.319822	-0.807209
C136	C	1.566387	0.819822	-0.307209
H137	H	1.085641	0.220509	-0.811171
H138	H	1.585641	0.720509	-0.311171
H139	H	1.007748	0.237003	-0.795812
H140	H	1.507748	0.737003	-0.295812
H141	H	1.063666	0.240788	-0.737127
H142	H	1.563666	0.740788	-0.237127
H143	H	1.057653	0.327854	-0.856215
H144	H	1.557653	0.827854	-0.356215
H145	H	1.113587	0.331642	-0.797536
H146	H	1.613587	0.831642	-0.297536
H147	H	1.081526	1.126235	-0.306065
H148	H	1.581526	1.626235	0.193935
H149	H	1.053447	0.796040	-0.331760
H150	H	1.553447	1.296040	0.168240
C151	C	0.602834	0.292278	-0.210981
C152	C	1.102834	0.792278	0.289019
C153	C	0.582880	0.279127	-0.279381
C154	C	1.082880	0.779127	0.220619
H155	H	0.580530	0.259478	-0.178283
H156	H	1.080530	0.759478	0.321717
H157	H	0.589262	0.338638	-0.201919
H158	H	1.089262	0.838638	0.298081
H159	H	0.652244	0.287623	-0.206351
H160	H	1.152244	0.787623	0.293649
H161	H	0.533470	0.283786	-0.284013
H162	H	1.033470	0.783786	0.215987
H163	H	0.596448	0.232755	-0.288447
H164	H	1.096448	0.732755	0.211553
H165	H	0.259904	0.320900	-0.321051
H166	H	0.759904	0.820900	0.178949
C167	C	0.359985	0.270505	-0.270795
C168	C	0.859985	0.770505	0.229205
C169	C	0.404313	0.313567	-0.313733
C170	C	0.904313	0.813567	0.186267
H171	H	0.387388	0.239789	-0.240167
H172	H	0.887388	0.739789	0.259833
H173	H	0.331274	0.243621	-0.299280
H174	H	0.831274	0.743621	0.200720
H175	H	0.331237	0.298905	-0.243807
H176	H	0.831237	0.798905	0.256193
H177	H	0.433057	0.285167	-0.340725
H178	H	0.933057	0.785167	0.159275
H179	H	0.433036	0.340453	-0.285244
H180	H	0.933036	0.840453	0.214756
H181	H	1.087048	0.992892	-0.300904
H182	H	1.587048	1.492892	0.199096
H183	H	0.883806	0.488163	-0.796110
H184	H	1.383806	0.988163	-0.296110
C185	C	1.163969	0.311382	-1.123142
C186	C	1.663969	0.811382	-0.623142
C187	C	1.094405	0.293955	-1.137406
C188	C	1.594405	0.793955	-0.637406
H189	H	1.194664	0.283075	-1.148192
H190	H	1.694664	0.783075	-0.648192
H191	H	1.172696	0.303333	-1.074142
H192	H	1.672696	0.803333	-0.574142
H193	H	1.171727	0.359556	-1.137429
H194	H	1.671727	0.859556	-0.637429
H195	H	1.086646	0.245781	-1.123114
H196	H	1.586646	0.745781	-0.623114
H197	H	1.085675	0.301998	-1.186416
H198	H	1.585675	0.801998	-0.686416
H199	H	1.087066	0.300745	-0.993559
H200	H	1.587066	0.800745	-0.493559
C201	C	0.859027	1.088249	-0.511084
C202	C	1.359027	1.588249	-0.011084
C203	C	0.898090	1.136147	-0.475103
C204	C	1.398090	1.636147	0.024897
H205	H	0.826269	1.113093	-0.541296
H206	H	1.326269	1.613093	-0.041296
H207	H	0.834675	1.057322	-0.478176
H208	H	1.334675	1.557322	0.021824
H209	H	0.889648	1.061856	-0.538192
H210	H	1.389648	1.561856	-0.038192
H211	H	0.867470	1.162536	-0.447991
H212	H	1.367470	1.662536	0.052009
H213	H	0.922444	1.167086	-0.508016
H214	H	1.422444	1.667086	-0.008016
H215	H	0.379178	0.496273	-0.495886
H216	H	0.879178	0.996273	0.004114
C217	C	0.943865	0.942950	-0.514380
C218	C	1.443865	1.442950	-0.014380
C219	C	0.904470	0.981869	-0.469130
C220	C	1.404470	1.481869	0.030870
H221	H	0.913156	0.917927	-0.542659
H222	H	1.413156	1.417927	-0.042659
H223	H	0.973048	0.910628	-0.487470
H224	H	1.473048	1.410628	0.012530
H225	H	0.972099	0.973904	-0.543706
H226	H	1.472099	1.473904	-0.043706
H227	H	0.876239	0.950915	-0.439799
H228	H	1.376239	1.450915	0.060201
H229	H	0.875275	1.014195	-0.496042
H230	H	1.375275	1.514195	0.003958
C231	C	0.833448	0.534645	-0.699883
C232	C	1.333448	1.034645	-0.199883
C233	C	0.876476	0.494963	-0.652253
C234	C	1.376476	0.994963	-0.152253
H235	H	0.802763	0.562964	-0.674835
H236	H	1.302763	1.062964	-0.174835
H237	H	0.806714	0.503958	-0.726243
H238	H	1.306714	1.003958	-0.226243
H239	H	0.861690	0.563935	-0.730865
H240	H	1.361690	1.063935	-0.230865
H241	H	0.848234	0.465669	-0.621273
H242	H	1.348234	0.965669	-0.121273
H243	H	0.903212	0.525654	-0.625881
H244	H	1.403212	1.025654	-0.125881
C245	C	0.882936	0.791450	-0.570440
C246	C	1.382936	1.291450	-0.070440
C247	C	0.870005	0.805954	-0.500793
C248	C	1.370005	1.305954	-0.000793
H249	H	0.850171	0.816295	-0.600645
H250	H	1.350171	1.316295	-0.100645
H251	H	0.878271	0.742405	-0.574706
H252	H	1.378271	1.242405	-0.074706
H253	H	0.929134	0.805827	-0.583207
H254	H	1.429134	1.305827	-0.083207
H255	H	0.823809	0.791573	-0.488025
H256	H	1.323809	1.291573	0.011975
H257	H	0.874664	0.855010	-0.496525
H258	H	1.374664	1.355010	0.003475
C259	C	0.858996	0.511001	-1.088812
C260	C	1.358996	1.011001	-0.588812
C261	C	0.898063	0.474986	-1.136726
C262	C	1.398063	0.974986	-0.636726
H263	H	0.826221	0.541211	-1.113641
H264	H	1.326221	1.041211	-0.613641
H265	H	0.889607	0.538107	-1.062458
H266	H	1.389607	1.038107	-0.562458
H267	H	0.834655	0.478108	-1.057849
H268	H	1.334655	0.978108	-0.557849
H269	H	0.922408	0.507880	-1.167686
H270	H	1.422408	1.007880	-0.667686
H271	H	0.867447	0.447879	-1.163092
H272	H	1.367447	0.947879	-0.663092
C273	C	0.943875	0.514323	-0.943584
C274	C	1.443875	1.014323	-0.443584
C275	C	0.904475	0.469085	-0.982457
C276	C	1.404475	0.969085	-0.482457
H277	H	0.913169	0.542629	-0.918544
H278	H	1.413169	1.042629	-0.418544
H279	H	0.972103	0.543618	-0.974563
H280	H	1.472103	1.043618	-0.474563
H281	H	0.973064	0.487400	-0.911271
H282	H	1.473064	0.987400	-0.411271
H283	H	0.875289	0.496009	-1.014773
H284	H	1.375289	0.996009	-0.514773
H285	H	0.876234	0.439787	-0.951475
H286	H	1.376234	0.939787	-0.451475
H287	H	0.725151	0.298457	-0.298657
H288	H	1.225151	0.798457	0.201343
C289	C	0.611435	0.518679	-0.518188
C290	C	1.111435	1.018679	-0.018188
C291	C	0.567110	0.475605	-0.475259
C292	C	1.067110	0.975605	0.024741
H293	H	0.584029	0.549406	-0.548802
H294	H	1.084029	1.049406	-0.048802
H295	H	0.640179	0.490294	-0.545182
H296	H	1.140179	0.990294	-0.045182
H297	H	0.640149	0.545558	-0.489690
H298	H	1.140149	1.045558	0.010310
H299	H	0.538399	0.448722	-0.503756
H300	H	1.038399	0.948722	-0.003756
H301	H	0.538353	0.503994	-0.448261
H302	H	1.038353	1.003994	0.051739
C303	C	0.889265	0.579428	-0.482928
C304	C	1.389265	1.079428	0.017072
C305	C	0.876394	0.651667	-0.494820
C306	C	1.376394	1.151667	0.005180
H307	H	0.858567	0.554395	-0.511209
H308	H	1.358567	1.054395	-0.011209
H309	H	0.881495	0.565177	-0.434750
H310	H	1.381495	1.065177	0.065250
H311	H	0.936461	0.569721	-0.494773
H312	H	1.436461	1.069721	0.005227
H313	H	0.829199	0.661375	-0.482970
H314	H	1.329199	1.161375	0.017030
H315	H	0.884158	0.665923	-0.543009
H316	H	1.384158	1.165923	-0.043009
C317	C	0.163525	0.490707	-0.490360
C318	C	0.663525	0.990707	0.009640
C319	C	0.234768	0.503603	-0.503212
C320	C	0.734768	1.003603	-0.003212
H321	H	0.136123	0.521418	-0.520993
H322	H	0.636123	1.021418	-0.020993
H323	H	0.153045	0.498625	-0.442959
H324	H	0.653045	0.998625	0.057041
H325	H	0.153091	0.443333	-0.498424
H326	H	0.653091	0.943333	0.001576
H327	H	0.245204	0.550975	-0.495143
H328	H	0.745204	1.050975	0.004857
H329	H	0.245253	0.495690	-0.550624
H330	H	0.745253	0.995690	-0.050624
C331	C	1.111794	0.700181	-0.277948
C332	C	1.611794	1.200181	0.222052
C333	C	1.072725	0.652276	-0.313913
C334	C	1.572725	1.152276	0.186087
H335	H	1.144565	0.675343	-0.247746
H336	H	1.644565	1.175343	0.252254
H337	H	1.081184	0.726572	-0.250837
H338	H	1.581184	1.226572	0.249163
H339	H	1.136138	0.731111	-0.310870
H340	H	1.636138	1.231111	0.189130
H341	H	1.048377	0.621350	-0.280991
H342	H	1.548377	1.121350	0.219009
H343	H	1.103340	0.625874	-0.341025
H344	H	1.603340	1.125874	0.158975
C345	C	1.036906	0.265455	-0.607297
C346	C	1.536906	0.765455	-0.107297
C347	C	1.072803	0.313921	-0.652942
C348	C	1.572803	0.813921	-0.152942
H349	H	1.069678	0.235239	-0.582472
H350	H	1.569678	0.735239	-0.082472
H351	H	1.006294	0.238357	-0.633657
H352	H	1.506294	0.738357	-0.133657
H353	H	1.010409	0.289904	-0.574797
H354	H	1.510409	0.789904	-0.074797
H355	H	1.099296	0.289473	-0.685444
H356	H	1.599296	0.789473	-0.185444
H357	H	1.103427	0.341022	-0.626580
H358	H	1.603427	0.841022	-0.126580
