data_functionalizedCrystal
_audit_creation_method	'MofGen! by Chris Wilmer'
_symmetry_space_group_name_H-M	'P1'
_symmetry_Int_Tables_number	1
_symmetry_cell_setting	triclinic
loop_
_symmetry_equiv_pos_as_xyz
  x,y,z
_cell_length_a	23.532356
_cell_length_b	23.532361
_cell_length_c	17.766277
_cell_angle_alpha	89.994914
_cell_angle_beta	89.998234
_cell_angle_gamma	97.171287
loop_
_atom_site_label
_atom_site_type_symbol
_atom_site_fract_x
_atom_site_fract_y
_atom_site_fract_z
O1	O	-0.069011	0.755268	-0.062506
O2	O	-0.079042	0.589399	-0.062522
O3	O	0.008908	0.677350	-0.062524
O4	O	-0.156961	0.667316	-0.062504
O5	O	0.008912	0.677335	0.062664
O6	O	-0.079038	0.589384	0.062666
O7	O	-0.069007	0.755253	0.062683
Cu8	Cu	-0.074022	0.672317	0.074105
Cu9	Cu	-0.074027	0.672335	-0.073945
O10	O	-0.156957	0.667301	0.062685
C11	C	-0.078789	0.568175	0.000070
C12	C	-0.078034	0.504956	0.000063
C13	C	-0.074732	0.231722	-0.068173
C14	C	-0.075447	0.291121	-0.068175
O15	O	-0.075800	0.321854	-0.126209
N16	N	-0.075806	0.320819	0.000066
C17	C	-0.075444	0.291114	0.068312
O18	O	-0.075814	0.321828	0.126356
C19	C	-0.074725	0.231716	0.068313
C20	C	-0.074372	0.202021	0.000068
C21	C	-0.074379	0.202027	-0.136413
C22	C	-0.073665	0.142631	-0.136411
C23	C	-0.073305	0.112930	-0.068169
C24	C	-0.073658	0.142625	0.000070
C25	C	-0.074359	0.202013	0.136559
C26	C	-0.073640	0.142611	0.136555
C27	C	-0.073287	0.112916	0.068309
C28	C	-0.072584	0.053529	0.068314
N29	N	-0.072226	0.023832	0.000073
C30	C	-0.072586	0.053532	-0.068168
C31	C	-0.076953	0.415854	0.068305
C32	C	-0.077676	0.475250	0.068305
C33	C	-0.077678	0.475254	-0.068183
C34	C	-0.076959	0.415856	-0.068182
C35	C	-0.076594	0.386157	0.000065
C36	C	-0.071087	-0.071203	-0.068159
C37	C	-0.070376	-0.130604	-0.068151
C38	C	-0.070371	-0.130602	0.068337
C39	C	-0.071085	-0.071206	0.068329
C40	C	-0.071441	-0.041508	0.000075
O41	O	-0.072229	0.022758	0.126319
O42	O	-0.072208	0.022812	-0.126202
C43	C	-0.178176	0.667560	0.000093
C44	C	-0.241394	0.668314	0.000101
C45	C	-0.633410	0.673060	-0.068175
C46	C	-0.692809	0.673777	-0.068179
O47	O	-0.723529	0.674175	-0.126214
N48	N	-0.722515	0.674125	0.000061
C49	C	-0.692818	0.673760	0.068309
O50	O	-0.723539	0.674122	0.126352
C51	C	-0.633419	0.673047	0.068312
C52	C	-0.603717	0.672694	0.000067
C53	C	-0.603707	0.672708	-0.136414
C54	C	-0.544312	0.671989	-0.136410
C55	C	-0.514619	0.671623	-0.068167
C56	C	-0.544322	0.671976	0.000071
C57	C	-0.603722	0.672687	0.136559
C58	C	-0.544320	0.671974	0.136555
C59	C	-0.514617	0.671621	0.068311
C60	C	-0.455234	0.670891	0.068318
N61	N	-0.425528	0.670544	0.000078
C62	C	-0.455221	0.670910	-0.068164
C63	C	-0.817559	0.675259	0.068298
C64	C	-0.876957	0.675969	0.068296
C65	C	-0.876944	0.675987	-0.068192
C66	C	-0.817545	0.675273	-0.068189
C67	C	-0.787853	0.674912	0.000058
C68	C	-0.330487	0.669401	-0.068151
C69	C	-0.271087	0.668680	-0.068141
C70	C	-0.271105	0.668665	0.068346
C71	C	-0.330500	0.669383	0.068337
C72	C	-0.360189	0.669752	0.000082
O73	O	-0.424475	0.670496	0.126323
O74	O	-0.424491	0.670555	-0.126198
C75	C	0.030127	0.677092	0.000066
C76	C	0.093345	0.676338	0.000053
C77	C	-0.069260	0.776477	0.000089
C78	C	-0.070015	0.839695	0.000091
N79	N	-0.074018	0.672308	0.178236
N80	N	-0.074027	0.672348	-0.178075
C81	C	-0.035093	0.711265	0.217622
C82	C	-0.035090	0.711269	0.296423
C83	C	-0.074022	0.672320	0.335836
C84	C	-0.112951	0.633355	0.296441
C85	C	-0.112949	0.633349	0.217640
C86	C	-0.125936	0.664555	0.460680
C87	C	-0.125939	0.664565	0.539479
C88	C	-0.074029	0.672335	0.578882
C89	C	-0.022115	0.680108	0.539478
C90	C	-0.022112	0.680102	0.460677
C91	C	-0.074029	0.672322	0.421282
C92	C	-0.035098	0.711298	0.703714
C93	C	-0.035094	0.711298	0.782518
C94	C	-0.112960	0.633387	0.782533
C95	C	-0.112959	0.633385	0.703732
C96	C	-0.074028	0.672344	0.664327
H97	H	-0.076663	0.391675	0.123883
H98	H	-0.793388	0.674960	0.123876
Br99	Br	0.048339	0.690661	0.592943
H100	H	-0.144649	0.601642	0.328534
H101	H	-0.144658	0.601672	0.814623
Br102	Br	0.017742	0.764167	0.835975
Br103	Br	-0.917262	0.676431	0.160916
Br104	Br	-0.165779	0.580474	0.164183
Br105	Br	-0.644019	0.673157	0.229182
Br106	Br	-0.069885	-0.170922	0.160946
Br107	Br	0.017738	0.764168	0.650234
H108	H	-0.073347	0.118432	0.192130
H109	H	-0.246919	0.668365	0.123907
Br110	Br	0.017742	0.764134	0.164143
H111	H	-0.144658	0.601664	0.671661
H112	H	-0.070090	-0.154779	-0.123726
Br113	Br	-0.196393	0.654023	0.592949
H114	H	-0.354688	0.669648	0.123906
H115	H	-0.168209	0.658217	0.428604
Br116	Br	0.017743	0.764143	0.349885
Br117	Br	-0.074866	0.242324	-0.229039
H118	H	0.020158	0.686429	0.428597
Br119	Br	-0.504026	0.671488	0.229182
H120	H	-0.074645	0.226181	0.192132
Br121	Br	-0.071573	-0.030906	0.160948
H122	H	-0.071378	-0.047030	-0.123737
H123	H	-0.073375	0.118459	-0.191983
H124	H	-0.076672	0.391682	-0.123753
H125	H	-0.077971	0.499447	-0.123749
H126	H	-0.901131	0.676283	-0.123759
H127	H	-0.077973	0.499421	0.123877
H128	H	-0.246906	0.668390	-0.123716
H129	H	-0.354653	0.669702	-0.123731
H130	H	-0.520133	0.671706	-0.191981
H131	H	-0.627876	0.673007	-0.191988
H132	H	-0.793366	0.674985	-0.123760
