data_functionalizedCrystal
_audit_creation_method	'MofGen! by Chris Wilmer'
_symmetry_space_group_name_H-M	'P1'
_symmetry_Int_Tables_number	1
_symmetry_cell_setting	triclinic
loop_
_symmetry_equiv_pos_as_xyz
  x,y,z
_cell_length_a	13.897449
_cell_length_b	10.686203
_cell_length_c	10.686551
_cell_angle_alpha	99.081336
_cell_angle_beta	85.604174
_cell_angle_gamma	94.364297
loop_
_atom_site_label
_atom_site_type_symbol
_atom_site_fract_x
_atom_site_fract_y
_atom_site_fract_z
Zn1	Zn	1.540992	0.450119	-0.679040
Zn2	Zn	1.540906	0.678698	-0.450550
Zn3	Zn	1.368188	0.466478	-0.466802
Zn4	Zn	1.391173	0.662320	-0.662751
O5	O	1.460315	0.564404	-0.564786
O6	O	1.675963	0.480449	-0.648745
O7	O	1.508339	0.664247	-0.275076
O8	O	1.381527	0.286686	-0.508574
O9	O	1.675900	0.648385	-0.480875
O10	O	1.508486	0.274667	-0.664504
O11	O	1.381444	0.508330	-0.287016
O12	O	1.236254	0.492448	-0.492779
O13	O	1.420702	0.620470	-0.842542
O14	O	1.253141	0.636332	-0.636743
O15	O	1.530773	0.464567	-0.854509
O16	O	1.530627	0.854147	-0.465080
O17	O	1.420619	0.842114	-0.620984
C18	C	1.209698	0.564389	-0.564758
C19	C	1.102486	0.564411	-0.564774
C20	C	1.478135	0.894184	-0.539529
C21	C	1.485850	1.035262	-0.528766
C22	C	0.906193	0.564413	-0.564807
C23	C	1.015424	0.564408	-0.564785
C24	C	1.711910	0.564419	-0.564814
C25	C	1.819125	0.564426	-0.564826
C26	C	1.478311	0.538867	-0.895870
C27	C	1.485980	0.527985	-1.036959
C28	C	1.442443	1.233333	-0.590182
C29	C	1.434806	1.092247	-0.601039
C30	C	1.442439	0.589749	-0.234996
C31	C	1.434937	0.600274	-0.093935
H32	H	1.535448	1.094410	-0.458643
H33	H	1.385373	0.670492	-1.034778
O34	O	1.375493	1.021770	-0.684553
C35	C	1.212532	0.976442	-0.749102
C36	C	1.279590	1.056330	-0.654416
H37	H	1.134984	1.004372	-0.724786
H38	H	1.216563	0.871400	-0.743176
H39	H	1.236427	0.994471	-0.849509
H40	H	1.255742	1.038409	-0.553966
H41	H	1.275552	1.161345	-0.660452
H42	H	1.535555	0.457771	-1.096123
