data_functionalizedCrystal
_audit_creation_method	'MofGen! by Chris Wilmer'
_symmetry_space_group_name_H-M	'P1'
_symmetry_Int_Tables_number	1
_symmetry_cell_setting	triclinic
loop_
_symmetry_equiv_pos_as_xyz
  x,y,z
_cell_length_a	6.817900
_cell_length_b	16.417823
_cell_length_c	16.417824
_cell_angle_alpha	95.404945
_cell_angle_beta	103.385545
_cell_angle_gamma	103.385419
loop_
_atom_site_label
_atom_site_type_symbol
_atom_site_fract_x
_atom_site_fract_y
_atom_site_fract_z
V1	V	-4.025027	-0.116568	-0.261445
V2	V	-3.691694	0.216765	0.071889
V3	V	-3.358361	0.550098	0.405222
O4	O	-4.013072	0.004899	-0.256170
O5	O	-3.679738	0.338232	0.077164
O6	O	-3.346405	0.671566	0.410497
O7	O	-3.976078	-0.230460	-0.259943
O8	O	-3.642744	0.102874	0.073390
O9	O	-3.309411	0.436207	0.406723
O10	O	-3.976089	-0.115084	-0.375339
O11	O	-3.642756	0.218250	-0.042005
O12	O	-3.309422	0.551583	0.291328
O13	O	-4.013060	-0.111276	-0.139975
O14	O	-3.679727	0.222057	0.193358
O15	O	-3.346393	0.555391	0.526691
V16	V	-4.508796	-0.102003	-0.246881
V17	V	-4.175463	0.231330	0.086452
V18	V	-3.842130	0.564664	0.419786
O19	O	-4.285746	-0.148519	-0.293391
O20	O	-3.952413	0.184815	0.039942
O21	O	-3.619080	0.518148	0.373276
O22	O	-4.698275	-0.070053	-0.214935
O23	O	-4.364942	0.263281	0.118399
O24	O	-4.031608	0.596614	0.451732
O25	O	-4.334540	0.011888	-0.248382
O26	O	-4.001207	0.345222	0.084951
O27	O	-3.667873	0.678555	0.418284
O28	O	-4.638149	-0.223470	-0.252156
O29	O	-4.304816	0.109863	0.081177
O30	O	-3.971482	0.443196	0.414511
O31	O	-4.638161	-0.107296	-0.368350
O32	O	-4.304827	0.226038	-0.035017
O33	O	-3.971494	0.559371	0.298316
O34	O	-4.334528	-0.103488	-0.132987
O35	O	-4.001195	0.229846	0.200347
O36	O	-3.667862	0.563179	0.533680
C37	C	-3.820962	-0.258214	-0.255893
C38	C	-3.487629	0.075119	0.077441
C39	C	-3.154295	0.408452	0.410774
C40	C	-3.862223	-0.351324	-0.255424
C41	C	-3.528889	-0.017991	0.077909
C42	C	-3.195556	0.315343	0.411242
C43	C	-3.956184	-0.640885	-0.177216
C44	C	-3.622851	-0.307552	0.156118
C45	C	-3.289518	0.025782	0.489451
C46	C	-3.917388	-0.553396	-0.177642
C47	C	-3.584055	-0.220063	0.155691
C48	C	-3.250722	0.113271	0.489024
C49	C	-3.997013	-0.577699	-0.331119
C50	C	-3.663679	-0.244365	0.002215
C51	C	-3.330346	0.088968	0.335548
C52	C	-4.035794	-0.665185	-0.330691
C53	C	-3.702460	-0.331852	0.002642
C54	C	-3.369127	0.001481	0.335976
C55	C	-4.015387	-0.696776	-0.253737
C56	C	-3.682054	-0.363443	0.079596
C57	C	-3.348721	-0.030110	0.412929
C58	C	-3.937810	-0.521800	-0.254592
C59	C	-3.604477	-0.188467	0.078742
C60	C	-3.271144	0.144866	0.412075
C61	C	-3.895746	-0.426941	-0.255055
C62	C	-3.562413	-0.093608	0.078279
C63	C	-3.229079	0.239725	0.411612
C64	C	-4.057450	-0.791641	-0.253274
C65	C	-3.724117	-0.458308	0.080060
C66	C	-3.390784	-0.124975	0.413393
C67	C	-3.820976	-0.111040	-0.403090
C68	C	-3.487642	0.222294	-0.069757
C69	C	-3.154309	0.555627	0.263576
C70	C	-3.862243	-0.110579	-0.496201
C71	C	-3.528909	0.222754	-0.162868
C72	C	-3.195576	0.556087	0.170466
C73	C	-3.997038	-0.186240	-0.722575
C74	C	-3.663705	0.147094	-0.389241
C75	C	-3.330372	0.480427	-0.055908
C76	C	-4.035828	-0.185802	-0.810062
C77	C	-3.702495	0.147532	-0.476728
C78	C	-3.369161	0.480865	-0.143395
C79	C	-3.956160	-0.032324	-0.785739
C80	C	-3.622827	0.301009	-0.452405
C81	C	-3.289493	0.634342	-0.119072
C82	C	-3.917386	-0.032764	-0.698254
C83	C	-3.584053	0.300570	-0.364920
C84	C	-3.250719	0.633903	-0.031587
C85	C	-3.937817	-0.109724	-0.666674
C86	C	-3.604484	0.223610	-0.333341
C87	C	-3.271151	0.556943	-0.000007
C88	C	-4.015381	-0.108846	-0.841646
C89	C	-3.682047	0.224487	-0.508313
C90	C	-3.348714	0.557820	-0.174980
C91	C	-4.057438	-0.108371	-0.936504
C92	C	-3.724105	0.224963	-0.603170
C93	C	-3.390771	0.558296	-0.269837
C94	C	-3.895761	-0.110200	-0.571811
C95	C	-3.562428	0.223134	-0.238478
C96	C	-3.229095	0.556467	0.094856
C97	C	-4.152997	0.039639	-0.252430
C98	C	-3.819664	0.372972	0.080903
C99	C	-3.486331	0.706305	0.414236
C100	C	-4.090975	0.132747	-0.252904
C101	C	-3.757641	0.466081	0.080429
C102	C	-3.424308	0.799414	0.413762
C103	C	-4.152984	-0.107535	-0.105231
C104	C	-3.819651	0.225799	0.228102
C105	C	-3.486317	0.559132	0.561436
C106	C	-4.090955	-0.107991	-0.012119
C107	C	-3.757622	0.225343	0.321214
C108	C	-3.424289	0.558676	0.654547
H109	H	-3.869178	-0.507892	-0.115331
H110	H	-3.535845	-0.174559	0.218003
H111	H	-3.202512	0.158775	0.551336
H112	H	-3.939559	-0.666603	-0.114555
H113	H	-3.606226	-0.333269	0.218778
H114	H	-3.272892	0.000064	0.552112
H115	H	-4.013625	-0.551966	-0.393772
H116	H	-3.680292	-0.218633	-0.060438
H117	H	-3.346959	0.114700	0.272895
O118	O	-4.019078	-0.269241	-0.688509
O119	O	-3.685745	0.064092	-0.355175
O120	O	-3.352412	0.397425	-0.021842
H121	H	-4.181767	-0.309083	-0.714319
H122	H	-3.848434	0.024251	-0.380986
H123	H	-3.515101	0.357584	-0.047653
H124	H	-3.939527	0.030334	-0.811462
H125	H	-3.606193	0.363667	-0.478128
H126	H	-3.272860	0.697000	-0.144795
O127	O	-4.099672	-0.725479	-0.413229
O128	O	-3.766339	-0.392146	-0.079895
O129	O	-3.433006	-0.058812	0.253438
H130	H	-4.107384	-0.688817	-0.466812
H131	H	-3.774050	-0.355483	-0.133479
H132	H	-3.440717	-0.022150	0.199855
O133	O	-4.099653	-0.268327	-0.870357
O134	O	-3.766319	0.065006	-0.537023
O135	O	-3.432986	0.398339	-0.203690
H136	H	-4.107314	-0.321911	-0.833695
H137	H	-3.773980	0.011422	-0.500362
H138	H	-3.440647	0.344755	-0.167029
H139	H	-3.869167	0.029548	-0.652737
H140	H	-3.535834	0.362882	-0.319403
H141	H	-3.202500	0.696215	0.013930
