data_functionalizedCrystal
_audit_creation_method	'MofGen! by Chris Wilmer'
_symmetry_space_group_name_H-M	'P1'
_symmetry_Int_Tables_number	1
_symmetry_cell_setting	triclinic
loop_
_symmetry_equiv_pos_as_xyz
  x,y,z
_cell_length_a	12.759400
_cell_length_b	12.759401
_cell_length_c	12.759393
_cell_angle_alpha	90.018496
_cell_angle_beta	90.031564
_cell_angle_gamma	90.014845
loop_
_atom_site_label
_atom_site_type_symbol
_atom_site_fract_x
_atom_site_fract_y
_atom_site_fract_z
Zn1	Zn	-0.418200	1.606255	0.593981
Zn2	Zn	0.081800	2.106255	1.093981
Zn3	Zn	-0.593919	1.606150	0.418301
Zn4	Zn	-0.093919	2.106150	0.918301
Zn5	Zn	-0.418255	1.430557	0.418321
Zn6	Zn	0.081745	1.930557	0.918321
Zn7	Zn	-0.593838	1.430546	0.593943
Zn8	Zn	-0.093838	1.930546	1.093943
O9	O	-0.506053	1.518377	0.506137
O10	O	-0.006053	2.018377	1.006137
O11	O	-0.441520	1.753262	0.570685
O12	O	0.058480	2.253262	1.070685
O13	O	-0.570673	1.582818	0.271283
O14	O	-0.070673	2.082818	0.771283
O15	O	-0.271226	1.453913	0.441647
O16	O	0.228774	1.953913	0.941647
O17	O	-0.570620	1.753185	0.441614
O18	O	-0.070620	2.253185	0.941614
O19	O	-0.271186	1.582998	0.570704
O20	O	0.228814	2.082998	1.070704
O21	O	-0.441614	1.453811	0.271297
O22	O	0.058386	1.953811	0.771297
O23	O	-0.441535	1.283535	0.441609
O24	O	0.058465	1.783535	0.941609
O25	O	-0.570482	1.453894	0.740969
O26	O	-0.070482	1.953894	1.240969
O27	O	-0.570536	1.283527	0.570638
O28	O	-0.070536	1.783527	1.070638
O29	O	-0.441442	1.582987	0.740997
O30	O	0.058558	2.082987	1.240997
O31	O	-0.740929	1.582807	0.441577
O32	O	-0.240929	2.082807	0.941577
O33	O	-0.740870	1.453791	0.570620
O34	O	-0.240870	1.953791	1.070620
C35	C	-0.506033	1.245410	0.506122
C36	C	-0.006033	1.745410	1.006122
C37	C	-0.506050	1.128633	0.506141
C38	C	-0.006050	1.628633	1.006141
C39	C	-0.573328	1.073794	0.573215
C40	C	-0.073328	1.573794	1.073215
C41	C	-0.573342	0.964070	0.573227
C42	C	-0.073342	1.464070	1.073227
C43	C	-0.438796	0.964034	0.439081
C44	C	0.061204	1.464034	0.939081
C45	C	-0.438778	1.073756	0.439075
C46	C	0.061222	1.573756	0.939075
C47	C	-0.640600	1.128672	0.640281
C48	C	-0.140600	1.628672	1.140281
C49	C	-0.707885	1.073833	0.707360
C50	C	-0.207885	1.573833	1.207360
C51	C	-0.707898	0.964109	0.707371
C52	C	-0.207898	1.464109	1.207371
C53	C	-0.640627	0.909224	0.640304
C54	C	-0.140627	1.409224	1.140304
C55	C	-0.779020	1.518315	0.506115
C56	C	-0.279020	2.018315	1.006115
C57	C	-0.895797	1.518384	0.506140
C58	C	-0.395797	2.018384	1.006140
C59	C	-0.950655	1.585637	0.439022
C60	C	-0.450655	2.085637	0.939022
C61	C	-1.060379	1.585702	0.439054
C62	C	-0.560379	2.085702	0.939054
C63	C	-1.060377	1.451252	0.573327
C64	C	-0.560377	1.951252	1.073327
C65	C	-0.950655	1.451193	0.573299
C66	C	-0.450655	1.951193	1.073299
C67	C	-0.895797	1.652828	0.371864
C68	C	-0.395797	2.152828	0.871864
C69	C	-0.950655	1.720086	0.304739
C70	C	-0.450655	2.220086	0.804739
C71	C	-1.060379	1.720150	0.304771
C72	C	-0.560379	2.220150	0.804771
C73	C	-1.115245	1.652957	0.371929
C74	C	-0.615245	2.152957	0.871929
C75	C	-0.232019	1.518468	0.506182
C76	C	0.267981	2.018468	1.006182
C77	C	-0.115243	1.518507	0.506201
C78	C	0.384757	2.018507	1.006201
C79	C	-0.505947	1.518451	0.780170
C80	C	-0.005947	2.018451	1.280170
C81	C	-0.505902	1.518482	0.896947
C82	C	-0.005902	2.018482	1.396947
C83	C	-0.506073	1.792410	0.506152
C84	C	-0.006073	2.292410	1.006152
C85	C	-0.506082	1.909187	0.506158
C86	C	-0.006082	2.409187	1.006158
C87	C	-0.506083	1.518364	0.233169
C88	C	-0.006083	2.018364	0.733169
C89	C	-0.505832	1.518537	0.116393
C90	C	-0.005832	2.018537	0.616393
C91	C	-0.438704	1.585710	0.951825
C92	C	0.061296	2.085710	1.451825
C93	C	-0.438666	1.585735	1.061549
C94	C	0.061334	2.085735	1.561549
C95	C	-0.573033	1.451301	1.061507
C96	C	-0.073033	1.951301	1.561507
C97	C	-0.573064	1.451272	0.951785
C98	C	-0.073064	1.951272	1.451785
C99	C	-0.371541	1.652920	0.896987
C100	C	0.128459	2.152920	1.396987
C101	C	-0.304339	1.720155	0.951866
C102	C	0.195661	2.220155	1.451866
C103	C	-0.304301	1.720180	1.061590
C104	C	0.195699	2.220180	1.561590
C105	C	-0.371465	1.652970	1.116436
C106	C	0.128535	2.152970	1.616436
H107	H	-0.762647	1.118528	0.761970
H108	H	-0.262647	1.618528	1.261970
H109	H	-1.204589	1.653024	0.371958
H110	H	-0.704589	2.153024	0.871958
H111	H	-0.905977	1.774798	0.250068
H112	H	-0.405977	2.274798	0.750068
H113	H	-0.384028	0.919337	0.384477
H114	H	0.115972	1.419337	0.884477
C115	C	-0.781914	0.903789	0.781155
C116	C	-0.281914	1.403789	1.281155
N117	N	-0.837673	0.858359	0.836724
N118	N	-0.337673	1.358359	1.336724
C119	C	-0.640645	0.788523	0.640321
C120	C	-0.140645	1.288523	1.140321
N121	N	-0.640664	0.697613	0.640330
N122	N	-0.140664	1.197613	1.140330
H123	H	-0.640599	1.218015	0.640277
H124	H	-0.140599	1.718015	1.140277
C125	C	-0.230374	1.794134	1.121953
C126	C	0.269626	2.294134	1.621953
N127	N	-0.174694	1.849843	1.167417
N128	N	0.325306	2.349843	1.667417
H129	H	-0.249649	1.774867	0.907203
H130	H	0.250351	2.274867	1.407203
H131	H	-0.627767	1.396513	0.907102
H132	H	-0.127767	1.896513	1.407102
C133	C	-1.120734	1.377335	0.647184
C134	C	-0.620734	1.877335	1.147184
N135	N	-1.166195	1.321655	0.702810
N136	N	-0.666195	1.821655	1.202810
C137	C	-0.371414	1.652997	1.237136
C138	C	0.128586	2.152997	1.737136
N139	N	-0.371378	1.653021	1.328046
N140	N	0.128622	2.153021	1.828046
C141	C	-0.890308	1.377196	0.647117
C142	C	-0.390308	1.877196	1.147117
N143	N	-0.844854	1.321456	0.702716
N144	N	-0.344854	1.821456	1.202716
H145	H	-0.627714	1.396582	1.106171
H146	H	-0.127714	1.896582	1.606171
C147	C	-0.364773	1.134082	0.365287
C148	C	0.135227	1.634082	0.865287
N149	N	-0.309028	1.179520	0.309709
N150	N	0.190972	1.679520	0.809709
C151	C	-0.371573	1.652896	0.776289
C152	C	0.128427	2.152896	1.276289
N153	N	-0.371598	1.652876	0.685378
N154	N	0.128402	2.152876	1.185378
C155	C	-0.775098	1.652778	0.371837
C156	C	-0.275098	2.152778	0.871837
N157	N	-0.684188	1.652745	0.371822
N158	N	-0.184188	2.152745	0.871822
H159	H	-1.105041	1.774922	0.250123
H160	H	-0.605041	2.274922	0.750123
