data_functionalizedCrystal
_audit_creation_method	'MofGen! by Chris Wilmer'
_symmetry_space_group_name_H-M	'P1'
_symmetry_Int_Tables_number	1
_symmetry_cell_setting	triclinic
loop_
_symmetry_equiv_pos_as_xyz
  x,y,z
_cell_length_a	13.033290
_cell_length_b	13.032868
_cell_length_c	13.032268
_cell_angle_alpha	76.714099
_cell_angle_beta	90.922343
_cell_angle_gamma	105.189915
loop_
_atom_site_label
_atom_site_type_symbol
_atom_site_fract_x
_atom_site_fract_y
_atom_site_fract_z
Zn1	Zn	-1.451086	0.335832	-0.818117
Zn2	Zn	-1.450952	0.490931	-0.663043
Zn3	Zn	-1.301752	0.330127	-0.623667
Zn4	Zn	-1.250859	0.535915	-0.817978
O5	O	-1.363662	0.423201	-0.730701
O6	O	-1.597306	0.339968	-0.814084
O7	O	-1.452403	0.448386	-0.511601
O8	O	-1.342917	0.179852	-0.633041
O9	O	-1.597207	0.453918	-0.700151
O10	O	-1.452632	0.184043	-0.775903
O11	O	-1.342787	0.330245	-0.482671
O12	O	-1.148764	0.373864	-0.632905
O13	O	-1.256176	0.530587	-0.964216
O14	O	-1.111373	0.525055	-0.775665
O15	O	-1.403283	0.383587	-0.964318
O16	O	-1.403054	0.647930	-0.700016
O17	O	-1.256046	0.680980	-0.813846
C18	C	-1.092151	0.453723	-0.699998
C19	C	-0.975989	0.466810	-0.686890
C20	C	-1.324038	0.703616	-0.761215
C21	C	-1.307177	0.823573	-0.774314
C22	C	-0.804166	0.429896	-0.723988
C23	C	-0.924224	0.416372	-0.737534
C24	C	-0.636236	0.392552	-0.761516
C25	C	-0.752397	0.379466	-0.774625
C26	C	-1.372446	0.860667	-0.723887
C27	C	-1.355021	0.984649	-0.737425
C28	C	-1.324068	0.462741	-1.003240
C29	C	-1.307195	0.479591	-1.119380
C30	C	-1.403434	1.141694	-0.700080
C31	C	-1.420298	1.021738	-0.686991
C32	C	-1.372458	0.414370	-1.171209
C33	C	-1.355020	0.431784	-1.291245
C34	C	-1.403174	0.383730	-0.459221
C35	C	-1.420292	0.366554	-0.343072
H36	H	-0.759605	0.483078	-0.670601
O37	O	-1.225243	0.895287	-0.837859
C38	C	-1.265789	0.963488	-0.919193
H39	H	-1.348027	0.965954	-0.893177
H40	H	-1.272014	0.930031	-0.993219
C41	C	-1.089574	1.076822	-0.975138
C42	C	-1.190576	1.079858	-0.943181
H43	H	-1.043178	1.148603	-0.989939
H44	H	-1.062256	1.030872	-0.920345
H45	H	-1.094777	1.048936	-1.036823
H46	H	-1.185374	1.107730	-0.881490
H47	H	-1.217891	1.125816	-0.997965
H48	H	-1.441238	0.345638	-1.126715
O49	O	-1.502229	0.284484	-1.289878
C50	C	-1.461677	0.212357	-1.212473
H51	H	-1.379451	0.256997	-1.191406
H52	H	-1.455424	0.139732	-1.244492
C53	C	-1.637893	0.116545	-1.139000
C54	C	-1.536905	0.171376	-1.113119
H55	H	-1.684298	0.091261	-1.077716
H56	H	-1.665215	0.165135	-1.191152
H57	H	-1.632667	0.056031	-1.165685
H58	H	-1.542129	0.231895	-1.086448
H59	H	-1.509585	0.122795	-1.060961
H60	H	-1.286226	0.500511	-1.335733
O61	O	-1.502486	0.950184	-0.623658
C62	C	-1.599472	0.969173	-0.661304
H63	H	-1.588225	1.011712	-0.748734
H64	H	-1.625850	1.023298	-0.615483
C65	C	-1.698790	0.807089	-0.538836
C66	C	-1.684978	0.859328	-0.646222
H67	H	-1.751537	0.739334	-0.529529
H68	H	-1.633450	0.794298	-0.513470
H69	H	-1.720767	0.852205	-0.500664
H70	H	-1.662989	0.814219	-0.684390
H71	H	-1.750318	0.872110	-0.671594
H72	H	-1.238406	0.548314	-1.163871
H73	H	-0.968783	0.363176	-0.790914
H74	H	-0.931433	0.520001	-0.633505
H75	H	-0.796961	0.326274	-0.828001
O76	O	-1.272986	1.056399	-0.800817
C77	C	-1.273861	1.164215	-0.800238
H78	H	-1.317730	1.163947	-0.725163
H79	H	-1.315999	1.198866	-0.872008
C80	C	-1.104757	1.235870	-0.896276
C81	C	-1.158629	1.235543	-0.804063
H82	H	-1.033677	1.279871	-0.898640
H83	H	-1.104168	1.163233	-0.896670
H84	H	-1.139883	1.264744	-0.956075
H85	H	-1.123511	1.206657	-0.744267
H86	H	-1.159210	1.308177	-0.803659
O87	O	-1.454374	0.789013	-0.660291
C88	C	-1.413830	0.720773	-0.578992
H89	H	-1.327716	0.763191	-0.566862
H90	H	-1.417425	0.640492	-0.601631
C91	C	-1.586776	0.645278	-0.490884
C92	C	-1.481013	0.697381	-0.475981
H93	H	-1.628219	0.630844	-0.427343
H94	H	-1.614093	0.691250	-0.545659
H95	H	-1.589757	0.578384	-0.509753
H96	H	-1.478031	0.764280	-0.457126
H97	H	-1.453697	0.651420	-0.421201
