data_functionalizedCrystal
_audit_creation_method	'MofGen! by Chris Wilmer'
_symmetry_space_group_name_H-M	'P1'
_symmetry_Int_Tables_number	1
_symmetry_cell_setting	triclinic
loop_
_symmetry_equiv_pos_as_xyz
  x,y,z
_cell_length_a	12.811457
_cell_length_b	10.967829
_cell_length_c	9.482900
_cell_angle_alpha	87.494390
_cell_angle_beta	86.005669
_cell_angle_gamma	85.527348
loop_
_atom_site_label
_atom_site_type_symbol
_atom_site_fract_x
_atom_site_fract_y
_atom_site_fract_z
O1	O	1.391236	0.171227	0.019637
O2	O	1.091475	0.182684	-0.022757
O3	O	1.242511	0.002404	0.042328
O4	O	1.240200	0.351507	-0.045448
O5	O	1.211838	0.039173	0.270863
O6	O	1.060802	0.219454	0.205778
O7	O	1.360563	0.207996	0.248172
Cu8	Cu	1.207882	0.217082	0.247842
Cu9	Cu	1.244156	0.173598	-0.022427
O10	O	1.209527	0.388277	0.183087
C11	C	1.037649	0.199300	0.086878
C12	C	0.922961	0.194014	0.073081
C13	C	1.224689	-0.023956	0.167476
C14	C	1.217270	-0.157280	0.199894
C15	C	1.229852	-0.235762	0.095957
C16	C	1.222185	-0.373560	0.129460
C17	C	0.674007	0.224149	0.296337
C18	C	0.566247	0.219183	0.283380
C19	C	0.599679	0.179108	0.034213
C20	C	0.707439	0.184074	0.047170
C21	C	0.744599	0.206597	0.178236
C22	C	0.852360	0.211571	0.191189
C23	C	0.885791	0.171487	-0.057973
C24	C	0.778031	0.166522	-0.070930
C25	C	1.414390	0.191380	0.138533
C26	C	1.529079	0.196665	0.152322
C27	C	1.227349	0.414636	0.057936
C28	C	1.234769	0.547959	0.025509
N29	N	1.182376	0.247666	0.437936
N30	N	1.269670	0.143005	-0.212518
C31	C	1.236625	0.182613	0.533588
C32	C	1.215412	0.208068	0.691830
H33	H	1.246296	-0.200937	-0.017830
C34	C	1.021382	0.296422	0.575896
C35	C	1.098473	0.348294	0.485524
H36	H	0.969587	0.358550	0.605277
H37	H	0.989595	0.236645	0.527309
H38	H	1.052681	0.258908	0.656405
H39	H	1.067175	0.385801	0.405010
H40	H	1.130263	0.408093	0.534112
H41	H	1.331820	0.068456	0.752231
C42	C	1.196668	-0.547962	0.286536
C43	C	1.199969	-0.420551	0.283081
H44	H	1.182956	-0.576970	0.381374
H45	H	1.142622	-0.569036	0.230502
H46	H	1.262197	-0.584287	0.250095
H47	H	1.134437	-0.384225	0.319513
H48	H	1.254019	-0.399466	0.339136
H49	H	0.747760	0.148178	-0.177639
C50	C	1.260105	-0.277619	-0.131602
C51	C	1.256859	-0.405037	-0.128133
H52	H	1.273712	-0.248600	-0.226458
H53	H	1.194605	-0.241336	-0.095044
H54	H	1.314212	-0.256512	-0.075672
H55	H	1.202745	-0.426144	-0.184055
H56	H	1.322366	-0.441333	-0.164710
H57	H	1.200815	-0.192104	0.313680
H58	H	0.882613	0.229917	0.297908
H59	H	1.298772	0.108068	0.498332
H60	H	0.704262	0.242504	0.403051
C61	C	0.544030	0.259304	0.530966
C62	C	0.488651	0.238485	0.413197
H63	H	0.496122	0.271226	0.611110
H64	H	0.591797	0.190646	0.548977
H65	H	0.581714	0.330173	0.512684
H66	H	0.450973	0.167610	0.431475
H67	H	0.440865	0.307148	0.395185
C68	C	0.449328	0.153687	-0.096264
C69	C	0.558820	0.154344	-0.109842
H70	H	0.424105	0.138405	-0.185201
H71	H	0.429861	0.091347	-0.029062
H72	H	0.419762	0.230876	-0.065340
H73	H	0.588386	0.077152	-0.140756
H74	H	0.578296	0.216688	-0.177066
H75	H	0.943278	0.157202	-0.154142
H76	H	1.153254	0.282609	0.727083
