data_functionalizedCrystal
_audit_creation_method	'MofGen! by Chris Wilmer'
_symmetry_space_group_name_H-M	'P1'
_symmetry_Int_Tables_number	1
_symmetry_cell_setting	triclinic
loop_
_symmetry_equiv_pos_as_xyz
  x,y,z
_cell_length_a	18.050589
_cell_length_b	21.295419
_cell_length_c	18.050582
_cell_angle_alpha	90.015656
_cell_angle_beta	89.981795
_cell_angle_gamma	89.955220
loop_
_atom_site_label
_atom_site_type_symbol
_atom_site_fract_x
_atom_site_fract_y
_atom_site_fract_z
Zn1	Zn	-0.295379	-0.962306	-0.419950
Zn2	Zn	0.037955	-0.628972	-0.086616
Zn3	Zn	0.371288	-0.295639	0.246717
Zn4	Zn	-0.419562	-0.962230	-0.295769
Zn5	Zn	-0.086229	-0.628897	0.037564
Zn6	Zn	0.247105	-0.295563	0.370897
Zn7	Zn	-0.295426	-0.857047	-0.295772
Zn8	Zn	0.037907	-0.523713	0.037561
Zn9	Zn	0.371241	-0.190380	0.370894
Zn10	Zn	-0.419567	-0.857003	-0.419916
Zn11	Zn	-0.086234	-0.523669	-0.086583
Zn12	Zn	0.247100	-0.190336	0.246751
O13	O	-0.357483	-0.909646	-0.357852
O14	O	-0.024150	-0.576313	-0.024518
O15	O	0.309183	-0.242980	0.308815
O16	O	-0.311830	-1.050385	-0.403490
O17	O	0.021504	-0.717052	-0.070156
O18	O	0.354837	-0.383718	0.263177
O19	O	-0.403113	-0.948264	-0.191845
O20	O	-0.069779	-0.614931	0.141488
O21	O	0.263554	-0.281597	0.474822
O22	O	-0.191495	-0.871060	-0.312260
O23	O	0.141838	-0.537726	0.021073
O24	O	0.475172	-0.204393	0.354407
O25	O	-0.403067	-1.050329	-0.312255
O26	O	-0.069733	-0.716996	0.021079
O27	O	0.263600	-0.383663	0.354412
O28	O	-0.191460	-0.948393	-0.403493
O29	O	0.141873	-0.615060	-0.070159
O30	O	0.475206	-0.281726	0.263174
O31	O	-0.311911	-0.870986	-0.191847
O32	O	0.021423	-0.537653	0.141486
O33	O	0.354756	-0.204320	0.474819
O34	O	-0.311916	-0.768951	-0.312227
O35	O	0.021418	-0.435618	0.021106
O36	O	0.354751	-0.102285	0.354439
O37	O	-0.403076	-0.870984	-0.523845
O38	O	-0.069742	-0.537651	-0.190512
O39	O	0.263591	-0.204318	0.142821
O40	O	-0.403122	-0.768919	-0.403435
O41	O	-0.069788	-0.435586	-0.070102
O42	O	0.263545	-0.102252	0.263231
O43	O	-0.311835	-0.948350	-0.523870
O44	O	0.021499	-0.615017	-0.190537
O45	O	0.354832	-0.281684	0.142797
O46	O	-0.523487	-0.948221	-0.312222
O47	O	-0.190154	-0.614888	0.021111
O48	O	0.143180	-0.281555	0.354444
O49	O	-0.523491	-0.870911	-0.403432
O50	O	-0.190158	-0.537578	-0.070099
O51	O	0.143176	-0.204244	0.263234
C52	C	-0.357525	-0.746095	-0.357828
C53	C	-0.024192	-0.412761	-0.024495
C54	C	0.309142	-0.079428	0.308838
C55	C	-0.357561	-0.676126	-0.357836
C56	C	-0.024227	-0.342793	-0.024503
C57	C	0.309106	-0.009460	0.308831
C58	C	-0.550436	-0.909570	-0.357839
C59	C	-0.217102	-0.576237	-0.024506
C60	C	0.116231	-0.242904	0.308827
C61	C	-0.632981	-0.909595	-0.357859
C62	C	-0.299648	-0.576262	-0.024526
C63	C	0.033685	-0.242929	0.308808
C64	C	-0.310132	-0.643311	-0.405415
C65	C	0.023201	-0.309978	-0.072082
C66	C	0.356534	0.023355	0.261252
C67	C	-0.310115	-0.577569	-0.405417
C68	C	0.023219	-0.244235	-0.072084
C69	C	0.356552	0.089098	0.261250
C70	C	-0.357539	-0.544644	-0.357848
C71	C	-0.024205	-0.211311	-0.024514
C72	C	0.309128	0.122023	0.308819
C73	C	-0.404970	-0.577467	-0.310259
C74	C	-0.071637	-0.244134	0.023074
C75	C	0.261696	0.089200	0.356407
C76	C	-0.404981	-0.643208	-0.310254
C77	C	-0.071648	-0.309875	0.023080
C78	C	0.261685	0.023458	0.356413
N79	N	-0.422521	-0.441372	-0.352052
N80	N	-0.089188	-0.108038	-0.018718
N81	N	0.244146	0.225295	0.314615
N82	N	-0.422509	-0.378920	-0.352061
N83	N	-0.089175	-0.045587	-0.018728
N84	N	0.244158	0.287747	0.314605
C85	C	-0.357507	-0.346569	-0.357861
C86	C	-0.024174	-0.013236	-0.024528
C87	C	0.309159	0.320097	0.308806
N88	N	-0.292518	-0.379029	-0.363665
N89	N	0.040815	-0.045696	-0.030331
N90	N	0.374149	0.287638	0.303002
N91	N	-0.292531	-0.441486	-0.363659
N92	N	0.040802	-0.108153	-0.030326
N93	N	0.374135	0.225180	0.303008
C94	C	-0.357532	-0.473359	-0.357848
C95	C	-0.024198	-0.140025	-0.024515
C96	C	0.309135	0.193308	0.308818
C97	C	-0.310056	-0.242469	-0.405444
C98	C	0.023277	0.090865	-0.072111
C99	C	0.356610	0.424198	0.261222
C100	C	-0.310037	-0.176725	-0.405441
C101	C	0.023296	0.156609	-0.072108
C102	C	0.356629	0.489942	0.261226
C103	C	-0.404899	-0.176624	-0.310287
C104	C	-0.071566	0.156709	0.023046
C105	C	0.261767	0.490042	0.356379
C106	C	-0.404912	-0.242367	-0.310287
C107	C	-0.071578	0.090966	0.023046
C108	C	0.261755	0.424300	0.356380
C109	C	-0.357491	-0.275285	-0.357869
C110	C	-0.024158	0.058048	-0.024536
C111	C	0.309176	0.391382	0.308797
C112	C	-0.832461	-0.867595	-0.407442
C113	C	-0.499128	-0.534262	-0.074108
C114	C	-0.165794	-0.200929	0.259225
C115	C	-0.881900	-0.852255	-0.339674
C116	C	-0.548567	-0.518922	-0.006341
C117	C	-0.215234	-0.185588	0.326992
C118	C	-0.784112	-0.909657	-0.357869
C119	C	-0.450778	-0.576324	-0.024535
C120	C	-0.117445	-0.242990	0.308798
C121	C	-0.881754	-0.925028	-0.425644
C122	C	-0.548421	-0.591695	-0.092311
C123	C	-0.215087	-0.258362	0.241023
C124	C	-0.930097	-0.909716	-0.357884
C125	C	-0.596763	-0.576382	-0.024551
C126	C	-0.263430	-0.243049	0.308783
C127	C	-0.832464	-0.894287	-0.290065
C128	C	-0.499130	-0.560953	0.043268
C129	C	-0.165797	-0.227620	0.376601
C130	C	-0.832313	-0.967087	-0.376081
C131	C	-0.498980	-0.633753	-0.042747
C132	C	-0.165646	-0.300420	0.290586
C133	C	-0.881730	-0.951768	-0.308267
C134	C	-0.548397	-0.618435	0.025067
C135	C	-0.215063	-0.285102	0.358400
C136	C	-0.700013	-0.909622	-0.357861
C137	C	-0.366680	-0.576289	-0.024528
C138	C	-0.033347	-0.242955	0.308806
C139	C	-1.014193	-0.909751	-0.357884
C140	C	-0.680860	-0.576418	-0.024551
C141	C	-0.347527	-0.243084	0.308782
C142	C	-0.163778	-0.909740	-0.357880
C143	C	0.169556	-0.576406	-0.024547
C144	C	0.502889	-0.243073	0.308786
C145	C	-0.081232	-0.909779	-0.357893
C146	C	0.252101	-0.576446	-0.024559
C147	C	0.585435	-0.243113	0.308774
C148	C	-0.357450	-0.909671	-0.551557
C149	C	-0.024117	-0.576338	-0.218224
C150	C	0.309216	-0.243004	0.115109
C151	C	-0.357436	-0.909681	-0.634103
C152	C	-0.024103	-0.576348	-0.300770
C153	C	0.309230	-0.243015	0.032563
C154	C	-0.357451	-0.073836	-0.357872
C155	C	-0.024118	0.259497	-0.024538
C156	C	0.309215	0.592830	0.308795
C157	C	-0.357461	-0.143805	-0.357870
C158	C	-0.024128	0.189529	-0.024537
C159	C	0.309206	0.522862	0.308796
C160	C	-0.406985	-0.867642	-0.833541
C161	C	-0.073652	-0.534309	-0.500207
C162	C	0.259681	-0.200975	-0.166874
C163	C	-0.425119	-0.925073	-0.882934
C164	C	-0.091786	-0.591740	-0.549601
C165	C	0.241547	-0.258407	-0.216268
C166	C	-0.357380	-0.909712	-0.785234
C167	C	-0.024046	-0.576379	-0.451900
C168	C	0.309287	-0.243046	-0.118567
C169	C	-0.339225	-0.852313	-0.882922
C170	C	-0.005892	-0.518979	-0.549589
C171	C	0.327441	-0.185646	-0.216255
C172	C	-0.357326	-0.909737	-0.931219
C173	C	-0.023993	-0.576404	-0.597886
C174	C	0.309340	-0.243071	-0.264552
C175	C	-0.375549	-0.967174	-0.833540
C176	C	-0.042216	-0.633840	-0.500207
C177	C	0.291118	-0.300507	-0.166873
C178	C	-0.289623	-0.894375	-0.833523
C179	C	0.043710	-0.561041	-0.500190
C180	C	0.377043	-0.227708	-0.166857
C181	C	-0.307732	-0.951845	-0.882895
C182	C	0.025602	-0.618512	-0.549561
C183	C	0.358935	-0.285179	-0.216228
C184	C	-0.357412	-0.909697	-0.701135
C185	C	-0.024079	-0.576364	-0.367802
C186	C	0.309254	-0.243031	-0.034469
C187	C	-0.357294	-0.909759	-1.015316
C188	C	-0.023960	-0.576426	-0.681982
C189	C	0.309373	-0.243092	-0.348649
C190	C	-0.357463	-0.909658	-0.164900
C191	C	-0.024129	-0.576325	0.168434
C192	C	0.309204	-0.242991	0.501767
C193	C	-0.357267	-0.909769	-0.082354
C194	C	-0.023934	-0.576436	0.250979
C195	C	0.309399	-0.243103	0.584312
H196	H	-0.271489	-0.550845	-0.444160
H197	H	0.061844	-0.217512	-0.110827
H198	H	0.395177	0.115821	0.222506
N199	N	-0.803912	-0.877025	-0.214127
N200	N	-0.470578	-0.543691	0.119206
N201	N	-0.137245	-0.210358	0.452540
H202	H	-0.747960	-0.877091	-0.214595
H203	H	-0.414626	-0.543757	0.118739
H204	H	-0.081293	-0.210424	0.452072
H205	H	-0.822442	-0.833818	-0.200309
H206	H	-0.489109	-0.500485	0.133024
H207	H	-0.155775	-0.167151	0.466358
N208	N	-0.462624	-0.820565	-0.804826
N209	N	-0.129290	-0.487231	-0.471493
N210	N	0.204043	-0.153898	-0.138159
H211	H	-0.461916	-0.820607	-0.748877
H212	H	-0.128582	-0.487273	-0.415544
H213	H	0.204751	-0.153940	-0.082211
H214	H	-0.449426	-0.777327	-0.823612
H215	H	-0.116092	-0.443994	-0.490279
H216	H	0.217241	-0.110660	-0.156945
N217	N	-0.910209	-0.998922	-0.252688
N218	N	-0.576876	-0.665589	0.080645
N219	N	-0.243543	-0.332255	0.413979
H220	H	-0.892182	-0.987253	-0.201544
H221	H	-0.558849	-0.653920	0.131790
H222	H	-0.225515	-0.320587	0.465123
H223	H	-0.966157	-0.998929	-0.253363
H224	H	-0.632823	-0.665595	0.079970
H225	H	-0.299490	-0.332262	0.413303
N226	N	-0.213781	-0.877147	-0.804739
N227	N	0.119553	-0.543813	-0.471406
N228	N	0.452886	-0.210480	-0.138073
H229	H	-0.193553	-0.912849	-0.773953
H230	H	0.139781	-0.579515	-0.440620
H231	H	0.473114	-0.246182	-0.107287
H232	H	-0.179484	-0.868911	-0.847868
H233	H	0.153849	-0.535578	-0.514535
H234	H	0.487183	-0.202245	-0.181202
H235	H	-0.443513	-0.149818	-0.271555
H236	H	-0.110179	0.183516	0.061778
H237	H	0.223154	0.516849	0.395111
N238	N	-0.318903	-0.788000	-0.911645
N239	N	0.014430	-0.454666	-0.578311
N240	N	0.347763	-0.121333	-0.244978
H241	H	-0.272303	-0.791024	-0.942429
H242	H	0.061030	-0.457691	-0.609096
H243	H	0.394364	-0.124358	-0.275763
H244	H	-0.360665	-0.771226	-0.943189
H245	H	-0.027332	-0.437893	-0.609855
H246	H	0.306001	-0.104560	-0.276522
N247	N	-0.910436	-0.942226	-0.501554
N248	N	-0.577102	-0.608893	-0.168221
N249	N	-0.243769	-0.275560	0.165113
H250	H	-0.966384	-0.942521	-0.500881
H251	H	-0.633051	-0.609188	-0.167548
H252	H	-0.299717	-0.275854	0.165786
H253	H	-0.892462	-0.910389	-0.538909
H254	H	-0.559129	-0.577056	-0.205576
H255	H	-0.225796	-0.243723	0.127758
H256	H	-0.271518	-0.670109	-0.444160
H257	H	0.061815	-0.336776	-0.110827
H258	H	0.395148	-0.003442	0.222507
N259	N	-0.500986	-0.942283	-0.911685
N260	N	-0.167652	-0.608950	-0.578352
N261	N	0.165681	-0.275617	-0.245018
H262	H	-0.538444	-0.910471	-0.893737
H263	H	-0.205110	-0.577138	-0.560403
H264	H	0.128223	-0.243805	-0.227070
H265	H	-0.500214	-0.942577	-0.967630
H266	H	-0.166880	-0.609243	-0.634297
H267	H	0.166453	-0.275910	-0.300964
N268	N	-0.803441	-1.031368	-0.396503
N269	N	-0.470107	-0.698035	-0.063169
N270	N	-0.136774	-0.364701	0.270164
H271	H	-0.821337	-1.042920	-0.447730
H272	H	-0.488004	-0.709587	-0.114396
H273	H	-0.154670	-0.376254	0.218937
H274	H	-0.747496	-1.030921	-0.395822
H275	H	-0.414163	-0.697587	-0.062489
H276	H	-0.080830	-0.364254	0.270844
H277	H	-0.265759	-0.987475	-0.904428
H278	H	0.067574	-0.654141	-0.571095
H279	H	0.400908	-0.320808	-0.237762
N280	N	-0.395946	-1.031508	-0.804937
N281	N	-0.062613	-0.698174	-0.471604
N282	N	0.270721	-0.364841	-0.138270
H283	H	-0.395862	-1.031097	-0.748985
H284	H	-0.062529	-0.697763	-0.415652
H285	H	0.270805	-0.364430	-0.082319
H286	H	-0.446928	-1.043160	-0.823401
H287	H	-0.113594	-0.709826	-0.490068
H288	H	0.219739	-0.376493	-0.156734
H289	H	-0.443583	-0.550656	-0.271528
H290	H	-0.110249	-0.217322	0.061806
H291	H	0.223084	0.116011	0.395139
H292	H	-0.810826	-0.831973	-0.449305
H293	H	-0.477493	-0.498639	-0.115971
H294	H	-0.144160	-0.165306	0.217362
N295	N	-0.456136	-0.678607	-0.258932
N296	N	-0.122803	-0.345273	0.074401
N297	N	0.210531	-0.011940	0.407734
H298	H	-0.486175	-0.647776	-0.228794
H299	H	-0.152842	-0.314443	0.104539
H300	H	0.180491	0.018891	0.437873
H301	H	-0.490552	-0.705864	-0.289101
H302	H	-0.157219	-0.372531	0.044232
H303	H	0.176114	-0.039197	0.377566
N304	N	-0.258920	-0.277977	-0.456771
N305	N	0.074413	0.055357	-0.123438
N306	N	0.407747	0.388690	0.209896
H307	H	-0.266133	-0.324603	-0.449558
H308	H	0.067200	0.008730	-0.116225
H309	H	0.400534	0.342063	0.217109
H310	H	-0.270567	-0.266481	-0.509785
H311	H	0.062767	0.066853	-0.176451
H312	H	0.396100	0.400186	0.156882
N313	N	-0.910744	-0.787958	-0.319261
N314	N	-0.577411	-0.454625	0.014072
N315	N	-0.244077	-0.121292	0.347405
H316	H	-0.892826	-0.756191	-0.356729
H317	H	-0.559493	-0.422858	-0.023395
H318	H	-0.226159	-0.089525	0.309938
H319	H	-0.966689	-0.788613	-0.318931
H320	H	-0.633356	-0.455280	0.014402
H321	H	-0.300022	-0.121947	0.347736
H322	H	-0.443536	-0.269085	-0.271546
H323	H	-0.110203	0.064248	0.061787
H324	H	0.223131	0.397581	0.395121
N325	N	-0.258867	-0.141328	-0.456748
N326	N	0.074467	0.192006	-0.123414
N327	N	0.407800	0.525339	0.209919
H328	H	-0.228828	-0.172159	-0.486886
H329	H	0.104505	0.161174	-0.153552
H330	H	0.437838	0.494507	0.179781
H331	H	-0.289132	-0.114031	-0.491066
H332	H	0.044201	0.219303	-0.157732
H333	H	0.377534	0.552636	0.175601
