data_functionalizedCrystal
_audit_creation_method	'MofGen! by Chris Wilmer'
_symmetry_space_group_name_H-M	'P1'
_symmetry_Int_Tables_number	1
_symmetry_cell_setting	triclinic
loop_
_symmetry_equiv_pos_as_xyz
  x,y,z
_cell_length_a	23.532407
_cell_length_b	16.109301
_cell_length_c	14.586319
_cell_angle_alpha	90.000787
_cell_angle_beta	89.991566
_cell_angle_gamma	96.844921
loop_
_atom_site_label
_atom_site_type_symbol
_atom_site_fract_x
_atom_site_fract_y
_atom_site_fract_z
O1	O	0.073202	-1.102555	-0.076192
O2	O	0.323202	-0.852555	0.173808
O3	O	0.573202	-0.602555	0.423808
O4	O	0.823202	-0.352555	0.673808
O5	O	0.082312	-0.860422	-0.076208
O6	O	0.332312	-0.610422	0.173792
O7	O	0.582312	-0.360422	0.423792
O8	O	0.832312	-0.110422	0.673792
O9	O	-0.005148	-0.988790	-0.076183
O10	O	0.244852	-0.738790	0.173817
O11	O	0.494852	-0.488790	0.423817
O12	O	0.744852	-0.238790	0.673817
O13	O	0.160662	-0.974187	-0.076217
O14	O	0.410662	-0.724187	0.173783
O15	O	0.660662	-0.474187	0.423783
O16	O	0.910662	-0.224187	0.673783
O17	O	-0.005149	-0.988781	0.076298
O18	O	0.244851	-0.738781	0.326298
O19	O	0.494851	-0.488781	0.576298
O20	O	0.744851	-0.238781	0.826298
O21	O	0.082311	-0.860413	0.076273
O22	O	0.332311	-0.610413	0.326273
O23	O	0.582311	-0.360413	0.576273
O24	O	0.832311	-0.110413	0.826273
O25	O	0.073201	-1.102546	0.076289
O26	O	0.323201	-0.852546	0.326289
O27	O	0.573201	-0.602546	0.576289
O28	O	0.823201	-0.352546	0.826289
Cu29	Cu	0.077756	-0.981479	0.090204
Cu30	Cu	0.327756	-0.731479	0.340204
Cu31	Cu	0.577756	-0.481479	0.590204
Cu32	Cu	0.827756	-0.231479	0.840204
Cu33	Cu	0.077757	-0.981489	-0.090123
Cu34	Cu	0.327757	-0.731489	0.159877
Cu35	Cu	0.577757	-0.481489	0.409877
Cu36	Cu	0.827757	-0.231489	0.659877
O37	O	0.160660	-0.974178	0.076264
O38	O	0.410660	-0.724178	0.326264
O39	O	0.660660	-0.474178	0.576264
O40	O	0.910660	-0.224178	0.826264
C41	C	0.081942	-0.829445	0.000031
C42	C	0.331942	-0.579445	0.250031
C43	C	0.581942	-0.329445	0.500031
C44	C	0.831942	-0.079445	0.750031
C45	C	0.080836	-0.737159	0.000026
C46	C	0.330836	-0.487159	0.250026
C47	C	0.580836	-0.237159	0.500026
C48	C	0.830836	0.012841	0.750026
C49	C	-0.026366	-0.988414	0.000060
C50	C	0.223634	-0.738414	0.250060
C51	C	0.473634	-0.488414	0.500060
C52	C	0.723634	-0.238414	0.750060
C53	C	-0.089587	-0.987296	0.000067
C54	C	0.160413	-0.737296	0.250067
C55	C	0.410413	-0.487296	0.500067
C56	C	0.660413	-0.237296	0.750067
C57	C	0.073570	-1.133523	0.000048
C58	C	0.323570	-0.883523	0.250048
C59	C	0.573570	-0.633523	0.500048
C60	C	0.823570	-0.383523	0.750048
C61	C	0.074677	-1.225809	0.000047
C62	C	0.324677	-0.975809	0.250047
C63	C	0.574677	-0.725809	0.500047
C64	C	0.824677	-0.475809	0.750047
C65	C	-0.488436	-1.056249	0.000021
C66	C	-0.238436	-0.806249	0.250021
C67	C	0.011564	-0.556249	0.500021
C68	C	0.261564	-0.306249	0.750021
C69	C	-0.547840	-1.055210	0.000014
C70	C	-0.297840	-0.805210	0.250014
C71	C	-0.047840	-0.555210	0.500014
C72	C	0.202160	-0.305210	0.750014
O73	O	-0.584349	-1.119130	-0.000015
O74	O	-0.334349	-0.869130	0.249985
O75	O	-0.084349	-0.619130	0.499985
O76	O	0.165651	-0.369130	0.749985
N77	N	-0.570748	-0.978895	0.000010
N78	N	-0.320748	-0.728895	0.250010
N79	N	-0.070748	-0.478895	0.500010
N80	N	0.179252	-0.228895	0.750010
C81	C	-0.534248	-0.903614	0.000003
C82	C	-0.284248	-0.653614	0.250003
C83	C	-0.034248	-0.403614	0.500003
C84	C	0.215752	-0.153614	0.750003
O85	O	-0.559187	-0.838607	-0.000002
O86	O	-0.309187	-0.588607	0.249998
O87	O	-0.059187	-0.338607	0.499998
O88	O	0.190813	-0.088607	0.749998
C89	C	-0.474845	-0.904654	0.000004
C90	C	-0.224845	-0.654654	0.250004
C91	C	0.025155	-0.404654	0.500004
C92	C	0.275155	-0.154654	0.750004
C93	C	-0.451941	-0.980973	0.000018
C94	C	-0.201941	-0.730973	0.250018
C95	C	0.048059	-0.480973	0.500018
C96	C	0.298059	-0.230973	0.750018
C97	C	-0.465531	-1.132562	0.000034
C98	C	-0.215531	-0.882562	0.250034
C99	C	0.034469	-0.632562	0.500034
C100	C	0.284469	-0.382562	0.750034
C101	C	-0.406131	-1.133601	0.000043
C102	C	-0.156131	-0.883601	0.250043
C103	C	0.093869	-0.633601	0.500043
C104	C	0.343869	-0.383601	0.750043
C105	C	-0.369636	-1.058325	0.000039
C106	C	-0.119636	-0.808325	0.250039
C107	C	0.130364	-0.558325	0.500039
C108	C	0.380364	-0.308325	0.750039
C109	C	-0.392541	-0.982012	0.000026
C110	C	-0.142541	-0.732012	0.250026
C111	C	0.107459	-0.482012	0.500026
C112	C	0.357459	-0.232012	0.750026
C113	C	-0.438346	-0.829373	-0.000009
C114	C	-0.188346	-0.579373	0.249991
C115	C	0.061654	-0.329373	0.499991
C116	C	0.311654	-0.079373	0.749991
C117	C	-0.378940	-0.830419	-0.000009
C118	C	-0.128940	-0.580419	0.249991
C119	C	0.121060	-0.330419	0.499991
C120	C	0.371060	-0.080419	0.749991
C121	C	-0.356036	-0.906739	0.000004
C122	C	-0.106036	-0.656739	0.250004
C123	C	0.143964	-0.406739	0.500004
C124	C	0.393964	-0.156739	0.750004
C125	C	-0.296645	-0.907774	0.000031
C126	C	-0.046645	-0.657774	0.250031
C127	C	0.203355	-0.407774	0.500031
C128	C	0.453355	-0.157774	0.750031
N129	N	-0.273738	-0.984089	0.000035
N130	N	-0.023738	-0.734089	0.250035
N131	N	0.226262	-0.484089	0.500035
N132	N	0.476262	-0.234089	0.750035
C133	C	-0.310233	-1.059365	0.000039
C134	C	-0.060233	-0.809365	0.250039
C135	C	0.189767	-0.559365	0.500039
C136	C	0.439767	-0.309365	0.750039
C137	C	-0.658998	-0.901437	0.000001
C138	C	-0.408998	-0.651437	0.250001
C139	C	-0.158998	-0.401437	0.500001
C140	C	0.091002	-0.151437	0.750001
C141	C	-0.718400	-0.900396	0.000007
C142	C	-0.468400	-0.650396	0.250007
C143	C	-0.218400	-0.400396	0.500007
C144	C	0.031600	-0.150396	0.750007
C145	C	-0.731988	-1.051993	0.000016
C146	C	-0.481988	-0.801993	0.250016
C147	C	-0.231988	-0.551993	0.500016
C148	C	0.018012	-0.301993	0.750016
C149	C	-0.672585	-1.053032	0.000017
C150	C	-0.422585	-0.803032	0.250017
C151	C	-0.172585	-0.553032	0.500017
C152	C	0.077415	-0.303032	0.750017
C153	C	-0.636091	-0.977752	0.000005
C154	C	-0.386091	-0.727752	0.250005
C155	C	-0.136091	-0.477752	0.500005
C156	C	0.113909	-0.227752	0.750005
C157	C	-0.185488	-1.061539	0.000058
C158	C	0.064512	-0.811539	0.250058
C159	C	0.314512	-0.561539	0.500058
C160	C	0.564512	-0.311539	0.750058
C161	C	-0.126082	-1.062571	0.000071
C162	C	0.123918	-0.812571	0.250071
C163	C	0.373918	-0.562571	0.500071
C164	C	0.623918	-0.312571	0.750071
C165	C	-0.112499	-0.910975	0.000057
C166	C	0.137501	-0.660975	0.250057
C167	C	0.387501	-0.410975	0.500057
C168	C	0.637501	-0.160975	0.750057
C169	C	-0.171900	-0.909943	0.000049
C170	C	0.078100	-0.659943	0.250049
C171	C	0.328100	-0.409943	0.500049
C172	C	0.578100	-0.159943	0.750049
C173	C	-0.208394	-0.985232	0.000047
C174	C	0.041606	-0.735232	0.250047
C175	C	0.291606	-0.485232	0.500047
C176	C	0.541606	-0.235232	0.750047
O177	O	-0.260102	-0.843888	0.000057
O178	O	-0.010102	-0.593888	0.250057
O179	O	0.239898	-0.343888	0.500057
O180	O	0.489898	-0.093888	0.750057
O181	O	-0.285285	-1.124361	0.000032
O182	O	-0.035285	-0.874361	0.250032
O183	O	0.214715	-0.624361	0.500032
O184	O	0.464715	-0.374361	0.750032
C185	C	0.181878	-0.974554	0.000019
C186	C	0.431878	-0.724554	0.250019
C187	C	0.681878	-0.474554	0.500019
C188	C	0.931878	-0.224554	0.750019
C189	C	0.245100	-0.975672	0.000006
C190	C	0.495100	-0.725672	0.250006
C191	C	0.745100	-0.475672	0.500006
C192	C	0.995100	-0.225672	0.750006
N193	N	0.077754	-0.981477	0.217035
N194	N	0.327754	-0.731477	0.467035
N195	N	0.577754	-0.481477	0.717035
N196	N	0.827754	-0.231477	0.967035
C197	C	0.130160	-0.514498	0.000026
C198	C	0.380160	-0.264498	0.250026
C199	C	0.630160	-0.014498	0.500026
C200	C	0.880160	0.235502	0.750026
C201	C	0.129116	-0.427786	0.000032
C202	C	0.379116	-0.177786	0.250032
C203	C	0.629116	0.072214	0.500032
C204	C	0.879116	0.322214	0.750032
C205	C	0.025348	-0.448476	0.000050
C206	C	0.275348	-0.198476	0.250050
C207	C	0.525348	0.051524	0.500050
C208	C	0.775348	0.301524	0.750050
C209	C	0.026393	-0.535187	0.000050
C210	C	0.276393	-0.285187	0.250050
C211	C	0.526393	-0.035187	0.500050
C212	C	0.776393	0.214813	0.750050
C213	C	0.078801	-0.568195	0.000034
C214	C	0.328801	-0.318195	0.250034
C215	C	0.578801	-0.068195	0.500034
C216	C	0.828801	0.181805	0.750034
C217	C	0.076712	-0.394773	0.000039
C218	C	0.326712	-0.144773	0.250039
C219	C	0.576712	0.105227	0.500039
C220	C	0.826712	0.355227	0.750039
C221	C	0.075580	-0.300755	0.000046
C222	C	0.325580	-0.050755	0.250046
C223	C	0.575580	0.199245	0.500046
C224	C	0.825580	0.449245	0.750046
C225	C	0.079933	-0.662218	0.000029
C226	C	0.329933	-0.412218	0.250029
C227	C	0.579933	-0.162218	0.500029
C228	C	0.829933	0.087782	0.750029
N229	N	0.077754	-0.981497	-0.216954
N230	N	0.327754	-0.731497	0.033046
N231	N	0.577754	-0.481497	0.283046
N232	N	0.827754	-0.231497	0.533046
C233	C	0.039040	-1.038338	0.452053
C234	C	0.289040	-0.788338	0.702053
C235	C	0.539040	-0.538338	0.952053
C236	C	0.789040	-0.288338	1.202053
C237	C	0.039039	-1.038340	0.548034
C238	C	0.289039	-0.788340	0.798034
C239	C	0.539039	-0.538340	1.048034
C240	C	0.789039	-0.288340	1.298034
C241	C	0.116470	-0.924631	0.548021
C242	C	0.366470	-0.674631	0.798021
C243	C	0.616470	-0.424631	1.048021
C244	C	0.866470	-0.174631	1.298021
C245	C	0.116468	-0.924625	0.452042
C246	C	0.366468	-0.674625	0.702042
C247	C	0.616468	-0.424625	0.952042
C248	C	0.866468	-0.174625	1.202042
C249	C	0.077754	-0.981483	0.404060
C250	C	0.327754	-0.731483	0.654060
C251	C	0.577754	-0.481483	0.904060
C252	C	0.827754	-0.231483	1.154060
C253	C	0.077754	-0.981491	0.596021
C254	C	0.327754	-0.731491	0.846021
C255	C	0.577754	-0.481491	1.096021
C256	C	0.827754	-0.231491	1.346021
C257	C	0.077753	-0.981494	0.700088
C258	C	0.327753	-0.731494	0.950088
C259	C	0.577753	-0.481494	1.200088
C260	C	0.827753	-0.231494	1.450088
C261	C	0.077754	-0.981480	0.299986
C262	C	0.327754	-0.731480	0.549986
C263	C	0.577754	-0.481480	0.799986
C264	C	0.827754	-0.231480	1.049986
H265	H	-0.107437	-1.124722	0.000084
H266	H	0.142563	-0.874722	0.250084
H267	H	0.392563	-0.624722	0.500084
H268	H	0.642563	-0.374722	0.750084
H269	H	-0.737043	-0.838249	0.000012
H270	H	-0.487043	-0.588249	0.250012
H271	H	-0.237043	-0.338249	0.500012
H272	H	0.012957	-0.088249	0.750012
H273	H	-0.215195	-1.122847	0.000053
H274	H	0.034805	-0.872847	0.250053
H275	H	0.284805	-0.622847	0.500053
H276	H	0.534805	-0.372847	0.750053
H277	H	-0.017320	-0.421590	0.000069
H278	H	0.232680	-0.171590	0.250069
H279	H	0.482680	0.078410	0.500069
H280	H	0.732680	0.328410	0.750069
H281	H	-0.015433	-0.578910	0.000059
H282	H	0.234567	-0.328910	0.250059
H283	H	0.484567	-0.078910	0.500059
H284	H	0.734567	0.171090	0.750059
H285	H	0.172834	-0.541371	0.000019
H286	H	0.422834	-0.291371	0.250019
H287	H	0.672834	-0.041371	0.500019
H288	H	0.922834	0.208629	0.750019
H289	H	0.007516	-1.084634	0.412989
H290	H	0.257516	-0.834634	0.662989
H291	H	0.507516	-0.584634	0.912989
H292	H	0.757516	-0.334634	1.162989
H293	H	0.007514	-1.084635	0.587107
H294	H	0.257514	-0.834635	0.837107
H295	H	0.507514	-0.584635	1.087107
H296	H	0.757514	-0.334635	1.337107
H297	H	0.170939	-0.384069	0.000028
H298	H	0.420939	-0.134069	0.250028
H299	H	0.670939	0.115931	0.500028
H300	H	0.920939	0.365931	0.750028
H301	H	-0.190549	-0.847797	0.000064
H302	H	0.059451	-0.597797	0.250064
H303	H	0.309451	-0.347797	0.500064
H304	H	0.559451	-0.097797	0.750064
H305	H	0.147991	-0.878340	0.587098
H306	H	0.397991	-0.628340	0.837098
H307	H	0.647991	-0.378340	1.087098
H308	H	0.897991	-0.128340	1.337098
H309	H	0.147994	-0.878324	0.412964
H310	H	0.397994	-0.628324	0.662964
H311	H	0.647994	-0.378324	0.912964
H312	H	0.897994	-0.128324	1.162964
H313	H	-0.761714	-1.113286	0.000016
H314	H	-0.511714	-0.863286	0.250016
H315	H	-0.261714	-0.613286	0.500016
H316	H	-0.011714	-0.363286	0.750016
H317	H	-0.387488	-1.195748	0.000050
H318	H	-0.137488	-0.945748	0.250050
H319	H	0.112512	-0.695748	0.500050
H320	H	0.362512	-0.445748	0.750050
H321	H	-0.653941	-1.115179	0.000027
H322	H	-0.403941	-0.865179	0.250027
H323	H	-0.153941	-0.615179	0.500027
H324	H	0.096059	-0.365179	0.750027
H325	H	-0.629287	-0.840130	-0.000001
H326	H	-0.379287	-0.590130	0.249999
H327	H	-0.129287	-0.340130	0.499999
H328	H	0.120713	-0.090130	0.749999
H329	H	-0.495240	-1.193864	0.000034
H330	H	-0.245240	-0.943864	0.250034
H331	H	0.004760	-0.693864	0.500034
H332	H	0.254760	-0.443864	0.750034
H333	H	-0.456984	-0.767225	-0.000026
H334	H	-0.206984	-0.517225	0.249974
H335	H	0.043016	-0.267225	0.499974
H336	H	0.293016	-0.017225	0.749974
H337	H	-0.082774	-0.849688	0.000057
H338	H	0.167226	-0.599688	0.250057
H339	H	0.417226	-0.349688	0.500057
H340	H	0.667226	-0.099688	0.750057
H341	H	-0.349228	-0.769115	-0.000020
H342	H	-0.099228	-0.519115	0.249980
H343	H	0.150772	-0.269115	0.499980
H344	H	0.400772	-0.019115	0.749980
