data_functionalizedCrystal
_audit_creation_method	'MofGen! by Chris Wilmer'
_symmetry_space_group_name_H-M	'P1'
_symmetry_Int_Tables_number	1
_symmetry_cell_setting	triclinic
loop_
_symmetry_equiv_pos_as_xyz
  x,y,z
_cell_length_a	17.639617
_cell_length_b	17.640280
_cell_length_c	15.296720
_cell_angle_alpha	90.295581
_cell_angle_beta	86.542901
_cell_angle_gamma	87.821186
loop_
_atom_site_label
_atom_site_type_symbol
_atom_site_fract_x
_atom_site_fract_y
_atom_site_fract_z
Zn1	Zn	1.137600	-0.195386	-0.727965
Zn2	Zn	1.182196	-0.293820	-0.564737
Zn3	Zn	1.030882	-0.190520	-0.553586
Zn4	Zn	1.042644	-0.338357	-0.673022
O5	O	1.098330	-0.254521	-0.629828
O6	O	1.246580	-0.191841	-0.733973
O7	O	1.175865	-0.259442	-0.444962
O8	O	1.021452	-0.088100	-0.595044
O9	O	1.279345	-0.264160	-0.614050
O10	O	1.099857	-0.091675	-0.723160
O11	O	1.064695	-0.183548	-0.436770
O12	O	0.929377	-0.226734	-0.541769
O13	O	1.041499	-0.340067	-0.798606
O14	O	0.938019	-0.335349	-0.629518
O15	O	1.111263	-0.235026	-0.838972
O16	O	1.187271	-0.402794	-0.560775
O17	O	1.084743	-0.435515	-0.640331
C18	C	0.906975	-0.285347	-0.578472
C19	C	0.825114	-0.298556	-0.556519
C20	C	0.470606	-0.154196	-0.796816
C21	C	0.393692	-0.166623	-0.776167
C22	C	0.427814	-0.241746	-0.651164
C23	C	0.504733	-0.229328	-0.671805
C24	C	0.526123	-0.185552	-0.744631
C25	C	0.560250	-0.260684	-0.619620
C26	C	0.637162	-0.248264	-0.640257
C27	C	0.658558	-0.204488	-0.713078
C28	C	0.603035	-0.173132	-0.765268
C29	C	0.538858	-0.304456	-0.546790
C30	C	0.594375	-0.335812	-0.494605
C31	C	0.671289	-0.323396	-0.515245
C32	C	0.692685	-0.279620	-0.588067
C33	C	0.726812	-0.354752	-0.463056
C34	C	0.803724	-0.342332	-0.483692
C35	C	0.769597	-0.267200	-0.608704
C36	C	1.142140	-0.445878	-0.595825
C37	C	1.160946	-0.527735	-0.581325
C38	C	0.955729	-0.882249	-0.740372
C39	C	0.973405	-0.959162	-0.726720
C40	C	1.080213	-0.925034	-0.644003
C41	C	1.062548	-0.848117	-0.657651
C42	C	1.000305	-0.826731	-0.705836
C43	C	1.107124	-0.792599	-0.623115
C44	C	1.089459	-0.715688	-0.636758
C45	C	1.027217	-0.694296	-0.684938
C46	C	0.982639	-0.749821	-0.719479
C47	C	1.169364	-0.813986	-0.574926
C48	C	1.213940	-0.758468	-0.540389
C49	C	1.196278	-0.681556	-0.554038
C50	C	1.134036	-0.660164	-0.602218
C51	C	1.240855	-0.626031	-0.519497
C52	C	1.223190	-0.549121	-0.533141
C53	C	1.116370	-0.583253	-0.615861
C54	C	1.290433	-0.223575	-0.681384
C55	C	1.372296	-0.210388	-0.703354
C56	C	1.072719	-0.293057	-0.850320
C57	C	1.061804	-0.309479	-0.944280
C58	C	1.054368	-0.062417	-0.663987
C59	C	1.035633	0.019447	-0.678544
C60	C	1.176334	-0.137018	-1.293206
C61	C	1.186594	-0.121589	-1.204926
C62	C	1.155397	-0.168560	-1.139761
C63	C	1.113940	-0.230963	-1.162883
C64	C	1.103684	-0.246396	-1.251172
C65	C	1.082747	-0.277939	-1.097726
C66	C	1.041289	-0.340341	-1.120849
C67	C	1.031035	-0.355772	-1.209129
C68	C	1.062232	-0.308801	-1.274295
C69	C	1.093002	-0.262505	-1.009438
C70	C	1.020352	-0.371883	-0.967403
C71	C	1.010093	-0.387312	-1.055683
C72	C	1.123873	-0.216075	-0.410214
C73	C	1.134882	-0.199422	-0.316329
H74	H	0.348490	-0.141082	-0.818664
F75	F	0.571601	-0.382397	-0.417098
H76	H	0.620451	-0.137488	-0.824573
H77	H	1.065690	-0.565842	-0.655106
H78	H	0.488022	-0.118552	-0.856121
H79	H	0.410387	-0.277386	-0.591866
H80	H	0.997285	-0.406589	-1.227952
F81	F	0.456999	-0.317669	-0.524824
F82	F	0.925950	-1.018248	-0.763473
H83	H	1.130890	-0.942457	-0.604768
H84	H	1.012830	-0.631670	-0.696039
H85	H	1.183747	-0.876612	-0.563822
H86	H	0.709384	-0.390388	-0.403756
H87	H	0.848928	-0.367865	-0.441198
H88	H	0.931959	-0.732410	-0.758723
H89	H	1.126757	-0.211696	-0.990621
F90	F	0.965973	-0.453724	-1.080303
H91	H	0.905049	-0.864838	-0.779616
H92	H	1.264617	-0.775891	-0.501155
F93	F	1.307093	-0.648802	-0.468212
H94	H	1.259488	-0.503916	-0.505016
F95	F	0.987152	-0.421880	-0.898053
F96	F	1.166316	-0.152137	-1.045806
F97	F	1.230714	-0.055179	-1.180324
F98	F	1.209538	-0.087041	-1.362563
F99	F	1.051319	-0.325221	-1.368255
H100	H	0.787013	-0.231556	-0.668009
H101	H	0.721186	-0.194373	-0.729877
