data_functionalizedCrystal
_audit_creation_method	'MofGen! by Chris Wilmer'
_symmetry_space_group_name_H-M	'P1'
_symmetry_Int_Tables_number	1
_symmetry_cell_setting	triclinic
loop_
_symmetry_equiv_pos_as_xyz
  x,y,z
_cell_length_a	14.971506
_cell_length_b	11.026607
_cell_length_c	14.048226
_cell_angle_alpha	90.001318
_cell_angle_beta	90.005155
_cell_angle_gamma	96.104202
loop_
_atom_site_label
_atom_site_type_symbol
_atom_site_fract_x
_atom_site_fract_y
_atom_site_fract_z
O1	O	1.212297	0.158295	0.079165
O2	O	0.954930	0.177212	0.079165
O3	O	1.062283	-0.008933	0.079161
O4	O	1.104944	0.344440	0.079168
O5	O	1.062270	-0.008934	-0.079160
O6	O	0.954917	0.177210	-0.079156
O7	O	1.212284	0.158293	-0.079157
Zn8	Zn	1.083598	0.167752	-0.104293
Zn9	Zn	1.083616	0.167754	0.104302
O10	O	1.104931	0.344438	-0.079153
C11	C	0.921463	0.176361	0.000004
C12	C	0.821759	0.173812	0.000004
C13	C	1.054407	-0.054156	0.000002
C14	C	1.030945	-0.188907	0.000005
C15	C	0.399440	0.273444	0.000016
C16	C	0.493122	0.275829	0.000020
C17	C	0.532818	0.166462	0.000014
C18	C	0.478827	0.054702	0.000013
C19	C	0.385147	0.052319	0.000016
C20	C	0.674087	0.059678	0.000005
C21	C	0.767774	0.062062	0.000001
C22	C	0.782063	0.283189	0.000010
C23	C	0.688382	0.280805	0.000012
C24	C	0.634397	0.169045	0.000010
C25	C	1.095726	-0.262612	0.000007
C26	C	1.071479	-0.401884	0.000010
C27	C	1.245751	0.159145	0.000006
C28	C	1.345455	0.161693	0.000012
C29	C	1.112807	0.389662	0.000009
C30	C	1.136269	0.524412	0.000011
N31	N	1.083593	0.167750	-0.246654
C32	C	1.149711	0.241498	-0.296466
C33	C	1.149722	0.241493	-0.396124
C34	C	1.083609	0.167745	-0.445968
C35	C	1.017488	0.093988	-0.396148
C36	C	1.017481	0.093987	-0.296492
C37	C	1.017504	0.093996	-0.603862
C38	C	1.017509	0.093998	-0.703525
C39	C	1.149744	0.241501	-0.703494
C40	C	1.149738	0.241501	-0.603838
C41	C	1.083615	0.167746	-0.554026
N42	N	1.083627	0.167746	0.246662
H43	H	0.367126	0.362504	0.000014
Br44	Br	0.927778	-0.006126	-0.536260
H45	H	0.998063	-0.441883	0.000016
Br46	Br	1.258636	-0.408933	0.000020
H47	H	0.537072	0.366827	0.000032
H48	H	0.656064	0.369861	0.000011
H49	H	0.963661	0.033935	-0.436739
H50	H	0.963641	0.033934	-0.255936
H51	H	0.800092	-0.026995	0.000003
H52	H	0.957534	-0.228912	0.000012
H53	H	0.826022	0.374187	0.000011
Br54	Br	1.239437	0.341595	-0.228831
Br55	Br	0.600823	-0.091997	-0.000003
H56	H	1.203563	0.301544	-0.436677
Br57	Br	0.927787	-0.006095	-0.771170
Br58	Br	0.532700	-0.093727	0.000010
H59	H	0.341193	-0.038680	0.000014
H60	H	1.169137	-0.222607	0.000001
H61	H	1.203569	0.301559	-0.563259
Br62	Br	1.239484	0.341597	-0.771095
