data_functionalizedCrystal
_audit_creation_method	'MofGen! by Chris Wilmer'
_symmetry_space_group_name_H-M	'P1'
_symmetry_Int_Tables_number	1
_symmetry_cell_setting	triclinic
loop_
_symmetry_equiv_pos_as_xyz
  x,y,z
_cell_length_a	10.489741
_cell_length_b	14.519709
_cell_length_c	13.596369
_cell_angle_alpha	89.993066
_cell_angle_beta	90.002617
_cell_angle_gamma	95.890341
loop_
_atom_site_label
_atom_site_type_symbol
_atom_site_fract_x
_atom_site_fract_y
_atom_site_fract_z
O1	O	1.692699	-0.130116	0.081733
O2	O	2.026032	0.203217	0.415066
O3	O	2.359365	0.536551	0.748400
O4	O	1.321376	-0.142329	0.081748
O5	O	1.654709	0.191004	0.415082
O6	O	1.988042	0.524337	0.748415
O7	O	1.516882	-0.002038	0.081731
O8	O	1.850216	0.331295	0.415065
O9	O	2.183549	0.664629	0.748398
O10	O	1.497192	-0.270407	0.081750
O11	O	1.830525	0.062926	0.415083
O12	O	2.163859	0.396259	0.748417
O13	O	1.516863	-0.002030	-0.081851
O14	O	1.850196	0.331303	0.251482
O15	O	2.183529	0.664636	0.584815
O16	O	1.321356	-0.142322	-0.081834
O17	O	1.654690	0.191012	0.251499
O18	O	1.988023	0.524345	0.584832
O19	O	1.692679	-0.130108	-0.081850
O20	O	2.026013	0.203225	0.251483
O21	O	2.359346	0.536558	0.584817
Zn22	Zn	1.507015	-0.136214	-0.107814
Zn23	Zn	1.840348	0.197119	0.225519
Zn24	Zn	2.173681	0.530453	0.558852
Zn25	Zn	1.507040	-0.136224	0.107713
Zn26	Zn	1.840374	0.197109	0.441046
Zn27	Zn	2.173707	0.530443	0.774380
O28	O	1.497173	-0.270400	-0.081833
O29	O	1.830506	0.062933	0.251500
O30	O	2.163839	0.396267	0.584834
C31	C	1.273844	-0.141403	-0.000041
C32	C	1.607177	0.191930	0.333292
C33	C	1.940511	0.525264	0.666626
C34	C	1.132243	-0.138643	-0.000035
C35	C	1.465577	0.194690	0.333298
C36	C	1.798910	0.528023	0.666631
C37	C	1.065034	-0.049380	-0.000051
C38	C	1.398367	0.283953	0.333283
C39	C	1.731700	0.617287	0.666616
C40	C	0.972477	-0.091551	0.080605
C41	C	1.305810	0.241783	0.413938
C42	C	1.639143	0.575116	0.747272
C43	C	0.972491	-0.091565	-0.080675
C44	C	1.305825	0.241769	0.252658
C45	C	1.639158	0.575102	0.585992
C46	C	1.041551	-0.180851	0.080687
C47	C	1.374885	0.152482	0.414020
C48	C	1.708218	0.485816	0.747354
C49	C	1.041576	-0.180852	-0.080665
C50	C	1.374909	0.152481	0.252668
C51	C	1.708242	0.485814	0.586001
C52	C	0.949046	-0.223088	0.000010
C53	C	1.282379	0.110245	0.333343
C54	C	1.615712	0.443579	0.666677
C55	C	1.515955	0.032331	-0.000060
C56	C	1.849288	0.365664	0.333273
C57	C	2.182622	0.698997	0.666607
C58	C	1.513205	0.134727	-0.000061
C59	C	1.846538	0.468060	0.333273
C60	C	2.179872	0.801394	0.666606
C61	C	1.740211	-0.131035	-0.000058
C62	C	2.073544	0.202299	0.333275
C63	C	2.406878	0.535632	0.666608
C64	C	1.881812	-0.133794	-0.000057
C65	C	2.215145	0.199539	0.333276
C66	C	2.548478	0.532872	0.666609
N67	N	1.507006	-0.136206	-0.254906
N68	N	1.840340	0.197127	0.078427
N69	N	2.173673	0.530460	0.411760
C70	C	1.498100	-0.304768	-0.000039
C71	C	1.831433	0.028565	0.333294
C72	C	2.164767	0.361898	0.666628
C73	C	1.500850	-0.407165	-0.000032
C74	C	1.834183	-0.073831	0.333301
C75	C	2.167517	0.259502	0.666634
C76	C	1.503082	0.509678	-0.000035
C77	C	1.836415	0.843011	0.333299
C78	C	2.169748	1.176345	0.666632
C79	C	1.505893	0.405355	-0.000042
C80	C	1.839226	0.738688	0.333291
C81	C	2.172560	1.072021	0.666625
C82	C	1.508143	0.322206	-0.000048
C83	C	1.841476	0.655539	0.333285
C84	C	2.174810	0.988872	0.666618
C85	C	1.510955	0.217876	-0.000054
C86	C	1.844288	0.551209	0.333279
C87	C	2.177622	0.884543	0.666612
C88	C	1.507039	-0.136225	-0.656197
C89	C	1.840372	0.197109	-0.322864
C90	C	2.173705	0.530442	0.010469
C91	C	1.507026	-0.136223	-0.544546
C92	C	1.840359	0.197111	-0.211213
C93	C	2.173693	0.530444	0.122121
C94	C	1.507023	-0.136216	-0.455555
C95	C	1.840356	0.197117	-0.122222
C96	C	2.173690	0.530450	0.211111
C97	C	1.507009	-0.136213	-0.343897
C98	C	1.840342	0.197120	-0.010564
C99	C	2.173676	0.530454	0.322770
N100	N	1.507059	-0.136224	0.254805
N101	N	1.840392	0.197109	0.588138
N102	N	2.173725	0.530443	0.921472
H103	H	1.071994	-0.218594	0.148952
H104	H	1.405327	0.114739	0.482286
H105	H	1.738661	0.448073	0.815619
O106	O	1.082187	-0.230828	-0.170990
O107	O	1.415520	0.102505	0.162344
O108	O	1.748853	0.435839	0.495677
H109	H	1.033863	-0.302509	-0.171610
H110	H	1.367197	0.030824	0.161723
H111	H	1.700530	0.364158	0.495057
O112	O	1.131765	0.047850	0.000009
O113	O	1.465098	0.381183	0.333343
O114	O	1.798431	0.714517	0.666676
H115	H	1.104256	0.084685	0.067050
H116	H	1.437589	0.418019	0.400383
H117	H	1.770922	0.751352	0.733716
O118	O	0.931901	-0.041531	0.170918
O119	O	1.265234	0.291802	0.504252
O120	O	1.598568	0.625135	0.837585
H121	H	0.978791	0.030562	0.170749
H122	H	1.312124	0.363895	0.504082
H123	H	1.645457	0.697228	0.837415
O124	O	0.882570	-0.320392	0.000055
O125	O	1.215903	0.012941	0.333388
O126	O	1.549237	0.346274	0.666722
H127	H	0.910232	-0.357217	0.067069
H128	H	1.243565	-0.023884	0.400402
H129	H	1.576899	0.309450	0.733736
H130	H	0.941899	-0.053776	-0.148864
H131	H	1.275232	0.279557	0.184470
H132	H	1.608566	0.612891	0.517803
