data_functionalizedCrystal
_audit_creation_method	'MofGen! by Chris Wilmer'
_symmetry_space_group_name_H-M	'P1'
_symmetry_Int_Tables_number	1
_symmetry_cell_setting	triclinic
loop_
_symmetry_equiv_pos_as_xyz
  x,y,z
_cell_length_a	12.759401
_cell_length_b	12.759400
_cell_length_c	19.805399
_cell_angle_alpha	89.975752
_cell_angle_beta	89.987249
_cell_angle_gamma	90.014577
loop_
_atom_site_label
_atom_site_type_symbol
_atom_site_fract_x
_atom_site_fract_y
_atom_site_fract_z
Zn1	Zn	1.606198	-0.418272	-0.382667
Zn2	Zn	1.606111	-0.593969	-0.269488
Zn3	Zn	1.430517	-0.418305	-0.269500
Zn4	Zn	1.430489	-0.593910	-0.382643
O5	O	1.518329	-0.506114	-0.326075
O6	O	1.753207	-0.441589	-0.367659
O7	O	1.582793	-0.570706	-0.174773
O8	O	1.453870	-0.271280	-0.284527
O9	O	1.753143	-0.570673	-0.284507
O10	O	1.582942	-0.271255	-0.367670
O11	O	1.453786	-0.441647	-0.174782
O12	O	1.283493	-0.441589	-0.284504
O13	O	1.453822	-0.570572	-0.477363
O14	O	1.283472	-0.570604	-0.367629
O15	O	1.582914	-0.441531	-0.477381
O16	O	1.582766	-0.740982	-0.284484
O17	O	1.453738	-0.740939	-0.367618
C18	C	1.245361	-0.506095	-0.326066
C19	C	1.128585	-0.506112	-0.326078
C20	C	1.518268	-0.779081	-0.326062
C21	C	1.518338	-0.895858	-0.326079
C22	C	1.073740	-0.573398	-0.369290
C23	C	0.964016	-0.573411	-0.369297
C24	C	0.963992	-0.438849	-0.282875
C25	C	1.073714	-0.438832	-0.282871
C26	C	1.128611	-0.640678	-0.412496
C27	C	1.073765	-0.707970	-0.455711
C28	C	0.964041	-0.707983	-0.455719
C29	C	0.909163	-0.640704	-0.412511
C30	C	1.585570	-1.060347	-0.369430
C31	C	1.585513	-0.950623	-0.369411
C32	C	1.451222	-0.950822	-0.282758
C33	C	1.451285	-1.060544	-0.282775
C34	C	1.652743	-1.115107	-0.412770
C35	C	1.719860	-1.060150	-0.456090
C36	C	1.719804	-0.950426	-0.456070
C37	C	1.652629	-0.895659	-0.412731
C38	C	1.792362	-0.506134	-0.326084
C39	C	1.909139	-0.506143	-0.326088
C40	C	1.518375	-0.506041	-0.502618
C41	C	1.518395	-0.506010	-0.577850
C42	C	1.518419	-0.232081	-0.326103
C43	C	1.518457	-0.115304	-0.326114
C44	C	1.451239	-0.438802	-0.613198
C45	C	1.451254	-0.438782	-0.683886
C46	C	1.518430	-0.505965	-0.719225
C47	C	1.585588	-0.573180	-0.683872
C48	C	1.585567	-0.573205	-0.613185
C49	C	1.585671	-0.573081	-0.968946
C50	C	1.585689	-0.573049	-1.039638
C51	C	1.451358	-0.438659	-1.039647
C52	C	1.451337	-0.438684	-0.968960
C53	C	1.518491	-0.505902	-0.933613
C54	C	1.518473	-0.505925	-0.856964
C55	C	1.518454	-0.505937	-0.795872
C56	C	1.518343	-0.506111	-0.150219
C57	C	1.518527	-0.505846	-0.074987
H58	H	1.217953	-0.640676	-0.412494
N59	N	1.652576	-0.777314	-0.412702
H60	H	1.705289	-0.750806	-0.446717
H61	H	1.580443	-0.751008	-0.425078
H62	H	1.118455	-0.762739	-0.490894
N63	N	1.792304	-1.119203	-0.502840
H64	H	1.867373	-1.100063	-0.492371
H65	H	1.782071	-1.197034	-0.496266
N66	N	0.904883	-0.780556	-0.502327
H67	H	0.956297	-0.823173	-0.529694
H68	H	0.859344	-0.829122	-0.474718
N69	N	1.658050	-0.645642	-0.721979
H70	H	1.641701	-0.720711	-0.709668
H71	H	1.647848	-0.635342	-0.772112
N72	N	0.790817	-0.640706	-0.412524
H73	H	0.764397	-0.693537	-0.446458
H74	H	0.764443	-0.659894	-0.366050
N75	N	1.657995	-0.645698	-0.575058
H76	H	1.700553	-0.688253	-0.608172
H77	H	1.706623	-0.602952	-0.545734
H78	H	1.396634	-1.105291	-0.247504
N79	N	1.378795	-0.366330	-0.575084
H80	H	1.336255	-0.323752	-0.608206
H81	H	1.330150	-0.409097	-0.545747
H82	H	0.919301	-0.384075	-0.247696
H83	H	1.396530	-0.906223	-0.247474
H84	H	1.118370	-0.384034	-0.247689
N85	N	1.792197	-0.891149	-0.502786
H86	H	1.834756	-0.942491	-0.530242
H87	H	1.749371	-0.845625	-0.534076
N88	N	1.378819	-0.366298	-0.722012
H89	H	1.336265	-0.323738	-0.688899
H90	H	1.421609	-0.317673	-0.751351
N91	N	1.652815	-1.233450	-0.412783
H92	H	1.705555	-1.259804	-0.446807
H93	H	1.672165	-1.259815	-0.366341
H94	H	1.396640	-0.383973	-0.940190
N95	N	1.378905	-0.366175	-1.077771
H96	H	1.389099	-0.376357	-1.127913
H97	H	1.303868	-0.382538	-1.065402
H98	H	1.640394	-0.627761	-1.068409
H99	H	1.640340	-0.627826	-0.940175
