data_functionalizedCrystal
_audit_creation_method	'MofGen! by Chris Wilmer'
_symmetry_space_group_name_H-M	'P1'
_symmetry_Int_Tables_number	1
_symmetry_cell_setting	triclinic
loop_
_symmetry_equiv_pos_as_xyz
  x,y,z
_cell_length_a	16.959455
_cell_length_b	16.120444
_cell_length_c	16.959447
_cell_angle_alpha	92.867280
_cell_angle_beta	89.985678
_cell_angle_gamma	92.923490
loop_
_atom_site_label
_atom_site_type_symbol
_atom_site_fract_x
_atom_site_fract_y
_atom_site_fract_z
Zn1	Zn	1.192388	-0.331959	-0.462855
Zn2	Zn	1.692388	0.168041	0.037145
Zn3	Zn	1.185592	-0.471387	-0.337374
Zn4	Zn	1.685592	0.028613	0.162626
Zn5	Zn	1.060215	-0.331985	-0.330694
Zn6	Zn	1.560215	0.168015	0.169306
Zn7	Zn	1.053466	-0.471325	-0.469510
Zn8	Zn	1.553466	0.028675	0.030490
O9	O	1.122915	-0.401664	-0.400108
O10	O	1.622915	0.098336	0.099892
O11	O	1.302097	-0.350469	-0.446221
O12	O	1.802097	0.149531	0.053779
O13	O	1.168941	-0.452932	-0.225879
O14	O	1.668941	0.047068	0.274121
O15	O	1.083417	-0.215316	-0.342645
O16	O	1.583417	0.284684	0.157355
O17	O	1.297104	-0.452907	-0.354030
O18	O	1.797104	0.047093	0.145970
O19	O	1.180524	-0.215296	-0.439743
O20	O	1.680524	0.284704	0.060257
O21	O	1.076827	-0.350514	-0.220971
O22	O	1.576827	0.149486	0.279029
O23	O	0.948710	-0.350454	-0.349097
O24	O	1.448710	0.149546	0.150903
O25	O	1.071914	-0.452801	-0.579236
O26	O	1.571914	0.047199	-0.079236
O27	O	0.943751	-0.452826	-0.451085
O28	O	1.443751	0.047174	0.048915
O29	O	1.173979	-0.350409	-0.574347
O30	O	1.673979	0.149591	-0.074347
O31	O	1.162397	-0.588045	-0.360483
O32	O	1.662397	-0.088045	0.139517
O33	O	1.065324	-0.587999	-0.457563
O34	O	1.565324	-0.087999	0.042437
C35	C	0.917550	-0.401637	-0.400089
C36	C	1.417550	0.098363	0.099911
C37	C	0.829693	-0.401645	-0.400100
C38	C	1.329693	0.098355	0.099900
C39	C	0.460777	-0.348315	-0.347107
C40	C	0.960777	0.151685	0.152893
C41	C	0.455654	-0.455082	-0.453158
C42	C	0.955654	0.044918	0.046842
C43	C	0.538200	-0.455070	-0.453153
C44	C	1.038200	0.044930	0.046847
C45	C	0.582039	-0.401681	-0.400123
C46	C	1.082039	0.098319	0.099877
C47	C	0.543331	-0.348303	-0.347098
C48	C	1.043331	0.151697	0.152902
C49	C	0.576914	-0.508452	-0.506171
C50	C	1.076914	-0.008452	-0.006171
C51	C	0.659466	-0.508443	-0.506167
C52	C	1.159466	-0.008443	-0.006167
C53	C	0.703306	-0.455049	-0.453141
C54	C	1.203306	0.044951	0.046859
C55	C	0.664593	-0.401669	-0.400114
C56	C	1.164593	0.098331	0.099886
C57	C	0.708431	-0.348279	-0.347084
C58	C	1.208431	0.151721	0.152916
C59	C	0.669720	-0.294894	-0.294061
C60	C	1.169720	0.205106	0.205939
C61	C	0.587171	-0.294909	-0.294071
C62	C	1.087171	0.205091	0.205929
C63	C	0.785855	-0.455034	-0.453130
C64	C	1.285855	0.044966	0.046870
C65	C	0.790985	-0.348268	-0.347076
C66	C	1.290985	0.151732	0.152924
C67	C	1.112412	-0.618272	-0.410487
C68	C	1.612412	-0.118272	0.089513
C69	C	1.107991	-0.710938	-0.414954
C70	C	1.607991	-0.210938	0.085046
C71	C	1.146044	-0.921883	-0.377108
C72	C	1.646044	-0.421883	0.122892
C73	C	1.099933	-0.880594	-0.423117
C74	C	1.599933	-0.380594	0.076883
C75	C	1.104418	-0.786189	-0.418574
C76	C	1.604418	-0.286189	0.081426
C77	C	1.141560	-1.016297	-0.381650
C78	C	1.641560	-0.516297	0.118350
C79	C	1.329082	-0.401692	-0.400128
C80	C	1.829082	0.098308	0.099872
C81	C	1.416938	-0.401704	-0.400137
C82	C	1.916938	0.098296	0.099863
C83	C	1.122952	-0.401595	-0.606273
C84	C	1.622952	0.098405	-0.106273
C85	C	1.122967	-0.401566	-0.694129
C86	C	1.622967	0.098434	-0.194129
C87	C	1.133482	-0.184210	-0.389706
C88	C	1.633482	0.315790	0.110294
C89	C	1.137984	-0.091544	-0.385273
C90	C	1.637984	0.408456	0.114727
C91	C	1.069925	-0.454788	-1.068148
C92	C	1.569925	0.045212	-0.568148
C93	C	1.176207	-0.348167	-1.063052
C94	C	1.676207	0.151833	-0.563052
C95	C	1.176185	-0.348185	-0.980507
C96	C	1.676185	0.151815	-0.480507
C97	C	1.123033	-0.401506	-0.941779
C98	C	1.623033	0.098494	-0.441779
C99	C	1.069903	-0.454810	-0.985596
C100	C	1.569903	0.045190	-0.485596
C101	C	1.229319	-0.294888	-0.936684
C102	C	1.729319	0.205112	-0.436684
C103	C	1.229300	-0.294904	-0.854134
C104	C	1.729300	0.205096	-0.354134
C105	C	1.176144	-0.348222	-0.815404
C106	C	1.676144	0.151778	-0.315404
C107	C	1.123011	-0.401527	-0.859226
C108	C	1.623011	0.098473	-0.359226
C109	C	1.069859	-0.454848	-0.820498
C110	C	1.569859	0.045152	-0.320498
C111	C	1.016722	-0.508150	-0.864318
C112	C	1.516722	-0.008150	-0.364318
C113	C	1.016746	-0.508127	-0.946866
C114	C	1.516746	-0.008127	-0.446866
C115	C	1.176119	-0.348244	-0.732857
C116	C	1.676119	0.151756	-0.232857
C117	C	1.069837	-0.454869	-0.737946
C118	C	1.569837	0.045131	-0.237946
C119	C	1.122928	-0.401673	-0.194743
C120	C	1.622928	0.098327	0.305257
C121	C	1.123077	-0.401467	-0.106877
C122	C	1.623077	0.098533	0.393123
H123	H	0.826674	-0.304786	-0.303896
H124	H	1.326674	0.195214	0.196104
C125	C	1.203915	-0.873855	-0.319281
C126	C	1.703915	-0.373855	0.180719
N127	N	1.247499	-0.837670	-0.275723
N128	N	1.747499	-0.337670	0.224277
H129	H	0.541215	-0.551925	-0.549340
H130	H	1.041215	-0.051925	-0.049340
H131	H	0.705424	-0.251428	-0.250881
H132	H	1.205424	0.248572	0.249119
C133	C	1.287774	-0.236230	-0.979290
C134	C	1.787774	0.263770	-0.479290
N135	N	1.331800	-0.192041	-1.011384
N136	N	1.831800	0.307959	-0.511384
H137	H	1.026547	-0.498283	-0.706419
H138	H	1.526547	0.001717	-0.206419
C139	C	0.702040	-0.567164	-0.564496
C140	C	1.202040	-0.067164	-0.064496
N141	N	0.734109	-0.611392	-0.608431
N142	N	1.234109	-0.111392	-0.108431
H143	H	0.973449	-0.551568	-0.832775
H144	H	1.473449	-0.051568	-0.332775
H145	H	0.973487	-0.551525	-0.982552
H146	H	1.473487	-0.051525	-0.482552
H147	H	1.026660	-0.498183	-1.103830
H148	H	1.526660	0.001817	-0.603830
C149	C	0.544582	-0.236194	-0.235748
C150	C	1.044582	0.263806	0.264252
N151	N	0.512501	-0.191973	-0.191818
N152	N	1.012501	0.308027	0.308182
C153	C	1.234665	-0.289512	-1.105656
C154	C	1.734665	0.210488	-0.605656
N155	N	1.278695	-0.245326	-1.137748
N156	N	1.778695	0.254674	-0.637748
C157	C	1.287744	-0.236263	-0.805939
C158	C	1.787744	0.263737	-0.305939
N159	N	1.331761	-0.192091	-0.769637
N160	N	1.831761	0.307909	-0.269637
C161	C	0.418194	-0.289593	-0.288785
C162	C	0.918194	0.210407	0.211215
N163	N	0.386120	-0.245364	-0.244856
N164	N	0.886120	0.254636	0.255144
C165	C	0.407429	-0.513809	-0.511486
C166	C	0.907429	-0.013809	-0.011486
N167	N	0.371102	-0.558042	-0.555423
N168	N	0.871102	-0.058042	-0.055423
H169	H	1.219384	-0.304849	-0.697182
H170	H	1.719384	0.195151	-0.197182
H171	H	1.057089	-0.916147	-0.465920
H172	H	1.557089	-0.416147	0.034080
C173	C	0.828434	-0.513754	-0.511452
C174	C	1.328434	-0.013754	-0.011452
N175	N	0.860503	-0.557983	-0.555385
N176	N	1.360503	-0.057983	-0.055385
