data_functionalizedCrystal
_audit_creation_method	'MofGen! by Chris Wilmer'
_symmetry_space_group_name_H-M	'P1'
_symmetry_Int_Tables_number	1
_symmetry_cell_setting	triclinic
loop_
_symmetry_equiv_pos_as_xyz
  x,y,z
_cell_length_a	19.288864
_cell_length_b	19.188930
_cell_length_c	18.366186
_cell_angle_alpha	89.988632
_cell_angle_beta	89.977106
_cell_angle_gamma	83.140512
loop_
_atom_site_label
_atom_site_type_symbol
_atom_site_fract_x
_atom_site_fract_y
_atom_site_fract_z
O1	O	0.921359	0.087099	-0.060791
O2	O	1.421359	0.587099	0.439209
O3	O	0.719099	0.098849	-0.060743
O4	O	1.219099	0.598849	0.439257
O5	O	0.826066	-0.008682	-0.060754
O6	O	1.326066	0.491318	0.439246
O7	O	0.814393	0.194630	-0.060780
O8	O	1.314393	0.694630	0.439220
O9	O	0.826048	-0.008687	0.060345
O10	O	1.326048	0.491313	0.560345
O11	O	0.719081	0.098843	0.060357
O12	O	1.219081	0.598843	0.560357
O13	O	0.921341	0.087094	0.060308
O14	O	1.421341	0.587094	0.560308
Zn15	Zn	0.820208	0.092968	0.079560
Zn16	Zn	1.320208	0.592968	0.579560
Zn17	Zn	0.820232	0.092975	-0.079994
Zn18	Zn	1.320232	0.592975	0.420006
O19	O	0.814374	0.194625	0.060320
O20	O	1.314374	0.694625	0.560320
C21	C	0.693214	0.098468	-0.000186
C22	C	1.193214	0.598468	0.499814
C23	C	0.616110	0.097333	-0.000167
C24	C	1.116110	0.597333	0.499833
C25	C	0.571419	0.160427	-0.000187
C26	C	1.071419	0.660427	0.499813
C27	C	0.498972	0.159361	-0.000195
C28	C	0.998972	0.659361	0.499805
C29	C	0.471219	0.095197	-0.000198
C30	C	0.971219	0.595197	0.499802
C31	C	0.515921	0.032095	-0.000174
C32	C	1.015921	0.532095	0.499826
C33	C	0.588366	0.033163	-0.000159
C34	C	1.088366	0.533163	0.499841
C35	C	0.362960	0.044759	-0.042642
C36	C	0.862960	0.544759	0.457358
C37	C	0.290515	0.043694	-0.042662
C38	C	0.790515	0.543694	0.457338
C39	C	0.247773	0.091900	-0.000241
C40	C	0.747773	0.591900	0.499759
C41	C	0.277483	0.141184	0.042190
C42	C	0.777483	0.641184	0.542190
C43	C	0.349929	0.142253	0.042205
C44	C	0.849929	0.642253	0.542205
C45	C	0.392665	0.094032	-0.000214
C46	C	0.892665	0.594032	0.499786
C47	C	0.124526	0.153843	-0.000268
C48	C	0.624526	0.653843	0.499732
C49	C	0.052078	0.152774	-0.000272
C50	C	0.552078	0.652774	0.499728
C51	C	0.069028	0.025506	-0.000259
C52	C	0.569028	0.525506	0.499741
C53	C	0.141475	0.026576	-0.000248
C54	C	0.641475	0.526576	0.499752
C55	C	0.169219	0.090747	-0.000256
C56	C	0.669219	0.590747	0.499744
C57	C	0.825679	-0.034696	-0.000202
C58	C	1.325679	0.465304	0.499798
C59	C	0.824544	-0.112200	-0.000196
C60	C	1.324544	0.387800	0.499804
C61	C	0.887309	-0.157129	-0.000207
C62	C	1.387309	0.342871	0.499793
C63	C	0.886243	-0.229953	-0.000219
C64	C	1.386243	0.270047	0.499781
C65	C	0.822408	-0.257844	-0.000204
C66	C	1.322408	0.242156	0.499796
C67	C	0.759636	-0.212906	-0.000196
C68	C	1.259636	0.287094	0.499804
C69	C	0.760704	-0.140084	-0.000192
C70	C	1.260704	0.359916	0.499808
N71	N	0.773609	-0.365847	0.041020
N72	N	1.273609	0.134153	0.541020
N73	N	0.772598	-0.435026	0.041018
N74	N	1.272598	0.064974	0.541018
C75	C	0.819187	-0.477253	-0.000218
C76	C	1.319187	0.022747	0.499782
N77	N	0.866835	-0.447689	-0.041442
N78	N	1.366835	0.052311	0.458558
N79	N	0.867847	-0.378504	-0.041436
N80	N	1.367847	0.121496	0.458564
C81	C	0.821243	-0.336807	-0.000209
C82	C	1.321243	0.163193	0.499791
C83	C	0.880800	-0.601146	-0.000243
C84	C	1.380800	-0.101146	0.499757
C85	C	0.879731	-0.673971	-0.000259
C86	C	1.379731	-0.173971	0.499741
C87	C	0.753122	-0.656922	-0.000229
C88	C	1.253122	-0.156922	0.499771
C89	C	0.754193	-0.584099	-0.000220
C90	C	1.254193	-0.084099	0.499780
C91	C	0.818034	-0.556216	-0.000224
C92	C	1.318034	-0.056216	0.499776
C93	C	0.947227	0.087475	-0.000250
C94	C	1.447227	0.587475	0.499750
C95	C	1.024330	0.088609	-0.000274
C96	C	1.524330	0.588609	0.499726
C97	C	0.814762	0.220638	-0.000234
C98	C	1.314762	0.720638	0.499766
C99	C	0.815896	0.298143	-0.000245
C100	C	1.315896	0.798143	0.499755
N101	N	0.820197	0.092963	0.188451
N102	N	1.320197	0.592963	0.688451
N103	N	0.820249	0.092974	-0.188885
N104	N	1.320249	0.592974	0.311115
C105	C	0.867577	0.045371	0.226546
C106	C	1.367577	0.545371	0.726546
C107	C	0.867582	0.045368	0.302774
C108	C	1.367582	0.545368	0.802774
C109	C	0.820213	0.092968	0.340903
C110	C	1.320213	0.592968	0.840903
C111	C	0.772823	0.140563	0.302799
C112	C	1.272823	0.640563	0.802799
C113	C	0.772816	0.140560	0.226573
C114	C	1.272816	0.640560	0.726573
C115	C	0.810919	0.156585	0.461657
C116	C	1.310919	0.656585	0.961657
C117	C	0.810932	0.156589	0.537882
C118	C	1.310932	0.656589	1.037882
C119	C	0.820232	0.092977	0.576011
C120	C	1.320232	0.592977	1.076011
C121	C	0.829535	0.029359	0.537906
C122	C	1.329535	0.529359	1.037906
C123	C	0.829527	0.029356	0.461679
C124	C	1.329527	0.529356	0.961679
C125	C	0.820215	0.092977	0.423558
C126	C	1.320215	0.592977	0.923558
C127	C	0.867620	0.045378	0.696761
C128	C	1.367620	0.545378	1.196761
C129	C	0.867620	0.045374	0.772990
C130	C	1.367620	0.545374	1.272990
C131	C	0.772864	0.140576	0.773014
C132	C	1.272864	0.640576	1.273014
C133	C	0.772862	0.140574	0.696786
C134	C	1.272862	0.640574	1.196786
C135	C	0.820243	0.092976	0.658664
C136	C	1.320243	0.592976	1.158664
H137	H	0.177864	-0.024802	-0.000236
H138	H	0.677864	0.475198	0.499764
C139	C	0.720758	0.192937	0.814952
C140	C	1.220758	0.692937	1.314952
N141	N	0.681509	0.232377	0.846544
N142	N	1.181509	0.732377	1.346544
C143	C	0.957536	-0.126462	-0.000217
C144	C	1.457536	0.373538	0.499783
N145	N	1.010431	-0.103362	-0.000227
N146	N	1.510431	0.396638	0.499773
C147	C	0.839765	-0.040621	0.579841
C148	C	1.339765	0.459379	1.079841
N149	N	0.847470	-0.093327	0.611431
N150	N	1.347470	0.406673	1.111431
C151	C	0.720721	0.192947	0.184667
C152	C	1.220721	0.692947	0.684667
N153	N	0.681495	0.232417	0.153102
N154	N	1.181495	0.732417	0.653102
H155	H	0.594003	0.212680	-0.000195
H156	H	1.094003	0.712680	0.499805
H157	H	0.930844	-0.710552	-0.000272
H158	H	1.430844	-0.210552	0.499728
H159	H	0.462577	0.210742	-0.000208
H160	H	0.962577	0.710742	0.499792
H161	H	0.709591	-0.103502	-0.000183
H162	H	1.209591	0.396498	0.499817
C163	C	0.800687	0.226568	0.419723
C164	C	1.300687	0.726568	0.919723
N165	N	0.792981	0.279277	0.388139
N166	N	1.292981	0.779277	0.888139
C167	C	0.689418	-0.243588	-0.000175
C168	C	1.189418	0.256412	0.499825
N169	N	0.636527	-0.266698	-0.000159
N170	N	1.136527	0.233302	0.499841
C171	C	0.839751	-0.040623	0.419766
C172	C	1.339751	0.459377	0.919766
N173	N	0.847448	-0.093333	0.388197
N174	N	1.347448	0.406667	0.888197
C175	C	0.720789	0.192979	0.654880
C176	C	1.220789	0.692979	1.154880
N177	N	0.681581	0.232469	0.623316
N178	N	1.181581	0.732469	1.123316
H179	H	0.397755	0.005502	-0.077191
H180	H	0.897755	0.505502	0.422809
H181	H	0.624755	-0.018218	-0.000144
H182	H	1.124755	0.481782	0.499856
H183	H	0.937355	-0.266541	-0.000231
H184	H	1.437355	0.233459	0.499769
H185	H	0.906157	0.006613	0.195509
H186	H	1.406157	0.506613	0.695509
H187	H	0.906199	0.006619	0.665721
H188	H	1.406199	0.506619	1.165721
C189	C	0.951025	-0.570472	-0.000258
C190	C	1.451025	-0.070472	0.499742
N191	N	1.003920	-0.547370	-0.000271
N192	N	1.503920	-0.047370	0.499729
C193	C	0.682904	-0.687599	-0.000215
C194	C	1.182904	-0.187599	0.499785
N195	N	0.630013	-0.710708	-0.000207
N196	N	1.130013	-0.210708	0.499793
H197	H	0.703083	-0.547517	-0.000207
H198	H	1.203083	-0.047517	0.499793
C199	C	0.919713	-0.006981	0.344687
C200	C	1.419713	0.493019	0.844687
N201	N	0.958981	-0.046408	0.376254
N202	N	1.458981	0.453592	0.876254
C203	C	0.919733	-0.006995	0.814895
C204	C	1.419733	0.493005	1.314895
N205	N	0.958982	-0.046443	0.846458
N206	N	1.458982	0.453557	1.346458
H207	H	0.242684	0.180439	0.076733
H208	H	0.742684	0.680439	0.576733
H209	H	0.803361	0.208391	0.568902
H210	H	1.303361	0.708391	1.068902
H211	H	0.493320	-0.020148	-0.000187
H212	H	0.993320	0.479852	0.499813
H213	H	0.734253	0.179319	0.333848
H214	H	1.234253	0.679319	0.833848
H215	H	0.015690	0.204155	-0.000283
H216	H	0.515690	0.704155	0.499717
C217	C	0.382608	0.196457	0.088886
C218	C	0.882608	0.696457	0.588886
N219	N	0.407223	0.237282	0.124050
N220	N	0.907223	0.737282	0.624050
H221	H	0.046433	-0.026738	-0.000306
H222	H	0.546433	0.473262	0.499694
H223	H	0.266331	0.003566	-0.077215
H224	H	0.766331	0.503566	0.422785
C225	C	0.155047	0.224431	-0.000268
C226	C	0.655047	0.724431	0.499732
N227	N	0.178033	0.277599	-0.000267
N228	N	0.678033	0.777599	0.499733
