data_functionalizedCrystal
_audit_creation_method	'MofGen! by Chris Wilmer'
_symmetry_space_group_name_H-M	'P1'
_symmetry_Int_Tables_number	1
_symmetry_cell_setting	triclinic
loop_
_symmetry_equiv_pos_as_xyz
  x,y,z
_cell_length_a	19.288840
_cell_length_b	22.610064
_cell_length_c	23.532357
_cell_angle_alpha	89.998517
_cell_angle_beta	97.022847
_cell_angle_gamma	90.015423
loop_
_atom_site_label
_atom_site_type_symbol
_atom_site_fract_x
_atom_site_fract_y
_atom_site_fract_z
O1	O	0.921130	0.049290	-0.070970
O2	O	1.171130	0.299290	0.179030
O3	O	1.421130	0.549290	0.429030
O4	O	1.671130	0.799290	0.679030
O5	O	0.718835	0.049271	-0.080569
O6	O	0.968835	0.299271	0.169431
O7	O	1.218835	0.549271	0.419431
O8	O	1.468835	0.799271	0.669431
O9	O	0.826101	0.049269	0.007152
O10	O	1.076101	0.299269	0.257152
O11	O	1.326101	0.549269	0.507152
O12	O	1.576101	0.799269	0.757152
O13	O	0.813864	0.049292	-0.158691
O14	O	1.063864	0.299292	0.091309
O15	O	1.313864	0.549292	0.341309
O16	O	1.563864	0.799292	0.591309
O17	O	0.826082	-0.049100	0.007139
O18	O	1.076082	0.200900	0.257139
O19	O	1.326082	0.450900	0.507139
O20	O	1.576082	0.700900	0.757139
O21	O	0.718816	-0.049098	-0.080582
O22	O	0.968816	0.200902	0.169418
O23	O	1.218816	0.450902	0.419418
O24	O	1.468816	0.700902	0.669418
O25	O	0.921111	-0.049079	-0.070983
O26	O	1.171111	0.200921	0.179017
O27	O	1.421111	0.450921	0.429017
O28	O	1.671111	0.700921	0.679017
Zn29	Zn	0.819961	-0.064707	-0.075785
Zn30	Zn	1.069961	0.185293	0.174215
Zn31	Zn	1.319961	0.435293	0.424215
Zn32	Zn	1.569961	0.685293	0.674215
Zn33	Zn	0.819985	0.064899	-0.075768
Zn34	Zn	1.069985	0.314899	0.174232
Zn35	Zn	1.319985	0.564899	0.424232
Zn36	Zn	1.569985	0.814899	0.674232
O37	O	0.813845	-0.049077	-0.158704
O38	O	1.063845	0.200923	0.091296
O39	O	1.313845	0.450923	0.341296
O40	O	1.563845	0.700923	0.591296
C41	C	0.692950	0.000084	-0.080269
C42	C	0.942950	0.250084	0.169731
C43	C	1.192950	0.500084	0.419731
C44	C	1.442950	0.750084	0.669731
C45	C	0.615848	0.000076	-0.079349
C46	C	0.865848	0.250076	0.170651
C47	C	1.115848	0.500076	0.420651
C48	C	1.365848	0.750076	0.670651
N49	N	0.819949	-0.153159	-0.075796
N50	N	1.069949	0.096841	0.174204
N51	N	1.319949	0.346841	0.424204
N52	N	1.569949	0.596841	0.674204
C53	C	0.579657	0.053698	-0.078900
C54	C	0.829657	0.303698	0.171100
C55	C	1.079657	0.553698	0.421100
C56	C	1.329657	0.803698	0.671100
C57	C	0.507213	0.053705	-0.078030
C58	C	0.757213	0.303705	0.171970
C59	C	1.007213	0.553705	0.421970
C60	C	1.257213	0.803705	0.671970
C61	C	0.470965	0.000087	-0.077596
C62	C	0.720965	0.250087	0.172404
C63	C	0.970965	0.500087	0.422404
C64	C	1.220965	0.750087	0.672404
C65	C	0.507165	-0.053543	-0.078049
C66	C	0.757165	0.196457	0.171951
C67	C	1.007165	0.446457	0.421951
C68	C	1.257165	0.696457	0.671951
C69	C	0.579607	-0.053548	-0.078925
C70	C	0.829607	0.196452	0.171075
C71	C	1.079607	0.446452	0.421075
C72	C	1.329607	0.696452	0.671075
C73	C	0.361744	-0.040989	-0.042854
C74	C	0.611744	0.209011	0.207146
C75	C	0.861744	0.459011	0.457146
C76	C	1.111744	0.709011	0.707146
C77	C	0.289304	-0.040981	-0.041974
C78	C	0.539304	0.209019	0.208026
C79	C	0.789304	0.459019	0.458026
C80	C	1.039304	0.709019	0.708026
C81	C	0.247530	0.000102	-0.074895
C82	C	0.497530	0.250102	0.175105
C83	C	0.747530	0.500102	0.425105
C84	C	0.997530	0.750102	0.675105
C85	C	0.278206	0.041187	-0.108689
C86	C	0.528206	0.291187	0.141311
C87	C	0.778206	0.541187	0.391311
C88	C	1.028206	0.791187	0.641311
C89	C	0.350648	0.041181	-0.109566
C90	C	0.600648	0.291181	0.140434
C91	C	0.850648	0.541181	0.390434
C92	C	1.100648	0.791181	0.640434
C93	C	0.392414	0.000087	-0.076646
C94	C	0.642414	0.250087	0.173354
C95	C	0.892414	0.500087	0.423354
C96	C	1.142414	0.750087	0.673354
C97	C	0.132786	0.053736	-0.073503
C98	C	0.382786	0.303736	0.176497
C99	C	0.632786	0.553736	0.426497
C100	C	0.882786	0.803736	0.676497
C101	C	0.060340	0.053741	-0.072636
C102	C	0.310340	0.303741	0.177364
C103	C	0.560340	0.553741	0.427364
C104	C	0.810340	0.803741	0.677364
C105	C	0.060295	-0.053509	-0.072649
C106	C	0.310295	0.196491	0.177351
C107	C	0.560295	0.446491	0.427351
C108	C	0.810295	0.696491	0.677351
C109	C	0.132739	-0.053512	-0.073522
C110	C	0.382739	0.196488	0.176478
C111	C	0.632739	0.446488	0.426478
C112	C	0.882739	0.696488	0.676478
C113	C	0.168980	0.000112	-0.073946
C114	C	0.418980	0.250112	0.176054
C115	C	0.668980	0.500112	0.426054
C116	C	0.918980	0.750112	0.676054
C117	C	0.867485	-0.561801	-0.036931
C118	C	1.117485	-0.311801	0.213069
C119	C	1.367485	-0.061801	0.463069
C120	C	1.617485	0.188199	0.713069
C121	C	0.867488	-0.623721	-0.036927
C122	C	1.117488	-0.373721	0.213073
C123	C	1.367488	-0.123721	0.463073
C124	C	1.617488	0.126279	0.713073
O125	O	0.907876	-0.655741	-0.003891
O126	O	1.157876	-0.405741	0.246109
O127	O	1.407876	-0.155741	0.496109
O128	O	1.657876	0.094259	0.746109
N129	N	0.819985	-0.654696	-0.075756
N130	N	1.069985	-0.404696	0.174244
N131	N	1.319985	-0.154696	0.424244
N132	N	1.569985	0.095304	0.674244
C133	C	0.772470	-0.623748	-0.114588
C134	C	1.022470	-0.373748	0.135412
C135	C	1.272470	-0.123748	0.385412
C136	C	1.522470	0.126252	0.635412
O137	O	0.732065	-0.655781	-0.147615
O138	O	0.982065	-0.405781	0.102385
O139	O	1.232065	-0.155781	0.352385
O140	O	1.482065	0.094219	0.602385
C141	C	0.772464	-0.561830	-0.114589
C142	C	1.022464	-0.311830	0.135411
C143	C	1.272464	-0.061830	0.385411
C144	C	1.522464	0.188170	0.635411
C145	C	0.819975	-0.530858	-0.075761
C146	C	1.069975	-0.280858	0.174239
C147	C	1.319975	-0.030858	0.424239
C148	C	1.569975	0.219142	0.674239
C149	C	0.914992	-0.530829	0.001894
C150	C	1.164992	-0.280829	0.251894
C151	C	1.414992	-0.030829	0.501894
C152	C	1.664992	0.219171	0.751894
C153	C	0.914989	-0.468914	0.001889
C154	C	1.164989	-0.218914	0.251889
C155	C	1.414989	0.031086	0.501889
C156	C	1.664989	0.281086	0.751889
C157	C	0.867479	-0.437970	-0.036941
C158	C	1.117479	-0.187970	0.213059
C159	C	1.367479	0.062030	0.463059
C160	C	1.617479	0.312030	0.713059
C161	C	0.819972	-0.468942	-0.075766
C162	C	1.069972	-0.218942	0.174234
C163	C	1.319972	0.031058	0.424234
C164	C	1.569972	0.281058	0.674234
C165	C	0.724946	-0.530883	-0.153418
C166	C	0.974946	-0.280883	0.096582
C167	C	1.224946	-0.030883	0.346582
C168	C	1.474946	0.219117	0.596582
C169	C	0.724944	-0.468960	-0.153415
C170	C	0.974944	-0.218960	0.096585
C171	C	1.224944	0.031040	0.346585
C172	C	1.474944	0.281040	0.596585
C173	C	0.772455	-0.437988	-0.114587
C174	C	1.022455	-0.187988	0.135413
C175	C	1.272455	0.062012	0.385413
C176	C	1.522455	0.312012	0.635413
C177	C	0.772460	-0.376083	-0.114601
C178	C	1.022460	-0.126083	0.135399
C179	C	1.272460	0.123917	0.385399
C180	C	1.522460	0.373917	0.635399
N181	N	0.819963	-0.345108	-0.075772
N182	N	1.069963	-0.095108	0.174228
N183	N	1.319963	0.154892	0.424228
N184	N	1.569963	0.404892	0.674228
C185	C	0.867473	-0.376051	-0.036942
C186	C	1.117473	-0.126051	0.213058
C187	C	1.367473	0.123949	0.463058
C188	C	1.617473	0.373949	0.713058
C189	C	0.772486	-0.753782	-0.114582
C190	C	1.022486	-0.503782	0.135418
C191	C	1.272486	-0.253782	0.385418
C192	C	1.522486	-0.003782	0.635418
C193	C	0.772495	-0.815700	-0.114585
C194	C	1.022495	-0.565700	0.135415
C195	C	1.272495	-0.315700	0.385415
C196	C	1.522495	-0.065700	0.635415
C197	C	0.867513	-0.815668	-0.036923
C198	C	1.117513	-0.565668	0.213077
C199	C	1.367513	-0.315668	0.463077
C200	C	1.617513	-0.065668	0.713077
C201	C	0.867507	-0.753750	-0.036923
C202	C	1.117507	-0.503750	0.213077
C203	C	1.367507	-0.253750	0.463077
C204	C	1.617507	-0.003750	0.713077
C205	C	0.819990	-0.722807	-0.075753
C206	C	1.069990	-0.472807	0.174247
C207	C	1.319990	-0.222807	0.424247
C208	C	1.569990	0.027193	0.674247
C209	C	0.867463	-0.246024	-0.036956
C210	C	1.117463	0.003976	0.213044
C211	C	1.367463	0.253976	0.463044
C212	C	1.617463	0.503976	0.713044
C213	C	0.867458	-0.184103	-0.036966
C214	C	1.117458	0.065897	0.213034
C215	C	1.367458	0.315897	0.463034
C216	C	1.617458	0.565897	0.713034
C217	C	0.772439	-0.184140	-0.114626
C218	C	1.022439	0.065860	0.135374
C219	C	1.272439	0.315860	0.385374
C220	C	1.522439	0.565860	0.635374
C221	C	0.772446	-0.246055	-0.114618
C222	C	1.022446	0.003945	0.135382
C223	C	1.272446	0.253945	0.385382
C224	C	1.522446	0.503945	0.635382
C225	C	0.819961	-0.276996	-0.075778
C226	C	1.069961	-0.026996	0.174222
C227	C	1.319961	0.223004	0.424222
C228	C	1.569961	0.473004	0.674222
O229	O	0.732091	-0.344024	-0.147619
O230	O	0.982091	-0.094024	0.102381
O231	O	1.232091	0.155976	0.352381
O232	O	1.482091	0.405976	0.602381
O233	O	0.907865	-0.344011	-0.003916
O234	O	1.157865	-0.094011	0.246084
O235	O	1.407865	0.155989	0.496084
O236	O	1.657865	0.405989	0.746084
C237	C	0.946996	0.000110	-0.071283
C238	C	1.196996	0.250110	0.178717
C239	C	1.446996	0.500110	0.428717
C240	C	1.696996	0.750110	0.678717
C241	C	1.024098	0.000122	-0.072203
C242	C	1.274098	0.250122	0.177797
C243	C	1.524098	0.500122	0.427797
C244	C	1.774098	0.750122	0.677797
C245	C	0.825785	0.000083	0.028362
C246	C	1.075785	0.250083	0.278362
C247	C	1.325785	0.500083	0.528362
C248	C	1.575785	0.750083	0.778362
C249	C	0.824865	0.000077	0.091583
C250	C	1.074865	0.250077	0.341583
C251	C	1.324865	0.500077	0.591583
C252	C	1.574865	0.750077	0.841583
N253	N	0.820003	0.153351	-0.075752
N254	N	1.070003	0.403351	0.174248
N255	N	1.320003	0.653351	0.424248
N256	N	1.570003	0.903351	0.674248
C257	C	0.814161	0.000111	-0.179915
C258	C	1.064161	0.250111	0.070085
C259	C	1.314161	0.500111	0.320085
C260	C	1.564161	0.750111	0.570085
C261	C	0.815081	0.000120	-0.243135
C262	C	1.065081	0.250120	0.006865
C263	C	1.315081	0.500120	0.256865
C264	C	1.565081	0.750120	0.506865
C265	C	0.819098	0.053729	0.483613
C266	C	1.069098	0.303729	0.733613
C267	C	1.319098	0.553729	0.983613
C268	C	1.569098	0.803729	1.233613
C269	C	0.818223	0.053733	0.543014
C270	C	1.068223	0.303733	0.793014
C271	C	1.318223	0.553733	1.043014
C272	C	1.568223	0.803733	1.293014
O273	O	0.817756	0.099335	0.573737
O274	O	1.067756	0.349335	0.823737
O275	O	1.317756	0.599335	1.073737
O276	O	1.567756	0.849335	1.323737
N277	N	0.817779	0.000112	0.572719
N278	N	1.067779	0.250112	0.822719
N279	N	1.317779	0.500112	1.072719
N280	N	1.567779	0.750112	1.322719
C281	C	0.818203	-0.053515	0.543019
C282	C	1.068203	0.196485	0.793019
C283	C	1.318203	0.446485	1.043019
C284	C	1.568203	0.696485	1.293019
O285	O	0.817744	-0.099123	0.573740
O286	O	1.067744	0.150877	0.823740
O287	O	1.317744	0.400877	1.073740
O288	O	1.567744	0.650877	1.323740
C289	C	0.819073	-0.053517	0.483618
C290	C	1.069073	0.196483	0.733618
C291	C	1.319073	0.446483	0.983618
C292	C	1.569073	0.696483	1.233618
C293	C	0.819524	0.000106	0.453917
C294	C	1.069524	0.250106	0.703917
C295	C	1.319524	0.500106	0.953917
C296	C	1.569524	0.750106	1.203917
C297	C	0.819549	0.107349	0.453911
C298	C	1.069549	0.357349	0.703911
C299	C	1.319549	0.607349	0.953911
C300	C	1.569549	0.857349	1.203911
C301	C	0.820425	0.107345	0.394514
C302	C	1.070425	0.357345	0.644514
C303	C	1.320425	0.607345	0.894514
C304	C	1.570425	0.857345	1.144514
C305	C	0.820850	0.053722	0.364819
C306	C	1.070850	0.303722	0.614819
C307	C	1.320850	0.553722	0.864819
C308	C	1.570850	0.803722	1.114819
C309	C	0.820400	0.000103	0.394520
C310	C	1.070400	0.250103	0.644520
C311	C	1.320400	0.500103	0.894520
C312	C	1.570400	0.750103	1.144520
C313	C	0.819491	-0.107144	0.453919
C314	C	1.069491	0.142856	0.703919
C315	C	1.319491	0.392856	0.953919
C316	C	1.569491	0.642856	1.203919
C317	C	0.820361	-0.107142	0.394514
C318	C	1.070361	0.142858	0.644514
C319	C	1.320361	0.392858	0.894514
C320	C	1.570361	0.642858	1.144514
C321	C	0.820812	-0.053518	0.364813
C322	C	1.070812	0.196482	0.614813
C323	C	1.320812	0.446482	0.864813
C324	C	1.570812	0.696482	1.114813
C325	C	0.821702	-0.053524	0.305428
C326	C	1.071702	0.196476	0.555428
C327	C	1.321702	0.446476	0.805428
C328	C	1.571702	0.696476	1.055428
N329	N	0.822146	0.000097	0.275722
N330	N	1.072146	0.250097	0.525722
N331	N	1.322146	0.500097	0.775722
N332	N	1.572146	0.750097	1.025722
C333	C	0.821720	0.053720	0.305418
C334	C	1.071720	0.303720	0.555418
C335	C	1.321720	0.553720	0.805418
C336	C	1.571720	0.803720	1.055418
C337	C	0.816375	-0.053505	0.667764
C338	C	1.066375	0.196495	0.917764
C339	C	1.316375	0.446495	1.167764
C340	C	1.566375	0.696495	1.417764
C341	C	0.815510	-0.053503	0.727164
C342	C	1.065510	0.196497	0.977164
C343	C	1.315510	0.446497	1.227164
C344	C	1.565510	0.696497	1.477164
C345	C	0.815530	0.053745	0.727155
C346	C	1.065530	0.303745	0.977155
C347	C	1.315530	0.553745	1.227155
C348	C	1.565530	0.803745	1.477155
C349	C	0.816399	0.053742	0.667754
C350	C	1.066399	0.303742	0.917754
C351	C	1.316399	0.553742	1.167754
C352	C	1.566399	0.803742	1.417754
C353	C	0.816819	0.000115	0.638059
C354	C	1.066819	0.250115	0.888059
C355	C	1.316819	0.500115	1.138059
C356	C	1.566819	0.750115	1.388059
C357	C	0.823560	0.053708	0.180680
C358	C	1.073560	0.303708	0.430680
C359	C	1.323560	0.553708	0.680680
C360	C	1.573560	0.803708	0.930680
C361	C	0.824439	0.053700	0.121278
C362	C	1.074439	0.303700	0.371278
C363	C	1.324439	0.553700	0.621278
C364	C	1.574439	0.803700	0.871278
C365	C	0.824416	-0.053547	0.121292
C366	C	1.074416	0.196453	0.371292
C367	C	1.324416	0.446453	0.621292
C368	C	1.574416	0.696453	0.871292
C369	C	0.823541	-0.053539	0.180690
C370	C	1.073541	0.196461	0.430690
C371	C	1.323541	0.446461	0.680690
C372	C	1.573541	0.696461	0.930690
C373	C	0.823111	0.000093	0.210382
C374	C	1.073111	0.250093	0.460382
C375	C	1.323111	0.500093	0.710382
C376	C	1.573111	0.750093	0.960382
O377	O	0.822166	-0.099103	0.274666
O378	O	1.072166	0.150897	0.524666
O379	O	1.322166	0.400897	0.774666
O380	O	1.572166	0.650897	1.024666
O381	O	0.822170	0.099320	0.274689
O382	O	1.072170	0.349320	0.524689
O383	O	1.322170	0.599320	0.774689
O384	O	1.572170	0.849320	1.024689
H385	H	0.609160	0.097363	-0.079246
H386	H	0.859160	0.347363	0.170754
H387	H	1.109160	0.597363	0.420754
H388	H	1.359160	0.847363	0.670754
H389	H	0.686248	-0.443769	-0.185035
H390	H	0.936248	-0.193769	0.064965
H391	H	1.186248	0.056231	0.314965
H392	H	1.436248	0.306231	0.564965
F393	F	0.815043	-0.110577	0.758769
F394	F	1.065043	0.139423	1.008769
F395	F	1.315043	0.389423	1.258769
F396	F	1.565043	0.639423	1.508769
F397	F	0.965561	-0.563754	0.043227
F398	F	1.215561	-0.313754	0.293227
F399	F	1.465561	-0.063754	0.543227
F400	F	1.715561	0.186246	0.793227
F401	F	0.816828	-0.110586	0.636166
F402	F	1.066828	0.139414	0.886166
F403	F	1.316828	0.389414	1.136166
F404	F	1.566828	0.639414	1.386166
F405	F	0.468586	-0.110607	-0.077590
F406	F	0.718586	0.139393	0.172410
F407	F	0.968586	0.389393	0.422410
F408	F	1.218586	0.639393	0.672410
F409	F	0.819008	-0.164219	0.485516
F410	F	1.069008	0.085781	0.735516
F411	F	1.319008	0.335781	0.985516
F412	F	1.569008	0.585781	1.235516
H413	H	0.906150	-0.158887	-0.005347
H414	H	1.156150	0.091113	0.244653
H415	H	1.406150	0.341113	0.494653
H416	H	1.656150	0.591113	0.744653
F417	F	0.819095	0.164427	0.485507
F418	F	1.069095	0.414427	0.735507
F419	F	1.319095	0.664427	0.985507
F420	F	1.569095	0.914427	1.235507
F421	F	0.918034	-0.278944	0.004382
F422	F	1.168034	-0.028944	0.254382
F423	F	1.418034	0.221056	0.504382
F424	F	1.668034	0.471056	0.754382
F425	F	0.820900	0.164420	0.362911
F426	F	1.070900	0.414420	0.612911
F427	F	1.320900	0.664420	0.862911
F428	F	1.570900	0.914420	1.112911
F429	F	0.815072	0.110816	0.758769
F430	F	1.065072	0.360816	1.008769
F431	F	1.315072	0.610816	1.258769
F432	F	1.565072	0.860816	1.508769
H433	H	0.733794	-0.728591	-0.146207
H434	H	0.983794	-0.478591	0.103793
H435	H	1.233794	-0.228591	0.353793
H436	H	1.483794	0.021409	0.603793
H437	H	0.820692	-0.150812	0.370338
H438	H	1.070692	0.099188	0.620338
H439	H	1.320692	0.349188	0.870338
H440	H	1.570692	0.599188	1.120338
H441	H	0.733765	-0.271273	-0.146241
H442	H	0.983765	-0.021273	0.103759
H443	H	1.233765	0.228727	0.353759
H444	H	1.483765	0.478727	0.603759
F445	F	0.468687	0.110780	-0.077552
F446	F	0.718687	0.360780	0.172448
F447	F	0.968687	0.610780	0.422448
F448	F	1.218687	0.860780	0.672448
H449	H	0.162207	-0.097178	-0.073884
H450	H	0.412207	0.152822	0.176116
H451	H	0.662207	0.402822	0.426116
H452	H	0.912207	0.652822	0.676116
H453	H	0.953674	-0.443700	0.033508
H454	H	1.203674	-0.193700	0.283508
H455	H	1.453674	0.056300	0.533508
H456	H	1.703674	0.306300	0.783508
F457	F	0.824922	0.110776	0.089672
F458	F	1.074922	0.360776	0.339672
F459	F	1.324922	0.610776	0.589672
F460	F	1.574922	0.860776	0.839672
F461	F	0.618126	-0.110623	-0.079403
F462	F	0.868126	0.139377	0.170597
F463	F	1.118126	0.389377	0.420597
F464	F	1.368126	0.639377	0.670597
H465	H	0.162295	0.097400	-0.073854
H466	H	0.412295	0.347400	0.176146
H467	H	0.662295	0.597400	0.426146
H468	H	0.912295	0.847400	0.676146
F469	F	0.918073	-0.720793	0.004403
F470	F	1.168073	-0.470793	0.254403
F471	F	1.418073	-0.220793	0.504403
F472	F	1.668073	0.029207	0.754403
H473	H	0.823180	-0.097204	0.204874
H474	H	1.073180	0.152796	0.454874
H475	H	1.323180	0.402796	0.704874
H476	H	1.573180	0.652796	0.954874
H477	H	0.906197	-0.840874	-0.005304
H478	H	1.156197	-0.590874	0.244696
H479	H	1.406197	-0.340874	0.494696
H480	H	1.656197	-0.090874	0.744696
H481	H	0.733759	-0.158936	-0.146242
H482	H	0.983759	0.091064	0.103758
H483	H	1.233759	0.341064	0.353758
H484	H	1.483759	0.591064	0.603758
F485	F	0.721936	-0.848656	-0.155917
F486	F	0.971936	-0.598656	0.094083
F487	F	1.221936	-0.348656	0.344083
F488	F	1.471936	-0.098656	0.594083
F489	F	0.674378	-0.563834	-0.194743
F490	F	0.924378	-0.313834	0.055257
F491	F	1.174378	-0.063834	0.305257
F492	F	1.424378	0.186166	0.555257
H493	H	0.264335	-0.074432	-0.014454
H494	H	0.514335	0.175568	0.235546
H495	H	0.764335	0.425568	0.485546
H496	H	1.014335	0.675568	0.735546
H497	H	0.823207	0.097381	0.204848
H498	H	1.073207	0.347381	0.454848
H499	H	1.323207	0.597381	0.704848
H500	H	1.573207	0.847381	0.954848
F501	F	0.816878	0.110815	0.636149
F502	F	1.066878	0.360815	0.886149
F503	F	1.316878	0.610815	1.136149
F504	F	1.566878	0.860815	1.386149
H505	H	0.375621	0.074633	-0.137083
H506	H	0.625621	0.324633	0.112917
H507	H	0.875621	0.574633	0.362917
H508	H	1.125621	0.824633	0.612917
F509	F	0.824871	-0.110614	0.089678
F510	F	1.074871	0.139386	0.339678
F511	F	1.324871	0.389386	0.589678
F512	F	1.574871	0.639386	0.839678
H513	H	0.244194	0.074639	-0.135499
H514	H	0.494194	0.324639	0.114501
H515	H	0.744194	0.574639	0.364501
H516	H	0.994194	0.824639	0.614501
H517	H	0.030782	-0.097166	-0.072300
H518	H	0.280782	0.152834	0.177700
H519	H	0.530782	0.402834	0.427700
H520	H	0.780782	0.652834	0.677700
F521	F	0.406197	-0.084719	-0.007814
F522	F	0.656197	0.165281	0.242186
F523	F	0.906197	0.415281	0.492186
F524	F	1.156197	0.665281	0.742186
F525	F	0.021822	0.110816	-0.072162
F526	F	0.271822	0.360816	0.177838
F527	F	0.521822	0.610816	0.427838
F528	F	0.771822	0.860816	0.677838
