data_functionalizedCrystal
_audit_creation_method	'MofGen! by Chris Wilmer'
_symmetry_space_group_name_H-M	'P1'
_symmetry_Int_Tables_number	1
_symmetry_cell_setting	triclinic
loop_
_symmetry_equiv_pos_as_xyz
  x,y,z
_cell_length_a	17.019282
_cell_length_b	17.019294
_cell_length_c	13.596369
_cell_angle_alpha	86.115041
_cell_angle_beta	93.875895
_cell_angle_gamma	83.655696
loop_
_atom_site_label
_atom_site_type_symbol
_atom_site_fract_x
_atom_site_fract_y
_atom_site_fract_z
O1	O	1.046568	0.100443	-0.001622
O2	O	1.546568	0.600443	0.498378
O3	O	0.816888	0.113271	-0.022171
O4	O	1.316888	0.613271	0.477829
O5	O	0.938135	-0.007983	-0.001622
O6	O	1.438135	0.492017	0.498378
O7	O	0.925321	0.221698	-0.022171
O8	O	1.425321	0.721698	0.477829
O9	O	0.938123	-0.007990	0.161960
O10	O	1.438123	0.492010	0.661960
O11	O	0.816876	0.113265	0.141412
O12	O	1.316876	0.613265	0.641412
O13	O	1.046556	0.100437	0.161960
O14	O	1.546556	0.600437	0.661960
Zn15	Zn	0.931714	0.106850	0.177658
Zn16	Zn	1.431714	0.606850	0.677658
Zn17	Zn	0.931730	0.106858	-0.037869
Zn18	Zn	1.431730	0.606858	0.462131
O19	O	0.925309	0.221691	0.141412
O20	O	1.425309	0.721691	0.641412
C21	C	0.787494	0.112784	0.057171
C22	C	1.287494	0.612784	0.557171
C23	C	0.699925	0.111331	0.049874
C24	C	1.199925	0.611331	0.549874
C25	C	0.658783	0.110643	0.135617
C26	C	1.158783	0.610643	0.635617
C27	C	0.576505	0.109266	0.128764
C28	C	1.076505	0.609266	0.628764
C29	C	0.535369	0.108582	0.036167
C30	C	1.035369	0.608582	0.536167
C31	C	0.576517	0.109267	-0.049582
C32	C	1.076517	0.609267	0.450418
C33	C	0.658794	0.110639	-0.042728
C34	C	1.158794	0.610639	0.457272
C35	C	0.286944	0.104435	0.011012
C36	C	0.786944	0.604435	0.511012
C37	C	0.204661	0.103065	0.004164
C38	C	0.704661	0.603065	0.504164
C39	C	0.204655	0.103062	0.182511
C40	C	0.704655	0.603062	0.682511
C41	C	0.286933	0.104439	0.189357
C42	C	0.786933	0.604439	0.689357
C43	C	0.328075	0.105120	0.103608
C44	C	0.828075	0.605120	0.603608
C45	C	0.451267	0.107176	0.029160
C46	C	0.951267	0.607176	0.529160
C47	C	0.412176	0.106520	0.110616
C48	C	0.912176	0.606520	0.610616
C49	C	0.937643	-0.037375	0.082616
C50	C	1.437643	0.462625	0.582616
C51	C	0.936185	-0.124944	0.089906
C52	C	1.436185	0.375056	0.589906
C53	C	0.935509	-0.166076	0.004163
C54	C	1.435509	0.333924	0.504163
C55	C	0.934134	-0.248356	0.011016
C56	C	1.434134	0.251644	0.511016
C57	C	0.933441	-0.289502	0.103613
C58	C	1.433441	0.210498	0.603613
C59	C	0.934116	-0.248364	0.189362
C60	C	1.434116	0.251636	0.689362
C61	C	0.935485	-0.166085	0.182508
C62	C	1.435485	0.333915	0.682508
C63	C	0.929302	-0.537931	0.128769
C64	C	1.429302	-0.037931	0.628769
C65	C	0.927935	-0.620216	0.135617
C66	C	1.427935	-0.120216	0.635617
C67	C	0.927952	-0.620201	-0.042730
C68	C	1.427952	-0.120201	0.457270
C69	C	0.929326	-0.537922	-0.049575
C70	C	1.429326	-0.037922	0.450425
C71	C	0.929996	-0.496790	0.036173
C72	C	1.429996	0.003210	0.536173
C73	C	0.932039	-0.373606	0.110621
C74	C	1.432039	0.126394	0.610621
C75	C	0.931393	-0.412688	0.029165
C76	C	1.431393	0.087312	0.529165
C77	C	1.075950	0.100925	0.082616
C78	C	1.575950	0.600925	0.582616
C79	C	1.163519	0.102377	0.089907
C80	C	1.663519	0.602377	0.589907
C81	C	0.925801	0.251083	0.057172
C82	C	1.425801	0.751083	0.557172
C83	C	0.927259	0.338652	0.049875
C84	C	1.427259	0.838652	0.549875
N85	N	0.931709	0.106844	0.324750
N86	N	1.431709	0.606844	0.824750
N87	N	0.931741	0.106858	-0.184960
N88	N	1.431741	0.606858	0.315040
C89	C	0.931729	0.106859	0.726041
C90	C	1.431729	0.606859	1.226041
C91	C	0.931721	0.106857	0.614390
C92	C	1.431721	0.606857	1.114390
C93	C	0.931719	0.106852	0.525399
C94	C	1.431719	0.606852	1.025399
C95	C	0.931711	0.106849	0.413740
C96	C	1.431711	0.606849	0.913740
H97	H	0.171149	0.102506	0.252323
H98	H	0.671149	0.602506	0.752323
C99	C	0.936271	-0.120822	-0.097702
C100	C	1.436271	0.379178	0.402298
N101	N	0.936841	-0.086739	-0.174430
N102	N	1.436841	0.413261	0.325570
H103	H	0.929863	-0.504454	0.198594
H104	H	1.429863	-0.004454	0.698594
C105	C	0.531250	0.108527	0.223087
C106	C	1.031250	0.608527	0.723087
N107	N	0.497164	0.107977	0.294135
N108	N	0.997164	0.607977	0.794135
C109	C	0.931277	-0.418875	0.212475
C110	C	1.431277	0.081125	0.712475
N111	N	0.930700	-0.452975	0.289192
N112	N	1.430700	0.047025	0.789192
H113	H	0.171170	0.102510	-0.071244
H114	H	0.671170	0.602510	0.428756
H115	H	0.929891	-0.504426	-0.124978
H116	H	1.429891	-0.004426	0.375022
H117	H	0.927405	-0.653699	-0.112541
H118	H	1.427405	-0.153699	0.387459
H119	H	0.543018	0.108705	-0.124976
H120	H	1.043018	0.608705	0.375024
C121	C	0.927171	-0.665475	0.237486
C122	C	1.427171	-0.165475	0.737486
N123	N	0.926595	-0.699565	0.314209
N124	N	1.426595	-0.199565	0.814209
C125	C	0.932159	-0.367424	-0.072689
C126	C	1.432159	0.132576	0.427311
N127	N	0.932742	-0.333325	-0.149405
N128	N	1.432742	0.166675	0.350595
H129	H	0.692269	0.111207	0.211019
H130	H	1.192269	0.611207	0.711019
H131	H	0.936024	-0.132595	0.252328
H132	H	1.436024	0.367405	0.752328
C133	C	0.933348	-0.293628	0.291220
C134	C	1.433348	0.206372	0.791220
N135	N	0.932771	-0.327720	0.367942
N136	N	1.432771	0.172280	0.867942
H137	H	0.692291	0.111201	-0.112549
H138	H	1.192291	0.611201	0.387451
C139	C	0.332190	0.105177	-0.083315
C140	C	0.832190	0.605177	0.416685
N141	N	0.366272	0.105734	-0.154366
N142	N	0.866272	0.605734	0.345634
C143	C	0.332177	0.105187	0.291221
C144	C	0.832177	0.605187	0.791221
N145	N	0.366255	0.105751	0.367947
N146	N	0.866255	0.605751	0.867947
H147	H	0.445673	0.107073	0.186009
H148	H	0.945673	0.607073	0.686009
H149	H	0.417765	0.106619	-0.046233
H150	H	0.917765	0.606619	0.453767
H151	H	0.933587	-0.281842	-0.058805
H152	H	1.433587	0.218158	0.441195
