data_functionalizedCrystal
_audit_creation_method	'MofGen! by Chris Wilmer'
_symmetry_space_group_name_H-M	'P1'
_symmetry_Int_Tables_number	1
_symmetry_cell_setting	triclinic
loop_
_symmetry_equiv_pos_as_xyz
  x,y,z
_cell_length_a	15.625020
_cell_length_b	15.944551
_cell_length_c	14.750522
_cell_angle_alpha	75.806177
_cell_angle_beta	121.741241
_cell_angle_gamma	96.114759
loop_
_atom_site_label
_atom_site_type_symbol
_atom_site_fract_x
_atom_site_fract_y
_atom_site_fract_z
O1	O	1.313791	-0.219246	0.537217
O2	O	1.029665	-0.212133	0.438298
O3	O	1.179488	-0.093975	0.490465
O4	O	1.163968	-0.337404	0.485050
O5	O	1.141674	-0.058714	0.317644
O6	O	0.991851	-0.176872	0.265477
O7	O	1.275977	-0.183985	0.364396
Zn8	Zn	1.127911	-0.174830	0.287498
Zn9	Zn	1.177732	-0.221288	0.515197
O10	O	1.126154	-0.302143	0.312229
C11	C	0.974400	-0.191329	0.339230
C12	C	0.866063	-0.181862	0.301513
C13	C	0.692756	-0.149298	0.154155
C14	C	0.794557	-0.158196	0.189606
C15	C	0.835790	-0.196634	0.378013
C16	C	0.733992	-0.187735	0.342577
C17	C	0.662481	-0.164067	0.230647
C18	C	0.703717	-0.202504	0.419069
C19	C	0.601926	-0.193610	0.383635
C20	C	0.530410	-0.169946	0.271710
C21	C	0.560691	-0.155173	0.195213
C22	C	0.775228	-0.226177	0.530998
C23	C	0.744953	-0.240947	0.607490
C24	C	0.643162	-0.232047	0.572057
C25	C	0.571646	-0.208383	0.460132
C26	C	0.612882	-0.246820	0.648554
C27	C	0.511091	-0.237925	0.613120
C28	C	0.469855	-0.199489	0.424698
C29	C	1.145705	-0.351114	0.398863
C30	C	1.147635	-0.444498	0.399531
C31	C	1.245122	-0.666381	0.433485
C32	C	1.181209	-0.706750	0.332514
C33	C	1.151131	-0.615477	0.400756
C34	C	1.218469	-0.741499	0.502895
C35	C	1.154516	-0.780637	0.401947
C36	C	1.087178	-0.654602	0.299706
C37	C	1.124467	-0.689361	0.470167
C38	C	1.060482	-0.729704	0.369152
C39	C	1.149184	-0.520333	0.400070
C40	C	1.156454	-0.875778	0.402623
C41	C	1.331243	-0.204790	0.463467
C42	C	1.439581	-0.214258	0.501190
C43	C	1.159938	-0.045005	0.403834
C44	C	1.158009	0.048378	0.403173
N45	N	1.093916	-0.143123	0.132102
C46	C	1.306595	-0.341557	-0.145640
C47	C	1.282797	-0.319328	-0.254428
C48	C	1.164437	-0.208855	-0.295616
C49	C	1.188222	-0.231077	-0.186830
C50	C	1.259302	-0.297429	-0.111850
C51	C	1.140929	-0.186949	-0.153040
C52	C	1.164716	-0.209167	-0.044263
C53	C	1.235795	-0.275514	0.030724
C54	C	1.283089	-0.319647	-0.003073
C55	C	1.069854	-0.120594	-0.228021
C56	C	1.022561	-0.076465	-0.194230
C57	C	1.046343	-0.098687	-0.085453
C58	C	1.117422	-0.165034	-0.010466
C59	C	0.999049	-0.054554	-0.051656
C60	C	1.022836	-0.076772	0.057121
C61	C	1.141209	-0.187252	0.098311
N62	N	1.211734	-0.252988	0.670595
H63	H	0.447526	-0.162709	0.242862
F64	F	0.478868	-0.253648	0.694531
F65	F	0.826771	-0.142475	0.108184
H66	H	1.050495	-0.102501	-0.316591
F67	F	0.972518	-0.029793	0.093091
F68	F	0.393746	-0.174279	0.305570
H69	H	0.964690	-0.022439	-0.255292
H70	H	1.255163	-0.293601	0.119298
H71	H	1.106566	-0.154829	-0.356678
H72	H	1.340958	-0.373685	0.057978
H73	H	0.941183	-0.000525	-0.112718
F74	F	1.216868	-0.257866	0.178120
F75	F	0.484581	-0.129964	0.076085
H76	H	1.321313	-0.355269	-0.281933
H77	H	0.634526	-0.130036	0.063010
F78	F	0.911905	-0.221821	0.497133
F79	F	0.883563	-0.235645	0.568707
H80	H	1.100510	-0.681070	0.528382
F81	F	0.821069	-0.266134	0.726611
H82	H	0.982388	-0.757227	0.341920
F83	F	1.014634	-0.605502	0.187366
H84	H	1.364464	-0.395595	-0.084589
F85	F	0.688997	-0.272015	0.767674
F86	F	1.347069	-0.630170	0.468879
H87	H	1.274001	-0.779151	0.588776
H88	H	1.205200	-0.715022	0.274315
