data_functionalizedCrystal
_audit_creation_method	'MofGen! by Chris Wilmer'
_symmetry_space_group_name_H-M	'P1'
_symmetry_Int_Tables_number	1
_symmetry_cell_setting	triclinic
loop_
_symmetry_equiv_pos_as_xyz
  x,y,z
_cell_length_a	10.540539
_cell_length_b	14.519709
_cell_length_c	13.596369
_cell_angle_alpha	90.006934
_cell_angle_beta	90.003252
_cell_angle_gamma	84.102818
loop_
_atom_site_label
_atom_site_type_symbol
_atom_site_fract_x
_atom_site_fract_y
_atom_site_fract_z
O1	O	-1.684562	-0.129969	-0.081747
O2	O	-1.351228	0.203364	0.251586
O3	O	-1.017895	0.536697	0.584919
O4	O	-1.315024	-0.142215	-0.081760
O5	O	-0.981690	0.191119	0.251574
O6	O	-0.648357	0.524452	0.584907
O7	O	-1.509591	-0.001906	-0.081744
O8	O	-1.176257	0.331427	0.251589
O9	O	-0.842924	0.664760	0.584922
O10	O	-1.489995	-0.270278	-0.081763
O11	O	-1.156662	0.063056	0.251571
O12	O	-0.823328	0.396389	0.584904
O13	O	-1.509571	-0.001899	0.081838
O14	O	-1.176238	0.331435	0.415172
O15	O	-0.842904	0.664768	0.748505
O16	O	-1.315004	-0.142207	0.081823
O17	O	-0.981671	0.191126	0.415156
O18	O	-0.648338	0.524460	0.748490
O19	O	-1.684542	-0.129962	0.081835
O20	O	-1.351209	0.203372	0.415169
O21	O	-1.017876	0.536705	0.748502
Zn22	Zn	-1.499770	-0.136083	0.107802
Zn23	Zn	-1.166437	0.197250	0.441135
Zn24	Zn	-0.833104	0.530584	0.774468
Zn25	Zn	-1.499796	-0.136093	-0.107726
Zn26	Zn	-1.166463	0.197240	0.225607
Zn27	Zn	-0.833129	0.530573	0.558941
O28	O	-1.489976	-0.270270	0.081820
O29	O	-1.156642	0.063063	0.415153
O30	O	-0.823309	0.396397	0.748487
C31	C	-1.508668	0.032462	0.000047
C32	C	-1.175334	0.365796	0.333381
C33	C	-0.842001	0.699129	0.666714
C34	C	-1.505931	0.134858	0.000048
C35	C	-1.172598	0.468192	0.333381
C36	C	-0.839264	0.801525	0.666714
C37	C	-1.267720	-0.141293	0.000030
C38	C	-0.934387	0.192041	0.333364
C39	C	-0.601054	0.525374	0.666697
C40	C	-1.126800	-0.138545	0.000026
C41	C	-0.793467	0.194788	0.333359
C42	C	-0.460134	0.528122	0.666692
C43	C	-1.731846	-0.130884	0.000043
C44	C	-1.398512	0.202450	0.333377
C45	C	-1.065179	0.535783	0.666710
C46	C	-1.872766	-0.133631	0.000041
C47	C	-1.539432	0.199702	0.333375
C48	C	-1.206099	0.533035	0.666708
C49	C	-0.944448	-0.033266	0.000415
C50	C	-0.611115	0.300068	0.333748
C51	C	-0.277782	0.633401	0.667081
C52	C	-1.091038	-0.036051	0.000036
C53	C	-0.757705	0.297283	0.333369
C54	C	-0.424371	0.630616	0.666703
C55	C	-1.064635	-0.187874	-0.093388
C56	C	-0.731302	0.145459	0.239946
C57	C	-0.397969	0.478793	0.573279
C58	C	-0.918127	-0.184376	-0.093456
C59	C	-0.584793	0.148957	0.239878
C60	C	-0.251460	0.482291	0.573211
C61	C	-0.917595	-0.186453	0.092569
C62	C	-0.584261	0.146881	0.425902
C63	C	-0.250928	0.480214	0.759235
C64	C	-1.064567	-0.187396	0.093793
C65	C	-0.731234	0.145937	0.427126
C66	C	-0.397900	0.479270	0.760460
C67	C	-1.490899	-0.304639	0.000026
C68	C	-1.157565	0.028695	0.333360
C69	C	-0.824232	0.362028	0.666693
C70	C	-1.493635	-0.407035	0.000019
C71	C	-1.160302	-0.073701	0.333353
C72	C	-0.826968	0.259632	0.666686
N73	N	-1.499762	-0.136076	0.254893
N74	N	-1.166429	0.197258	0.588227
N75	N	-0.833095	0.530591	0.921560
C76	C	-1.495856	0.509808	0.000022
C77	C	-1.162523	0.843142	0.333355
C78	C	-0.829190	1.176475	0.666688
C79	C	-1.498654	0.405485	0.000029
C80	C	-1.165321	0.738819	0.333363
C81	C	-0.831987	1.072152	0.666696
C82	C	-1.500893	0.322337	0.000036
C83	C	-1.167560	0.655670	0.333369
C84	C	-0.834227	0.989003	0.666702
C85	C	-1.503692	0.218007	0.000041
C86	C	-1.170358	0.551340	0.333375
C87	C	-0.837025	0.884674	0.666708
N88	N	-1.499814	-0.136093	-0.254818
N89	N	-1.166481	0.197240	0.078516
N90	N	-0.833147	0.530573	0.411849
C91	C	-1.499794	-0.136094	0.656184
C92	C	-1.166461	0.197239	0.989518
C93	C	-0.833127	0.530573	1.322851
C94	C	-1.499781	-0.136092	0.544533
C95	C	-1.166448	0.197241	0.877866
C96	C	-0.833115	0.530575	1.211200
C97	C	-1.499779	-0.136086	0.455542
C98	C	-1.166445	0.197248	0.788876
C99	C	-0.833112	0.530581	1.122209
C100	C	-1.499765	-0.136082	0.343884
C101	C	-1.166432	0.197251	0.677217
C102	C	-0.833098	0.530584	1.010551
H103	H	-1.134040	0.002763	0.066999
H104	H	-0.800707	0.336096	0.400332
H105	H	-0.467374	0.669430	0.733666
O106	O	-1.095645	-0.286378	0.101273
O107	O	-0.762312	0.046955	0.434606
O108	O	-0.428978	0.380288	0.767940
H109	H	-1.156192	-0.302374	0.037987
H110	H	-0.822859	0.030959	0.371321
H111	H	-0.489526	0.364292	0.704654
H112	H	-1.086220	-0.263143	-0.096869
H113	H	-0.752887	0.070190	0.236465
H114	H	-0.419554	0.403523	0.569798
O115	O	-1.121497	-0.142491	-0.185477
O116	O	-0.788164	0.190842	0.147856
O117	O	-0.454830	0.524176	0.481189
H118	H	-1.194015	-0.084812	-0.164951
H119	H	-0.860682	0.248522	0.168383
H120	H	-0.527349	0.581855	0.501716
H121	H	-0.886379	-0.153279	0.163375
H122	H	-0.553045	0.180054	0.496709
H123	H	-0.219712	0.513387	0.830042
O124	O	-0.907124	0.020381	0.089152
O125	O	-0.573790	0.353715	0.422485
O126	O	-0.240457	0.687048	0.755818
H127	H	-0.837075	-0.023910	0.133936
H128	H	-0.503742	0.309423	0.467270
H129	H	-0.170409	0.642757	0.800603
O130	O	-1.119294	-0.139671	0.185342
O131	O	-0.785961	0.193662	0.518675
O132	O	-0.452627	0.526995	0.852008
H133	H	-1.190526	-0.081402	0.164160
H134	H	-0.857193	0.251931	0.497494
H135	H	-0.523860	0.585264	0.830827
H136	H	-0.869612	-0.260483	0.093195
H137	H	-0.536279	0.072850	0.426528
H138	H	-0.202945	0.406183	0.759861
O139	O	-0.853572	-0.282010	-0.099080
O140	O	-0.520239	0.051323	0.234254
O141	O	-0.186905	0.384657	0.567587
H142	H	-0.793841	-0.289714	-0.166388
H143	H	-0.460507	0.043620	0.166945
H144	H	-0.127174	0.376953	0.500278
H145	H	-0.914661	0.007051	-0.066199
H146	H	-0.581327	0.340384	0.267134
H147	H	-0.247994	0.673718	0.600468
H148	H	-0.890297	-0.147924	-0.163278
H149	H	-0.556963	0.185409	0.170055
H150	H	-0.223630	0.518743	0.503388
H151	H	-1.133190	0.003030	-0.067038
H152	H	-0.799857	0.336364	0.266295
H153	H	-0.466524	0.669697	0.599629
