data_functionalizedCrystal
_audit_creation_method	'MofGen! by Chris Wilmer'
_symmetry_space_group_name_H-M	'P1'
_symmetry_Int_Tables_number	1
_symmetry_cell_setting	triclinic
loop_
_symmetry_equiv_pos_as_xyz
  x,y,z
_cell_length_a	14.519709
_cell_length_b	10.654562
_cell_length_c	9.130313
_cell_angle_alpha	90.008885
_cell_angle_beta	90.003841
_cell_angle_gamma	84.085124
loop_
_atom_site_label
_atom_site_type_symbol
_atom_site_fract_x
_atom_site_fract_y
_atom_site_fract_z
O1	O	0.129585	1.666589	0.121899
O2	O	0.141914	1.300994	0.121881
O3	O	0.001562	1.493485	0.121878
O4	O	0.269938	1.474098	0.121903
O5	O	0.001563	1.493462	-0.121721
O6	O	0.141915	1.300971	-0.121718
O7	O	0.129586	1.666566	-0.121700
Cu8	Cu	0.135751	1.483766	-0.143951
Cu9	Cu	0.135750	1.483794	0.144133
O10	O	0.269938	1.474075	-0.121696
C11	C	0.141007	1.254194	0.000079
C12	C	0.138291	1.114777	0.000072
C13	C	0.137025	1.049246	-0.132702
C14	C	0.134481	0.918248	-0.132678
C15	C	0.134473	0.918324	0.132907
C16	C	0.137010	1.049320	0.132881
C17	C	0.138306	1.114703	-0.265511
C18	C	0.137041	1.049172	-0.398296
C19	C	0.134496	0.918174	-0.398272
C20	C	0.133217	0.852708	-0.265463
C21	C	-0.032802	1.492570	0.000078
C22	C	-0.135198	1.489862	0.000077
C23	C	-0.510145	1.479895	0.000114
C24	C	-0.405823	1.482663	0.000103
C25	C	-0.322675	1.484879	0.000094
C26	C	-0.218346	1.487647	0.000086
C27	C	0.304302	1.474990	0.000107
C28	C	0.406698	1.477698	0.000118
C29	C	0.130493	1.713367	0.000105
C30	C	0.133209	1.852783	0.000122
N31	N	0.135751	1.483756	-0.346574
C32	C	0.192200	1.560085	-0.576545
C33	C	0.192207	1.560054	-0.423209
C34	C	0.079291	1.407476	-0.423284
C35	C	0.079290	1.407502	-0.576618
C36	C	0.248652	1.636397	-0.653172
C37	C	0.305113	1.712676	-0.576473
C38	C	0.305121	1.712644	-0.423136
C39	C	0.248667	1.636334	-0.346499
N40	N	0.135742	1.483814	0.346755
H41	H	0.138046	1.102676	0.240998
C42	C	0.130417	0.708613	-0.265438
H43	H	0.129849	0.678957	-0.363536
H44	H	0.076158	0.688438	-0.216393
H45	H	0.183534	0.669546	-0.216387
H46	H	0.351101	1.774745	-0.360692
C47	C	0.367215	1.796604	-0.660760
H48	H	0.400848	1.842014	-0.593116
H49	H	0.329819	1.854329	-0.720555
H50	H	0.409307	1.745238	-0.720593
C51	C	0.133338	0.846046	-0.544321
H52	H	0.131706	0.758642	-0.525290
H53	H	0.187516	0.858158	-0.598634
H54	H	0.080135	0.876817	-0.599136
H55	H	0.140380	1.221367	-0.265546
H56	H	0.033319	1.345392	-0.639068
C57	C	0.138446	1.121179	-0.544374
H58	H	0.140151	1.208580	-0.525375
H59	H	0.084346	1.109146	-0.598942
H60	H	0.191723	1.090243	-0.598918
C61	C	0.248650	1.636421	-0.821837
H62	H	0.206938	1.580069	-0.856542
H63	H	0.309246	1.610070	-0.856529
H64	H	0.229746	1.719144	-0.856493
C65	C	0.248677	1.636289	-0.177832
H66	H	0.206972	1.579917	-0.143179
H67	H	0.229789	1.718994	-0.143102
H68	H	0.309278	1.609905	-0.143160
H69	H	0.033329	1.345349	-0.360873
H70	H	0.133433	0.865010	0.241034
