data_functionalizedCrystal
_audit_creation_method	'MofGen! by Chris Wilmer'
_symmetry_space_group_name_H-M	'P1'
_symmetry_Int_Tables_number	1
_symmetry_cell_setting	triclinic
loop_
_symmetry_equiv_pos_as_xyz
  x,y,z
_cell_length_a	12.594516
_cell_length_b	17.077404
_cell_length_c	17.077396
_cell_angle_alpha	89.980499
_cell_angle_beta	90.023145
_cell_angle_gamma	89.983722
loop_
_atom_site_label
_atom_site_type_symbol
_atom_site_fract_x
_atom_site_fract_y
_atom_site_fract_z
Zn1	Zn	-0.423736	-1.200092	0.443872
Zn2	Zn	0.076264	-0.700092	0.943872
Zn3	Zn	-0.601736	-1.200015	0.312618
Zn4	Zn	-0.101736	-0.700015	0.812618
Zn5	Zn	-0.423773	-1.068824	0.312620
Zn6	Zn	0.076227	-0.568824	0.812620
Zn7	Zn	-0.601673	-1.068807	0.443842
Zn8	Zn	-0.101673	-0.568807	0.943842
O9	O	-0.512730	-1.134434	0.378238
O10	O	-0.012730	-0.634434	0.878238
O11	O	-0.447359	-1.309929	0.426473
O12	O	0.052641	-0.809929	0.926473
O13	O	-0.578171	-1.182586	0.202771
O14	O	-0.078171	-0.682586	0.702771
O15	O	-0.274822	-1.086276	0.330044
O16	O	0.225178	-0.586276	0.830044
O17	O	-0.578135	-1.309872	0.330041
O18	O	-0.078135	-0.809872	0.830041
O19	O	-0.274795	-1.182718	0.426474
O20	O	0.225205	-0.682718	0.926474
O21	O	-0.447422	-1.086201	0.202773
O22	O	0.052578	-0.586201	0.702773
O23	O	-0.447361	-0.958975	0.330015
O24	O	0.052639	-0.458975	0.830015
O25	O	-0.578027	-1.086248	0.553693
O26	O	-0.078027	-0.586248	1.053693
O27	O	-0.578064	-0.958963	0.426423
O28	O	-0.078064	-0.458963	0.926423
O29	O	-0.447297	-1.182702	0.553715
O30	O	0.052703	-0.682702	1.053715
O31	O	-0.750674	-1.182571	0.330012
O32	O	-0.250674	-0.682571	0.830012
O33	O	-0.750627	-1.086173	0.426421
O34	O	-0.250627	-0.586173	0.926421
C35	C	-0.512710	-0.930487	0.378216
C36	C	-0.012710	-0.430487	0.878216
C37	C	-0.512728	-0.843237	0.378226
C38	C	-0.012728	-0.343237	0.878226
C39	C	-0.789271	-1.134383	0.378230
C40	C	-0.289271	-0.634383	0.878230
C41	C	-0.907576	-1.134433	0.378253
C42	C	-0.407576	-0.634433	0.878253
C43	C	-0.512651	-1.134482	0.582982
C44	C	-0.012651	-0.634482	1.082982
C45	C	-0.512618	-1.134502	0.670232
C46	C	-0.012618	-0.634502	1.170232
C47	C	-0.976843	-1.081997	0.430653
C48	C	-0.476843	-0.581997	0.930653
C49	C	-1.047703	-1.062873	0.359026
C50	C	-0.547703	-0.562873	0.859026
C51	C	-1.047515	-1.153628	0.449893
C52	C	-0.547515	-0.653628	0.949893
C53	C	-0.976878	-1.115271	0.306587
C54	C	-0.476878	-0.615271	0.806587
C55	C	-0.976684	-1.206059	0.397503
C56	C	-0.476684	-0.706059	0.897503
C57	C	-1.047512	-1.186963	0.325826
C58	C	-0.547512	-0.686963	0.825826
C59	C	-0.235109	-1.134507	0.378263
C60	C	0.264891	-0.634507	0.878263
C61	C	-0.116803	-1.134539	0.378273
C62	C	0.383197	-0.634539	0.878273
C63	C	-0.512750	-1.339179	0.378260
C64	C	-0.012750	-0.839179	0.878260
C65	C	-0.512758	-1.426428	0.378269
C66	C	-0.012758	-0.926428	0.878269
C67	C	-0.580887	-0.802261	0.428345
C68	C	-0.080887	-0.302261	0.928345
C69	C	-0.580890	-0.720280	0.428357
C70	C	-0.080890	-0.220280	0.928357
C71	C	-0.512737	-0.679277	0.378246
C72	C	-0.012737	-0.179277	0.878246
C73	C	-0.444570	-0.720259	0.328125
C74	C	0.055430	-0.220259	0.828125
C75	C	-0.444563	-0.802238	0.328117
C76	C	0.055437	-0.302238	0.828117
C77	C	-0.444591	-0.549389	0.328144
C78	C	0.055409	-0.049389	0.828144
C79	C	-0.444599	-0.467404	0.328150
C80	C	0.055401	0.032596	0.828150
C81	C	-0.580917	-0.467431	0.428384
C82	C	-0.080917	0.032569	0.928384
C83	C	-0.580910	-0.549410	0.428376
C84	C	-0.080910	-0.049410	0.928376
C85	C	-0.512745	-0.590386	0.378253
C86	C	-0.012745	-0.090386	0.878253
C87	C	-0.512731	-1.134432	0.174290
C88	C	-0.012731	-0.634432	0.674290
C89	C	-0.512465	-1.134564	0.087041
C90	C	-0.012465	-0.634564	0.587041
C91	C	-0.444541	-1.184728	0.711235
C92	C	0.055459	-0.684728	1.211235
C93	C	-0.444506	-1.184737	0.793216
C94	C	0.055494	-0.684737	1.293216
C95	C	-0.512553	-1.134524	0.834192
C96	C	-0.012553	-0.634524	1.334192
C97	C	-0.580633	-1.084293	0.793183
C98	C	-0.080633	-0.584293	1.293183
C99	C	-0.580662	-1.084281	0.711204
C100	C	-0.080662	-0.584281	1.211204
C101	C	-0.580569	-1.084325	0.964053
C102	C	-0.080569	-0.584325	1.464053
C103	C	-0.580541	-1.084339	1.046038
C104	C	-0.080541	-0.584339	1.546038
C105	C	-0.444412	-1.184782	1.046065
C106	C	0.055588	-0.684782	1.546065
C107	C	-0.444442	-1.184769	0.964086
C108	C	0.055558	-0.684769	1.464086
C109	C	-0.512523	-1.134538	0.923083
C110	C	-0.012523	-0.634538	1.423083
H111	H	-0.945811	-1.037575	0.474902
H112	H	-0.445811	-0.537575	0.974902
C113	C	-1.089179	-1.246925	0.265910
C114	C	-0.589179	-0.746925	0.765910
H115	H	-1.064863	-1.233198	0.215073
H116	H	-0.564863	-0.733198	0.715073
H117	H	-1.063788	-1.297615	0.279143
H118	H	-0.563788	-0.797615	0.779143
H119	H	-1.164604	-1.246938	0.266540
H120	H	-0.664604	-0.746938	0.766540
C121	C	-0.655892	-0.422362	0.483523
C122	C	-0.155892	0.077638	0.983523
H123	H	-0.646128	-0.367666	0.476359
H124	H	-0.146128	0.132334	0.976359
H125	H	-0.727386	-0.435778	0.471944
H126	H	-0.227386	0.064222	0.971944
H127	H	-0.640400	-0.435826	0.536285
H128	H	-0.140400	0.064174	1.036285
H129	H	-0.389073	-0.582749	0.287335
H130	H	0.110927	-0.082749	0.787335
C131	C	-0.369623	-0.422302	0.273037
C132	C	0.130377	0.077698	0.773037
H133	H	-0.329012	-0.458445	0.243194
H134	H	0.170988	0.041555	0.743194
H135	H	-0.410274	-0.390299	0.238785
H136	H	0.089726	0.109701	0.738785
H137	H	-0.323306	-0.390344	0.303139
H138	H	0.176694	0.109656	0.803139
H139	H	-0.945468	-1.266570	0.413803
H140	H	-0.445468	-0.766570	0.913803
H141	H	-1.078543	-1.169821	0.510470
H142	H	-0.578543	-0.669821	1.010470
H143	H	-0.389074	-0.686868	0.287327
H144	H	0.110926	-0.186868	0.787327
H145	H	-1.078921	-1.002349	0.342760
H146	H	-0.578921	-0.502349	0.842760
C147	C	-0.655492	-1.029099	0.918951
C148	C	-0.155492	-0.529099	1.418951
H149	H	-0.696033	-0.999209	0.955095
H150	H	-0.196033	-0.499209	1.455095
H151	H	-0.614819	-0.994893	0.886954
H152	H	-0.114819	-0.494893	1.386954
H153	H	-0.701874	-1.059139	0.886987
H154	H	-0.201874	-0.559139	1.386987
H155	H	-0.388976	-1.225680	1.079453
H156	H	0.111024	-0.725680	1.579453
H157	H	-0.389055	-0.835599	0.287309
H158	H	0.110945	-0.335599	0.787309
H159	H	-0.636034	-1.043406	0.826552
H160	H	-0.136034	-0.543406	1.326552
C161	C	-0.655855	-0.847357	0.483469
C162	C	-0.155855	-0.347357	0.983469
H163	H	-0.696440	-0.811209	0.513325
H164	H	-0.196440	-0.311209	1.013325
H165	H	-0.702178	-0.879318	0.453384
H166	H	-0.202178	-0.379318	0.953384
H167	H	-0.615187	-0.879357	0.517721
H168	H	-0.115187	-0.379357	1.017721
H169	H	-0.635949	-1.043449	1.079398
H170	H	-0.135949	-0.543449	1.579398
H171	H	-0.945978	-1.099008	0.245994
H172	H	-0.445978	-0.599008	0.745994
H173	H	-0.389132	-1.225619	0.677878
H174	H	0.110868	-0.725619	1.177878
C175	C	-0.655573	-1.029052	0.666100
C176	C	-0.155573	-0.529052	1.166100
H177	H	-0.696110	-0.999159	0.702244
H178	H	-0.196110	-0.499159	1.202244
H179	H	-0.614887	-0.994850	0.634109
H180	H	-0.114887	-0.494850	1.134109
H181	H	-0.701960	-1.059083	0.634131
H182	H	-0.201960	-0.559083	1.134131
H183	H	-0.636412	-0.582793	0.469177
H184	H	-0.136412	-0.082793	0.969177
H185	H	-0.389073	-1.225638	0.826597
H186	H	0.110927	-0.725638	1.326597
H187	H	-0.636393	-0.686922	0.469169
H188	H	-0.136393	-0.186922	0.969169
C189	C	-0.369592	-1.240002	0.919013
C190	C	0.130408	-0.740002	1.419013
H191	H	-0.329034	-1.269914	0.955173
H192	H	0.170966	-0.769914	1.455173
H193	H	-0.410324	-1.274185	0.887034
H194	H	0.089676	-0.774185	1.387034
H195	H	-0.323222	-1.209974	0.887034
H196	H	0.176778	-0.709974	1.387034
