data_functionalizedCrystal
_audit_creation_method	'MofGen! by Chris Wilmer'
_symmetry_space_group_name_H-M	'P1'
_symmetry_Int_Tables_number	1
_symmetry_cell_setting	triclinic
loop_
_symmetry_equiv_pos_as_xyz
  x,y,z
_cell_length_a	10.654556
_cell_length_b	15.625429
_cell_length_c	9.130313
_cell_angle_alpha	71.918332
_cell_angle_beta	89.998135
_cell_angle_gamma	84.354106
loop_
_atom_site_label
_atom_site_type_symbol
_atom_site_fract_x
_atom_site_fract_y
_atom_site_fract_z
O1	O	1.666516	0.126652	-0.189001
O2	O	1.300913	0.138710	-0.195419
O3	O	1.493483	0.001505	-0.122541
O4	O	1.473946	0.263857	-0.261879
O5	O	1.493470	0.001501	0.121060
O6	O	1.300900	0.138706	0.048182
O7	O	1.666503	0.126648	0.054600
Cu8	Cu	1.483701	0.132676	0.073634
Cu9	Cu	1.483716	0.132681	-0.214453
O10	O	1.473933	0.263853	-0.018278
C11	C	1.254118	0.137821	-0.073150
C12	C	1.114703	0.135169	-0.071747
C13	C	0.918204	0.131436	-0.202539
C14	C	1.049200	0.133923	-0.203869
C15	C	1.049204	0.133918	0.061719
C16	C	0.918211	0.131425	0.063050
C17	C	1.492593	-0.032090	0.017098
C18	C	1.489943	-0.132187	0.070251
C19	C	1.481228	-0.461383	-0.418816
C20	C	1.478732	-0.555438	-0.368825
C21	C	1.478718	-0.555429	-0.103268
C22	C	1.481220	-0.461372	-0.153237
C23	C	1.482473	-0.414356	-0.311012
C24	C	1.482465	-0.414345	-0.045433
C25	C	1.484960	-0.320296	-0.095398
C26	C	1.486210	-0.273273	-0.253167
C27	C	1.484968	-0.320307	-0.360977
C28	C	1.481203	-0.461362	0.112342
C29	C	1.482448	-0.414336	0.220145
C30	C	1.484953	-0.320285	0.170181
C31	C	1.486202	-0.273263	0.012412
C32	C	1.486194	-0.273252	0.277992
C33	C	1.488689	-0.179203	0.228027
C34	C	1.488697	-0.179213	-0.037553
C35	C	1.713298	0.127536	-0.067672
C36	C	1.852714	0.130189	-0.069085
C37	C	1.474824	0.297448	-0.157920
C38	C	1.477474	0.397544	-0.211083
N39	N	1.483699	0.132673	0.276258
N40	N	1.483728	0.132678	-0.417074
C41	C	1.568997	0.071944	0.385167
C42	C	1.569009	0.071944	0.538504
C43	C	1.398420	0.193409	0.474005
C44	C	1.398403	0.193404	0.320674
H45	H	0.864888	0.130409	0.171731
H46	H	1.479158	-0.537942	0.153017
H47	H	1.328937	0.242857	0.231993
H48	H	1.481423	-0.452628	0.348607
C49	C	1.583771	-0.670654	-0.461773
C50	C	1.477347	-0.607110	-0.487367
H51	H	1.582900	-0.702550	-0.534958
H52	H	1.657911	-0.640388	-0.472335
H53	H	1.582661	-0.712131	-0.360672
H54	H	1.478461	-0.565629	-0.588464
H55	H	1.403187	-0.637378	-0.476818
H56	H	1.102516	0.134937	-0.312539
C57	C	1.737637	-0.048109	0.586840
C58	C	1.662778	0.005193	0.658215
H59	H	1.795531	-0.089316	0.660747
H60	H	1.685309	-0.080890	0.544462
H61	H	1.782855	-0.010266	0.506921
H62	H	1.617552	-0.032649	0.738128
H63	H	1.715112	0.037977	0.700617
C64	C	1.181116	0.244884	0.493928
C65	C	1.304671	0.260164	0.522840
H66	H	1.123241	0.286093	0.524084
H67	H	1.168903	0.253577	0.387033
H68	H	1.167406	0.184619	0.551082
H69	H	1.318385	0.320426	0.465677
H70	H	1.316890	0.251477	0.629753
H71	H	0.864879	0.130428	-0.310131
H72	H	1.102548	0.134927	0.169298
C73	C	1.474907	-0.699598	0.091250
C74	C	1.477355	-0.607115	0.070155
H75	H	1.474079	-0.731504	0.198317
H76	H	1.401322	-0.708591	0.041491
H77	H	1.547674	-0.721420	0.048268
H78	H	1.404583	-0.585292	0.113127
H79	H	1.550947	-0.598116	0.119935
H80	H	1.489729	-0.140931	-0.166028
H81	H	1.488228	-0.196691	-0.293846
C82	C	1.488399	-0.188629	0.495554
C83	C	1.490032	-0.127502	0.346521
H84	H	1.489221	-0.156708	0.568706
H85	H	1.414265	-0.218902	0.506095
H86	H	1.560617	-0.231723	0.512941
H87	H	1.417808	-0.084411	0.329129
H88	H	1.564173	-0.097213	0.335974
H89	H	1.486000	-0.282025	-0.489453
H90	H	1.482259	-0.423101	-0.547292
H91	H	1.485161	-0.311545	0.406452
H92	H	1.638449	0.022492	0.349010
