data_functionalizedCrystal
_audit_creation_method	'MofGen! by Chris Wilmer'
_symmetry_space_group_name_H-M	'P1'
_symmetry_Int_Tables_number	1
_symmetry_cell_setting	triclinic
loop_
_symmetry_equiv_pos_as_xyz
  x,y,z
_cell_length_a	16.992694
_cell_length_b	10.654551
_cell_length_c	16.053942
_cell_angle_alpha	87.402692
_cell_angle_beta	92.746294
_cell_angle_gamma	87.576826
loop_
_atom_site_label
_atom_site_type_symbol
_atom_site_fract_x
_atom_site_fract_y
_atom_site_fract_z
O1	O	1.038573	0.271380	-0.069319
O2	O	0.810271	0.268458	-0.069343
O3	O	0.929671	0.087633	-0.069328
O4	O	0.919173	0.452205	-0.069333
O5	O	0.936206	0.077714	0.069528
O6	O	0.816806	0.258540	0.069514
O7	O	1.045108	0.261461	0.069538
Zn8	Zn	0.931995	0.258425	0.091573
Zn9	Zn	0.923384	0.271494	-0.091377
O10	O	0.925709	0.442286	0.069524
C11	C	0.784305	0.259739	0.000082
C12	C	0.697200	0.248520	0.000073
C13	C	0.647548	0.356771	0.000072
C14	C	0.565705	0.346221	0.000084
C15	C	0.533514	0.227420	0.000090
C16	C	0.583172	0.119161	0.000093
C17	C	0.665014	0.129711	0.000088
C18	C	0.289680	0.183691	0.000113
C19	C	0.207831	0.173148	0.000116
C20	C	0.190369	0.400210	0.000108
C21	C	0.272213	0.410751	0.000097
C22	C	0.321864	0.302491	0.000105
N23	N	0.449857	0.216633	0.000099
N24	N	0.405520	0.313279	0.000102
C25	C	0.932167	0.035809	0.000099
C26	C	0.929861	-0.103833	0.000094
C27	C	0.925216	-0.164023	-0.075597
C28	C	0.923042	-0.295232	-0.075598
C29	C	0.930161	-0.306048	0.075791
C30	C	0.932330	-0.174841	0.075791
C31	C	0.869918	-0.463029	-0.166542
C32	C	0.865287	-0.523225	-0.242238
C33	C	0.908737	-0.480884	-0.309061
C34	C	0.956838	-0.378352	-0.300193
C35	C	0.961477	-0.318163	-0.224495
C36	C	0.918008	-0.360499	-0.157675
C37	C	0.985460	-0.007043	0.166729
C38	C	0.990104	0.053148	0.242427
C39	C	0.946658	0.010809	0.309258
C40	C	0.898569	-0.091730	0.300398
C41	C	0.893925	-0.151920	0.224700
C42	C	0.937369	-0.109572	0.157868
C43	C	1.071074	0.270180	0.000111
C44	C	1.158179	0.281399	0.000115
C45	C	0.923212	0.494110	0.000095
C46	C	0.925518	0.633752	0.000093
N47	N	0.937877	0.249506	0.216431
N48	N	0.917509	0.280404	-0.216236
C49	C	0.968323	0.203494	0.740055
C50	C	0.964190	0.209747	0.652649
C51	C	0.909238	0.292904	0.608955
C52	C	0.858421	0.369822	0.652670
C53	C	0.862559	0.363574	0.740074
C54	C	0.891197	0.320177	0.347551
C55	C	0.887062	0.326416	0.260141
C56	C	0.992833	0.166342	0.260125
C57	C	0.996962	0.160096	0.347531
C58	C	0.946148	0.237019	0.391239
N59	N	0.905011	0.299295	0.519612
N60	N	0.950380	0.230634	0.480580
H61	H	0.149935	0.488348	0.000103
Cl62	Cl	0.688007	0.506130	0.000058
H63	H	0.525281	0.434371	0.000082
H64	H	0.298416	0.507492	0.000082
Cl65	Cl	0.798677	0.460270	0.795023
Cl66	Cl	0.902923	-0.556576	-0.404216
Cl67	Cl	0.167365	0.023785	0.000143
Cl68	Cl	0.352087	0.047592	0.000122
Cl69	Cl	0.542704	-0.030191	0.000107
Cl70	Cl	0.727434	-0.006382	0.000092
H71	H	0.950451	0.059820	0.370898
Cl72	Cl	1.021941	-0.189274	-0.213342
Cl73	Cl	1.028074	0.113061	0.597699
Cl74	Cl	0.827315	0.416871	0.402492
H75	H	0.923203	-0.106212	-0.137235
H76	H	0.813681	0.437537	0.617089
H77	H	0.992225	-0.343895	-0.354607
Cl78	Cl	0.804816	-0.652115	-0.253387
H79	H	0.834526	-0.497502	-0.112137
Cl80	Cl	0.843954	-0.144969	0.384417
Cl81	Cl	0.817971	0.430964	0.205216
H82	H	1.020832	0.027451	0.112309
H83	H	1.041708	0.092384	0.383105
H84	H	0.932173	-0.363879	0.137421
Cl85	Cl	1.050569	0.182044	0.253570
Cl86	Cl	1.037406	0.098942	0.794976
Cl87	Cl	0.833471	-0.280832	0.213561
Cl88	Cl	1.056713	0.069650	0.205175
