data_functionalizedCrystal
_audit_creation_method	'MofGen! by Chris Wilmer'
_symmetry_space_group_name_H-M	'P1'
_symmetry_Int_Tables_number	1
_symmetry_cell_setting	triclinic
loop_
_symmetry_equiv_pos_as_xyz
  x,y,z
_cell_length_a	14.044191
_cell_length_b	9.065218
_cell_length_c	12.503572
_cell_angle_alpha	93.577298
_cell_angle_beta	86.162165
_cell_angle_gamma	89.103831
loop_
_atom_site_label
_atom_site_type_symbol
_atom_site_fract_x
_atom_site_fract_y
_atom_site_fract_z
O1	O	-1.266161	-0.348307	0.089260
O2	O	-0.766161	0.151693	0.589260
O3	O	-0.990082	-0.335446	0.089274
O4	O	-0.490082	0.164554	0.589274
O5	O	-1.133828	-0.127867	0.089265
O6	O	-0.633828	0.372133	0.589265
O7	O	-1.122415	-0.555886	0.089270
O8	O	-0.622415	-0.055886	0.589270
O9	O	-1.123018	-0.143507	-0.089377
O10	O	-0.623018	0.356493	0.410623
O11	O	-0.979272	-0.351086	-0.089367
O12	O	-0.479272	0.148914	0.410633
O13	O	-1.255351	-0.363947	-0.089381
O14	O	-0.755351	0.136053	0.410619
Cu15	Cu	-1.116324	-0.358944	-0.105685
Cu16	Cu	-0.616324	0.141056	0.394315
Cu17	Cu	-1.129109	-0.340449	0.105578
Cu18	Cu	-0.629109	0.159551	0.605578
O19	O	-1.111605	-0.571526	-0.089372
O20	O	-0.611605	-0.071526	0.410628
C21	C	-0.949314	-0.337640	-0.000045
C22	C	-0.449314	0.162360	0.499955
C23	C	-0.843944	-0.320858	-0.000039
C24	C	-0.343944	0.179142	0.499961
C25	C	-1.296119	-0.361753	-0.000060
C26	C	-0.796119	0.138247	0.499940
C27	C	-1.401489	-0.378534	-0.000058
C28	C	-0.901489	0.121466	0.499942
C29	C	-0.594416	-0.409195	-0.000049
C30	C	-0.094416	0.090805	0.499951
C31	C	-0.651023	-0.290204	-0.000049
C32	C	-0.151023	0.209796	0.499951
C33	C	-0.758374	-0.307264	-0.000043
C34	C	-0.258374	0.192736	0.499957
C35	C	-0.487055	-0.392137	-0.000054
C36	C	0.012945	0.107863	0.499946
C37	C	-1.127326	-0.080579	-0.000054
C38	C	-0.627326	0.419421	0.499946
C39	C	-1.124047	0.083628	-0.000049
C40	C	-0.624047	0.583628	0.499951
C41	C	-1.118107	-0.618814	-0.000050
C42	C	-0.618107	-0.118814	0.499950
C43	C	-1.121387	-0.783021	-0.000049
C44	C	-0.621387	-0.283021	0.499951
N45	N	-1.107339	-0.371953	-0.254277
N46	N	-0.607339	0.128047	0.245723
C47	C	-1.094122	-0.391102	-0.473392
C48	C	-0.594122	0.108898	0.026608
C49	C	-1.151315	-0.308285	-0.526722
C50	C	-0.651315	0.191715	-0.026722
C51	C	-1.143961	-0.318940	-0.648645
C52	C	-0.643961	0.181060	-0.148645
C53	C	-1.101475	-0.380449	-0.351458
C54	C	-0.601475	0.119551	0.148542
N55	N	-1.138101	-0.327430	0.254170
N56	N	-0.638101	0.172570	0.754170
H57	H	-0.618868	-0.175512	0.000026
H58	H	-0.118868	0.324488	0.500026
O59	O	-1.029208	-0.485208	-0.528316
O60	O	-0.529208	0.014792	-0.028316
C61	C	-1.036220	-0.475014	-0.639585
C62	C	-0.536220	0.024986	-0.139585
H63	H	-1.110236	-0.430907	-0.654798
H64	H	-0.610236	0.069093	-0.154798
H65	H	-1.024209	-0.589175	-0.682421
H66	H	-0.524209	-0.089175	-0.182421
H67	H	-0.979885	-0.396720	-0.671510
H68	H	-0.479885	0.103280	-0.171510
O69	O	-0.632832	-0.545958	0.000153
O70	O	-0.132832	-0.045958	0.500153
C71	C	-0.695121	-0.554762	0.092665
C72	C	-0.195121	-0.054762	0.592665
H73	H	-0.674865	-0.468898	0.157322
H74	H	-0.174865	0.031102	0.657322
H75	H	-0.689270	-0.669920	0.123732
H76	H	-0.189270	-0.169920	0.623732
H77	H	-0.771595	-0.532590	0.071751
H78	H	-0.271595	-0.032590	0.571751
H79	H	-1.205803	-0.229383	-0.480813
H80	H	-0.705803	0.270617	0.019187
