data_functionalizedCrystal
_audit_creation_method	'MofGen! by Chris Wilmer'
_symmetry_space_group_name_H-M	'P1'
_symmetry_Int_Tables_number	1
_symmetry_cell_setting	triclinic
loop_
_symmetry_equiv_pos_as_xyz
  x,y,z
_cell_length_a	19.288867
_cell_length_b	10.540514
_cell_length_c	17.766277
_cell_angle_alpha	89.996843
_cell_angle_beta	89.992126
_cell_angle_gamma	83.826114
loop_
_atom_site_label
_atom_site_type_symbol
_atom_site_fract_x
_atom_site_fract_y
_atom_site_fract_z
O1	O	0.922401	0.158359	-0.062563
O2	O	0.720282	0.179717	-0.062569
O3	O	0.825962	-0.015773	-0.062567
O4	O	0.816721	0.353850	-0.062565
O5	O	0.825943	-0.015783	0.062622
O6	O	0.720263	0.179707	0.062619
O7	O	0.922382	0.158349	0.062626
Cu8	Cu	0.821321	0.169027	0.074053
Cu9	Cu	0.821343	0.169039	-0.073997
O10	O	0.816702	0.353840	0.062623
C11	C	0.694392	0.179025	0.000024
C12	C	0.617274	0.176960	0.000021
C13	C	0.061621	0.162097	-0.068210
C14	C	0.134081	0.164029	-0.068213
C15	C	0.170306	0.164996	0.000027
C16	C	0.134067	0.163997	0.068275
C17	C	0.061608	0.162053	0.068276
C18	C	0.280138	0.242417	0.052308
C19	C	0.352594	0.244369	0.052304
C20	C	0.393791	0.170988	0.000027
C21	C	0.362522	0.095671	-0.052259
C22	C	0.290064	0.093726	-0.052258
C23	C	0.248875	0.167104	0.000034
C24	C	0.508592	0.174072	-0.068220
C25	C	0.581054	0.175996	-0.068219
C26	C	0.581038	0.175977	0.068271
C27	C	0.508578	0.174040	0.068269
C28	C	0.472359	0.173094	0.000021
C29	C	0.825263	-0.063066	0.000025
C30	C	0.823201	-0.203970	0.000020
C31	C	0.898782	-0.276359	0.000024
C32	C	0.896662	-0.422925	0.000313
C33	C	0.782086	-0.395396	0.071374
C34	C	0.784741	-0.248915	0.071429
C35	C	0.783644	-0.248481	-0.070939
C36	C	0.782915	-0.395443	-0.071871
C37	C	0.948272	0.159042	0.000031
C38	C	1.025390	0.161106	0.000029
C39	C	0.817401	0.401133	0.000029
C40	C	0.819463	0.542037	0.000030
N41	N	0.821310	0.169018	0.178184
N42	N	0.821359	0.169038	-0.178127
C43	C	0.868121	0.082498	0.217572
C44	C	0.868125	0.082492	0.296373
C45	C	0.821325	0.169028	0.335784
C46	C	0.774506	0.255556	0.296387
C47	C	0.774498	0.255551	0.217586
C48	C	0.812792	0.284684	0.460622
C49	C	0.812804	0.284691	0.539421
C50	C	0.821344	0.169044	0.578830
C51	C	0.829885	0.053385	0.539431
C52	C	0.829878	0.053380	0.460631
C53	C	0.821327	0.169043	0.421230
C54	C	0.868161	0.082509	0.703664
C55	C	0.868160	0.082502	0.782468
C56	C	0.774544	0.255577	0.782479
C57	C	0.774542	0.255574	0.703678
C58	C	0.821354	0.169041	0.664275
H59	H	0.163566	0.164782	0.123836
H60	H	0.906245	0.012033	0.328449
H61	H	0.736427	0.326032	0.671606
C62	C	0.706898	-0.426412	-0.077983
H63	H	0.696407	-0.478099	-0.036576
H64	H	0.700938	-0.470897	-0.123628
H65	H	0.676448	-0.349332	-0.077496
H66	H	0.032109	0.161250	0.123846
H67	H	0.727892	-0.199998	-0.071623
H68	H	0.808810	-0.217541	-0.125033
C69	C	0.821603	-0.211605	0.143747
H70	H	0.834820	-0.285937	0.172814
H71	H	0.790771	-0.153824	0.172210
H72	H	0.861972	-0.172059	0.130829
H73	H	0.246602	0.302166	0.094887
H74	H	0.378046	0.305728	0.094863
H75	H	0.836831	-0.040793	0.428555
H76	H	0.929007	-0.246719	0.051075
H77	H	0.264607	0.032398	-0.094830
H78	H	0.836839	-0.040786	0.571516
C79	C	0.919644	-0.012683	0.660318
H80	H	0.947517	-0.064228	0.695066
H81	H	0.948777	0.032840	0.629569
H82	H	0.894393	-0.065410	0.629588
C83	C	0.173943	0.165135	-0.143279
H84	H	0.141994	0.164302	-0.183923
H85	H	0.207147	0.091896	-0.146125
H86	H	0.197269	0.239914	-0.146102
C87	C	0.936179	-0.480193	0.069814
H88	H	0.953587	-0.413867	0.097985
H89	H	0.973942	-0.539524	0.054021
H90	H	0.905380	-0.522501	0.100325
C91	C	0.468688	0.173403	0.143330
H92	H	0.420339	0.172230	0.133557
H93	H	0.475705	0.247856	0.171206
H94	H	0.485398	0.099834	0.171532
C95	C	0.407828	0.014948	-0.109768
H96	H	0.455461	0.026879	-0.102277
H97	H	0.394217	0.040779	-0.159307
H98	H	0.401768	-0.072621	-0.103186
C99	C	0.816696	-0.453666	0.143381
H100	H	0.793706	-0.415188	0.186254
H101	H	0.864405	-0.438855	0.144200
H102	H	0.813317	-0.542912	0.144117
C103	C	0.936417	-0.481458	-0.068729
H104	H	0.954010	-0.415669	-0.097208
H105	H	0.905720	-0.524202	-0.099107
H106	H	0.974074	-0.540603	-0.052454
C107	C	0.468748	0.173036	-0.143286
H108	H	0.500708	0.173891	-0.183929
H109	H	0.435554	0.246291	-0.146115
H110	H	0.445412	0.098273	-0.146131
C111	C	0.919605	-0.012697	0.174233
H112	H	0.947480	-0.064236	0.208982
H113	H	0.948736	0.032822	0.143479
H114	H	0.894354	-0.065431	0.143507
H115	H	0.810231	-0.437044	-0.124653
H116	H	0.906277	0.012039	0.814538
H117	H	0.729221	-0.199673	0.074470
C118	C	0.723065	0.350766	0.825822
H119	H	0.729775	0.338383	0.878394
H120	H	0.676644	0.337197	0.812919
H121	H	0.731026	0.435451	0.812901
H122	H	0.805854	0.378867	0.571494
C123	C	0.803404	0.411904	0.417280
H124	H	0.798330	0.480784	0.452028
H125	H	0.762973	0.414668	0.386547
H126	H	0.843128	0.418752	0.386532
C127	C	0.723029	0.350747	0.339735
H128	H	0.729743	0.338369	0.392307
H129	H	0.676607	0.337178	0.326836
H130	H	0.730989	0.435432	0.326811
C131	C	0.723009	0.350737	0.174258
H132	H	0.695139	0.402281	0.209012
H133	H	0.693874	0.305211	0.143524
H134	H	0.748256	0.403465	0.143513
C135	C	0.940217	-0.238724	-0.069077
H136	H	0.911798	-0.178520	-0.098549
H137	H	0.953904	-0.312479	-0.098456
H138	H	0.980511	-0.201924	-0.052855
H139	H	0.610531	0.176759	0.123833
C140	C	0.021786	0.161023	-0.143279
H141	H	0.053747	0.161874	-0.183920
H142	H	-0.011419	0.234261	-0.146122
H143	H	-0.001537	0.086243	-0.146111
C144	C	0.620909	0.177087	-0.143286
H145	H	0.588957	0.176257	-0.183928
H146	H	0.654109	0.103841	-0.146132
H147	H	0.644240	0.251859	-0.146115
C148	C	0.705490	-0.423838	0.074692
H149	H	0.695603	-0.474250	0.032498
H150	H	0.675772	-0.345900	0.073912
H151	H	0.697845	-0.468940	0.119713
