data_functionalizedCrystal
_audit_creation_method	'MofGen! by Chris Wilmer'
_symmetry_space_group_name_H-M	'P1'
_symmetry_Int_Tables_number	1
_symmetry_cell_setting	triclinic
loop_
_symmetry_equiv_pos_as_xyz
  x,y,z
_cell_length_a	11.169417
_cell_length_b	13.897448
_cell_length_c	11.169409
_cell_angle_alpha	89.964424
_cell_angle_beta	89.980176
_cell_angle_gamma	90.018571
loop_
_atom_site_label
_atom_site_type_symbol
_atom_site_fract_x
_atom_site_fract_y
_atom_site_fract_z
Zn1	Zn	1.834901	-0.383914	-0.678516
Zn2	Zn	2.334901	0.116086	-0.178516
Zn3	Zn	1.834765	-0.545250	-0.477821
Zn4	Zn	2.334765	-0.045250	0.022179
Zn5	Zn	1.634187	-0.383973	-0.477850
Zn6	Zn	2.134187	0.116027	0.022150
Zn7	Zn	1.634169	-0.545171	-0.678466
Zn8	Zn	2.134169	-0.045171	-0.178466
O9	O	1.734505	-0.464577	-0.578163
O10	O	2.234505	0.035423	-0.078163
O11	O	2.002833	-0.405324	-0.651902
O12	O	2.502833	0.094676	-0.151902
O13	O	1.808108	-0.523914	-0.309875
O14	O	2.308108	-0.023914	0.190125
O15	O	1.660877	-0.248984	-0.504502
O16	O	2.160877	0.251016	-0.004502
O17	O	2.002732	-0.523857	-0.504453
O18	O	2.502732	-0.023857	-0.004453
O19	O	1.808341	-0.248940	-0.651930
O20	O	2.308341	0.251060	-0.151930
O21	O	1.660745	-0.405424	-0.309896
O22	O	2.160745	0.094576	0.190104
O23	O	1.466235	-0.405348	-0.504454
O24	O	1.966235	0.094652	-0.004454
O25	O	1.660846	-0.523723	-0.846423
O26	O	2.160846	-0.023723	-0.346423
O27	O	1.466221	-0.523780	-0.651845
O28	O	1.966221	-0.023780	-0.151845
O29	O	1.808323	-0.405248	-0.846459
O30	O	2.308323	0.094752	-0.346459
O31	O	1.808090	-0.680221	-0.504404
O32	O	2.308090	-0.180221	-0.004404
O33	O	1.660713	-0.680163	-0.651817
O34	O	2.160713	-0.180163	-0.151817
C35	C	1.422681	-0.464562	-0.578148
C36	C	1.922681	0.035438	-0.078148
C37	C	1.289281	-0.464579	-0.578170
C38	C	1.789281	0.035421	-0.078170
C39	C	1.734418	-0.715191	-0.578129
C40	C	2.234418	-0.215191	-0.078129
C41	C	1.734490	-0.822405	-0.578154
C42	C	2.234490	-0.322405	-0.078154
C43	C	1.734616	-1.018700	-0.578229
C44	C	2.234616	-0.518700	-0.078229
C45	C	1.734543	-0.909468	-0.578191
C46	C	2.234543	-0.409468	-0.078191
C47	C	2.047548	-0.464592	-0.578180
C48	C	2.547548	0.035408	-0.078180
C49	C	2.180948	-0.464599	-0.578186
C50	C	2.680948	0.035401	-0.078186
C51	C	1.734597	-0.464470	-0.891206
C52	C	2.234597	0.035530	-0.391206
C53	C	1.734637	-0.464424	-1.024606
C54	C	2.234637	0.035576	-0.524606
C55	C	1.734626	-0.212984	-0.578224
C56	C	2.234626	0.287016	-0.078224
C57	C	1.734677	-0.105770	-0.578251
C58	C	2.234677	0.394230	-0.078251
C59	C	1.734483	-0.464614	-0.266339
C60	C	2.234483	0.035386	0.233661
C61	C	1.734676	-0.464388	-0.132939
C62	C	2.234676	0.035612	0.367061
