data_functionalizedCrystal
_audit_creation_method	'MofGen! by Chris Wilmer'
_symmetry_space_group_name_H-M	'P1'
_symmetry_Int_Tables_number	1
_symmetry_cell_setting	triclinic
loop_
_symmetry_equiv_pos_as_xyz
  x,y,z
_cell_length_a	17.699083
_cell_length_b	16.974813
_cell_length_c	16.176319
_cell_angle_alpha	86.338635
_cell_angle_beta	89.998611
_cell_angle_gamma	83.339637
loop_
_atom_site_label
_atom_site_type_symbol
_atom_site_fract_x
_atom_site_fract_y
_atom_site_fract_z
O1	O	1.004151	0.099992	-0.075319
O2	O	1.504151	0.599992	0.424681
O3	O	0.783782	0.113001	-0.076216
O4	O	1.283782	0.613001	0.423784
O5	O	0.900110	-0.008619	-0.068062
O6	O	1.400110	0.491381	0.431938
O7	O	0.887824	0.221612	-0.083473
O8	O	1.387824	0.721612	0.416527
O9	O	0.900094	-0.008626	0.069432
O10	O	1.400094	0.491374	0.569432
O11	O	0.783766	0.112994	0.061278
O12	O	1.283766	0.612994	0.561278
O13	O	1.004135	0.099985	0.062175
O14	O	1.504135	0.599985	0.562175
Cu15	Cu	0.893949	0.106488	0.074280
Cu16	Cu	1.393949	0.606488	0.574280
Cu17	Cu	0.893968	0.106498	-0.088322
Cu18	Cu	1.393968	0.606498	0.411678
O19	O	0.887808	0.221605	0.054020
O20	O	1.387808	0.721605	0.554020
C21	C	0.755577	0.112531	-0.007442
C22	C	1.255577	0.612531	0.492558
C23	C	0.671558	0.111133	-0.007358
C24	C	1.171558	0.611133	0.492642
C25	C	0.622988	0.182521	-0.012137
C26	C	1.122988	0.682521	0.487863
C27	C	0.544044	0.181203	-0.012038
C28	C	1.044044	0.681203	0.487962
C29	C	0.513671	0.108495	-0.007166
C30	C	1.013671	0.608495	0.492834
C31	C	0.562246	0.037101	-0.002385
C32	C	1.062246	0.537101	0.497615
C33	C	0.641189	0.038420	-0.002478
C34	C	1.141189	0.538420	0.497522
C35	C	0.243879	0.031778	-0.002008
C36	C	0.743879	0.531778	0.497992
C37	C	0.164930	0.030464	-0.001918
C38	C	0.664930	0.530464	0.498082
C39	C	0.146735	0.174560	-0.011568
C40	C	0.646735	0.674560	0.488432
C41	C	0.225677	0.175880	-0.011661
C42	C	0.725677	0.675880	0.488339
C43	C	0.274246	0.104486	-0.006875
C44	C	0.774246	0.604486	0.493125
C45	C	0.359846	0.105917	-0.006981
C46	C	0.859846	0.605917	0.493019
C47	C	0.428072	0.107063	-0.007066
C48	C	0.928072	0.607063	0.492934
C49	C	0.899634	-0.038080	0.002655
C50	C	1.399634	0.461920	0.502655
C51	C	0.898232	-0.125855	0.008525
C52	C	1.398232	0.374145	0.508525
C53	C	0.897584	-0.167082	-0.063665
C54	C	1.397584	0.332918	0.436335
C55	C	0.896261	-0.249555	-0.058147
C56	C	1.396261	0.250445	0.441853
C57	C	0.895593	-0.290799	0.019561
C58	C	1.395593	0.209201	0.519561
C59	C	0.896239	-0.249565	0.091756
C60	C	1.396239	0.250435	0.591756
C61	C	0.897556	-0.167093	0.086238
C62	C	1.397556	0.332907	0.586238
C63	C	0.891648	-0.537454	0.044103
C64	C	1.391648	-0.037454	0.544103
C65	C	0.890334	-0.619932	0.049616
C66	C	1.390334	-0.119932	0.549616
C67	C	0.890355	-0.619916	-0.100288
C68	C	1.390355	-0.119916	0.399712
C69	C	0.891676	-0.537443	-0.105799
C70	C	1.391676	-0.037443	0.394201
C71	C	0.892318	-0.496216	-0.033605
C72	C	1.392318	0.003784	0.466395
N73	N	0.894244	-0.375100	0.025203
N74	N	1.394244	0.124900	0.525203
N75	N	0.893662	-0.411916	-0.039247
N76	N	1.393662	0.088084	0.460753
C77	C	1.032340	0.100455	-0.006602
C78	C	1.532340	0.600455	0.493398
C79	C	1.116360	0.101853	-0.006690
C80	C	1.616360	0.601853	0.493310
C81	C	0.888283	0.251066	-0.016698
C82	C	1.388283	0.751066	0.483302
C83	C	0.889685	0.338840	-0.022573
C84	C	1.389685	0.838840	0.477427
N85	N	0.893941	0.106481	0.188646
N86	N	1.393941	0.606481	0.688646
N87	N	0.893982	0.106498	-0.202687
N88	N	1.393982	0.606498	0.297313
C89	C	0.945467	0.052650	0.235520
C90	C	1.445467	0.552650	0.735520
C91	C	0.945471	0.052649	0.322067
C92	C	1.445471	0.552649	0.822067
C93	C	0.893952	0.106484	0.361739
C94	C	1.393952	0.606484	0.861739
C95	C	0.842421	0.160318	0.314859
C96	C	1.342421	0.660318	0.814859
C97	C	0.842415	0.160315	0.228314
C98	C	1.342415	0.660315	0.728314
C99	C	0.842447	0.160333	0.663886
C100	C	1.342447	0.660333	1.163886
C101	C	0.842460	0.160334	0.750438
C102	C	1.342460	0.660334	1.250438
C103	C	0.945503	0.052668	0.757639
C104	C	1.445503	0.552668	1.257639
C105	C	0.945496	0.052664	0.671094
C106	C	1.445496	0.552664	1.171094
C107	C	0.893963	0.106495	0.624222
C108	C	1.393963	0.606495	1.124222
C109	C	0.893959	0.106494	0.530378
C110	C	1.393959	0.606494	1.030378
C111	C	0.893960	0.106489	0.455581
C112	C	1.393960	0.606489	0.955581
H113	H	0.250403	0.235086	-0.015632
H114	H	0.750403	0.735086	0.484368
O115	O	0.898121	-0.126925	-0.139109
O116	O	1.398121	0.373075	0.360891
C117	C	0.833350	-0.070161	-0.147402
C118	C	1.333350	0.429839	0.352598
H119	H	0.811709	-0.054778	-0.083357
H120	H	1.311709	0.445222	0.416643
H121	H	0.849001	-0.014208	-0.182880
H122	H	1.349001	0.485792	0.317120
H123	H	0.786964	-0.095596	-0.182676
H124	H	1.286964	0.404404	0.317324
H125	H	0.987450	0.008829	0.638796
H126	H	1.487450	0.508829	1.138796
H127	H	0.107180	0.232692	-0.015460
H128	H	0.607180	0.732692	0.484540
O129	O	0.895456	-0.289575	0.167260
O130	O	1.395456	0.210425	0.667260
C131	C	0.830265	-0.260336	0.210902
C132	C	1.330265	0.239664	0.710902
H133	H	0.784837	-0.231316	0.165102
H134	H	1.284837	0.268684	0.665102
H135	H	0.807406	-0.311530	0.248321
H136	H	1.307406	0.188470	0.748321
H137	H	0.845835	-0.214522	0.254573
H138	H	1.345835	0.285478	0.754573
H139	H	0.537510	-0.022099	0.001594
H140	H	1.037510	0.477901	0.501594
O141	O	0.135551	-0.040238	0.002861
O142	O	0.635551	0.459762	0.502861
C143	C	0.195346	-0.102970	0.007047
C144	C	0.695346	0.397030	0.507047
H145	H	0.248953	-0.080912	0.031597
H146	H	0.748953	0.419088	0.531597
H147	H	0.178896	-0.153739	0.050369
H148	H	0.678896	0.346261	0.550369
H149	H	0.206539	-0.124987	-0.057440
H150	H	0.706539	0.375013	0.442560
O151	O	0.792366	0.212702	0.618485
O152	O	1.292366	0.712702	1.118485
C153	C	0.746888	0.260206	0.672063
C154	C	1.246888	0.760206	1.172063
H155	H	0.777926	0.261059	0.733692
H156	H	1.277926	0.761059	1.233692
H157	H	0.735269	0.323368	0.642825
H158	H	1.235269	0.823368	1.142825
H159	H	0.690696	0.234605	0.682995
H160	H	1.190696	0.734605	1.182995
O161	O	0.995628	0.000335	0.803047
O162	O	1.495628	0.500335	1.303047
C163	C	1.041084	-0.047193	0.749472
C164	C	1.541084	0.452807	1.249472
H165	H	1.041902	-0.014772	0.685609
H166	H	1.541902	0.485228	1.185609
H167	H	1.101539	-0.059340	0.775286
H168	H	1.601539	0.440660	1.275286
H169	H	1.016571	-0.105898	0.744201
H170	H	1.516571	0.394102	1.244201
H171	H	0.680734	-0.019712	0.001413
H172	H	1.180734	0.480288	0.501413
O173	O	0.792376	0.212520	0.789075
O174	O	1.292376	0.712520	1.289075
C175	C	0.745733	0.170227	0.841966
C176	C	1.245733	0.670227	1.341966
H177	H	0.775952	0.108316	0.859074
H178	H	1.275952	0.608316	1.359074
H179	H	0.733730	0.203245	0.900614
H180	H	1.233730	0.703245	1.400614
H181	H	0.689800	0.164920	0.808980
H182	H	1.189800	0.664920	1.308980
O183	O	0.995604	0.000336	0.367473
O184	O	1.495604	0.500336	0.867473
C185	C	1.041068	-0.047186	0.313900
C186	C	1.541068	0.452814	0.813900
H187	H	1.041871	-0.014771	0.250032
H188	H	1.541871	0.485229	0.750032
H189	H	1.101526	-0.059311	0.339707
H190	H	1.601526	0.440689	0.839707
H191	H	1.016571	-0.105902	0.308640
H192	H	1.516571	0.394098	0.808640
H193	H	0.800470	0.204149	0.347165
H194	H	1.300470	0.704149	0.847165
H195	H	0.892222	-0.503868	-0.169078
H196	H	1.392222	-0.003868	0.330922
H197	H	0.895737	-0.283120	-0.116931
H198	H	1.395737	0.216880	0.383069
H199	H	0.283415	-0.026355	0.001890
H200	H	0.783415	0.473645	0.501890
O201	O	0.889609	-0.659868	-0.170468
O202	O	1.389609	-0.159868	0.329532
C203	C	0.824399	-0.630640	-0.218000
C204	C	1.324399	-0.130640	0.282000
H205	H	0.803526	-0.567730	-0.200903
H206	H	1.303526	-0.067730	0.299097
H207	H	0.839169	-0.629864	-0.286621
H208	H	1.339169	-0.129864	0.213379
H209	H	0.777775	-0.670689	-0.204914
H210	H	1.277775	-0.170689	0.295086
H211	H	0.892186	-0.503898	0.102890
H212	H	1.392186	-0.003898	0.602890
O213	O	0.652364	0.253220	-0.016838
O214	O	1.152364	0.753220	0.483162
C215	C	0.592563	0.315946	-0.021054
C216	C	1.092563	0.815946	0.478946
H217	H	0.538959	0.293880	0.006457
H218	H	1.038959	0.793880	0.506457
H219	H	0.609007	0.366716	0.015464
H220	H	1.109007	0.866716	0.515464
H221	H	0.581366	0.337963	-0.088490
H222	H	1.081366	0.837963	0.411510
O223	O	0.496790	0.250499	-0.016795
O224	O	0.996790	0.750499	0.483205
C225	C	0.450594	0.254055	-0.088250
C226	C	0.950594	0.754055	0.411750
H227	H	0.446663	0.191301	-0.107779
H228	H	0.946663	0.691301	0.392221
H229	H	0.391232	0.283628	-0.074216
H230	H	0.891232	0.783628	0.425784
H231	H	0.476530	0.290112	-0.140534
H232	H	0.976530	0.790112	0.359466
H233	H	0.800457	0.204149	0.190150
H234	H	1.300457	0.704149	0.690150
H235	H	0.898073	-0.133525	0.145022
H236	H	1.398073	0.366475	0.645022
O237	O	0.889649	-0.659870	0.125172
O238	O	1.389649	-0.159870	0.625172
C239	C	0.890516	-0.605801	0.187711
C240	C	1.390516	-0.105801	0.687711
H241	H	0.867505	-0.543690	0.161583
H242	H	1.367505	-0.043690	0.661583
H243	H	0.853399	-0.624550	0.241375
H244	H	1.353399	-0.124550	0.741375
H245	H	0.951341	-0.605441	0.210746
H246	H	1.451341	-0.105441	0.710746
O247	O	0.995394	0.000290	0.196918
O248	O	1.495394	0.500290	0.696918
C249	C	0.954884	-0.048451	0.150173
C250	C	1.454884	0.451549	0.650173
H251	H	0.895642	-0.016852	0.135076
H252	H	1.395642	0.483148	0.635076
H253	H	0.986482	-0.061056	0.090164
H254	H	1.486482	0.438944	0.590164
H255	H	0.949770	-0.106857	0.187478
H256	H	1.449770	0.393143	0.687478
