data_functionalizedCrystal
_audit_creation_method	'MofGen! by Chris Wilmer'
_symmetry_space_group_name_H-M	'P1'
_symmetry_Int_Tables_number	1
_symmetry_cell_setting	triclinic
loop_
_symmetry_equiv_pos_as_xyz
  x,y,z
_cell_length_a	14.519709
_cell_length_b	16.109302
_cell_length_c	12.996460
_cell_angle_alpha	89.991849
_cell_angle_beta	89.998766
_cell_angle_gamma	83.570963
loop_
_atom_site_label
_atom_site_type_symbol
_atom_site_fract_x
_atom_site_fract_y
_atom_site_fract_z
O1	O	0.118538	1.103339	-0.085615
O2	O	0.451871	1.436673	0.247718
O3	O	0.785205	1.770006	0.581051
O4	O	0.133289	0.861303	-0.085607
O5	O	0.466623	1.194636	0.247726
O6	O	0.799956	1.527970	0.581059
O7	O	-0.008338	0.988738	-0.085602
O8	O	0.324995	1.322072	0.247731
O9	O	0.658328	1.655405	0.581064
O10	O	0.260166	0.975904	-0.085620
O11	O	0.593499	1.309237	0.247713
O12	O	0.926832	1.642571	0.581046
O13	O	-0.008330	0.988722	0.085532
O14	O	0.325003	1.322055	0.418865
O15	O	0.658336	1.655389	0.752198
O16	O	0.133298	0.861287	0.085526
O17	O	0.466631	1.194620	0.418860
O18	O	0.799964	1.527953	0.752193
O19	O	0.118546	1.103323	0.085519
O20	O	0.451880	1.436656	0.418852
O21	O	0.785213	1.769990	0.752185
Cu22	Cu	0.125923	0.982303	0.101148
Cu23	Cu	0.459256	1.315637	0.434482
Cu24	Cu	0.792589	1.648970	0.767815
Cu25	Cu	0.125913	0.982323	-0.101237
Cu26	Cu	0.459246	1.315656	0.232096
Cu27	Cu	0.792580	1.648989	0.565429
O28	O	0.260174	0.975888	0.085513
O29	O	0.593507	1.309221	0.418847
O30	O	0.926841	1.642554	0.752180
C31	C	0.132696	0.830319	-0.000039
C32	C	0.466029	1.163652	0.333294
C33	C	0.799363	1.496986	0.666627
C34	C	0.130904	0.738021	-0.000036
C35	C	0.464237	1.071354	0.333297
C36	C	0.797571	1.404687	0.666630
C37	C	-0.042693	0.988132	-0.000035
C38	C	0.290641	1.321465	0.333298
C39	C	0.623974	1.654799	0.666631
C40	C	-0.145070	0.986340	-0.000035
C41	C	0.188263	1.319673	0.333299
C42	C	0.521596	1.653006	0.666632
C43	C	0.126765	0.525664	0.093239
C44	C	0.460099	0.858997	0.426572
C45	C	0.793432	1.192330	0.759906
C46	C	0.125072	0.438941	0.093235
C47	C	0.458405	0.772274	0.426569
C48	C	0.791738	1.105607	0.759902
C49	C	0.125068	0.438969	-0.093344
C50	C	0.458401	0.772302	0.239989
C51	C	0.791734	1.105636	0.573323
C52	C	0.126754	0.525691	-0.093339
C53	C	0.460088	0.859024	0.239994
C54	C	0.793421	1.192358	0.573327
C55	C	0.127608	0.569036	-0.000045
C56	C	0.460941	0.902369	0.333288
C57	C	0.794275	1.235702	0.666622
C58	C	0.124228	0.395590	-0.000053
C59	C	0.457561	0.728924	0.333280
C60	C	0.790894	1.062257	0.666614
C61	C	0.122391	0.301562	-0.000057
C62	C	0.455725	0.634895	0.333276
C63	C	0.789058	0.968228	0.666609
C64	C	0.129442	0.663071	-0.000040
C65	C	0.462776	0.996404	0.333293
C66	C	0.796109	1.329737	0.666627
C67	C	-0.519952	0.979741	-0.000061
C68	C	-0.186619	1.313074	0.333272
C69	C	0.146715	1.646408	0.666606
C70	C	-0.415648	0.981574	-0.000053
C71	C	-0.082315	1.314907	0.333280
C72	C	0.251019	1.648240	0.666613
C73	C	-0.332514	0.983040	-0.000047
C74	C	0.000819	1.316374	0.333286
C75	C	0.334152	1.649707	0.666620
C76	C	-0.228204	0.984873	-0.000041
C77	C	0.105130	1.318206	0.333292
C78	C	0.438463	1.651540	0.666626
C79	C	0.294528	0.976494	-0.000056
C80	C	0.627862	1.309827	0.333277
C81	C	0.961195	1.643161	0.666611
C82	C	0.396906	0.978286	-0.000063
C83	C	0.730239	1.311620	0.333270
C84	C	1.063572	1.644953	0.666603
C85	C	0.119140	1.134307	-0.000052
C86	C	0.452473	1.467640	0.333282
C87	C	0.785806	1.800974	0.666615
C88	C	0.120932	1.226605	-0.000062
C89	C	0.454265	1.559939	0.333272
C90	C	0.787598	1.893272	0.666605
N91	N	0.125929	0.982296	0.243495
N92	N	0.459262	1.315629	0.576829
N93	N	0.792596	1.648962	0.910162
N94	N	0.125899	0.982337	-0.243584
N95	N	0.459233	1.315670	0.089749
N96	N	0.792566	1.649004	0.423082
C97	C	0.125931	0.982300	0.336601
C98	C	0.459264	1.315633	0.669935
C99	C	0.792598	1.648966	1.003268
C100	C	0.125925	0.982307	0.453407
C101	C	0.459258	1.315640	0.786740
C102	C	0.792592	1.648974	1.120073
C103	C	0.125915	0.982318	0.546505
C104	C	0.459248	1.315651	0.879838
C105	C	0.792581	1.648984	1.213171
C106	C	0.125910	0.982326	0.663317
C107	C	0.459243	1.315660	0.996651
C108	C	0.792576	1.648993	1.329984
H109	H	0.127460	0.560952	0.169205
H110	H	0.460794	0.894285	0.502539
H111	H	0.794127	1.227619	0.835872
H112	H	0.127438	0.561006	-0.169307
H113	H	0.460771	0.894339	0.164026
H114	H	0.794105	1.227673	0.497360
Br115	Br	0.123927	0.380081	0.219841
Br116	Br	0.457260	0.713415	0.553174
Br117	Br	0.790593	1.046748	0.886507
Br118	Br	0.123881	0.380142	-0.219952
Br119	Br	0.457215	0.713476	0.113382
Br120	Br	0.790548	1.046809	0.446715
