data_functionalizedCrystal
_audit_creation_method	'MofGen! by Chris Wilmer'
_symmetry_space_group_name_H-M	'P1'
_symmetry_Int_Tables_number	1
_symmetry_cell_setting	triclinic
loop_
_symmetry_equiv_pos_as_xyz
  x,y,z
_cell_length_a	14.519709
_cell_length_b	17.038272
_cell_length_c	13.596369
_cell_angle_alpha	89.993837
_cell_angle_beta	90.000291
_cell_angle_gamma	87.395851
loop_
_atom_site_label
_atom_site_type_symbol
_atom_site_fract_x
_atom_site_fract_y
_atom_site_fract_z
O1	O	1.231711	0.102502	-0.081664
O2	O	1.731711	0.602502	0.418336
O3	O	0.964158	0.114573	-0.081694
O4	O	1.464158	0.614573	0.418306
O5	O	1.096344	-0.005280	-0.081671
O6	O	1.596344	0.494720	0.418329
O7	O	1.099525	0.222356	-0.081686
O8	O	1.599525	0.722356	0.418314
O9	O	1.096330	-0.005286	0.081912
O10	O	1.596330	0.494714	0.581912
O11	O	0.964143	0.114567	0.081889
O12	O	1.464143	0.614567	0.581889
O13	O	1.231696	0.102496	0.081919
O14	O	1.731696	0.602496	0.581919
Zn15	Zn	1.097918	0.108530	0.107877
Zn16	Zn	1.597918	0.608530	0.607877
Zn17	Zn	1.097937	0.108539	-0.107651
Zn18	Zn	1.597937	0.608539	0.392349
O19	O	1.099510	0.222349	0.081897
O20	O	1.599510	0.722349	0.581897
C21	C	0.929748	0.114008	0.000094
C22	C	1.429748	0.614008	0.500094
C23	C	0.827237	0.112322	0.000083
C24	C	1.327237	0.612322	0.500083
C25	C	0.451867	0.106116	0.000128
C26	C	0.951867	0.606116	0.500128
C27	C	0.556307	0.107839	0.000115
C28	C	1.056307	0.607839	0.500115
C29	C	0.639549	0.109219	0.000104
C30	C	1.139549	0.609219	0.500104
C31	C	0.743995	0.110942	0.000093
C32	C	1.243995	0.610942	0.500093
C33	C	1.093444	-0.034416	0.000120
C34	C	1.593444	0.465584	0.500120
C35	C	1.084814	-0.121223	0.000119
C36	C	1.584814	0.378777	0.500119
C37	C	1.164047	-0.171209	0.000129
C38	C	1.664047	0.328791	0.500129
C39	C	1.155933	-0.252773	0.000118
C40	C	1.655933	0.247227	0.500118
C41	C	1.068585	-0.284349	0.000105
C42	C	1.568585	0.215651	0.500105
C43	C	0.989347	-0.234357	0.000092
C44	C	1.489347	0.265643	0.500092
C45	C	0.997462	-0.152795	0.000096
C46	C	1.497462	0.347205	0.500096
C47	C	1.039916	-0.530153	0.000089
C48	C	1.539916	-0.030153	0.500089
C49	C	1.031807	-0.611722	0.000088
C50	C	1.531807	-0.111722	0.500088
C51	C	1.198394	-0.630132	0.000112
C52	C	1.698394	-0.130132	0.500112
C53	C	1.206502	-0.548568	0.000122
C54	C	1.706502	-0.048568	0.500122
C55	C	1.127263	-0.498583	0.000104
C56	C	1.627263	0.001417	0.500104
C57	C	1.060289	-0.367720	0.000098
C58	C	1.560289	0.132280	0.500098
C59	C	1.135560	-0.415213	0.000104
C60	C	1.635560	0.084787	0.500104
C61	C	1.266107	0.103062	0.000129
C62	C	1.766107	0.603062	0.500129
C63	C	1.368617	0.104748	0.000134
C64	C	1.868617	0.604748	0.500134
C65	C	1.102410	0.251486	0.000103
C66	C	1.602410	0.751486	0.500103
C67	C	1.111040	0.338292	0.000098
C68	C	1.611040	0.838292	0.500098
N69	N	1.097911	0.108524	0.254968
N70	N	1.597911	0.608524	0.754968
N71	N	1.097950	0.108539	-0.254743
N72	N	1.597950	0.608539	0.245257
C73	C	1.097936	0.108540	0.656259
C74	C	1.597936	0.608540	1.156259
C75	C	1.097926	0.108538	0.544608
C76	C	1.597926	0.608538	1.044608
C77	C	1.097924	0.108533	0.455617
C78	C	1.597924	0.608533	0.955617
C79	C	1.097913	0.108530	0.343959
C80	C	1.597913	0.608530	0.843959
H81	H	1.220453	-0.293468	0.000129
H82	H	1.720453	0.206532	0.500129
O83	O	1.220457	-0.384637	0.000246
O84	O	1.720457	0.115363	0.500246
C85	C	1.269128	-0.410155	0.084988
C86	C	1.769128	0.089845	0.584988
H87	H	1.239555	-0.466761	0.113229
H88	H	1.739555	0.033239	0.613229
H89	H	1.262135	-0.362979	0.144311
H90	H	1.762135	0.137021	0.644311
C91	C	1.408008	-0.355767	0.024584
C92	C	1.908008	0.144233	0.524584
C93	C	1.371692	-0.425295	0.059266
C94	C	1.871692	0.074705	0.559266
H95	H	1.471275	-0.365103	0.008720
H96	H	1.971275	0.134897	0.508720
H97	H	1.375218	-0.338572	-0.032507
H98	H	1.875218	0.161428	0.467493
H99	H	1.402172	-0.316460	0.074025
H100	H	1.902172	0.183540	0.574025
H101	H	1.377518	-0.464597	0.009820
H102	H	1.877518	0.035403	0.509820
H103	H	1.404486	-0.442497	0.116348
H104	H	1.904486	0.057503	0.616348
O105	O	0.975492	-0.398489	-0.000037
O106	O	1.475492	0.101511	0.499963
C107	C	0.965817	-0.445092	-0.084774
C108	C	1.465817	0.054908	0.415226
H109	H	1.036922	-0.465292	-0.113017
H110	H	1.536922	0.034708	0.386983
H111	H	0.927836	-0.409113	-0.144098
H112	H	1.427836	0.090887	0.355902
C113	C	0.823169	-0.492506	-0.024356
C114	C	1.323169	0.007494	0.475644
C115	C	0.910502	-0.517321	-0.059040
C116	C	1.410502	-0.017321	0.440960
H117	H	0.789046	-0.537058	-0.008485
H118	H	1.289046	-0.037058	0.491515
H119	H	0.829686	-0.461106	0.032731
H120	H	1.329686	0.038894	0.532731
H121	H	0.791530	-0.462522	-0.073799
H122	H	1.291530	0.037478	0.426201
H123	H	0.942144	-0.547295	-0.009594
H124	H	1.442144	-0.047295	0.490406
H125	H	0.903990	-0.548727	-0.116119
H126	H	1.403990	-0.048727	0.383881
O127	O	1.275428	-0.678608	-0.000011
O128	O	1.775428	-0.178608	0.499989
C129	C	1.328074	-0.664282	-0.084740
C130	C	1.828074	-0.164282	0.415260
H131	H	1.310282	-0.602441	-0.112983
H132	H	1.810282	-0.102441	0.387017
H133	H	1.311965	-0.708903	-0.144069
H134	H	1.811965	-0.208903	0.355931
C135	C	1.453230	-0.747846	-0.024310
C136	C	1.953230	-0.247846	0.475690
C137	C	1.431383	-0.671889	-0.058994
C138	C	1.931383	-0.171889	0.441006
H139	H	1.516955	-0.752542	-0.008431
H140	H	2.016955	-0.252542	0.491569
H141	H	1.417760	-0.757501	0.032772
H142	H	1.917760	-0.257501	0.532772
H143	H	1.439798	-0.785022	-0.073756
H144	H	1.939798	-0.285022	0.426244
H145	H	1.444803	-0.634716	-0.009543
H146	H	1.944803	-0.134716	0.490457
H147	H	1.466857	-0.662228	-0.116067
H148	H	1.966857	-0.162228	0.383933
H149	H	1.235175	-0.145506	0.000145
H150	H	1.735175	0.354494	0.500145
O151	O	0.946934	-0.642361	-0.000107
O152	O	1.446934	-0.142361	0.499893
C153	C	0.898251	-0.616814	-0.084829
C154	C	1.398251	-0.116814	0.415171
H155	H	0.949226	-0.599770	-0.144032
H156	H	1.449226	-0.099770	0.355968
H157	H	0.851013	-0.563737	-0.065687
H158	H	1.351013	-0.063737	0.434313
C159	C	0.777416	-0.704566	-0.050543
C160	C	1.277416	-0.204566	0.449457
C161	C	0.840025	-0.683638	-0.123260
C162	C	1.340025	-0.183638	0.376740
H163	H	0.741496	-0.745783	-0.074248
H164	H	1.241496	-0.245783	0.425752
H165	H	0.810212	-0.721776	0.006537
H166	H	1.310212	-0.221776	0.506537
H167	H	0.738061	-0.660328	-0.034599
H168	H	1.238061	-0.160328	0.465401
H169	H	0.879386	-0.727872	-0.139195
H170	H	1.379386	-0.227872	0.360805
H171	H	0.807234	-0.666437	-0.180345
H172	H	1.307234	-0.166437	0.319655
O173	O	0.920589	-0.104124	0.000046
O174	O	1.420589	0.395876	0.500046
C175	C	0.946481	-0.025365	0.000073
C176	C	1.446481	0.474635	0.500073
H177	H	1.019175	-0.022136	-0.030886
H178	H	1.519175	0.477864	0.469114
H179	H	0.944826	-0.001789	0.078552
H180	H	1.444826	0.498211	0.578552
C181	C	0.789515	0.020493	-0.026064
C182	C	1.289515	0.520493	0.473936
C183	C	0.878797	0.024460	-0.064096
C184	C	1.378797	0.524460	0.435904
H185	H	0.747763	0.051229	-0.065643
H186	H	1.247763	0.551229	0.434357
H187	H	0.772070	-0.032568	-0.026079
H188	H	1.272070	0.467432	0.473921
H189	H	0.788150	0.040139	0.039334
H190	H	1.288150	0.540139	0.539334
H191	H	0.880164	0.004805	-0.129488
H192	H	1.380164	0.504805	0.370512
H193	H	0.896240	0.077519	-0.064094
H194	H	1.396240	0.577519	0.435906
O195	O	0.963016	-0.481523	0.000208
O196	O	1.463016	0.018477	0.500208
C197	C	0.962704	-0.433812	0.084939
C198	C	1.462704	0.066188	0.584939
H199	H	1.036233	-0.429588	0.113194
H200	H	1.536233	0.070412	0.613194
H201	H	0.918467	-0.460705	0.144259
H202	H	1.418467	0.039295	0.644259
C203	C	0.832484	-0.356258	0.024492
C204	C	1.332484	0.143742	0.524492
C205	C	0.922796	-0.351065	0.059191
C206	C	1.422796	0.148935	0.559191
H207	H	0.807863	-0.305217	0.008612
H208	H	1.307863	0.194783	0.508612
H209	H	0.832692	-0.388403	-0.032591
H210	H	1.332692	0.111597	0.467409
H211	H	0.795632	-0.378672	0.073932
H212	H	1.295632	0.121328	0.573932
H213	H	0.959649	-0.328660	0.009748
H214	H	1.459649	0.171340	0.509748
H215	H	0.922593	-0.318913	0.116266
H216	H	1.422593	0.181087	0.616266
H217	H	1.277629	-0.522865	0.000132
H218	H	1.777629	-0.022865	0.500132
O219	O	0.904446	-0.264934	0.000208
O220	O	1.404446	0.235066	0.500208
C221	C	0.855756	-0.239423	0.084933
C222	C	1.355756	0.260577	0.584933
H223	H	0.885330	-0.182826	0.113184
H224	H	1.385330	0.317174	0.613184
H225	H	0.862725	-0.286609	0.144259
H226	H	1.362725	0.213391	0.644259
C227	C	0.716883	-0.293786	0.024483
C228	C	1.216883	0.206214	0.524483
C229	C	0.753201	-0.224267	0.059176
C230	C	1.253201	0.275733	0.559176
H231	H	0.653621	-0.284440	0.008598
H232	H	1.153621	0.215560	0.508598
H233	H	0.749686	-0.310975	-0.032597
H234	H	1.249686	0.189025	0.467403
H235	H	0.722699	-0.333101	0.073927
H236	H	1.222699	0.166899	0.573927
H237	H	0.747394	-0.184957	0.009728
H238	H	1.247394	0.315043	0.509728
H239	H	0.720393	-0.207071	0.116247
H240	H	1.220393	0.292929	0.616247
