data_functionalizedCrystal
_audit_creation_method	'MofGen! by Chris Wilmer'
_symmetry_space_group_name_H-M	'P1'
_symmetry_Int_Tables_number	1
_symmetry_cell_setting	triclinic
loop_
_symmetry_equiv_pos_as_xyz
  x,y,z
_cell_length_a	17.077404
_cell_length_b	18.101395
_cell_length_c	17.077396
_cell_angle_alpha	89.971698
_cell_angle_beta	89.982756
_cell_angle_gamma	90.031329
loop_
_atom_site_label
_atom_site_type_symbol
_atom_site_fract_x
_atom_site_fract_y
_atom_site_fract_z
Zn1	Zn	1.199992	-0.294819	-0.443848
Zn2	Zn	1.199886	-0.418670	-0.312585
Zn3	Zn	1.068729	-0.294847	-0.312596
Zn4	Zn	1.068673	-0.418624	-0.443808
O5	O	1.134320	-0.356740	-0.378209
O6	O	1.309825	-0.311256	-0.426448
O7	O	1.182466	-0.402275	-0.202739
O8	O	1.086210	-0.191210	-0.330029
O9	O	1.309747	-0.402248	-0.330009
O10	O	1.182648	-0.191190	-0.426459
O11	O	1.086106	-0.311303	-0.202748
O12	O	0.958875	-0.311259	-0.329990
O13	O	1.086114	-0.402170	-0.553660
O14	O	0.958834	-0.402197	-0.426391
O15	O	1.182594	-0.311211	-0.553690
O16	O	1.182412	-0.522296	-0.329970
O17	O	1.086011	-0.522263	-0.426379
C18	C	0.930372	-0.356726	-0.378188
C19	C	0.843123	-0.356738	-0.378197
C20	C	1.134215	-0.549150	-0.378186
C21	C	1.134242	-0.631464	-0.378203
C22	C	0.802131	-0.404162	-0.428312
C23	C	0.720151	-0.404163	-0.428325
C24	C	0.679163	-0.356745	-0.378218
C25	C	0.720160	-0.309317	-0.328100
C26	C	0.802139	-0.309312	-0.328092
C27	C	0.549290	-0.309331	-0.328119
C28	C	0.467305	-0.309337	-0.328126
C29	C	0.467302	-0.404183	-0.428352
C30	C	0.549281	-0.404178	-0.428344
C31	C	0.590272	-0.356750	-0.378225
C32	C	1.134414	-0.930555	-0.378245
C33	C	1.073902	-0.899240	-0.439054
C34	C	1.073614	-0.813622	-0.438863
C35	C	1.134329	-0.782173	-0.378225
C36	C	1.111935	-0.813326	-0.295495
C37	C	1.111545	-0.898971	-0.295859
C38	C	1.217453	-0.898898	-0.399437
C39	C	1.216965	-0.813247	-0.401252
C40	C	1.134282	-0.698313	-0.378208
C41	C	1.134459	-1.014415	-0.378256
C42	C	1.339064	-0.356754	-0.378231
C43	C	1.426314	-0.356760	-0.378241
C44	C	1.134360	-0.356682	-0.582954
C45	C	1.134376	-0.356658	-0.670203
C46	C	1.134447	-0.163578	-0.378250
C47	C	1.134501	-0.081264	-0.378267
C48	C	1.084217	-0.309283	-0.711197
C49	C	1.084230	-0.309266	-0.793178
C50	C	1.134407	-0.356621	-0.834163
C51	C	1.184568	-0.404001	-0.793163
C52	C	1.184551	-0.404021	-0.711184
C53	C	1.184602	-0.403955	-0.964033
C54	C	1.184621	-0.403934	-1.046018
C55	C	1.084281	-0.309200	-1.046027
C56	C	1.084264	-0.309220	-0.964048
C57	C	1.134427	-0.356599	-0.923054
C58	C	1.134326	-0.356744	-0.174261
C59	C	1.134461	-0.356559	-0.087012
H60	H	0.835498	-0.442778	-0.469113
C61	C	1.029058	-0.257146	-0.838268
C62	C	0.939815	-0.263172	-0.826980
C63	C	0.884641	-0.211047	-0.872067
C64	C	0.918710	-0.152896	-0.928443
C65	C	1.007958	-0.146867	-0.939733
C66	C	1.063132	-0.198992	-0.894646
H67	H	0.914591	-0.306221	-0.785245
H68	H	0.818574	-0.215511	-0.863709
H69	H	0.877867	-0.114310	-0.961819
H70	H	1.033183	-0.103818	-0.981468
H71	H	1.129200	-0.194529	-0.903004
H72	H	1.225479	-0.442495	-1.079386
C73	C	0.422214	-0.456350	-0.483487
C74	C	0.433528	-0.450417	-0.572734
C75	C	0.388434	-0.502585	-0.627863
C76	C	0.332027	-0.560684	-0.593745
C77	C	0.320710	-0.566619	-0.504494
C78	C	0.365803	-0.514452	-0.449365
H79	H	0.475286	-0.407407	-0.597994
H80	H	0.396812	-0.498191	-0.693933
H81	H	0.298646	-0.599302	-0.634555
H82	H	0.278952	-0.609630	-0.479234
H83	H	0.357426	-0.518845	-0.383295
H84	H	0.433935	-0.270716	-0.287333
H85	H	1.051877	-0.791941	-0.277221
C86	C	0.991254	-0.928400	-0.420336
C87	C	0.978527	-0.980473	-0.350137
C88	C	0.895881	-1.009637	-0.331418
C89	C	0.825963	-0.986728	-0.382899
C90	C	0.838688	-0.934653	-0.453103
C91	C	0.921334	-0.905489	-0.471821
H92	H	1.030287	-0.997434	-0.312023
H93	H	0.886461	-1.048187	-0.279449
H94	H	0.764783	-1.008317	-0.369043
H95	H	0.786929	-0.917692	-0.491217
H96	H	0.930754	-0.866939	-0.523791
C97	C	1.239777	-0.456071	-0.918932
C98	C	1.329022	-0.450032	-0.930203
C99	C	1.384196	-0.502143	-0.885098
C100	C	1.350126	-0.560293	-0.828721
C101	C	1.260877	-0.566334	-0.817448
C102	C	1.205702	-0.514223	-0.862553
H103	H	1.354247	-0.406983	-0.971938
H104	H	1.450264	-0.497670	-0.893444
H105	H	1.390969	-0.598868	-0.795332
H106	H	1.235652	-0.609383	-0.775712
H107	H	1.139634	-0.518696	-0.854207
H108	H	1.043409	-0.270656	-0.930680
H109	H	1.237870	-0.920445	-0.458736
H110	H	1.233852	-0.792883	-0.462136
H111	H	0.582651	-0.442794	-0.469141
H112	H	1.225402	-0.442593	-0.677808
H113	H	0.686781	-0.270705	-0.287305
H114	H	0.686780	-0.442780	-0.469133
H115	H	1.262537	-0.919149	-0.355148
C116	C	0.594385	-0.257160	-0.272992
C117	C	0.583160	-0.172979	-0.279557
C118	C	0.628258	-0.120811	-0.224432
C119	C	0.684580	-0.152823	-0.162742
C120	C	0.695808	-0.237008	-0.156176
C121	C	0.650711	-0.289176	-0.211301
H122	H	0.541465	-0.149278	-0.325225
H123	H	0.619946	-0.058492	-0.229293
H124	H	0.717964	-0.114205	-0.121935
H125	H	0.737504	-0.260709	-0.110507
H126	H	0.659022	-0.351495	-0.206439
H127	H	0.835513	-0.270691	-0.287287
C128	C	1.029021	-0.257191	-0.666118
C129	C	0.973843	-0.205083	-0.711214
C130	C	0.918643	-0.152991	-0.666137
C131	C	0.918621	-0.153007	-0.575964
C132	C	0.973801	-0.205117	-0.530862
C133	C	1.029001	-0.257209	-0.575939
H134	H	0.973858	-0.205069	-0.777971
H135	H	0.877796	-0.114416	-0.699525
H136	H	0.877759	-0.114446	-0.542595
H137	H	0.973786	-0.205131	-0.464105
H138	H	1.069848	-0.295784	-0.542551
C139	C	1.092490	-0.785158	-0.521744
C140	C	1.107936	-0.840357	-0.588566
C141	C	1.126786	-0.811898	-0.671455
C142	C	1.130191	-0.728239	-0.687523
C143	C	1.114745	-0.673034	-0.620699
C144	C	1.095895	-0.701494	-0.537810
H145	H	1.105415	-0.902291	-0.576673
H146	H	1.138220	-0.852764	-0.720923
H147	H	1.144146	-0.707171	-0.748883
H148	H	1.117266	-0.611100	-0.632592
H149	H	1.084461	-0.660627	-0.488342
C150	C	1.092639	-0.926989	-0.522198
C151	C	1.163113	-0.978426	-0.535899
C152	C	1.181854	-1.006178	-0.619046
C153	C	1.130120	-0.982492	-0.688492
C154	C	1.059642	-0.931052	-0.674793
C155	C	1.040901	-0.903300	-0.591646
H156	H	1.201413	-0.995963	-0.484488
H157	H	1.234027	-1.044257	-0.629186
H158	H	1.143994	-1.003035	-0.750042
H159	H	1.021342	-0.913515	-0.726203
H160	H	0.988727	-0.865221	-0.581506
H161	H	1.012064	-0.793199	-0.424826
H162	H	1.050844	-0.919014	-0.277907
C163	C	1.168483	-0.926966	-0.232551
C164	C	1.214160	-0.871390	-0.181824
C165	C	1.271088	-0.899381	-0.118509
C166	C	1.282339	-0.982949	-0.105921
C167	C	1.236661	-1.038531	-0.156650
C168	C	1.179733	-1.010539	-0.219965
H169	H	1.205833	-0.809523	-0.191141
H170	H	1.304902	-0.858236	-0.080956
H171	H	1.324480	-1.003670	-0.059051
H172	H	1.244988	-1.100397	-0.147333
H173	H	1.145919	-1.051685	-0.257517
C174	C	1.281087	-0.784382	-0.345736
C175	C	1.259440	-0.731851	-0.278222
C176	C	1.323555	-0.703013	-0.222678
C177	C	1.409318	-0.726707	-0.234647
C178	C	1.430970	-0.779241	-0.302164
C179	C	1.366854	-0.808079	-0.357708
H180	H	1.195950	-0.714309	-0.269359
H181	H	1.307527	-0.664124	-0.172697
H182	H	1.456780	-0.705359	-0.193529
H183	H	1.494460	-0.796783	-0.311027
H184	H	1.382883	-0.846968	-0.407689
H185	H	1.154623	-0.792956	-0.248952
H186	H	1.043438	-0.270621	-1.079408
H187	H	1.225419	-0.442562	-0.826540
