data_functionalizedCrystal
_audit_creation_method	'MofGen! by Chris Wilmer'
_symmetry_space_group_name_H-M	'P1'
_symmetry_Int_Tables_number	1
_symmetry_cell_setting	triclinic
loop_
_symmetry_equiv_pos_as_xyz
  x,y,z
_cell_length_a	11.792241
_cell_length_b	15.625163
_cell_length_c	14.750779
_cell_angle_alpha	94.865780
_cell_angle_beta	102.734008
_cell_angle_gamma	84.213043
loop_
_atom_site_label
_atom_site_type_symbol
_atom_site_fract_x
_atom_site_fract_y
_atom_site_fract_z
O1	O	1.495706	0.131809	-0.033843
O2	O	1.166539	0.143554	-0.029777
O3	O	1.326978	0.016739	-0.073911
O4	O	1.335266	0.258623	0.010291
O5	O	1.372333	-0.019106	0.073265
O6	O	1.211893	0.107709	0.117399
O7	O	1.541060	0.095964	0.113332
Zn8	Zn	1.383678	0.096145	0.138733
Zn9	Zn	1.323921	0.143372	-0.055177
O10	O	1.380621	0.222778	0.157467
C11	C	1.345534	-0.032149	-0.011105
C12	C	1.333240	-0.124419	-0.043231
C13	C	1.146850	0.124894	0.043552
C14	C	1.020612	0.122689	0.042776
C15	C	1.291190	-0.234927	-0.168730
C16	C	1.302746	-0.148228	-0.138533
C17	C	1.352185	-0.187305	0.021912
C18	C	1.340628	-0.274008	-0.008271
C19	C	1.310132	-0.297812	-0.103593
C20	C	1.359569	-0.336893	0.056865
C21	C	1.348019	-0.423589	0.026684
C22	C	1.317528	-0.447400	-0.068634
C23	C	1.298582	-0.384508	-0.133775
C24	C	1.390073	-0.313088	0.152186
C25	C	1.409015	-0.375973	0.217323
C26	C	1.397457	-0.462670	0.187142
C27	C	1.366965	-0.486481	0.091824
C28	C	1.416403	-0.525563	0.252282
C29	C	1.404853	-0.612259	0.222101
C30	C	1.355415	-0.573177	0.061643
C31	C	0.789500	0.118624	0.041388
C32	C	0.918107	0.120883	0.042159
C33	C	1.560748	0.114624	0.040002
C34	C	1.686984	0.116830	0.040772
C35	C	1.362064	0.271667	0.094659
C36	C	1.374356	0.363938	0.126779
N37	N	1.424468	0.063913	0.271071
N38	N	1.283139	0.175598	-0.187518
C39	C	1.169212	0.265580	0.693074
C40	C	1.197805	0.242999	0.785715
C41	C	1.339910	0.130747	0.746611
C42	C	1.311325	0.153315	0.653964
C43	C	1.225977	0.220733	0.627204
C44	C	1.368090	0.108468	0.588094
C45	C	1.339512	0.131038	0.495456
C46	C	1.254169	0.198455	0.468689
C47	C	1.197398	0.243303	0.534566
C48	C	1.453444	0.041055	0.614857
C49	C	1.510209	-0.003792	0.548987
C50	C	1.481625	0.018774	0.456346
C51	C	1.396282	0.086190	0.429579
C52	C	1.538395	-0.026074	0.390469
C53	C	1.509817	-0.003505	0.297831
C54	C	1.367704	0.108760	0.336941
H55	H	1.330562	-0.592557	-0.015977
C56	C	1.449950	-0.499366	0.357134
N57	N	1.475215	-0.479634	0.436109
H58	H	1.476713	0.022684	0.690291
H59	H	1.377019	-0.167912	0.099523
H60	H	1.399481	-0.242494	0.176757
C61	C	1.632281	-0.100229	0.419920
N62	N	1.702996	-0.156084	0.442102
C63	C	1.304820	-0.542769	-0.101835
N64	N	1.295247	-0.614601	-0.126841
C65	C	1.425685	-0.681435	0.293755
N66	N	1.441380	-0.733540	0.347726
H67	H	1.556042	-0.040023	0.244198
H68	H	1.273729	-0.403887	-0.211395
C69	C	1.442551	-0.349777	0.322175
N70	N	1.467803	-0.330047	0.401151
H71	H	1.266337	-0.254306	-0.246350
C72	C	1.281899	-0.079054	-0.210196
N73	N	1.266197	-0.026953	-0.264172
H74	H	1.298196	0.163652	0.315152
C75	C	1.222731	0.223281	0.366783
N76	N	1.199050	0.241979	0.290028
C77	C	1.103460	0.317432	0.505114
N78	N	1.032695	0.373255	0.482926
C79	C	1.075274	0.339709	0.663622
N80	N	1.004509	0.395532	0.641434
H81	H	1.151574	0.279526	0.839345
H82	H	1.409405	0.075857	0.768411
C83	C	1.604087	-0.077952	0.578434
N84	N	1.674793	-0.133814	0.600612
