data_functionalizedCrystal
_audit_creation_method	'MofGen! by Chris Wilmer'
_symmetry_space_group_name_H-M	'P1'
_symmetry_Int_Tables_number	1
_symmetry_cell_setting	triclinic
loop_
_symmetry_equiv_pos_as_xyz
  x,y,z
_cell_length_a	10.967874
_cell_length_b	17.038272
_cell_length_c	10.065875
_cell_angle_alpha	99.426590
_cell_angle_beta	69.229500
_cell_angle_gamma	87.838253
loop_
_atom_site_label
_atom_site_type_symbol
_atom_site_fract_x
_atom_site_fract_y
_atom_site_fract_z
O1	O	1.746091	0.057072	-0.524145
O2	O	1.370642	0.076444	-0.435849
O3	O	1.556134	-0.047016	-0.479461
O4	O	1.560600	0.180531	-0.480533
O5	O	1.520773	-0.023382	-0.244159
O6	O	1.335282	0.100077	-0.200546
O7	O	1.710730	0.080706	-0.288843
Zn8	Zn	1.517392	0.094144	-0.207335
Zn9	Zn	1.563981	0.063005	-0.517356
O10	O	1.525239	0.204165	-0.245230
C11	C	1.304686	0.088636	-0.306844
C12	C	1.160837	0.089748	-0.273014
C13	C	1.115022	0.078001	-0.379826
C14	C	0.966347	0.079149	-0.344863
C15	C	1.534394	-0.064253	-0.360855
C16	C	1.522284	-0.150824	-0.358008
C17	C	1.633469	-0.202972	-0.384154
C18	C	1.622084	-0.284316	-0.381490
C19	C	1.499513	-0.313509	-0.352669
C20	C	1.388321	-0.261355	-0.326525
C21	C	1.399708	-0.180014	-0.329199
C22	C	1.459285	-0.558533	-0.343227
C23	C	1.447906	-0.639880	-0.340550
C24	C	1.681671	-0.662835	-0.395518
C25	C	1.693046	-0.581491	-0.398182
C26	C	1.581855	-0.529345	-0.372045
C27	C	1.487873	-0.396654	-0.349940
C28	C	1.593498	-0.446202	-0.374784
C29	C	1.776687	0.068512	-0.417850
C30	C	1.920538	0.067400	-0.451690
C31	C	1.546979	0.221402	-0.363839
C32	C	1.559090	0.307972	-0.366696
N33	N	1.485605	0.115394	0.004244
N34	N	1.595777	0.041749	-0.728938
C35	C	1.552913	0.070394	0.056198
C36	C	1.528460	0.086755	0.219114
H37	H	0.895505	0.090062	-0.227527
C38	C	1.286495	0.152463	0.211976
C39	C	1.383372	0.183756	0.107010
H40	H	1.223385	0.194669	0.275421
H41	H	1.244830	0.115156	0.166040
H42	H	1.325570	0.126350	0.265670
H43	H	1.344298	0.209863	0.053309
H44	H	1.425042	0.221076	0.152950
C45	C	1.662909	-0.099355	0.211380
C46	C	1.697975	-0.026686	0.168483
H47	H	1.725987	-0.141622	0.148098
H48	H	1.659799	-0.097230	0.307424
H49	H	1.579167	-0.108502	0.207685
H50	H	1.781714	-0.017536	0.172188
H51	H	1.701100	-0.028810	0.072415
H52	H	1.452722	0.137394	0.295242
C53	C	1.093270	0.044728	-0.046243
C54	C	1.065216	0.104473	-0.114616
H55	H	1.034244	0.053823	0.051550
H56	H	1.083948	-0.006043	-0.094916
H57	H	1.180642	0.045894	-0.048972
H58	H	0.977846	0.103303	-0.111896
H59	H	1.074526	0.155256	-0.065929
C60	C	1.620303	-0.070719	-0.004002
C61	C	1.655151	0.002045	-0.046603
H62	H	1.683422	-0.112911	-0.067484
H63	H	1.617312	-0.068709	0.091973
H64	H	1.536545	-0.079890	-0.007630
H65	H	1.738905	0.011219	-0.042966
H66	H	1.658156	0.000036	-0.142604
H67	H	0.991377	0.056497	-0.569027
C68	C	1.196894	-0.011571	-0.609959
C69	C	1.210640	0.063280	-0.538224
H70	H	1.255917	-0.020654	-0.707752
H71	H	1.215923	-0.052093	-0.563567
H72	H	1.109520	-0.012724	-0.607226
H73	H	1.298013	0.064430	-0.540948
H74	H	1.191620	0.103811	-0.584629
H75	H	1.693300	-0.422432	-0.398281
H76	H	1.733278	-0.179209	-0.407615
H77	H	1.792856	-0.557728	-0.421651
C78	C	1.854285	-0.298832	-0.436058
C79	C	1.744300	-0.341635	-0.410215
H80	H	1.929736	-0.334219	-0.453782
H81	H	1.866205	-0.274869	-0.518011
H82	H	1.841511	-0.258386	-0.353892
H83	H	1.757070	-0.382077	-0.492385
H84	H	1.732380	-0.365610	-0.328254
C85	C	1.768020	-0.797719	-0.415841
C86	C	1.803890	-0.720157	-0.424266
H87	H	1.843480	-0.833107	-0.433603
H88	H	1.705814	-0.798094	-0.322059
H89	H	1.730458	-0.814562	-0.486166
H90	H	1.841443	-0.703312	-0.353933
H91	H	1.866118	-0.719780	-0.518061
H92	H	1.348085	-0.663643	-0.317056
H93	H	1.309169	-0.137555	-0.307908
C94	C	1.227074	-0.544022	-0.288593
C95	C	1.337061	-0.501219	-0.314471
H96	H	1.151614	-0.508633	-0.270826
H97	H	1.239822	-0.584460	-0.370744
H98	H	1.215185	-0.567992	-0.206639
H99	H	1.348956	-0.477254	-0.396431
H100	H	1.324312	-0.460767	-0.232311
H101	H	1.288522	-0.285132	-0.303067
H102	H	1.388074	-0.420433	-0.326471
