data_functionalizedCrystal
_audit_creation_method	'MofGen! by Chris Wilmer'
_symmetry_space_group_name_H-M	'P1'
_symmetry_Int_Tables_number	1
_symmetry_cell_setting	triclinic
loop_
_symmetry_equiv_pos_as_xyz
  x,y,z
_cell_length_a	12.827892
_cell_length_b	12.759401
_cell_length_c	12.759387
_cell_angle_alpha	89.963213
_cell_angle_beta	89.938948
_cell_angle_gamma	90.019665
loop_
_atom_site_label
_atom_site_type_symbol
_atom_site_fract_x
_atom_site_fract_y
_atom_site_fract_z
Zn1	Zn	-0.415541	1.606460	-0.593933
Zn2	Zn	-0.590414	1.606290	-0.418255
Zn3	Zn	-0.415700	1.430700	-0.418278
Zn4	Zn	-0.590254	1.430749	-0.593902
O5	O	-0.502977	1.518550	-0.506092
O6	O	-0.438738	1.753459	-0.570632
O7	O	-0.567371	1.582907	-0.271237
O8	O	-0.269443	1.454066	-0.441601
O9	O	-0.567217	1.753334	-0.441562
O10	O	-0.269326	1.583196	-0.570654
O11	O	-0.439010	1.453901	-0.271253
O12	O	-0.438855	1.283686	-0.441572
O13	O	-0.566944	1.454149	-0.740928
O14	O	-0.567098	1.283721	-0.570602
O15	O	-0.438583	1.583243	-0.740950
O16	O	-0.736628	1.582954	-0.441532
O17	O	-0.736511	1.453984	-0.570580
C18	C	-0.774487	1.518484	-0.506073
C19	C	-0.890640	1.518552	-0.506101
C20	C	-0.502977	1.245583	-0.506087
C21	C	-0.503003	1.128806	-0.506110
C22	C	-0.502728	1.518720	-0.780126
C23	C	-0.502622	1.518793	-0.896902
C24	C	-0.942448	1.582446	-0.442315
C25	C	-1.062499	1.582518	-0.442341
C26	C	-0.230407	1.518644	-0.506133
C27	C	-0.114254	1.518685	-0.506151
C28	C	-0.502978	1.792583	-0.506097
C29	C	-0.502978	1.909360	-0.506100
C30	C	-0.436090	1.964288	-0.573299
C31	C	-0.436105	2.074012	-0.573307
C32	C	-0.569897	2.073870	-0.438908
C33	C	-0.569887	1.964148	-0.438906
C34	C	-0.503150	1.518441	-0.233124
C35	C	-0.502962	1.518571	-0.116348
C36	C	-0.435394	1.585460	0.047952
C37	C	-0.435561	1.585347	-0.061771
C38	C	-0.570192	1.451897	-0.061195
C39	C	-0.570019	1.452005	0.048527
H40	H	-0.897929	1.637100	-0.387688
H41	H	-0.625067	1.397523	-0.105640
C42	C	-1.054806	1.445914	-0.579105
C43	C	-0.992022	1.505412	-0.646439
C44	C	-0.937245	1.438414	-0.713667
H45	H	-1.012236	1.400137	-0.538952
H46	H	-1.102816	1.405894	-0.619205
H47	H	-0.944017	1.545414	-0.606343
H48	H	-1.034566	1.551187	-0.686615
H49	H	-0.985255	1.398394	-0.753767
H50	H	-0.894681	1.392640	-0.673505
H51	H	-0.894647	1.478773	-0.759367
H52	H	-0.380512	1.639840	0.092381
C53	C	-0.642475	1.904313	-0.366059
C54	C	-0.628166	1.796498	-0.380465
C55	C	-0.695026	1.741345	-0.313395
H56	H	-0.627320	1.922125	-0.295425
H57	H	-0.712698	1.922214	-0.381440
H58	H	-0.557959	1.778604	-0.365076
H59	H	-0.643329	1.778654	-0.451085
H60	H	-0.765249	1.759246	-0.328776
H61	H	-0.679865	1.759166	-0.242766
H62	H	-0.685334	1.668187	-0.323167
H63	H	-0.935162	1.463907	-0.560734
C64	C	-0.363627	1.904668	-0.646319
C65	C	-0.422730	1.841673	-0.713629
C66	C	-0.356013	1.786729	-0.780905
H67	H	-0.323771	1.952980	-0.686443
H68	H	-0.318142	1.861800	-0.606166
H69	H	-0.468197	1.884538	-0.753779
H70	H	-0.462583	1.793343	-0.673534
H71	H	-0.310528	1.743861	-0.740752
H72	H	-0.316161	1.835048	-0.821022
H73	H	-0.396104	1.743973	-0.826576
C74	C	-0.362532	1.657848	-0.121454
C75	C	-0.303493	1.716375	-0.050174
C76	C	-0.236213	1.783185	-0.105115
H77	H	-0.317261	1.617418	-0.164313
H78	H	-0.402219	1.703914	-0.164206
H79	H	-0.263808	1.670314	-0.007440
H80	H	-0.348736	1.756825	-0.007313
H81	H	-0.275901	1.829251	-0.147866
H82	H	-0.190950	1.742747	-0.147972
H83	H	-0.196155	1.822910	-0.056760
H84	H	-0.624371	2.118491	-0.384199
C85	C	-0.643132	1.379581	0.108218
C86	C	-0.702219	1.321095	0.036946
C87	C	-0.769584	1.254379	0.091895
H88	H	-0.603537	1.333479	0.150994
H89	H	-0.688359	1.420109	0.151053
H90	H	-0.656997	1.280571	-0.005871
H91	H	-0.741835	1.367170	-0.005833
H92	H	-0.814811	1.294907	0.134730
H93	H	-0.729980	1.208284	0.134669
H94	H	-0.809689	1.214696	0.043545
H95	H	-1.107052	1.637217	-0.387729
H96	H	-0.381640	2.118730	-0.628027
