data_functionalizedCrystal
_audit_creation_method	'MofGen! by Chris Wilmer'
_symmetry_space_group_name_H-M	'P1'
_symmetry_Int_Tables_number	1
_symmetry_cell_setting	triclinic
loop_
_symmetry_equiv_pos_as_xyz
  x,y,z
_cell_length_a	14.628931
_cell_length_b	14.628931
_cell_length_c	21.606444
_cell_angle_alpha	90.001677
_cell_angle_beta	59.999642
_cell_angle_gamma	59.999807
loop_
_atom_site_label
_atom_site_type_symbol
_atom_site_fract_x
_atom_site_fract_y
_atom_site_fract_z
Zr1	Zr	1.000581	0.880611	-0.081221
O2	O	1.191293	0.734643	-0.180048
O3	O	0.809873	0.925359	-0.050925
O4	O	1.000587	0.925349	-0.180048
O5	O	1.000573	0.734660	0.050929
O6	O	1.000587	1.075781	-0.180048
O7	O	1.000580	0.734653	-0.050925
O8	O	0.659435	1.075799	0.050929
O9	O	1.341725	0.734643	-0.180048
O10	O	0.888312	1.056709	-0.038004
O11	O	0.888308	0.944449	0.038008
O12	O	1.112849	0.944437	-0.114017
O13	O	1.112844	0.832177	-0.038004
Zr14	Zr	1.000570	1.120545	0.081225
Zr15	Zr	1.000580	1.120533	-0.081221
Zr16	Zr	1.000571	0.880624	0.081225
Zr17	Zr	1.240503	0.880611	-0.081221
Zr18	Zr	0.760649	1.120546	0.081225
O19	O	1.191278	1.075798	0.050929
O20	O	1.191292	1.075781	-0.180047
O21	O	1.191279	0.734660	0.050929
O22	O	0.809858	1.266514	0.180052
O23	O	0.809872	1.266497	-0.050925
O24	O	0.809859	0.925376	0.180051
O25	O	1.000578	1.266497	-0.050925
O26	O	1.000564	1.075808	0.180052
O27	O	1.000564	0.925376	0.180051
O28	O	1.000572	1.266504	0.050929
O29	O	1.341725	0.925348	-0.180047
O30	O	0.659426	1.075809	0.180051
O31	O	0.659426	1.266514	0.180051
O32	O	0.659434	1.266505	0.050929
O33	O	1.341717	0.734652	-0.050925
O34	O	1.341717	0.925358	-0.050925
O35	O	0.888303	1.056720	0.114021
O36	O	0.888307	1.168980	0.038008
O37	O	1.112843	1.056708	-0.038004
O38	O	1.112839	0.944448	0.038008
C39	C	0.700470	1.000579	0.000002
C40	C	0.598617	1.000579	0.000002
C41	C	0.447945	1.056266	-0.037705
C42	C	0.553216	1.056268	-0.037706
C43	C	1.000576	0.700473	0.000002
C44	C	1.000577	0.598620	0.000002
C45	C	0.889192	0.608905	0.037709
C46	C	0.889189	0.503636	0.037710
C47	C	1.300681	1.000578	0.000002
C48	C	1.402534	1.000578	0.000002
C49	C	1.000588	1.000563	-0.203193
C50	C	1.000593	1.000558	-0.272155
C51	C	1.000575	1.300684	0.000002
C52	C	1.000574	1.402537	0.000002
C53	C	1.117798	0.941953	-0.344231
C54	C	1.117794	0.941962	-0.409026
C55	C	1.000584	1.000572	-0.401743
C56	C	0.883370	1.059184	-0.329659
C57	C	0.883375	1.059180	-0.264866
C58	C	0.883348	1.059202	-0.590962
C59	C	0.883352	1.059198	-0.655763
C60	C	1.117767	0.941984	-0.735123
C61	C	1.117772	0.941980	-0.670329
C62	C	1.000559	1.000597	-0.598251
C63	C	1.000564	1.000588	-0.527994
C64	C	1.000578	1.000575	-0.471999
C65	C	1.000563	1.000594	0.203197
C66	C	1.000558	1.000599	0.272159
C67	C	0.700469	1.300685	0.000002
C68	C	0.598616	1.402538	0.000002
C69	C	0.700457	1.000594	0.203196
C70	C	0.598600	1.000599	0.272159
C71	C	0.700457	1.300700	0.203197
C72	C	0.598599	1.402558	0.272159
C73	C	1.300695	0.700457	-0.203193
C74	C	1.402552	0.598599	-0.272155
C75	C	1.300682	0.700472	0.000002
C76	C	1.402535	0.598619	0.000002
C77	C	1.300694	1.000563	-0.203192
C78	C	1.402551	1.000557	-0.272155
C79	C	0.550764	1.059206	0.344229
C80	C	0.455072	1.059207	0.409032
C81	C	0.407211	1.000607	0.401764
C82	C	0.455056	0.941993	0.329686
C83	C	0.550753	0.941986	0.264885
C84	C	0.550768	1.509001	0.264867
C85	C	0.455075	1.604717	0.329658
C86	C	0.407209	1.593988	0.401741
C87	C	0.455049	1.487534	0.409032
C88	C	0.550747	1.391821	0.344241
C89	C	1.450395	0.492156	-0.264863
C90	C	1.546117	0.396440	-0.329654
C91	C	1.593989	0.407169	-0.401737
C92	C	1.546142	0.513623	-0.409028
C93	C	1.450428	0.609336	-0.344237
C94	C	1.450382	1.059169	-0.264862
C95	C	1.546075	1.059186	-0.329653
C96	C	1.593942	1.000584	-0.401736
C97	C	1.546102	0.941970	-0.409027
C98	C	1.450404	0.941961	-0.344237
C99	C	0.553209	1.392253	-0.037705
C100	C	0.447939	1.497522	-0.037706
H101	H	0.441595	0.952896	0.032281
Br102	Br	0.390074	1.472992	0.506864
H103	H	0.793833	0.695644	0.069994
Br104	Br	0.615643	1.247366	0.354152
Br105	Br	0.615657	0.862444	0.167077
Br106	Br	0.730238	0.518033	0.091512
H107	H	1.585090	0.894258	-0.467726
Br108	Br	1.385512	0.862398	-0.354147
H109	H	0.416073	0.894282	0.323780
H110	H	1.213207	0.894258	-0.793818
H111	H	0.592275	1.305514	-0.069991
H112	H	0.589722	1.106926	0.350161
Br113	Br	1.385442	1.138710	-0.167044
H114	H	1.411423	0.483399	-0.206175
Br115	Br	0.724271	1.138743	-0.645875
H116	H	0.441566	1.607260	0.032291
Br117	Br	0.615715	1.523593	0.167048
H118	H	0.559568	0.952902	0.032288
Br119	Br	1.159531	0.388131	-0.053817
H120	H	0.408886	1.488891	-0.069986
Br121	Br	0.533534	1.547104	0.053804
Br122	Br	1.723889	0.277259	-0.489661
Br123	Br	0.382870	1.135723	-0.091522
H124	H	1.213244	0.894219	-0.350171
H125	H	0.592263	1.103950	-0.069985
H126	H	1.095936	0.511880	-0.032279
H127	H	1.585132	0.522345	-0.467725
H128	H	0.416133	1.691387	0.323708
H129	H	1.213234	0.894242	-0.467712
H130	H	1.213216	0.894250	-0.676267
Br131	Br	1.385504	0.753791	-0.354148
Br132	Br	0.277332	1.723898	0.489665
H133	H	0.787936	1.106911	-0.323734
Br134	Br	0.724273	1.138703	-0.493150
H135	H	1.585017	1.106915	-0.323702
H136	H	0.416127	1.106942	0.467715
Br137	Br	0.724305	1.138737	-0.167045
H138	H	1.585058	0.309771	-0.323703
H139	H	0.329288	1.000621	0.454536
Br140	Br	1.723821	1.000607	-0.489660
