data_functionalizedCrystal
_audit_creation_method	'MofGen! by Chris Wilmer'
_symmetry_space_group_name_H-M	'P1'
_symmetry_Int_Tables_number	1
_symmetry_cell_setting	triclinic
loop_
_symmetry_equiv_pos_as_xyz
  x,y,z
_cell_length_a	15.995292
_cell_length_b	23.532357
_cell_length_c	15.072220
_cell_angle_alpha	89.993295
_cell_angle_beta	89.986330
_cell_angle_gamma	83.148454
loop_
_atom_site_label
_atom_site_type_symbol
_atom_site_fract_x
_atom_site_fract_y
_atom_site_fract_z
O1	O	1.110398	0.073248	-0.073817
O2	O	0.866538	0.082348	-0.073815
O3	O	0.995843	-0.005109	-0.073798
O4	O	0.981092	0.160704	-0.073835
O5	O	0.995811	-0.005104	0.073767
O6	O	0.866506	0.082353	0.073750
O7	O	1.110366	0.073253	0.073748
Zn8	Zn	0.988431	0.077803	0.097178
Zn9	Zn	0.988473	0.077797	-0.097246
O10	O	0.981060	0.160709	0.073731
C11	C	0.835329	0.081980	-0.000032
C12	C	0.742386	0.080869	-0.000031
C13	C	0.404682	0.076788	-0.000040
C14	C	0.427453	0.139911	-0.000383
C15	C	0.524118	0.141111	-0.000047
C16	C	0.572221	0.078813	-0.000036
C17	C	0.543372	0.047257	0.084235
C18	C	0.446588	0.046497	0.084302
C19	C	0.446780	0.045202	-0.083507
C20	C	0.543252	0.047542	-0.084617
C21	C	0.666907	0.079954	-0.000031
C22	C	0.309997	0.075644	-0.000039
C23	C	0.995458	-0.026324	-0.000013
C24	C	0.994349	-0.089547	-0.000005
C25	C	0.987402	-0.481587	-0.080490
C26	C	0.986348	-0.540990	-0.080495
O27	O	0.985789	-0.571711	-0.148904
N28	N	0.985807	-0.570700	-0.000059
C29	C	0.986313	-0.541004	0.080388
O30	O	0.985756	-0.571729	0.148806
C31	C	0.987362	-0.481601	0.080392
C32	C	0.987910	-0.451894	-0.000049
C33	C	0.987950	-0.451880	-0.160926
C34	C	0.989006	-0.392481	-0.160920
C35	C	0.989514	-0.362788	-0.080479
C36	C	0.988966	-0.392495	-0.000044
C37	C	0.987861	-0.451905	0.160839
C38	C	0.988909	-0.392498	0.160836
C39	C	0.989458	-0.362791	0.080394
C40	C	0.990531	-0.303404	0.080402
N41	N	0.991071	-0.273693	-0.000035
C42	C	0.990563	-0.303386	-0.080475
C43	C	0.984110	-0.665753	0.080374
C44	C	0.983067	-0.725156	0.080370
C45	C	0.983100	-0.725138	-0.080514
C46	C	0.984149	-0.665735	-0.080509
C47	C	0.984650	-0.636043	-0.000063
C48	C	0.992781	-0.178643	-0.080458
C49	C	0.993841	-0.119239	-0.080445
C50	C	0.993803	-0.119262	0.080438
C51	C	0.992748	-0.178661	0.080426
C52	C	0.992234	-0.208350	-0.000029
O53	O	0.991087	-0.272645	0.148776
O54	O	0.991109	-0.272652	-0.148881
C55	C	1.141574	0.073621	-0.000037
C56	C	1.234518	0.074731	-0.000045
C57	C	0.981445	0.181925	-0.000057
C58	C	0.982555	0.245147	-0.000071
N59	N	0.988408	0.077807	0.229867
N60	N	0.988502	0.077788	-0.229934
C61	C	0.988471	0.077795	0.589068
C62	C	0.919053	0.124434	0.551452
C63	C	0.919209	0.124604	0.448626
C64	C	0.988439	0.077801	0.410864
C65	C	1.075695	0.090768	0.448151
C66	C	1.075305	0.091099	0.551009
C67	C	0.971414	0.018051	0.551182
C68	C	0.969406	0.018449	0.448318
C69	C	0.988427	0.077804	0.310151
C70	C	0.988489	0.077794	0.689782
H71	H	0.575633	0.001414	0.087377
O72	O	0.992393	-0.207545	-0.158558
C73	C	1.064322	-0.248362	-0.163402
H74	H	1.088328	-0.259439	-0.093566
H75	H	1.115525	-0.229986	-0.203084
C76	C	1.011813	-0.289206	-0.295199
C77	C	1.041294	-0.302813	-0.209425
H78	H	0.997611	-0.322793	-0.323592
H79	H	0.963355	-0.261705	-0.291939
H80	H	1.054487	-0.273891	-0.328256
H81	H	0.998616	-0.318121	-0.176366
H82	H	1.089745	-0.330318	-0.212681
H83	H	0.989450	-0.368298	-0.226424
H84	H	0.563229	0.069175	0.146941
H85	H	0.994221	-0.095076	0.145931
H86	H	0.576614	0.002070	-0.089699
O87	O	0.546523	0.170685	-0.072041
C88	C	0.505547	0.227120	-0.068822
H89	H	0.487521	0.238684	0.002672
H90	H	0.446351	0.230405	-0.111531
C91	C	0.587241	0.254503	-0.192001
C92	C	0.565108	0.268708	-0.104189
H93	H	0.623979	0.280157	-0.213821
H94	H	0.614846	0.216482	-0.194172
H95	H	0.537906	0.257241	-0.227581
H96	H	0.614442	0.265963	-0.068609
H97	H	0.537513	0.306730	-0.102013
O98	O	1.093359	0.143037	0.579765
C99	C	1.093221	0.144018	0.673298
H100	H	1.105104	0.098363	0.699665
H101	H	1.029531	0.164957	0.698031
C102	C	1.148461	0.234555	0.674057
C103	C	1.163062	0.178480	0.706441
H104	H	1.191539	0.255814	0.694502
H105	H	1.148551	0.233895	0.611042
H106	H	1.095384	0.251996	0.694670
H107	H	1.216134	0.161038	0.685818
H108	H	1.162983	0.179138	0.769453
O109	O	0.412955	0.068705	-0.159795
C110	C	0.452059	0.039449	-0.233247
H111	H	0.480060	-0.005304	-0.212021
H112	H	0.504266	0.063946	-0.259401
C113	C	0.352030	0.089824	-0.332895
C114	C	0.386416	0.034855	-0.306827
H115	H	0.311541	0.086992	-0.378285
H116	H	0.325687	0.109536	-0.283410
H117	H	0.395544	0.110232	-0.354684
H118	H	0.342905	0.014451	-0.285028
H119	H	0.412751	0.015139	-0.356310
H120	H	0.561638	0.070518	-0.146960
H121	H	0.854334	0.116881	0.423418
O122	O	0.932040	0.177538	0.419351
C123	C	0.867002	0.218250	0.450875
H124	H	0.837718	0.200898	0.512691
H125	H	0.816773	0.227171	0.397380
C126	C	0.939337	0.295426	0.398148
C127	C	0.903374	0.274116	0.474075
H128	H	0.961770	0.329888	0.412455
H129	H	0.983153	0.267998	0.376906
H130	H	0.897473	0.302855	0.353576
H131	H	0.945240	0.266680	0.518642
H132	H	0.859566	0.301544	0.495325
H133	H	0.994289	-0.095055	-0.145954
H134	H	0.433185	-0.001261	-0.084068
O135	O	0.987498	-0.480633	-0.239152
C136	C	0.988184	-0.441661	-0.310133
H137	H	1.015433	-0.401684	-0.286530
H138	H	0.921118	-0.429353	-0.334871
C139	C	1.009250	-0.518821	-0.415125
C140	C	1.042725	-0.469722	-0.386138
H141	H	1.042891	-0.536131	-0.462011
H142	H	1.008785	-0.545078	-0.367305
H143	H	0.953363	-0.508558	-0.435734
H144	H	1.098607	-0.479987	-0.365519
H145	H	1.043201	-0.443468	-0.433957
O146	O	0.984637	-0.636964	-0.158729
C147	C	0.983988	-0.675919	-0.229723
H148	H	0.956726	-0.715902	-0.206136
H149	H	1.051067	-0.688222	-0.254455
C150	C	0.962978	-0.598734	-0.334694
C151	C	0.929488	-0.647840	-0.305726
H152	H	0.929363	-0.581414	-0.381579
H153	H	0.963418	-0.572489	-0.286865
H154	H	1.018876	-0.608994	-0.355298
H155	H	0.873595	-0.637580	-0.285112
H156	H	0.929037	-0.674083	-0.353554
H157	H	0.419570	0.068355	0.147288
H158	H	0.982684	-0.749324	-0.146013
H159	H	1.128548	0.058468	0.575890
O160	O	0.982392	-0.753967	0.158538
C161	C	0.910121	-0.732970	0.207476
H162	H	0.859731	-0.712123	0.160402
H163	H	0.927120	-0.699949	0.257623
C164	C	0.938171	-0.808408	0.314597
C165	C	0.876279	-0.782807	0.256779
H166	H	0.917297	-0.839148	0.345014
H167	H	0.986863	-0.822553	0.281629
H168	H	0.952331	-0.780885	0.356379
H169	H	0.862127	-0.810328	0.214992
H170	H	0.827583	-0.768667	0.289742
O171	O	0.429797	-0.008741	0.088768
C172	C	0.465495	-0.039247	0.014754
H173	H	0.519377	-0.016833	-0.012629
H174	H	0.415432	-0.040933	-0.038694
C175	C	0.433155	-0.128097	0.076727
C176	C	0.499338	-0.100571	0.043100
H177	H	0.454027	-0.165926	0.094210
H178	H	0.409101	-0.107545	0.126591
H179	H	0.391441	-0.129497	0.032181
H180	H	0.541045	-0.099165	0.087649
H181	H	0.523400	-0.121124	-0.006755
O182	O	0.984722	-0.636862	0.158469
C183	C	1.057867	-0.608979	0.163302
H184	H	1.082217	-0.602220	0.093463
H185	H	1.108242	-0.636407	0.202988
C186	C	1.006919	-0.558899	0.295090
C187	C	1.036821	-0.550594	0.209312
H188	H	0.993939	-0.522885	0.323475
H189	H	0.957641	-0.577686	0.291837
H190	H	1.048903	-0.581757	0.328151
H191	H	0.994834	-0.527741	0.176251
H192	H	1.086092	-0.531801	0.212561
H193	H	0.853966	0.116838	0.576216
H194	H	1.128564	0.057701	0.423688
O195	O	0.393726	0.168865	-0.072502
C196	C	0.349061	0.132463	-0.123776
H197	H	0.329914	0.096626	-0.080107
H198	H	0.390850	0.113267	-0.180115
C199	C	0.293199	0.211051	-0.216303
C200	C	0.269677	0.167039	-0.162666
H201	H	0.244234	0.232379	-0.240296
H202	H	0.323294	0.235576	-0.181762
H203	H	0.328025	0.195048	-0.263245
H204	H	0.234861	0.183043	-0.115719
H205	H	0.239575	0.142518	-0.197200
H206	H	0.987416	-0.476082	0.226343
O207	O	0.989423	-0.363747	0.239064
C208	C	0.988686	-0.402707	0.310054
H209	H	1.014462	-0.447411	0.286469
H210	H	0.921380	-0.403042	0.334770
C211	C	1.012320	-0.329520	0.415037
C212	C	1.043986	-0.384425	0.386072
H213	H	1.046428	-0.318242	0.461931
H214	H	1.012814	-0.303270	0.367210
H215	H	0.956232	-0.329806	0.435627
H216	H	1.100069	-0.384137	0.365472
H217	H	1.043503	-0.410674	0.433897
H218	H	0.905222	0.008609	0.423950
O219	O	0.992187	-0.207431	0.158644
C220	C	0.992889	-0.168485	0.229644
H221	H	0.967140	-0.123774	0.206062
H222	H	1.060180	-0.168164	0.254379
C223	C	0.969162	-0.241687	0.334603
C224	C	0.937530	-0.186773	0.305642
H225	H	0.935018	-0.252969	0.381485
H226	H	0.968692	-0.267927	0.286771
H227	H	1.025237	-0.241413	0.355210
H228	H	0.881460	-0.187050	0.285026
H229	H	0.937989	-0.160534	0.353473
O230	O	1.094317	0.142132	0.417456
C231	C	1.172859	0.153131	0.451591
H232	H	1.211331	0.111002	0.470767
H233	H	1.162533	0.181699	0.512648
C234	C	1.173382	0.235211	0.356942
C235	C	1.220637	0.183466	0.380488
H236	H	1.202853	0.253926	0.313085
H237	H	1.120465	0.227802	0.333947
H238	H	1.164781	0.259011	0.407830
H239	H	1.229228	0.159665	0.329604
H240	H	1.273556	0.190872	0.403474
H241	H	0.929739	0.168520	0.577281
O242	O	0.897134	0.003278	0.582212
C243	C	0.859439	0.046735	0.638733
H244	H	0.884565	0.088820	0.622163
H245	H	0.875017	0.034772	0.710653
C246	C	0.732418	0.001826	0.646057
C247	C	0.763273	0.053517	0.625700
H248	H	0.673098	0.006008	0.638021
H249	H	0.757815	-0.027453	0.607980
H250	H	0.745408	-0.008138	0.705989
H251	H	0.750292	0.063475	0.565766
H252	H	0.737872	0.082798	0.663767
O253	O	1.025945	-0.024827	0.417616
C254	C	1.084200	-0.002284	0.361288
H255	H	1.086450	0.044788	0.377764
H256	H	1.063965	-0.006455	0.289292
C257	C	1.169370	-0.093425	0.354520
C258	C	1.172137	-0.035612	0.374761
H259	H	1.223613	-0.113984	0.362827
H260	H	1.130121	-0.108614	0.392467
H261	H	1.152503	-0.096893	0.294524
H262	H	1.188993	-0.032144	0.434759
H263	H	1.211391	-0.020423	0.336825
O264	O	1.031760	-0.023425	0.580094
C265	C	1.015832	-0.076812	0.545743
H266	H	0.975847	-0.069832	0.483209
H267	H	0.980712	-0.100305	0.597337
C268	C	1.148998	-0.121399	0.599801
C269	C	1.099894	-0.112825	0.522992
H270	H	1.200851	-0.143615	0.585771
H271	H	1.159729	-0.085432	0.622948
H272	H	1.119722	-0.140974	0.642789
H273	H	1.129166	-0.093245	0.480010
H274	H	1.089171	-0.148790	0.499837
O275	O	0.392450	0.168740	0.071274
C276	C	0.304195	0.169697	0.068189
H277	H	0.287411	0.132548	0.025859
H278	H	0.274942	0.211839	0.037927
C279	C	0.290593	0.209626	0.214867
C280	C	0.269978	0.163996	0.162883
H281	H	0.269485	0.206112	0.273278
H282	H	0.350051	0.208984	0.216945
H283	H	0.266214	0.244740	0.189638
H284	H	0.294366	0.128884	0.188105
H285	H	0.210523	0.164633	0.160811
O286	O	0.545926	0.170691	0.072170
C287	C	0.601883	0.134690	0.125652
H288	H	0.634601	0.098407	0.083514
H289	H	0.565288	0.116086	0.181343
C290	C	0.628062	0.214067	0.217517
C291	C	0.668252	0.169507	0.165761
H292	H	0.668999	0.235544	0.242262
H293	H	0.590360	0.238322	0.181487
H294	H	0.597567	0.198557	0.263919
H295	H	0.698736	0.185018	0.119353
H296	H	0.705960	0.145255	0.201784
