data_functionalizedCrystal
_audit_creation_method	'MofGen! by Chris Wilmer'
_symmetry_space_group_name_H-M	'P1'
_symmetry_Int_Tables_number	1
_symmetry_cell_setting	triclinic
loop_
_symmetry_equiv_pos_as_xyz
  x,y,z
_cell_length_a	25.639242
_cell_length_b	25.639240
_cell_length_c	12.759393
_cell_angle_alpha	90.030960
_cell_angle_beta	90.031512
_cell_angle_gamma	90.027587
loop_
_atom_site_label
_atom_site_type_symbol
_atom_site_fract_x
_atom_site_fract_y
_atom_site_fract_z
Zn1	Zn	0.799297	-0.208188	0.594313
Zn2	Zn	0.799217	-0.295633	0.418632
Zn3	Zn	0.711859	-0.208206	0.418616
Zn4	Zn	0.711829	-0.295587	0.594236
O5	O	0.755551	-0.251904	0.506449
O6	O	0.872452	-0.219799	0.571047
O7	O	0.787608	-0.284062	0.271608
O8	O	0.723505	-0.135039	0.441948
O9	O	0.872393	-0.284044	0.441975
O10	O	0.787745	-0.135025	0.571032
O11	O	0.723427	-0.219831	0.271597
O12	O	0.638690	-0.219786	0.441874
O13	O	0.723453	-0.283967	0.741268
O14	O	0.638668	-0.283985	0.570901
O15	O	0.787716	-0.219755	0.741324
O16	O	0.787578	-0.368792	0.441901
O17	O	0.723375	-0.368758	0.570917
C18	C	0.755478	-0.387746	0.506425
C19	C	0.755495	-0.445860	0.506450
C20	C	0.619708	-0.251883	0.506378
C21	C	0.561594	-0.251887	0.506372
C22	C	0.788998	-0.696995	0.573732
C23	C	0.788982	-0.642391	0.573724
O24	O	0.817407	-0.614105	0.630895
N25	N	0.755553	-0.615134	0.506463
C26	C	0.722141	-0.642484	0.439198
O27	O	0.693705	-0.614286	0.381986
C28	C	0.722159	-0.697088	0.439201
C29	C	0.755587	-0.724342	0.506474
C30	C	0.822423	-0.724249	0.640999
C31	C	0.822438	-0.778850	0.641008
C32	C	0.789027	-0.806196	0.573750
C33	C	0.755602	-0.778942	0.506483
C34	C	0.688750	-0.724437	0.371932
C35	C	0.688772	-0.779044	0.371941
C36	C	0.722200	-0.806298	0.439214
C37	C	0.722206	-0.860889	0.439235
N38	N	0.755636	-0.888146	0.506496
C39	C	0.789046	-0.860800	0.573754
C40	C	0.722104	-0.527814	0.439195
C41	C	0.722083	-0.473211	0.439196
C42	C	0.788925	-0.473122	0.573721
C43	C	0.788944	-0.527725	0.573724
C44	C	0.755534	-0.555071	0.506456
C45	C	0.789075	-0.975465	0.573768
C46	C	0.789085	-1.030070	0.573774
C47	C	0.722245	-1.030155	0.439246
C48	C	0.722232	-0.975554	0.439243
C49	C	0.755651	-0.948211	0.506508
O50	O	0.693798	-0.889210	0.382090
O51	O	0.817481	-0.889004	0.630946
C52	C	0.201228	-0.285387	0.573570
C53	C	0.146624	-0.285391	0.573587
O54	O	0.118385	-0.313849	0.630661
N55	N	0.119312	-0.251918	0.506518
C56	C	0.146606	-0.218436	0.439435
O57	O	0.118361	-0.189965	0.382390
C58	C	0.201210	-0.218431	0.439425
C59	C	0.228519	-0.251909	0.506491
C60	C	0.228538	-0.318863	0.640632
C61	C	0.283138	-0.318860	0.640613
C62	C	0.310429	-0.285382	0.573534
C63	C	0.283120	-0.251907	0.506472
C64	C	0.228504	-0.184947	0.372348
C65	C	0.283111	-0.184944	0.372344
C66	C	0.310420	-0.218422	0.439410
C67	C	0.365011	-0.218426	0.439375
N68	N	0.392324	-0.251899	0.506444
C69	C	0.365033	-0.285377	0.573523
C70	C	0.031936	-0.218449	0.439464
C71	C	-0.022667	-0.218457	0.439468
C72	C	-0.022645	-0.285411	0.573621
C73	C	0.031958	-0.285406	0.573611
C74	C	0.059248	-0.251922	0.506533
C75	C	0.479698	-0.285369	0.573479
C76	C	0.534303	-0.285365	0.573452
C77	C	0.534277	-0.218409	0.439303
C78	C	0.479676	-0.218415	0.439326
C79	C	0.452388	-0.251897	0.506423
O80	O	0.393285	-0.189981	0.382333
O81	O	0.393284	-0.313838	0.630569
C82	C	0.891924	-0.251925	0.506521
C83	C	0.950038	-0.251934	0.506552
C84	C	0.755590	-0.251853	0.780483
C85	C	0.755606	-0.251832	0.897259
C86	C	0.755637	-0.115531	0.506497
C87	C	0.755674	-0.057416	0.506517
C88	C	0.755542	-0.251916	0.233482
C89	C	0.755626	-0.251790	0.116706
C90	C	0.789071	-0.218391	0.952152
C91	C	0.789079	-0.218369	1.061877
C92	C	0.722159	-0.285232	1.061805
C93	C	0.722148	-0.285251	0.952083
C94	C	0.807816	-0.156684	1.211863
C95	C	0.841288	-0.123248	1.266759
C96	C	0.892306	-0.115236	1.231187
C97	C	0.909862	-0.140667	1.140720
C98	C	0.876393	-0.174107	1.085829
C99	C	0.825367	-0.182109	1.121399
C100	C	0.703417	-0.346937	0.802095
C101	C	0.669949	-0.380380	0.747202
C102	C	0.618930	-0.388398	0.782772
C103	C	0.601376	-0.362975	0.873243
C104	C	0.634843	-0.329533	0.928136
C105	C	0.685862	-0.321514	0.892558
H106	H	0.816305	-1.052258	0.628562
F107	F	0.060975	-0.182813	0.368058
F108	F	0.753514	-0.165202	1.249720
H109	H	0.206323	-0.346125	0.695262
F110	F	0.895074	-0.201173	0.989554
F111	F	0.199450	-0.149311	0.300971
F112	F	0.757712	-0.338393	0.764212
F113	F	-0.051700	-0.321038	0.645022
H114	H	0.305369	-0.346121	0.695228
H115	H	0.054190	-0.312666	0.628224
F116	F	0.563332	-0.182781	0.367915
F117	F	0.653168	-0.695443	0.300336
H118	H	0.694919	-0.312442	1.106456
F119	F	0.312151	-0.149304	0.300950
H120	H	0.661566	-0.801306	0.317160
H121	H	0.695007	-0.953364	0.384474
H122	H	0.695042	-1.052430	0.384489
F123	F	-0.051725	-0.182831	0.368075
F124	F	0.824522	-0.556726	0.645322
F125	F	0.450611	-0.182791	0.367932
F126	F	0.858016	-0.807849	0.712611
F127	F	0.563365	-0.321000	0.644834
F128	F	0.616159	-0.302475	1.024424
H129	H	0.816314	-0.191178	0.907518
H130	H	0.919559	-0.088011	1.275892
F131	F	0.686539	-0.556912	0.367601
F132	F	0.450663	-0.321004	0.644891
F133	F	0.964166	-0.132144	1.102876
H134	H	0.826989	-0.102542	1.340418
F135	F	0.547076	-0.371509	0.911105
F136	F	0.583316	-0.424000	0.724358
H137	H	0.694857	-0.451025	0.384427
F138	F	0.824643	-0.946371	0.645358
F139	F	0.824486	-0.444008	0.645298
F140	F	0.857987	-0.695153	0.712589
F141	F	0.688636	-0.407441	0.650920
