data_functionalizedCrystal
_audit_creation_method	'MofGen! by Chris Wilmer'
_symmetry_space_group_name_H-M	'P1'
_symmetry_Int_Tables_number	1
_symmetry_cell_setting	triclinic
loop_
_symmetry_equiv_pos_as_xyz
  x,y,z
_cell_length_a	18.215407
_cell_length_b	10.686285
_cell_length_c	18.215399
_cell_angle_alpha	94.390852
_cell_angle_beta	90.017368
_cell_angle_gamma	85.629207
loop_
_atom_site_label
_atom_site_type_symbol
_atom_site_fract_x
_atom_site_fract_y
_atom_site_fract_z
Zn1	Zn	1.147644	-0.502447	0.393650
Zn2	Zn	1.397644	-0.252447	0.643650
Zn3	Zn	1.647644	-0.002447	0.893650
Zn4	Zn	1.897644	0.247553	1.143650
Zn5	Zn	1.157032	-0.713463	0.261169
Zn6	Zn	1.407032	-0.463463	0.511169
Zn7	Zn	1.657032	-0.213463	0.761169
Zn8	Zn	1.907032	0.036537	1.011169
Zn9	Zn	1.024578	-0.502477	0.270601
Zn10	Zn	1.274578	-0.252477	0.520601
Zn11	Zn	1.524578	-0.002477	0.770601
Zn12	Zn	1.774578	0.247523	1.020601
Zn13	Zn	1.034018	-0.713382	0.384203
Zn14	Zn	1.284018	-0.463382	0.634203
Zn15	Zn	1.534018	-0.213382	0.884203
Zn16	Zn	1.784018	0.036618	1.134203
O17	O	1.090818	-0.607942	0.327406
O18	O	1.340818	-0.357942	0.577406
O19	O	1.590818	-0.107942	0.827406
O20	O	1.840818	0.142058	1.077406
O21	O	1.251874	-0.530460	0.376082
O22	O	1.501874	-0.280460	0.626082
O23	O	1.751874	-0.030460	0.876082
O24	O	2.001874	0.219540	1.126082
O25	O	1.139439	-0.685522	0.159434
O26	O	1.389439	-0.435522	0.409434
O27	O	1.639439	-0.185522	0.659434
O28	O	1.889439	0.064478	0.909434
O29	O	1.033023	-0.325897	0.294825
O30	O	1.283023	-0.075897	0.544825
O31	O	1.533023	0.174103	0.794825
O32	O	1.783023	0.424103	1.044825
O33	O	1.258772	-0.685493	0.278749
O34	O	1.508772	-0.435493	0.528749
O35	O	1.758772	-0.185493	0.778749
O36	O	2.008772	0.064507	1.028749
O37	O	1.123439	-0.325875	0.385229
O38	O	1.373439	-0.075875	0.635229
O39	O	1.623439	0.174125	0.885229
O40	O	1.873439	0.424125	1.135229
O41	O	1.042126	-0.530511	0.166364
O42	O	1.292126	-0.280511	0.416364
O43	O	1.542126	-0.030511	0.666364
O44	O	1.792126	0.219489	0.916364
O45	O	0.922845	-0.530433	0.285665
O46	O	1.172845	-0.280433	0.535665
O47	O	1.422845	-0.030433	0.785665
O48	O	1.672845	0.219567	1.035665
O49	O	1.049113	-0.685354	0.488442
O50	O	1.299113	-0.435354	0.738442
O51	O	1.549113	-0.185354	0.988442
O52	O	1.799113	0.064646	1.238442
O53	O	0.929781	-0.685384	0.369127
O54	O	1.179781	-0.435384	0.619127
O55	O	1.429781	-0.185384	0.869127
O56	O	1.679781	0.064616	1.119127
O57	O	1.132593	-0.530381	0.495383
O58	O	1.382593	-0.280381	0.745383
O59	O	1.632593	-0.030381	0.995383
O60	O	1.882593	0.219619	1.245383
O61	O	1.148594	-0.890028	0.269588
O62	O	1.398594	-0.640028	0.519588
O63	O	1.648594	-0.390028	0.769588
O64	O	1.898594	-0.140028	1.019588
O65	O	1.058216	-0.889969	0.359981
O66	O	1.308216	-0.639969	0.609981
O67	O	1.558216	-0.389969	0.859981
O68	O	1.808216	-0.139969	1.109981
C69	C	0.899610	-0.607904	0.327395
C70	C	1.149610	-0.357904	0.577395
C71	C	1.399610	-0.107904	0.827395
C72	C	1.649610	0.142096	1.077395
C73	C	0.817812	-0.607917	0.327406
C74	C	1.067812	-0.357917	0.577406
C75	C	1.317812	-0.107917	0.827406
C76	C	1.567812	0.142083	1.077406
C77	C	0.626033	-0.527358	0.378154
C78	C	0.876033	-0.277358	0.628154
C79	C	1.126033	-0.027358	0.878154
C80	C	1.376033	0.222642	1.128154
C81	C	0.549174	-0.527369	0.378156
C82	C	0.799174	-0.277369	0.628156
C83	C	1.049174	-0.027369	0.878156
C84	C	1.299174	0.222631	1.128156
C85	C	0.556357	-0.688562	0.276668
C86	C	0.806357	-0.438562	0.526668
C87	C	1.056357	-0.188562	0.776668
C88	C	1.306357	0.061438	1.026668
C89	C	0.633213	-0.688544	0.276664
C90	C	0.883213	-0.438544	0.526664
C91	C	1.133213	-0.188544	0.776664
C92	C	1.383213	0.061456	1.026664
C93	C	0.668049	-0.607944	0.327411
C94	C	0.918049	-0.357944	0.577411
C95	C	1.168049	-0.107944	0.827411
C96	C	1.418049	0.142056	1.077411
C97	C	0.514334	-0.607973	0.327417
C98	C	0.764334	-0.357973	0.577417
C99	C	1.014334	-0.107973	0.827417
C100	C	1.264334	0.142027	1.077417
C101	C	0.431001	-0.607985	0.327419
C102	C	0.681001	-0.357985	0.577419
C103	C	0.931001	-0.107985	0.827419
C104	C	1.181001	0.142015	1.077419
C105	C	0.751388	-0.607929	0.327408
C106	C	1.001388	-0.357929	0.577408
C107	C	1.251388	-0.107929	0.827408
C108	C	1.501388	0.142071	1.077408
C109	C	1.105468	-0.935783	0.312752
C110	C	1.355468	-0.685783	0.562752
C111	C	1.605468	-0.435783	0.812752
C112	C	1.855468	-0.185783	1.062752
C113	C	1.111803	-1.076034	0.306507
C114	C	1.361803	-0.826034	0.556507
C115	C	1.611803	-0.576034	0.806507
C116	C	1.861803	-0.326034	1.056507
C117	C	1.282772	-0.607982	0.327417
C118	C	1.532772	-0.357982	0.577417
C119	C	1.782772	-0.107982	0.827417
C120	C	2.032772	0.142018	1.077417
C121	C	1.364572	-0.607999	0.327422
C122	C	1.614572	-0.357999	0.577422
C123	C	1.864572	-0.107999	0.827422
C124	C	2.114572	0.142001	1.077422
C125	C	1.090859	-0.607855	0.519363
C126	C	1.340859	-0.357855	0.769363
C127	C	1.590859	-0.107855	1.019363
C128	C	1.840859	0.142145	1.269363
C129	C	1.090876	-0.607818	0.601163
C130	C	1.340876	-0.357818	0.851163
C131	C	1.590876	-0.107818	1.101163
C132	C	1.840876	0.142182	1.351163
C133	C	1.076131	-0.278822	0.342133
C134	C	1.326131	-0.028822	0.592133
C135	C	1.576131	0.221178	0.842133
C136	C	1.826131	0.471178	1.092133
C137	C	1.069872	-0.138570	0.348409
C138	C	1.319872	0.111430	0.598409
C139	C	1.569872	0.361430	0.848409
C140	C	1.819872	0.611430	1.098409
C141	C	1.090815	-0.607938	0.136200
C142	C	1.340815	-0.357938	0.386200
C143	C	1.590815	-0.107938	0.636200
C144	C	1.840815	0.142062	0.886200
C145	C	1.090924	-0.607620	0.054415
C146	C	1.340924	-0.357620	0.304415
C147	C	1.590924	-0.107620	0.554415
C148	C	1.840924	0.142380	0.804415
C149	C	1.134358	-0.527048	0.792976
C150	C	1.384358	-0.277048	1.042976
C151	C	1.634358	-0.027048	1.292976
C152	C	1.884358	0.222952	1.542976
C153	C	1.134365	-0.527011	0.869836
C154	C	1.384365	-0.277011	1.119836
C155	C	1.634365	-0.027011	1.369836
C156	C	1.884365	0.222989	1.619836
C157	C	1.047438	-0.688393	0.862597
C158	C	1.297438	-0.438393	1.112597
C159	C	1.547438	-0.188393	1.362597
C160	C	1.797438	0.061607	1.612597
C161	C	1.047427	-0.688423	0.785738
C162	C	1.297427	-0.438423	1.035738
C163	C	1.547427	-0.188423	1.285738
C164	C	1.797427	0.061577	1.535738
C165	C	1.090891	-0.607752	0.750930
C166	C	1.340891	-0.357752	1.000930
C167	C	1.590891	-0.107752	1.250930
C168	C	1.840891	0.142248	1.500930
C169	C	1.090909	-0.607686	0.904649
C170	C	1.340909	-0.357686	1.154649
C171	C	1.590909	-0.107686	1.404649
C172	C	1.840909	0.142314	1.654649
C173	C	1.090917	-0.607647	0.987984
C174	C	1.340917	-0.357647	1.237984
C175	C	1.590917	-0.107647	1.487984
C176	C	1.840917	0.142353	1.737984
C177	C	1.090883	-0.607789	0.667589
C178	C	1.340883	-0.357789	0.917589
C179	C	1.590883	-0.107789	1.167589
C180	C	1.840883	0.142211	1.417589
H181	H	0.527984	-0.754185	0.235353
H182	H	0.777984	-0.504185	0.485353
H183	H	1.027984	-0.254185	0.735353
H184	H	1.277984	-0.004185	0.985353
H185	H	1.152545	-1.129797	0.265848
H186	H	1.402545	-0.879797	0.515848
H187	H	1.652545	-0.629797	0.765848
H188	H	1.902545	-0.379797	1.015848
F189	F	1.016615	-1.068309	0.401545
F190	F	1.266615	-0.818309	0.651545
F191	F	1.516615	-0.568309	0.901545
F192	F	1.766615	-0.318309	1.151545
H193	H	1.169758	-0.461292	0.904067
H194	H	1.419758	-0.211292	1.154067
H195	H	1.669758	0.038708	1.404067
H196	H	1.919758	0.288708	1.654067
F197	F	1.180614	-0.441188	0.755933
F198	F	1.430614	-0.191188	1.005933
F199	F	1.680614	0.058812	1.255933
F200	F	1.930614	0.308812	1.505933
H201	H	1.012052	-0.754075	0.890948
H202	H	1.262052	-0.504075	1.140948
H203	H	1.512052	-0.254075	1.390948
H204	H	1.762052	-0.004075	1.640948
F205	F	1.001158	-0.774317	0.740987
F206	F	1.251158	-0.524317	0.990987
F207	F	1.501158	-0.274317	1.240987
F208	F	1.751158	-0.024317	1.490987
H209	H	0.654393	-0.461724	0.419474
H210	H	0.904393	-0.211724	0.669474
H211	H	1.154393	0.038276	0.919474
H212	H	1.404393	0.288276	1.169474
H213	H	0.667424	-0.754168	0.235338
H214	H	0.917424	-0.504168	0.485338
H215	H	1.167424	-0.254168	0.735338
H216	H	1.417424	-0.004168	0.985338
F217	F	0.504460	-0.441596	0.432164
F218	F	0.754460	-0.191596	0.682164
F219	F	1.004460	0.058404	0.932164
F220	F	1.254460	0.308404	1.182164
