data_functionalizedCrystal
_audit_creation_method	'MofGen! by Chris Wilmer'
_symmetry_space_group_name_H-M	'P1'
_symmetry_Int_Tables_number	1
_symmetry_cell_setting	triclinic
loop_
_symmetry_equiv_pos_as_xyz
  x,y,z
_cell_length_a	15.297475
_cell_length_b	15.298852
_cell_length_c	10.686551
_cell_angle_alpha	104.743934
_cell_angle_beta	104.728376
_cell_angle_gamma	69.212110
loop_
_atom_site_label
_atom_site_type_symbol
_atom_site_fract_x
_atom_site_fract_y
_atom_site_fract_z
Zn1	Zn	1.530282	-0.572453	0.944834
Zn2	Zn	1.545520	-0.739570	0.697088
Zn3	Zn	1.363159	-0.557126	0.697165
Zn4	Zn	1.398661	-0.703950	0.881161
O5	O	1.459405	-0.643275	0.805062
O6	O	1.663706	-0.615942	0.938586
O7	O	1.512849	-0.723861	0.516412
O8	O	1.364092	-0.427774	0.756699
O9	O	1.674901	-0.738723	0.756567
O10	O	1.486877	-0.439034	0.938661
O11	O	1.378868	-0.589820	0.516469
O12	O	1.236466	-0.555281	0.694957
O13	O	1.424602	-0.678014	1.070293
O14	O	1.262549	-0.663152	0.830138
O15	O	1.521303	-0.581403	1.117074
O16	O	1.547274	-0.866230	0.694825
O17	O	1.439378	-0.840060	0.830063
C18	C	1.215436	-0.603689	0.755647
C19	C	1.111070	-0.586775	0.734533
C20	C	0.871343	-0.764166	0.955968
C21	C	0.969401	-0.780065	0.975801
C22	C	1.004823	-0.731743	0.915486
C23	C	0.942178	-0.667521	0.835334
C24	C	0.844111	-0.651627	0.815492
C25	C	0.977591	-0.619204	0.775009
C26	C	0.914946	-0.554982	0.694858
C27	C	0.816888	-0.539090	0.675019
C28	C	0.781466	-0.587411	0.735334
C29	C	1.075658	-0.635099	0.794852
C30	C	1.048426	-0.522559	0.654375
C31	C	0.950368	-0.506661	0.634543
C32	C	1.498859	-0.887214	0.755560
C33	C	1.515825	-0.991585	0.734443
C34	C	1.338765	-1.231399	0.956235
C35	C	1.322827	-1.133338	0.976085
C36	C	1.371075	-1.097895	0.915676
C37	C	1.435264	-1.160523	0.835414
C38	C	1.451209	-1.258594	0.815571
C39	C	1.483519	-1.125090	0.775011
C40	C	1.547708	-1.187718	0.694750
C41	C	1.563650	-1.285779	0.674909
C42	C	1.515402	-1.321222	0.735318
C43	C	1.467574	-1.027018	0.794855
C44	C	1.580018	-1.054213	0.654190
C45	C	1.595956	-1.152274	0.634341
C46	C	1.704327	-0.683015	0.854671
C47	C	1.808698	-0.699951	0.875811
C48	C	1.475213	-0.627445	1.141843
C49	C	1.481949	-0.620699	1.285359
C50	C	1.419825	-0.398385	0.854791
C51	C	1.402958	-0.294027	0.875983
C52	C	1.443703	-0.658984	0.469616
C53	C	1.437106	-0.665494	0.326191
H54	H	1.084667	-0.744692	0.931639
Br55	Br	1.537071	-1.454314	0.708441
Br56	Br	1.364531	-0.738028	1.201464
Br57	Br	1.273307	-1.279507	1.038229
H58	H	1.525502	-0.577189	1.360202
Br59	Br	1.380464	-0.942035	0.903780
Br60	Br	0.823268	-0.829763	1.037775
Br61	Br	1.160665	-0.722256	0.903624
Br62	Br	1.650781	-1.370775	0.566008
Br63	Br	1.683069	-1.237279	0.525420
Br64	Br	0.648381	-0.565828	0.708434
H65	H	1.020400	-0.832357	1.041057
H66	H	0.765885	-0.486806	0.609739
Br67	Br	1.235722	-1.048350	1.085013
H68	H	1.077266	-0.483214	0.605260
Br69	Br	0.865339	-0.419503	0.525773
H70	H	1.358094	-1.018048	0.931842
Br71	Br	1.645508	-1.006121	0.572211
