data_functionalizedCrystal
_audit_creation_method	'MofGen! by Chris Wilmer'
_symmetry_space_group_name_H-M	'P1'
_symmetry_Int_Tables_number	1
_symmetry_cell_setting	triclinic
loop_
_symmetry_equiv_pos_as_xyz
  x,y,z
_cell_length_a	8.559649
_cell_length_b	8.597275
_cell_length_c	8.140239
_cell_angle_alpha	97.700208
_cell_angle_beta	89.997621
_cell_angle_gamma	77.624622
loop_
_atom_site_label
_atom_site_type_symbol
_atom_site_fract_x
_atom_site_fract_y
_atom_site_fract_z
O1	O	2.119294	-0.053144	-0.144110
O2	O	2.619294	0.446856	0.355890
O3	O	1.655354	0.027756	-0.132666
O4	O	2.155354	0.527756	0.367334
O5	O	1.896457	-0.242261	-0.170878
O6	O	2.396457	0.257739	0.329122
O7	O	1.878191	0.216873	-0.105897
O8	O	2.378191	0.716873	0.394103
O9	O	1.896443	-0.242262	0.102349
O10	O	2.396443	0.257738	0.602349
O11	O	1.655340	0.027755	0.140561
O12	O	2.155340	0.527755	0.640561
O13	O	2.119281	-0.053145	0.129117
O14	O	2.619281	0.446855	0.629117
Zn15	Zn	1.887308	-0.012696	0.178220
Zn16	Zn	2.387308	0.487304	0.678220
Zn17	Zn	1.887326	-0.012694	-0.181768
Zn18	Zn	2.387326	0.487306	0.318232
O19	O	1.878178	0.216871	0.167330
O20	O	2.378178	0.716871	0.667330
C21	C	1.595913	0.033886	0.004815
C22	C	2.095913	0.533886	0.504815
C23	C	1.418817	0.052135	0.007395
C24	C	1.918817	0.552135	0.507395
C25	C	1.894489	-0.300497	-0.042510
C26	C	2.394489	0.199503	0.457490
C27	C	1.888628	-0.474016	-0.067078
C28	C	2.388628	0.025984	0.432922
C29	C	2.178722	-0.059276	-0.008367
C30	C	2.678722	0.440724	0.491633
C31	C	2.355817	-0.077525	-0.010958
C32	C	2.855817	0.422475	0.489042
C33	C	1.880145	0.275107	0.038958
C34	C	2.380145	0.775107	0.538958
C35	C	1.886006	0.448627	0.063516
C36	C	2.386006	0.948627	0.563516
N37	N	1.887308	-0.012699	0.423902
N38	N	2.387308	0.487301	0.923902
N39	N	1.887339	-0.012705	-0.427452
N40	N	2.387339	0.487295	0.072548
H41	H	1.437363	-0.202494	-0.028653
H42	H	1.937363	0.297506	0.471347
Cl43	Cl	1.889481	-0.448676	0.265163
Cl44	Cl	2.389481	0.051324	0.765163
H45	H	1.886393	-0.540537	-0.197675
H46	H	2.386393	-0.040537	0.302325
Cl47	Cl	1.292914	0.245094	0.034688
Cl48	Cl	1.792914	0.745094	0.534688
