data_functionalizedCrystal
_audit_creation_method	'MofGen! by Chris Wilmer'
_symmetry_space_group_name_H-M	'P1'
_symmetry_Int_Tables_number	1
_symmetry_cell_setting	triclinic
loop_
_symmetry_equiv_pos_as_xyz
  x,y,z
_cell_length_a	12.759401
_cell_length_b	10.686285
_cell_length_c	12.759393
_cell_angle_alpha	85.601879
_cell_angle_beta	89.982549
_cell_angle_gamma	85.630864
loop_
_atom_site_label
_atom_site_type_symbol
_atom_site_fract_x
_atom_site_fract_y
_atom_site_fract_z
Zn1	Zn	1.638384	-0.502307	-0.561964
Zn2	Zn	1.651785	-0.713352	-0.372831
Zn3	Zn	1.462693	-0.502369	-0.386299
Zn4	Zn	1.476171	-0.713250	-0.548478
O5	O	1.557258	-0.607819	-0.467393
O6	O	1.787183	-0.530319	-0.536882
O7	O	1.626669	-0.685433	-0.227592
O8	O	1.474750	-0.325784	-0.420881
O9	O	1.797029	-0.685372	-0.397927
O10	O	1.603829	-0.325738	-0.549941
O11	O	1.487744	-0.530426	-0.237487
O12	O	1.317459	-0.530327	-0.407805
O13	O	1.497721	-0.685199	-0.697293
O14	O	1.327361	-0.685259	-0.526958
O15	O	1.616898	-0.530220	-0.707200
O16	O	1.639739	-0.889915	-0.384850
O17	O	1.510716	-0.889840	-0.513898
C18	C	1.284289	-0.607790	-0.467380
C19	C	1.167513	-0.607807	-0.467398
C20	C	1.107527	-0.527223	-0.539846
C21	C	0.997805	-0.527247	-0.539851
C22	C	1.008065	-0.688451	-0.394956
C23	C	1.117785	-0.688419	-0.394947
C24	C	1.101603	-0.434158	-0.623503
C25	C	0.991881	-0.434182	-0.623508
C26	C	1.578173	-0.935662	-0.446472
C27	C	1.587216	-1.075915	-0.437558
C28	C	1.831293	-0.607850	-0.467406
C29	C	1.948071	-0.607863	-0.467412
C30	C	1.557318	-0.607691	-0.741434
C31	C	1.557344	-0.607636	-0.858215
C32	C	1.536291	-0.278696	-0.488418
C33	C	1.527356	-0.138444	-0.497378
C34	C	1.485033	-0.526909	-0.918236
C35	C	1.485062	-0.526871	-1.027963
C36	C	1.629723	-0.688292	-1.017636
C37	C	1.629687	-0.688335	-0.907912
C38	C	1.401517	-0.433710	-0.924199
C39	C	1.401547	-0.433672	-1.033925
C40	C	1.557253	-0.607856	-0.194423
C41	C	1.557408	-0.607556	-0.077666
H42	H	1.166621	-0.754027	-0.335943
F43	F	1.663239	-1.146190	-0.361684
H44	H	0.967562	-0.754082	-0.335969
F45	F	1.132340	-0.306370	-0.603350
H46	H	1.137914	-0.469266	-0.698503
H47	H	1.688556	-0.754089	-0.859045
F48	F	1.451326	-1.068174	-0.573236
H49	H	1.688623	-0.753993	-1.058113
H50	H	1.424743	-0.340896	-0.896099
F51	F	1.297328	-0.467916	-0.883092
H52	H	1.326488	-0.468651	-1.065721
F53	F	1.421769	-0.305882	-1.081024
F54	F	0.939614	-0.312795	-0.593338
H55	H	0.963817	-0.460478	-0.703168
