data_functionalizedCrystal
_audit_creation_method	'MofGen! by Chris Wilmer'
_symmetry_space_group_name_H-M	'P1'
_symmetry_Int_Tables_number	1
_symmetry_cell_setting	triclinic
loop_
_symmetry_equiv_pos_as_xyz
  x,y,z
_cell_length_a	12.759401
_cell_length_b	18.050590
_cell_length_c	12.759393
_cell_angle_alpha	90.035753
_cell_angle_beta	90.018496
_cell_angle_gamma	90.018713
loop_
_atom_site_label
_atom_site_type_symbol
_atom_site_fract_x
_atom_site_fract_y
_atom_site_fract_z
Zn1	Zn	1.606227	-0.295612	0.593951
Zn2	Zn	1.606110	-0.419823	0.418258
Zn3	Zn	1.430529	-0.295651	0.418290
Zn4	Zn	1.430506	-0.419765	0.593900
O5	O	1.518343	-0.357713	0.506100
O6	O	1.753233	-0.312097	0.570653
O7	O	1.582779	-0.403391	0.271241
O8	O	1.453895	-0.191722	0.441627
O9	O	1.753146	-0.403354	0.441572
O10	O	1.582979	-0.191693	0.570684
O11	O	1.453781	-0.312163	0.271265
O12	O	1.283505	-0.312108	0.441577
O13	O	1.453855	-0.403256	0.740927
O14	O	1.283488	-0.403294	0.570597
O15	O	1.582957	-0.312041	0.740965
O16	O	1.582757	-0.523740	0.441522
O17	O	1.453741	-0.523698	0.570565
C18	C	1.245376	-0.357699	0.506085
C19	C	1.128599	-0.357711	0.506104
C20	C	1.518262	-0.550665	0.506058
C21	C	1.518324	-0.633211	0.506075
C22	C	1.073756	-0.405268	0.573173
C23	C	0.964032	-0.405277	0.573185
C24	C	0.964004	-0.310171	0.439049
C25	C	1.073726	-0.310159	0.439043
C26	C	1.073771	-0.460179	0.650613
C27	C	0.964047	-0.460188	0.650624
C28	C	1.588628	-0.832657	0.435999
C29	C	1.614296	-0.881981	0.531886
C30	C	1.518384	-0.784341	0.506117
C31	C	1.492823	-0.882099	0.410274
C32	C	1.518443	-0.930326	0.506149
C33	C	1.544100	-0.832578	0.602054
C34	C	1.422583	-0.832691	0.480377
C35	C	1.448214	-0.881993	0.576329
C36	C	1.518352	-0.700243	0.506097
C37	C	1.518475	-1.014423	0.506180
C38	C	1.792376	-0.357727	0.506115
C39	C	1.909153	-0.357733	0.506121
C40	C	1.518417	-0.357638	0.780133
C41	C	1.518448	-0.357606	0.896910
C42	C	1.518453	-0.164007	0.506165
C43	C	1.518500	-0.081462	0.506192
C44	C	1.518330	-0.357734	0.233132
C45	C	1.518502	-0.357557	0.116356
C46	C	1.585680	-0.310106	0.951793
C47	C	1.585705	-0.310079	1.061517
C48	C	1.451263	-0.405059	1.061465
C49	C	1.451233	-0.405081	0.951743
C50	C	1.663303	-0.255273	0.951824
C51	C	1.663328	-0.255246	1.061548
H52	H	1.118375	-0.271429	0.384436
Br53	Br	1.359964	-0.469533	0.877260
H54	H	0.919313	-0.271455	0.384451
H55	H	1.107780	-0.514786	0.621323
Br56	Br	1.798948	-0.280906	1.111189
H57	H	1.396536	-0.443710	1.106124
Br58	Br	1.123466	-0.434618	0.786295
H59	H	1.634220	-0.200598	1.095602
H60	H	0.930051	-0.439658	0.727978
Br61	Br	0.914366	-0.556020	0.614024
Br62	Br	1.792089	-0.289636	0.895081
H63	H	1.471179	-0.903850	0.329207
Br64	Br	1.349244	-0.917875	0.675291
H65	H	1.695338	-0.903634	0.553677
Br66	Br	1.687664	-0.796548	0.337267
H67	H	1.565663	-0.810918	0.683190
Br68	Br	1.287538	-0.796579	0.444015
Br69	Br	1.627033	-0.159416	0.902228
