data_functionalizedCrystal
_audit_creation_method	'MofGen! by Chris Wilmer'
_symmetry_space_group_name_H-M	'P1'
_symmetry_Int_Tables_number	1
_symmetry_cell_setting	triclinic
loop_
_symmetry_equiv_pos_as_xyz
  x,y,z
_cell_length_a	12.645331
_cell_length_b	29.839131
_cell_length_c	29.839125
_cell_angle_alpha	89.982291
_cell_angle_beta	89.992222
_cell_angle_gamma	90.041831
loop_
_atom_site_label
_atom_site_type_symbol
_atom_site_fract_x
_atom_site_fract_y
_atom_site_fract_z
Zn1	Zn	1.620449	-0.178911	-0.253955
Zn2	Zn	2.120449	0.321089	0.246045
Zn3	Zn	1.620289	-0.254023	-0.178825
Zn4	Zn	2.120289	0.245977	0.321175
Zn5	Zn	1.443196	-0.178909	-0.178843
Zn6	Zn	1.943196	0.321091	0.321157
Zn7	Zn	1.443072	-0.254016	-0.253932
Zn8	Zn	1.943072	0.245984	0.246068
O9	O	1.531752	-0.216465	-0.216389
O10	O	2.031752	0.283535	0.283611
O11	O	1.768775	-0.188880	-0.243991
O12	O	2.268775	0.311120	0.256009
O13	O	1.596782	-0.244062	-0.115960
O14	O	2.096782	0.255938	0.384040
O15	O	1.466827	-0.116042	-0.188824
O16	O	1.966827	0.383958	0.311176
O17	O	1.768658	-0.244064	-0.188793
O18	O	2.268658	0.255936	0.311207
O19	O	1.597055	-0.116044	-0.244008
O20	O	2.097055	0.383956	0.255992
O21	O	1.466672	-0.188875	-0.115973
O22	O	1.966672	0.311125	0.384027
O23	O	1.294832	-0.188868	-0.188802
O24	O	1.794832	0.311132	0.311198
O25	O	1.466617	-0.244051	-0.316802
O26	O	1.966617	0.255949	0.183198
O27	O	1.294741	-0.244048	-0.243969
O28	O	1.794741	0.255952	0.256031
O29	O	1.596935	-0.188872	-0.316819
O30	O	2.096935	0.311128	0.183181
O31	O	1.596662	-0.316890	-0.188771
O32	O	2.096662	0.183110	0.311229
O33	O	1.466462	-0.316884	-0.243951
O34	O	1.966462	0.183116	0.256049
C35	C	1.256322	-0.216457	-0.216385
C36	C	1.756322	0.283543	0.283615
C37	C	1.138492	-0.216465	-0.216394
C38	C	1.638492	0.283535	0.283606
C39	C	1.093588	-0.251238	-0.251049
C40	C	1.593588	0.248762	0.248951
C41	C	0.971028	-0.251381	-0.250946
C42	C	1.471028	0.248619	0.249054
C43	C	0.970546	-0.229097	-0.168990
C44	C	1.470546	0.270903	0.331010
C45	C	1.093144	-0.229343	-0.169190
C46	C	1.593144	0.270657	0.330810
C47	C	1.093387	-0.168985	-0.228730
C48	C	1.593387	0.331015	0.271270
C49	C	0.970781	-0.169247	-0.229773
C50	C	1.470781	0.330753	0.270227
C51	C	1.531560	-0.333187	-0.216366
C52	C	2.031560	0.166813	0.283634
C53	C	1.531575	-0.383122	-0.216372
C54	C	2.031575	0.116878	0.283628
C55	C	1.599670	-0.692756	-0.187698
C56	C	2.099670	-0.192756	0.312302
C57	C	1.599801	-0.880429	-0.187715
C58	C	2.099801	-0.380429	0.312285
O59	O	1.657546	-0.904685	-0.163319
O60	O	2.157546	-0.404685	0.336681
N61	N	1.531971	-0.903907	-0.216422
N62	N	2.031971	-0.403907	0.283578
C63	C	1.464109	-0.880464	-0.245129
C64	C	1.964109	-0.380464	0.254871
O65	O	1.406426	-0.904740	-0.269550
O66	O	1.906426	-0.404740	0.230450
C67	C	1.463984	-0.692792	-0.245114
C68	C	1.963984	-0.192792	0.254886
C69	C	1.531811	-0.669316	-0.216402
C70	C	2.031811	-0.169316	0.283598
C71	C	1.667492	-0.669280	-0.158988
C72	C	2.167492	-0.169280	0.341012
C73	C	1.667455	-0.622364	-0.158983
C74	C	2.167455	-0.122364	0.341017
C75	C	1.599595	-0.598925	-0.187686
C76	C	2.099595	-0.098925	0.312314
C77	C	1.531773	-0.622401	-0.216396
C78	C	2.031773	-0.122401	0.283604
C79	C	1.396128	-0.669350	-0.273823
C80	C	1.896128	-0.169350	0.226177
C81	C	1.396105	-0.622429	-0.273817
C82	C	1.896105	-0.122429	0.226183
C83	C	1.463931	-0.598953	-0.245105
C84	C	1.963931	-0.098953	0.254895
C85	C	1.463877	-0.552046	-0.245094
C86	C	1.963877	-0.052046	0.254906
N87	N	1.531706	-0.528567	-0.216387
N88	N	2.031706	-0.028567	0.283613
C89	C	1.599566	-0.552007	-0.187683
C90	C	2.099566	-0.052007	0.312317
C91	C	1.464178	-0.978995	-0.245135
C92	C	1.964178	-0.478995	0.254865
C93	C	1.464207	-1.025912	-0.245138
C94	C	1.964207	-0.525912	0.254862
C95	C	1.599901	-1.025874	-0.187725
C96	C	2.099901	-0.525874	0.312275
C97	C	1.599865	-0.978955	-0.187719
C98	C	2.099865	-0.478955	0.312281
C99	C	1.532008	-0.955516	-0.216428
C100	C	2.032008	-0.455516	0.283572
C101	C	1.599481	-0.453481	-0.187673
C102	C	2.099481	0.046519	0.312327
C103	C	1.599435	-0.406561	-0.187668
C104	C	2.099435	0.093439	0.312332
C105	C	1.463745	-0.406604	-0.245083
C106	C	1.963745	0.093396	0.254917
C107	C	1.463787	-0.453520	-0.245086
C108	C	1.963787	0.046480	0.254914
C109	C	1.531664	-0.476957	-0.216379
C110	C	2.031664	0.023043	0.283621
O111	O	1.406170	-0.527760	-0.269481
O112	O	1.906170	-0.027760	0.230519
O113	O	1.657256	-0.527723	-0.163273
O114	O	2.157256	-0.027723	0.336727
C115	C	1.599708	-0.739671	-0.187704
C116	C	2.099708	-0.239671	0.312296
C117	C	1.531886	-0.763147	-0.216413
C118	C	2.031886	-0.263147	0.283587
C119	C	1.464026	-0.739707	-0.245117
C120	C	1.964026	-0.239707	0.254883
C121	C	1.531915	-0.810065	-0.216417
C122	C	2.031915	-0.310065	0.283583
C123	C	1.599775	-0.833504	-0.187713
C124	C	2.099775	-0.333504	0.312287
C125	C	1.667605	-0.810026	-0.159006
C126	C	2.167605	-0.310026	0.340994
C127	C	1.667567	-0.763111	-0.159000
C128	C	2.167567	-0.263111	0.341000
C129	C	1.396197	-0.763186	-0.273824
C130	C	1.896197	-0.263186	0.226176
C131	C	1.396239	-0.810101	-0.273827
C132	C	1.896239	-0.310101	0.226173
C133	C	1.464098	-0.833541	-0.245123
C134	C	1.964098	-0.333541	0.254877
C135	C	1.808257	-0.216473	-0.216392
C136	C	2.308257	0.283527	0.283608
C137	C	1.926087	-0.216476	-0.216394
C138	C	2.426087	0.283524	0.283606
C139	C	1.531780	-0.216461	-0.333567
C140	C	2.031780	0.283539	0.166433
C141	C	1.531792	-0.216459	-0.383501
C142	C	2.031792	0.283541	0.116499
C143	C	1.531973	-0.099286	-0.216421
C144	C	2.031973	0.400714	0.283579
C145	C	1.532067	-0.049352	-0.216435
C146	C	2.032067	0.450648	0.283565
C147	C	1.599721	-0.187652	-0.693157
C148	C	2.099721	0.312348	-0.193157
C149	C	1.599773	-0.187614	-0.880830
C150	C	2.099773	0.312386	-0.380830
O151	O	1.657449	-0.163164	-0.905105
O152	O	2.157449	0.336836	-0.405105
N153	N	1.531933	-0.216339	-0.904287
N154	N	2.031933	0.283661	-0.404287
C155	C	1.464070	-0.245073	-0.880822
C156	C	1.964070	0.254927	-0.380822
O157	O	1.406362	-0.269501	-0.905080
O158	O	1.906362	0.230499	-0.405080
C159	C	1.464013	-0.245109	-0.693150
C160	C	1.964013	0.254891	-0.193150
C161	C	1.531865	-0.216385	-0.669696
C162	C	2.031865	0.283615	-0.169696
C163	C	1.667566	-0.158931	-0.669702
C164	C	2.167566	0.341069	-0.169702
C165	C	1.667556	-0.158942	-0.622787
C166	C	2.167556	0.341058	-0.122787
C167	C	1.599701	-0.187675	-0.599326
C168	C	2.099701	0.312325	-0.099326
C169	C	1.531855	-0.216397	-0.622780
C170	C	2.031855	0.283603	-0.122780
C171	C	1.396146	-0.273841	-0.669687
C172	C	1.896146	0.226159	-0.169687
C173	C	1.396135	-0.273846	-0.622766
C174	C	1.896135	0.226154	-0.122766
C175	C	1.463987	-0.245123	-0.599311
C176	C	1.963987	0.254877	-0.099311
C177	C	1.463990	-0.245142	-0.552404
C178	C	1.963990	0.254858	-0.052404
N179	N	1.531830	-0.216417	-0.528947
N180	N	2.031830	0.283583	-0.028947
C181	C	1.599686	-0.187684	-0.552408
C182	C	2.099686	0.312316	-0.052408
C183	C	1.464106	-0.245053	-0.979353
C184	C	1.964106	0.254947	-0.479353
C185	C	1.464122	-0.245045	-1.026271
C186	C	1.964122	0.254955	-0.526271
C187	C	1.599824	-0.187585	-1.026275
C188	C	2.099824	0.312415	-0.526275
C189	C	1.599813	-0.187596	-0.979356
C190	C	2.099813	0.312404	-0.479356
C191	C	1.531946	-0.216328	-0.955896
C192	C	2.031946	0.283672	-0.455896
C193	C	1.599661	-0.187711	-0.453882
C194	C	2.099661	0.312289	0.046118
C195	C	1.599648	-0.187726	-0.406962
C196	C	2.099648	0.312274	0.093038
C197	C	1.463943	-0.245184	-0.406962
C198	C	1.963943	0.254816	0.093038
C199	C	1.463959	-0.245170	-0.453878
C200	C	1.963959	0.254830	0.046122
C201	C	1.531821	-0.216430	-0.477337
C202	C	2.031821	0.283570	0.022663
O203	O	1.406336	-0.269575	-0.528100
O204	O	1.906336	0.230425	-0.028100
O205	O	1.657369	-0.163252	-0.528142
O206	O	2.157369	0.336748	-0.028142
C207	C	1.599730	-0.187641	-0.740072
C208	C	2.099730	0.312359	-0.240072
C209	C	1.531885	-0.216362	-0.763527
C210	C	2.031885	0.283638	-0.263527
C211	C	1.464029	-0.245095	-0.740066
C212	C	1.964029	0.254905	-0.240066
C213	C	1.531900	-0.216354	-0.810445
C214	C	2.031900	0.283646	-0.310445
C215	C	1.599755	-0.187621	-0.833906
C216	C	2.099755	0.312379	-0.333906
C217	C	1.667595	-0.158896	-0.810449
C218	C	2.167595	0.341104	-0.310449
C219	C	1.667586	-0.158908	-0.763533
C220	C	2.167586	0.341092	-0.263533
C221	C	1.396189	-0.273820	-0.763522
C222	C	1.896189	0.226180	-0.263522
C223	C	1.396205	-0.273806	-0.810438
C224	C	1.896205	0.226194	-0.310438
C225	C	1.464061	-0.245073	-0.833899
C226	C	1.964061	0.254927	-0.333899
C227	C	1.531784	-0.216436	-0.099666
C228	C	2.031784	0.283564	0.400334
C229	C	1.531977	-0.216312	-0.049732
C230	C	2.031977	0.283688	0.450268
H231	H	1.124335	-0.286221	-0.242964
H232	H	1.624335	0.213779	0.257036
H233	H	1.654905	-0.164335	-0.387868
H234	H	2.154905	0.335665	0.112132
Cl235	Cl	1.378782	-0.281179	-0.949867
Cl236	Cl	1.878782	0.218821	-0.449867
Cl237	Cl	1.378835	-0.281163	-1.055751
Cl238	Cl	1.878835	0.218837	-0.555751
H239	H	1.722798	-0.744000	-0.135620
H240	H	2.222798	-0.244000	0.364380
Cl241	Cl	0.923547	-0.127136	-0.193680
Cl242	Cl	1.423547	0.372864	0.306320
Cl243	Cl	1.378640	-0.281302	-0.377460
Cl244	Cl	1.878640	0.218698	0.122540
H245	H	1.121679	-0.264043	-0.158765
H246	H	1.621679	0.235957	0.341235
H247	H	1.408966	-1.045023	-0.268514
H248	H	1.908966	-0.545023	0.231486
Cl249	Cl	0.925925	-0.154545	-0.283636
Cl250	Cl	1.425925	0.345455	0.216364
Cl251	Cl	1.141171	-0.151177	-0.281201
Cl252	Cl	1.641171	0.348823	0.218799
Cl253	Cl	0.925646	-0.305709	-0.238323
Cl254	Cl	1.425646	0.194291	0.261677
Cl255	Cl	1.310843	-0.309954	-0.699161
Cl256	Cl	1.810843	0.190046	-0.199161
H257	H	1.122431	-0.143079	-0.203491
H258	H	1.622431	0.356921	0.296509
H259	H	1.655075	-0.164189	-1.045385
H260	H	2.155075	0.335811	-0.545385
Cl261	Cl	1.310961	-0.839608	-0.309926
Cl262	Cl	1.810961	-0.339608	0.190074
H263	H	1.340858	-0.297239	-0.603667
H264	H	1.840858	0.202761	-0.103667
Cl265	Cl	1.685113	-0.151484	-0.949876
Cl266	Cl	2.185113	0.348516	-0.449876
H267	H	1.122849	-0.205097	-0.142483
H268	H	1.622849	0.294903	0.357517
Cl269	Cl	1.378447	-0.377129	-0.281168
Cl270	Cl	1.878447	0.122871	0.218832
Cl271	Cl	0.925609	-0.191195	-0.128027
Cl272	Cl	1.425609	0.308805	0.371973
H273	H	0.940968	-0.243509	-0.286090
H274	H	1.440968	0.256491	0.213910
Cl275	Cl	1.684709	-0.377052	-0.151570
Cl276	Cl	2.184709	0.122948	0.348430
H277	H	1.722855	-0.829119	-0.135633
H278	H	2.222855	-0.329119	0.364367
H279	H	1.408718	-0.268564	-0.472975
H280	H	1.908718	0.231436	0.027025
Cl281	Cl	1.752901	-0.122776	-0.839952
Cl282	Cl	2.252901	0.377224	-0.339952
Cl283	Cl	1.378497	-0.483033	-0.281173
Cl284	Cl	1.878497	0.016967	0.218827
H285	H	0.939787	-0.263421	-0.158387
H286	H	1.439787	0.236579	0.341613
Cl287	Cl	1.684811	-0.482938	-0.151583
Cl288	Cl	2.184811	0.017062	0.348417
Cl289	Cl	1.310878	-0.733726	-0.309913
Cl290	Cl	1.810878	-0.233726	0.190087
H291	H	1.722688	-0.603253	-0.135604
H292	H	2.222688	-0.103253	0.364396
H293	H	1.340954	-0.297201	-0.829531
H294	H	1.840954	0.202799	-0.329531
Cl295	Cl	1.752813	-0.698738	-0.122899
Cl296	Cl	2.252813	-0.198738	0.377101
Cl297	Cl	1.310867	-0.698851	-0.309926
Cl298	Cl	1.810867	-0.198851	0.190074
H299	H	1.722822	-0.135530	-0.688799
H300	H	2.222822	0.364470	-0.188799
H301	H	1.655155	-1.044966	-0.164353
H302	H	2.155155	-0.544966	0.335647
Cl303	Cl	1.310794	-0.592966	-0.309911
Cl304	Cl	1.810794	-0.092966	0.190089
Cl305	Cl	1.752888	-0.122795	-0.734055
Cl306	Cl	2.252888	0.377205	-0.234055
Cl307	Cl	1.310876	-0.309945	-0.734036
Cl308	Cl	1.810876	0.190055	-0.234036
Cl309	Cl	1.685138	-0.949448	-0.151623
Cl310	Cl	2.185138	-0.449448	0.348377
Cl311	Cl	1.378859	-0.949535	-0.281228
Cl312	Cl	1.878859	-0.449535	0.218772
H313	H	1.722807	-0.135552	-0.603694
H314	H	2.222807	0.364448	-0.103694
Cl315	Cl	1.139184	-0.239238	-0.305477
Cl316	Cl	1.639184	0.260762	0.194523
Cl317	Cl	1.684970	-0.151577	-0.483366
Cl318	Cl	2.184970	0.348423	0.016634
