data_functionalizedCrystal
_audit_creation_method	'MofGen! by Chris Wilmer'
_symmetry_space_group_name_H-M	'P1'
_symmetry_Int_Tables_number	1
_symmetry_cell_setting	triclinic
loop_
_symmetry_equiv_pos_as_xyz
  x,y,z
_cell_length_a	14.519731
_cell_length_b	12.996460
_cell_length_c	14.519709
_cell_angle_alpha	90.007090
_cell_angle_beta	96.315501
_cell_angle_gamma	89.993310
loop_
_atom_site_label
_atom_site_type_symbol
_atom_site_fract_x
_atom_site_fract_y
_atom_site_fract_z
O1	O	-1.223857	0.085596	0.120986
O2	O	-0.723857	0.585596	0.620986
O3	O	-0.955382	0.085592	0.135203
O4	O	-0.455382	0.585592	0.635203
O5	O	-1.096738	0.085585	-0.006143
O6	O	-0.596738	0.585585	0.493857
O7	O	-1.082501	0.085603	0.262332
O8	O	-0.582501	0.585603	0.762332
O9	O	-1.096723	-0.085549	-0.006151
O10	O	-0.596723	0.414451	0.493849
O11	O	-0.955368	-0.085542	0.135195
O12	O	-0.455368	0.414458	0.635195
O13	O	-1.223842	-0.085538	0.120979
O14	O	-0.723842	0.414462	0.620979
Cu15	Cu	-1.089603	-0.101166	0.128086
Cu16	Cu	-0.589603	0.398834	0.628086
Cu17	Cu	-1.089621	0.101220	0.128095
Cu18	Cu	-0.589621	0.601220	0.628095
O19	O	-1.082487	-0.085531	0.262325
O20	O	-0.582487	0.414469	0.762325
C21	C	-0.921016	0.000025	0.134532
C22	C	-0.421016	0.500025	0.634532
C23	C	-0.818635	0.000023	0.132536
C24	C	-0.318635	0.500023	0.632536
N25	N	-1.089598	-0.243513	0.128079
N26	N	-0.589598	0.256487	0.628079
C27	C	-0.735491	0.000025	0.130915
C28	C	-0.235491	0.500025	0.630915
C29	C	-0.631182	0.000024	0.128888
C30	C	-0.131182	0.500024	0.628888
C31	C	-0.548043	0.000022	0.127280
C32	C	-0.048043	0.500022	0.627280
C33	C	-0.443728	0.000022	0.125253
C34	C	0.056272	0.500022	0.625253
C35	C	-1.089620	-0.663327	0.128096
C36	C	-0.589620	-0.163327	0.628096
C37	C	-1.089611	-0.546522	0.128094
C38	C	-0.589611	-0.046522	0.628094
C39	C	-1.089609	-0.453424	0.128088
C40	C	-0.589609	0.046576	0.628088
C41	C	-1.089600	-0.336611	0.128085
C42	C	-0.589600	0.163389	0.628085
C43	C	-0.258209	0.000026	0.121649
C44	C	0.241791	0.500026	0.621649
C45	C	-0.360589	0.000020	0.123645
C46	C	0.139411	0.500020	0.623645
C47	C	-1.096067	0.000018	-0.040507
C48	C	-0.596067	0.500018	0.459493
C49	C	-1.094079	0.000017	-0.142889
C50	C	-0.594079	0.500017	0.357111
N51	N	-1.089634	0.243567	0.128095
N52	N	-0.589634	0.743567	0.628095
C53	C	-1.086759	0.000044	-0.517785
C54	C	-0.586759	0.500044	-0.017785
C55	C	-1.088792	0.000036	-0.413477
C56	C	-0.588792	0.500036	0.086523
C57	C	-1.090419	0.000029	-0.330340
C58	C	-0.590419	0.500029	0.169660
C59	C	-1.092452	0.000024	-0.226025
C60	C	-0.592452	0.500024	0.273975
C61	C	-1.083157	0.000039	0.296688
C62	C	-0.583157	0.500039	0.796688
C63	C	-1.085146	0.000046	0.399070
C64	C	-0.585146	0.500046	0.899070
