data_functionalizedCrystal
_audit_creation_method	'MofGen! by Chris Wilmer'
_symmetry_space_group_name_H-M	'P1'
_symmetry_Int_Tables_number	1
_symmetry_cell_setting	triclinic
loop_
_symmetry_equiv_pos_as_xyz
  x,y,z
_cell_length_a	6.817900
_cell_length_b	12.200722
_cell_length_c	17.110486
_cell_angle_alpha	95.512362
_cell_angle_beta	99.060439
_cell_angle_gamma	107.140920
loop_
_atom_site_label
_atom_site_type_symbol
_atom_site_fract_x
_atom_site_fract_y
_atom_site_fract_z
V1	V	-3.995363	-0.158371	-0.246804
O2	O	-3.964445	0.007962	-0.242019
O3	O	-3.965397	-0.314362	-0.245199
O4	O	-3.924919	-0.155781	-0.354406
O5	O	-4.005203	-0.151717	-0.132057
V6	V	-4.479459	-0.138494	-0.233069
O7	O	-4.255365	-0.201973	-0.276932
O8	O	-4.669655	-0.094892	-0.202941
O9	O	-4.286219	0.017496	-0.234674
O10	O	-4.627774	-0.304827	-0.237854
O11	O	-4.587017	-0.145149	-0.347816
O12	O	-4.326697	-0.141084	-0.125467
C13	C	-3.815595	-0.352393	-0.241327
C14	C	-3.872234	-0.479917	-0.240732
C15	C	-3.918226	-0.583478	-0.240242
C16	C	-3.975944	-0.713401	-0.239630
C17	C	-3.763961	-0.150107	-0.380630
C18	C	-3.787771	-0.149021	-0.468596
C19	C	-3.980920	-0.154236	-0.513956
C20	C	-4.003279	-0.153215	-0.596609
C21	C	-3.832491	-0.146987	-0.633900
C22	C	-3.639325	-0.141768	-0.588533
C23	C	-3.616964	-0.142781	-0.505881
C24	C	-3.890900	-0.143636	-0.883254
C25	C	-3.913278	-0.142627	-0.965912
C26	C	-4.277231	-0.154072	-0.973982
C27	C	-4.254856	-0.155091	-0.891329
C28	C	-4.061690	-0.149866	-0.845968
C29	C	-3.855343	-0.145947	-0.718385
C30	C	-4.038836	-0.150898	-0.761484
C31	C	-4.099364	0.055522	-0.238544
C32	C	-4.021963	0.183044	-0.239144
C33	C	-4.150998	-0.146762	-0.099239
C34	C	-4.106427	-0.147842	-0.011273
H35	H	-4.120002	-0.159315	-0.483601
H36	H	-3.733635	-0.139422	-0.846335
H37	H	-4.160556	-0.157455	-0.633538
H38	H	-3.500264	-0.136691	-0.618902
H39	H	-4.177887	-0.155965	-0.731117
H40	H	-3.716293	-0.140881	-0.748757
H41	H	-3.459670	-0.138506	-0.468946
H42	H	-4.393933	-0.160161	-0.860972
H43	H	-4.434499	-0.158324	-1.010923
H44	H	-3.774189	-0.137552	-0.996271
