data_functionalizedCrystal
_audit_creation_method	'MofGen! by Chris Wilmer'
_symmetry_space_group_name_H-M	'P1'
_symmetry_Int_Tables_number	1
_symmetry_cell_setting	triclinic
loop_
_symmetry_equiv_pos_as_xyz
  x,y,z
_cell_length_a	11.792241
_cell_length_b	10.654541
_cell_length_c	9.130307
_cell_angle_alpha	89.996917
_cell_angle_beta	90.002681
_cell_angle_gamma	84.338672
loop_
_atom_site_label
_atom_site_type_symbol
_atom_site_fract_x
_atom_site_fract_y
_atom_site_fract_z
O1	O	1.507300	0.172134	-0.121656
O2	O	1.177000	0.189874	-0.121691
O3	O	1.349746	-0.001757	-0.121664
O4	O	1.334555	0.363765	-0.121683
O5	O	1.349740	-0.001759	0.121935
O6	O	1.176994	0.189872	0.121908
O7	O	1.507295	0.172132	0.121943
Cu8	Cu	1.342144	0.181002	0.144168
Cu9	Cu	1.342151	0.181004	-0.143916
O10	O	1.334549	0.363763	0.121916
C11	C	1.348628	-0.048553	0.000135
C12	C	1.345293	-0.187987	0.000132
C13	C	1.134704	0.188759	0.000105
C14	C	1.008682	0.185423	0.000092
C15	C	1.551857	-0.216542	0.000172
C16	C	1.653568	-0.296324	0.000195
C17	C	1.650427	-0.427333	0.000190
C18	C	1.545564	-0.478562	0.000158
C19	C	1.443854	-0.398780	0.000135
C20	C	1.447006	-0.267770	0.000144
C21	C	1.237292	-0.370225	0.000085
C22	C	1.240430	-0.239216	0.000100
C23	C	1.132429	-0.421454	0.000053
C24	C	1.030716	-0.341672	0.000040
C25	C	1.033861	-0.210655	0.000047
C26	C	1.138720	-0.159434	0.000077
C27	C	0.777956	0.179290	0.000134
C28	C	0.906349	0.182698	0.000111
C29	C	1.549591	0.173247	0.000144
C30	C	1.675612	0.176582	0.000147
C31	C	1.335667	0.410559	0.000114
C32	C	1.339002	0.549993	0.000107
N33	N	1.342148	0.180999	0.346791
N34	N	1.342156	0.180996	-0.346539
C35	C	1.495177	0.011360	0.346805
C36	C	1.571699	-0.073457	0.423478
C37	C	1.571711	-0.073458	0.576812
C38	C	1.495189	0.011365	0.653475
C39	C	1.418667	0.096181	0.576801
C40	C	1.418666	0.096175	0.423464
C41	C	1.265634	0.265813	0.576788
C42	C	1.265626	0.265822	0.423454
C43	C	1.189113	0.350635	0.653451
C44	C	1.112594	0.435459	0.576777
C45	C	1.112587	0.435457	0.423435
C46	C	1.189104	0.350638	0.346781
H47	H	1.554425	-0.109869	0.000196
H48	H	1.189109	0.350633	0.221928
H49	H	0.951036	-0.145703	0.000022
H50	H	0.945345	-0.383393	0.000005
H51	H	1.738945	-0.254599	0.000233
H52	H	1.634000	-0.142521	0.361045
C53	C	1.655880	-0.166754	0.661156
H54	H	1.701455	-0.217268	0.593544
H55	H	1.614648	-0.219338	0.720980
H56	H	1.703480	-0.121207	0.720963
C57	C	1.142184	-0.015329	0.000075
H58	H	1.219201	0.003750	0.000084
H59	H	1.104740	0.019588	0.085008
H60	H	1.104766	0.019577	-0.084899
H61	H	1.495185	0.011362	0.221952
C62	C	1.495183	0.011351	0.822137
H63	H	1.438648	0.074006	0.856813
H64	H	1.567854	0.029079	0.856841
H65	H	1.479017	-0.069046	0.856811
H66	H	1.733248	-0.492293	0.000197
H67	H	1.129879	-0.528129	0.000040
C68	C	1.542110	-0.622668	0.000141
H69	H	1.617703	-0.662846	0.000163
H70	H	1.503259	-0.647025	-0.084815
H71	H	1.503250	-0.647040	0.085092
H72	H	1.189120	0.350625	0.778303
H73	H	1.050291	0.504510	0.639206
H74	H	1.050269	0.504520	0.361015
