data_functionalizedCrystal
_audit_creation_method	'MofGen! by Chris Wilmer'
_symmetry_space_group_name_H-M	'P1'
_symmetry_Int_Tables_number	1
_symmetry_cell_setting	triclinic
loop_
_symmetry_equiv_pos_as_xyz
  x,y,z
_cell_length_a	15.944551
_cell_length_b	15.944551
_cell_length_c	15.021413
_cell_angle_alpha	89.996935
_cell_angle_beta	89.997174
_cell_angle_gamma	96.501262
loop_
_atom_site_label
_atom_site_type_symbol
_atom_site_fract_x
_atom_site_fract_y
_atom_site_fract_z
O1	O	1.114529	-0.108321	-0.073941
O2	O	1.614529	0.391679	0.426059
O3	O	0.869979	-0.121677	-0.073964
O4	O	1.369979	0.378323	0.426036
O5	O	0.998932	0.007276	-0.073944
O6	O	1.498932	0.507276	0.426056
O7	O	0.985576	-0.237274	-0.073961
O8	O	1.485576	0.262726	0.426039
O9	O	0.998912	0.007257	0.074121
O10	O	1.498912	0.507257	0.574121
O11	O	0.869959	-0.121695	0.074101
O12	O	1.369959	0.378305	0.574101
O13	O	1.114508	-0.108339	0.074123
O14	O	1.614508	0.391661	0.574123
Zn15	Zn	0.992230	-0.115020	0.097620
Zn16	Zn	1.492230	0.384980	0.597620
Zn17	Zn	0.992257	-0.114996	-0.097461
Zn18	Zn	1.492257	0.385004	0.402539
O19	O	0.985555	-0.237292	0.074103
O20	O	1.485555	0.262708	0.574103
C21	C	0.838675	-0.121132	0.000066
C22	C	1.338675	0.378868	0.500066
C23	C	0.745429	-0.119470	0.000057
C24	C	1.245429	0.380530	0.500057
C25	C	0.998367	0.038561	0.000089
C26	C	1.498367	0.538561	0.500089
C27	C	0.996705	0.131807	0.000089
C28	C	1.496705	0.631807	0.500089
C29	C	0.530572	-0.035565	0.000081
C30	C	1.030572	0.464435	0.500081
C31	C	0.469562	-0.074518	-0.072926
C32	C	0.969562	0.425482	0.427074
C33	C	0.574703	-0.116462	0.000068
C34	C	1.074703	0.383538	0.500068
C35	C	0.469564	-0.074556	0.073054
C36	C	0.969564	0.425444	0.573054
C37	C	0.409790	-0.113551	0.000083
C38	C	0.909790	0.386449	0.500083
C39	C	0.514921	-0.155438	-0.072998
C40	C	1.014921	0.344562	0.427002
C41	C	0.514930	-0.155464	0.073047
C42	C	1.014930	0.344536	0.573047
C43	C	0.453937	-0.194476	0.000023
C44	C	0.953937	0.305524	0.500023
C45	C	0.669705	-0.118137	0.000059
C46	C	1.169705	0.381863	0.500059
C47	C	0.314789	-0.111883	0.000085
C48	C	0.814789	0.388117	0.500085
C49	C	1.145813	-0.108885	0.000092
C50	C	1.645813	0.391115	0.500092
C51	C	1.239059	-0.110547	0.000094
C52	C	1.739059	0.389453	0.500094
C53	C	0.986120	-0.268577	0.000069
C54	C	1.486120	0.231423	0.500069
C55	C	0.987782	-0.361823	0.000063
C56	C	1.487782	0.138177	0.500063
N57	N	0.992218	-0.115036	0.230758
N58	N	1.492218	0.384964	0.730758
C59	C	0.912801	0.346663	0.000069
C60	C	1.412801	0.846663	0.500069
C61	C	0.951753	0.407672	0.073077
C62	C	1.451753	0.907672	0.573077
C63	C	0.993698	0.302533	0.000082
C64	C	1.493698	0.802533	0.500082
C65	C	0.951792	0.407673	-0.072903
C66	C	1.451792	0.907673	0.427097
C67	C	0.990787	0.467445	0.000071
C68	C	1.490787	0.967445	0.500071
C69	C	1.032672	0.362313	0.073150
C70	C	1.532672	0.862313	0.573150
C71	C	1.032700	0.362308	-0.072895
C72	C	1.532700	0.862308	0.427105
C73	C	1.071711	0.423298	0.000131
C74	C	1.571711	0.923298	0.500131
C75	C	0.995372	0.207530	0.000089
C76	C	1.495372	0.707530	0.500089
C77	C	0.989119	0.562446	0.000070
C78	C	1.489119	1.062446	0.500070
N79	N	0.992276	-0.114973	-0.230598
N80	N	1.492276	0.385027	0.269402
C81	C	0.932581	-0.174636	0.470432
C82	C	1.432581	0.325364	0.970432
C83	C	1.008481	-0.190943	0.529772
C84	C	1.508481	0.309057	1.029772
C85	C	0.992239	-0.115015	0.412365
C86	C	1.492239	0.384985	0.912365
C87	C	0.916360	-0.098727	0.529766
C88	C	1.416360	0.401273	1.029766
C89	C	0.992253	-0.114997	0.587789
C90	C	1.492253	0.385003	1.087789
C91	C	1.068178	-0.131360	0.470398
C92	C	1.568178	0.368640	0.970398
C93	C	0.976006	-0.039111	0.470387
C94	C	1.476006	0.460889	0.970387
C95	C	1.051962	-0.055386	0.529701
C96	C	1.551962	0.444614	1.029701
C97	C	0.992230	-0.115028	0.311307
C98	C	1.492230	0.384972	0.811307
C99	C	0.992271	-0.114984	0.688844
C100	C	1.492271	0.385016	1.188844
H101	H	0.563905	0.031573	-0.000005
H102	H	1.063905	0.531573	0.499995
Cl103	Cl	1.129945	0.022473	0.569635
Cl104	Cl	1.629945	0.522473	1.069635
Cl105	Cl	1.175472	0.474497	0.000200
Cl106	Cl	1.675472	0.974497	0.500200
Cl107	Cl	1.085444	0.331443	0.168550
Cl108	Cl	1.585444	0.831443	0.668550
H109	H	0.449470	-0.040332	0.134773
H110	H	0.949470	0.459668	0.634773
H111	H	0.852184	-0.084959	0.555847
H112	H	1.352184	0.415041	1.055847
Cl113	Cl	1.085496	0.331236	-0.168186
Cl114	Cl	1.585496	0.831236	0.331814
H115	H	0.535052	-0.189659	0.134767
H116	H	1.035052	0.310341	0.634767
H117	H	1.022224	-0.255126	0.555856
H118	H	1.522224	0.244874	1.055856
Cl119	Cl	0.809130	0.295238	0.000166
Cl120	Cl	1.309130	0.795238	0.500166
H121	H	0.449461	-0.040295	-0.134642
H122	H	0.949461	0.459705	0.365358
H123	H	0.917528	0.427772	0.134794
H124	H	1.417528	0.927772	0.634794
Cl125	Cl	0.898957	0.438704	-0.168190
Cl126	Cl	1.398957	0.938704	0.331810
H127	H	0.420779	-0.261683	-0.000023
H128	H	0.920779	0.238317	0.499977
H129	H	0.882181	-0.225096	0.444409
H130	H	1.382181	0.274904	0.944409
H131	H	0.534918	-0.189621	-0.134787
H132	H	1.034918	0.310379	0.365213
Cl133	Cl	1.167285	-0.152735	0.430311
Cl134	Cl	1.667285	0.347265	0.930311
Cl135	Cl	0.954752	0.059951	0.430079
Cl136	Cl	1.454752	0.559951	0.930079
