data_functionalizedCrystal
_audit_creation_method	'MofGen! by Chris Wilmer'
_symmetry_space_group_name_H-M	'P1'
_symmetry_Int_Tables_number	1
_symmetry_cell_setting	triclinic
loop_
_symmetry_equiv_pos_as_xyz
  x,y,z
_cell_length_a	8.634740
_cell_length_b	8.559649
_cell_length_c	13.448316
_cell_angle_alpha	89.994831
_cell_angle_beta	89.993937
_cell_angle_gamma	85.174486
loop_
_atom_site_label
_atom_site_type_symbol
_atom_site_fract_x
_atom_site_fract_y
_atom_site_fract_z
O1	O	1.985475	0.511635	-0.082685
O2	O	1.541604	0.468732	-0.082687
O3	O	1.802645	0.263602	-0.082685
O4	O	1.724434	0.716765	-0.082687
O5	O	1.802617	0.263583	0.082699
O6	O	1.541576	0.468713	0.082697
O7	O	1.985448	0.511615	0.082699
Cu8	Cu	1.763510	0.490163	0.097798
Cu9	Cu	1.763542	0.490185	-0.097787
O10	O	1.724407	0.716746	0.082696
C11	C	1.485291	0.459004	0.000005
C12	C	1.317539	0.430026	0.000004
C13	C	1.808558	0.204975	0.000005
C14	C	1.826201	0.030311	-0.000000
C15	C	2.041761	0.521344	0.000005
C16	C	2.209512	0.550322	-0.000001
C17	C	1.718493	0.775373	0.000004
C18	C	1.700851	0.950037	0.000003
N19	N	1.763498	0.490147	0.235363
N20	N	1.763567	0.490190	-0.235351
C21	C	1.879114	0.399364	0.287404
C22	C	1.879123	0.399364	0.391507
C23	C	1.763522	0.490157	0.443567
C24	C	1.647895	0.580944	0.391519
C25	C	1.647880	0.580934	0.287417
C26	C	1.647936	0.580961	0.608499
C27	C	1.647951	0.580973	0.712607
C28	C	1.879179	0.399391	0.712589
C29	C	1.879164	0.399381	0.608487
C30	C	1.763538	0.490170	0.556446
H31	H	1.245360	0.675483	0.000007
H32	H	1.973255	0.325438	0.245024
Cl33	Cl	1.514315	0.050228	0.000005
H34	H	1.973301	0.325460	0.566100
Cl35	Cl	2.012746	-0.069886	0.000014
H36	H	1.973325	0.325468	0.754967
Cl37	Cl	2.024470	0.285233	0.456933
Cl38	Cl	1.262195	0.236771	0.000007
Cl39	Cl	1.502614	0.695114	0.778046
H40	H	1.553776	0.654885	0.566130
Cl41	Cl	1.502559	0.695077	0.456963
Cl42	Cl	1.502523	0.695060	0.221995
