data_functionalizedCrystal
_audit_creation_method	'MofGen! by Chris Wilmer'
_symmetry_space_group_name_H-M	'P1'
_symmetry_Int_Tables_number	1
_symmetry_cell_setting	triclinic
loop_
_symmetry_equiv_pos_as_xyz
  x,y,z
_cell_length_a	8.497367
_cell_length_b	8.497374
_cell_length_c	12.759401
_cell_angle_alpha	90.001753
_cell_angle_beta	90.031951
_cell_angle_gamma	90.038609
loop_
_atom_site_label
_atom_site_type_symbol
_atom_site_fract_x
_atom_site_fract_y
_atom_site_fract_z
Zn1	Zn	0.628266	0.892473	1.606419
Zn2	Zn	0.892012	0.628893	1.606517
Zn3	Zn	0.628247	0.628701	1.430777
Zn4	Zn	0.892005	0.892624	1.430858
O5	O	0.760132	0.760673	1.518643
O6	O	0.663264	0.857526	1.753453
O7	O	0.857018	0.408105	1.583212
O8	O	0.407487	0.663547	1.454001
O9	O	0.857037	0.663875	1.753525
O10	O	0.407501	0.857340	1.583045
O11	O	0.663230	0.407964	1.454096
O12	O	0.663224	0.663693	1.283766
O13	O	0.857025	1.113366	1.454139
O14	O	0.857006	0.857597	1.283826
O15	O	0.663257	1.113256	1.583124
O16	O	1.112774	0.664021	1.583290
O17	O	1.112769	0.857783	1.454234
C18	C	0.760113	0.760641	1.245675
C19	C	0.760143	0.760665	1.128899
C20	C	1.348652	0.760527	1.518570
C21	C	1.170008	0.760815	1.518702
C22	C	0.861199	0.861472	1.074095
C23	C	0.861205	0.861504	0.964371
C24	C	0.659095	0.659908	0.964264
C25	C	0.659082	0.659885	1.073986
C26	C	0.917885	1.047535	0.814465
C27	C	1.018965	1.148328	0.759658
C28	C	1.172932	1.172400	0.795337
C29	C	1.225850	1.095656	0.885821
C30	C	1.124778	0.994851	0.940622
C31	C	0.970789	0.970809	0.904945
C32	C	0.602418	0.473852	1.223893
C33	C	0.501353	0.373038	1.278697
C34	C	0.347383	0.348950	1.243020
C35	C	0.294471	0.425666	1.152533
C36	C	0.395537	0.526480	1.097729
C37	C	0.549505	0.550571	1.133413
C38	C	0.760135	1.172153	1.518635
C39	C	0.760152	1.350797	1.518637
C40	C	0.760153	0.760705	1.792676
C41	C	0.760162	0.760719	1.909452
H42	H	0.943485	0.943538	1.118802
C43	C	0.569372	0.570428	0.796019
C44	C	0.548019	0.549128	0.903899
H45	H	0.500802	0.502027	0.758756
H46	H	0.546457	0.676438	0.778045
H47	H	0.675337	0.547237	0.778090
H48	H	0.442055	0.572330	0.921830
H49	H	0.570922	0.443093	0.921880
C50	C	0.549825	0.125613	1.363611
C51	C	0.559485	0.288666	1.378155
H52	H	0.585713	0.073521	1.425009
H53	H	0.443671	0.096875	1.350190
H54	H	0.613566	0.095863	1.305778
H55	H	0.495735	0.318418	1.435984
H56	H	0.665658	0.317417	1.391590
H57	H	1.351232	1.115251	0.914857
C58	C	1.205081	1.345473	0.648148
C59	C	1.284038	1.283201	0.735098
H60	H	1.273666	1.413888	0.610963
H61	H	1.172610	1.262193	0.603419
H62	H	1.115431	1.402593	0.671097
H63	H	1.373683	1.226071	0.712148
H64	H	1.316532	1.366494	0.779834
H65	H	0.792508	1.027960	0.785414
H66	H	0.975865	1.210814	0.685986
H67	H	0.352438	0.588957	1.024055
C68	C	1.339433	0.952874	1.059809
C69	C	1.182933	0.910479	1.040069
H70	H	1.375333	0.900790	1.121207
H71	H	1.403121	0.923087	1.001971
H72	H	1.345975	1.063497	1.069653
H73	H	1.176393	0.799856	1.030217
H74	H	1.119228	0.940255	1.097920
C75	C	0.047684	0.294521	1.180525
C76	C	0.125221	0.399199	1.113311
H77	H	-0.056807	0.278185	1.156313
H78	H	0.102212	0.196994	1.181587
H79	H	0.045041	0.337408	1.249256
H80	H	0.127874	0.356306	1.044581
H81	H	0.070679	0.496744	1.112237
C82	C	0.767739	0.563509	1.364433
C83	C	0.771672	0.500334	1.263112
H84	H	0.872231	0.579843	1.388644
H85	H	0.713217	0.661038	1.363363
H86	H	0.715124	0.492472	1.410011
H87	H	0.824278	0.571377	1.217532
H88	H	0.826218	0.402791	1.264175
H89	H	0.265102	0.266845	1.287647
