data_functionalizedCrystal
_audit_creation_method	'MofGen! by Chris Wilmer'
_symmetry_space_group_name_H-M	'P1'
_symmetry_Int_Tables_number	1
_symmetry_cell_setting	triclinic
loop_
_symmetry_equiv_pos_as_xyz
  x,y,z
_cell_length_a	16.625548
_cell_length_b	19.121449
_cell_length_c	16.625539
_cell_angle_alpha	92.469138
_cell_angle_beta	90.020568
_cell_angle_gamma	87.586203
loop_
_atom_site_label
_atom_site_type_symbol
_atom_site_fract_x
_atom_site_fract_y
_atom_site_fract_z
Zn1	Zn	1.246350	-0.279588	0.442220
Zn2	Zn	1.746350	0.220412	0.942220
Zn3	Zn	1.251996	-0.397043	0.301636
Zn4	Zn	1.751996	0.102957	0.801636
Zn5	Zn	1.111513	-0.279615	0.307399
Zn6	Zn	1.611513	0.220385	0.807399
Zn7	Zn	1.117223	-0.397003	0.436428
Zn8	Zn	1.617223	0.102997	0.936428
O9	O	1.181771	-0.338312	0.371920
O10	O	1.681771	0.161688	0.871920
O11	O	1.359932	-0.295174	0.423583
O12	O	1.859932	0.204826	0.923583
O13	O	1.233334	-0.381494	0.189566
O14	O	1.733334	0.118506	0.689566
O15	O	1.124647	-0.181328	0.330119
O16	O	1.624647	0.318672	0.830119
O17	O	1.364080	-0.381468	0.320297
O18	O	1.864080	0.118532	0.820297
O19	O	1.223711	-0.181309	0.429171
O20	O	1.723711	0.318691	0.929171
O21	O	1.130122	-0.295220	0.193800
O22	O	1.630122	0.204780	0.693800
O23	O	0.999438	-0.295181	0.324503
O24	O	1.499438	0.204819	0.824503
O25	O	1.134379	-0.381400	0.550030
O26	O	1.634379	0.118600	1.050030
O27	O	1.003633	-0.381426	0.419299
O28	O	1.503633	0.118574	0.919299
O29	O	1.229248	-0.295135	0.554285
O30	O	1.729248	0.204865	1.054285
O31	O	1.238871	-0.495321	0.314680
O32	O	1.738871	0.004679	0.814680
O33	O	1.139854	-0.495291	0.413711
O34	O	1.639854	0.004709	0.913711
C35	C	0.972280	-0.338302	0.371898
C36	C	1.472280	0.161698	0.871898
C37	C	0.882659	-0.338315	0.371907
C38	C	1.382659	0.161685	0.871907
C39	C	1.190616	-0.520790	0.362959
C40	C	1.690616	-0.020790	0.862959
C41	C	1.194474	-0.598855	0.359153
C42	C	1.694474	-0.098855	0.859153
C43	C	0.554484	-0.338320	0.371941
C44	C	1.054484	0.161680	0.871941
C45	C	0.645792	-0.338316	0.371929
C46	C	1.145792	0.161684	0.871929
C47	C	0.718568	-0.338318	0.371924
C48	C	1.218568	0.161682	0.871924
C49	C	0.809883	-0.338314	0.371913
C50	C	1.309883	0.161686	0.871913
C51	C	1.144699	-0.635540	0.408882
C52	C	1.644699	-0.135540	0.908882
C53	C	1.148327	-0.708890	0.405302
C54	C	1.648327	-0.208890	0.905302
C55	C	1.201736	-0.745553	0.351996
C56	C	1.701736	-0.245553	0.851996
C57	C	1.251514	-0.708863	0.302262
C58	C	1.751514	-0.208863	0.802262
C59	C	1.247880	-0.635514	0.305838
C60	C	1.747880	-0.135514	0.805838
C61	C	1.215283	-0.967019	0.338617
C62	C	1.715283	-0.467019	0.838617
C63	C	1.218914	-1.040372	0.335046
C64	C	1.718914	-0.540372	0.835046
C65	C	1.115726	-1.040394	0.438085
C66	C	1.615726	-0.540394	0.938085
C67	C	1.112101	-0.967044	0.441661
C68	C	1.612101	-0.467044	0.941661
C69	C	1.161875	-0.930360	0.391923
C70	C	1.661875	-0.430360	0.891923
C71	C	1.205448	-0.820529	0.348338
C72	C	1.705448	-0.320529	0.848338
C73	C	1.158159	-0.855386	0.395578
C74	C	1.658159	-0.355386	0.895578
C75	C	1.392080	-0.338323	0.371943
C76	C	1.892080	0.161677	0.871943
C77	C	1.481702	-0.338327	0.371953
C78	C	1.981702	0.161673	0.871953
C79	C	1.181821	-0.338260	0.582232
C80	C	1.681821	0.161740	1.082232
C81	C	1.181842	-0.338238	0.671854
C82	C	1.681842	0.161762	1.171854
C83	C	1.172913	-0.155122	0.380934
C84	C	1.672913	0.344878	0.880934
C85	C	1.169138	-0.077057	0.384775
C86	C	1.669138	0.422943	0.884775
C87	C	1.181765	-0.338314	0.162429
C88	C	1.681765	0.161686	0.662429
C89	C	1.181890	-0.338138	0.072817
C90	C	1.681890	0.161862	0.572817
C91	C	1.181875	-0.338159	1.000034
C92	C	1.681875	0.161841	1.500034
C93	C	1.181864	-0.338183	0.908724
C94	C	1.681864	0.161817	1.408724
C95	C	1.181859	-0.338199	0.835947
C96	C	1.681859	0.161801	1.335947
C97	C	1.181847	-0.338222	0.744631
C98	C	1.681847	0.161778	1.244631
H99	H	1.101211	-0.605693	0.452293
H100	H	1.601211	-0.105693	0.952293
H101	H	1.107787	-0.738756	0.445789
H102	H	1.607787	-0.238756	0.945789
H103	H	1.068611	-0.937194	0.485066
H104	H	1.568611	-0.437194	0.985066
O105	O	1.309120	-0.748417	0.244777
O106	O	1.809120	-0.248417	0.744777
H107	H	1.294635	-0.734403	0.182161
H108	H	1.794635	-0.234403	0.682161
H109	H	1.075201	-1.070270	0.478578
H110	H	1.575201	-0.570270	0.978578
O111	O	1.276515	-1.079921	0.277544
O112	O	1.776515	-0.579921	0.777544
H113	H	1.310511	-1.042091	0.243552
H114	H	1.810511	-0.542091	0.743552
H115	H	1.255813	-0.937156	0.298120
H116	H	1.755813	-0.437156	0.798120
O117	O	1.301571	-0.595941	0.252208
O118	O	1.801571	-0.095941	0.752208
H119	H	1.339327	-0.633757	0.214546
H120	H	1.839327	-0.133757	0.714546
O121	O	1.100550	-0.815850	0.453071
O122	O	1.600550	-0.315850	0.953071
H123	H	1.134961	-0.782382	0.495760
H124	H	1.634961	-0.282382	0.995760
H125	H	1.248934	-0.850389	0.304937
H126	H	1.748934	-0.350389	0.804937
