data_functionalizedCrystal
_audit_creation_method	'MofGen! by Chris Wilmer'
_symmetry_space_group_name_H-M	'P1'
_symmetry_Int_Tables_number	1
_symmetry_cell_setting	triclinic
loop_
_symmetry_equiv_pos_as_xyz
  x,y,z
_cell_length_a	18.215407
_cell_length_b	12.645330
_cell_length_c	12.645324
_cell_angle_alpha	89.966098
_cell_angle_beta	89.977085
_cell_angle_gamma	90.013094
loop_
_atom_site_label
_atom_site_type_symbol
_atom_site_fract_x
_atom_site_fract_y
_atom_site_fract_z
Zn1	Zn	1.125157	-0.421946	-0.599429
Zn2	Zn	1.625157	0.078054	-0.099429
Zn3	Zn	1.125085	-0.599255	-0.422163
Zn4	Zn	1.625085	-0.099255	0.077837
Zn5	Zn	1.002083	-0.422008	-0.422174
Zn6	Zn	1.502083	0.077992	0.077826
Zn7	Zn	1.002082	-0.599169	-0.599378
Zn8	Zn	1.502082	-0.099169	-0.099378
O9	O	1.063602	-0.510595	-0.510786
O10	O	1.563602	-0.010595	-0.010786
O11	O	1.228132	-0.445477	-0.575931
O12	O	1.728132	0.054523	-0.075931
O13	O	1.108739	-0.575805	-0.273817
O14	O	1.608739	-0.075805	0.226183
O15	O	1.018440	-0.273652	-0.445713
O16	O	1.518440	0.226348	0.054287
O17	O	1.228079	-0.575745	-0.445694
O18	O	1.728079	-0.075745	0.054306
O19	O	1.108862	-0.273607	-0.575942
O20	O	1.608862	0.226393	-0.075942
O21	O	1.018370	-0.445582	-0.273825
O22	O	1.518370	0.054418	0.226175
O23	O	0.899098	-0.445499	-0.445664
O24	O	1.399098	0.054501	0.054336
O25	O	1.018437	-0.575598	-0.747732
O26	O	1.518437	-0.075598	-0.247732
O27	O	0.899098	-0.575658	-0.575855
O28	O	1.399098	-0.075658	-0.075855
O29	O	1.108860	-0.445393	-0.747770
O30	O	1.608860	0.054607	-0.247770
O31	O	1.108738	-0.747591	-0.445645
O32	O	1.608738	-0.247591	0.054355
O33	O	1.018368	-0.747528	-0.575844
O34	O	1.518368	-0.247528	-0.075844
C35	C	0.872395	-0.510577	-0.510756
C36	C	1.372395	-0.010577	-0.010756
C37	C	0.790596	-0.510594	-0.510768
C38	C	1.290596	-0.010594	-0.010768
C39	C	0.602421	-0.578475	-0.578473
C40	C	1.102421	-0.078475	-0.078473
C41	C	0.525563	-0.578478	-0.578487
C42	C	1.025563	-0.078478	-0.078487
C43	C	0.525534	-0.442733	-0.443122
C44	C	1.025534	0.057267	0.056878
C45	C	0.602391	-0.442726	-0.443115
C46	C	1.102391	0.057274	0.056885
C47	C	0.640833	-0.510602	-0.510789
C48	C	1.140833	-0.010602	-0.010789
C49	C	0.487117	-0.510614	-0.510809
C50	C	0.987117	-0.010614	-0.010809
C51	C	0.403783	-0.510617	-0.510823
C52	C	0.903783	-0.010617	-0.010823
C53	C	0.724172	-0.510598	-0.510777
C54	C	1.224172	-0.010598	-0.010777
C55	C	1.063565	-0.786024	-0.510761
C56	C	1.563565	-0.286024	-0.010761
C57	C	1.063616	-0.903854	-0.510786
C58	C	1.563616	-0.403854	-0.010786
C59	C	1.120377	-1.071414	-0.428711
C60	C	1.620377	-0.571414	0.071289
C61	C	1.120562	-0.948854	-0.428912
C62	C	1.620562	-0.448854	0.071088
C63	C	1.084651	-0.948223	-0.622531
C64	C	1.584651	-0.448223	-0.122531
C65	C	1.085102	-1.070821	-0.622095
C66	C	1.585102	-0.570821	-0.122095
C67	C	0.985799	-1.071186	-0.482217
C68	C	1.485799	-0.571186	0.017783
C69	C	0.986171	-0.948582	-0.479711
C70	C	1.486171	-0.448582	0.020289
C71	C	1.255555	-0.510614	-0.510817
C72	C	1.755555	-0.010614	-0.010817
C73	C	1.337353	-0.510622	-0.510830
C74	C	1.837353	-0.010622	-0.010830
C75	C	1.063657	-0.510479	-0.787291
C76	C	1.563657	-0.010479	-0.287291
C77	C	1.063680	-0.510430	-0.905122
C78	C	1.563680	-0.010430	-0.405122
C79	C	1.063659	-0.234089	-0.510834
C80	C	1.563659	0.265911	-0.010834
C81	C	1.063683	-0.116259	-0.510855
C82	C	1.563683	0.383741	-0.010855
C83	C	1.120787	-0.428756	-1.072709
C84	C	1.620787	0.071244	-0.572709
C85	C	1.120604	-0.428461	-0.950149
C86	C	1.620604	0.071539	-0.450149
C87	C	0.986148	-0.480073	-0.949601
C88	C	1.486148	0.019927	-0.449601
C89	C	0.986494	-0.479453	-1.072199
C90	C	1.486494	0.020547	-0.572199
C91	C	1.083477	-0.622581	-1.072315
C92	C	1.583477	-0.122581	-0.572315
C93	C	1.085174	-0.622017	-0.949710
C94	C	1.585174	-0.122017	-0.449710
C95	C	1.063589	-0.510633	-0.235356
C96	C	1.563589	-0.010633	0.264644
C97	C	1.063708	-0.510383	-0.117527
C98	C	1.563708	-0.010383	0.382473
H99	H	0.494291	-0.633746	-0.633603
H100	H	0.994291	-0.133746	-0.133603
C101	C	0.964737	-0.909409	-0.368622
C102	C	1.464737	-0.409409	0.131378
N103	N	0.948594	-0.879894	-0.284951
N104	N	1.448594	-0.379894	0.215049
H105	H	0.633718	-0.633742	-0.633581
H106	H	1.133718	-0.133742	-0.133581
C107	C	1.033087	-0.708603	-0.908308
C108	C	1.533087	-0.208603	-0.408308
N109	N	0.993849	-0.773817	-0.877126
N110	N	1.493849	-0.273817	-0.377126
H111	H	0.943557	-1.100187	-0.542046
H112	H	1.443557	-0.600187	-0.042046
H113	H	1.142231	-0.644908	-0.920638
H114	H	1.642231	-0.144908	-0.420638
C115	C	1.102755	-0.908332	-0.316984
C116	C	1.602755	-0.408332	0.183016
N117	N	1.089335	-0.877816	-0.232678
N118	N	1.589335	-0.377816	0.267322
H119	H	1.142031	-1.099330	-0.646353
H120	H	1.642031	-0.599330	-0.146353
H121	H	1.044615	-0.919070	-0.685374
H122	H	1.544615	-0.419070	-0.185374
H123	H	0.494225	-0.387472	-0.388022
H124	H	0.994225	0.112528	0.111978
C125	C	1.102826	-1.111363	-0.316446
C126	C	1.602826	-0.611363	0.183554
N127	N	1.089605	-1.141458	-0.231884
N128	N	1.589605	-0.641458	0.268116
C129	C	1.198280	-0.454097	-0.909522
C130	C	1.698280	0.045903	-0.409522
N131	N	1.256792	-0.473392	-0.878926
N132	N	1.756792	0.026608	-0.378926
H133	H	0.941651	-0.917962	-0.535153
H134	H	1.441651	-0.417962	-0.035153
C135	C	1.198716	-0.454120	-1.112543
C136	C	1.698716	0.045880	-0.612543
N137	N	1.257416	-0.473230	-1.142548
N138	N	1.757416	0.026770	-0.642548
C139	C	0.927126	-0.557916	-0.910186
C140	C	1.427126	-0.057916	-0.410186
N141	N	0.882672	-0.616546	-0.880494
N142	N	1.382672	-0.116546	-0.380494
C143	C	0.963099	-0.370501	-0.908156
C144	C	1.463099	0.129499	-0.408156
N145	N	0.945744	-0.287967	-0.876943
N146	N	1.445744	0.212033	-0.376943
C147	C	0.644647	-0.368057	-0.368652
C148	C	1.144647	0.131943	0.131348
N149	N	0.676473	-0.311817	-0.312571
N150	N	1.176473	0.188183	0.187429
C151	C	1.103329	-0.317090	-1.114348
C152	C	1.603329	0.182910	-0.614348
N153	N	1.090178	-0.232984	-1.145711
N154	N	1.590178	0.267016	-0.645711
C155	C	1.197889	-1.112944	-0.453997
C156	C	1.697889	-0.612944	0.046003
N157	N	1.256269	-1.144234	-0.473039
N158	N	1.756269	-0.644234	0.026961
H159	H	1.041908	-0.683403	-1.101306
H160	H	1.541908	-0.183403	-0.601306
C161	C	1.198495	-0.909116	-0.454495
C162	C	1.698495	-0.409116	0.045505
N163	N	1.257198	-0.879187	-0.473764
N164	N	1.757198	-0.379187	0.026236
H165	H	0.969737	-0.397438	-1.100812
H166	H	1.469737	0.102562	-0.600812
C167	C	1.031747	-1.110894	-0.707608
C168	C	1.531747	-0.610894	-0.207608
N169	N	0.991567	-1.141072	-0.772022
N170	N	1.491567	-0.641072	-0.272022
H171	H	1.140938	-0.917431	-0.647193
H172	H	1.640938	-0.417431	-0.147193
H173	H	1.107514	-0.345346	-0.920839
H174	H	1.607514	0.154654	-0.420839
C175	C	0.927082	-0.556272	-1.112252
C176	C	1.427082	-0.056272	-0.612252
N177	N	0.882329	-0.614124	-1.142415
N178	N	1.382329	-0.114124	-0.642415
C179	C	0.959960	-1.113082	-0.374046
C180	C	1.459960	-0.613082	0.125954
N181	N	0.940507	-1.144637	-0.292568
N182	N	1.440507	-0.644637	0.207432
H183	H	1.139026	-0.650218	-1.103300
H184	H	1.639026	-0.150218	-0.603300
