data_functionalizedCrystal
_audit_creation_method	'MofGen! by Chris Wilmer'
_symmetry_space_group_name_H-M	'P1'
_symmetry_Int_Tables_number	1
_symmetry_cell_setting	triclinic
loop_
_symmetry_equiv_pos_as_xyz
  x,y,z
_cell_length_a	14.395555
_cell_length_b	21.606444
_cell_length_c	21.606444
_cell_angle_alpha	60.003167
_cell_angle_beta	90.001685
_cell_angle_gamma	59.998460
loop_
_atom_site_label
_atom_site_type_symbol
_atom_site_fract_x
_atom_site_fract_y
_atom_site_fract_z
Zr1	Zr	0.894906	0.677417	-0.081166
O2	O	0.746577	0.806536	-0.179989
O3	O	0.940378	0.548299	-0.050874
O4	O	0.940381	0.677412	-0.179987
O5	O	0.746571	0.677427	0.050973
O6	O	1.093255	0.677407	-0.179981
O7	O	0.746575	0.677423	-0.050876
O8	O	1.093251	0.446448	0.050978
O9	O	0.746576	0.908387	-0.179986
O10	O	1.073858	0.601404	-0.037947
O11	O	0.959768	0.601410	0.038058
O12	O	0.959770	0.753424	-0.113956
O13	O	0.845680	0.753431	-0.037950
Zr14	Zr	1.138717	0.677417	0.081282
Zr15	Zr	1.138723	0.677410	-0.081157
Zr16	Zr	0.894901	0.677424	0.081273
Zr17	Zr	0.894904	0.839857	-0.081160
Zr18	Zr	1.138720	0.514977	0.081276
O19	O	1.093245	0.806535	0.050990
O20	O	1.093253	0.806525	-0.179977
O21	O	0.746569	0.806546	0.050977
O22	O	1.287046	0.548298	0.180105
O23	O	1.287054	0.548288	-0.050861
O24	O	0.940371	0.548309	0.180093
O25	O	1.287052	0.677407	-0.050857
O26	O	1.093243	0.677422	0.180103
O27	O	0.940369	0.677427	0.180097
O28	O	1.287049	0.677411	0.050992
O29	O	0.940377	0.908381	-0.179979
O30	O	1.093246	0.446453	0.180095
O31	O	1.287048	0.446447	0.180102
O32	O	1.287052	0.446442	0.050985
O33	O	0.746571	0.908392	-0.050869
O34	O	0.940373	0.908386	-0.050862
O35	O	1.073853	0.601410	0.114072
O36	O	1.187944	0.601403	0.038066
O37	O	1.073856	0.753424	-0.037942
O38	O	0.959765	0.753430	0.038063
C39	C	1.016815	0.474229	0.000051
C40	C	1.016816	0.405269	0.000049
C41	C	1.076368	0.372868	-0.039626
C42	C	1.076372	0.308068	-0.039621
C43	C	1.016817	0.275674	0.000055
C44	C	0.957263	0.308078	0.039735
C45	C	0.957267	0.372873	0.039734
C46	C	0.957250	0.046769	0.039742
C47	C	0.957248	-0.018028	0.039738
C48	C	1.076355	-0.018036	-0.039613
C49	C	1.076358	0.046758	-0.039614
C50	C	1.016810	0.079153	0.000068
C51	C	1.016808	0.149416	0.000064
C52	C	1.016811	0.205418	0.000056
C53	C	0.711834	0.677426	0.000047
C54	C	0.608328	0.677429	0.000044
C55	C	0.485533	0.760317	-0.041393
C56	C	0.454699	0.718879	-0.071426
C57	C	0.454739	0.718864	0.030071
C58	C	0.578858	0.635991	-0.030031
C59	C	0.578893	0.635987	0.071505
C60	C	0.548133	0.594489	0.041490
C61	C	1.321789	0.677408	0.000069
C62	C	1.425296	0.677405	0.000072
C63	C	1.016819	0.677408	-0.203128
C64	C	1.016821	0.677405	-0.272087
C65	C	1.016809	0.880605	0.000065
C66	C	1.016807	0.949565	0.000067
C67	C	0.957253	0.756781	-0.735073
C68	C	0.957250	0.756779	-0.670276
C69	C	1.016805	0.677423	-0.598203
C70	C	1.076356	0.598064	-0.590928
C71	C	1.076351	0.598068	-0.655725
C72	C	1.076375	0.598049	-0.329610
C73	C	1.076378	0.598052	-0.264812
C74	C	0.957274	0.756760	-0.344161
C75	C	0.957269	0.756764	-0.408958
C76	C	1.016815	0.677406	-0.401677
C77	C	1.016816	0.677409	-0.471938
C78	C	1.016812	0.677418	-0.527942
C79	C	1.016805	0.677426	0.203244
C80	C	1.016802	0.677429	0.272203
C81	C	1.321792	0.474220	0.000062
C82	C	1.425300	0.405257	0.000064
C83	C	1.016808	0.474238	0.203237
C84	C	1.016807	0.405280	0.272194
C85	C	1.321785	0.474229	0.203248
C86	C	1.425291	0.405268	0.272209
C87	C	0.711838	0.880605	-0.203132
C88	C	0.608333	0.949566	-0.272093
C89	C	0.711831	0.880614	0.000054
C90	C	0.608324	0.949577	0.000052
C91	C	1.016815	0.880596	-0.203121
C92	C	1.016817	0.949553	-0.272078
C93	C	1.414357	0.372871	-0.039621
C94	C	1.511604	0.308081	-0.039634
C95	C	1.619793	0.275675	0.000041
C96	C	1.630734	0.308067	0.039726
C97	C	1.533488	0.372859	0.039735
C98	C	1.076358	0.372897	0.344263
C99	C	1.076352	0.308114	0.409061
C100	C	1.016802	0.275710	0.401790
C101	C	0.957244	0.308100	0.329715
C102	C	0.957243	0.372886	0.264918
C103	C	1.533462	0.372880	0.264920
C104	C	1.630726	0.308094	0.329710
C105	C	1.619815	0.275692	0.401788
C106	C	1.511632	0.308086	0.409076
C107	C	1.414371	0.372876	0.344287
C108	C	0.500161	0.981962	-0.264804
C109	C	0.402898	1.046768	-0.329594
C110	C	0.413808	1.079173	-0.401672
C111	C	0.521991	1.046775	-0.408960
C112	C	0.619252	0.981974	-0.344171
C113	C	0.619267	0.981970	0.039730
C114	C	0.522020	1.046777	0.039726
C115	C	0.413831	1.079186	0.000048
C116	C	0.402890	1.046791	-0.039634
C117	C	0.500136	0.981989	-0.039634
C118	C	1.076379	0.981937	-0.264783
C119	C	1.076402	1.046721	-0.329570
C120	C	1.016856	1.079125	-0.401651
C121	C	0.957292	1.046735	-0.408944
C122	C	0.957276	0.981948	-0.344159
H123	H	0.908767	0.073134	0.072057
O124	O	1.297699	0.407789	0.352152
H125	H	1.306465	0.374358	0.413159
H126	H	1.542368	0.399252	0.206236
O127	O	0.488369	0.947020	-0.187069
H128	H	0.574166	0.896509	-0.143232
O129	O	1.545296	0.407775	0.082553
H130	H	1.636867	0.374342	0.110145
H131	H	0.908769	0.955589	-0.350109
O132	O	0.451837	0.853157	-0.087877
H133	H	0.485862	0.864345	-0.051309
O134	O	1.140586	0.407844	0.352114
H135	H	1.181978	0.374441	0.413118
H136	H	1.718835	0.281672	0.072028
O137	O	1.016863	1.149015	-0.471522
H138	H	1.105549	1.124144	-0.471469
H139	H	0.632218	0.600982	-0.055484
H140	H	1.124858	0.399242	-0.071939
H141	H	1.124849	0.073134	-0.071925
O142	O	1.499879	0.273119	0.486822
H143	H	1.541352	0.285542	0.518247
H144	H	0.314820	1.073136	-0.323645
H145	H	1.124847	-0.044422	-0.071923
H146	H	0.908753	0.399244	0.206239
O147	O	0.286193	1.081755	-0.082427
H148	H	0.276288	1.027372	-0.059503
O149	O	1.140613	0.273172	0.486795
H150	H	1.182040	0.306578	0.480958
O151	O	0.308891	1.149070	-0.471544
H152	H	0.308933	1.124217	-0.505770
H153	H	0.908762	0.821402	-0.793755
O154	O	0.582096	0.501578	0.087913
H155	H	0.632690	0.467386	0.062836
H156	H	0.908759	0.281707	0.323806
O157	O	0.893031	0.842355	-0.352009
H158	H	0.927455	0.880402	-0.383461
O159	O	0.533754	1.081723	-0.486703
H160	H	0.447942	1.132216	-0.530523
H161	H	0.401183	0.753909	-0.131849
H162	H	1.718804	0.281725	0.323762
O163	O	1.140649	1.081647	-0.321693
H164	H	1.106214	1.111177	-0.290240
O165	O	1.724722	0.205802	0.471666
H166	H	1.801770	0.188721	0.454481
H167	H	0.632406	0.600987	0.131915
H168	H	0.908779	0.281694	0.072045
O169	O	0.735910	0.947059	-0.352058
H170	H	0.783066	0.959505	-0.324448
H171	H	0.491209	0.955617	-0.071942
H172	H	0.908812	1.073129	-0.467641
O173	O	0.735951	0.947034	0.082515
H174	H	0.727204	0.980466	0.110090
O175	O	0.533832	1.081700	0.082539
H176	H	0.625402	1.048260	0.110140
H177	H	0.334656	1.131952	0.000054
H178	H	0.908770	0.399255	0.072040
O179	O	0.892987	-0.052954	0.082517
H180	H	0.851577	-0.019542	0.110109
H181	H	1.124840	0.533451	-0.649795
H182	H	1.124864	0.281686	-0.071927
O183	O	0.893025	0.842367	-0.678124
H184	H	0.827194	0.846169	-0.650511
H185	H	1.124868	0.955563	-0.206097
O186	O	0.383859	0.765286	0.063695
H187	H	0.425565	0.788964	0.079937
O188	O	0.893041	0.842352	-0.486695
H189	H	0.801508	0.880403	-0.493289
O190	O	1.140601	0.512458	-0.187070
H191	H	1.181996	0.457275	-0.192893
O192	O	1.016834	0.205818	0.471686
H193	H	0.979585	0.230688	0.505904
O194	O	1.140666	0.512446	-0.321732
H195	H	1.106296	0.474365	-0.290253
O196	O	1.140667	0.512469	-0.513195
H197	H	1.130705	0.525797	-0.469359
H198	H	1.326272	0.399256	-0.071938
H199	H	1.698968	0.222916	0.000028
O200	O	1.499791	0.273144	-0.082433
H201	H	1.408221	0.306555	-0.110005
