data_functionalizedCrystal
_audit_creation_method	'MofGen! by Chris Wilmer'
_symmetry_space_group_name_H-M	'P1'
_symmetry_Int_Tables_number	1
_symmetry_cell_setting	triclinic
loop_
_symmetry_equiv_pos_as_xyz
  x,y,z
_cell_length_a	18.215407
_cell_length_b	13.897448
_cell_length_c	18.215399
_cell_angle_alpha	89.973672
_cell_angle_beta	89.980167
_cell_angle_gamma	90.018140
loop_
_atom_site_label
_atom_site_type_symbol
_atom_site_fract_x
_atom_site_fract_y
_atom_site_fract_z
Zn1	Zn	1.125109	-0.384013	-0.416124
Zn2	Zn	1.375109	-0.134013	-0.166124
Zn3	Zn	1.625109	0.115987	0.083876
Zn4	Zn	1.875109	0.365987	0.333876
Zn5	Zn	1.125033	-0.545323	-0.293061
Zn6	Zn	1.375033	-0.295323	-0.043061
Zn7	Zn	1.625033	-0.045323	0.206939
Zn8	Zn	1.875033	0.204677	0.456939
Zn9	Zn	1.002041	-0.384045	-0.293072
Zn10	Zn	1.252041	-0.134045	-0.043072
Zn11	Zn	1.502041	0.115955	0.206928
Zn12	Zn	1.752041	0.365955	0.456928
Zn13	Zn	1.002023	-0.545269	-0.416086
Zn14	Zn	1.252023	-0.295269	-0.166086
Zn15	Zn	1.502023	-0.045269	0.083914
Zn16	Zn	1.752023	0.204731	0.333914
O17	O	1.063551	-0.464663	-0.354586
O18	O	1.313551	-0.214663	-0.104586
O19	O	1.563551	0.035337	0.145414
O20	O	1.813551	0.285337	0.395414
O21	O	1.228083	-0.405421	-0.399811
O22	O	1.478083	-0.155421	-0.149811
O23	O	1.728083	0.094579	0.100189
O24	O	1.978083	0.344579	0.350189
O25	O	1.108693	-0.523965	-0.190078
O26	O	1.358693	-0.273965	0.059922
O27	O	1.608693	-0.023965	0.309922
O28	O	1.858693	0.226035	0.559922
O29	O	1.018406	-0.249059	-0.309415
O30	O	1.268406	0.000941	-0.059415
O31	O	1.518406	0.250941	0.190585
O32	O	1.768406	0.500941	0.440585
O33	O	1.228027	-0.523934	-0.309398
O34	O	1.478027	-0.273934	-0.059398
O35	O	1.728027	-0.023934	0.190602
O36	O	1.978027	0.226066	0.440602
O37	O	1.108823	-0.249036	-0.399821
O38	O	1.358823	0.000964	-0.149821
O39	O	1.608823	0.250964	0.100179
O40	O	1.858823	0.500964	0.350179
O41	O	1.018332	-0.405474	-0.190086
O42	O	1.268332	-0.155474	0.059914
O43	O	1.518332	0.094526	0.309914
O44	O	1.768332	0.344526	0.559914
O45	O	0.899055	-0.405422	-0.309378
O46	O	1.149055	-0.155422	-0.059378
O47	O	1.399055	0.094578	0.190622
O48	O	1.649055	0.344578	0.440622
O49	O	1.018374	-0.523843	-0.519076
O50	O	1.268374	-0.273843	-0.269076
O51	O	1.518374	-0.023843	-0.019076
O52	O	1.768374	0.226157	0.230924
O53	O	0.899041	-0.523873	-0.399757
O54	O	1.149041	-0.273873	-0.149757
O55	O	1.399041	-0.023873	0.100243
O56	O	1.649041	0.226127	0.350243
O57	O	1.108805	-0.405369	-0.519103
O58	O	1.358805	-0.155369	-0.269103
O59	O	1.608805	0.094631	-0.019103
O60	O	1.858805	0.344631	0.230897
O61	O	1.108675	-0.680297	-0.309361
O62	O	1.358675	-0.430297	-0.059361
O63	O	1.608675	-0.180297	0.190639
O64	O	1.858675	0.069703	0.440639
O65	O	1.018300	-0.680258	-0.399747
O66	O	1.268300	-0.430258	-0.149747
O67	O	1.518300	-0.180258	0.100253
O68	O	1.768300	0.069742	0.350253
C69	C	0.872345	-0.464646	-0.354565
C70	C	1.122345	-0.214646	-0.104565
C71	C	1.372345	0.035354	0.145435
C72	C	1.622345	0.285354	0.395435
C73	C	0.790546	-0.464662	-0.354573
C74	C	1.040546	-0.214662	-0.104573
C75	C	1.290546	0.035338	0.145427
C76	C	1.540546	0.285338	0.395427
C77	C	0.602364	-0.526437	-0.401574
C78	C	0.852364	-0.276437	-0.151574
C79	C	1.102364	-0.026437	0.098426
C80	C	1.352364	0.223563	0.348426
C81	C	0.525506	-0.526440	-0.401583
C82	C	0.775506	-0.276440	-0.151583
C83	C	1.025506	-0.026440	0.098417
C84	C	1.275506	0.223560	0.348417
C85	C	0.525490	-0.402906	-0.307614
C86	C	0.775490	-0.152906	-0.057614
C87	C	1.025490	0.097094	0.192386
C88	C	1.275490	0.347094	0.442386
C89	C	0.602348	-0.402899	-0.307609
C90	C	0.852348	-0.152899	-0.057609
C91	C	1.102348	0.097101	0.192391
C92	C	1.352348	0.347101	0.442391
C93	C	0.640783	-0.464670	-0.354588
C94	C	0.890783	-0.214670	-0.104588
C95	C	1.140783	0.035330	0.145412
C96	C	1.390783	0.285330	0.395412
C97	C	0.487067	-0.464680	-0.354602
C98	C	0.737067	-0.214680	-0.104602
C99	C	0.987067	0.035320	0.145398
C100	C	1.237067	0.285320	0.395398
C101	C	0.403733	-0.464683	-0.354612
C102	C	0.653733	-0.214683	-0.104612
C103	C	0.903733	0.035317	0.145388
C104	C	1.153733	0.285317	0.395388
C105	C	0.724122	-0.464666	-0.354579
C106	C	0.974122	-0.214666	-0.104579
C107	C	1.224122	0.035334	0.145421
C108	C	1.474122	0.285334	0.395421
C109	C	1.063498	-0.715277	-0.354565
C110	C	1.313498	-0.465277	-0.104565
C111	C	1.563498	-0.215277	0.145435
C112	C	1.813498	0.034723	0.395435
C113	C	1.063542	-0.822491	-0.354580
C114	C	1.313542	-0.572491	-0.104580
C115	C	1.563542	-0.322491	0.145420
C116	C	1.813542	-0.072491	0.395420
C117	C	1.063619	-1.018786	-0.354626
C118	C	1.313619	-0.768786	-0.104626
C119	C	1.563619	-0.518786	0.145374
C120	C	1.813619	-0.268786	0.395374
C121	C	1.063574	-0.909553	-0.354603
C122	C	1.313574	-0.659553	-0.104603
C123	C	1.563574	-0.409553	0.145397
C124	C	1.813574	-0.159553	0.395397
C125	C	1.255504	-0.464680	-0.354607
C126	C	1.505504	-0.214680	-0.104607
C127	C	1.755504	0.035320	0.145393
C128	C	2.005504	0.285320	0.395393
C129	C	1.337303	-0.464687	-0.354617
C130	C	1.587303	-0.214687	-0.104617
C131	C	1.837303	0.035313	0.145383
C132	C	2.087303	0.285313	0.395383
C133	C	1.063596	-0.464596	-0.546539
C134	C	1.313596	-0.214596	-0.296539
C135	C	1.563596	0.035404	-0.046539
C136	C	1.813596	0.285404	0.203461
C137	C	1.063615	-0.464568	-0.628338
C138	C	1.313615	-0.214568	-0.378338
C139	C	1.563615	0.035432	-0.128338
C140	C	1.813615	0.285432	0.121662
C141	C	1.063625	-0.213070	-0.354623
C142	C	1.313625	0.036930	-0.104623
C143	C	1.563625	0.286930	0.145377
C144	C	1.813625	0.536930	0.395377
C145	C	1.063657	-0.105856	-0.354639
C146	C	1.313657	0.144144	-0.104639
C147	C	1.563657	0.394144	0.145361
C148	C	1.813657	0.644144	0.395361
C149	C	1.110720	-0.402821	-0.816547
C150	C	1.360720	-0.152821	-0.566547
C151	C	1.610720	0.097179	-0.316547
C152	C	1.860720	0.347179	-0.066547
C153	C	1.110728	-0.402792	-0.893406
C154	C	1.360728	-0.152792	-0.643406
C155	C	1.610728	0.097208	-0.393406
C156	C	1.860728	0.347208	-0.143406
C157	C	1.016563	-0.526166	-0.893366
C158	C	1.266563	-0.276166	-0.643366
C159	C	1.516563	-0.026166	-0.393366
C160	C	1.766563	0.223834	-0.143366
C161	C	1.016551	-0.526188	-0.816509
C162	C	1.266551	-0.276188	-0.566509
C163	C	1.516551	-0.026188	-0.316509
C164	C	1.766551	0.223812	-0.066509
C165	C	1.063634	-0.464517	-0.778101
C166	C	1.313634	-0.214517	-0.528101
C167	C	1.563634	0.035483	-0.278101
C168	C	1.813634	0.285483	-0.028101
C169	C	1.063654	-0.464466	-0.931818
C170	C	1.313654	-0.214466	-0.681818
C171	C	1.563654	0.035534	-0.431818
C172	C	1.813654	0.285534	-0.181818
C173	C	1.063663	-0.464436	-1.015151
C174	C	1.313663	-0.214436	-0.765151
C175	C	1.563663	0.035564	-0.515151
C176	C	1.813663	0.285564	-0.265151
C177	C	1.063624	-0.464546	-0.694762
C178	C	1.313624	-0.214546	-0.444762
C179	C	1.563624	0.035454	-0.194762
C180	C	1.813624	0.285454	0.055238
C181	C	1.063549	-0.464659	-0.163380
C182	C	1.313549	-0.214659	0.086620
C183	C	1.563549	0.035341	0.336620
C184	C	1.813549	0.285341	0.586620
C185	C	1.063672	-0.464416	-0.081581
C186	C	1.313672	-0.214416	0.168419
C187	C	1.563672	0.035584	0.418419
C188	C	1.813672	0.285584	0.668419
H189	H	0.494229	-0.576735	-0.439845
H190	H	0.744229	-0.326735	-0.189845
H191	H	0.994229	-0.076735	0.060155
H192	H	1.244229	0.173265	0.310155
H193	H	0.494187	-0.352616	-0.269364
H194	H	0.744187	-0.102616	-0.019364
H195	H	0.994187	0.147384	0.230636
H196	H	1.244187	0.397384	0.480636
O197	O	0.965784	-0.592678	-0.934795
O198	O	1.215784	-0.342678	-0.684795
O199	O	1.465784	-0.092678	-0.434795
O200	O	1.715784	0.157322	-0.184795
H201	H	0.978377	-0.668389	-0.920029
H202	H	1.228377	-0.418389	-0.670029
H203	H	1.478377	-0.168389	-0.420029
H204	H	1.728377	0.081611	-0.170029
H205	H	0.633629	-0.352595	-0.269347
H206	H	0.883629	-0.102595	-0.019347
H207	H	1.133629	0.147405	0.230653
H208	H	1.383629	0.397405	0.480653
O209	O	1.161493	-0.336300	-0.775119
O210	O	1.411493	-0.086300	-0.525119
O211	O	1.661493	0.163700	-0.275119
O212	O	1.911493	0.413700	-0.025119
H213	H	1.194231	-0.293388	-0.814768
H214	H	1.444231	-0.043388	-0.564768
H215	H	1.694231	0.206612	-0.314768
H216	H	1.944231	0.456612	-0.064768
H217	H	1.149069	-0.352551	-0.924706
H218	H	1.399069	-0.102551	-0.674706
H219	H	1.649069	0.147449	-0.424706
H220	H	1.899069	0.397449	-0.174706
O221	O	0.965740	-0.592717	-0.775045
O222	O	1.215740	-0.342717	-0.525045
O223	O	1.465740	-0.092717	-0.275045
O224	O	1.715740	0.157283	-0.025045
H225	H	0.978329	-0.668426	-0.789773
H226	H	1.228329	-0.418426	-0.539773
H227	H	1.478329	-0.168426	-0.289773
H228	H	1.728329	0.081574	-0.039773
O229	O	0.643823	-0.593045	-0.452250
O230	O	0.893823	-0.343045	-0.202250
O231	O	1.143823	-0.093045	0.047750
O232	O	1.393823	0.156955	0.297750
H233	H	0.604193	-0.635988	-0.484930
H234	H	0.854193	-0.385988	-0.234930
H235	H	1.104193	-0.135988	0.015070
H236	H	1.354193	0.114012	0.265070
