data_functionalizedCrystal
_audit_creation_method	'MofGen! by Chris Wilmer'
_symmetry_space_group_name_H-M	'P1'
_symmetry_Int_Tables_number	1
_symmetry_cell_setting	triclinic
loop_
_symmetry_equiv_pos_as_xyz
  x,y,z
_cell_length_a	19.288864
_cell_length_b	14.044220
_cell_length_c	18.366186
_cell_angle_alpha	89.993222
_cell_angle_beta	89.977106
_cell_angle_gamma	88.162561
loop_
_atom_site_label
_atom_site_type_symbol
_atom_site_fract_x
_atom_site_fract_y
_atom_site_fract_z
O1	O	0.928948	0.118214	-0.060787
O2	O	0.727712	0.134161	-0.060738
O3	O	0.825310	-0.011784	-0.060755
O4	O	0.831351	0.264160	-0.060770
O5	O	0.825291	-0.011791	0.060345
O6	O	0.727694	0.134154	0.060362
O7	O	0.928930	0.118207	0.060312
Zn8	Zn	0.828309	0.126180	0.079564
Zn9	Zn	0.828333	0.126189	-0.079990
O10	O	0.831332	0.264152	0.060329
C11	C	0.701794	0.133645	-0.000182
C12	C	0.624591	0.132104	-0.000163
C13	C	0.585397	0.217738	-0.000179
C14	C	0.512857	0.216291	-0.000187
C15	C	0.479514	0.129205	-0.000193
C16	C	0.518717	0.043560	-0.000173
C17	C	0.591256	0.045010	-0.000157
C18	C	0.366860	0.060749	-0.042640
C19	C	0.294322	0.059303	-0.042660
C20	C	0.255781	0.124731	-0.000237
C21	C	0.289785	0.191621	0.042196
C22	C	0.362323	0.193071	0.042212
C23	C	0.400858	0.127624	-0.000209
C24	C	0.137930	0.208802	-0.000261
C25	C	0.065389	0.207351	-0.000264
C26	C	0.071251	0.034617	-0.000257
C27	C	0.143790	0.036071	-0.000247
C28	C	0.177126	0.123165	-0.000252
C29	C	0.822656	-0.047091	-0.000204
C30	C	0.814768	-0.152283	-0.000201
C31	C	0.800348	-0.344882	-0.000208
C32	C	0.856291	-0.402755	-0.000224
C33	C	0.848267	-0.509924	-0.000228
C34	C	0.808370	-0.237703	-0.000204
C35	C	0.954848	0.118724	-0.000245
C36	C	1.032051	0.120264	-0.000269
C37	C	0.833986	0.299459	-0.000223
C38	C	0.841874	0.404651	-0.000231
N39	N	0.828297	0.126173	0.188455
N40	N	0.828350	0.126188	-0.188881
C41	C	0.871531	0.061580	0.226548
C42	C	0.871535	0.061575	0.302776
C43	C	0.828313	0.126180	0.340908
C44	C	0.785071	0.190778	0.302806
C45	C	0.785063	0.190774	0.226579
C46	C	0.824562	0.212524	0.461665
C47	C	0.824575	0.212529	0.537890
C48	C	0.828333	0.126192	0.576015
C49	C	0.832093	0.039847	0.537907
C50	C	0.832085	0.039843	0.461681
C51	C	0.828316	0.126191	0.423563
C52	C	0.871574	0.061589	0.696763
C53	C	0.871573	0.061584	0.772993
C54	C	0.785113	0.190795	0.773021
C55	C	0.785110	0.190792	0.696793
C56	C	0.828344	0.126190	0.658669
H57	H	0.612534	0.288658	-0.000185
O58	O	0.913404	-0.001178	0.189373
C59	C	0.959375	0.049181	0.145076
H60	H	0.965478	0.123858	0.168029
H61	H	0.937759	0.054372	0.087398
C62	C	1.023050	-0.095414	0.115401
C63	C	1.030550	-0.003698	0.143597
H64	H	1.066953	-0.128033	0.114486
H65	H	0.992077	-0.129343	0.145243
H66	H	1.005034	-0.091076	0.067339
H67	H	1.048557	-0.008037	0.191661
H68	H	1.061528	0.030230	0.113763
O69	O	0.735973	-0.381628	-0.000223
C70	C	0.685529	-0.306718	-0.000186
H71	H	0.709071	-0.239591	-0.023117
H72	H	0.667060	-0.292705	0.057919
C73	C	0.594656	-0.416943	-0.019493
C74	C	0.623570	-0.334499	-0.047663
H75	H	0.556435	-0.434080	-0.048776
H76	H	0.628640	-0.467413	-0.019515
H77	H	0.579271	-0.405255	0.028927
H78	H	0.638962	-0.346192	-0.096078
H79	H	0.589586	-0.284032	-0.047650
H80	H	0.910212	-0.371814	-0.000286
O81	O	0.913584	-0.001260	0.659837
C82	C	0.951753	-0.058266	0.709809
H83	H	0.923220	-0.059236	0.764160
H84	H	1.005243	-0.027677	0.717887
C85	C	0.994775	-0.159353	0.613310
C86	C	0.959728	-0.160552	0.680064
H87	H	0.999698	-0.222447	0.594961
H88	H	0.969062	-0.120946	0.579642
H89	H	1.039347	-0.133858	0.620051
H90	H	0.915154	-0.186035	0.673321
H91	H	0.985433	-0.198966	0.713730
H92	H	0.835153	-0.030457	0.568947
O93	O	0.913471	-0.001260	0.810030
C94	C	0.872673	-0.059586	0.854162
H95	H	0.817810	-0.061004	0.831219
H96	H	0.870873	-0.029917	0.911931
C97	C	0.972035	-0.159720	0.883503
C98	C	0.904652	-0.161468	0.855321
H99	H	0.991762	-0.222565	0.884222
H100	H	0.999523	-0.120423	0.853773
H101	H	0.970526	-0.134991	0.931642
H102	H	0.906164	-0.186185	0.807180
H103	H	0.877166	-0.200772	0.885043
O104	O	0.743195	0.253679	0.659820
C105	C	0.760285	0.347447	0.678443
H106	H	0.815911	0.347715	0.699367
H107	H	0.723525	0.375416	0.722706
C108	C	0.685145	0.411403	0.585027
C109	C	0.753468	0.411734	0.610721
H110	H	0.680937	0.451060	0.543254
H111	H	0.673629	0.348230	0.572482
H112	H	0.654519	0.434708	0.621920
H113	H	0.784092	0.388418	0.573832
H114	H	0.764989	0.474905	0.623258
H115	H	0.749918	0.243394	0.804067
O116	O	0.395435	0.257908	0.083480
C117	C	0.439005	0.209950	0.134085
H118	H	0.452424	0.135144	0.113263
H119	H	0.411162	0.205102	0.188662
C120	C	0.489598	0.357041	0.169340
C121	C	0.506085	0.265166	0.143763
H122	H	0.530975	0.391102	0.175313
H123	H	0.460243	0.389353	0.135249
H124	H	0.466395	0.352988	0.214818
H125	H	0.529280	0.269220	0.098282
H126	H	0.535446	0.232856	0.177847
H127	H	0.258406	0.244899	0.076742
O128	O	0.835703	-0.044112	0.424775
C129	C	0.839041	-0.120320	0.474763
H130	H	0.816146	-0.095841	0.529112
H131	H	0.895445	-0.144765	0.482839
C132	C	0.825542	-0.233673	0.378290
C133	C	0.797416	-0.203611	0.445041
H134	H	0.799869	-0.285054	0.359956
H135	H	0.823296	-0.182332	0.344612
H136	H	0.872544	-0.254038	0.385029
H137	H	0.750418	-0.183235	0.438299
H138	H	0.799653	-0.254951	0.478718
O139	O	0.820947	0.296484	0.424746
C140	C	0.817625	0.372692	0.474724
H141	H	0.840526	0.348209	0.529054
H142	H	0.761225	0.397148	0.482852
C143	C	0.831121	0.486043	0.378217
C144	C	0.859254	0.455975	0.444944
H145	H	0.856797	0.537418	0.359847
H146	H	0.833357	0.434702	0.344545
H147	H	0.784122	0.506417	0.385000
H148	H	0.906249	0.435590	0.438159
H149	H	0.857027	0.507315	0.478615
H150	H	0.821518	0.282836	0.568912
H151	H	0.906742	0.008974	0.333797
O152	O	0.474878	0.299567	-0.000242
C153	C	0.519856	0.376748	-0.000224
H154	H	0.572439	0.352464	-0.023131
H155	H	0.526630	0.403467	0.057871
C156	C	0.424221	0.487593	-0.019602
C157	C	0.488802	0.457769	-0.047743
H158	H	0.405065	0.537572	-0.048911
H159	H	0.393918	0.435595	-0.019611
H160	H	0.429875	0.509852	0.028810
H161	H	0.483146	0.435499	-0.096150
H162	H	0.519104	0.509764	-0.047743
H163	H	0.491565	-0.027346	-0.000188
O164	O	0.743049	0.253406	0.339925
C165	C	0.697063	0.202804	0.384036
H166	H	0.720132	0.128556	0.395452
H167	H	0.645340	0.196540	0.354690
C168	C	0.657207	0.347481	0.442423
C169	C	0.685542	0.256291	0.456449
H170	H	0.650097	0.380475	0.487090
H171	H	0.688186	0.381574	0.412703
H172	H	0.614107	0.342248	0.417966
H173	H	0.728645	0.261525	0.480897
H174	H	0.654570	0.222200	0.486175
H175	H	0.165073	0.279719	-0.000254
O176	O	0.743046	0.253619	0.189685
C177	C	0.704881	0.310623	0.239683
H178	H	0.733419	0.311597	0.294006
H179	H	0.651392	0.280031	0.247817
C180	C	0.661846	0.411706	0.143205
C181	C	0.696900	0.412908	0.209924
H182	H	0.656919	0.474800	0.124848
H183	H	0.687556	0.373300	0.109520
H184	H	0.617275	0.386209	0.149993
H185	H	0.741472	0.438395	0.203134
H186	H	0.671196	0.451322	0.243608
H187	H	0.033478	0.277088	-0.000273
O188	O	0.629437	-0.038092	-0.000116
C189	C	0.700610	-0.018137	-0.000125
H190	H	0.707987	0.056281	0.022800
H191	H	0.721362	-0.021813	-0.058220
C192	C	0.731298	-0.183304	0.019214
C193	C	0.740358	-0.091905	0.047378
H194	H	0.755818	-0.228809	0.048513
H195	H	0.683347	-0.196749	0.019218
H196	H	0.748591	-0.186354	-0.029198
H197	H	0.723057	-0.088853	0.095785
H198	H	0.788307	-0.078461	0.047383
H199	H	0.175703	-0.033662	-0.000237
O200	O	0.261404	-0.005762	-0.083893
C201	C	0.310974	-0.063195	-0.121338
H202	H	0.362661	-0.062043	-0.091324
H203	H	0.317756	-0.034535	-0.178894
C204	C	0.222659	-0.167619	-0.161900
C205	C	0.286139	-0.166210	-0.125033
H206	H	0.207339	-0.231162	-0.164183
H207	H	0.189262	-0.128923	-0.136676
H208	H	0.228318	-0.143731	-0.209860
H209	H	0.280477	-0.190086	-0.077072
H210	H	0.319535	-0.204912	-0.150250
H211	H	0.044104	-0.036290	-0.000308
H212	H	0.398235	0.007467	-0.077190
