data_functionalizedCrystal
_audit_creation_method	'MofGen! by Chris Wilmer'
_symmetry_space_group_name_H-M	'P1'
_symmetry_Int_Tables_number	1
_symmetry_cell_setting	triclinic
loop_
_symmetry_equiv_pos_as_xyz
  x,y,z
_cell_length_a	13.897449
_cell_length_b	25.639233
_cell_length_c	13.897448
_cell_angle_alpha	90.015038
_cell_angle_beta	89.981028
_cell_angle_gamma	89.987757
loop_
_atom_site_label
_atom_site_type_symbol
_atom_site_fract_x
_atom_site_fract_y
_atom_site_fract_z
Zn1	Zn	1.474622	-0.295617	0.384099
Zn2	Zn	1.807955	0.037716	0.717433
Zn3	Zn	2.141288	0.371049	1.050766
Zn4	Zn	1.474540	-0.208187	0.545377
Zn5	Zn	1.807873	0.125146	0.878711
Zn6	Zn	2.141206	0.458479	1.212044
Zn7	Zn	1.313335	-0.208197	0.384101
Zn8	Zn	1.646668	0.125137	0.717435
Zn9	Zn	1.980001	0.458470	1.050768
Zn10	Zn	1.313293	-0.295592	0.545358
Zn11	Zn	1.646626	0.037741	0.878691
Zn12	Zn	1.979959	0.371074	1.212024
O13	O	1.393947	-0.251898	0.464734
O14	O	1.727281	0.081435	0.798067
O15	O	2.060614	0.414768	1.131401
O16	O	1.609592	-0.284026	0.405501
O17	O	1.942926	0.049307	0.738834
O18	O	2.276259	0.382641	1.072167
O19	O	1.453139	-0.135023	0.523993
O20	O	1.786472	0.198310	0.857326
O21	O	2.119805	0.531643	1.190659
O22	O	1.334782	-0.219807	0.249120
O23	O	1.668115	0.113526	0.582453
O24	O	2.001449	0.446859	0.915786
O25	O	1.609532	-0.219792	0.523991
O26	O	1.942865	0.113542	0.857324
O27	O	2.276199	0.446875	1.190657
O28	O	1.453279	-0.284035	0.249118
O29	O	1.786612	0.049298	0.582451
O30	O	2.119945	0.382632	0.915785
O31	O	1.334702	-0.135030	0.405504
O32	O	1.668036	0.198303	0.738837
O33	O	2.001369	0.531637	1.072171
O34	O	1.178348	-0.219783	0.405485
O35	O	1.511681	0.113550	0.738818
O36	O	1.845014	0.446883	1.072152
O37	O	1.334710	-0.368761	0.523957
O38	O	1.668043	-0.035428	0.857291
O39	O	2.001377	0.297906	1.190624
O40	O	1.178317	-0.283993	0.523959
O41	O	1.511650	0.049341	0.857293
O42	O	1.844983	0.382674	1.190626
O43	O	1.453238	-0.368779	0.405482
O44	O	1.786571	-0.035446	0.738815
O45	O	2.119904	0.297887	1.072148
O46	O	1.453098	-0.219768	0.680356
O47	O	1.786431	0.113566	1.013690
O48	O	2.119765	0.446899	1.347023
O49	O	1.334630	-0.283984	0.680342
O50	O	1.667964	0.049350	1.013675
O51	O	2.001297	0.382683	1.347009
C52	C	1.143333	-0.251886	0.464721
C53	C	1.476666	0.081447	0.798054
C54	C	1.810000	0.414780	1.131388
C55	C	1.036119	-0.251894	0.464739
C56	C	1.369452	0.081440	0.798072
C57	C	1.702786	0.414773	1.131405
C58	C	0.839824	-0.251907	0.464742
C59	C	1.173157	0.081426	0.798076
C60	C	1.506490	0.414759	1.131409
C61	C	0.949056	-0.251898	0.464737
C62	C	1.282390	0.081435	0.798071
C63	C	1.615723	0.414768	1.131404
C64	C	1.393978	-0.388271	0.464717
C65	C	1.727312	-0.054938	0.798050
C66	C	2.060645	0.278395	1.131384
C67	C	1.393992	-0.446386	0.464710
C68	C	1.727325	-0.113052	0.798043
C69	C	2.060658	0.220281	1.131376
C70	C	1.455787	-0.806764	0.402836
C71	C	1.789121	-0.473431	0.736169
C72	C	2.122454	-0.140097	1.069503
C73	C	1.455799	-0.861368	0.402810
C74	C	1.789132	-0.528035	0.736143
C75	C	2.122466	-0.194702	1.069476
O76	O	1.508262	-0.889618	0.350316
O77	O	1.841595	-0.556285	0.683649
O78	O	2.174929	-0.222951	1.016983
N79	N	1.394098	-0.888668	0.464484
N80	N	1.727431	-0.555335	0.797817
N81	N	2.060764	-0.222002	1.131150
C82	C	1.332374	-0.861361	0.526182
C83	C	1.665707	-0.528028	0.859515
C84	C	1.999040	-0.194694	1.192848
O85	O	1.279892	-0.889596	0.578637
O86	O	1.613226	-0.556262	0.911970
O87	O	1.946559	-0.222929	1.245304
C88	C	1.332358	-0.806758	0.526203
C89	C	1.665691	-0.473424	0.859536
C90	C	1.999024	-0.140091	1.192869
C91	C	1.394070	-0.779461	0.464531
C92	C	1.727403	-0.446127	0.797865
C93	C	2.060737	-0.112794	1.131198
C94	C	1.517494	-0.779467	0.341169
C95	C	1.850827	-0.446133	0.674502
C96	C	2.184160	-0.112800	1.007836
C97	C	1.517483	-0.724866	0.341197
C98	C	1.850816	-0.391533	0.674531
C99	C	2.184149	-0.058200	1.007864
C100	C	1.455765	-0.697563	0.402893
C101	C	1.789099	-0.364229	0.736226
C102	C	2.122432	-0.030896	1.069559
C103	C	1.394059	-0.724860	0.464560
C104	C	1.727392	-0.391527	0.797893
C105	C	2.060726	-0.058193	1.131226
C106	C	1.270629	-0.779451	0.587895
C107	C	1.603963	-0.446118	0.921228
C108	C	1.937296	-0.112785	1.254562
C109	C	1.270618	-0.724844	0.587910
C110	C	1.603951	-0.391511	0.921244
C111	C	1.937285	-0.058178	1.254577
C112	C	1.332330	-0.697547	0.526239
C113	C	1.665664	-0.364214	0.859572
C114	C	1.998997	-0.030881	1.192906
C115	C	1.332331	-0.642956	0.526283
C116	C	1.665664	-0.309623	0.859616
C117	C	1.998997	0.023711	1.192950
N118	N	1.394032	-0.615656	0.464609
N119	N	1.727365	-0.282323	0.797942
N120	N	2.060699	0.051011	1.131276
C121	C	1.455749	-0.642959	0.402914
C122	C	1.789083	-0.309626	0.736247
C123	C	2.122416	0.023707	1.069580
C124	C	1.332411	-0.976032	0.526131
C125	C	1.665744	-0.642698	0.859465
C126	C	1.999078	-0.309365	1.192798
C127	C	1.332431	-1.030634	0.526116
C128	C	1.665764	-0.697301	0.859449
C129	C	1.999098	-0.363967	1.192783
C130	C	1.455856	-1.030638	0.402742
C131	C	1.789189	-0.697304	0.736076
C132	C	2.122522	-0.363971	1.069409
C133	C	1.455839	-0.976034	0.402763
C134	C	1.789173	-0.642701	0.736097
C135	C	2.122506	-0.309367	1.069430
C136	C	1.394112	-0.948732	0.464457
C137	C	1.727446	-0.615398	0.797791
C138	C	2.060779	-0.282065	1.131124
C139	C	1.455722	-0.528294	0.402978
C140	C	1.789056	-0.194961	0.736311
C141	C	2.122389	0.138372	1.069645
C142	C	1.455709	-0.473689	0.403015
C143	C	1.789042	-0.140356	0.736348
C144	C	2.122376	0.192978	1.069681
C145	C	1.332281	-0.473690	0.526384
C146	C	1.665615	-0.140357	0.859718
C147	C	1.998948	0.192976	1.193051
C148	C	1.332298	-0.528291	0.526352
C149	C	1.665631	-0.194957	0.859685
C150	C	1.998965	0.138376	1.193018
C151	C	1.394022	-0.555592	0.464641
C152	C	1.727355	-0.222258	0.797974
C153	C	2.060688	0.111075	1.131308
O154	O	1.279892	-0.614672	0.578747
O155	O	1.613225	-0.281338	0.912080
O156	O	1.946558	0.051995	1.245414
O157	O	1.508213	-0.614718	0.350458
O158	O	1.841546	-0.281385	0.683791
O159	O	2.174880	0.051949	1.017125
C160	C	1.645540	-0.251911	0.464748
C161	C	1.978873	0.081423	0.798081
C162	C	2.312207	0.414756	1.131414
C163	C	1.752754	-0.251916	0.464753
C164	C	2.086087	0.081417	0.798087
C165	C	2.419421	0.414751	1.131420
C166	C	1.393877	-0.251883	0.715348
C167	C	1.727210	0.081450	1.048682
C168	C	2.060543	0.414783	1.382015
C169	C	1.393935	-0.251894	0.822562
C170	C	1.727268	0.081439	1.155896
C171	C	2.060602	0.414772	1.489229
C172	C	1.393972	-0.116056	0.464681
C173	C	1.727305	0.217277	0.798015
C174	C	2.060638	0.550611	1.131348
C175	C	1.394145	-0.057942	0.464417
C176	C	1.727479	0.275391	0.797750
C177	C	2.060812	0.608725	1.131083
C178	C	1.394044	-0.251925	0.213141
C179	C	1.727377	0.081408	0.546474
C180	C	2.060711	0.414742	0.879808
C181	C	1.394085	-0.251936	0.105927
C182	C	1.727419	0.081397	0.439260
C183	C	2.060752	0.414730	0.772594
C184	C	1.394036	-0.251927	1.018857
C185	C	1.727370	0.081406	1.352191
C186	C	2.060703	0.414740	1.685524
C187	C	1.393977	-0.251910	0.909625
C188	C	1.727311	0.081423	1.242958
C189	C	2.060644	0.414756	1.576291
H190	H	1.505981	-0.550516	0.352724
H191	H	1.839314	-0.217183	0.686057
H192	H	2.172647	0.116151	1.019391
H193	H	1.567734	-0.702646	0.290976
H194	H	1.901067	-0.369312	0.624310
H195	H	2.234400	-0.035979	0.957643
H196	H	1.506107	-1.052878	0.352504
H197	H	1.839440	-0.719544	0.685838
H198	H	2.172774	-0.386211	1.019171
N199	N	1.269401	-1.058506	0.589131
N200	N	1.602734	-0.725172	0.922465
N201	N	1.936068	-0.391839	1.255798
N202	N	1.214307	-1.034115	0.644211
N203	N	1.547640	-0.700781	0.977545
N204	N	1.880973	-0.367448	1.310878
H205	H	1.169785	-1.053797	0.688716
H206	H	1.503119	-0.720464	1.022049
H207	H	1.836452	-0.387130	1.355382
H208	H	1.220376	-0.801667	0.638114
H209	H	1.553710	-0.468334	0.971448
H210	H	1.887043	-0.135001	1.304781
H211	H	1.567752	-0.801691	0.290924
H212	H	1.901085	-0.468358	0.624257
H213	H	2.234418	-0.135025	0.957591
H214	H	1.506089	-0.953812	0.352543
H215	H	1.839423	-0.620479	0.685877
H216	H	2.172756	-0.287146	1.019210
H217	H	1.282144	-0.953805	0.576375
H218	H	1.615477	-0.620472	0.909708
H219	H	1.948811	-0.287139	1.243042
N220	N	1.207551	-0.696965	0.650931
N221	N	1.540884	-0.363631	0.984265
N222	N	1.874218	-0.030298	1.317598
N223	N	1.152459	-0.721348	0.705982
N224	N	1.485792	-0.388015	1.039316
N225	N	1.819125	-0.054681	1.372649
H226	H	1.107918	-0.701659	0.750492
H227	H	1.441251	-0.368326	1.083825
H228	H	1.774584	-0.034993	1.417159
N229	N	1.269239	-0.556169	0.589335
N230	N	1.602573	-0.222836	0.922668
N231	N	1.935906	0.110497	1.256001
N232	N	1.214125	-0.531782	0.644400
N233	N	1.547458	-0.198449	0.977733
N234	N	1.880791	0.134885	1.311067
H235	H	1.169571	-0.551467	0.688868
H236	H	1.502905	-0.218134	1.022201
H237	H	1.836238	0.115199	1.355534
H238	H	1.282036	-0.451450	0.576618
H239	H	1.615369	-0.118117	0.909951
H240	H	1.948702	0.215217	1.243284
H241	H	1.505966	-0.451466	0.352794
H242	H	1.839299	-0.118133	0.686127
H243	H	2.172633	0.215201	1.019460
