data_functionalizedCrystal
_audit_creation_method	'MofGen! by Chris Wilmer'
_symmetry_space_group_name_H-M	'P1'
_symmetry_Int_Tables_number	1
_symmetry_cell_setting	triclinic
loop_
_symmetry_equiv_pos_as_xyz
  x,y,z
_cell_length_a	11.792254
_cell_length_b	16.974897
_cell_length_c	16.053802
_cell_angle_alpha	83.774775
_cell_angle_beta	87.412233
_cell_angle_gamma	96.200685
loop_
_atom_site_label
_atom_site_type_symbol
_atom_site_fract_x
_atom_site_fract_y
_atom_site_fract_z
O1	O	-0.135041	1.056478	-0.140730
O2	O	-0.154521	0.825610	-0.125148
O3	O	0.020472	0.946642	-0.133321
O4	O	-0.310035	0.935447	-0.132557
O5	O	0.010880	0.939980	0.005988
O6	O	-0.164114	0.818948	0.014161
O7	O	-0.144634	1.049816	-0.001421
Zn8	Zn	-0.155897	0.933324	0.028488
Zn9	Zn	-0.143258	0.942102	-0.155057
O10	O	-0.319627	0.928785	0.006751
C11	C	-0.158752	0.792723	-0.053499
C12	C	-0.157053	0.704654	-0.047555
C13	C	-0.151029	0.666903	-0.120694
C14	C	-0.149451	0.584152	-0.115097
C15	C	-0.153889	0.539153	-0.036360
C16	C	-0.159917	0.576909	0.036784
C17	C	-0.161503	0.659659	0.031186
C18	C	-0.149715	0.291278	-0.011475
C19	C	-0.148126	0.208523	-0.005883
C20	C	-0.137662	0.215772	-0.157764
C21	C	-0.139241	0.298523	-0.163355
C22	C	-0.145275	0.336272	-0.090211
N23	N	-0.152273	0.454567	-0.030637
N24	N	-0.146899	0.420855	-0.095935
C25	C	-0.357111	0.932821	-0.062950
C26	C	-0.483093	0.934931	-0.063089
C27	C	-0.585403	0.936647	-0.063210
C28	C	-0.713757	0.938792	-0.063364
C29	C	0.057956	0.942606	-0.063622
C30	C	0.183938	0.940495	-0.063487
C31	C	-0.140403	1.082704	-0.073072
C32	C	-0.142102	1.170772	-0.079022
N33	N	-0.164522	0.927340	0.153752
N34	N	-0.134624	0.948093	-0.280322
C35	C	-0.090088	0.978858	0.193968
C36	C	-0.096132	0.974679	0.281656
C37	C	-0.176616	0.918985	0.329128
C38	C	-0.251053	0.867462	0.288908
C39	C	-0.245003	0.871637	0.201220
C40	C	-0.203011	0.900745	0.591770
C41	C	-0.209058	0.896575	0.679463
C42	C	-0.054135	1.003792	0.672206
C43	C	-0.048096	1.007966	0.584517
C44	C	-0.122529	0.956439	0.544304
N45	N	-0.182798	0.914714	0.418761
N46	N	-0.116341	0.960707	0.454673
H47	H	-0.144546	0.553419	-0.174654
H48	H	0.006466	1.045741	0.704955
H49	H	-0.135619	0.335157	-0.227471
C50	C	-0.131035	0.174241	-0.238217
N51	N	-0.126048	0.142959	-0.298818
H52	H	-0.151772	0.171884	0.058237
H53	H	-0.163538	0.540264	0.100893
H54	H	0.017440	1.053316	0.545867
C55	C	-0.156340	0.332792	0.068986
N56	N	-0.161326	0.364063	0.129594
H57	H	-0.274603	0.851220	0.718111
C58	C	-0.285037	0.844167	0.547540
N59	N	-0.346876	0.801588	0.514221
C60	C	-0.146144	0.716395	-0.207311
N61	N	-0.142469	0.753670	-0.272554
H62	H	-0.166414	0.690394	0.090744
C63	C	-0.001548	1.040126	0.141756
N64	N	0.065147	1.086272	0.102433
C65	C	-0.339576	0.806190	0.341131
N66	N	-0.406253	0.760039	0.380464
H67	H	-0.035521	1.016629	0.314399
C68	C	-0.326895	0.814969	0.156984
N69	N	-0.388580	0.772286	0.123667
