data_functionalizedCrystal
_audit_creation_method	'MofGen! by Chris Wilmer'
_symmetry_space_group_name_H-M	'P1'
_symmetry_Int_Tables_number	1
_symmetry_cell_setting	triclinic
loop_
_symmetry_equiv_pos_as_xyz
  x,y,z
_cell_length_a	11.026607
_cell_length_b	14.044220
_cell_length_c	10.065875
_cell_angle_alpha	99.592716
_cell_angle_beta	79.302338
_cell_angle_gamma	100.887447
loop_
_atom_site_label
_atom_site_type_symbol
_atom_site_fract_x
_atom_site_fract_y
_atom_site_fract_z
O1	O	1.670494	0.393284	-0.113515
O2	O	1.312203	0.347236	-0.113514
O3	O	1.485969	0.231359	-0.113501
O4	O	1.496729	0.509161	-0.113528
O5	O	1.452846	0.253569	0.113485
O6	O	1.279081	0.369446	0.113472
O7	O	1.637372	0.415494	0.113471
Zn8	Zn	1.452967	0.395996	0.149510
Zn9	Zn	1.496608	0.366734	-0.149554
O10	O	1.463606	0.531371	0.113458
C11	C	1.249512	0.349846	-0.000021
C12	C	1.112056	0.324521	-0.000020
C13	C	1.045821	0.394445	-0.000028
C14	C	0.903753	0.368273	-0.000027
C15	C	1.464699	0.206346	-0.000008
C16	C	1.450655	0.098724	-0.000006
C17	C	1.424983	-0.098320	-0.000025
C18	C	1.524588	-0.138958	-0.000030
C19	C	1.510304	-0.248600	-0.000041
C20	C	1.439265	0.011332	-0.000015
C21	C	1.700064	0.412884	-0.000025
C22	C	1.837520	0.438207	-0.000035
C23	C	1.484876	0.556383	-0.000039
C24	C	1.498921	0.664004	-0.000049
N25	N	1.423193	0.415967	0.353614
N26	N	1.526391	0.346756	-0.353657
C27	C	1.486240	0.373675	0.421397
C28	C	1.463335	0.389055	0.578563
H29	H	0.885983	0.517454	-0.000034
O30	O	1.639182	-0.082300	-0.000253
C31	C	1.720957	-0.113736	-0.117788
H32	H	1.664206	-0.154148	-0.199970
H33	H	1.785797	-0.047540	-0.157228
H34	H	1.778993	-0.164937	-0.091209
O35	O	0.845968	0.273742	0.000221
C36	C	0.863484	0.239010	0.117764
H37	H	0.884036	0.303573	0.199928
H38	H	0.775085	0.188529	0.157227
H39	H	0.945494	0.196842	0.091187
O40	O	1.054265	0.229995	0.000228
C41	C	1.071782	0.195263	0.117771
H42	H	1.092334	0.259826	0.199935
H43	H	0.983382	0.144782	0.157233
H44	H	1.153791	0.153096	0.091194
H45	H	1.392391	0.436648	0.636878
H46	H	1.352254	0.463557	0.411935
O47	O	1.310466	-0.155024	-0.000264
C48	C	1.262995	-0.146570	-0.117796
H49	H	1.343731	-0.122215	-0.199968
H50	H	1.209682	-0.220482	-0.157254
H51	H	1.197188	-0.090181	-0.091207
O52	O	1.570746	0.316849	0.351653
C53	C	1.509894	0.238009	0.269004
H54	H	1.420486	0.258034	0.247785
H55	H	1.574378	0.221719	0.168442
H56	H	1.485612	0.170524	0.323947
H57	H	1.597325	0.299155	0.588028
H58	H	1.094290	0.473686	-0.000028
