data_functionalizedCrystal
_audit_creation_method	'MofGen! by Chris Wilmer'
_symmetry_space_group_name_H-M	'P1'
_symmetry_Int_Tables_number	1
_symmetry_cell_setting	triclinic
loop_
_symmetry_equiv_pos_as_xyz
  x,y,z
_cell_length_a	17.699083
_cell_length_b	16.992695
_cell_length_c	16.176319
_cell_angle_alpha	89.993125
_cell_angle_beta	89.998611
_cell_angle_gamma	86.975619
loop_
_atom_site_label
_atom_site_type_symbol
_atom_site_fract_x
_atom_site_fract_y
_atom_site_fract_z
O1	O	1.010252	0.099146	-0.068631
O2	O	0.790676	0.112045	-0.068658
O3	O	0.899584	-0.008546	-0.068638
O4	O	0.901344	0.219736	-0.068651
O5	O	0.899567	-0.008553	0.068855
O6	O	0.790660	0.112037	0.068835
O7	O	1.010235	0.099138	0.068862
Cu8	Cu	0.900446	0.105587	0.081403
Cu9	Cu	0.900465	0.105596	-0.081199
O10	O	0.901328	0.219729	0.068842
C11	C	0.762442	0.111579	0.000085
C12	C	0.678338	0.110192	0.000075
C13	C	0.897311	-0.037758	0.000108
C14	C	0.890554	-0.124789	0.000107
C15	C	0.634124	0.180976	0.000071
C16	C	0.555099	0.179669	0.000082
C17	C	0.520290	0.107576	0.000091
C18	C	0.564510	0.036787	0.000097
C19	C	0.643533	0.038095	0.000092
C20	C	0.245818	0.031509	0.000118
C21	C	0.166789	0.030206	0.000120
C22	C	0.157384	0.173082	0.000108
C23	C	0.236408	0.174391	0.000103
C24	C	0.280621	0.103602	0.000113
C25	C	0.366308	0.105020	0.000103
C26	C	0.434604	0.106157	0.000095
C27	C	0.955751	-0.175154	0.000116
C28	C	0.949398	-0.256928	0.000107
C29	C	0.877846	-0.288336	0.000096
C30	C	0.812643	-0.237965	0.000084
C31	C	0.818998	-0.156192	0.000087
C32	C	0.851510	-0.531884	0.000081
C33	C	0.845160	-0.613663	0.000081
C34	C	0.981915	-0.632621	0.000102
C35	C	0.988263	-0.550845	0.000110
C36	C	0.923061	-0.500481	0.000094
N37	N	0.871350	-0.371923	0.000090
N38	N	0.929558	-0.416897	0.000095
C39	C	1.038469	0.099604	0.000117
C40	C	1.122574	0.100991	0.000122
C41	C	0.903601	0.248941	0.000094
C42	C	0.910358	0.335972	0.000090
N43	N	0.900438	0.105580	0.195768
N44	N	0.900479	0.105597	-0.195564
C45	C	0.948679	0.052204	0.239041
C46	C	0.948683	0.052203	0.325588
C47	C	0.900449	0.105583	0.368861
C48	C	0.852202	0.158961	0.325582
C49	C	0.852195	0.158957	0.239036
C50	C	0.852229	0.158976	0.674610
C51	C	0.852242	0.158977	0.761161
C52	C	0.948717	0.052222	0.761162
C53	C	0.948709	0.052218	0.674617
C54	C	0.900461	0.105593	0.631345
C55	C	0.900456	0.105593	0.537501
C56	C	0.900457	0.105588	0.462703
H57	H	0.662460	0.239682	0.000064
C58	C	1.001738	-0.006515	0.191446
C59	C	1.001737	-0.006523	0.096249
C60	C	1.054796	-0.065247	0.048657
C61	C	1.107856	-0.123962	0.096262
C62	C	1.107859	-0.123956	0.191464
C63	C	1.054800	-0.065233	0.239056
H64	H	0.962457	0.036943	0.061005
H65	H	1.054793	-0.065251	-0.021818
H66	H	1.147133	-0.167432	0.061031
H67	H	1.147140	-0.167423	0.226708
H68	H	1.054803	-0.065229	0.309531
H69	H	0.281807	-0.026132	0.000127
C70	C	0.506464	0.257533	0.000081
C71	C	0.544751	0.336833	0.000068
C72	C	0.496116	0.414700	0.000072
C73	C	0.409193	0.413268	0.000088
C74	C	0.370901	0.333965	0.000101
C75	C	0.419536	0.256097	0.000097
H76	H	0.609101	0.337896	0.000056
H77	H	0.524463	0.473406	0.000062
H78	H	0.373190	0.470910	0.000091
H79	H	0.306551	0.332902	0.000113
H80	H	0.391189	0.197392	0.000107
C81	C	0.733936	-0.272515	0.000070
C82	C	0.678388	-0.253458	0.071457
C83	C	0.599679	-0.288007	0.071446
C84	C	0.576518	-0.341611	0.000047
C85	C	0.632067	-0.360670	-0.071346
C86	C	0.710776	-0.326122	-0.071334
H87	H	0.695532	-0.213774	0.124316
H88	H	0.558558	-0.273898	0.124295
H89	H	0.518253	-0.367186	0.000038
H90	H	0.614923	-0.400354	-0.124204
H91	H	0.751897	-0.340231	-0.124184
H92	H	1.002489	-0.297933	0.000117
H93	H	0.765906	-0.115186	0.000080
H94	H	0.536162	-0.021912	0.000116
H95	H	0.264745	0.233096	0.000092
H96	H	0.138450	-0.028504	0.000128
C97	C	1.001766	-0.006500	0.627016
C98	C	1.054829	-0.065219	0.674614
C99	C	1.107883	-0.123941	0.627014
C100	C	1.107875	-0.123944	0.531818
C101	C	1.054810	-0.065224	0.484215
C102	C	1.001756	-0.006502	0.531814
H103	H	1.054836	-0.065218	0.745089
H104	H	1.147165	-0.167410	0.662253
H105	H	1.147149	-0.167414	0.496582
H106	H	1.054802	-0.065224	0.413740
H107	H	0.962474	0.036967	0.496575
C108	C	0.799176	0.217693	0.808764
C109	C	0.746101	0.276402	0.761170
C110	C	0.693040	0.335115	0.808772
C111	C	0.693054	0.335119	0.903969
C112	C	0.746131	0.276408	0.951568
C113	C	0.799192	0.217695	0.903966
H114	H	0.746089	0.276401	0.690695
H115	H	0.653748	0.378577	0.773536
H116	H	0.653774	0.378582	0.939207
H117	H	0.746143	0.276409	1.022043
H118	H	0.838483	0.174233	0.939202
H119	H	1.014017	-0.149588	0.000131
H120	H	0.987964	0.008741	0.360821
C121	C	0.799143	0.217681	0.373177
C122	C	0.799185	0.217728	0.468374
C123	C	0.746126	0.276452	0.515966
C124	C	0.693025	0.335127	0.468361
C125	C	0.692981	0.335082	0.373159
C126	C	0.746040	0.276358	0.325567
H127	H	0.838496	0.174291	0.503618
H128	H	0.746159	0.276485	0.586441
H129	H	0.653748	0.378598	0.503592
H130	H	0.653671	0.378519	0.337915
H131	H	0.746007	0.276325	0.255092
H132	H	0.679531	-0.019545	0.000095
H133	H	0.988001	0.008758	0.796403
H134	H	0.121377	0.230722	0.000103
H135	H	1.046528	-0.525279	0.000120
H136	H	1.034999	-0.673635	0.000114
H137	H	0.786891	-0.639232	0.000085
H138	H	0.798417	-0.490887	0.000069
H139	H	0.812945	0.202437	0.639385
H140	H	0.812912	0.202420	0.203804
