data_functionalizedCrystal
_audit_creation_method	'MofGen! by Chris Wilmer'
_symmetry_space_group_name_H-M	'P1'
_symmetry_Int_Tables_number	1
_symmetry_cell_setting	triclinic
loop_
_symmetry_equiv_pos_as_xyz
  x,y,z
_cell_length_a	25.639242
_cell_length_b	29.839131
_cell_length_c	25.639233
_cell_angle_alpha	89.980415
_cell_angle_beta	89.977834
_cell_angle_gamma	90.036947
loop_
_atom_site_label
_atom_site_type_symbol
_atom_site_fract_x
_atom_site_fract_y
_atom_site_fract_z
Zn1	Zn	0.799215	-0.178962	-0.295739
Zn2	Zn	0.799134	-0.254076	-0.208302
Zn3	Zn	0.711791	-0.178955	-0.208303
Zn4	Zn	0.711732	-0.254059	-0.295692
O5	O	0.755468	-0.216513	-0.252009
O6	O	0.872370	-0.188935	-0.284160
O7	O	0.787539	-0.244115	-0.135137
O8	O	0.723447	-0.116089	-0.219922
O9	O	0.872310	-0.244122	-0.219920
O10	O	0.787677	-0.116094	-0.284161
O11	O	0.723369	-0.188924	-0.135138
O12	O	0.638618	-0.188908	-0.219876
O13	O	0.723346	-0.244093	-0.368864
O14	O	0.638575	-0.244087	-0.284081
O15	O	0.787619	-0.188919	-0.368898
O16	O	0.787482	-0.316941	-0.219875
O17	O	0.723268	-0.316929	-0.284080
C18	C	0.619626	-0.216495	-0.251974
C19	C	0.561512	-0.216499	-0.251971
C20	C	0.201135	-0.245293	-0.285409
C21	C	0.146531	-0.245295	-0.285417
O22	O	0.118282	-0.269755	-0.313817
N23	N	0.119229	-0.216525	-0.252043
C24	C	0.146535	-0.187748	-0.218663
O25	O	0.118299	-0.163276	-0.190277
C26	C	0.201138	-0.187743	-0.218658
C27	C	0.228437	-0.216518	-0.252030
C28	C	0.228434	-0.274065	-0.318778
C29	C	0.283034	-0.274063	-0.318769
C30	C	0.310336	-0.245288	-0.285390
C31	C	0.283037	-0.216516	-0.252021
C32	C	0.228443	-0.158963	-0.185281
C33	C	0.283050	-0.158961	-0.185279
C34	C	0.310349	-0.187736	-0.218651
C35	C	0.364940	-0.187739	-0.218633
N36	N	0.392241	-0.216509	-0.252006
C37	C	0.364939	-0.245283	-0.285385
C38	C	0.031864	-0.187759	-0.218677
C39	C	-0.022738	-0.187766	-0.218679
C40	C	-0.022739	-0.245313	-0.285434
C41	C	0.031865	-0.245308	-0.285429
C42	C	0.059166	-0.216529	-0.252051
C43	C	0.479604	-0.245277	-0.285363
C44	C	0.534210	-0.245273	-0.285350
C45	C	0.534206	-0.187724	-0.218597
C46	C	0.479605	-0.187729	-0.218609
C47	C	0.452306	-0.216507	-0.251996
O48	O	0.393223	-0.163290	-0.190249
O49	O	0.393182	-0.269746	-0.313771
C50	C	0.755374	-0.333236	-0.251983
C51	C	0.755381	-0.383170	-0.251990
C52	C	0.788965	-0.692807	-0.218627
C53	C	0.789030	-0.880480	-0.218647
O54	O	0.817509	-0.904740	-0.190260
N55	N	0.755577	-0.903955	-0.252049
C56	C	0.722108	-0.880509	-0.285450
O57	O	0.693659	-0.904782	-0.313865
C58	C	0.722046	-0.692837	-0.285432
C59	C	0.755498	-0.669364	-0.252024
C60	C	0.822415	-0.669335	-0.185222
C61	C	0.822396	-0.622419	-0.185215
C62	C	0.788928	-0.598976	-0.218613
C63	C	0.755479	-0.622449	-0.252018
C64	C	0.688580	-0.669391	-0.318836
C65	C	0.688568	-0.622470	-0.318829
C66	C	0.722020	-0.598998	-0.285422
C67	C	0.721993	-0.552090	-0.285409
N68	N	0.755446	-0.528615	-0.252007
C69	C	0.788914	-0.552058	-0.218609
C70	C	0.722141	-0.979039	-0.285457
C71	C	0.722156	-1.025957	-0.285461
C72	C	0.789079	-1.025925	-0.218658
C73	C	0.789062	-0.979007	-0.218652
C74	C	0.755595	-0.955565	-0.252055
C75	C	0.788872	-0.453533	-0.218597
C76	C	0.788849	-0.406613	-0.218592
C77	C	0.721928	-0.406649	-0.285396
C78	C	0.721949	-0.453564	-0.285400
C79	C	0.755425	-0.477005	-0.251999
O80	O	0.693533	-0.527802	-0.313784
O81	O	0.817366	-0.527777	-0.190207
C82	C	0.788984	-0.739723	-0.218633
C83	C	0.755535	-0.763195	-0.252038
C84	C	0.722067	-0.739752	-0.285436
C85	C	0.755549	-0.810113	-0.252042
C86	C	0.789017	-0.833556	-0.218644
C87	C	0.822470	-0.810081	-0.185242
C88	C	0.822451	-0.763166	-0.185235
C89	C	0.688614	-0.763227	-0.318838
C90	C	0.688635	-0.810143	-0.318841
C91	C	0.722102	-0.833585	-0.285443
C92	C	0.891841	-0.216531	-0.252045
C93	C	0.949955	-0.216539	-0.252060
C94	C	0.755485	-0.216505	-0.388382
C95	C	0.755492	-0.216502	-0.446496
C96	C	0.755577	-0.099335	-0.252047
C97	C	0.755624	-0.049400	-0.252063
C98	C	0.789002	-0.187687	-0.806883
C99	C	0.789008	-0.187675	-0.861488
O100	O	0.817457	-0.163229	-0.889744
N101	N	0.755550	-0.216396	-0.888779
C102	C	0.722079	-0.245129	-0.861463
O103	O	0.693621	-0.269558	-0.889691
C104	C	0.722071	-0.245139	-0.806860
C105	C	0.755535	-0.216419	-0.779571
C106	C	0.822463	-0.158969	-0.779594
C107	C	0.822457	-0.158982	-0.724994
C108	C	0.788990	-0.187714	-0.697682
C109	C	0.755529	-0.216432	-0.724971
C110	C	0.688598	-0.273869	-0.779545
C111	C	0.688592	-0.273876	-0.724938
C112	C	0.722056	-0.245156	-0.697650
C113	C	0.722056	-0.245176	-0.643058
N114	N	0.755514	-0.216455	-0.615767
C115	C	0.788981	-0.187723	-0.643079
C116	C	0.722100	-0.245106	-0.976134
C117	C	0.722110	-0.245099	-1.030736
C118	C	0.789039	-0.187644	-1.030757
C119	C	0.789030	-0.187653	-0.976153
C120	C	0.755558	-0.216384	-0.948843
C121	C	0.788967	-0.187753	-0.528414
C122	C	0.788959	-0.187770	-0.473808
C123	C	0.722029	-0.245223	-0.473793
C124	C	0.722038	-0.245208	-0.528393
C125	C	0.755509	-0.216470	-0.555702
O126	O	0.693620	-0.269609	-0.614767
O127	O	0.817430	-0.163295	-0.614845
C128	C	0.755482	-0.216488	-0.116167
C129	C	0.755576	-0.216365	-0.058053
H130	H	0.457384	-0.268709	-0.312552
H131	H	0.816220	-0.164350	-0.550642
C132	C	0.859382	-0.926194	-0.211454
C133	C	0.825834	-0.953207	-0.181932
H134	H	0.882083	-0.910267	-0.188783
H135	H	0.879369	-0.944474	-0.234252
H136	H	0.839445	-0.905515	-0.231341
H137	H	0.845771	-0.973888	-0.162048
H138	H	0.805846	-0.934925	-0.159124
H139	H	0.816330	-1.045021	-0.191464
H140	H	0.305276	-0.135522	-0.158101
C141	C	0.692456	-1.097889	-0.315134
C142	C	0.685381	-1.051756	-0.322179
H143	H	0.669751	-1.113813	-0.337804
H144	H	0.727578	-1.105546	-0.322825
H145	H	0.684828	-1.105595	-0.279997
H146	H	0.693013	-1.044049	-0.357316
H147	H	0.650251	-1.044095	-0.314491
H148	H	0.694794	-0.268599	-0.550613
H149	H	0.206226	-0.135532	-0.158104
H150	H	0.694887	-0.959956	-0.312658
C151	C	-0.084116	-0.127337	-0.211532
C152	C	-0.052748	-0.156149	-0.181986
H153	H	-0.102645	-0.107821	-0.188876
H154	H	-0.062794	-0.110174	-0.234336
H155	H	-0.108188	-0.144478	-0.231414
H156	H	-0.028674	-0.139008	-0.162106
H157	H	-0.074072	-0.173313	-0.159173
C158	C	0.211666	-0.296072	-0.407268
C159	C	0.198430	-0.305700	-0.355471
H160	H	0.193148	-0.315608	-0.429919
H161	H	0.202730	-0.265904	-0.414986
H162	H	0.248095	-0.300181	-0.412029
H163	H	0.162002	-0.301588	-0.350709
H164	H	0.207362	-0.335876	-0.347750
H165	H	0.694783	-0.268617	-0.451545
H166	H	0.849706	-0.135594	-0.702780
H167	H	0.054089	-0.164324	-0.191493
C168	C	0.696574	-0.321167	-1.047519
C169	C	0.685329	-0.276674	-1.060725
H170	H	0.673862	-0.340660	-1.066029
H171	H	0.731693	-0.327742	-1.056483
H172	H	0.691785	-0.325277	-1.011088
H173	H	0.690123	-0.272564	-1.097156
H174	H	0.650202	-0.270097	-1.051765
H175	H	0.457377	-0.164299	-0.191433
C176	C	0.859358	-0.181424	-0.914765
C177	C	0.825809	-0.156080	-0.946159
H178	H	0.882065	-0.161929	-0.896253
H179	H	0.839426	-0.198531	-0.890684
H180	H	0.879342	-0.200996	-0.936071
H181	H	0.805822	-0.136510	-0.924853
H182	H	0.845744	-0.138965	-0.970244
H183	H	0.556445	-0.164298	-0.191419
H184	H	0.661328	-0.297268	-0.702705
H185	H	0.556434	-0.268707	-0.312526
H186	H	0.816089	-0.387503	-0.191385
H187	H	0.661337	-0.688495	-0.346038
H188	H	0.661316	-0.603386	-0.346032
C189	C	0.714771	-0.305553	-0.914721
C190	C	0.685311	-0.276695	-0.946113
H191	H	0.692059	-0.325051	-0.896188
H192	H	0.737536	-0.322732	-0.936027
H193	H	0.734692	-0.288444	-0.890653
H194	H	0.665393	-0.293803	-0.970185
H195	H	0.662537	-0.259514	-0.924806
H196	H	0.694712	-0.472677	-0.312605
C197	C	0.848013	-0.082895	-0.796405
C198	C	0.859257	-0.127384	-0.809607
H199	H	0.870735	-0.063397	-0.814928
H200	H	0.812899	-0.076314	-0.805357
H201	H	0.852789	-0.078803	-0.759977
H202	H	0.854477	-0.131478	-0.846035
H203	H	0.894380	-0.133968	-0.800659
C204	C	0.344463	-0.280387	-0.389085
C205	C	0.313036	-0.305688	-0.355460
H206	H	0.362983	-0.299912	-0.411737
H207	H	0.323182	-0.260841	-0.409120
H208	H	0.368542	-0.263256	-0.369201
H209	H	0.288953	-0.322817	-0.375345
H210	H	0.334318	-0.325242	-0.335424
C211	C	0.911030	-0.824454	-0.159879
C212	C	0.859267	-0.835848	-0.148531
H213	H	0.933748	-0.840359	-0.137215
H214	H	0.918652	-0.832124	-0.195014
H215	H	0.915797	-0.793150	-0.155094
H216	H	0.854499	-0.867150	-0.153320
H217	H	0.851643	-0.828180	-0.113387
C218	C	0.855015	-0.448775	-0.152558
C219	C	0.825665	-0.479294	-0.181878
H220	H	0.877725	-0.464680	-0.129886
H221	H	0.874991	-0.430453	-0.175359
H222	H	0.832232	-0.430501	-0.132539
H223	H	0.848448	-0.497566	-0.201901
H224	H	0.805688	-0.497624	-0.159075
C225	C	0.888554	-0.627115	-0.119194
C226	C	0.859175	-0.596622	-0.148500
H227	H	0.911265	-0.611190	-0.096531
H228	H	0.865794	-0.645437	-0.099171
H229	H	0.908535	-0.645393	-0.142008
H230	H	0.839191	-0.578347	-0.125686
H231	H	0.881939	-0.578293	-0.168525
C232	C	0.093297	-0.251636	-0.355742
C233	C	0.061870	-0.276935	-0.322115
H234	H	0.111821	-0.271162	-0.378390
H235	H	0.072016	-0.232094	-0.375781
H236	H	0.117374	-0.234501	-0.335859
H237	H	0.037791	-0.294068	-0.341998
H238	H	0.083153	-0.296485	-0.302074
C239	C	-0.106447	-0.270861	-0.315087
C240	C	-0.052756	-0.276939	-0.322131
H241	H	-0.124978	-0.290383	-0.337744
H242	H	-0.115414	-0.277395	-0.279950
H243	H	-0.115362	-0.240683	-0.322801
H244	H	-0.043841	-0.307116	-0.314413
H245	H	-0.043786	-0.270409	-0.357277
C246	C	0.692200	-0.334737	-0.315047
C247	C	0.685144	-0.380874	-0.322109
H248	H	0.669495	-0.318825	-0.337717
H249	H	0.684565	-0.327071	-0.279913
H250	H	0.727325	-0.327025	-0.322732
H251	H	0.650019	-0.388587	-0.314421
H252	H	0.692776	-0.388543	-0.357251
C253	C	0.892812	-0.721999	-0.178072
C254	C	0.859243	-0.695080	-0.148526
H255	H	0.915560	-0.737882	-0.155419
H256	H	0.872897	-0.742711	-0.197939
H257	H	0.912751	-0.703656	-0.200891
H258	H	0.839301	-0.713423	-0.125709
H259	H	0.879160	-0.674365	-0.128650
H260	H	0.849691	-0.744058	-0.158032
H261	H	0.661390	-0.829250	-0.346045
C262	C	0.818751	-0.162109	-1.114474
C263	C	0.825819	-0.156053	-1.060785
H264	H	0.841453	-0.142604	-1.133012
H265	H	0.826383	-0.192288	-1.123418
H266	H	0.783624	-0.155533	-1.123403
H267	H	0.860945	-0.162632	-1.051856
H268	H	0.818191	-0.125867	-1.051837
C269	C	0.622431	-0.330648	-0.774017
C270	C	0.651807	-0.305436	-0.809531
H271	H	0.599713	-0.350134	-0.792530
H272	H	0.645192	-0.347841	-0.752728
H273	H	0.602456	-0.311066	-0.752714
H274	H	0.671784	-0.325018	-0.830832
H275	H	0.629043	-0.288242	-0.830830
C276	C	0.622461	-0.767981	-0.384860
C277	C	0.651818	-0.737463	-0.355547
H278	H	0.599739	-0.752075	-0.407520
H279	H	0.645235	-0.786250	-0.404888
H280	H	0.602493	-0.786309	-0.362052
H281	H	0.671789	-0.719137	-0.378356
H282	H	0.629041	-0.719186	-0.335518
H283	H	0.816212	-0.164382	-0.451592
