data_functionalizedCrystal
_audit_creation_method	'MofGen! by Chris Wilmer'
_symmetry_space_group_name_H-M	'P1'
_symmetry_Int_Tables_number	1
_symmetry_cell_setting	triclinic
loop_
_symmetry_equiv_pos_as_xyz
  x,y,z
_cell_length_a	6.817900
_cell_length_b	17.110477
_cell_length_c	19.453030
_cell_angle_alpha	96.689439
_cell_angle_beta	101.707737
_cell_angle_gamma	99.060298
loop_
_atom_site_label
_atom_site_type_symbol
_atom_site_fract_x
_atom_site_fract_y
_atom_site_fract_z
V1	V	-3.984633	-0.110306	-0.218907
O2	O	-3.995620	0.004453	-0.214833
O3	O	-3.914634	-0.217903	-0.217321
O4	O	-3.927806	-0.108981	-0.314421
O5	O	-3.982356	-0.105223	-0.117061
V6	V	-4.472152	-0.096536	-0.206737
O7	O	-4.237127	-0.140513	-0.245605
O8	O	-4.669855	-0.066329	-0.180039
O9	O	-4.318944	0.011061	-0.208323
O10	O	-4.578562	-0.211295	-0.210811
O11	O	-4.591826	-0.101619	-0.308583
O12	O	-4.305772	-0.097860	-0.111223
C13	C	-3.754653	-0.244121	-0.213844
C14	C	-3.778650	-0.332086	-0.213183
C15	C	-3.970900	-0.377455	-0.216373
C16	C	-3.993439	-0.460107	-0.215756
C17	C	-3.823723	-0.497388	-0.211945
C18	C	-3.631460	-0.452013	-0.208757
C19	C	-3.608926	-0.369363	-0.209379
C20	C	-3.882709	-0.746736	-0.209897
C21	C	-3.905257	-0.829392	-0.209273
C22	C	-4.267236	-0.837481	-0.216274
C23	C	-4.244683	-0.754828	-0.216891
C24	C	-4.052424	-0.709461	-0.213707
C25	C	-3.846756	-0.581872	-0.211312
C26	C	-4.029397	-0.624980	-0.214345
C27	C	-3.771455	-0.105180	-0.337705
C28	C	-3.806134	-0.104808	-0.415787
C29	C	-3.847106	-0.177138	-0.462433
C30	C	-3.879713	-0.176797	-0.535801
C31	C	-3.871304	-0.104123	-0.562520
C32	C	-3.830335	-0.031784	-0.515865
C33	C	-3.797750	-0.032127	-0.442498
N34	N	-3.791066	-0.047143	-0.668061
N35	N	-3.822017	-0.046822	-0.737757
C36	C	-3.969483	-0.103085	-0.783568
N37	N	-4.084807	-0.159693	-0.757052
N38	N	-4.053844	-0.160016	-0.687351
C39	C	-3.906635	-0.103743	-0.642073
C40	C	-4.045816	-0.175050	-0.909769
C41	C	-4.078434	-0.174707	-0.983138
C42	C	-4.029035	-0.029691	-0.963200
C43	C	-3.996438	-0.030037	-0.889832
C44	C	-4.004822	-0.102718	-0.863121
C45	C	-4.142267	0.037276	-0.211798
C46	C	-4.097507	0.125239	-0.212463
C47	C	-4.125465	-0.101665	-0.087935
C48	C	-4.070026	-0.102032	-0.009852
H49	H	-4.423767	-0.874427	-0.218867
H50	H	-4.149986	-0.497044	-0.218355
H51	H	-3.726162	-0.709807	-0.207300
O52	O	-3.422012	-0.325401	-0.206242
C53	C	-3.277054	-0.376029	-0.202761
H54	H	-3.335034	-0.432122	-0.181006
H55	H	-3.126880	-0.343170	-0.166239
H56	H	-3.252030	-0.393735	-0.258222
H57	H	-3.963064	0.028862	-0.851852
H58	H	-4.382890	-0.724481	-0.220000
O59	O	-3.740193	-0.865503	-0.205475
C60	C	-3.594122	-0.831893	-0.142385
H61	H	-3.619041	-0.769373	-0.123464
H62	H	-3.434637	-0.827840	-0.152948
H63	H	-3.610569	-0.871285	-0.099729
H64	H	-4.111812	-0.233609	-1.021118
H65	H	-3.853947	-0.236321	-0.440690
H66	H	-4.022200	0.029482	-0.984954
H67	H	-4.167578	-0.594623	-0.217452
O68	O	-4.135639	-0.341183	-0.219948
C69	C	-4.102944	-0.282638	-0.159421
H70	H	-3.985734	-0.297584	-0.114537
H71	H	-4.252535	-0.281599	-0.142015
H72	H	-4.044129	-0.221391	-0.172765
O73	O	-3.681700	-0.617981	-0.207505
C74	C	-3.535651	-0.584377	-0.144409
H75	H	-3.560574	-0.521858	-0.125485
H76	H	-3.376156	-0.580322	-0.154962
H77	H	-3.552120	-0.623774	-0.101758
H78	H	-3.493278	-0.482374	-0.205658
H79	H	-3.913071	-0.235698	-0.573787
O80	O	-3.822481	0.038755	-0.541907
C81	C	-4.011828	0.039532	-0.587132
H82	H	-4.095477	-0.024625	-0.607908
H83	H	-3.985613	0.071305	-0.633742
H84	H	-4.107503	0.072543	-0.556318
H85	H	-3.764386	0.026774	-0.404519
O86	O	-4.053658	-0.245712	-0.883927
C87	C	-4.096526	-0.309474	-0.940830
H88	H	-4.175841	-0.289442	-0.991424
H89	H	-4.200271	-0.362506	-0.928448
H90	H	-3.948137	-0.328036	-0.948629
