data_functionalizedCrystal
_audit_creation_method	'MofGen! by Chris Wilmer'
_symmetry_space_group_name_H-M	'P1'
_symmetry_Int_Tables_number	1
_symmetry_cell_setting	triclinic
loop_
_symmetry_equiv_pos_as_xyz
  x,y,z
_cell_length_a	16.992694
_cell_length_b	12.996460
_cell_length_c	16.992695
_cell_angle_alpha	89.993670
_cell_angle_beta	89.331777
_cell_angle_gamma	89.999814
loop_
_atom_site_label
_atom_site_type_symbol
_atom_site_fract_x
_atom_site_fract_y
_atom_site_fract_z
O1	O	1.050852	0.085439	-0.166918
O2	O	1.300852	0.335439	0.083082
O3	O	1.550852	0.585439	0.333082
O4	O	1.800852	0.835439	0.583082
O5	O	0.822452	0.085469	-0.165087
O6	O	1.072452	0.335469	0.084913
O7	O	1.322452	0.585469	0.334913
O8	O	1.572452	0.835469	0.584913
O9	O	0.935736	0.085446	-0.051802
O10	O	1.185736	0.335446	0.198198
O11	O	1.435736	0.585446	0.448198
O12	O	1.685736	0.835446	0.698198
O13	O	0.937567	0.085462	-0.280203
O14	O	1.187567	0.335462	-0.030203
O15	O	1.437567	0.585462	0.219797
O16	O	1.687567	0.835462	0.469797
O17	O	0.935723	-0.085688	-0.051795
O18	O	1.185723	0.164312	0.198205
O19	O	1.435723	0.414312	0.448205
O20	O	1.685723	0.664312	0.698205
O21	O	0.822439	-0.085665	-0.165079
O22	O	1.072439	0.164335	0.084921
O23	O	1.322439	0.414335	0.334921
O24	O	1.572439	0.664335	0.584921
O25	O	1.050839	-0.085695	-0.166911
O26	O	1.300839	0.164305	0.083089
O27	O	1.550839	0.414305	0.333089
O28	O	1.800839	0.664305	0.583089
Cu29	Cu	0.936638	-0.101306	-0.165994
Cu30	Cu	1.186638	0.148694	0.084006
Cu31	Cu	1.436638	0.398694	0.334006
Cu32	Cu	1.686638	0.648694	0.584006
Cu33	Cu	0.936653	0.101080	-0.166003
Cu34	Cu	1.186653	0.351080	0.083997
Cu35	Cu	1.436653	0.601080	0.333997
Cu36	Cu	1.686653	0.851080	0.583997
O37	O	0.937554	-0.085672	-0.280195
O38	O	1.187554	0.164328	-0.030195
O39	O	1.437554	0.414328	0.219805
O40	O	1.687554	0.664328	0.469805
C41	C	0.793085	-0.000094	-0.162727
C42	C	1.043085	0.249906	0.087273
C43	C	1.293085	0.499906	0.337273
C44	C	1.543085	0.749906	0.587273
C45	C	0.705600	-0.000083	-0.155699
C46	C	0.955600	0.249917	0.094301
C47	C	1.205600	0.499917	0.344301
C48	C	1.455600	0.749917	0.594301
N49	N	0.936632	-0.243653	-0.165988
N50	N	1.186632	0.006347	0.084012
N51	N	1.436632	0.256347	0.334012
N52	N	1.686632	0.506347	0.584012
C53	C	0.659610	-0.000079	-0.223517
C54	C	0.909610	0.249921	0.026483
C55	C	1.159610	0.499921	0.276483
C56	C	1.409610	0.749921	0.526483
C57	C	0.577409	-0.000093	-0.216908
C58	C	0.827409	0.249907	0.033092
C59	C	1.077409	0.499907	0.283092
C60	C	1.327409	0.749907	0.533092
C61	C	0.541201	-0.000105	-0.142480
C62	C	0.791201	0.249895	0.107520
C63	C	1.041201	0.499895	0.357520
C64	C	1.291201	0.749895	0.607520
C65	C	0.587198	-0.000112	-0.074657
C66	C	0.837198	0.249888	0.175343
C67	C	1.087198	0.499888	0.425343
C68	C	1.337198	0.749888	0.675343
C69	C	0.669397	-0.000104	-0.081267
C70	C	0.919397	0.249896	0.168733
C71	C	1.169397	0.499896	0.418733
C72	C	1.419397	0.749896	0.668733
C73	C	0.295886	-0.000134	-0.115086
C74	C	0.545886	0.249866	0.134914
C75	C	0.795886	0.499866	0.384914
C76	C	1.045886	0.749866	0.634914
C77	C	0.213681	-0.000138	-0.108481
C78	C	0.463681	0.249862	0.141519
C79	C	0.713681	0.499862	0.391519
C80	C	0.963681	0.749862	0.641519
C81	C	0.203898	-0.000122	-0.250732
C82	C	0.453898	0.249878	-0.000732
C83	C	0.703898	0.499878	0.249268
C84	C	0.953898	0.749878	0.499268
C85	C	0.286099	-0.000108	-0.257335
C86	C	0.536099	0.249892	-0.007335
C87	C	0.786099	0.499892	0.242665
C88	C	1.036099	0.749892	0.492665
C89	C	0.332089	-0.000121	-0.189512
C90	C	0.582089	0.249879	0.060488
C91	C	0.832089	0.499879	0.310488
C92	C	1.082089	0.749879	0.560488
N93	N	0.457178	-0.000116	-0.135723
N94	N	0.707178	0.249884	0.114277
N95	N	0.957178	0.499884	0.364277
N96	N	1.207178	0.749884	0.614277
N97	N	0.416110	-0.000116	-0.196270
N98	N	0.666110	0.249884	0.053730
N99	N	0.916110	0.499884	0.303730
N100	N	1.166110	0.749884	0.553730
C101	C	0.936652	-0.663467	-0.166004
C102	C	1.186652	-0.413467	0.083996
C103	C	1.436652	-0.163467	0.333996
C104	C	1.686652	0.086533	0.583996
C105	C	0.936644	-0.546662	-0.166002
C106	C	1.186644	-0.296662	0.083998
C107	C	1.436644	-0.046662	0.333998
C108	C	1.686644	0.203338	0.583998
C109	C	0.936643	-0.453564	-0.165997
C110	C	1.186643	-0.203564	0.084003
C111	C	1.436643	0.046436	0.334003
C112	C	1.686643	0.296436	0.584003
C113	C	0.936634	-0.336751	-0.165993
C114	C	1.186634	-0.086751	0.084007
C115	C	1.436634	0.163249	0.334007
C116	C	1.686634	0.413249	0.584007
C117	C	1.080205	-0.000130	-0.169270
C118	C	1.330205	0.249870	0.080730
C119	C	1.580205	0.499870	0.330730
C120	C	1.830205	0.749870	0.580730
C121	C	1.167690	-0.000134	-0.176299
C122	C	1.417690	0.249866	0.073701
C123	C	1.667690	0.499866	0.323701
C124	C	1.917690	0.749866	0.573701
C125	C	0.933374	-0.000121	-0.022439
C126	C	1.183374	0.249879	0.227561
C127	C	1.433374	0.499879	0.477561
C128	C	1.683374	0.749879	0.727561
C129	C	0.926345	-0.000119	0.065046
C130	C	1.176345	0.249881	0.315046
C131	C	1.426345	0.499881	0.565046
C132	C	1.676345	0.749881	0.815046
N133	N	0.936664	0.243427	-0.166004
N134	N	1.186664	0.493427	0.083996
N135	N	1.436664	0.743427	0.333996
N136	N	1.686664	0.993427	0.583996
C137	C	0.939917	-0.000103	-0.309559
C138	C	1.189917	0.249897	-0.059559
C139	C	1.439917	0.499897	0.190441
C140	C	1.689917	0.749897	0.440441
C141	C	0.946945	-0.000097	-0.397044
C142	C	1.196945	0.249903	-0.147044
C143	C	1.446945	0.499903	0.102956
C144	C	1.696945	0.749903	0.352956
C145	C	0.994163	-0.000129	0.111037
C146	C	1.244163	0.249871	0.361037
C147	C	1.494163	0.499871	0.611037
C148	C	1.744163	0.749871	0.861037
C149	C	0.987554	-0.000119	0.193238
C150	C	1.237554	0.249881	0.443238
C151	C	1.487554	0.499881	0.693238
C152	C	1.737554	0.749881	0.943238
C153	C	0.913127	-0.000105	0.229446
C154	C	1.163127	0.249895	0.479446
C155	C	1.413127	0.499895	0.729446
C156	C	1.663127	0.749895	0.979446
C157	C	0.845303	-0.000092	0.183449
C158	C	1.095303	0.249908	0.433449
C159	C	1.345303	0.499908	0.683449
C160	C	1.595303	0.749908	0.933449
C161	C	0.851913	-0.000096	0.101250
C162	C	1.101913	0.249904	0.351250
C163	C	1.351913	0.499904	0.601250
C164	C	1.601913	0.749904	0.851250
C165	C	0.885732	-0.000088	0.474760
C166	C	1.135732	0.249912	0.724760
C167	C	1.385732	0.499912	0.974760
C168	C	1.635732	0.749912	1.224760
C169	C	0.879127	-0.000087	0.556966
C170	C	1.129127	0.249913	0.806966
C171	C	1.379127	0.499913	1.056966
C172	C	1.629127	0.749913	1.306966
C173	C	1.021379	-0.000112	0.566749
C174	C	1.271379	0.249888	0.816749
C175	C	1.521379	0.499888	1.066749
C176	C	1.771379	0.749888	1.316749
C177	C	1.027982	-0.000121	0.484547
C178	C	1.277982	0.249879	0.734547
C179	C	1.527982	0.499879	0.984547
C180	C	1.777982	0.749879	1.234547
C181	C	0.960159	-0.000103	0.438558
C182	C	1.210159	0.249897	0.688558
C183	C	1.460159	0.499897	0.938558
C184	C	1.710159	0.749897	1.188558
N185	N	0.906369	-0.000098	0.313468
N186	N	1.156369	0.249902	0.563468
N187	N	1.406369	0.499902	0.813468
N188	N	1.656369	0.749902	1.063468
N189	N	0.966917	-0.000103	0.354537
N190	N	1.216917	0.249897	0.604537
N191	N	1.466917	0.499897	0.854537
N192	N	1.716917	0.749897	1.104537
H193	H	0.539966	-0.000089	-0.272133
H194	H	0.789966	0.249911	-0.022133
H195	H	1.039966	0.499911	0.227867
H196	H	1.289966	0.749911	0.477867
H197	H	0.166444	-0.000114	-0.305950
H198	H	0.416444	0.249886	-0.055950
H199	H	0.666444	0.499886	0.194050
H200	H	0.916444	0.749886	0.444050
H201	H	0.784703	-0.000075	0.212936
H202	H	1.034703	0.249925	0.462936
H203	H	1.284703	0.499925	0.712936
H204	H	1.534703	0.749925	0.962936
H205	H	0.796688	-0.000087	0.063804
H206	H	1.046688	0.249913	0.313804
H207	H	1.296688	0.499913	0.563804
H208	H	1.546688	0.749913	0.813804
H209	H	0.689084	-0.000069	-0.284124
H210	H	0.939084	0.249931	-0.034124
H211	H	1.189084	0.499931	0.215876
H212	H	1.439084	0.749931	0.465876
N213	N	0.323070	-0.000084	-0.333368
N214	N	0.573070	0.249916	-0.083368
N215	N	0.823070	0.499916	0.166632
N216	N	1.073070	0.749916	0.416632
N217	N	0.281996	-0.000074	-0.393916
N218	N	0.531996	0.249926	-0.143916
N219	N	0.781996	0.499926	0.106084
N220	N	1.031996	0.749926	0.356084
H221	H	0.308106	-0.000050	-0.447616
H222	H	0.558106	0.249950	-0.197616
H223	H	0.808106	0.499950	0.052384
H224	H	1.058106	0.749950	0.302384
N225	N	0.176683	-0.000142	-0.032456
N226	N	0.426683	0.249858	0.217544
N227	N	0.676683	0.499858	0.467544
N228	N	0.926683	0.749858	0.717544
N229	N	0.131907	0.071994	-0.012902
N230	N	0.381907	0.321994	0.237098
N231	N	0.631907	0.571994	0.487098
N232	N	0.881907	0.821994	0.737098
H233	H	0.105776	0.071996	0.040788
H234	H	0.355776	0.321996	0.290788
H235	H	0.605776	0.571996	0.540788
H236	H	0.855776	0.821996	0.790788
N237	N	0.342845	-0.000142	-0.045800
N238	N	0.592845	0.249858	0.204200
N239	N	0.842845	0.499858	0.454200
N240	N	1.092845	0.749858	0.704200
N241	N	0.310503	-0.000147	0.020646
N242	N	0.560503	0.249853	0.270646
N243	N	0.810503	0.499853	0.520646
N244	N	1.060503	0.749853	0.770646
H245	H	0.343670	-0.000150	0.069583
H246	H	0.593670	0.249850	0.319583
H247	H	0.843670	0.499850	0.569583
H248	H	1.093670	0.749850	0.819583
N249	N	0.816463	-0.000088	0.427778
N250	N	1.066463	0.249912	0.677778
N251	N	1.316463	0.499912	0.927778
N252	N	1.566463	0.749912	1.177778
N253	N	0.822367	-0.000089	0.354387
N254	N	1.072367	0.249911	0.604387
N255	N	1.322367	0.499911	0.854387
N256	N	1.572367	0.749911	1.104387
H257	H	0.773443	-0.000091	0.321202
H258	H	1.023443	0.249909	0.571202
H259	H	1.273443	0.499909	0.821202
H260	H	1.523443	0.749909	1.071202
H261	H	0.557710	-0.000135	-0.014056
H262	H	0.807710	0.249865	0.235944
H263	H	1.057710	0.499865	0.485944
H264	H	1.307710	0.749865	0.735944
H265	H	1.054770	-0.000147	0.081563
H266	H	1.304770	0.249853	0.331563
H267	H	1.554770	0.499853	0.581563
H268	H	1.804770	0.749853	0.831563
N269	N	0.716366	-0.000120	-0.011984
N270	N	0.966366	0.249880	0.238016
N271	N	1.216366	0.499880	0.488016
N272	N	1.466366	0.749880	0.738016
N273	N	0.684030	-0.000135	0.054465
N274	N	0.934030	0.249865	0.304465
N275	N	1.184030	0.499865	0.554465
N276	N	1.434030	0.749865	0.804465
H277	H	0.717201	-0.000152	0.103399
H278	H	0.967201	0.249848	0.353399
H279	H	1.217201	0.499848	0.603399
H280	H	1.467201	0.749848	0.853399
N281	N	1.056837	-0.000119	0.240204
N282	N	1.306837	0.249881	0.490204
N283	N	1.556837	0.499881	0.740204
N284	N	1.806837	0.749881	0.990204
N285	N	1.123285	-0.000132	0.207866
N286	N	1.373285	0.249868	0.457866
N287	N	1.623285	0.499868	0.707866
N288	N	1.873285	0.749868	0.957866
H289	H	1.172220	-0.000129	0.241035
H290	H	1.422220	0.249871	0.491035
H291	H	1.672220	0.499871	0.741035
H292	H	1.922220	0.749871	0.991035
H293	H	1.088589	-0.000132	0.455073
H294	H	1.338589	0.249868	0.705073
H295	H	1.588589	0.499868	0.955073
H296	H	1.838589	0.749868	1.205073
H297	H	1.076596	-0.000125	0.604202
H298	H	1.326596	0.249875	0.854202
H299	H	1.576596	0.499875	1.104202
H300	H	1.826596	0.749875	1.354202
H301	H	0.818516	-0.000093	0.586443
H302	H	1.068516	0.249907	0.836443
H303	H	1.318516	0.499907	1.086443
H304	H	1.568516	0.749907	1.336443
