data_functionalizedCrystal
_audit_creation_method	'MofGen! by Chris Wilmer'
_symmetry_space_group_name_H-M	'P1'
_symmetry_Int_Tables_number	1
_symmetry_cell_setting	triclinic
loop_
_symmetry_equiv_pos_as_xyz
  x,y,z
_cell_length_a	21.295417
_cell_length_b	14.908571
_cell_length_c	14.908308
_cell_angle_alpha	90.175053
_cell_angle_beta	86.739365
_cell_angle_gamma	93.273651
loop_
_atom_site_label
_atom_site_type_symbol
_atom_site_fract_x
_atom_site_fract_y
_atom_site_fract_z
Zn1	Zn	-0.328502	-1.345216	0.587528
Zn2	Zn	0.171498	-0.845216	1.087528
Zn3	Zn	-0.428068	-1.353772	0.437153
Zn4	Zn	0.071932	-0.853772	0.937153
Zn5	Zn	-0.316411	-1.203534	0.428528
Zn6	Zn	0.183589	-0.703534	0.928528
Zn7	Zn	-0.427320	-1.194800	0.578804
Zn8	Zn	0.072680	-0.694800	1.078804
O9	O	-0.375075	-1.274330	0.508003
O10	O	0.124925	-0.774330	1.008003
O11	O	-0.347082	-1.472175	0.574841
O12	O	0.152918	-0.972175	1.074841
O13	O	-0.408509	-1.341079	0.310185
O14	O	0.091491	-0.841079	0.810185
O15	O	-0.229930	-1.222403	0.449662
O16	O	0.270070	-0.722403	0.949662
O17	O	-0.420233	-1.478462	0.464361
O18	O	0.079767	-0.978462	0.964361
O19	O	-0.238813	-1.326496	0.566479
O20	O	0.261187	-0.826496	1.066479
O21	O	-0.326476	-1.230699	0.303848
O22	O	0.173524	-0.730699	0.803848
O23	O	-0.325750	-1.076551	0.441202
O24	O	0.174250	-0.576551	0.941202
O25	O	-0.418959	-1.207517	0.705785
O26	O	0.081041	-0.707517	1.205785
O27	O	-0.407235	-1.070134	0.551609
O28	O	0.092765	-0.570134	1.051609
O29	O	-0.346357	-1.318027	0.712195
O30	O	0.153643	-0.818027	1.212195
O31	O	-0.516054	-1.332609	0.455901
O32	O	-0.016054	-0.832609	0.955901
O33	O	-0.515504	-1.215813	0.559972
O34	O	-0.015504	-0.715813	1.059972
C35	C	-0.365100	-1.040717	0.494524
C36	C	0.134900	-0.540717	0.994524
C37	C	-0.360848	-0.940775	0.488779
C38	C	0.139152	-0.440775	0.988779
C39	C	-0.538620	-1.274215	0.507947
C40	C	-0.038620	-0.774215	1.007947
C41	C	-0.608590	-1.274247	0.507957
C42	C	-0.108590	-0.774247	1.007957
C43	C	-0.383923	-1.260843	0.742527
C44	C	0.116077	-0.760843	1.242527
C45	C	-0.387694	-1.255096	0.842467
C46	C	0.112306	-0.755096	1.342467
C47	C	-0.641726	-1.335110	0.453830
C48	C	-0.141726	-0.835110	0.953830
C49	C	-0.707471	-1.335151	0.453852
C50	C	-0.207471	-0.835151	0.953852
C51	C	-0.740076	-1.274313	0.507992
C52	C	-0.240076	-0.774313	1.007992
C53	C	-0.706932	-1.213445	0.562131
C54	C	-0.206932	-0.713445	1.062131
C55	C	-0.641189	-1.213412	0.562114
C56	C	-0.141189	-0.713412	1.062114
N57	N	-0.840247	-1.195260	0.510308
N58	N	-0.340247	-0.695260	1.010308
N59	N	-0.902701	-1.195295	0.510320
N60	N	-0.402701	-0.695295	1.010320
C61	C	-0.938157	-1.274411	0.508050
C62	C	-0.438157	-0.774411	1.008050
N63	N	-0.908801	-1.353494	0.505750
N64	N	-0.408801	-0.853494	1.005750
N65	N	-0.846341	-1.353459	0.505734
N66	N	-0.346341	-0.853459	1.005734
C67	C	-0.811364	-1.274343	0.508018
C68	C	-0.311364	-0.774343	1.008018
C69	C	-1.042582	-1.335324	0.453944
C70	C	-0.542582	-0.835324	0.953944
C71	C	-1.108328	-1.335366	0.453973
C72	C	-0.608328	-0.835366	0.953973
C73	C	-1.107788	-1.213652	0.562246
C74	C	-0.607788	-0.713652	1.062246
C75	C	-1.042043	-1.213618	0.562223
C76	C	-0.542043	-0.713618	1.062223
C77	C	-1.009444	-1.274453	0.508066
C78	C	-0.509444	-0.774453	1.008066
C79	C	-0.210894	-1.274469	0.508081
C80	C	0.289106	-0.774469	1.008081
C81	C	-0.140929	-1.274528	0.508114
C82	C	0.359071	-0.774528	1.008114
C83	C	-0.385090	-1.508856	0.521536
C84	C	0.114910	-1.008856	1.021536
C85	C	-0.389358	-1.608796	0.527303
C86	C	0.110642	-1.108796	1.027303
C87	C	-0.437828	-0.746349	0.592795
C88	C	0.062172	-0.246349	1.092795
C89	C	-0.433836	-0.652444	0.587400
C90	C	0.066164	-0.152444	1.087400
C91	C	-0.348868	-0.659060	0.472599
C92	C	0.151132	-0.159060	0.972599
C93	C	-0.352861	-0.752964	0.477994
C94	C	0.147139	-0.252964	0.977994
C95	C	-0.397343	-0.796605	0.538093
C96	C	0.102657	-0.296605	1.038093
C97	C	-0.401338	-0.890512	0.543483
C98	C	0.098662	-0.390512	1.043483
C99	C	-0.316368	-0.897125	0.428687
C100	C	0.183632	-0.397125	0.928687
C101	C	-0.312375	-0.803221	0.423292
C102	C	0.187625	-0.303221	0.923292
C103	C	-0.366218	-1.287817	0.274395
C104	C	0.133782	-0.787817	0.774395
C105	C	-0.362278	-1.293739	0.174465
C106	C	0.137722	-0.793739	0.674465
C107	C	-0.319164	-1.359367	1.036941
C108	C	0.180836	-0.859367	1.536941
C109	C	-0.322705	-1.353969	1.130844
C110	C	0.177295	-0.853969	1.630844
C111	C	-0.398312	-1.238899	1.124177
C112	C	0.101688	-0.738899	1.624177
C113	C	-0.394771	-1.244297	1.030274
C114	C	0.105229	-0.744297	1.530274
C115	C	-0.355197	-1.304533	0.986660
C116	C	0.144803	-0.804533	1.486660
C117	C	-0.351660	-1.309935	0.892756
C118	C	0.148340	-0.809935	1.392756
C119	C	-0.427263	-1.194861	0.886090
C120	C	0.072737	-0.694861	1.386090
C121	C	-0.430804	-1.189463	0.979993
C122	C	0.069196	-0.689463	1.479993
H123	H	-0.615186	-1.384647	0.409735
H124	H	-0.115186	-0.884647	0.909735
C125	C	-0.466896	-1.134532	0.830783
C126	C	0.033104	-0.634532	1.330783
H127	H	-0.490973	-1.097890	0.870210
H128	H	0.009027	-0.597890	1.370210
H129	H	-0.439763	-1.097482	0.791902
H130	H	0.060237	-0.597482	1.291902
H131	H	-0.494414	-1.171014	0.796125
H132	H	0.005586	-0.671014	1.296125
H133	H	-0.614209	-1.163849	0.606192
H134	H	-0.114209	-0.663849	1.106192
H135	H	-1.015062	-1.164053	0.606295
H136	H	-0.515062	-0.664053	1.106295
C137	C	-0.486757	-0.794358	0.658896
C138	C	0.013243	-0.294358	1.158896
H139	H	-0.510296	-0.750976	0.690705
H140	H	-0.010296	-0.250976	1.190705
H141	H	-0.514402	-0.832951	0.626532
H142	H	-0.014402	-0.332951	1.126532
H143	H	-0.465754	-0.828753	0.700246
H144	H	0.034246	-0.328753	1.200246
C145	C	-0.441837	-1.172642	1.172159
C146	C	0.058163	-0.672642	1.672159
H147	H	-0.462789	-1.140751	1.128766
H148	H	0.037211	-0.640751	1.628766
H149	H	-0.472110	-1.204909	1.210768
H150	H	0.027890	-0.704909	1.710768
H151	H	-0.417460	-1.131375	1.206536
H152	H	0.082540	-0.631375	1.706536
H153	H	-0.286944	-1.408418	1.001430
H154	H	0.213056	-0.908418	1.501430
H155	H	-0.466802	-0.611529	0.631946
H156	H	0.033198	-0.111529	1.131946
C157	C	-0.299950	-0.611044	0.406488
C158	C	0.200050	-0.111044	0.906488
H159	H	-0.303376	-0.547921	0.411106
H160	H	0.196624	-0.047921	0.911106
H161	H	-0.258820	-0.625691	0.420626
H162	H	0.241180	-0.125691	0.920626
H163	H	-0.307484	-0.629889	0.346933
H164	H	0.192516	-0.129889	0.846933
H165	H	-0.734456	-1.384717	0.409775
H166	H	-0.234456	-0.884717	0.909775
H167	H	-0.733484	-1.163912	0.606214
H168	H	-0.233484	-0.663912	1.106214
H169	H	-1.134335	-1.164120	0.606333
H170	H	-0.634335	-0.664120	1.106333
H171	H	-1.135307	-1.384934	0.409897
H172	H	-0.635307	-0.884934	0.909897
H173	H	-0.463023	-1.140419	1.015517
H174	H	0.036977	-0.640419	1.515517
C175	C	-1.006721	-1.402247	0.394386
C176	C	-0.506721	-0.902247	0.894386
H177	H	-1.035875	-1.438512	0.362162
H178	H	-0.535875	-0.938512	0.862162
H179	H	-0.978165	-1.370127	0.353189
H180	H	-0.478165	-0.870127	0.853189
H181	H	-0.984007	-1.439403	0.431072
H182	H	-0.484007	-0.939403	0.931072
C183	C	-0.450263	-0.938517	0.609592
C184	C	0.049737	-0.438517	1.109592
H185	H	-0.473798	-0.895132	0.641404
H186	H	0.026202	-0.395132	1.141404
H187	H	-0.477913	-0.977110	0.577235
H188	H	0.022087	-0.477110	1.077235
H189	H	-0.429257	-0.972912	0.650938
H190	H	0.070743	-0.472912	1.150938
C191	C	-0.308131	-1.376189	0.844776
C192	C	0.191869	-0.876189	1.344776
H193	H	-0.311185	-1.371558	0.781649
H194	H	0.188815	-0.871558	1.281649
H195	H	-0.265857	-1.362176	0.859424
H196	H	0.234143	-0.862176	1.359424
H197	H	-0.320503	-1.435714	0.863647
H198	H	0.179497	-0.935714	1.363647
H199	H	-0.276158	-0.767675	0.374363
H200	H	0.223842	-0.267675	0.874363
H201	H	-0.283403	-0.938054	0.384142
H202	H	0.216597	-0.438054	0.884142
H203	H	-0.293362	-1.398618	1.171780
H204	H	0.206638	-0.898618	1.671780
