data_functionalizedCrystal
_audit_creation_method	'MofGen! by Chris Wilmer'
_symmetry_space_group_name_H-M	'P1'
_symmetry_Int_Tables_number	1
_symmetry_cell_setting	triclinic
loop_
_symmetry_equiv_pos_as_xyz
  x,y,z
_cell_length_a	16.625547
_cell_length_b	12.759399
_cell_length_c	12.759393
_cell_angle_alpha	89.973195
_cell_angle_beta	90.026979
_cell_angle_gamma	89.985813
loop_
_atom_site_label
_atom_site_type_symbol
_atom_site_fract_x
_atom_site_fract_y
_atom_site_fract_z
Zn1	Zn	1.232744	0.418217	0.594216
Zn2	Zn	1.232661	0.593933	0.418548
Zn3	Zn	1.097900	0.418268	0.418533
Zn4	Zn	1.097895	0.593854	0.594167
O5	O	1.165300	0.506068	0.506366
O6	O	1.345565	0.441538	0.570941
O7	O	1.214753	0.570685	0.271525
O8	O	1.115824	0.271240	0.441853
O9	O	1.345505	0.570635	0.441878
O10	O	1.214893	0.271203	0.570926
O11	O	1.115744	0.441625	0.271514
O12	O	0.985067	0.441549	0.441804
O13	O	1.115816	0.570502	0.741194
O14	O	0.985064	0.570551	0.570841
O15	O	1.214888	0.441462	0.741231
O16	O	1.214748	0.740943	0.441829
O17	O	1.115736	0.740886	0.570856
C18	C	1.165254	0.779035	0.506362
C19	C	1.165308	0.895812	0.506395
C20	C	0.955809	0.506048	0.506316
C21	C	0.866188	0.506064	0.506320
C22	C	1.216923	0.950669	0.439291
C23	C	1.216976	1.060393	0.439334
C24	C	1.113792	1.060393	0.573588
C25	C	1.113744	0.950671	0.573549
C26	C	0.793406	0.506066	0.506333
C27	C	0.702097	0.506072	0.506359
C28	C	0.629321	0.506082	0.506386
C29	C	0.538007	0.506089	0.506411
C30	C	1.375609	0.506089	0.506416
C31	C	1.465230	0.506098	0.506438
C32	C	1.165361	0.505967	0.780399
C33	C	1.165386	0.505924	0.897176
C34	C	1.165371	1.232035	0.506411
C35	C	1.165409	1.115258	0.506477
C36	C	1.165286	0.506093	0.233399
C37	C	1.165417	0.505840	0.116622
C38	C	1.216977	0.438722	0.952059
C39	C	1.216991	0.438677	1.061783
C40	C	1.113820	0.573045	1.061732
C41	C	1.113803	0.573084	0.952010
H42	H	1.258911	0.906005	0.384612
O43	O	1.063675	1.113524	0.638912
C44	C	1.018095	1.041573	0.698114
H45	H	1.051086	0.963321	0.701767
H46	H	0.956867	1.029999	0.659560
C47	C	0.965930	1.180426	0.805446
C48	C	1.006453	1.084319	0.809939
H49	H	0.958745	1.206795	0.874424
H50	H	0.996636	1.228902	0.765558
H51	H	0.914911	1.170769	0.773313
H52	H	1.057475	1.093980	0.842060
H53	H	0.975756	1.035845	0.849836
O54	O	1.063562	0.897261	0.638591
C55	C	1.011468	0.833915	0.578687
H56	H	1.039928	0.817516	0.499096
H57	H	0.951735	0.876270	0.567086
C58	C	0.961852	0.749797	0.734190
C59	C	0.996810	0.729648	0.636439
H60	H	0.952806	0.685482	0.769815
H61	H	0.996946	0.792477	0.774550
H62	H	0.912079	0.785095	0.724509
H63	H	1.046586	0.694363	0.646122
H64	H	0.961723	0.686960	0.596082
H65	H	1.259007	1.105053	0.384693
O66	O	1.267103	0.373381	0.898955
C67	C	1.312654	0.314075	0.970930
H68	H	1.279640	0.310408	1.049132
H69	H	1.373884	0.352549	0.982618
C70	C	1.364844	0.206777	0.832078
C71	C	1.324292	0.202265	0.928125
H72	H	1.372027	0.137809	0.805672
H73	H	1.334158	0.246734	0.783586
H74	H	1.415865	0.238844	0.841830
H75	H	1.273269	0.170211	0.918369
H76	H	1.354970	0.162300	0.976614
O77	O	1.266991	0.373283	1.115140
C78	C	1.221113	0.305408	1.178611
H79	H	1.157605	0.298927	1.145523
H80	H	1.218340	0.337853	1.261766
C81	C	1.338534	0.204153	1.220950
C82	C	1.260535	0.196186	1.180305
H83	H	1.362852	0.136780	1.221999
H84	H	1.369444	0.249883	1.178191
H85	H	1.336213	0.231194	1.290242
H86	H	1.262858	0.169158	1.111010
H87	H	1.229626	0.150448	1.223052
H88	H	1.071825	0.627726	1.106391
H89	H	1.071786	0.627807	0.907323
