data_functionalizedCrystal
_audit_creation_method	'MofGen! by Chris Wilmer'
_symmetry_space_group_name_H-M	'P1'
_symmetry_Int_Tables_number	1
_symmetry_cell_setting	triclinic
loop_
_symmetry_equiv_pos_as_xyz
  x,y,z
_cell_length_a	17.038272
_cell_length_b	11.026607
_cell_length_c	9.482900
_cell_angle_alpha	78.599815
_cell_angle_beta	80.031374
_cell_angle_gamma	80.151214
loop_
_atom_site_label
_atom_site_type_symbol
_atom_site_fract_x
_atom_site_fract_y
_atom_site_fract_z
O1	O	1.084694	-0.249410	-0.120828
O2	O	0.856466	-0.245161	-0.120844
O3	O	0.951664	-0.068680	-0.120832
O4	O	0.989496	-0.425891	-0.120840
O5	O	0.932349	-0.104682	0.120958
O6	O	0.837151	-0.281163	0.120946
O7	O	1.065379	-0.285411	0.120962
Cu8	Cu	0.949501	-0.286574	0.143031
Cu9	Cu	0.972343	-0.243998	-0.142914
O10	O	0.970180	-0.461892	0.120950
C11	C	0.817136	-0.259300	0.000049
C12	C	0.728720	-0.247777	0.000043
C13	C	1.104709	-0.271272	0.000065
C14	C	1.193125	-0.282794	0.000062
C15	C	1.228334	-0.177009	0.000060
C16	C	1.311410	-0.187843	0.000065
C17	C	1.359278	-0.304461	0.000062
C18	C	1.324064	-0.410254	0.000069
C19	C	1.240988	-0.399420	0.000074
C20	C	1.610430	-0.342736	0.000055
C21	C	1.693512	-0.353562	0.000045
C22	C	1.680852	-0.131150	0.000044
C23	C	1.597776	-0.120325	0.000041
C24	C	1.562568	-0.226119	0.000055
C25	C	1.444196	-0.315537	0.000062
C26	C	1.477651	-0.215043	0.000065
C27	C	0.935028	-0.040749	0.000061
C28	C	0.914223	0.096113	0.000054
C29	C	0.986817	-0.489823	0.000054
C30	C	1.007622	-0.626684	0.000051
N31	N	0.933440	-0.316520	0.344149
C32	C	0.971669	0.163988	0.000056
C33	C	0.950168	0.305443	0.000049
N34	N	0.988409	-0.214044	-0.344032
C35	C	0.967600	-0.252824	0.416353
C36	C	0.954244	-0.277749	0.583769
H37	H	1.189365	-0.082045	0.000053
H38	H	1.036768	0.117374	0.000069
Br39	Br	1.509167	-0.473799	0.000045
H40	H	0.915106	-0.350734	0.645888
Br41	Br	1.116136	0.295649	0.000046
H42	H	0.885065	0.352052	0.000035
Br43	Br	1.032582	-0.130843	0.312820
Br44	Br	1.053865	-0.092695	0.552445
Br45	Br	1.359189	-0.044274	0.000076
H46	H	0.894304	-0.389500	0.406274
Br47	Br	0.805717	0.173794	0.000025
Br48	Br	1.728637	0.012418	0.000032
Br49	Br	1.532822	0.037957	-0.000019
Br50	Br	1.389026	-0.568525	0.000072
Br51	Br	1.758476	-0.511839	0.000038
H52	H	1.438674	-0.120091	0.000051
H53	H	1.581775	-0.428881	0.000059
Br54	Br	1.193203	-0.542993	0.000094
