data_functionalizedCrystal
_audit_creation_method	'MofGen! by Chris Wilmer'
_symmetry_space_group_name_H-M	'P1'
_symmetry_Int_Tables_number	1
_symmetry_cell_setting	triclinic
loop_
_symmetry_equiv_pos_as_xyz
  x,y,z
_cell_length_a	14.446369
_cell_length_b	21.606444
_cell_length_c	21.606444
_cell_angle_alpha	60.001013
_cell_angle_beta	89.997582
_cell_angle_gamma	59.997435
loop_
_atom_site_label
_atom_site_type_symbol
_atom_site_fract_x
_atom_site_fract_y
_atom_site_fract_z
Zr1	Zr	0.891768	0.677413	-0.081176
O2	O	0.743966	0.806534	-0.179999
O3	O	0.937079	0.548293	-0.050884
O4	O	0.937089	0.677408	-0.179998
O5	O	0.743946	0.677422	0.050966
O6	O	1.089426	0.677403	-0.179994
O7	O	0.743956	0.677419	-0.050885
O8	O	1.089407	0.446440	0.050967
O9	O	0.743965	0.908384	-0.179995
O10	O	1.070089	0.601397	-0.037959
O11	O	0.956394	0.601403	0.038048
O12	O	0.956406	0.753419	-0.113967
O13	O	0.842711	0.753426	-0.037960
Zr14	Zr	1.134712	0.677408	0.081270
Zr15	Zr	1.134728	0.677404	-0.081170
Zr16	Zr	0.891752	0.677417	0.081264
Zr17	Zr	0.891765	0.839853	-0.081171
Zr18	Zr	1.134715	0.514968	0.081265
O19	O	1.089402	0.806527	0.050978
O20	O	1.089424	0.806521	-0.179990
O21	O	0.743944	0.806540	0.050970
O22	O	1.282514	0.548287	0.180093
O23	O	1.282537	0.548281	-0.050876
O24	O	0.937056	0.548300	0.180084
O25	O	1.282535	0.677399	-0.050872
O26	O	1.089391	0.677413	0.180092
O27	O	0.937054	0.677418	0.180088
O28	O	1.282525	0.677402	0.050979
O29	O	0.937086	0.908377	-0.179991
O30	O	1.089395	0.446444	0.180084
O31	O	1.282516	0.446436	0.180089
O32	O	1.282528	0.446433	0.050971
O33	O	0.743952	0.908388	-0.050877
O34	O	0.937073	0.908381	-0.050873
O35	O	1.070074	0.601401	0.114061
O36	O	1.183769	0.601395	0.038054
O37	O	1.070086	0.753417	-0.037954
O38	O	0.956391	0.753424	0.038053
C39	C	1.013243	0.474222	0.000040
C40	C	1.013244	0.405262	0.000038
C41	C	0.709334	0.677422	0.000039
C42	C	0.606191	0.677425	0.000037
C43	C	1.072589	0.372861	-0.039638
C44	C	1.072593	0.308061	-0.039633
C45	C	1.013245	0.275668	0.000044
C46	C	0.953898	0.308071	0.039725
C47	C	0.953902	0.372866	0.039724
C48	C	0.953885	0.046762	0.039732
C49	C	0.953883	-0.018035	0.039728
C50	C	1.072577	-0.018042	-0.039625
C51	C	1.072580	0.046752	-0.039627
C52	C	1.013239	0.079147	0.000057
C53	C	1.013237	0.149409	0.000053
C54	C	1.013240	0.205411	0.000045
C55	C	0.387825	0.773296	-0.047660
C56	C	0.495057	0.773360	-0.047928
C57	C	0.602872	0.629799	-0.034933
C58	C	0.495103	0.630408	-0.035282
C59	C	0.496455	0.628437	0.082763
C60	C	0.602424	0.630244	0.082633
C61	C	1.317146	0.677399	0.000054
C62	C	1.420289	0.677395	0.000057
C63	C	1.013260	0.677405	-0.203140
C64	C	1.013267	0.677403	-0.272100
C65	C	1.013237	0.880598	0.000053
C66	C	1.013236	0.949559	0.000056
C67	C	0.929289	0.677423	-0.695407
C68	C	0.929299	0.677416	-0.630608
C69	C	1.013229	0.677411	-0.598211
C70	C	1.097162	0.677404	-0.630613
C71	C	1.097156	0.677404	-0.695408
C72	C	1.097189	0.677402	-0.369302
C73	C	1.097187	0.677404	-0.304504
C74	C	0.929333	0.677414	-0.304501
C75	C	0.929327	0.677414	-0.369296
C76	C	1.013262	0.677402	-0.401690
C77	C	1.013252	0.677408	-0.471952
C78	C	1.013236	0.677412	-0.527954
C79	C	1.013220	0.677416	0.203234
C80	C	1.013213	0.677418	0.272194
C81	C	1.317149	0.474211	0.000048
C82	C	1.420293	0.405247	0.000048
C83	C	1.013223	0.474228	0.203228
C84	C	1.013218	0.405270	0.272185
C85	C	1.317129	0.474217	0.203235
C86	C	1.420267	0.405255	0.272195
C87	C	0.709351	0.880604	-0.203141
C88	C	0.606214	0.949566	-0.272102
C89	C	0.709331	0.880610	0.000046
C90	C	0.606187	0.949573	0.000046
C91	C	1.013257	0.880593	-0.203134
C92	C	1.013263	0.949551	-0.272092
C93	C	1.409391	0.372862	-0.039636
C94	C	1.506297	0.308072	-0.039651
C95	C	1.614103	0.275664	0.000023
C96	C	1.625003	0.308056	0.039709
C97	C	1.528099	0.372849	0.039719
C98	C	1.072555	0.372885	0.344253
C99	C	1.072545	0.308101	0.409053
C100	C	1.013204	0.275698	0.401782
C101	C	0.953860	0.308089	0.329707
C102	C	0.953864	0.372876	0.264909
C103	C	1.528059	0.372866	0.264905
C104	C	1.624977	0.308078	0.329694
C105	C	1.614100	0.275676	0.401773
C106	C	1.506296	0.308071	0.409062
C107	C	1.409381	0.372862	0.344274
C108	C	0.498421	0.981962	-0.264811
C109	C	0.401504	1.046770	-0.329600
C110	C	0.412381	1.079177	-0.401679
C111	C	0.520184	1.046778	-0.408968
C112	C	0.617099	0.981975	-0.344180
C113	C	0.617089	0.981965	0.039723
C114	C	0.520184	1.046773	0.039720
C115	C	0.412377	1.079184	0.000044
C116	C	0.401477	1.046789	-0.039639
C117	C	0.498381	0.981987	-0.039640
C118	C	1.072615	0.981934	-0.264797
C119	C	1.072642	1.046718	-0.329584
C120	C	1.013310	1.079124	-0.401665
C121	C	0.953956	1.046735	-0.408958
C122	C	0.953936	0.981947	-0.344172
H123	H	1.120912	0.399236	-0.071951
H124	H	1.013210	0.222943	0.454551
H125	H	0.905582	0.281687	0.072035
H126	H	0.905599	0.955588	-0.350122
H127	H	1.013336	1.131879	-0.454411
C128	C	0.888615	1.082438	-0.488247
H129	H	0.853241	1.053888	-0.483320
H130	H	0.832483	1.143609	-0.515124
H131	H	0.939796	1.071843	-0.515209
H132	H	1.712746	0.281709	0.323746
C133	C	0.305768	1.150446	-0.472940
H134	H	0.240016	1.165086	-0.458268
H135	H	0.305743	1.201008	-0.502260
H136	H	0.305760	1.129198	-0.502247
H137	H	1.497399	0.281707	-0.071968
C138	C	1.189509	0.677393	-0.404932
H139	H	1.177499	0.677383	-0.448156
H140	H	1.186035	0.728156	-0.419696
H141	H	1.261957	0.626618	-0.368925
H142	H	1.120902	0.073128	-0.071938
C143	C	0.491770	0.824148	-0.130344
H144	H	0.557366	0.824367	-0.130790
H145	H	0.490013	0.796761	-0.153213
H146	H	0.425904	0.882659	-0.157873
H147	H	1.693023	0.222918	0.454522
C148	C	0.532194	1.082387	0.083381
H149	H	0.610280	1.053789	0.107020
H150	H	0.496876	1.143559	0.049144
H151	H	0.496850	1.071766	0.120929
H152	H	0.313688	1.073187	-0.071943
H153	H	0.333480	1.131950	0.000051
C154	C	1.137919	1.082345	-0.321548
H155	H	1.173231	1.053775	-0.269340
H156	H	1.194095	1.071720	-0.345162
H157	H	1.086690	1.143523	-0.345175
H158	H	1.165504	0.677395	-0.604230
C159	C	1.720688	0.204386	0.000014
H160	H	1.698745	0.189737	-0.029298
H161	H	1.764543	0.225610	-0.021226
H162	H	1.764521	0.153823	0.050566
C163	C	1.743593	0.272394	0.083354
H164	H	1.799736	0.229160	0.077668
H165	H	1.752120	0.318896	0.063774
H166	H	1.752094	0.247102	0.135558
H167	H	0.905574	0.399248	0.072030
H168	H	0.489489	0.955615	-0.071948
H169	H	0.446428	0.659122	0.111976
C170	C	1.540105	0.408456	0.083385
H171	H	1.618192	0.379863	0.107016
H172	H	1.504775	0.469629	0.049153
H173	H	1.504776	0.397821	0.120940
H174	H	0.529027	1.073171	-0.467663
C175	C	0.427089	0.676134	-0.117498
H176	H	0.465450	0.694168	-0.150371
H177	H	0.420029	0.636609	-0.121238
H178	H	0.353830	0.725853	-0.131613
H179	H	1.120918	0.281680	-0.071939
C180	C	1.189471	0.677400	-0.731047
H181	H	1.239454	0.677404	-0.702478
H182	H	1.230919	0.626633	-0.730942
H183	H	1.154993	0.728171	-0.781708
H184	H	1.120900	-0.044428	-0.071936
H185	H	0.521755	0.560047	-0.002775
H186	H	0.905553	-0.044409	0.072040
C187	C	1.290817	0.408504	-0.083286
H188	H	1.298219	0.379937	-0.106927
H189	H	1.250534	0.397886	-0.049046
H190	H	1.250553	0.469682	-0.120833
H191	H	1.120877	0.399261	0.350187
C192	C	0.735665	0.946335	-0.352209
H193	H	0.728251	0.974913	-0.404417
H194	H	0.775959	0.956942	-0.328583
H195	H	0.775924	0.885160	-0.328592
C196	C	1.494346	0.272414	0.488351
H197	H	1.567509	0.229181	0.525886
H198	H	1.454079	0.318918	0.494052
H199	H	1.454093	0.247123	0.494035
C200	C	1.137888	0.946293	-0.185515
H201	H	1.129377	0.903073	-0.147968
H202	H	1.215962	0.921010	-0.179832
H203	H	1.108580	0.992815	-0.179831
C204	C	0.888605	0.272430	0.321719
H205	H	0.897122	0.229199	0.370636
H206	H	0.810528	0.318933	0.294798
H207	H	0.917935	0.247135	0.294807
C208	C	0.735666	0.946326	0.083367
H209	H	0.791829	0.903087	0.077694
H210	H	0.744166	0.992842	0.063770
H211	H	0.744161	0.921050	0.135569
C212	C	0.492872	0.823843	-0.016249
H213	H	0.426286	0.844500	-0.003103
H214	H	0.557784	0.786064	0.027508
H215	H	0.493170	0.872127	-0.053620
C216	C	0.282933	1.082396	-0.321573
H217	H	0.226763	1.125640	-0.370478
H218	H	0.274436	1.035878	-0.294657
H219	H	0.274445	1.107665	-0.294640
C220	C	1.290813	0.408479	0.352298
H221	H	1.234642	0.451712	0.303394
H222	H	1.282330	0.361954	0.379225
H223	H	1.282314	0.433760	0.379222
C224	C	0.314915	0.824152	-0.016144
H225	H	0.303610	0.787360	0.026394
H226	H	0.352517	0.842522	-0.001124
H227	H	0.243615	0.873948	-0.054261
H228	H	0.905570	0.073127	0.072048
H229	H	0.332846	0.810749	-0.108301
H230	H	0.605012	0.662877	-0.095216
C231	C	0.708603	0.534512	0.009748
H232	H	0.755825	0.522901	0.050221
H233	H	0.685970	0.495884	0.029607
H234	H	0.749257	0.525969	-0.023020
C235	C	1.137831	0.272476	0.488327
H236	H	1.129325	0.229257	0.525882
H237	H	1.215904	0.247194	0.494007
H238	H	1.108521	0.319004	0.494002
C239	C	0.888598	0.408487	0.185639
H240	H	0.853269	0.379900	0.190596
H241	H	0.832437	0.469661	0.158702
H242	H	0.939831	0.397850	0.158717
H243	H	0.601903	0.664969	0.108757
C244	C	0.709346	0.535688	0.134704
H245	H	0.757896	0.523692	0.106625
H246	H	0.747962	0.528866	0.175631
H247	H	0.688140	0.496166	0.153966
H248	H	0.523891	0.557792	0.118484
H249	H	0.860963	0.677419	-0.604228
C250	C	0.836984	0.677403	-0.731025
H251	H	0.787015	0.677389	-0.702438
H252	H	0.795515	0.728161	-0.781685
H253	H	0.871484	0.626623	-0.730905
H254	H	0.860980	0.677422	-0.395673
H255	H	1.536937	0.399239	0.206220
H256	H	1.165537	0.677399	-0.278127
C257	C	0.837011	0.677418	-0.268861
H258	H	0.849037	0.677408	-0.225627
H259	H	0.764565	0.728187	-0.304861
H260	H	0.840492	0.626648	-0.254097
H261	H	0.489543	0.955581	-0.206127
