data_functionalizedCrystal
_audit_creation_method	'MofGen! by Chris Wilmer'
_symmetry_space_group_name_H-M	'P1'
_symmetry_Int_Tables_number	1
_symmetry_cell_setting	triclinic
loop_
_symmetry_equiv_pos_as_xyz
  x,y,z
_cell_length_a	19.121102
_cell_length_b	25.639239
_cell_length_c	19.120904
_cell_angle_alpha	92.410104
_cell_angle_beta	90.088173
_cell_angle_gamma	87.592882
loop_
_atom_site_label
_atom_site_type_symbol
_atom_site_fract_x
_atom_site_fract_y
_atom_site_fract_z
Zn1	Zn	1.054765	-0.255751	-0.442042
Zn2	Zn	1.059658	-0.339618	-0.324799
Zn3	Zn	0.942536	-0.248315	-0.319827
Zn4	Zn	0.937469	-0.339266	-0.437001
O5	O	0.998607	-0.295738	-0.380917
O6	O	1.153518	-0.270136	-0.430680
O7	O	1.048290	-0.324541	-0.226035
O8	O	0.957496	-0.176139	-0.336067
O9	O	1.157113	-0.331752	-0.344542
O10	O	1.039950	-0.181603	-0.425859
O11	O	0.962241	-0.257461	-0.222382
O12	O	0.843760	-0.257121	-0.331180
O13	O	0.948861	-0.331153	-0.535775
O14	O	0.840037	-0.323942	-0.417267
O15	O	1.035037	-0.269795	-0.539478
O16	O	1.043377	-0.412733	-0.339654
O17	O	0.953605	-0.412475	-0.422089
C18	C	0.816461	-0.289687	-0.373137
C19	C	0.738537	-0.287111	-0.369826
C20	C	0.998491	-0.431575	-0.380880
C21	C	0.998504	-0.489690	-0.380890
C22	C	0.700012	-0.320740	-0.413021
C23	C	0.626794	-0.318313	-0.409912
C24	C	0.592104	-0.282260	-0.363605
C25	C	0.630634	-0.248627	-0.320408
C26	C	0.703850	-0.251052	-0.323520
C27	C	0.371134	-0.273194	-0.351972
C28	C	0.297913	-0.270773	-0.348862
C29	C	0.294078	-0.340458	-0.438367
C30	C	0.367296	-0.342882	-0.441472
C31	C	0.405820	-0.309247	-0.398278
C32	C	0.517264	-0.279779	-0.360425
C33	C	0.480658	-0.311726	-0.401462
C34	C	1.045465	-0.850185	-0.338075
C35	C	1.045491	-0.904791	-0.338085
O36	O	1.085298	-0.933135	-0.301642
N37	N	0.998728	-0.931982	-0.380969
C38	C	0.951940	-0.904565	-0.423850
O39	O	0.912167	-0.932708	-0.460327
C40	C	0.951917	-0.849961	-0.423843
C41	C	0.998679	-0.822772	-0.380951
C42	C	1.092223	-0.822997	-0.295188
C43	C	1.092195	-0.768395	-0.295176
C44	C	1.045409	-0.740982	-0.338052
C45	C	0.998651	-0.768171	-0.380940
C46	C	0.905133	-0.822546	-0.466727
C47	C	0.905115	-0.767938	-0.466716
C48	C	0.951876	-0.740749	-0.423825
C49	C	0.951837	-0.686156	-0.423805
N50	N	0.998600	-0.658965	-0.380921
C51	C	1.045386	-0.686378	-0.338045
C52	C	0.951992	-1.019238	-0.423863
C53	C	0.952011	-1.073841	-0.423867
C54	C	1.045564	-1.074063	-0.338103
C55	C	1.045541	-1.019459	-0.338096
C56	C	0.998756	-0.992047	-0.380980
C57	C	1.045324	-0.571710	-0.338024
C58	C	1.045290	-0.517103	-0.338014
C59	C	0.951740	-0.516886	-0.423780
C60	C	0.951771	-0.571488	-0.423788
C61	C	0.998569	-0.598899	-0.380907
O62	O	0.912052	-0.657777	-0.460232
O63	O	1.085159	-0.658229	-0.301581
C64	C	1.181464	-0.301813	-0.388728
C65	C	1.259387	-0.304401	-0.392057
C66	C	0.990838	-0.301264	-0.563775
C67	C	0.987527	-0.303619	-0.641698
C68	C	0.998742	-0.159371	-0.380971
C69	C	0.998800	-0.101259	-0.380993
C70	C	1.030837	-0.272781	-0.680236
C71	C	1.027718	-0.274992	-0.753453
C72	C	0.981292	-0.308044	-0.788130
C73	C	0.937977	-0.338883	-0.749587
C74	C	0.941093	-0.336669	-0.676372
C75	C	0.969635	-0.316324	-1.009097
C76	C	0.966523	-0.318536	-1.082318
C77	C	1.056263	-0.254644	-1.086178
C78	C	1.059378	-0.252436	-1.012961
C79	C	1.016061	-0.283273	-0.974424
C80	C	0.978104	-0.310306	-0.862970
C81	C	1.019246	-0.281008	-0.899586
C82	C	1.006386	-0.290196	-0.198772
C83	C	1.009833	-0.287698	-0.120856
H84	H	0.595430	-0.345698	-0.445086
C85	C	0.891264	-0.709040	-0.560588
C86	C	0.853686	-0.737807	-0.513856
H87	H	0.859513	-0.690442	-0.589691
H88	H	0.919099	-0.685033	-0.535044
H89	H	0.920657	-0.732140	-0.588732
H90	H	0.824296	-0.714707	-0.485709
H91	H	0.825839	-0.761817	-0.539403
C92	C	1.184677	-0.774116	-0.210418
C93	C	1.143607	-0.738514	-0.248039
H94	H	1.216423	-0.755671	-0.181322
H95	H	1.155304	-0.793616	-0.182274
H96	H	1.210167	-0.797201	-0.242146
H97	H	1.118113	-0.715432	-0.216311
H98	H	1.172985	-0.719005	-0.276185
C99	C	1.187029	-0.887122	-0.289609
C100	C	1.143704	-0.853104	-0.248080
H101	H	1.218828	-0.905697	-0.260530
H102	H	1.159192	-0.911150	-0.315115
H103	H	1.212460	-0.867586	-0.321341
H104	H	1.118269	-0.872640	-0.216351
H105	H	1.171544	-0.829073	-0.222563
C106	C	0.445638	-0.355827	-0.539261
C107	C	0.405423	-0.382509	-0.492382
H108	H	0.469178	-0.380293	-0.570687
H109	H	0.415956	-0.332948	-0.564914
H110	H	0.479062	-0.336149	-0.513972
H111	H	0.371996	-0.402183	-0.517670
H112	H	0.435107	-0.405396	-0.466726
H113	H	0.262704	-0.367840	-0.473534
C114	C	0.889718	-0.373245	-0.851806
C115	C	0.927076	-0.346639	-0.901090
H116	H	0.858213	-0.395673	-0.875343
H117	H	0.921458	-0.393395	-0.824551
H118	H	0.864137	-0.348709	-0.822109
H119	H	0.952661	-0.371175	-0.930784
H120	H	0.895332	-0.326488	-0.928357
H121	H	1.097185	-0.225523	-0.984732
C122	C	0.852097	-0.400061	-0.679906
C123	C	0.893498	-0.370577	-0.634009
H124	H	0.822717	-0.420997	-0.653752
H125	H	0.824081	-0.377256	-0.707319
H126	H	0.881417	-0.421931	-0.709768
H127	H	0.864178	-0.348704	-0.604150
H128	H	0.921517	-0.393384	-0.606585
H129	H	0.728252	-0.350100	-0.450727
H130	H	1.083618	-0.997325	-0.303171
C131	C	1.034018	-0.207467	-0.836214
C132	C	1.075322	-0.241087	-0.795806
H133	H	1.063408	-0.186530	-0.862355
H134	H	1.005934	-0.227467	-0.867348
H135	H	1.004709	-0.185599	-0.806340
H136	H	1.104628	-0.262958	-0.825681
H137	H	1.103419	-0.221086	-0.764669
C138	C	0.938125	-0.960345	-0.517739
C139	C	0.900554	-0.989109	-0.470998
H140	H	0.906368	-0.941750	-0.546840
H141	H	0.965961	-0.936335	-0.492201
H142	H	0.967516	-0.983445	-0.545883
H143	H	0.871166	-0.966008	-0.442849
H144	H	0.872706	-1.013122	-0.496538
H145	H	1.091528	-0.229538	-1.117562
H146	H	0.913927	-1.095973	-0.458787
H147	H	1.057043	-0.254095	-0.871348
C148	C	1.087221	-1.157877	-0.300137
C149	C	1.097053	-1.104206	-0.291037
H150	H	1.119026	-1.176487	-0.271102
H151	H	1.040595	-1.165008	-0.287771
H152	H	1.095387	-1.168535	-0.347709
H153	H	1.088882	-1.093548	-0.243466
H154	H	1.143690	-1.097072	-0.303398
C155	C	0.878119	-0.381465	-1.071152
C156	C	0.915485	-0.354867	-1.120437
H157	H	0.846611	-0.403891	-1.094687
H158	H	0.909854	-0.401616	-1.043893
H159	H	0.852542	-0.356925	-1.041458
H160	H	0.941067	-0.379407	-1.150128
H161	H	0.883745	-0.334715	-1.147708
H162	H	0.269669	-0.241408	-0.311157
C163	C	0.559007	-0.324674	-0.499240
C164	C	0.518790	-0.351355	-0.452361
H165	H	0.582555	-0.349142	-0.530658
H166	H	0.529326	-0.301802	-0.524902
H167	H	0.592424	-0.304991	-0.473951
H168	H	0.485370	-0.371035	-0.477650
H169	H	0.548474	-0.374236	-0.426696
H170	H	0.934373	-0.341441	-0.977730
C171	C	0.438901	-0.266827	-0.262653
C172	C	0.479123	-0.240149	-0.309529
H173	H	0.415355	-0.242359	-0.231234
H174	H	0.405488	-0.286508	-0.287939
H175	H	0.468584	-0.289703	-0.236985
H176	H	0.449439	-0.217276	-0.335200
H177	H	0.512539	-0.220460	-0.284239
C178	C	0.552289	-0.235674	-0.222624
C179	C	0.592503	-0.208995	-0.269508
H180	H	0.528754	-0.211205	-0.191197
H181	H	0.518869	-0.255351	-0.247904
H182	H	0.581977	-0.258552	-0.196965
H183	H	0.562815	-0.186119	-0.295170
H184	H	0.625927	-0.189309	-0.244225
C185	C	0.812677	-0.816819	-0.551512
C186	C	0.853735	-0.852422	-0.513880
H187	H	0.780948	-0.835265	-0.580628
H188	H	0.787174	-0.793742	-0.519796
H189	H	0.842065	-0.797312	-0.579643
H190	H	0.824347	-0.871927	-0.485746
H191	H	0.879239	-0.875509	-0.545600
H192	H	0.402492	-0.245810	-0.316795
C193	C	0.859300	-0.565782	-0.508564
C194	C	0.900371	-0.601377	-0.470934
H195	H	0.827575	-0.584233	-0.537678
H196	H	0.833793	-0.542707	-0.476848
H197	H	0.888681	-0.546270	-0.536697
H198	H	0.870991	-0.620886	-0.442797
H199	H	0.925880	-0.624461	-0.502654
H200	H	0.735217	-0.223665	-0.288350
H201	H	1.068644	-0.245869	-0.652007
H202	H	0.913645	-0.494558	-0.458687
C203	C	1.137769	-0.522816	-0.253242
C204	C	1.096696	-0.487218	-0.290868
H205	H	1.169507	-0.504366	-0.224141
H206	H	1.108397	-0.542320	-0.225103
H207	H	1.163269	-0.545897	-0.284967
H208	H	1.071193	-0.464139	-0.259143
H209	H	1.126073	-0.467705	-0.319009
H210	H	1.083432	-0.594021	-0.303108
H211	H	0.900174	-0.365793	-0.777828
