data_functionalizedCrystal
_audit_creation_method	'MofGen! by Chris Wilmer'
_symmetry_space_group_name_H-M	'P1'
_symmetry_Int_Tables_number	1
_symmetry_cell_setting	triclinic
loop_
_symmetry_equiv_pos_as_xyz
  x,y,z
_cell_length_a	14.519709
_cell_length_b	14.519731
_cell_length_c	13.330367
_cell_angle_alpha	90.007646
_cell_angle_beta	89.994415
_cell_angle_gamma	96.315501
loop_
_atom_site_label
_atom_site_type_symbol
_atom_site_fract_x
_atom_site_fract_y
_atom_site_fract_z
O1	O	0.120984	-1.223860	-0.083428
O2	O	0.135200	-0.955385	-0.083430
O3	O	-0.006146	-1.096741	-0.083420
O4	O	0.262330	-1.082504	-0.083438
O5	O	-0.006149	-1.096720	0.083427
O6	O	0.135197	-0.955365	0.083417
O7	O	0.120981	-1.223839	0.083419
Cu8	Cu	0.128089	-1.089600	0.098653
Cu9	Cu	0.128092	-1.089624	-0.098663
O10	O	0.262327	-1.082484	0.083409
C11	C	-0.040507	-1.096067	0.000004
C12	C	-0.142889	-1.094079	0.000005
C13	C	0.134532	-0.921016	-0.000006
C14	C	0.132536	-0.818635	-0.000007
C15	C	0.121649	-1.258209	-0.000006
C16	C	0.123645	-1.360589	-0.000013
C17	C	-0.517785	-1.086759	-0.000022
C18	C	-0.413477	-1.088792	-0.000014
C19	C	-0.330340	-1.090419	-0.000008
C20	C	-0.226025	-1.092452	-0.000002
C21	C	0.296688	-1.083157	-0.000017
C22	C	0.399070	-1.085146	-0.000024
C23	C	0.130915	-0.735491	-0.000011
C24	C	0.128888	-0.631182	-0.000011
C25	C	0.127280	-0.548043	-0.000011
C26	C	0.125253	-0.443728	-0.000013
N27	N	0.128085	-1.089590	0.237434
N28	N	0.128088	-1.089642	-0.237445
C29	C	0.190656	-1.027029	0.710053
C30	C	0.065522	-1.152244	0.710030
C31	C	0.065519	-1.152234	0.605011
C32	C	0.128086	-1.089621	0.552509
C33	C	0.190657	-1.027019	0.605025
C34	C	0.002956	-1.214841	0.552488
C35	C	0.002952	-1.214834	0.447463
C36	C	0.065515	-1.152216	0.394958
C37	C	0.128087	-1.089611	0.447481
C38	C	0.190655	-1.026998	0.394978
C39	C	0.253223	-0.964387	0.447499
C40	C	0.253220	-0.964401	0.552520
C41	C	0.065518	-1.152202	0.289937
C42	C	0.190656	-1.026988	0.289950
H43	H	0.241603	-0.975997	0.247209
H44	H	-0.047980	-1.265823	0.595238
H45	H	0.304170	-0.913412	0.404739
H46	H	0.304162	-0.913427	0.595289
H47	H	-0.047995	-1.265813	0.404707
H48	H	0.241596	-0.976050	0.752818
H49	H	0.014586	-1.203226	0.752780
H50	H	0.014580	-1.203183	0.247179
