data_functionalizedCrystal
_audit_creation_method	'MofGen! by Chris Wilmer'
_symmetry_space_group_name_H-M	'P1'
_symmetry_Int_Tables_number	1
_symmetry_cell_setting	triclinic
loop_
_symmetry_equiv_pos_as_xyz
  x,y,z
_cell_length_a	15.711784
_cell_length_b	16.992695
_cell_length_c	15.455313
_cell_angle_alpha	87.152573
_cell_angle_beta	86.521979
_cell_angle_gamma	74.871488
loop_
_atom_site_label
_atom_site_type_symbol
_atom_site_fract_x
_atom_site_fract_y
_atom_site_fract_z
O1	O	1.180870	-0.436352	-0.072176
O2	O	1.680870	0.063648	0.427824
O3	O	0.924998	-0.375440	-0.072169
O4	O	1.424998	0.124560	0.427831
O5	O	1.051908	-0.291460	-0.072166
O6	O	1.551908	0.208540	0.427834
O7	O	1.053960	-0.520333	-0.072179
O8	O	1.553960	-0.020333	0.427821
O9	O	1.044649	-0.296233	0.072096
O10	O	1.544649	0.203767	0.572096
O11	O	0.917739	-0.380214	0.072093
O12	O	1.417739	0.119786	0.572093
O13	O	1.173611	-0.441126	0.072086
O14	O	1.673611	0.058874	0.572086
Cu15	Cu	1.045012	-0.411106	0.085262
Cu16	Cu	1.545012	0.088894	0.585262
Cu17	Cu	1.053597	-0.405460	-0.085345
Cu18	Cu	1.553597	0.094540	0.414655
O19	O	1.046701	-0.525106	0.072083
O20	O	1.546701	-0.025106	0.572083
C21	C	0.888477	-0.367877	-0.000037
C22	C	1.388477	0.132123	0.499963
C23	C	0.790470	-0.338218	-0.000033
C24	C	1.290470	0.161782	0.499967
C25	C	0.657809	-0.226563	-0.000026
C26	C	1.157809	0.273437	0.499974
C27	C	0.749901	-0.254440	-0.000028
C28	C	1.249901	0.245560	0.499972
C29	C	0.738956	-0.394152	-0.000040
C30	C	1.238956	0.105848	0.499960
C31	C	0.646861	-0.366286	-0.000042
C32	C	1.146861	0.133714	0.499958
C33	C	0.606295	-0.282491	-0.000034
C34	C	1.106295	0.217509	0.499966
C35	C	0.595348	-0.422215	-0.000050
C36	C	1.095348	0.077785	0.499950
C37	C	0.503261	-0.394351	-0.000047
C38	C	1.003261	0.105649	0.499953
C39	C	0.462688	-0.310560	-0.000036
C40	C	0.962688	0.189440	0.499964
C41	C	0.514208	-0.254628	-0.000031
C42	C	1.014208	0.245372	0.499969
C43	C	0.635915	-0.506010	-0.000052
C44	C	1.135915	-0.006010	0.499948
C45	C	0.584401	-0.561938	-0.000060
C46	C	1.084401	-0.061938	0.499940
C47	C	0.492313	-0.534075	-0.000063
C48	C	0.992313	-0.034075	0.499937
C49	C	0.451740	-0.450283	-0.000052
C50	C	0.951740	0.049717	0.499948
C51	C	0.440793	-0.590006	-0.000068
C52	C	0.940793	-0.090006	0.499932
C53	C	0.348706	-0.562143	-0.000066
C54	C	0.848706	-0.062143	0.499934
C55	C	0.359653	-0.422420	-0.000049
C56	C	0.859653	0.077580	0.499951
C57	C	1.045640	-0.263877	-0.000035
C58	C	1.545640	0.236123	0.499965
C59	C	1.037765	-0.174574	-0.000035
C60	C	1.537765	0.325426	0.499965
C61	C	1.210132	-0.448689	-0.000048
C62	C	1.710132	0.051311	0.499952
C63	C	1.308140	-0.478348	-0.000057
C64	C	1.808140	0.021652	0.499943
C65	C	1.052970	-0.552689	-0.000050
C66	C	1.552970	-0.052689	0.499950
C67	C	1.060844	-0.641992	-0.000056
C68	C	1.560844	-0.141992	0.499944
N69	N	1.038980	-0.415077	0.205257
N70	N	1.538980	0.084923	0.705257
C71	C	1.113740	-0.146126	-0.000036
C72	C	1.613740	0.353874	0.499964
C73	C	1.106337	-0.062215	-0.000044
C74	C	1.606337	0.437785	0.499956
C75	C	1.022957	-0.006755	-0.000044
C76	C	1.522957	0.493245	0.499956
C77	C	0.946977	-0.035207	-0.000046
C78	C	1.446977	0.464793	0.499954
C79	C	0.954381	-0.119116	-0.000044
C80	C	1.454381	0.380884	0.499956
C81	C	0.992268	0.245646	-0.000055
C82	C	1.492268	0.745646	0.499945
C83	C	0.984869	0.329560	-0.000055
C84	C	1.484869	0.829560	0.499945
C85	C	1.144230	0.302546	-0.000055
C86	C	1.644230	0.802546	0.499945
C87	C	1.151627	0.218637	-0.000048
C88	C	1.651627	0.718637	0.499952
C89	C	1.075647	0.190191	-0.000053
C90	C	1.575647	0.690191	0.499947
N91	N	1.015388	0.079016	-0.000050
N92	N	1.515388	0.579016	0.499950
N93	N	1.083218	0.104423	-0.000054
N94	N	1.583218	0.604423	0.499946
N95	N	1.059635	-0.401484	-0.205340
N96	N	1.559635	0.098516	0.294660
C97	C	1.092917	-0.379424	0.250652
C98	C	1.592917	0.120576	0.750652
C99	C	1.088365	-0.382438	0.341460
C100	C	1.588365	0.117562	0.841460
C101	C	1.029878	-0.421110	0.386871
C102	C	1.529878	0.078890	0.886871
C103	C	0.975935	-0.456763	0.341469
C104	C	1.475935	0.043237	0.841469
C105	C	0.980484	-0.453744	0.250663
C106	C	1.480484	0.046256	0.750663
C107	C	1.010242	-0.434119	0.658452
C108	C	1.510242	0.065881	1.158452
C109	C	1.005698	-0.437137	0.749264
C110	C	1.505698	0.062863	1.249264
C111	C	1.118127	-0.362810	0.749249
C112	C	1.618127	0.137190	1.249249
C113	C	1.122675	-0.359799	0.658441
C114	C	1.622675	0.140201	1.158441
C115	C	1.068728	-0.395449	0.613048
C116	C	1.568728	0.104551	1.113048
N117	N	1.025225	-0.424193	0.479691
N118	N	1.525225	0.075807	0.979691
N119	N	1.073378	-0.392360	0.520229
N120	N	1.573378	0.107640	1.020229
H121	H	0.617443	-0.630165	-0.000063
H122	H	1.117443	-0.130165	0.499937
H123	H	0.928310	-0.488247	0.378448
H124	H	1.428310	0.011753	0.878448
H125	H	1.206089	0.325717	-0.000052
H126	H	1.706089	0.825717	0.499948
O127	O	0.782718	-0.484527	-0.000051
O128	O	1.282718	0.015473	0.499949
H129	H	0.759464	-0.514626	0.058747
H130	H	1.259464	-0.014626	0.558747
H131	H	0.892514	-0.142277	-0.000043
H132	H	1.392514	0.357723	0.499957
O133	O	0.922315	-0.492203	0.201694
O134	O	1.422315	0.007797	0.701694
H135	H	0.880888	-0.519609	0.248524
H136	H	1.380888	-0.019609	0.748524
H137	H	0.958070	-0.468631	0.786234
H138	H	1.458070	0.031369	1.286234
O139	O	0.894935	0.389385	-0.000065
O140	O	1.394935	0.889385	0.499935
H141	H	0.843345	0.355509	-0.000078
H142	H	1.343345	0.855509	0.499922
H143	H	1.170299	-0.328309	0.621470
H144	H	1.670299	0.171691	1.121470
H145	H	0.306762	-0.607686	-0.000068
H146	H	0.806762	-0.107686	0.499932
O147	O	0.952068	-0.472582	0.609501
O148	O	1.452068	0.027418	1.109501
H149	H	0.908945	-0.425219	0.568153
H150	H	1.408945	0.074781	1.068153
H151	H	1.181637	-0.191278	-0.000030
H152	H	1.681637	0.308722	0.499970
H153	H	0.473835	-0.658233	-0.000067
H154	H	0.973835	-0.158233	0.499933
H155	H	1.132284	-0.353406	0.378421
H156	H	1.632284	0.146594	0.878421
H157	H	0.710898	-0.528694	-0.000051
H158	H	1.210898	-0.028694	0.499949
O159	O	1.155992	-0.337696	0.201688
O160	O	1.655992	0.162304	0.701688
H161	H	1.118246	-0.286778	0.160339
H162	H	1.618246	0.213222	0.660339
O163	O	0.805470	-0.194117	-0.000021
O164	O	1.305470	0.305883	0.499979
H165	H	0.793388	-0.153325	-0.058818
H166	H	1.293388	0.346675	0.441182
O167	O	1.188280	-0.031529	-0.000031
O168	O	1.688280	0.468471	0.499969
H169	H	1.247501	-0.084192	-0.000015
H170	H	1.747501	0.415808	0.499985
O171	O	0.614050	-0.136182	-0.000018
O172	O	1.114050	0.363818	0.499982
H173	H	0.541362	-0.126207	-0.000020
H174	H	1.041362	0.373793	0.499980
O175	O	1.176303	-0.324351	0.798207
O176	O	1.676303	0.175649	1.298207
H177	H	1.163311	-0.332939	0.868979
H178	H	1.663311	0.167061	1.368979
H179	H	0.879087	0.009956	-0.000051
H180	H	1.379087	0.509956	0.499949
O181	O	0.315889	-0.332039	-0.000038
O182	O	0.815889	0.167961	0.499962
H183	H	0.339145	-0.301936	-0.058831
H184	H	0.839145	0.198064	0.441169
O185	O	0.363364	-0.280506	-0.000025
O186	O	0.863364	0.219494	0.499975
H187	H	0.343812	-0.212844	-0.000009
H188	H	0.843812	0.287156	0.499991
O189	O	0.470447	-0.164247	-0.000019
O190	O	0.970447	0.335753	0.499981
H191	H	0.431716	-0.146263	-0.058818
H192	H	0.931716	0.353737	0.441182
O193	O	1.241559	0.158818	-0.000068
O194	O	1.741559	0.658818	0.499932
H195	H	1.293148	0.192698	-0.000084
H196	H	1.793148	0.692698	0.499916
H197	H	0.930399	0.222497	-0.000060
H198	H	1.430399	0.722497	0.499940
