data_functionalizedCrystal
_audit_creation_method	'MofGen! by Chris Wilmer'
_symmetry_space_group_name_H-M	'P1'
_symmetry_Int_Tables_number	1
_symmetry_cell_setting	triclinic
loop_
_symmetry_equiv_pos_as_xyz
  x,y,z
_cell_length_a	19.188933
_cell_length_b	19.188930
_cell_length_c	16.098524
_cell_angle_alpha	93.077942
_cell_angle_beta	93.071463
_cell_angle_gamma	83.145175
loop_
_atom_site_label
_atom_site_type_symbol
_atom_site_fract_x
_atom_site_fract_y
_atom_site_fract_z
O1	O	0.928922	0.089951	0.069239
O2	O	1.262255	0.423285	0.402572
O3	O	1.595588	0.756618	0.735905
O4	O	0.725611	0.101685	0.069248
O5	O	1.058944	0.435018	0.402581
O6	O	1.392278	0.768351	0.735914
O7	O	0.833133	-0.005838	0.069227
O8	O	1.166466	0.327495	0.402560
O9	O	1.499799	0.660828	0.735893
O10	O	0.821400	0.197474	0.069260
O11	O	1.154733	0.530808	0.402593
O12	O	1.488067	0.864141	0.735926
O13	O	0.827566	-0.011398	-0.069288
O14	O	1.160900	0.321935	0.264046
O15	O	1.494233	0.655269	0.597379
O16	O	0.720045	0.096125	-0.069267
O17	O	1.053378	0.429458	0.264067
O18	O	1.386711	0.762792	0.597400
O19	O	0.923355	0.084392	-0.069276
O20	O	1.256689	0.417725	0.264058
O21	O	1.590022	0.751058	0.597391
Zn22	Zn	0.820816	0.089376	-0.091263
Zn23	Zn	1.154150	0.422709	0.242070
Zn24	Zn	1.487483	0.756042	0.575404
Zn25	Zn	0.828150	0.096701	0.091235
Zn26	Zn	1.161483	0.430034	0.424568
Zn27	Zn	1.494817	0.763367	0.757902
O28	O	0.815834	0.191915	-0.069255
O29	O	1.149167	0.525248	0.264079
O30	O	1.482500	0.858581	0.597412
C31	C	0.696817	0.098525	-0.000009
C32	C	1.030150	0.431858	0.333325
C33	C	1.363484	0.765191	0.666658
C34	C	0.619313	0.097384	-0.000006
C35	C	0.952646	0.430717	0.333327
C36	C	1.285979	0.764050	0.666661
C37	C	0.069091	0.092269	0.075488
C38	C	0.402424	0.425602	0.408821
C39	C	0.735758	0.758935	0.742155
C40	C	0.141915	0.093337	0.075491
C41	C	0.475249	0.426670	0.408825
C42	C	0.808582	0.760003	0.742158
C43	C	0.175298	0.090844	-0.000012
C44	C	0.508631	0.424177	0.333321
C45	C	0.841965	0.757510	0.666654
C46	C	0.135853	0.087264	-0.075525
C47	C	0.469186	0.420597	0.257808
C48	C	0.802519	0.753930	0.591142
C49	C	0.063031	0.086189	-0.075526
C50	C	0.396364	0.419522	0.257807
C51	C	0.729697	0.752855	0.591140
N52	N	0.282060	0.130007	-0.056207
N53	N	0.615393	0.463340	0.277127
N54	N	0.948727	0.796673	0.610460
N55	N	0.351238	0.131030	-0.056200
N56	N	0.684571	0.464363	0.277133
N57	N	1.017904	0.797696	0.610466
C58	C	0.394707	0.094081	-0.000013
C59	C	0.728040	0.427415	0.333320
C60	C	1.061373	0.760748	0.666653
N61	N	0.366384	0.056081	0.056180
N62	N	0.699717	0.389414	0.389513
N63	N	1.033051	0.722747	0.722847
N64	N	0.297199	0.055061	0.056176
N65	N	0.630533	0.388394	0.389509
N66	N	0.963866	0.721727	0.722843
C67	C	0.254261	0.092009	-0.000019
C68	C	0.587594	0.425342	0.333314
C69	C	0.920928	0.758675	0.666647
C70	C	0.513108	0.098814	0.075498
C71	C	0.846442	0.432148	0.408832
C72	C	1.179775	0.765481	0.742165
C73	C	0.585935	0.099878	0.075499
C74	C	0.919268	0.433211	0.408832
C75	C	1.252601	0.766545	0.742165
C76	C	0.579870	0.093812	-0.075520
C77	C	0.913203	0.427145	0.257813
C78	C	1.246536	0.760479	0.591147
C79	C	0.507046	0.092741	-0.075518
C80	C	0.840379	0.426075	0.257815
C81	C	1.173712	0.759408	0.591149
C82	C	0.473669	0.095246	-0.000007
C83	C	0.807003	0.428579	0.333327
C84	C	1.140336	0.761913	0.666660
C85	C	0.829970	-0.034629	-0.000033
C86	C	1.163303	0.298704	0.333300
C87	C	1.496636	0.632038	0.666634
C88	C	0.828829	-0.112134	-0.000040
C89	C	1.162162	0.221199	0.333293
C90	C	1.495495	0.554533	0.666627
C91	C	0.891919	-0.157058	-0.000047
C92	C	1.225252	0.176276	0.333287
C93	C	1.558586	0.509609	0.666620
C94	C	0.890848	-0.229881	-0.000033
C95	C	1.224181	0.103452	0.333300
C96	C	1.557515	0.436786	0.666633
C97	C	0.826682	-0.257778	-0.000030
C98	C	1.160015	0.075555	0.333303
C99	C	1.493349	0.408889	0.666637
C100	C	0.763583	-0.212844	-0.000018
C101	C	1.096917	0.120489	0.333315
C102	C	1.430250	0.453823	0.666648
C103	C	0.764657	-0.140022	-0.000024
C104	C	1.097990	0.193311	0.333310
C105	C	1.431323	0.526645	0.666643
N106	N	0.775741	-0.367675	-0.047167
N107	N	1.109074	-0.034342	0.286167
N108	N	1.442407	0.298991	0.619500
N109	N	0.774725	-0.436854	-0.047164
N110	N	1.108059	-0.103520	0.286170
N111	N	1.441392	0.229813	0.619503
C112	C	0.823445	-0.477186	-0.000013
C113	C	1.156778	-0.143853	0.333320
C114	C	1.490111	0.189481	0.666654
N115	N	0.873228	-0.445728	0.047124
N116	N	1.206561	-0.112395	0.380458
N117	N	1.539895	0.220939	0.713791
N118	N	0.874245	-0.376544	0.047118
N119	N	1.207578	-0.043210	0.380451
N120	N	1.540912	0.290123	0.713784
C121	C	0.825511	-0.336740	-0.000024
C122	C	1.158845	-0.003407	0.333309
C123	C	1.492178	0.329927	0.666643
C124	C	0.885378	-0.601073	-0.000004
C125	C	1.218711	-0.267740	0.333329
C126	C	1.552045	0.065593	0.666663
C127	C	0.884305	-0.673898	0.000015
C128	C	1.217638	-0.340564	0.333348
C129	C	1.550971	-0.007231	0.666681
C130	C	0.757038	-0.656859	0.000021
C131	C	1.090371	-0.323526	0.333354
C132	C	1.423705	0.009807	0.666688
C133	C	0.758114	-0.584037	0.000011
C134	C	1.091447	-0.250703	0.333344
C135	C	1.424780	0.082630	0.666678
C136	C	0.822285	-0.556148	-0.000006
C137	C	1.155619	-0.222815	0.333328
C138	C	1.488952	0.110518	0.666661
C139	C	0.952150	0.087552	-0.000018
C140	C	1.285483	0.420885	0.333316
C141	C	1.618816	0.754219	0.666649
C142	C	1.029654	0.088693	-0.000015
C143	C	1.362987	0.422027	0.333319
C144	C	1.696321	0.755360	0.666652
C145	C	0.818997	0.220706	0.000007
C146	C	1.152330	0.554039	0.333340
C147	C	1.485664	0.887372	0.666673
C148	C	0.820138	0.298211	0.000019
C149	C	1.153471	0.631544	0.333353
C150	C	1.486805	0.964877	0.666686
N151	N	0.815816	0.084376	-0.215813
N152	N	1.149149	0.417709	0.117520
N153	N	1.482483	0.751043	0.450853
C154	C	0.856281	0.124871	-0.259390
C155	C	1.189615	0.458204	0.073943
C156	C	1.522948	0.791538	0.407277
C157	C	0.852793	0.121369	-0.346580
C158	C	1.186126	0.454702	-0.013246
C159	C	1.519460	0.788036	0.320087
C160	C	0.808835	0.077375	-0.390191
C161	C	1.142169	0.410708	-0.056858
C162	C	1.475502	0.744042	0.276475
C163	C	0.768369	0.036876	-0.346609
C164	C	1.101702	0.370209	-0.013275
C165	C	1.435035	0.703542	0.320058
C166	C	0.771861	0.040374	-0.259420
C167	C	1.105194	0.373708	0.073913
C168	C	1.438528	0.707041	0.407246
C169	C	0.796182	0.064694	-0.653444
C170	C	1.129515	0.398027	-0.320111
C171	C	1.462848	0.731361	0.013223
C172	C	0.792691	0.061200	-0.740638
C173	C	1.126024	0.394533	-0.407305
C174	C	1.459357	0.727867	-0.073971
C175	C	0.877116	0.145693	-0.740603
C176	C	1.210450	0.479026	-0.407270
C177	C	1.543783	0.812359	-0.073936
C178	C	0.880602	0.149191	-0.653413
C179	C	1.213935	0.482524	-0.320080
C180	C	1.547269	0.815857	0.013253
C181	C	0.840138	0.108688	-0.609838
C182	C	1.173471	0.442022	-0.276505
C183	C	1.506805	0.775355	0.056828
C184	C	0.805267	0.073796	-0.479313
C185	C	1.138600	0.407129	-0.145980
C186	C	1.471934	0.740463	0.187354
C187	C	0.843711	0.112264	-0.520718
C188	C	1.177044	0.445598	-0.187385
C189	C	1.510377	0.778931	0.145949
N190	N	0.833156	0.101695	0.215785
N191	N	1.166489	0.435028	0.549119
N192	N	1.499822	0.768362	0.882452
H193	H	0.174030	0.096252	0.136977
H194	H	0.507364	0.429586	0.470310
H195	H	0.840697	0.762919	0.803643
O196	O	0.954216	-0.129883	0.000058
O197	O	1.287549	0.203451	0.333392
O198	O	1.620882	0.536784	0.666725
C199	C	0.961538	-0.085396	0.071806
C200	C	1.294872	0.247938	0.405139
C201	C	1.628205	0.581271	0.738473
H202	H	0.907414	-0.066124	0.095725
H203	H	1.240748	0.267210	0.429058
H204	H	1.574081	0.600543	0.762392
H205	H	0.988580	-0.038444	0.055670
H206	H	1.321913	0.294889	0.389003
H207	H	1.655247	0.628222	0.722337
H208	H	0.994542	-0.115644	0.122038
H209	H	1.327875	0.217689	0.455372
H210	H	1.661208	0.551022	0.788705
O211	O	0.696892	-0.540293	0.000046
O212	O	1.030225	-0.206960	0.333379
O213	O	1.363559	0.126374	0.666713
C214	C	0.711597	-0.470038	0.000019
C215	C	1.044930	-0.136705	0.333353
C216	C	1.378264	0.196629	0.666686
H217	H	0.767484	-0.466356	0.026238
H218	H	1.100817	-0.133023	0.359571
H219	H	1.434150	0.200310	0.692905
H220	H	0.672984	-0.435301	0.040235
H221	H	1.006317	-0.101968	0.373568
H222	H	1.339651	0.231366	0.706902
H223	H	0.706214	-0.451646	-0.066434
H224	H	1.039548	-0.118313	0.266899
H225	H	1.372881	0.215020	0.600233
H226	H	0.607049	0.091779	-0.136997
H227	H	0.940383	0.425113	0.196337
H228	H	1.273716	0.758446	0.529670
H229	H	0.885746	0.154343	-0.382056
H230	H	1.219079	0.487676	-0.048722
H231	H	1.552412	0.821010	0.284611
O232	O	0.036603	0.094598	0.148783
O233	O	0.369936	0.427931	0.482116
O234	O	0.703270	0.761264	0.815450
C235	C	0.002772	0.033692	0.153304
C236	C	0.336105	0.367026	0.486637
C237	C	0.669438	0.700359	0.819970
H238	H	-0.008070	0.010741	0.087744
H239	H	0.325263	0.344074	0.421077
H240	H	0.658597	0.677408	0.754411
H241	H	-0.048975	0.047816	0.185260
H242	H	0.284358	0.381149	0.518593
H243	H	0.617692	0.714482	0.851927
H244	H	0.038001	-0.006728	0.190562
H245	H	0.371334	0.326605	0.523895
H246	H	0.704668	0.659939	0.857228
O247	O	0.945583	-0.717560	0.000159
O248	O	1.278916	-0.384227	0.333492
O249	O	1.612249	-0.050894	0.666826
C250	C	0.951650	-0.757310	0.071893
C251	C	1.284984	-0.423977	0.405226
C252	C	1.618317	-0.090644	0.738559
H253	H	0.917882	-0.728509	0.122034
H254	H	1.251215	-0.395176	0.455368
H255	H	1.584548	-0.061842	0.788701
H256	H	1.008885	-0.764696	0.095965
H257	H	1.342218	-0.431363	0.429299
H258	H	1.675552	-0.098030	0.762632
H259	H	0.933091	-0.810868	0.055685
H260	H	1.266425	-0.477534	0.389019
H261	H	1.599758	-0.144201	0.722352
H262	H	0.704793	-0.679572	0.000028
H263	H	1.038126	-0.346239	0.333361
H264	H	1.371460	-0.012905	0.666695
O265	O	0.168369	0.084753	-0.148816
O266	O	0.501702	0.418086	0.184517
O267	O	0.835035	0.751419	0.517850
C268	C	0.218394	0.024730	-0.153348
C269	C	0.551727	0.358063	0.179986
C270	C	0.885061	0.691397	0.513319
H271	H	0.234633	0.007371	-0.087792
H272	H	0.567967	0.340705	0.245542
H273	H	0.901300	0.674038	0.578875
H274	H	0.266499	0.037800	-0.185302
H275	H	0.599832	0.371133	0.148032
H276	H	0.933166	0.704467	0.481365
H277	H	0.194502	-0.019516	-0.190614
H278	H	0.527836	0.313817	0.142720
H279	H	0.861169	0.647151	0.476053
H280	H	0.942226	-0.266465	-0.000036
H281	H	1.275559	0.066869	0.333298
H282	H	1.608892	0.400202	0.666631
O283	O	0.899041	0.167621	-0.217158
O284	O	1.232375	0.500955	0.116175
O285	O	1.565708	0.834288	0.449508
C286	C	0.933996	0.202624	-0.274321
C287	C	1.267329	0.535957	0.059012
C288	C	1.600662	0.869291	0.392345
H289	H	0.935670	0.171215	-0.336476
H290	H	1.269003	0.504548	-0.003143
H291	H	1.602336	0.837881	0.330190
H292	H	0.989892	0.207832	-0.249122
H293	H	1.323225	0.541165	0.084212
H294	H	1.656559	0.874499	0.417545
H295	H	0.904692	0.257129	-0.283589
H296	H	1.238026	0.590462	0.049745
H297	H	1.571359	0.923795	0.383078
H298	H	0.769476	0.037976	-0.514831
H299	H	1.102809	0.371310	-0.181498
H300	H	1.436143	0.704643	0.151835
O301	O	0.947671	-0.573888	0.000102
O302	O	1.281005	-0.240554	0.333435
O303	O	1.614338	0.092779	0.666768
C304	C	0.954986	-0.529394	0.071844
C305	C	1.288319	-0.196060	0.405178
C306	C	1.621653	0.137273	0.738511
H307	H	0.900859	-0.510127	0.095760
H308	H	1.234193	-0.176793	0.429093
H309	H	1.567526	0.156540	0.762426
H310	H	0.982021	-0.482439	0.055704
H311	H	1.315354	-0.149106	0.389037
H312	H	1.648688	0.184227	0.722370
H313	H	0.987992	-0.559634	0.122082
H314	H	1.321325	-0.226301	0.455415
H315	H	1.654658	0.107033	0.788748
H316	H	0.916399	0.185013	-0.617911
H317	H	1.249732	0.518346	-0.284577
H318	H	1.583066	0.851680	0.048756
H319	H	0.910060	0.178667	-0.776091
H320	H	1.243393	0.512000	-0.442758
H321	H	1.576727	0.845333	-0.109425
O322	O	0.703392	-0.096345	0.000126
O323	O	1.036725	0.236988	0.333459
O324	O	1.370058	0.570322	0.666793
C325	C	0.703097	-0.050807	0.071848
C326	C	1.036430	0.282527	0.405181
C327	C	1.369764	0.615860	0.738514
H328	H	0.740898	-0.075564	0.121988
H329	H	1.074231	0.257770	0.455322
H330	H	1.407565	0.591103	0.788655
H331	H	0.647799	-0.041474	0.095932
H332	H	0.981133	0.291859	0.429265
H333	H	1.314466	0.625193	0.762599
H334	H	0.720355	0.001440	0.055620
H335	H	1.053688	0.334774	0.388953
H336	H	1.387021	0.668107	0.722286
H337	H	0.711339	-0.235562	-0.000014
H338	H	1.044672	0.097771	0.333320
H339	H	1.378006	0.431104	0.666653
H340	H	0.756891	0.025375	-0.776144
H341	H	1.090224	0.358708	-0.442811
H342	H	1.423558	0.692042	-0.109478
O343	O	0.024818	0.082749	-0.148948
O344	O	0.358152	0.416082	0.184386
O345	O	0.691485	0.749416	0.517719
C346	C	0.069897	0.080756	-0.215592
C347	C	0.403231	0.414089	0.117741
C348	C	0.736564	0.747422	0.451075
H349	H	0.119740	0.104508	-0.193455
H350	H	0.453073	0.437841	0.139878
H351	H	0.786406	0.771174	0.473211
H352	H	0.042200	0.112214	-0.268397
H353	H	0.375533	0.445547	0.064936
H354	H	0.708867	0.778881	0.398270
H355	H	0.084203	0.023935	-0.238814
H356	H	0.417537	0.357269	0.094519
H357	H	0.750870	0.690602	0.427852
O358	O	0.756802	0.025333	-0.611252
O359	O	1.090135	0.358666	-0.277918
O360	O	1.423469	0.691999	0.055415
C361	C	0.717267	-0.014256	-0.668444
C362	C	1.050600	0.319077	-0.335111
C363	C	1.383934	0.652411	-0.001777
H364	H	0.710616	0.012168	-0.730587
H365	H	1.043949	0.345501	-0.397254
H366	H	1.377283	0.678835	-0.063921
H367	H	0.663388	-0.017442	-0.643265
H368	H	0.996722	0.315891	-0.309931
H369	H	1.330055	0.649224	0.023402
H370	H	0.745827	-0.069505	-0.677726
H371	H	1.079160	0.263828	-0.344393
H372	H	1.412493	0.597162	-0.011060
H373	H	0.732581	0.001051	-0.382124
H374	H	1.065914	0.334385	-0.048791
H375	H	1.399247	0.667718	0.284543
H376	H	0.738910	0.007399	-0.223942
H377	H	1.072243	0.340732	0.109392
H378	H	1.405576	0.674066	0.442725
O379	O	0.886512	0.154917	-0.478395
O380	O	1.219845	0.488251	-0.145062
O381	O	1.553179	0.821584	0.188272
C382	C	0.956585	0.134563	-0.499703
C383	C	1.289919	0.467897	-0.166370
C384	C	1.623252	0.801230	0.166963
H385	H	0.962558	0.077280	-0.523687
H386	H	1.295891	0.410613	-0.190353
H387	H	1.629224	0.743946	0.142980
H388	H	0.993212	0.140848	-0.442355
H389	H	1.326546	0.474182	-0.109021
H390	H	1.659879	0.807515	0.224312
H391	H	0.970649	0.169103	-0.550297
H392	H	1.303983	0.502436	-0.216963
H393	H	1.637316	0.835769	0.116370
O394	O	0.480746	0.101339	0.148898
O395	O	0.814079	0.434672	0.482231
O396	O	1.147413	0.768005	0.815564
C397	C	0.492280	0.163910	0.194830
C398	C	0.825614	0.497243	0.528164
C399	C	1.158947	0.830576	0.861497
H400	H	0.541597	0.183978	0.173367
H401	H	0.874930	0.517311	0.506700
H402	H	1.208264	0.850645	0.840033
H403	H	0.499361	0.153125	0.263904
H404	H	0.832694	0.486459	0.597238
H405	H	1.166027	0.819792	0.930571
H406	H	0.445211	0.205221	0.184364
H407	H	0.778544	0.538554	0.517697
H408	H	1.111878	0.871887	0.851030
O409	O	0.624307	0.103444	0.148794
O410	O	0.957640	0.436777	0.482127
O411	O	1.290974	0.770110	0.815461
C412	C	0.658507	0.164709	0.153323
C413	C	0.991841	0.498043	0.486656
C414	C	1.325174	0.831376	0.819990
H415	H	0.664090	0.182385	0.087766
H416	H	0.997423	0.515719	0.421099
H417	H	1.330756	0.849052	0.754432
H418	H	0.712818	0.153153	0.185282
H419	H	1.046151	0.486486	0.518616
H420	H	1.379485	0.819819	0.851949
H421	H	0.626271	0.208130	0.190582
H422	H	0.959605	0.541463	0.523916
H423	H	1.292938	0.874796	0.857249
H424	H	0.474935	0.089832	-0.137001
H425	H	0.808269	0.423166	0.196333
H426	H	1.141602	0.756499	0.529666
