data_functionalizedCrystal
_audit_creation_method	'MofGen! by Chris Wilmer'
_symmetry_space_group_name_H-M	'P1'
_symmetry_Int_Tables_number	1
_symmetry_cell_setting	triclinic
loop_
_symmetry_equiv_pos_as_xyz
  x,y,z
_cell_length_a	10.489741
_cell_length_b	13.596369
_cell_length_c	14.519709
_cell_angle_alpha	89.994278
_cell_angle_beta	84.109659
_cell_angle_gamma	90.009173
loop_
_atom_site_label
_atom_site_type_symbol
_atom_site_fract_x
_atom_site_fract_y
_atom_site_fract_z
O1	O	1.692677	-0.081733	0.130116
O2	O	1.321354	-0.081748	0.142329
O3	O	1.516861	-0.081731	0.002038
O4	O	1.497170	-0.081750	0.270407
O5	O	1.516885	0.081851	0.002030
O6	O	1.321378	0.081834	0.142322
O7	O	1.692701	0.081850	0.130108
Zn8	Zn	1.507043	0.107814	0.136214
Zn9	Zn	1.507012	-0.107713	0.136224
O10	O	1.497194	0.081833	0.270400
C11	C	1.273844	0.000041	0.141403
C12	C	1.132243	0.000035	0.138643
C13	C	1.065034	0.000051	0.049380
C14	C	0.972455	-0.080605	0.091551
C15	C	0.972513	0.080675	0.091565
C16	C	1.041530	-0.080687	0.180851
C17	C	1.041597	0.080665	0.180852
C18	C	0.949046	-0.000010	0.223088
C19	C	1.515955	0.000060	-0.032331
C20	C	1.513205	0.000061	-0.134727
C21	C	1.740211	0.000058	0.131035
C22	C	1.881812	0.000057	0.133794
N23	N	1.506991	-0.254805	0.136224
C24	C	1.506995	-0.343803	0.136225
C25	C	1.507014	-0.455454	0.136223
C26	C	1.507035	-0.544445	0.136216
C27	C	1.507052	-0.656103	0.136213
N28	N	1.507074	0.254906	0.136206
C29	C	1.503082	0.000035	-0.509678
C30	C	1.505893	0.000042	-0.405355
C31	C	1.508143	0.000048	-0.322206
C32	C	1.510955	0.000054	-0.217876
C33	C	1.498100	0.000039	0.304768
C34	C	1.500850	0.000032	0.407165
H35	H	1.072260	0.148853	0.218587
H36	H	0.941939	0.148864	0.053776
H37	H	0.898856	-0.000059	0.296546
H38	H	1.115488	-0.000045	-0.024000
C39	C	0.990211	-0.172499	-0.050385
C40	C	0.931089	-0.172648	0.040571
H41	H	0.964669	-0.229317	-0.081861
H42	H	1.080621	-0.172867	-0.049486
H43	H	0.965420	-0.115216	-0.081498
H44	H	0.955888	-0.229928	0.071686
H45	H	0.840659	-0.172290	0.039676
C46	C	0.974334	-0.229538	0.260601
C47	C	1.082589	-0.172849	0.231798
H48	H	0.999687	-0.286431	0.292056
H49	H	0.933227	-0.248804	0.208141
H50	H	0.916682	-0.191828	0.301154
H51	H	1.140237	-0.210557	0.191239
H52	H	1.123716	-0.153585	0.284265
