data_functionalizedCrystal
_audit_creation_method	'MofGen! by Chris Wilmer'
_symmetry_space_group_name_H-M	'P1'
_symmetry_Int_Tables_number	1
_symmetry_cell_setting	triclinic
loop_
_symmetry_equiv_pos_as_xyz
  x,y,z
_cell_length_a	19.805407
_cell_length_b	19.805406
_cell_length_c	19.805399
_cell_angle_alpha	89.983420
_cell_angle_beta	90.021064
_cell_angle_gamma	89.997903
loop_
_atom_site_label
_atom_site_type_symbol
_atom_site_fract_x
_atom_site_fract_y
_atom_site_fract_z
Zn1	Zn	-1.034845	-0.269497	-0.382798
Zn2	Zn	-1.034806	-0.382685	-0.269632
Zn3	Zn	-0.921660	-0.269514	-0.269620
Zn4	Zn	-0.921669	-0.382647	-0.382776
O5	O	-0.978245	-0.326086	-0.326206
O6	O	-1.129557	-0.284521	-0.367801
O7	O	-1.019777	-0.367696	-0.174914
O8	O	-0.936687	-0.174795	-0.284638
O9	O	-1.129528	-0.367680	-0.284658
O10	O	-1.019843	-0.174783	-0.367790
O11	O	-0.936649	-0.284549	-0.174905
O12	O	-0.826945	-0.284512	-0.284616
O13	O	-0.936703	-0.367615	-0.477495
O14	O	-0.826952	-0.367631	-0.367751
O15	O	-1.019853	-0.284484	-0.477512
O16	O	-1.019786	-0.477397	-0.284636
O17	O	-0.936665	-0.477369	-0.367762
C18	C	-0.802389	-0.326070	-0.326180
C19	C	-0.727157	-0.326079	-0.326185
C20	C	-0.691834	-0.369424	-0.369402
C21	C	-0.621146	-0.369424	-0.369410
C22	C	-0.585782	-0.326082	-0.326196
C23	C	-0.621109	-0.282733	-0.282977
C24	C	-0.691796	-0.282730	-0.282973
C25	C	-0.336036	-0.282743	-0.282992
C26	C	-0.265344	-0.282750	-0.282998
C27	C	-0.265386	-0.369437	-0.369429
C28	C	-0.336073	-0.369434	-0.369425
C29	C	-0.371394	-0.326082	-0.326208
C30	C	-0.448043	-0.326082	-0.326201
C31	C	-0.509134	-0.326085	-0.326199
C32	C	-0.978241	-0.501942	-0.326213
C33	C	-0.978301	-0.577174	-0.326238
C34	C	-0.154788	-0.326098	-0.326227
C35	C	-0.230020	-0.326092	-0.326219
C36	C	-0.978283	-0.326043	-0.502749
C37	C	-0.978299	-0.326025	-0.577981
C38	C	-0.978268	-0.149543	-0.326215
C39	C	-0.978278	-0.074311	-0.326219
C40	C	-0.935003	0.387474	-0.282946
C41	C	-0.935001	0.316786	-0.282940
C42	C	-0.978295	0.281450	-0.326231
C43	C	-1.021598	0.316807	-0.369525
C44	C	-1.021602	0.387494	-0.369527
C45	C	-1.021582	0.031734	-0.369518
C46	C	-1.021573	-0.038958	-0.369515
C47	C	-0.934982	-0.038974	-0.282932
C48	C	-0.934986	0.031713	-0.282934
C49	C	-0.978291	0.067063	-0.326225
C50	C	-0.978292	0.143712	-0.326230
C51	C	-0.978290	0.204803	-0.326230
C52	C	-1.021596	-0.282737	-0.613335
C53	C	-1.021603	-0.282717	-0.684024
C54	C	-0.978316	-0.325990	-0.719357
C55	C	-0.935014	-0.369280	-0.683998
C56	C	-0.935004	-0.369296	-0.613311
C57	C	-0.935052	-0.369217	-0.969071
C58	C	-0.935067	-0.369200	-1.039764
C59	C	-1.021651	-0.282638	-1.039784
C60	C	-1.021642	-0.282654	-0.969097
C61	C	-0.978337	-0.325941	-0.933744
C62	C	-0.978330	-0.325961	-0.857096
C63	C	-0.978327	-0.325974	-0.796004
C64	C	-0.978246	-0.326080	-0.150350
C65	C	-0.978361	-0.325907	-0.075119
H66	H	-0.236552	-0.247452	-0.247808
H67	H	-0.364786	-0.247448	-0.247797
O68	O	-0.893053	-0.411360	-0.934773
C69	C	-0.907818	-0.478818	-0.952057
H70	H	-0.961897	-0.482248	-0.971485
H71	H	-0.901954	-0.512269	-0.905571
H72	H	-0.871541	-0.496487	-0.993091
H73	H	-0.899722	-0.067765	-0.247680
O74	O	-0.892996	0.282341	-0.240918
C75	C	-0.902259	0.212374	-0.250210
H76	H	-0.954504	0.202721	-0.272371
H77	H	-0.897639	0.185494	-0.199513
H78	H	-0.862127	0.192330	-0.286261
H79	H	-1.056841	0.060511	-0.404769
H80	H	-1.056851	0.288031	-0.404770
H81	H	-0.592310	-0.247440	-0.247795
H82	H	-0.899814	-0.404439	-1.068530
O83	O	-0.586807	-0.411437	-0.411462
C84	C	-0.545926	-0.372969	-0.455239
H85	H	-0.567226	-0.319664	-0.459508
H86	H	-0.545153	-0.397524	-0.507286
H87	H	-0.492342	-0.370614	-0.434324
O88	O	-0.893027	-0.411293	-0.718423
C89	C	-0.902308	-0.401987	-0.788395
H90	H	-0.954547	-0.379824	-0.798063
H91	H	-0.897712	-0.452679	-0.815255
H92	H	-0.862169	-0.365933	-0.808449
H93	H	-1.056893	-0.247419	-0.940332
O94	O	-0.892909	0.065932	-0.240817
C95	C	-0.854681	0.019571	-0.202615
H96	H	-0.882399	-0.030819	-0.200275
H97	H	-0.847453	0.039982	-0.149286
H98	H	-0.803279	0.012063	-0.227391
H99	H	-0.899745	0.416240	-0.247697
O100	O	-0.892933	-0.411419	-0.579070
C101	C	-0.854720	-0.449602	-0.625412
H102	H	-0.882447	-0.451930	-0.675809
H103	H	-0.847501	-0.502937	-0.604986
H104	H	-0.803314	-0.424818	-0.632915
O105	O	-0.726007	-0.240607	-0.240924
C106	C	-0.679637	-0.202343	-0.202793
H107	H	-0.629248	-0.230065	-0.200409
H108	H	-0.700038	-0.195055	-0.149474
H109	H	-0.672131	-0.150969	-0.227659
O110	O	-1.063696	-0.073180	-0.411591
C111	C	-1.101907	-0.026822	-0.449814
H112	H	-1.104253	0.023559	-0.422092
H113	H	-1.155233	-0.047252	-0.457040
H114	H	-1.077135	-0.019287	-0.501217
O115	O	-1.063679	0.421732	-0.411648
C116	C	-1.101901	0.375389	-0.449848
H117	H	-1.074176	0.325001	-0.452185
H118	H	-1.109133	0.395826	-0.503178
H119	H	-1.153302	0.367864	-0.425070
H120	H	-0.364863	-0.404729	-0.404611
H121	H	-1.056848	-0.247501	-0.584572
O122	O	-1.063729	-0.240648	-0.718262
C123	C	-1.101924	-0.202450	-0.671918
H124	H	-1.104255	-0.230187	-0.621529
H125	H	-1.155257	-0.195234	-0.692354
H126	H	-1.077149	-0.151042	-0.664396
H127	H	-1.056909	-0.247389	-1.068577
O128	O	-0.230968	-0.411481	-0.411394
C129	C	-0.160995	-0.402203	-0.402125
H130	H	-0.151328	-0.349939	-0.380045
H131	H	-0.134154	-0.406865	-0.452820
H132	H	-0.140918	-0.442303	-0.366017
H133	H	-0.720623	-0.404720	-0.404590
