data_functionalizedCrystal
_audit_creation_method	'MofGen! by Chris Wilmer'
_symmetry_space_group_name_H-M	'P1'
_symmetry_Int_Tables_number	1
_symmetry_cell_setting	triclinic
loop_
_symmetry_equiv_pos_as_xyz
  x,y,z
_cell_length_a	29.839131
_cell_length_b	29.839134
_cell_length_c	18.101390
_cell_angle_alpha	90.030791
_cell_angle_beta	89.964218
_cell_angle_gamma	89.963233
loop_
_atom_site_label
_atom_site_type_symbol
_atom_site_fract_x
_atom_site_fract_y
_atom_site_fract_z
Zn1	Zn	-0.178892	-0.686751	-0.418945
Zn2	Zn	-0.254028	-0.686674	-0.295097
Zn3	Zn	-0.178906	-0.611625	-0.295093
Zn4	Zn	-0.253989	-0.611582	-0.418872
O5	O	-0.216454	-0.649158	-0.357002
O6	O	-0.188869	-0.749608	-0.402548
O7	O	-0.244085	-0.676704	-0.191463
O8	O	-0.116037	-0.621641	-0.311550
O9	O	-0.244071	-0.749551	-0.311558
O10	O	-0.116027	-0.676836	-0.402544
O11	O	-0.188893	-0.621566	-0.191460
O12	O	-0.188856	-0.548752	-0.311480
O13	O	-0.244006	-0.621567	-0.522515
O14	O	-0.244020	-0.548720	-0.402421
O15	O	-0.188832	-0.676794	-0.522568
O16	O	-0.316890	-0.676663	-0.311487
O17	O	-0.316862	-0.621493	-0.402425
C18	C	-0.216436	-0.532435	-0.356942
C19	C	-0.216439	-0.482501	-0.356935
C20	C	-0.245224	-0.172851	-0.404273
C21	C	-0.245238	0.014823	-0.404297
O22	O	-0.269689	0.039093	-0.444525
N23	N	-0.216476	0.038284	-0.357024
C24	C	-0.187706	0.014825	-0.309745
O25	O	-0.163240	0.039087	-0.269542
C26	C	-0.187690	-0.172847	-0.309725
C27	C	-0.216457	-0.196307	-0.356996
C28	C	-0.273988	-0.196310	-0.451540
C29	C	-0.273986	-0.243225	-0.451531
C30	C	-0.245220	-0.266681	-0.404254
C31	C	-0.216455	-0.243222	-0.356987
C32	C	-0.158919	-0.196306	-0.262451
C33	C	-0.158916	-0.243227	-0.262452
C34	C	-0.187683	-0.266686	-0.309722
C35	C	-0.187687	-0.313594	-0.309701
N36	N	-0.216449	-0.337055	-0.356974
C37	C	-0.245215	-0.313599	-0.404251
C38	C	-0.187718	0.113355	-0.309757
C39	C	-0.187722	0.160273	-0.309761
C40	C	-0.245253	0.160268	-0.404314
C41	C	-0.245251	0.113349	-0.404306
C42	C	-0.216480	0.089894	-0.357030
C43	C	-0.245209	-0.412125	-0.404227
C44	C	-0.245205	-0.459045	-0.404211
C45	C	-0.187673	-0.459035	-0.309662
C46	C	-0.187678	-0.412120	-0.309674
C47	C	-0.216447	-0.388666	-0.356963
O48	O	-0.163245	-0.337893	-0.269499
O49	O	-0.269671	-0.337869	-0.444459
C50	C	-0.245226	-0.125935	-0.404282
C51	C	-0.216462	-0.102476	-0.357015
C52	C	-0.187695	-0.125932	-0.309738
C53	C	-0.216466	-0.055558	-0.357018
C54	C	-0.245233	-0.032102	-0.404295
C55	C	-0.273995	-0.055563	-0.451568
C56	C	-0.273993	-0.102479	-0.451559
C57	C	-0.158933	-0.102470	-0.262465
C58	C	-0.158938	-0.055555	-0.262477
C59	C	-0.187704	-0.032099	-0.309754
C60	C	-0.333176	-0.649077	-0.356965
C61	C	-0.383111	-0.649083	-0.356974
C62	C	-0.692756	-0.677937	-0.309720
C63	C	-0.880429	-0.677993	-0.309749
O64	O	-0.904696	-0.702461	-0.269543
N65	N	-0.903896	-0.649251	-0.357057
C66	C	-0.880441	-0.620496	-0.404366
O67	O	-0.904708	-0.596054	-0.444611
C68	C	-0.692769	-0.620443	-0.404340
C69	C	-0.669305	-0.649183	-0.357023
C70	C	-0.669292	-0.706675	-0.262407
C71	C	-0.622376	-0.706659	-0.262397
C72	C	-0.598925	-0.677905	-0.309701
C73	C	-0.622390	-0.649167	-0.357014
C74	C	-0.669316	-0.591690	-0.451652
C75	C	-0.622395	-0.591680	-0.451643
C76	C	-0.598930	-0.620420	-0.404326
C77	C	-0.552023	-0.620397	-0.404307
N78	N	-0.528556	-0.649139	-0.356998
C79	C	-0.552007	-0.677893	-0.309695
C80	C	-0.978972	-0.620525	-0.404375
C81	C	-1.025890	-0.620537	-0.404381
C82	C	-1.025874	-0.678035	-0.309764
C83	C	-0.978956	-0.678020	-0.309755
C84	C	-0.955505	-0.649266	-0.357066
C85	C	-0.453482	-0.677857	-0.309678
C86	C	-0.406562	-0.677837	-0.309671
C87	C	-0.406582	-0.620341	-0.404290
C88	C	-0.453497	-0.620359	-0.404295
C89	C	-0.476946	-0.649121	-0.356987
O90	O	-0.527728	-0.595945	-0.444498
O91	O	-0.527733	-0.702338	-0.269468
C92	C	-0.739672	-0.677953	-0.309729
C93	C	-0.763136	-0.649215	-0.357042
C94	C	-0.739685	-0.620461	-0.404346
C95	C	-0.810054	-0.649227	-0.357048
C96	C	-0.833505	-0.677981	-0.309745
C97	C	-0.810038	-0.706723	-0.262436
C98	C	-0.763123	-0.706707	-0.262426
C99	C	-0.763151	-0.591719	-0.451654
C100	C	-0.810067	-0.591737	-0.451660
C101	C	-0.833518	-0.620491	-0.404356
C102	C	-0.099275	-0.649252	-0.357055
C103	C	-0.049341	-0.649291	-0.357077
C104	C	-0.216413	-0.649185	-0.550164
C105	C	-0.216395	-0.649196	-0.632478
C106	C	-0.216474	0.233664	-0.357049
C107	C	-0.216489	0.183729	-0.357038
C108	C	-0.216367	-0.649220	-0.931569
C109	C	-0.181776	-0.684082	-0.900277
C110	C	-0.181647	-0.683973	-0.814659
C111	C	-0.216381	-0.649209	-0.783186
C112	C	-0.203515	-0.601883	-0.814246
C113	C	-0.203255	-0.602092	-0.899891
C114	C	-0.263914	-0.661267	-0.899981
C115	C	-0.263672	-0.662306	-0.814331
C116	C	-0.216390	-0.649199	-0.699327
C117	C	-0.216358	-0.649227	-1.015428
C118	C	-0.216462	-0.649157	-0.164591
C119	C	-0.216353	-0.649233	-0.082277
H120	H	-0.135507	-0.121564	-0.223966
Cl121	Cl	-1.055382	-0.584400	-0.463859
H122	H	-0.164302	0.179370	-0.271261
H123	H	-0.168499	-0.591878	-0.919881
Cl124	Cl	-0.377067	-0.713971	-0.250182
Cl125	Cl	-0.150447	-0.585827	-0.781155
Cl126	Cl	-0.240454	-0.560621	-0.931849
H127	H	-0.472568	-0.701278	-0.271157
H128	H	-0.603275	-0.730063	-0.223870
H129	H	-0.959882	-0.597109	-0.442902
H130	H	-0.297418	-0.121575	-0.490052
Cl131	Cl	-0.698765	-0.742829	-0.202932
H132	H	-0.289689	-0.635878	-0.920221
Cl133	Cl	-0.949463	-0.714152	-0.250270
Cl134	Cl	-0.122744	-0.272711	-0.203016
H135	H	-0.603304	-0.568266	-0.490172
H136	H	-0.135495	-0.177214	-0.223956
Cl137	Cl	-0.281373	-0.488533	-0.463641
Cl138	Cl	-0.310160	-0.026067	-0.510998
Cl139	Cl	-1.055364	-0.714182	-0.250296
H140	H	-0.164254	-0.393018	-0.271181
H141	H	-0.744021	-0.730110	-0.223896
Cl142	Cl	-0.151510	-0.488532	-0.250232
H143	H	-0.135513	-0.036458	-0.223977
Cl144	Cl	-0.127264	-0.671662	-0.783046
H145	H	-0.268635	-0.393035	-0.442736
Cl146	Cl	-0.310150	-0.272710	-0.510965
H147	H	-0.688412	-0.568284	-0.490180
Cl148	Cl	-0.482996	-0.584219	-0.463765
Cl149	Cl	-0.377091	-0.584198	-0.463757
H150	H	-0.829140	-0.730134	-0.223917
H151	H	-0.189705	-0.719066	-0.793661
Cl152	Cl	-0.839559	-0.555602	-0.511150
H153	H	-0.275629	-0.695171	-0.921635
Cl154	Cl	-0.281414	0.189764	-0.463753
Cl155	Cl	-0.733677	-0.555567	-0.511128
H156	H	-0.227934	-0.575204	-0.793856
Cl157	Cl	-0.278652	-0.716078	-0.782997
Cl158	Cl	-0.310157	-0.166831	-0.510982
H159	H	-0.268675	0.094252	-0.442799
Cl160	Cl	-0.194059	-0.738442	-0.932105
Cl161	Cl	-0.127695	-0.671930	-0.933528
H162	H	-0.164288	0.094262	-0.271256
Cl163	Cl	-0.305604	-0.625950	-0.781259
