data_functionalizedCrystal
_audit_creation_method	'MofGen! by Chris Wilmer'
_symmetry_space_group_name_H-M	'P1'
_symmetry_Int_Tables_number	1
_symmetry_cell_setting	triclinic
loop_
_symmetry_equiv_pos_as_xyz
  x,y,z
_cell_length_a	14.971486
_cell_length_b	13.339070
_cell_length_c	13.448316
_cell_angle_alpha	89.996829
_cell_angle_beta	89.998199
_cell_angle_gamma	99.621712
loop_
_atom_site_label
_atom_site_type_symbol
_atom_site_fract_x
_atom_site_fract_y
_atom_site_fract_z
O1	O	1.219550	0.131873	-0.082571
O2	O	0.963055	0.147665	-0.082597
O3	O	1.061865	-0.007530	-0.082584
O4	O	1.120740	0.287068	-0.082584
O5	O	1.061845	-0.007540	0.082800
O6	O	0.963035	0.147656	0.082787
O7	O	1.219531	0.131864	0.082813
Cu8	Cu	1.091281	0.139759	0.097901
Cu9	Cu	1.091304	0.139770	-0.097685
O10	O	1.120720	0.287059	0.082800
C11	C	0.929545	0.146954	0.000091
C12	C	0.829725	0.144838	0.000081
C13	C	0.795041	0.236011	0.000082
C14	C	0.701248	0.234016	0.000097
C15	C	0.642141	0.140847	0.000103
C16	C	0.676832	0.049667	0.000105
C17	C	0.770623	0.051663	0.000097
C18	C	0.481342	0.045514	0.000119
C19	C	0.387545	0.043518	0.000125
C20	C	0.411968	0.227867	0.000119
C21	C	0.505759	0.229863	0.000111
C22	C	0.540442	0.138682	0.000111
C23	C	1.051910	-0.045236	0.000105
C24	C	1.022266	-0.157574	0.000098
C25	C	1.252762	-0.522088	0.000122
C26	C	1.280617	-0.416541	0.000135
C27	C	1.216032	-0.351794	0.000125
C28	C	1.123587	-0.392604	0.000104
C29	C	1.095729	-0.498161	0.000100
C30	C	1.058999	-0.327867	0.000103
C31	C	0.966554	-0.368677	0.000082
C32	C	0.938701	-0.474224	0.000077
C33	C	1.003286	-0.538970	0.000086
C34	C	1.086856	-0.222311	0.000107
C35	C	0.929823	-0.198384	0.000084
C36	C	0.901968	-0.303930	0.000072
C37	C	1.253040	0.132575	0.000122
C38	C	1.352860	0.134691	0.000126
C39	C	1.130675	0.324765	0.000108
C40	C	1.160319	0.437102	0.000109
N41	N	1.091271	0.139750	0.235465
N42	N	1.091319	0.139771	-0.235249
C43	C	1.135050	0.071058	0.287511
C44	C	1.135056	0.071057	0.391614
C45	C	1.091287	0.139754	0.443669
C46	C	1.047502	0.208449	0.391616
C47	C	1.047492	0.208445	0.287515
C48	C	1.047529	0.208456	0.608596
C49	C	1.047540	0.208463	0.712705
C50	C	1.135093	0.071069	0.712696
C51	C	1.135082	0.071064	0.608594
C52	C	1.091299	0.139761	0.556548
H53	H	0.339422	-0.032348	0.000131
H54	H	0.628700	-0.026192	0.000124
C55	C	0.800280	-0.348835	0.000063
N56	N	0.723688	-0.382658	0.000060
H57	H	0.383724	0.302110	0.000123
C58	C	0.837009	-0.519111	0.000064
N59	N	0.760414	-0.552918	0.000053
H60	H	0.798860	-0.022579	0.000096
C61	C	0.972650	-0.655080	0.000084
N62	N	0.949577	-0.742535	0.000088
C63	C	0.999352	0.284016	0.551348
N64	N	0.963066	0.340927	0.508228
C65	C	0.999340	0.284019	0.230264
N66	N	0.963072	0.340945	0.187145
H67	H	1.355886	-0.383322	0.000153
H68	H	0.673013	0.308258	0.000097
H69	H	1.238717	-0.265854	0.000135
C70	C	0.860050	0.338505	0.000077
N71	N	0.909013	0.415707	0.000078
C72	C	1.183200	-0.004516	0.230260
N73	N	1.219464	-0.061444	0.187141
C74	C	1.183189	-0.004534	0.448860
N75	N	1.219434	-0.061482	0.491977
H76	H	1.305338	-0.574813	0.000138
C77	C	0.999386	0.284027	0.769963
N78	N	0.963113	0.340942	0.813091
H79	H	0.877232	-0.145666	0.000082
C80	C	1.188543	-0.177433	0.000123
N81	N	1.265140	-0.143632	0.000132
H82	H	1.170727	0.015131	0.566211
C83	C	1.183251	-0.004503	0.769948
N84	N	1.219524	-0.061419	0.813076
C85	C	0.570775	0.332353	0.000108
N86	N	0.619745	0.409550	0.000112
H87	H	0.509578	-0.028735	0.000120
H88	H	1.011859	0.264381	0.434005
