data_functionalizedCrystal
_audit_creation_method	'MofGen! by Chris Wilmer'
_symmetry_space_group_name_H-M	'P1'
_symmetry_Int_Tables_number	1
_symmetry_cell_setting	triclinic
loop_
_symmetry_equiv_pos_as_xyz
  x,y,z
_cell_length_a	11.026607
_cell_length_b	8.559649
_cell_length_c	7.088929
_cell_angle_alpha	95.344185
_cell_angle_beta	97.578021
_cell_angle_gamma	90.817659
loop_
_atom_site_label
_atom_site_type_symbol
_atom_site_fract_x
_atom_site_fract_y
_atom_site_fract_z
O1	O	1.535816	-0.664136	-0.158933
O2	O	2.035816	-0.164136	0.341067
O3	O	1.189424	-0.589935	-0.158946
O4	O	1.689424	-0.089935	0.341054
O5	O	1.393137	-0.403211	-0.158937
O6	O	1.893137	0.096789	0.341063
O7	O	1.332102	-0.850860	-0.158943
O8	O	1.832102	-0.350860	0.341057
O9	O	1.420368	-0.378185	0.159040
O10	O	1.920368	0.121815	0.659040
O11	O	1.216655	-0.564909	0.159030
O12	O	1.716655	-0.064909	0.659030
O13	O	1.563047	-0.639110	0.159043
O14	O	2.063047	-0.139110	0.659043
Cu15	Cu	1.392337	-0.599725	0.188070
Cu16	Cu	1.892337	-0.099725	0.688070
Cu17	Cu	1.360133	-0.629321	-0.187974
Cu18	Cu	1.860133	-0.129321	0.312026
O19	O	1.359333	-0.825834	0.159034
O20	O	1.859333	-0.325834	0.659034
C21	C	1.159104	-0.563734	0.000040
C22	C	1.659104	-0.063734	0.500040
C23	C	1.028192	-0.522927	0.000035
C24	C	1.528192	-0.022927	0.500035
C25	C	1.411378	-0.332499	0.000048
C26	C	1.911378	0.167501	0.500048
C27	C	1.425145	-0.159080	0.000038
C28	C	1.925145	0.340920	0.500038
C29	C	1.593366	-0.665312	0.000052
C30	C	2.093366	-0.165312	0.500052
C31	C	1.724276	-0.706119	0.000045
C32	C	2.224276	-0.206119	0.500045
C33	C	1.808583	-0.593445	0.000044
C34	C	2.308583	-0.093445	0.500044
C35	C	1.943886	-0.635618	0.000036
C36	C	2.443886	-0.135618	0.500036
C37	C	1.341092	-0.896546	0.000045
C38	C	1.841092	-0.396546	0.500045
C39	C	1.327324	-1.069967	0.000042
C40	C	1.827324	-0.569967	0.500042
N41	N	1.414996	-0.578910	0.452559
N42	N	1.914996	-0.078910	0.952559
N43	N	1.337485	-0.650126	-0.452463
N44	N	1.837485	-0.150126	0.047537
H45	H	1.780594	-0.465755	0.000078
H46	H	2.280594	0.034245	0.500078
H47	H	1.233042	-0.126344	0.000045
H48	H	1.733042	0.373656	0.500045
Br49	Br	1.981566	-0.310087	0.000067
Br50	Br	2.481566	0.189913	0.500067
H51	H	1.519435	-0.102693	0.000057
H52	H	2.019435	0.397307	0.500057
H53	H	1.495340	-0.505120	0.534219
H54	H	1.995340	-0.005120	1.034219
Br55	Br	1.203592	-0.773137	0.411453
Br56	Br	1.703592	-0.273137	0.911453
H57	H	1.971872	-0.763313	0.000043
H58	H	2.471872	-0.263313	0.500043
H59	H	1.752269	-0.833805	0.000051
H60	H	2.252269	-0.333805	0.500051
