data_functionalizedCrystal
_audit_creation_method	'MofGen! by Chris Wilmer'
_symmetry_space_group_name_H-M	'P1'
_symmetry_Int_Tables_number	1
_symmetry_cell_setting	triclinic
loop_
_symmetry_equiv_pos_as_xyz
  x,y,z
_cell_length_a	9.065215
_cell_length_b	12.996460
_cell_length_c	9.065218
_cell_angle_alpha	90.001592
_cell_angle_beta	94.984709
_cell_angle_gamma	90.005726
loop_
_atom_site_label
_atom_site_type_symbol
_atom_site_fract_x
_atom_site_fract_y
_atom_site_fract_z
O1	O	1.960409	0.085550	-0.216326
O2	O	2.293742	0.418884	0.117007
O3	O	2.627075	0.752217	0.450340
O4	O	1.531123	0.085555	-0.234077
O5	O	1.864457	0.418888	0.099256
O6	O	2.197790	0.752221	0.432589
O7	O	1.754639	0.085550	-0.010559
O8	O	2.087973	0.418884	0.322774
O9	O	2.421306	0.752217	0.656107
O10	O	1.736893	0.085555	-0.439844
O11	O	2.070226	0.418888	-0.106511
O12	O	2.403559	0.752221	0.226822
O13	O	1.754610	-0.085584	-0.010572
O14	O	2.087944	0.247750	0.322761
O15	O	2.421277	0.581083	0.656095
O16	O	1.531094	-0.085579	-0.234090
O17	O	1.864428	0.247754	0.099243
O18	O	2.197761	0.581087	0.432577
O19	O	1.960380	-0.085584	-0.216339
O20	O	2.293713	0.247750	0.116994
O21	O	2.627046	0.581083	0.450327
Cu22	Cu	1.745734	-0.101207	-0.225216
Cu23	Cu	2.079068	0.232126	0.108118
Cu24	Cu	2.412401	0.565459	0.441451
Cu25	Cu	1.745769	0.101178	-0.225201
Cu26	Cu	2.079102	0.434512	0.108133
Cu27	Cu	2.412435	0.767845	0.441466
O28	O	1.736864	-0.085579	-0.439857
O29	O	2.070197	0.247754	-0.106524
O30	O	2.403530	0.581087	0.226809
C31	C	1.476122	-0.000012	-0.232379
C32	C	1.809455	0.333322	0.100955
C33	C	2.142789	0.666655	0.434288
C34	C	1.312279	-0.000010	-0.227281
C35	C	1.645612	0.333323	0.106053
C36	C	1.978946	0.666657	0.439386
N37	N	1.745721	-0.243554	-0.225226
N38	N	2.079054	0.089779	0.108108
N39	N	2.412388	0.423112	0.441441
C40	C	1.745728	-0.336660	-0.225229
C41	C	2.079061	-0.003327	0.108104
C42	C	2.412394	0.330006	0.441437
C43	C	1.745741	-0.453465	-0.225220
C44	C	2.079074	-0.120132	0.108114
C45	C	2.412408	0.213201	0.441447
C46	C	1.745759	-0.546564	-0.225204
C47	C	2.079093	-0.213230	0.108130
C48	C	2.412426	0.120103	0.441463
C49	C	1.745775	-0.663376	-0.225195
C50	C	2.079108	-0.330043	0.108138
C51	C	2.412442	0.003290	0.441471
C52	C	2.015381	-0.000015	-0.218038
C53	C	2.348714	0.333318	0.115296
C54	C	2.682047	0.666652	0.448629
C55	C	2.179224	-0.000010	-0.223136
C56	C	2.512557	0.333323	0.110198
C57	C	2.845891	0.666657	0.443531
C58	C	1.752919	-0.000015	0.044421
C59	C	2.086252	0.333318	0.377754
C60	C	2.419586	0.666652	0.711087
C61	C	1.747819	-0.000010	0.208264
C62	C	2.081153	0.333323	0.541597
C63	C	2.414486	0.666657	0.874930
N64	N	1.745793	0.243525	-0.225179
N65	N	2.079127	0.576859	0.108154
N66	N	2.412460	0.910192	0.441487
C67	C	1.738584	-0.000012	-0.494837
C68	C	2.071917	0.333322	-0.161504
C69	C	2.405250	0.666655	0.171829
C70	C	1.743683	-0.000010	-0.658680
C71	C	2.077017	0.333323	-0.325347
C72	C	2.410350	0.666657	0.007986
