data_functionalizedCrystal
_audit_creation_method	'MofGen! by Chris Wilmer'
_symmetry_space_group_name_H-M	'P1'
_symmetry_Int_Tables_number	1
_symmetry_cell_setting	triclinic
loop_
_symmetry_equiv_pos_as_xyz
  x,y,z
_cell_length_a	12.759393
_cell_length_b	12.759401
_cell_length_c	12.759399
_cell_angle_alpha	90.016641
_cell_angle_beta	90.032031
_cell_angle_gamma	90.019837
loop_
_atom_site_label
_atom_site_type_symbol
_atom_site_fract_x
_atom_site_fract_y
_atom_site_fract_z
Zn1	Zn	-0.594017	-1.606252	0.418161
Zn2	Zn	-0.418336	-1.606145	0.593880
Zn3	Zn	-0.418352	-1.430554	0.418220
Zn4	Zn	-0.593973	-1.430541	0.593803
O5	O	-0.506170	-1.518373	0.506016
O6	O	-0.570724	-1.753259	0.441478
O7	O	-0.271317	-1.582813	0.570635
O8	O	-0.441680	-1.453911	0.271191
O9	O	-0.441652	-1.753180	0.570578
O10	O	-0.570740	-1.582995	0.271148
O11	O	-0.271329	-1.453807	0.441579
O12	O	-0.441637	-1.283531	0.441505
O13	O	-0.741000	-1.453889	0.570447
O14	O	-0.570665	-1.283522	0.570504
O15	O	-0.741032	-1.582983	0.441403
O16	O	-0.441609	-1.582801	0.740891
O17	O	-0.570649	-1.453785	0.740834
C18	C	-0.506149	-1.245406	0.506003
C19	C	-0.506165	-1.128629	0.506023
C20	C	-0.506146	-1.518309	0.778984
C21	C	-0.506171	-1.518377	0.895760
C22	C	-0.780203	-1.518446	0.505910
C23	C	-0.896980	-1.518478	0.505865
C24	C	-0.951848	-1.451328	0.438653
C25	C	-1.061572	-1.451353	0.438620
C26	C	-1.061551	-1.585685	0.573015
C27	C	-0.951829	-1.585654	0.573052
C28	C	-1.211522	-1.327503	0.401024
C29	C	-1.266394	-1.260363	0.333795
C30	C	-1.230804	-1.244259	0.231292
C31	C	-1.140346	-1.295311	0.195996
C32	C	-1.085480	-1.362459	0.263218
C33	C	-1.121067	-1.378542	0.365736
C34	C	-0.801876	-1.709506	0.610638
C35	C	-0.747009	-1.776660	0.677856
C36	C	-0.782595	-1.792774	0.780361
C37	C	-0.873058	-1.741741	0.815654
C38	C	-0.927926	-1.674587	0.748435
C39	C	-0.892331	-1.658471	0.645931
C40	C	-0.233202	-1.518360	0.506046
C41	C	-0.116426	-1.518533	0.505796
C42	C	-0.506191	-1.792406	0.506030
C43	C	-0.506200	-1.909183	0.506036
C44	C	-0.573244	-1.073790	0.573296
C45	C	-0.573265	-0.964066	0.573300
C46	C	-0.439118	-0.964030	0.438756
C47	C	-0.439104	-1.073752	0.438747
C48	C	-0.506217	-1.518466	0.231983
C49	C	-0.506237	-1.518506	0.115206
C50	C	-0.439056	-1.585632	0.950617
C51	C	-0.439091	-1.585700	1.060341
C52	C	-0.573359	-1.451248	1.060342
C53	C	-0.573328	-1.451187	0.950620
H54	H	-0.907193	-1.396629	0.383945
H55	H	-0.628034	-1.396543	1.105022
H56	H	-0.384441	-1.640467	1.105000
H57	H	-0.627986	-1.396420	0.905953
H58	H	-0.384518	-0.919336	0.383984
C59	C	-1.101850	-1.277657	0.084677
C60	C	-1.169244	-1.207905	0.033370
C61	C	-1.133803	-1.191604	-0.069174
H62	H	-1.100816	-1.342521	0.048139
H63	H	-1.033126	-1.249029	0.086463
H64	H	-1.237950	-1.236536	0.031578
H65	H	-1.170286	-1.143028	0.069877
H66	H	-1.065079	-1.162976	-0.067388
H67	H	-1.132770	-1.256473	-0.105702
H68	H	-1.179519	-1.144269	-0.103996
C69	C	-0.987263	-1.417744	0.224734
C70	C	-0.967823	-1.389258	0.120579
C71	C	-0.877341	-1.440147	0.085096
H72	H	-0.996969	-1.491440	0.228883
H73	H	-0.929355	-1.397874	0.267162
H74	H	-1.025717	-1.409134	0.078162
H75	H	-0.958097	-1.315570	0.116401
H76	H	-0.819433	-1.420277	0.127524
H77	H	-0.887056	-1.513841	0.089252
H78	H	-0.864134	-1.420819	0.014427
C79	C	-0.646175	-1.133182	0.646366
C80	C	-0.704945	-1.061666	0.705259
C81	C	-0.772155	-1.116336	0.772571
H82	H	-0.606021	-1.175961	0.692188
H83	H	-0.692071	-1.175992	0.606248
H84	H	-0.659055	-1.018874	0.745375
H85	H	-0.745120	-1.018885	0.659465
H86	H	-0.818051	-1.159146	0.732453
H87	H	-0.731993	-1.159113	0.818386
H88	H	-0.812045	-1.067821	0.812531
H89	H	-0.384480	-1.118403	0.383959
H90	H	-0.384374	-1.640344	0.905952
C91	C	-1.250328	-1.345101	0.512243
C92	C	-1.351620	-1.387238	0.509258
C93	C	-1.387402	-1.403477	0.611692
H94	H	-1.251470	-1.280216	0.548742
H95	H	-1.204752	-1.392437	0.547251
H96	H	-1.397186	-1.339904	0.474265
H97	H	-1.350506	-1.452130	0.472779
H98	H	-1.341826	-1.450813	0.646700
H99	H	-1.388538	-1.338588	0.648183
H100	H	-1.456128	-1.432077	0.609681
H101	H	-1.275489	-1.189592	0.176554
C102	C	-1.120971	-1.658794	0.645888
C103	C	-1.094271	-1.762743	0.623045
C104	C	-1.148975	-1.830123	0.690163
H105	H	-1.194192	-1.649341	0.636305
H106	H	-1.102952	-1.643451	0.716503
H107	H	-1.112297	-1.778081	0.552448
H108	H	-1.021059	-1.772230	0.632635
H109	H	-1.130956	-1.814780	0.760777
H110	H	-1.222193	-1.820660	0.680574
H111	H	-1.130860	-1.900659	0.674679
C112	C	-1.026218	-1.619366	0.786835
C113	C	-1.100820	-1.694146	0.816564
C114	C	-1.191373	-1.643317	0.851953
H115	H	-1.053931	-1.577071	0.732201
H116	H	-1.009324	-1.576464	0.845328
H117	H	-1.117714	-1.737029	0.758078
H118	H	-1.073140	-1.736444	0.871207
H119	H	-1.174480	-1.600415	0.910445
H120	H	-1.219077	-1.601023	0.797313
H121	H	-1.241998	-1.694047	0.872137
H122	H	-1.340046	-1.218796	0.362543
C123	C	-0.911507	-1.759327	0.927000
C124	C	-0.844079	-1.829036	0.978322
C125	C	-0.879457	-1.845257	1.080900
H126	H	-0.980218	-1.787957	0.925310
H127	H	-0.912514	-1.694407	0.963468
H128	H	-0.843084	-1.893944	0.941864
H129	H	-0.775365	-1.800426	0.980041
H130	H	-0.880464	-1.780337	1.117368
H131	H	-0.948168	-1.873884	1.079200
H132	H	-0.833708	-1.892548	1.115738
C133	C	-0.722869	-1.865536	0.853367
C134	C	-0.620444	-1.828286	0.866299
C135	C	-0.565404	-1.895275	0.933557
H136	H	-0.720912	-1.933966	0.824095
H137	H	-0.756964	-1.867801	0.919503
H138	H	-0.586358	-1.826034	0.800175
H139	H	-0.622369	-1.759866	0.895583
H140	H	-0.599499	-1.897539	0.999694
H141	H	-0.563456	-1.963701	0.904278
H142	H	-0.495907	-1.870005	0.942348
H143	H	-0.673357	-1.818225	0.649107
H144	H	-0.772871	-1.696362	0.527180
H145	H	-0.627889	-0.919420	0.628078
