data_functionalizedCrystal
_audit_creation_method	'MofGen! by Chris Wilmer'
_symmetry_space_group_name_H-M	'P1'
_symmetry_Int_Tables_number	1
_symmetry_cell_setting	triclinic
loop_
_symmetry_equiv_pos_as_xyz
  x,y,z
_cell_length_a	10.723024
_cell_length_b	10.723024
_cell_length_c	9.798715
_cell_angle_alpha	90.001978
_cell_angle_beta	89.997513
_cell_angle_gamma	95.532131
loop_
_atom_site_label
_atom_site_type_symbol
_atom_site_fract_x
_atom_site_fract_y
_atom_site_fract_z
O1	O	1.657187	-0.175024	-0.113450
O2	O	1.990521	0.158309	0.219884
O3	O	2.323854	0.491642	0.553217
O4	O	1.294035	-0.191778	-0.113460
O5	O	1.627368	0.141556	0.219873
O6	O	1.960702	0.474889	0.553206
O7	O	1.483988	-0.001825	-0.113450
O8	O	1.817321	0.331508	0.219884
O9	O	2.150654	0.664842	0.553217
O10	O	1.467234	-0.364977	-0.113460
O11	O	1.800568	-0.031644	0.219873
O12	O	2.133901	0.301689	0.553206
O13	O	1.483974	-0.001824	0.113532
O14	O	1.817307	0.331509	0.446866
O15	O	2.150640	0.664842	0.780199
O16	O	1.294021	-0.191777	0.113522
O17	O	1.627354	0.141556	0.446855
O18	O	1.960687	0.474889	0.780188
O19	O	1.657173	-0.175024	0.113532
O20	O	1.990506	0.158309	0.446866
O21	O	2.323840	0.491643	0.780199
Zn22	Zn	1.475595	-0.183401	0.149565
Zn23	Zn	1.808928	0.149933	0.482899
Zn24	Zn	2.142261	0.483266	0.816232
Zn25	Zn	1.475613	-0.183401	-0.149493
Zn26	Zn	1.808947	0.149932	0.183840
Zn27	Zn	2.142280	0.483265	0.517173
O28	O	1.467220	-0.364977	0.113522
O29	O	1.800554	-0.031643	0.446855
O30	O	2.133887	0.301690	0.780188
C31	C	1.247528	-0.190558	0.000029
C32	C	1.580862	0.142775	0.333363
C33	C	1.914195	0.476108	0.666696
C34	C	1.108974	-0.186911	0.000025
C35	C	1.442307	0.146423	0.333359
C36	C	1.775641	0.479756	0.666692
N37	N	1.475591	-0.183399	0.353665
N38	N	1.808924	0.149934	0.686998
N39	N	2.142258	0.483267	1.020332
C40	C	1.482762	0.044675	0.000040
C41	C	1.816095	0.378008	0.333373
C42	C	2.149428	0.711342	0.666706
C43	C	1.479114	0.183229	0.000035
C44	C	1.812447	0.516563	0.333368
C45	C	2.145780	0.849896	0.666701
C46	C	1.703680	-0.176243	0.000040
C47	C	2.037013	0.157090	0.333373
C48	C	2.370346	0.490423	0.666706
C49	C	1.842234	-0.179891	0.000035
C50	C	2.175567	0.153442	0.333368
C51	C	2.508901	0.486776	0.666701
C52	C	1.917217	-0.073603	0.000036
C53	C	2.250550	0.259730	0.333369
C54	C	2.583883	0.593063	0.666703
C55	C	2.060420	-0.077371	0.000031
C56	C	2.393753	0.255962	0.333364
C57	C	2.727087	0.589296	0.666698
C58	C	1.468447	-0.411477	0.000029
C59	C	1.801780	-0.078143	0.333363
C60	C	2.135113	0.255190	0.666696
C61	C	1.472094	-0.550031	0.000025
C62	C	1.805428	-0.216698	0.333359
C63	C	2.138761	0.116636	0.666692
C64	C	1.585401	0.258212	0.000036
C65	C	1.918735	0.591545	0.333369
C66	C	2.252068	0.924878	0.666703
C67	C	1.581634	0.401415	0.000031
C68	C	1.914967	0.734749	0.333364
C69	C	2.248301	1.068082	0.666698
N70	N	1.475627	-0.183393	-0.353593
N71	N	1.808960	0.149941	-0.020260
N72	N	2.142294	0.483274	0.313074
C73	C	1.555347	-0.103292	0.421446
C74	C	1.888680	0.230041	0.754780
C75	C	2.222014	0.563375	1.088113
C76	C	1.555367	-0.103288	0.578609
C77	C	1.888700	0.230046	0.911942
C78	C	2.222034	0.563379	1.245276
H79	H	1.875395	0.020182	0.000062
H80	H	2.208728	0.353516	0.333395
H81	H	2.542061	0.686849	0.666728
H82	H	1.623611	-0.034707	0.363128
H83	H	1.956944	0.298627	0.696461
H84	H	2.290277	0.631960	1.029794
Cl85	Cl	1.906793	-0.324697	0.000038
Cl86	Cl	2.240126	0.008636	0.333371
Cl87	Cl	2.573459	0.341970	0.666705
H88	H	1.679187	0.216390	0.000047
H89	H	2.012521	0.549723	0.333380
H90	H	2.345854	0.883056	0.666714
H91	H	1.407319	-0.251975	0.411986
H92	H	1.740652	0.081358	0.745319
H93	H	2.073985	0.414692	1.078652
H94	H	1.672624	0.465848	0.000038
H95	H	2.005958	0.799181	0.333371
H96	H	2.339291	1.132514	0.666705
H97	H	1.623654	-0.034709	0.636898
H98	H	1.956987	0.298625	0.970231
H99	H	2.290321	0.631958	1.303565
H100	H	1.407345	-0.251984	0.588127
H101	H	1.740679	0.081349	0.921460
H102	H	2.074012	0.414683	1.254793
H103	H	2.124853	0.013619	0.000023
H104	H	2.458186	0.346953	0.333357
H105	H	2.791519	0.680286	0.666690
H106	H	1.385328	0.225051	0.000023
H107	H	1.718661	0.558385	0.333356
H108	H	2.051995	0.891718	0.666690
H109	H	2.044549	-0.277906	0.000019
H110	H	2.377882	0.055427	0.333352
H111	H	2.711216	0.388761	0.666685
Cl112	Cl	1.331599	0.350504	0.000034
Cl113	Cl	1.664932	0.683837	0.333368
Cl114	Cl	1.998265	1.017170	0.666701
