data_functionalizedCrystal
_audit_creation_method	'MofGen! by Chris Wilmer'
_symmetry_space_group_name_H-M	'P1'
_symmetry_Int_Tables_number	1
_symmetry_cell_setting	triclinic
loop_
_symmetry_equiv_pos_as_xyz
  x,y,z
_cell_length_a	13.897449
_cell_length_b	18.050589
_cell_length_c	13.897441
_cell_angle_alpha	89.972127
_cell_angle_beta	89.979267
_cell_angle_gamma	90.029500
loop_
_atom_site_label
_atom_site_type_symbol
_atom_site_fract_x
_atom_site_fract_y
_atom_site_fract_z
Zn1	Zn	1.474632	-0.295610	-0.545399
Zn2	Zn	1.974632	0.204390	-0.045399
Zn3	Zn	1.474496	-0.419815	-0.384108
Zn4	Zn	1.974496	0.080185	0.115892
Zn5	Zn	1.313321	-0.295646	-0.384118
Zn6	Zn	1.813321	0.204354	0.115882
Zn7	Zn	1.313273	-0.419766	-0.545361
Zn8	Zn	1.813273	0.080234	-0.045361
O9	O	1.393931	-0.357709	-0.464747
O10	O	1.893931	0.142291	0.035253
O11	O	1.609596	-0.312092	-0.524016
O12	O	2.109596	0.187908	-0.024016
O13	O	1.453079	-0.403379	-0.249128
O14	O	1.953079	0.096621	0.250872
O15	O	1.334796	-0.191716	-0.405532
O16	O	1.834796	0.308284	0.094468
O17	O	1.609496	-0.403344	-0.405516
O18	O	2.109496	0.096656	0.094484
O19	O	1.453311	-0.191690	-0.524025
O20	O	1.953311	0.308310	-0.024025
O21	O	1.334665	-0.312152	-0.249135
O22	O	1.834665	0.187848	0.250865
O23	O	1.178333	-0.312105	-0.405495
O24	O	1.678333	0.187895	0.094505
O25	O	1.334715	-0.403261	-0.680348
O26	O	1.834715	0.096739	-0.180348
O27	O	1.178298	-0.403295	-0.523960
O28	O	1.678298	0.096705	-0.023960
O29	O	1.453264	-0.312045	-0.680376
O30	O	1.953264	0.187955	-0.180376
O31	O	1.453033	-0.523733	-0.405479
O32	O	1.953033	-0.023733	0.094521
O33	O	1.334583	-0.523697	-0.523951
O34	O	1.834583	-0.023697	-0.023951
C35	C	1.143316	-0.357699	-0.464725
C36	C	1.643316	0.142301	0.035275
C37	C	1.036102	-0.357713	-0.464738
C38	C	1.536102	0.142287	0.035262
C39	C	1.393814	-0.550661	-0.464731
C40	C	1.893814	-0.050661	0.035269
C41	C	1.393853	-0.633207	-0.464756
C42	C	1.893853	-0.133207	0.035244
C43	C	0.839807	-0.357716	-0.464763
C44	C	1.339807	0.142284	0.035237
C45	C	0.949040	-0.357712	-0.464747
C46	C	1.449040	0.142288	0.035253
C47	C	1.329503	-0.832665	-0.529158
C48	C	1.829503	-0.332665	-0.029158
C49	C	1.305986	-0.882111	-0.441140
C50	C	1.805986	-0.382111	0.058860
C51	C	1.393947	-0.784337	-0.464769
C52	C	1.893947	-0.284337	0.035231
C53	C	1.417512	-0.881973	-0.552797
C54	C	1.917512	-0.381973	-0.052797
C55	C	1.394037	-0.930323	-0.464789
C56	C	1.894037	-0.430323	0.035211
C57	C	1.370384	-0.832696	-0.376703
C58	C	1.870384	-0.332696	0.123297
C59	C	1.481951	-0.832554	-0.488420
C60	C	1.981951	-0.332554	0.011580
C61	C	1.458467	-0.881977	-0.400341
C62	C	1.958467	-0.381977	0.099659
C63	C	1.393893	-0.700239	-0.464758
C64	C	1.893893	-0.200239	0.035242
C65	C	1.394092	-1.014419	-0.464789
C66	C	1.894092	-0.514419	0.035211
C67	C	1.645524	-0.357720	-0.464769
C68	C	2.145524	0.142280	0.035231
C69	C	1.752738	-0.357724	-0.464779
C70	C	2.252738	0.142276	0.035221
C71	C	1.393999	-0.357644	-0.716340
C72	C	1.893999	0.142356	-0.216340
C73	C	1.394028	-0.357616	-0.823554
C74	C	1.894028	0.142384	-0.323554
C75	C	1.394074	-0.164004	-0.464784
C76	C	1.894074	0.335996	0.035216
C77	C	1.394135	-0.081458	-0.464800
C78	C	1.894135	0.418542	0.035200
C79	C	1.394055	-0.357565	-1.019849
C80	C	1.894055	0.142435	-0.519849
C81	C	1.394037	-0.357595	-0.910616
C82	C	1.894037	0.142405	-0.410616
C83	C	1.393918	-0.357721	-0.214132
C84	C	1.893918	0.142279	0.285868
C85	C	1.394076	-0.357540	-0.106919
C86	C	1.894076	0.142460	0.393081
H87	H	1.231606	-0.903895	-0.421153
H88	H	1.731606	-0.403895	0.078847
O89	O	1.441309	-0.907673	-0.641643
O90	O	1.941309	-0.407673	-0.141643
C91	C	1.483905	-0.876577	-0.804835
C92	C	1.983905	-0.376577	-0.304835
C93	C	1.456998	-0.847376	-0.704258
C94	C	1.956998	-0.347376	-0.204258
H95	H	1.496577	-0.827842	-0.855492
H96	H	1.996577	-0.327842	-0.355492
H97	H	1.552264	-0.911242	-0.799741
H98	H	2.052264	-0.411242	-0.299741
H99	H	1.422719	-0.912275	-0.833747
H100	H	1.922719	-0.412275	-0.333747
H101	H	1.518121	-0.811648	-0.675287
H102	H	2.018121	-0.311648	-0.175287
H103	H	1.388610	-0.812752	-0.709412
H104	H	1.888610	-0.312752	-0.209412
H105	H	1.350403	-0.811140	-0.302246
H106	H	1.850403	-0.311140	0.197754
O107	O	1.523421	-0.907618	-0.335189
O108	O	2.023421	-0.407618	0.164811
C109	C	1.572019	-0.911429	-0.168839
C110	C	2.072019	-0.411429	0.331161
C111	C	1.498385	-0.882354	-0.242520
C112	C	1.998385	-0.382354	0.257480
H113	H	1.551815	-0.891002	-0.093902
H114	H	2.051815	-0.391002	0.406098
H115	H	1.572028	-0.974583	-0.169684
H116	H	2.072028	-0.474583	0.330316
H117	H	1.646775	-0.890183	-0.188403
H118	H	2.146775	-0.390183	0.311597
H119	H	1.423592	-0.903545	-0.223007
H120	H	1.923592	-0.403545	0.276993
H121	H	1.498460	-0.819200	-0.241661
H122	H	1.998460	-0.319200	0.258339
H123	H	1.556314	-0.810772	-0.508449
H124	H	2.056314	-0.310772	-0.008449
H125	H	1.274924	-0.811012	-0.583534
H126	H	1.774924	-0.311012	-0.083534
