data_functionalizedCrystal
_audit_creation_method	'MofGen! by Chris Wilmer'
_symmetry_space_group_name_H-M	'P1'
_symmetry_Int_Tables_number	1
_symmetry_cell_setting	triclinic
loop_
_symmetry_equiv_pos_as_xyz
  x,y,z
_cell_length_a	16.992694
_cell_length_b	16.098571
_cell_length_c	16.992695
_cell_angle_alpha	92.878183
_cell_angle_beta	89.331777
_cell_angle_gamma	87.110571
loop_
_atom_site_label
_atom_site_type_symbol
_atom_site_fract_x
_atom_site_fract_y
_atom_site_fract_z
O1	O	1.047511	0.069153	-0.163582
O2	O	0.819109	0.069177	-0.161750
O3	O	0.932395	0.069158	-0.048466
O4	O	0.934225	0.069171	-0.276866
O5	O	0.939074	-0.069354	-0.055141
O6	O	0.825789	-0.069335	-0.168424
O7	O	1.054190	-0.069360	-0.170256
Zn8	Zn	0.941050	-0.091339	-0.170400
Zn9	Zn	0.932249	0.091157	-0.161606
O10	O	0.940905	-0.069341	-0.283540
C11	C	0.793089	-0.000076	-0.162731
C12	C	0.705604	-0.000067	-0.155702
N13	N	0.947062	-0.215888	-0.176401
C14	C	0.659613	-0.000064	-0.223520
C15	C	0.577412	-0.000075	-0.216911
C16	C	0.541205	-0.000085	-0.142484
C17	C	0.587202	-0.000090	-0.074661
C18	C	0.669401	-0.000084	-0.081271
C19	C	0.295891	-0.000108	-0.115091
C20	C	0.213686	-0.000112	-0.108486
C21	C	0.203903	-0.000099	-0.250737
C22	C	0.286103	-0.000088	-0.257340
C23	C	0.332094	-0.000098	-0.189517
N24	N	0.457183	-0.000094	-0.135727
N25	N	0.416114	-0.000094	-0.196275
C26	C	0.974874	-0.740706	-0.204261
C27	C	0.970672	-0.653517	-0.200057
C28	C	0.917843	-0.609919	-0.147188
C29	C	0.869208	-0.653514	-0.098524
C30	C	0.873407	-0.740701	-0.102732
C31	C	0.902625	-0.346670	-0.131946
C32	C	0.898432	-0.259477	-0.127739
C33	C	0.999895	-0.259486	-0.229274
C34	C	1.004092	-0.346675	-0.233475
C35	C	0.955454	-0.390262	-0.184814
C36	C	0.913549	-0.520798	-0.142888
C37	C	0.959745	-0.479382	-0.189118
C38	C	1.080211	-0.000105	-0.169275
C39	C	1.167695	-0.000109	-0.176304
C40	C	0.933379	-0.000098	-0.022443
C41	C	0.926350	-0.000097	0.065041
N42	N	0.926244	0.215705	-0.155599
C43	C	0.939921	-0.000083	-0.309563
C44	C	0.946949	-0.000079	-0.397047
C45	C	0.994168	-0.000105	0.111032
C46	C	0.987559	-0.000096	0.193233
C47	C	0.913131	-0.000085	0.229442
C48	C	0.845307	-0.000075	0.183445
C49	C	0.851917	-0.000077	0.101246
C50	C	0.885735	-0.000071	0.474757
C51	C	0.879131	-0.000071	0.556962
C52	C	1.021383	-0.000091	0.566744
C53	C	1.027987	-0.000098	0.484543
C54	C	0.960163	-0.000083	0.438554
N55	N	0.906373	-0.000079	0.313464
N56	N	0.966921	-0.000083	0.354533
H57	H	0.689087	-0.000056	-0.284126
O58	O	0.773069	-0.000101	0.218741
C59	C	0.781775	-0.000082	0.301155
H60	H	0.843262	-0.026312	0.315326
H61	H	0.735778	-0.040291	0.327334
H62	H	0.773323	0.066370	0.327449
H63	H	0.796692	-0.000071	0.063801
H64	H	1.054776	-0.000119	0.081557
H65	H	0.855408	-0.223982	-0.084687
O66	O	0.806764	-0.000014	0.592012
C67	C	0.748318	-0.000019	0.533795
H68	H	0.772616	0.026198	0.477895
H69	H	0.694733	0.040210	0.556063
H70	H	0.730345	-0.066464	0.520352
H71	H	1.088594	-0.000107	0.455068
H72	H	0.315577	-0.000071	-0.317946
O73	O	0.855306	-0.389044	-0.084788
C74	C	0.807034	-0.439476	-0.131817
H75	H	0.801230	-0.413192	-0.192654
H76	H	0.746213	-0.440458	-0.102950
H77	H	0.834623	-0.505558	-0.137877
H78	H	0.830508	-0.000059	0.437322
O79	O	0.178641	-0.000157	-0.036125
C80	C	0.236857	-0.000143	0.022322
H81	H	0.295286	-0.026366	-0.004499
H82	H	0.218468	-0.040359	0.072036
H83	H	0.243894	0.066307	0.046692
H84	H	1.039492	-0.223988	-0.268892
O85	O	0.532852	-0.000034	-0.282868
C86	C	0.582437	-0.000041	-0.349976
H87	H	0.641196	0.026188	-0.332570
H88	H	0.553318	0.040175	-0.395871
H89	H	0.592893	-0.066489	-0.375754
H90	H	0.166449	-0.000092	-0.305954
O91	O	0.552116	0.000013	-0.002314
C92	C	0.571695	0.071759	0.042789
H93	H	0.628830	0.095677	0.018920
H94	H	0.579763	0.055622	0.106851
H95	H	0.522326	0.121991	0.039068
H96	H	1.042784	-0.000105	0.230675
H97	H	0.706846	-0.000087	-0.026046
O98	O	0.340634	0.000003	-0.049259
C99	C	0.384988	0.071753	-0.045356
H100	H	0.391905	0.095671	-0.106946
H101	H	0.445639	0.055624	-0.020669
H102	H	0.353289	0.121984	-0.005296
O103	O	1.055497	-0.389057	-0.284723
C104	C	1.108624	-0.439517	-0.242557
H105	H	1.111887	-0.413253	-0.179183
H106	H	1.169544	-0.440508	-0.271511
H107	H	1.087403	-0.505593	-0.242879
H108	H	1.010272	-0.618031	-0.239682
O109	O	1.026212	-0.782924	-0.255687
C110	C	1.068246	-0.725751	-0.297721
H111	H	1.032952	-0.663595	-0.297252
H112	H	1.078214	-0.750934	-0.361148
H113	H	1.127560	-0.716492	-0.268756
O114	O	0.817849	-0.611072	-0.047270
C115	C	0.764698	-0.560635	-0.089432
H116	H	0.792217	-0.547570	-0.148763
H117	H	0.751002	-0.499328	-0.054271
H118	H	0.707895	-0.594221	-0.099356
O119	O	0.826137	-0.782917	-0.055380
C120	C	0.778595	-0.725743	-0.007826
H121	H	0.807902	-0.663600	-0.002293
H122	H	0.771051	-0.750944	0.053168
H123	H	0.718389	-0.716454	-0.035898
O124	O	1.010977	-0.521691	-0.240584
C125	C	0.993161	-0.500361	-0.318079
H126	H	0.929004	-0.476377	-0.320523
H127	H	1.002930	-0.557699	-0.359860
H128	H	1.033140	-0.449763	-0.336521
O129	O	0.862280	-0.478540	-0.091419
C130	C	0.880139	-0.499842	-0.013925
H131	H	0.913505	-0.563152	-0.015534
H132	H	0.823155	-0.502816	0.021667
H133	H	0.918196	-0.450783	0.014757
O134	O	1.087181	-0.000061	0.611537
C135	C	1.065393	-0.000077	0.691852
H136	H	1.002100	0.026151	0.700137
H137	H	1.106365	0.040135	0.728150
H138	H	1.070096	-0.066528	0.712214
