data_functionalizedCrystal
_audit_creation_method	'MofGen! by Chris Wilmer'
_symmetry_space_group_name_H-M	'P1'
_symmetry_Int_Tables_number	1
_symmetry_cell_setting	triclinic
loop_
_symmetry_equiv_pos_as_xyz
  x,y,z
_cell_length_a	12.996460
_cell_length_b	12.837943
_cell_length_c	12.837942
_cell_angle_alpha	94.828940
_cell_angle_beta	89.994579
_cell_angle_gamma	89.995743
loop_
_atom_site_label
_atom_site_type_symbol
_atom_site_fract_x
_atom_site_fract_y
_atom_site_fract_z
O1	O	0.085548	-1.402337	-0.272142
O2	O	0.418881	-1.069004	0.061191
O3	O	0.752214	-0.735671	0.394524
O4	O	0.085554	-1.099204	-0.258699
O5	O	0.418887	-0.765871	0.074634
O6	O	0.752220	-0.432537	0.407967
O7	O	0.085544	-1.244049	-0.113854
O8	O	0.418878	-0.910716	0.219479
O9	O	0.752211	-0.577382	0.552813
O10	O	0.085557	-1.257492	-0.416988
O11	O	0.418890	-0.924159	-0.083654
O12	O	0.752223	-0.590826	0.249679
O13	O	-0.085589	-1.244031	-0.113844
O14	O	0.247744	-0.910698	0.219490
O15	O	0.581077	-0.577365	0.552823
O16	O	-0.085580	-1.099186	-0.258689
O17	O	0.247753	-0.765853	0.074645
O18	O	0.581087	-0.432520	0.407978
O19	O	-0.085586	-1.402320	-0.272132
O20	O	0.247747	-1.068986	0.061201
O21	O	0.581080	-0.735653	0.394535
Cu22	Cu	-0.101209	-1.250751	-0.265409
Cu23	Cu	0.232124	-0.917418	0.067924
Cu24	Cu	0.565458	-0.584085	0.401257
Cu25	Cu	0.101176	-1.250772	-0.265422
Cu26	Cu	0.434510	-0.917439	0.067912
Cu27	Cu	0.767843	-0.584106	0.401245
O28	O	-0.085577	-1.257475	-0.416977
O29	O	0.247756	-0.924141	-0.083644
O30	O	0.581090	-0.590808	0.249690
C31	C	-0.000013	-1.060126	-0.254153
C32	C	0.333321	-0.726793	0.079181
C33	C	0.666654	-0.393459	0.412514
C34	C	-0.000010	-0.943711	-0.240608
C35	C	0.333323	-0.610378	0.092725
C36	C	0.666656	-0.277044	0.426059
N37	N	-0.243556	-1.250744	-0.265401
N38	N	0.089777	-0.917411	0.067933
N39	N	0.423110	-0.584078	0.401266
C40	C	-0.000022	-1.239499	-0.074780
C41	C	0.333311	-0.906165	0.258554
C42	C	0.666645	-0.572832	0.591887
C43	C	-0.000020	-1.225954	0.041635
C44	C	0.333313	-0.892621	0.374969
C45	C	0.666647	-0.559288	0.708302
C46	C	-0.663370	-1.250771	-0.265423
C47	C	-0.330037	-0.917438	0.067911
C48	C	0.003296	-0.584104	0.401244
C49	C	-0.546565	-1.250761	-0.265420
C50	C	-0.213232	-0.917427	0.067914
C51	C	0.120101	-0.584094	0.401247
C52	C	-0.453467	-1.250758	-0.265413
C53	C	-0.120134	-0.917425	0.067921
C54	C	0.213200	-0.584092	0.401254
C55	C	-0.336654	-1.250747	-0.265408
C56	C	-0.003321	-0.917414	0.067925
C57	C	0.330012	-0.584080	0.401259
N58	N	0.243524	-1.250787	-0.265423
N59	N	0.576857	-0.917453	0.067910
N60	N	0.910190	-0.584120	0.401244
C61	C	-0.000018	-1.441398	-0.276679
C62	C	0.333316	-1.108064	0.056655
C63	C	0.666649	-0.774731	0.389988
C64	C	-0.000013	-1.557813	-0.290223
C65	C	0.333320	-1.224479	0.043110
C66	C	0.666653	-0.891146	0.376444
C67	C	-0.000018	-0.718837	-0.403437
C68	C	0.333315	-0.385503	-0.070104
C69	C	0.666648	-0.052170	0.263229
C70	C	-0.000017	-0.609454	-0.390716
C71	C	0.333316	-0.276121	-0.057383
C72	C	0.666650	0.057212	0.275951
C73	C	-0.000014	-0.615562	-0.202445
C74	C	0.333320	-0.282228	0.130888
C75	C	0.666653	0.051105	0.464222
C76	C	-0.000015	-0.724944	-0.215166
C77	C	0.333318	-0.391611	0.118167
C78	C	0.666652	-0.058277	0.451500
C79	C	-0.000016	-0.776578	-0.315666
C80	C	0.333317	-0.443244	0.017668
C81	C	0.666651	-0.109911	0.351001
C82	C	-0.000010	-0.885962	-0.328386
C83	C	0.333324	-0.552629	0.004947
C84	C	0.666657	-0.219295	0.338280
C85	C	-0.000014	-0.892067	-0.140116
C86	C	0.333319	-0.558734	0.193217
C87	C	0.666653	-0.225401	0.526551
C88	C	-0.000013	-0.782685	-0.127395
C89	C	0.333321	-0.449352	0.205939
C90	C	0.666654	-0.116018	0.539272
C91	C	-0.000008	-1.262025	-0.456051
C92	C	0.333325	-0.928692	-0.122718
C93	C	0.666658	-0.595358	0.210615
C94	C	-0.000004	-1.275569	-0.572467
C95	C	0.333330	-0.942236	-0.239133
C96	C	0.666663	-0.608903	0.094200
C97	C	-0.000002	-1.388784	0.266510
C98	C	0.333332	-1.055450	0.599843
C99	C	0.666665	-0.722117	0.933176
C100	C	0.000000	-1.376062	0.375892
C101	C	0.333334	-1.042729	0.709225
C102	C	0.666667	-0.709396	1.042559
C103	C	-0.000007	-1.187791	0.369785
C104	C	0.333327	-0.854458	0.703118
C105	C	0.666660	-0.521125	1.036451
C106	C	-0.000009	-1.200513	0.260402
C107	C	0.333325	-0.867179	0.593736
C108	C	0.666658	-0.533846	0.927069
C109	C	-0.000008	-1.301012	0.208769
C110	C	0.333326	-0.967679	0.542102
C111	C	0.666659	-0.634345	0.875435
C112	C	-0.000017	-1.313732	0.099384
C113	C	0.333316	-0.980399	0.432717
C114	C	0.666650	-0.647066	0.766051
C115	C	-0.000017	-1.125462	0.093279
C116	C	0.333317	-0.792129	0.426612
C117	C	0.666650	-0.458796	0.759946
C118	C	-0.000015	-1.112741	0.202661
C119	C	0.333319	-0.779408	0.535995
C120	C	0.666652	-0.446074	0.869328
H121	H	-0.000012	-0.928000	-0.410218
H122	H	0.333321	-0.594667	-0.076884
H123	H	0.666655	-0.261334	0.256449
H124	H	-0.000022	-0.562446	-0.462189
H125	H	0.333311	-0.229112	-0.128856
H126	H	0.666645	0.104221	0.204477
H127	H	-0.000011	-1.470614	0.224469
H128	H	0.333322	-1.137281	0.557802
H129	H	0.666656	-0.803948	0.891135
C130	C	-0.000024	-0.558745	-0.091904
C131	C	0.333309	-0.225412	0.241429
C132	C	0.666642	0.107921	0.574763
N133	N	-0.000033	-0.515950	-0.008643
N134	N	0.333301	-0.182617	0.324690
N135	N	0.666634	0.150717	0.658023
H136	H	0.000008	-1.447536	0.422901
H137	H	0.333342	-1.114202	0.756234
H138	H	0.666675	-0.780869	1.089567
H139	H	-0.000024	-0.740630	-0.045571
H140	H	0.333310	-0.407296	0.287763
H141	H	0.666643	-0.073963	0.621096
H142	H	-0.000030	-1.053992	0.046254
H143	H	0.333304	-0.720659	0.379588
H144	H	0.666637	-0.387325	0.712921
H145	H	-0.000005	-0.939092	-0.068646
H146	H	0.333328	-0.605758	0.264688
H147	H	0.666662	-0.272425	0.598021
C148	C	-0.000018	-1.077250	0.426601
C149	C	0.333316	-0.743917	0.759934
C150	C	0.666649	-0.410583	1.093268
N151	N	-0.000033	-0.993990	0.469396
N152	N	0.333300	-0.660656	0.802729
N153	N	0.666634	-0.327323	1.136063
H154	H	-0.000020	-1.395564	0.057346
H155	H	0.333313	-1.062231	0.390679
H156	H	0.666647	-0.728897	0.724012
H157	H	-0.000017	-0.760878	-0.485268
H158	H	0.333316	-0.427544	-0.151935
H159	H	0.666649	-0.094211	0.181399
C160	C	-0.000027	-1.002197	0.259471
C161	C	0.333306	-0.668864	0.592804
C162	C	0.666639	-0.335530	0.926138
N163	N	-0.000045	-0.918933	0.302259
N164	N	0.333288	-0.585600	0.635592
N165	N	0.666622	-0.252266	0.968926
