data_functionalizedCrystal
_audit_creation_method	'MofGen! by Chris Wilmer'
_symmetry_space_group_name_H-M	'P1'
_symmetry_Int_Tables_number	1
_symmetry_cell_setting	triclinic
loop_
_symmetry_equiv_pos_as_xyz
  x,y,z
_cell_length_a	16.992694
_cell_length_b	16.992695
_cell_length_c	7.540329
_cell_angle_alpha	90.003928
_cell_angle_beta	89.997336
_cell_angle_gamma	90.668223
loop_
_atom_site_label
_atom_site_type_symbol
_atom_site_fract_x
_atom_site_fract_y
_atom_site_fract_z
O1	O	1.050849	0.166915	0.147262
O2	O	1.550849	0.666915	0.647262
O3	O	0.822449	0.165084	0.147314
O4	O	1.322449	0.665084	0.647314
O5	O	0.935733	0.051800	0.147274
O6	O	1.435733	0.551800	0.647274
O7	O	0.937564	0.280200	0.147302
O8	O	1.437564	0.780200	0.647302
O9	O	0.935726	0.051798	-0.147691
O10	O	1.435726	0.551798	0.352309
O11	O	0.822442	0.165082	-0.147651
O12	O	1.322442	0.665082	0.352349
O13	O	1.050842	0.166913	-0.147703
O14	O	1.550842	0.666913	0.352297
Cu15	Cu	0.936641	0.165998	-0.174610
Cu16	Cu	1.436641	0.665998	0.325390
Cu17	Cu	0.936650	0.166000	0.174221
Cu18	Cu	1.436650	0.666000	0.674221
O19	O	0.937557	0.280198	-0.147663
O20	O	1.437557	0.780198	0.352337
C21	C	0.793085	0.162727	-0.000162
C22	C	1.293085	0.662727	0.499838
C23	C	0.705600	0.155699	-0.000142
C24	C	1.205600	0.655699	0.499858
C25	C	0.659610	0.223517	-0.000135
C26	C	1.159610	0.723517	0.499865
C27	C	0.577409	0.216908	-0.000161
C28	C	1.077409	0.716908	0.499839
C29	C	0.541201	0.142480	-0.000180
C30	C	1.041201	0.642480	0.499820
C31	C	0.587198	0.074657	-0.000192
C32	C	1.087198	0.574657	0.499808
C33	C	0.669397	0.081267	-0.000180
C34	C	1.169397	0.581267	0.499820
C35	C	0.295886	0.115086	-0.000231
C36	C	0.795886	0.615086	0.499769
C37	C	0.213681	0.108481	-0.000238
C38	C	0.713681	0.608481	0.499762
C39	C	0.203898	0.250732	-0.000210
C40	C	0.703898	0.750732	0.499790
C41	C	0.286099	0.257336	-0.000187
C42	C	0.786099	0.757336	0.499813
C43	C	0.332089	0.189512	-0.000208
C44	C	0.832089	0.689512	0.499792
N45	N	0.457178	0.135723	-0.000200
N46	N	0.957178	0.635723	0.499800
N47	N	0.416110	0.196270	-0.000201
N48	N	0.916110	0.696270	0.499799
C49	C	0.933374	0.022439	-0.000208
C50	C	1.433374	0.522439	0.499792
C51	C	0.926345	-0.065046	-0.000206
C52	C	1.426345	0.434954	0.499794
C53	C	0.994163	-0.111037	-0.000223
C54	C	1.494163	0.388963	0.499777
C55	C	0.987554	-0.193238	-0.000205
C56	C	1.487554	0.306762	0.499795
C57	C	0.913127	-0.229446	-0.000182
C58	C	1.413127	0.270554	0.499818
C59	C	0.845303	-0.183449	-0.000159
C60	C	1.345303	0.316551	0.499841
C61	C	0.851913	-0.101250	-0.000165
C62	C	1.351913	0.398750	0.499835
C63	C	0.885732	-0.474760	-0.000151
C64	C	1.385732	0.025240	0.499849
C65	C	0.879127	-0.556966	-0.000151
C66	C	1.379127	-0.056966	0.499849
C67	C	1.021379	-0.566749	-0.000193
C68	C	1.521379	-0.066749	0.499807
C69	C	1.027982	-0.484547	-0.000209
C70	C	1.527982	0.015453	0.499791
C71	C	0.960159	-0.438558	-0.000177
C72	C	1.460159	0.061442	0.499823
N73	N	0.906369	-0.313468	-0.000169
N74	N	1.406369	0.186532	0.499831
N75	N	0.966917	-0.354537	-0.000178
N76	N	1.466917	0.145463	0.499822
C77	C	1.080205	0.169270	-0.000223
C78	C	1.580205	0.669270	0.499777
C79	C	1.167690	0.176299	-0.000231
C80	C	1.667690	0.676299	0.499769
C81	C	0.939917	0.309559	-0.000178
C82	C	1.439917	0.809559	0.499822
C83	C	0.946945	0.397044	-0.000168
C84	C	1.446945	0.897044	0.499832
N85	N	0.936641	0.165996	-0.419958
N86	N	1.436641	0.665996	0.080042
N87	N	0.936656	0.165996	0.419569
N88	N	1.436656	0.665996	0.919569
H89	H	1.054770	-0.081563	-0.000253
H90	H	1.554770	0.418437	0.499747
H91	H	0.333322	0.059859	-0.000250
H92	H	0.833322	0.559859	0.499750
H93	H	0.706842	0.026042	-0.000184
H94	H	1.206842	0.526042	0.499816
H95	H	0.818517	-0.586443	-0.000161
H96	H	1.318517	-0.086443	0.499839
H97	H	0.830505	-0.437325	-0.000125
H98	H	1.330505	0.062675	0.499875
H99	H	1.042779	-0.230680	-0.000223
H100	H	1.542779	0.269320	0.499777
H101	H	1.088589	-0.455073	-0.000228
H102	H	1.588589	0.044927	0.499772
H103	H	1.076596	-0.604202	-0.000216
H104	H	1.576596	-0.104202	0.499784
C105	C	0.772008	-0.305109	-0.000153
C106	C	1.272008	0.194891	0.499847
C107	C	0.763490	-0.223247	-0.000140
C108	C	1.263490	0.276753	0.499860
H109	H	0.721498	-0.329675	-0.000157
H110	H	1.221498	0.170325	0.499843
H111	H	0.800145	-0.320584	0.102696
H112	H	1.300145	0.179416	0.602696
H113	H	0.800149	-0.320585	-0.103027
H114	H	1.300149	0.179415	0.396973
H115	H	0.735355	-0.207771	0.102741
H116	H	1.235355	0.292229	0.602741
H117	H	0.735342	-0.207766	-0.102999
H118	H	1.235342	0.292234	0.397001
H119	H	0.166444	0.305950	-0.000196
H120	H	0.666444	0.805950	0.499804
C121	C	0.710641	-0.099831	-0.000136
C122	C	1.210641	0.400169	0.499864
C123	C	0.777366	-0.050693	-0.000150
C124	C	1.277366	0.449307	0.499850
H125	H	0.664619	-0.068618	-0.000131
H126	H	1.164619	0.431382	0.499869
H127	H	0.711026	-0.132090	0.102717
H128	H	1.211026	0.367910	0.602717
H129	H	0.711023	-0.132100	-0.103005
H130	H	1.211023	0.367900	0.396995
H131	H	0.776987	-0.018428	0.102726
H132	H	1.276987	0.481572	0.602726
H133	H	0.776980	-0.018420	-0.103014
H134	H	1.276980	0.481580	0.396986
H135	H	0.539966	0.272133	-0.000153
H136	H	1.039966	0.772133	0.499847
C137	C	0.641675	0.363460	-0.000128
C138	C	1.141675	0.863460	0.499872
C139	C	0.699406	0.305331	-0.000119
C140	C	1.199406	0.805331	0.499881
H141	H	0.666243	0.413969	-0.000133
H142	H	1.166243	0.913969	0.499867
H143	H	0.609815	0.357925	0.102722
H144	H	1.109815	0.857925	0.602722
H145	H	0.609821	0.357915	-0.103001
H146	H	1.109821	0.857915	0.396999
H147	H	0.731256	0.310873	0.102761
H148	H	1.231256	0.810873	0.602761
H149	H	0.731279	0.310869	-0.102979
H150	H	1.231279	0.810869	0.397021
H151	H	0.184203	0.047870	-0.000252
H152	H	0.684203	0.547870	0.499748
C153	C	0.268169	0.397281	-0.000190
C154	C	0.768169	0.897281	0.499810
C155	C	0.325897	0.339149	-0.000182
C156	C	0.825897	0.839149	0.499818
H157	H	0.292740	0.447789	-0.000195
H158	H	0.792740	0.947789	0.499805
H159	H	0.236309	0.391748	0.102660
H160	H	0.736309	0.891748	0.602660
H161	H	0.236315	0.391738	-0.103063
H162	H	0.736315	0.891738	0.396937
H163	H	0.357747	0.344689	0.102697
H164	H	0.857747	0.844689	0.602697
H165	H	0.357770	0.344685	-0.103043
H166	H	0.857770	0.844685	0.396957
C167	C	0.465538	0.001362	-0.000207
C168	C	0.965538	0.501362	0.499793
C169	C	0.547399	-0.007156	-0.000210
C170	C	1.047399	0.492844	0.499790
H171	H	0.440971	-0.049148	-0.000203
H172	H	0.940971	0.450852	0.499797
H173	H	0.450064	0.029496	-0.103059
H174	H	0.950064	0.529496	0.396941
H175	H	0.450061	0.029504	0.102664
H176	H	0.950061	0.529504	0.602664
H177	H	0.562877	-0.035294	-0.103088
H178	H	1.062877	0.464706	0.396912
H179	H	0.562879	-0.035303	0.102652
H180	H	1.062879	0.464697	0.602652
