data_functionalizedCrystal
_audit_creation_method	'MofGen! by Chris Wilmer'
_symmetry_space_group_name_H-M	'P1'
_symmetry_Int_Tables_number	1
_symmetry_cell_setting	triclinic
loop_
_symmetry_equiv_pos_as_xyz
  x,y,z
_cell_length_a	9.065215
_cell_length_b	15.186229
_cell_length_c	9.065218
_cell_angle_alpha	89.998095
_cell_angle_beta	85.015325
_cell_angle_gamma	89.997386
loop_
_atom_site_label
_atom_site_type_symbol
_atom_site_fract_x
_atom_site_fract_y
_atom_site_fract_z
O1	O	-1.960402	0.073210	-0.216336
O2	O	-1.531116	0.073215	-0.234086
O3	O	-1.754632	0.073211	-0.010569
O4	O	-1.736886	0.073214	-0.439854
O5	O	-1.754617	-0.073247	-0.010565
O6	O	-1.531101	-0.073243	-0.234083
O7	O	-1.960386	-0.073247	-0.216332
Zn8	Zn	-1.745741	-0.096498	-0.225207
Zn9	Zn	-1.745761	0.096466	-0.225212
O10	O	-1.736870	-0.073243	-0.439850
C11	C	-1.476122	-0.000013	-0.232380
C12	C	-1.312279	-0.000011	-0.227282
N13	N	-1.745738	-0.228191	-0.225203
C14	C	-1.844746	-0.453915	-0.126264
C15	C	-1.844750	-0.546105	-0.126260
C16	C	-1.646758	-0.546110	-0.324148
C17	C	-1.646747	-0.453922	-0.324143
C18	C	-1.745749	-0.407827	-0.225203
C19	C	-1.745765	-0.592205	-0.225204
C20	C	-1.745769	-0.692161	-0.225201
C21	C	-1.745744	-0.307865	-0.225203
C22	C	-1.015381	-0.000017	-0.218039
C23	C	-1.179224	-0.000011	-0.223136
C24	C	-1.752919	-0.000017	0.044420
C25	C	-1.747819	-0.000012	0.208263
N26	N	-1.745776	0.228158	-0.225204
C27	C	-1.738584	-0.000014	-0.494838
C28	C	-1.743683	-0.000012	-0.658681
H29	H	-1.925358	-0.416387	-0.045699
H30	H	-1.566125	-0.416395	-0.404712
H31	H	-1.925360	-0.583628	-0.045694
C32	C	-1.537878	-0.596818	-0.432987
H33	H	-1.552072	-0.658323	-0.418832
H34	H	-1.439186	-0.581720	-0.415599
H35	H	-1.555229	-0.581701	-0.531691
