data_functionalizedCrystal
_audit_creation_method	'MofGen! by Chris Wilmer'
_symmetry_space_group_name_H-M	'P1'
_symmetry_Int_Tables_number	1
_symmetry_cell_setting	triclinic
loop_
_symmetry_equiv_pos_as_xyz
  x,y,z
_cell_length_a	14.519709
_cell_length_b	14.853567
_cell_length_c	12.996460
_cell_angle_alpha	89.997651
_cell_angle_beta	90.000034
_cell_angle_gamma	83.657537
loop_
_atom_site_label
_atom_site_type_symbol
_atom_site_fract_x
_atom_site_fract_y
_atom_site_fract_z
O1	O	-1.223821	-0.118181	0.085424
O2	O	-0.890487	0.215153	0.418757
O3	O	-0.557154	0.548486	0.752091
O4	O	-0.955338	-0.132098	0.085454
O5	O	-0.622005	0.201235	0.418788
O6	O	-0.288672	0.534569	0.752121
O7	O	-1.096751	0.006088	0.085441
O8	O	-0.763418	0.339421	0.418775
O9	O	-0.430084	0.672754	0.752108
O10	O	-1.082408	-0.256366	0.085437
O11	O	-0.749075	0.076967	0.418770
O12	O	-0.415741	0.410300	0.752103
O13	O	-1.096736	0.006095	-0.085692
O14	O	-0.763403	0.339429	0.247641
O15	O	-0.430070	0.672762	0.580974
O16	O	-0.955323	-0.132090	-0.085679
O17	O	-0.621990	0.201243	0.247654
O18	O	-0.288657	0.534576	0.580987
O19	O	-1.223806	-0.118173	-0.085710
O20	O	-0.890473	0.215160	0.247623
O21	O	-0.557139	0.548494	0.580957
Cu22	Cu	-1.089563	-0.125131	-0.101321
Cu23	Cu	-0.756230	0.208202	0.232013
Cu24	Cu	-0.422897	0.541536	0.565346
Cu25	Cu	-1.089581	-0.125140	0.101065
Cu26	Cu	-0.756247	0.208193	0.434398
Cu27	Cu	-0.422914	0.541527	0.767732
O28	O	-1.082393	-0.256359	-0.085697
O29	O	-0.749060	0.076975	0.247636
O30	O	-0.415726	0.410308	0.580970
C31	C	-0.920971	-0.131446	-0.000109
C32	C	-0.587638	0.201888	0.333225
C33	C	-0.254305	0.535221	0.666558
C34	C	-0.818591	-0.129502	-0.000097
C35	C	-0.485258	0.203831	0.333237
C36	C	-0.151924	0.537165	0.666570
C37	C	-1.096094	0.039680	-0.000122
C38	C	-0.762760	0.373014	0.333211
C39	C	-0.429427	0.706347	0.666544
C40	C	-1.094146	0.139765	-0.000113
C41	C	-0.760813	0.473098	0.333220
C42	C	-0.427480	0.806431	0.666553
C43	C	-1.258173	-0.118826	-0.000145
C44	C	-0.924840	0.214508	0.333189
C45	C	-0.591506	0.547841	0.666522
C46	C	-1.360553	-0.120769	-0.000150
C47	C	-1.027220	0.212564	0.333183
C48	C	-0.693887	0.545897	0.666517
C49	C	-0.443698	-0.122347	-0.000143
C50	C	-0.110365	0.210987	0.333190
C51	C	0.222969	0.544320	0.666523
C52	C	-0.548005	-0.124334	-0.000130
C53	C	-0.214672	0.209000	0.333203
C54	C	0.118662	0.542333	0.666537
C55	C	-0.631141	-0.125924	-0.000119
C56	C	-0.297808	0.207409	0.333214
C57	C	0.035526	0.540743	0.666548
C58	C	-0.735455	-0.127912	-0.000108
C59	C	-0.402121	0.205422	0.333226
C60	C	-0.068788	0.538755	0.666559
C61	C	-1.083050	-0.289952	-0.000131
C62	C	-0.749717	0.043382	0.333202
C63	C	-0.416384	0.376715	0.666536
C64	C	-1.084998	-0.390036	-0.000133
C65	C	-0.751665	-0.056703	0.333200
C66	C	-0.418331	0.276631	0.666533
N67	N	-1.089558	-0.125124	-0.243668
N68	N	-0.756225	0.208209	0.089666
N69	N	-0.422891	0.541543	0.422999
C70	C	-1.001911	0.552334	-0.000122
C71	C	-0.668578	0.885668	0.333211
C72	C	-0.335245	1.219001	0.666544
C73	C	-1.169913	0.573550	-0.000141
C74	C	-0.836580	0.906884	0.333192
C75	C	-0.503246	1.240217	0.666525
C76	C	-1.171744	0.479516	-0.000135
C77	C	-0.838411	0.812849	0.333198
C78	C	-0.505078	1.146182	0.666531
C79	C	-1.088658	0.421886	-0.000125
C80	C	-0.755324	0.755219	0.333209
C81	C	-0.421991	1.088553	0.666542
C82	C	-1.003740	0.458291	-0.000120
C83	C	-0.670407	0.791624	0.333214
C84	C	-0.337073	1.124958	0.666547
C85	C	-1.256661	0.443104	-0.000151
C86	C	-0.923327	0.776437	0.333182
C87	C	-0.589994	1.109770	0.666516
C88	C	-1.258495	0.349064	-0.000146
C89	C	-0.925162	0.682397	0.333187
C90	C	-0.591828	1.015731	0.666520
C91	C	-1.175408	0.291433	-0.000128
C92	C	-0.842074	0.624766	0.333205
C93	C	-0.508741	0.958099	0.666539
C94	C	-1.090486	0.327843	-0.000122
C95	C	-0.757153	0.661176	0.333211
C96	C	-0.423820	0.994509	0.666545
C97	C	-1.007400	0.270213	-0.000111
C98	C	-0.674067	0.603546	0.333222
C99	C	-0.340733	0.936880	0.666556
C100	C	-0.922478	0.306621	-0.000098
C101	C	-0.589144	0.639955	0.333236
C102	C	-0.255811	0.973288	0.666569
C103	C	-0.920653	0.400660	-0.000101
C104	C	-0.587319	0.733993	0.333232
C105	C	-0.253986	1.067326	0.666565
C106	C	-1.177233	0.197394	-0.000124
C107	C	-0.843899	0.530728	0.333209
C108	C	-0.510566	0.864061	0.666543
C109	C	-1.009229	0.176170	-0.000108
C110	C	-0.675895	0.509503	0.333225
C111	C	-0.342562	0.842836	0.666558
C112	C	-1.089580	-0.125141	-0.663482
C113	C	-0.756246	0.208192	-0.330149
C114	C	-0.422913	0.541526	0.003185
C115	C	-1.089571	-0.125139	-0.546677
C116	C	-0.756237	0.208194	-0.213343
C117	C	-0.422904	0.541527	0.119990
C118	C	-1.089569	-0.125133	-0.453579
C119	C	-0.756236	0.208200	-0.120245
C120	C	-0.422902	0.541533	0.213088
C121	C	-1.089559	-0.125130	-0.336766
C122	C	-0.756226	0.208203	-0.003433
C123	C	-0.422893	0.541536	0.329901
N124	N	-1.089594	-0.125140	0.243412
N125	N	-0.756260	0.208193	0.576745
N126	N	-0.422927	0.541527	0.910079
H127	H	-0.854829	0.259687	-0.000096
H128	H	-0.521496	0.593020	0.333237
H129	H	-0.188162	0.926354	0.666571
O130	O	-0.829063	0.439925	-0.000109
O131	O	-0.495730	0.773259	0.333224
O132	O	-0.162396	1.106592	0.666558
H133	H	-0.841753	0.514998	-0.000131
H134	H	-0.508419	0.848331	0.333203
H135	H	-0.175086	1.181664	0.666536
H136	H	-0.941568	0.129253	-0.000095
H137	H	-0.608235	0.462586	0.333238
H138	H	-0.274902	0.795919	0.666572
O139	O	-0.910318	0.591593	-0.000120
O140	O	-0.576985	0.924927	0.333213
O141	O	-0.243651	1.258260	0.666547
H142	H	-0.922999	0.666666	-0.000131
H143	H	-0.589666	0.999999	0.333202
H144	H	-0.256332	1.333332	0.666535
H145	H	-1.327644	0.319429	-0.000156
H146	H	-0.994310	0.652762	0.333177
H147	H	-0.660977	0.986096	0.666511
H148	H	-1.237558	0.620477	-0.000158
H149	H	-0.904225	0.953811	0.333175
H150	H	-0.570892	1.287144	0.666508
H151	H	-1.324305	0.490032	-0.000169
H152	H	-0.990971	0.823365	0.333164
H153	H	-0.657638	1.156699	0.666497
H154	H	-1.246375	0.167755	-0.000142
H155	H	-0.913042	0.501088	0.333191
H156	H	-0.579708	0.834421	0.666525
