data_functionalizedCrystal
_audit_creation_method	'MofGen! by Chris Wilmer'
_symmetry_space_group_name_H-M	'P1'
_symmetry_Int_Tables_number	1
_symmetry_cell_setting	triclinic
loop_
_symmetry_equiv_pos_as_xyz
  x,y,z
_cell_length_a	11.792241
_cell_length_b	11.792241
_cell_length_c	14.750779
_cell_angle_alpha	77.269352
_cell_angle_beta	102.734008
_cell_angle_gamma	84.193416
loop_
_atom_site_label
_atom_site_type_symbol
_atom_site_fract_x
_atom_site_fract_y
_atom_site_fract_z
O1	O	1.482450	0.180014	-0.079735
O2	O	1.152102	0.196053	-0.079757
O3	O	1.325295	0.022861	-0.079739
O4	O	1.309257	0.353206	-0.079753
O5	O	1.374254	-0.026093	0.079917
O6	O	1.201061	0.147099	0.079898
O7	O	1.531409	0.131060	0.079921
Zn8	Zn	1.374009	0.131307	0.105258
Zn9	Zn	1.309503	0.195806	-0.105095
O10	O	1.358217	0.304252	0.079902
C11	C	1.134290	0.170570	0.000068
C12	C	1.008274	0.167558	0.000059
C13	C	1.348767	-0.043907	0.000089
C14	C	1.345752	-0.169920	0.000087
C15	C	0.777570	0.162007	0.000087
C16	C	0.905951	0.165091	0.000072
C17	C	1.340204	-0.400628	0.000071
C18	C	1.343287	-0.272245	0.000080
C19	C	1.549221	0.156543	0.000094
C20	C	1.675235	0.159557	0.000096
C21	C	1.334744	0.371021	0.000073
C22	C	1.337756	0.497036	0.000068
N23	N	1.418041	0.087287	0.248819
N24	N	1.265480	0.239817	-0.248655
C25	C	1.142504	0.362707	0.600607
C26	C	1.173367	0.331868	0.701110
C27	C	1.326761	0.178563	0.701089
C28	C	1.295907	0.209385	0.600584
C29	C	1.203778	0.301459	0.550352
C30	C	1.357182	0.148137	0.550329
C31	C	1.326334	0.178961	0.449833
C32	C	1.234211	0.271033	0.399593
C33	C	1.172930	0.332283	0.449856
C34	C	1.449315	0.056069	0.600563
C35	C	1.510590	-0.005179	0.550307
C36	C	1.479737	0.025639	0.449810
C37	C	1.387614	0.117711	0.399570
C38	C	1.541018	-0.035610	0.399547
C39	C	1.510170	-0.004786	0.299051
C40	C	1.356766	0.148535	0.299074
H41	H	1.281738	0.223503	0.258173
C42	C	1.642355	-0.136883	0.454806
H43	H	1.674435	-0.168943	0.410481
H44	H	1.613277	-0.196429	0.494020
H45	H	1.701886	-0.107746	0.493997
C46	C	1.577564	-0.072160	0.243766
H47	H	1.636842	-0.131417	0.288076
H48	H	1.613022	-0.018986	0.204555
H49	H	1.524405	-0.107661	0.204570
H50	H	1.209099	0.296132	0.317763
H51	H	1.097902	0.407250	0.408954
H52	H	1.123463	0.381753	0.742023
C53	C	1.041161	0.463985	0.545345
H54	H	1.009084	0.496054	0.589667
H55	H	0.981639	0.434858	0.506145
H56	H	1.070253	0.523537	0.506140
H57	H	1.401776	0.103599	0.742000
C58	C	1.483255	0.022160	0.711107
H59	H	1.546908	-0.041435	0.733826
H60	H	1.417607	-0.000844	0.733855
H61	H	1.506211	0.087844	0.733836
H62	H	1.585605	-0.080143	0.591219
