data_functionalizedCrystal
_audit_creation_method	'MofGen! by Chris Wilmer'
_symmetry_space_group_name_H-M	'P1'
_symmetry_Int_Tables_number	1
_symmetry_cell_setting	triclinic
loop_
_symmetry_equiv_pos_as_xyz
  x,y,z
_cell_length_a	10.654551
_cell_length_b	17.699083
_cell_length_c	16.776229
_cell_angle_alpha	89.998433
_cell_angle_beta	90.006594
_cell_angle_gamma	96.115857
loop_
_atom_site_label
_atom_site_type_symbol
_atom_site_fract_x
_atom_site_fract_y
_atom_site_fract_z
O1	O	1.665986	-0.106301	0.066280
O2	O	2.165986	0.393699	0.566280
O3	O	1.300330	-0.116428	0.066284
O4	O	1.800330	0.383572	0.566284
O5	O	1.493488	-0.001241	0.066275
O6	O	1.993488	0.498759	0.566275
O7	O	1.472827	-0.221488	0.066289
O8	O	1.972827	0.278512	0.566289
O9	O	1.493460	-0.001247	-0.066302
O10	O	1.993460	0.498753	0.433698
O11	O	1.300302	-0.116434	-0.066293
O12	O	1.800302	0.383566	0.433707
O13	O	1.665957	-0.106307	-0.066297
O14	O	2.165957	0.393693	0.433703
Zn15	Zn	1.483125	-0.111371	-0.087344
Zn16	Zn	1.983125	0.388629	0.412656
Zn17	Zn	1.483162	-0.111364	0.087331
Zn18	Zn	1.983162	0.388636	0.587331
O19	O	1.472799	-0.221494	-0.066288
O20	O	1.972799	0.278506	0.433712
C21	C	1.253531	-0.115687	-0.000004
C22	C	1.753531	0.384313	0.499996
C23	C	1.114127	-0.113462	-0.000003
C24	C	1.614127	0.386538	0.499997
C25	C	0.917635	-0.110321	-0.072271
C26	C	1.417635	0.389679	0.427729
C27	C	1.048618	-0.112419	-0.072271
C28	C	1.548618	0.387581	0.427729
C29	C	1.048643	-0.112416	0.072271
C30	C	1.548643	0.387584	0.572271
C31	C	0.917661	-0.110324	0.072270
C32	C	1.417661	0.389676	0.572270
C33	C	0.852135	-0.109270	-0.144545
C34	C	1.352135	0.390730	0.355455
C35	C	0.917609	-0.110317	-0.216818
C36	C	1.417609	0.389683	0.283182
C37	C	1.048592	-0.112415	-0.216819
C38	C	1.548592	0.387585	0.283181
C39	C	1.114102	-0.113465	-0.144545
C40	C	1.614102	0.386535	0.355455
C41	C	1.492734	0.026958	-0.000014
C42	C	1.992734	0.526958	0.499986
C43	C	1.490513	0.110990	-0.000014
C44	C	1.990513	0.610990	0.499986
C45	C	1.712756	-0.107048	-0.000007
C46	C	2.212756	0.392952	0.499993
C47	C	1.852161	-0.109273	-0.000003
C48	C	2.352161	0.390727	0.499997
C49	C	1.473553	-0.249693	0.000003
C50	C	1.973553	0.250307	0.500003
C51	C	1.475774	-0.333725	0.000008
C52	C	1.975774	0.166275	0.500008
N53	N	1.483109	-0.111376	-0.206555
N54	N	1.983109	0.388624	0.293445
C55	C	1.603893	0.158890	-0.000016
C56	C	2.103893	0.658890	0.499984
C57	C	1.601799	0.237847	-0.000009
C58	C	2.101799	0.737847	0.499991
C59	C	1.486323	0.268902	-0.000006
C60	C	1.986323	0.768902	0.499994
C61	C	1.372934	0.220996	-0.000001
C62	C	1.872934	0.720996	0.499999
C63	C	1.375030	0.142040	-0.000002
C64	C	1.875030	0.642040	0.499998
C65	C	1.364480	0.539412	0.000006
C66	C	1.864480	1.039412	0.500006
C67	C	1.362393	0.618374	0.000005
C68	C	1.862393	1.118374	0.500005
C69	C	1.591249	0.635218	-0.000001
C70	C	2.091249	1.135218	0.499999
C71	C	1.593344	0.556263	-0.000003
C72	C	2.093344	1.056263	0.499997
C73	C	1.479956	0.508364	0.000006
C74	C	1.979956	1.008364	0.500006
C75	C	1.482229	0.422751	0.000000
C76	C	1.982229	0.922751	0.500000
C77	C	1.484049	0.354514	-0.000005
C78	C	1.984049	0.854514	0.499995
C79	C	1.568729	-0.060366	-0.751724
C80	C	2.068729	0.439634	-0.251724
C81	C	1.568723	-0.060372	-0.668272
C82	C	2.068723	0.439628	-0.168272
C83	C	1.483169	-0.111360	-0.626555
C84	C	1.983169	0.388640	-0.126555
C85	C	1.397624	-0.162352	-0.668294
C86	C	1.897624	0.337648	-0.168294
C87	C	1.397637	-0.162350	-0.751745
C88	C	1.897637	0.337650	-0.251745
C89	C	1.397570	-0.162363	-0.331747
C90	C	1.897570	0.337637	0.168253
C91	C	1.397561	-0.162359	-0.248290
C92	C	1.897561	0.337641	0.251710
C93	C	1.568656	-0.060385	-0.248274
C94	C	2.068656	0.439615	0.251726
C95	C	1.568669	-0.060383	-0.331725
C96	C	2.068669	0.439617	0.168275
C97	C	1.483129	-0.111377	-0.373457
C98	C	1.983129	0.388623	0.126543
C99	C	1.483139	-0.111371	-0.463945
C100	C	1.983139	0.388629	0.036055
C101	C	1.483153	-0.111363	-0.536068
C102	C	1.983153	0.388637	-0.036068
N103	N	1.483188	-0.111353	0.206542
N104	N	1.983188	0.388647	0.706542
H105	H	0.864261	-0.109468	-0.275661
H106	H	1.364261	0.390532	0.224339
H107	H	0.745482	-0.107561	-0.144553
H108	H	1.245482	0.392439	0.355447
C109	C	1.266059	0.410906	0.000021
C110	C	1.766059	0.910906	0.500021
C111	C	1.239847	0.486767	0.000015
C112	C	1.739847	0.986767	0.500015
H113	H	1.189109	0.378405	0.000033
H114	H	1.689109	0.878405	0.500033
H115	H	1.313393	0.401428	-0.046210
H116	H	1.813393	0.901428	0.453790
H117	H	1.313433	0.401437	0.046255
H118	H	1.813433	0.901437	0.546255
H119	H	1.192479	0.496238	-0.046222
H120	H	1.692479	0.996238	0.453778
H121	H	1.192491	0.496250	0.046251
H122	H	1.692491	0.996250	0.546251
C123	C	1.369993	-0.265210	-0.154436
C124	C	1.869993	0.234790	0.345564
C125	C	1.303523	-0.218415	-0.202431
C126	C	1.803523	0.281585	0.297569
H127	H	1.311939	-0.299811	-0.126121
H128	H	1.811939	0.200189	0.373879
H129	H	1.422175	-0.292724	-0.186983
H130	H	1.922175	0.207276	0.313017
H131	H	1.420929	-0.234831	-0.117643
H132	H	1.920929	0.265169	0.382357
H133	H	1.252594	-0.248795	-0.239228
H134	H	1.752594	0.251205	0.260772
H135	H	1.251319	-0.190900	-0.169881
H136	H	1.751319	0.309100	0.330119
H137	H	1.327918	-0.203882	-0.365719
H138	H	1.827918	0.296118	0.134281
H139	H	1.638392	-0.018843	-0.785685
H140	H	2.138392	0.481157	-0.285685
H141	H	1.638378	-0.018856	-0.634293
H142	H	2.138378	0.481144	-0.134293
H143	H	1.282704	0.103040	-0.000000
H144	H	1.782704	0.603040	0.500000
C145	C	1.177195	0.230936	-0.068142
C146	C	1.677195	0.730936	0.431858
C147	C	1.245996	0.255125	0.000006
C148	C	1.745996	0.755125	0.500006
H149	H	1.098823	0.252002	-0.068134
H150	H	1.598823	0.752002	0.431866
H151	H	1.223853	0.247344	-0.114367
H152	H	1.723853	0.747344	0.385633
H153	H	1.162230	0.177057	-0.068132
H154	H	1.662230	0.677057	0.431868
H155	H	1.260968	0.309005	-0.000006
H156	H	1.760968	0.809005	0.499994
H157	H	1.199327	0.238722	0.046244
H158	H	1.699327	0.738722	0.546244
C159	C	1.035406	-0.112200	-0.359691
C160	C	1.535406	0.387800	0.140309
C161	C	1.120564	-0.113567	-0.296259
C162	C	1.620564	0.386433	0.203741
H163	H	1.079841	-0.112904	-0.408735
H164	H	1.579841	0.387096	0.091265
H165	H	0.974609	-0.155438	-0.356685
H166	H	1.474609	0.344562	0.143315
H167	H	0.994031	-0.067323	-0.356677
H168	H	1.494031	0.432677	0.143323
H169	H	1.161932	-0.158447	-0.299270
H170	H	1.661932	0.341553	0.200730
H171	H	1.181383	-0.070325	-0.299266
H172	H	1.681383	0.429675	0.200734
C173	C	0.930832	-0.110531	0.215144
C174	C	1.430832	0.389469	0.715144
C175	C	0.845681	-0.109173	0.151708
C176	C	1.345681	0.390827	0.651708
H177	H	0.886392	-0.109820	0.264186
H178	H	1.386392	0.390180	0.764186
H179	H	0.972210	-0.155399	0.212139
H180	H	1.472210	0.344601	0.712139
H181	H	0.991631	-0.067284	0.212136
H182	H	1.491631	0.432716	0.712136
H183	H	0.784888	-0.152423	0.154713
H184	H	1.284888	0.347577	0.654713
H185	H	0.804283	-0.064300	0.154714
H186	H	1.304283	0.435700	0.654714
H187	H	1.638331	-0.018861	-0.365688
H188	H	2.138331	0.481139	0.134312
H189	H	1.694124	0.276844	-0.000013
H190	H	2.194124	0.776844	0.499987
H191	H	1.638312	-0.018865	-0.214287
H192	H	2.138312	0.481135	0.285713
H193	H	1.327968	-0.203871	-0.634323
H194	H	1.827968	0.296129	-0.134323
C195	C	1.799615	0.148938	0.068139
C196	C	2.299615	0.648938	0.568139
C197	C	1.730827	0.124755	-0.000016
C198	C	2.230827	0.624755	0.499984
H199	H	1.877976	0.127861	0.068143
H200	H	2.377976	0.627861	0.568143
H201	H	1.814591	0.202809	0.068133
H202	H	2.314591	0.702809	0.568133
H203	H	1.752932	0.132530	0.114365
H204	H	2.252932	0.632530	0.614365
H205	H	1.777506	0.141167	-0.046242
H206	H	2.277506	0.641167	0.453758
H207	H	1.715855	0.070872	-0.000017
H208	H	2.215855	0.570872	0.499983
C209	C	1.370074	-0.265202	-0.845588
C210	C	1.870074	0.234798	-0.345588
C211	C	1.303604	-0.218395	-0.797619
C212	C	1.803604	0.281605	-0.297619
H213	H	1.312020	-0.299807	-0.873903
H214	H	1.812020	0.200193	-0.373903
H215	H	1.421015	-0.234836	-0.882373
H216	H	1.921015	0.265164	-0.382373
H217	H	1.422251	-0.292717	-0.813016
H218	H	1.922251	0.207283	-0.313016
H219	H	1.251434	-0.190876	-0.830192
H220	H	1.751434	0.309124	-0.330192
H221	H	1.252641	-0.248764	-0.760830
H222	H	1.752641	0.251236	-0.260830
C223	C	1.316067	-0.051529	-0.105195
C224	C	1.816067	0.448471	0.394805
C225	C	1.258081	-0.115776	-0.144540
C226	C	1.758081	0.384224	0.355460
H227	H	1.404951	-0.052959	-0.105188
H228	H	1.904951	0.447041	0.394812
H229	H	1.296155	-0.007007	-0.131894
H230	H	1.796155	0.492993	0.368106
H231	H	1.286433	-0.051059	-0.051812
H232	H	1.786433	0.448941	0.448188
H233	H	1.287708	-0.116244	-0.197924
H234	H	1.787708	0.383756	0.302076
H235	H	1.278003	-0.160310	-0.117843
H236	H	1.778003	0.339690	0.382157
C237	C	1.819357	0.580847	0.000001
C238	C	2.319357	1.080847	0.500001
C239	C	1.720278	0.522129	-0.000003
C240	C	2.220278	1.022129	0.499997
H241	H	1.897720	0.559773	0.000009
H242	H	2.397720	1.059773	0.500009
H243	H	1.813776	0.611290	-0.046229
H244	H	2.313776	1.111290	0.453771
H245	H	1.813777	0.611293	0.046236
H246	H	2.313777	1.111293	0.546236
H247	H	1.725853	0.491686	-0.046241
H248	H	2.225853	0.991686	0.453759
H249	H	1.725862	0.491673	0.046232
H250	H	2.225862	0.991673	0.546232
H251	H	1.101991	-0.113270	0.131113
H252	H	1.601991	0.386730	0.631113
H253	H	1.268353	0.643655	0.000006
H254	H	1.768353	1.143655	0.500006
C255	C	1.689676	0.763733	0.000011
C256	C	2.189676	1.263733	0.500011
C257	C	1.715891	0.687872	0.000002
C258	C	2.215891	1.187872	0.500002
H259	H	1.766624	0.796236	0.000016
H260	H	2.266624	1.296236	0.500016
H261	H	1.642315	0.773212	-0.046217
H262	H	2.142315	1.273212	0.453783
H263	H	1.642327	0.773200	0.046248
H264	H	2.142327	1.273200	0.546248
H265	H	1.763233	0.678403	-0.046239
H266	H	2.263233	1.178403	0.453761
H267	H	1.763273	0.678389	0.046234
H268	H	2.263273	1.178389	0.546234
