data_functionalizedCrystal
_audit_creation_method	'MofGen! by Chris Wilmer'
_symmetry_space_group_name_H-M	'P1'
_symmetry_Int_Tables_number	1
_symmetry_cell_setting	triclinic
loop_
_symmetry_equiv_pos_as_xyz
  x,y,z
_cell_length_a	14.519709
_cell_length_b	14.519731
_cell_length_c	13.596369
_cell_angle_alpha	90.005365
_cell_angle_beta	89.999340
_cell_angle_gamma	96.315500
loop_
_atom_site_label
_atom_site_type_symbol
_atom_site_fract_x
_atom_site_fract_y
_atom_site_fract_z
O1	O	1.223880	-0.120883	-0.081675
O2	O	1.723880	0.379117	0.418325
O3	O	0.955404	-0.135120	-0.081707
O4	O	1.455404	0.364880	0.418293
O5	O	1.096750	0.006236	-0.081670
O6	O	1.596750	0.506236	0.418330
O7	O	1.082534	-0.262239	-0.081712
O8	O	1.582534	0.237761	0.418288
O9	O	1.096731	0.006227	0.081912
O10	O	1.596731	0.506227	0.581912
O11	O	0.955386	-0.135129	0.081876
O12	O	1.455386	0.364871	0.581876
O13	O	1.223861	-0.120892	0.081908
O14	O	1.723861	0.379108	0.581908
Zn15	Zn	1.089621	-0.128012	0.107864
Zn16	Zn	1.589621	0.371988	0.607864
Zn17	Zn	1.089645	-0.128000	-0.107663
Zn18	Zn	1.589645	0.372000	0.392337
O19	O	1.082515	-0.262248	0.081871
O20	O	1.582515	0.237752	0.581871
C21	C	0.921035	-0.134461	0.000081
C22	C	1.421035	0.365539	0.500081
C23	C	0.818654	-0.132473	0.000070
C24	C	1.318654	0.367527	0.500070
C25	C	1.096075	0.040591	0.000124
C26	C	1.596075	0.540591	0.500124
C27	C	1.094079	0.142971	0.000133
C28	C	1.594079	0.642971	0.500133
C29	C	0.443757	-0.125153	0.000116
C30	C	0.943757	0.374847	0.500116
C31	C	0.548065	-0.127186	0.000102
C32	C	1.048065	0.372814	0.500102
C33	C	0.631202	-0.128813	0.000092
C34	C	1.131202	0.371187	0.500092
C35	C	0.735517	-0.130846	0.000080
C36	C	1.235517	0.369154	0.500080
C37	C	1.258230	-0.121551	0.000118
C38	C	1.758230	0.378449	0.500118
C39	C	1.360612	-0.123539	0.000122
C40	C	1.860612	0.376461	0.500122
C41	C	1.092457	0.226115	0.000137
C42	C	1.592457	0.726115	0.500137
C43	C	1.090430	0.330424	0.000138
C44	C	1.590430	0.830424	0.500138
C45	C	1.088822	0.413563	0.000138
C46	C	1.588822	0.913563	0.500138
C47	C	1.086795	0.517878	0.000141
C48	C	1.586795	1.017878	0.500141
C49	C	1.083191	0.703397	0.000095
C50	C	1.583191	1.203397	0.500095
C51	C	1.085187	0.601017	0.000141
C52	C	1.585187	1.101017	0.500141
N53	N	1.089611	-0.128019	0.254956
N54	N	1.589611	0.371981	0.754956
C55	C	1.089615	-0.128022	0.343954
C56	C	1.589615	0.371978	0.843954
C57	C	1.089623	-0.128017	0.455605
C58	C	1.589623	0.371983	0.955605
C59	C	1.089634	-0.128007	0.544596
C60	C	1.589634	0.371993	1.044596
C61	C	1.089644	-0.128002	0.656254
C62	C	1.589644	0.371998	1.156254
N63	N	1.089656	-0.127992	0.745245
N64	N	1.589656	0.372008	1.245245
