data_functionalizedCrystal
_audit_creation_method	'MofGen! by Chris Wilmer'
_symmetry_space_group_name_H-M	'P1'
_symmetry_Int_Tables_number	1
_symmetry_cell_setting	triclinic
loop_
_symmetry_equiv_pos_as_xyz
  x,y,z
_cell_length_a	12.759401
_cell_length_b	17.640280
_cell_length_c	17.637464
_cell_angle_alpha	92.150542
_cell_angle_beta	101.198104
_cell_angle_gamma	78.802151
loop_
_atom_site_label
_atom_site_type_symbol
_atom_site_fract_x
_atom_site_fract_y
_atom_site_fract_z
Zn1	Zn	1.611762	-0.389096	-0.368309
Zn2	Zn	1.945096	-0.055763	-0.034975
Zn3	Zn	2.278429	0.277570	0.298358
Zn4	Zn	1.679944	-0.490416	-0.215677
Zn5	Zn	2.013277	-0.157083	0.117656
Zn6	Zn	2.346611	0.176250	0.450990
Zn7	Zn	1.463328	-0.363454	-0.241331
Zn8	Zn	1.796661	-0.030121	0.092002
Zn9	Zn	2.129994	0.303213	0.425336
Zn10	Zn	1.477077	-0.516042	-0.342637
Zn11	Zn	1.810410	-0.182708	-0.009304
Zn12	Zn	2.143744	0.150625	0.324029
O13	O	1.558028	-0.439752	-0.291989
O14	O	1.891361	-0.106419	0.041345
O15	O	2.224694	0.226915	0.374678
O16	O	1.767828	-0.402544	-0.348069
O17	O	2.101161	-0.069210	-0.014736
O18	O	2.434494	0.264123	0.318598
O19	O	1.673989	-0.452119	-0.112806
O20	O	2.007323	-0.118785	0.220527
O21	O	2.340656	0.214548	0.553861
O22	O	1.448729	-0.260594	-0.279655
O23	O	1.782063	0.072739	0.053678
O24	O	2.115396	0.406072	0.387012
O25	O	1.817920	-0.476983	-0.235931
O26	O	2.151254	-0.143650	0.097402
O27	O	2.484587	0.189684	0.430736
O28	O	1.557784	-0.279434	-0.372945
O29	O	1.891117	0.053900	-0.039612
O30	O	2.224450	0.387233	0.293722
O31	O	1.514842	-0.358840	-0.131654
O32	O	1.848176	-0.025507	0.201679
O33	O	2.181509	0.307826	0.535013
O34	O	1.318131	-0.383688	-0.254762
O35	O	1.651464	-0.050355	0.078571
O36	O	1.984797	0.282978	0.411904
O37	O	1.472163	-0.520658	-0.452317
O38	O	1.805497	-0.187324	-0.118983
O39	O	2.138830	0.146009	0.214350
O40	O	1.328232	-0.495794	-0.329192
O41	O	1.661566	-0.162460	0.004142
O42	O	1.994899	0.170873	0.337475
O43	O	1.571116	-0.427392	-0.471177
O44	O	1.904449	-0.094058	-0.137844
O45	O	2.237783	0.239275	0.195489
O46	O	1.687322	-0.600077	-0.211039
O47	O	2.020655	-0.266743	0.122295
O48	O	2.353988	0.066590	0.455628
O49	O	1.538276	-0.618904	-0.304316
O50	O	1.871609	-0.285570	0.029018
O51	O	2.204943	0.047763	0.362351
C52	C	1.285061	-0.439740	-0.291975
C53	C	1.618394	-0.106406	0.041358
C54	C	1.951727	0.226927	0.374691
C55	C	1.168286	-0.439756	-0.291984
C56	C	1.501619	-0.106423	0.041349
C57	C	1.834953	0.226910	0.374683
C58	C	1.621714	-0.637046	-0.252124
C59	C	1.955048	-0.303712	0.081209
C60	C	2.288381	0.029621	0.414542
C61	C	1.649050	-0.721454	-0.235095
C62	C	1.982384	-0.388121	0.098238
C63	C	2.315717	-0.054787	0.431571
C64	C	1.118752	-0.498188	-0.330648
C65	C	1.452085	-0.164855	0.002685
C66	C	1.785419	0.168479	0.336019
C67	C	1.009026	-0.498194	-0.330662
C68	C	1.342359	-0.164861	0.002671
C69	C	1.675692	0.168473	0.336004
C70	C	0.998378	-0.381333	-0.253343
C71	C	1.331711	-0.048000	0.079990
C72	C	1.665045	0.285334	0.413324
C73	C	1.108100	-0.381325	-0.253333
C74	C	1.441434	-0.047991	0.080000
C75	C	1.774767	0.285342	0.413333
C76	C	1.350730	-1.048153	-0.421630
C77	C	1.684064	-0.714820	-0.088297
C78	C	2.017397	-0.381487	0.245037
C79	C	1.376424	-1.127463	-0.405605
C80	C	1.709757	-0.794129	-0.072271
C81	C	2.043091	-0.460796	0.261062
C82	C	1.531687	-1.107813	-0.308573
C83	C	1.865021	-0.774479	0.024760
C84	C	2.198354	-0.441146	0.358093
C85	C	1.506010	-1.028500	-0.324593
C86	C	1.839343	-0.695167	0.008740
C87	C	2.172676	-0.361834	0.342074
C88	C	1.415529	-0.998677	-0.381122
C89	C	1.748863	-0.665344	-0.047788
C90	C	2.082196	-0.332010	0.285545
C91	C	1.570809	-0.979024	-0.284085
C92	C	1.904142	-0.645691	0.049249
C93	C	2.237475	-0.312358	0.382582
C94	C	1.545129	-0.899718	-0.300101
C95	C	1.878463	-0.566385	0.033233
C96	C	2.211796	-0.233052	0.366566
C97	C	1.454651	-0.869889	-0.356625
C98	C	1.787985	-0.536555	-0.023292
C99	C	2.121318	-0.203222	0.310042
C100	C	1.389850	-0.919371	-0.397137
C101	C	1.723183	-0.586038	-0.063804
C102	C	2.056517	-0.252705	0.269529
C103	C	1.661284	-1.008848	-0.227553
C104	C	1.994618	-0.675515	0.105781
C105	C	2.327951	-0.342182	0.439114
C106	C	1.726083	-0.959372	-0.187044
C107	C	2.059416	-0.626039	0.146289
C108	C	2.392750	-0.292706	0.479622
C109	C	1.700409	-0.880066	-0.203064
C110	C	2.033742	-0.546732	0.130270
C111	C	2.367075	-0.213399	0.463603
C112	C	1.609931	-0.850236	-0.259588
C113	C	1.943264	-0.516902	0.073745
C114	C	2.276597	-0.183569	0.407079
C115	C	1.765210	-0.830583	-0.162551
C116	C	2.098543	-0.497250	0.170782
C117	C	2.431877	-0.163916	0.504116
C118	C	1.739531	-0.751277	-0.178567
C119	C	2.072864	-0.417944	0.154766
C120	C	2.406198	-0.084610	0.488100
C121	C	1.584251	-0.770930	-0.275604
C122	C	1.917585	-0.437597	0.057729
C123	C	2.250918	-0.104263	0.391063
C124	C	1.832061	-0.439765	-0.292002
C125	C	2.165394	-0.106432	0.041331
C126	C	2.498727	0.226902	0.374665
C127	C	1.948837	-0.439771	-0.292008
C128	C	2.282171	-0.106437	0.041325
C129	C	2.615504	0.226896	0.374659
C130	C	1.515568	-0.479743	-0.490073
C131	C	1.848901	-0.146410	-0.156740
C132	C	2.182235	0.186923	0.176593
C133	C	1.497474	-0.496785	-0.574485
C134	C	1.830807	-0.163452	-0.241152
C135	C	2.164141	0.169881	0.092182
C136	C	1.494117	-0.241691	-0.332025
C137	C	1.827451	0.091642	0.001308
C138	C	2.160784	0.424975	0.334642
C139	C	1.466883	-0.157290	-0.349086
C140	C	1.800216	0.176044	-0.015753
C141	C	2.133549	0.509377	0.317580
C142	C	1.420458	-0.569360	-0.683642
C143	C	1.753791	-0.236027	-0.350309
C144	C	2.087125	0.097306	-0.016975
C145	C	1.437466	-0.553341	-0.604325
C146	C	1.770799	-0.220007	-0.270992
C147	C	2.104132	0.113326	0.062341
C148	C	1.540504	-0.456230	-0.623956
C149	C	1.873837	-0.122896	-0.290623
C150	C	2.207171	0.210437	0.042711
C151	C	1.523509	-0.472244	-0.703275
C152	C	1.856843	-0.138910	-0.369942
C153	C	2.190176	0.194423	-0.036609
C154	C	1.463485	-0.528809	-0.733112
C155	C	1.796818	-0.195476	-0.399779
C156	C	2.130151	0.137858	-0.066445
C157	C	1.566536	-0.431692	-0.752745
C158	C	1.899869	-0.098359	-0.419412
C159	C	2.233203	0.234974	-0.086078
C160	C	1.549538	-0.447702	-0.832058
C161	C	1.882871	-0.114369	-0.498725
C162	C	2.216205	0.218964	-0.165391
C163	C	1.489513	-0.504264	-0.861901
C164	C	1.822847	-0.170930	-0.528568
C165	C	2.156180	0.162403	-0.195235
C166	C	1.446487	-0.544819	-0.812425
C167	C	1.779820	-0.211486	-0.479092
C168	C	2.113153	0.121848	-0.145758
C169	C	1.626554	-0.375123	-0.722908
C170	C	1.959887	-0.041790	-0.389574
C171	C	2.293221	0.291543	-0.056241
C172	C	1.669581	-0.334572	-0.772377
C173	C	2.002914	-0.001239	-0.439044
C174	C	2.336247	0.332095	-0.105711
C175	C	1.652590	-0.350586	-0.851691
C176	C	1.985923	-0.017252	-0.518358
C177	C	2.319256	0.316081	-0.185025
C178	C	1.592565	-0.407147	-0.881534
C179	C	1.925898	-0.073814	-0.548201
C180	C	2.259231	0.259520	-0.214868
C181	C	1.695616	-0.310030	-0.901168
C182	C	2.028950	0.023303	-0.567834
C183	C	2.362283	0.356636	-0.234501
C184	C	1.678618	-0.326040	-0.980481
C185	C	2.011951	0.007293	-0.647147
C186	C	2.345285	0.340626	-0.313814
C187	C	1.575567	-0.423157	-0.960847
C188	C	1.908900	-0.089824	-0.627514
C189	C	2.242233	0.243510	-0.294181
C190	C	1.600365	-0.399861	-0.094685
C191	C	1.933698	-0.066528	0.238648
C192	C	2.267032	0.266805	0.571981
C193	C	1.618593	-0.382606	-0.010317
C194	C	1.951927	-0.049272	0.323016
C195	C	2.285260	0.284061	0.656349
H196	H	1.167751	-0.545765	-0.362122
H197	H	1.501084	-0.212432	-0.028789
H198	H	1.834418	0.120901	0.304545
H199	H	0.968700	-0.545774	-0.362148
H200	H	1.302033	-0.212441	-0.028815
H201	H	1.635366	0.120893	0.304519
H202	H	1.277058	-1.023872	-0.467667
H203	H	1.610392	-0.690539	-0.134334
H204	H	1.943725	-0.357205	0.199000
F205	F	1.160819	-0.319127	-0.212184
F206	F	1.494152	0.014206	0.121149
F207	F	1.827486	0.347539	0.454482
F208	F	0.934316	-0.319150	-0.212209
F209	F	1.267649	0.014183	0.121124
F210	F	1.600983	0.347516	0.454457
H211	H	1.510580	-0.746649	-0.321641
H212	H	1.843913	-0.413315	0.011693
H213	H	2.177246	-0.079982	0.345026
F214	F	1.759468	-0.249815	-0.869406
F215	F	2.092801	0.083519	-0.536073
F216	F	2.426135	0.416852	-0.202740
H217	H	1.640395	-0.362092	-0.658325
H218	H	1.973729	-0.028759	-0.324992
H219	H	2.307062	0.304575	0.008342
H220	H	1.682191	-1.073425	-0.214517
H221	H	2.015525	-0.740092	0.118817
H222	H	2.348858	-0.406759	0.452150
H223	H	1.718450	-0.288515	-0.748074
H224	H	2.051783	0.044819	-0.414740
H225	H	2.385116	0.378152	-0.081407
F226	F	1.808490	-0.698617	-0.135448
F227	F	2.141824	-0.365284	0.197886
F228	F	2.475157	-0.031950	0.531219
H229	H	1.589373	-0.410172	-0.599652
H230	H	1.922706	-0.076839	-0.266319
H231	H	2.256040	0.256494	0.067015
H232	H	1.838873	-0.854876	-0.116520
H233	H	2.172206	-0.521543	0.216813
H234	H	2.505539	-0.188210	0.550146
H235	H	1.475665	-0.517292	-0.926485
H236	H	1.808999	-0.183959	-0.593151
H237	H	2.142332	0.149374	-0.259818
F238	F	1.427481	-0.785511	-0.373808
F239	F	1.760814	-0.452178	-0.040474
F240	F	2.094147	-0.118844	0.292859
F241	F	1.511688	-0.483365	-0.992605
F242	F	1.845022	-0.150032	-0.659272
F243	F	2.178355	0.183302	-0.325938
H244	H	1.397617	-0.590885	-0.836718
H245	H	1.730950	-0.257552	-0.503385
H246	H	2.064284	0.075781	-0.170051
F247	F	1.293558	-0.887629	-0.457308
F248	F	1.626891	-0.554295	-0.123975
F249	F	1.960224	-0.220962	0.209358
H250	H	1.371588	-0.615426	-0.707935
H251	H	1.704922	-0.282093	-0.374602
H252	H	2.038255	0.051240	-0.041269
H253	H	1.713649	-0.293016	-1.020761
H254	H	2.046982	0.040318	-0.687428
H255	H	2.380315	0.373651	-0.354095
F256	F	1.391665	-0.596505	-0.551677
F257	F	1.724999	-0.263172	-0.218344
F258	F	2.058332	0.070161	0.114989
H259	H	1.323661	-1.167747	-0.438605
H260	H	1.656994	-0.834413	-0.105272
H261	H	1.990327	-0.501080	0.228062
F262	F	1.627981	-1.139562	-0.248414
F263	F	1.961314	-0.806228	0.084919
F264	F	2.294648	-0.472895	0.418252
H265	H	1.799750	-0.983665	-0.141017
H266	H	2.133083	-0.650332	0.192317
H267	H	2.466416	-0.316998	0.525650
