data_functionalizedCrystal
_audit_creation_method	'MofGen! by Chris Wilmer'
_symmetry_space_group_name_H-M	'P1'
_symmetry_Int_Tables_number	1
_symmetry_cell_setting	triclinic
loop_
_symmetry_equiv_pos_as_xyz
  x,y,z
_cell_length_a	19.188930
_cell_length_b	23.532407
_cell_length_c	17.666332
_cell_angle_alpha	89.988854
_cell_angle_beta	89.976766
_cell_angle_gamma	82.996728
loop_
_atom_site_label
_atom_site_type_symbol
_atom_site_fract_x
_atom_site_fract_y
_atom_site_fract_z
O1	O	0.925923	0.071102	-0.063199
O2	O	1.425923	0.571102	0.436801
O3	O	0.722581	0.080673	-0.063148
O4	O	1.222581	0.580673	0.436852
O5	O	0.830384	-0.007031	-0.063161
O6	O	1.330384	0.492969	0.436839
O7	O	0.818120	0.158806	-0.063186
O8	O	1.318120	0.658806	0.436814
O9	O	0.830365	-0.007036	0.062735
O10	O	1.330365	0.492964	0.562735
O11	O	0.722562	0.080669	0.062748
O12	O	1.222562	0.580669	0.562748
O13	O	0.925904	0.071097	0.062697
O14	O	1.425904	0.571097	0.562697
Cu15	Cu	0.824231	0.075883	0.074218
Cu16	Cu	1.324231	0.575883	0.574218
Cu17	Cu	0.824253	0.075888	-0.074669
Cu18	Cu	1.324253	0.575888	0.425331
O19	O	0.818101	0.158802	0.062711
O20	O	1.318101	0.658802	0.562711
C21	C	0.696561	0.080361	-0.000193
C22	C	1.196561	0.580361	0.499807
C23	C	0.619060	0.079431	-0.000173
C24	C	1.119060	0.579431	0.499827
C25	C	0.573972	0.130893	-0.000193
C26	C	1.073972	0.630893	0.499807
C27	C	0.501151	0.130019	-0.000201
C28	C	1.001151	0.630019	0.499799
C29	C	0.473421	0.077680	-0.000205
C30	C	0.973421	0.577680	0.499795
C31	C	0.518519	0.026211	-0.000181
C32	C	1.018519	0.526211	0.499819
C33	C	0.591339	0.027086	-0.000165
C34	C	1.091339	0.527086	0.499835
N35	N	0.365575	0.037674	-0.043078
N36	N	0.865575	0.537674	0.456922
N37	N	0.296399	0.036846	-0.043094
N38	N	0.796399	0.536846	0.456906
C39	C	0.254021	0.075038	-0.000251
C40	C	0.754021	0.575038	0.499749
N41	N	0.283431	0.114099	0.042600
N42	N	0.783431	0.614099	0.542600
N43	N	0.352613	0.114929	0.042614
N44	N	0.852613	0.614929	0.542614
C45	C	0.394462	0.076724	-0.000222
C46	C	0.894462	0.576724	0.499778
C47	C	0.129971	0.125556	-0.000278
C48	C	0.629971	0.625556	0.499722
C49	C	0.057149	0.124680	-0.000282
C50	C	0.557149	0.624680	0.499718
C51	C	0.074520	0.020870	-0.000269
C52	C	0.574520	0.520870	0.499731
C53	C	0.147340	0.021748	-0.000258
C54	C	0.647340	0.521748	0.499742
C55	C	0.175061	0.074092	-0.000266
C56	C	0.675061	0.574092	0.499734
C57	C	0.830062	-0.028250	-0.000211
C58	C	1.330062	0.471750	0.499789
C59	C	0.829123	-0.091469	-0.000205
C60	C	1.329123	0.408531	0.499795
C61	C	0.887029	-0.490449	-0.000261
C62	C	1.387029	0.009551	0.499739
C63	C	0.886157	-0.549851	-0.000267
C64	C	1.386157	-0.049851	0.499733
O65	O	0.939837	-0.586482	-0.000308
O66	O	1.439837	-0.086482	0.499692
N67	N	0.822068	-0.572613	-0.000250
N68	N	1.322068	-0.072613	0.499750
C69	C	0.758848	-0.535970	-0.000236
C70	C	1.258848	-0.035970	0.499764
O71	O	0.704255	-0.560786	-0.000223
O72	O	1.204255	-0.060786	0.499777
C73	C	0.759721	-0.476569	-0.000235
C74	C	1.259721	0.023431	0.499765
C75	C	0.823814	-0.453810	-0.000244
C76	C	1.323814	0.046190	0.499756
C77	C	0.951117	-0.467690	-0.000271
C78	C	1.451117	0.032310	0.499729
C79	C	0.951989	-0.408292	-0.000264
C80	C	1.451989	0.091708	0.499736
C81	C	0.888773	-0.371653	-0.000247
C82	C	1.388773	0.128347	0.499753
C83	C	0.824685	-0.394412	-0.000237
C84	C	1.324685	0.105588	0.499763
C85	C	0.696501	-0.439927	-0.000226
C86	C	1.196501	0.060073	0.499774
C87	C	0.697379	-0.380523	-0.000227
C88	C	1.197379	0.119477	0.499773
C89	C	0.761472	-0.357764	-0.000236
C90	C	1.261472	0.142236	0.499764
C91	C	0.762342	-0.298376	-0.000214
C92	C	1.262342	0.201624	0.499786
N93	N	0.826430	-0.275614	-0.000230
N94	N	1.326430	0.224386	0.499770
C95	C	0.889646	-0.312252	-0.000247
C96	C	1.389646	0.187748	0.499753
C97	C	0.757019	-0.660717	-0.000237
C98	C	1.257019	-0.160717	0.499763
C99	C	0.756146	-0.720116	-0.000232
C100	C	1.256146	-0.220116	0.499768
C101	C	0.883455	-0.733993	-0.000264
C102	C	1.383455	-0.233993	0.499736
C103	C	0.884328	-0.674592	-0.000264
C104	C	1.384328	-0.174592	0.499736
C105	C	0.821108	-0.637954	-0.000254
C106	C	1.321108	-0.137954	0.499746
C107	C	0.891472	-0.187512	-0.000232
C108	C	1.391472	0.312488	0.499768
C109	C	0.892339	-0.128108	-0.000222
C110	C	1.392339	0.371892	0.499778
C111	C	0.765029	-0.114236	-0.000193
C112	C	1.265029	0.385764	0.499807
C113	C	0.764163	-0.173634	-0.000199
C114	C	1.264163	0.326366	0.499801
C115	C	0.827390	-0.210272	-0.000221
C116	C	1.327390	0.289728	0.499779
O117	O	0.708690	-0.261710	-0.000176
O118	O	1.208690	0.238290	0.499824
O119	O	0.944230	-0.287428	-0.000270
O120	O	1.444230	0.212572	0.499730
C121	C	0.951923	0.071410	-0.000259
C122	C	1.451923	0.571410	0.499741
C123	C	1.029425	0.072340	-0.000284
C124	C	1.529425	0.572340	0.499716
C125	C	0.818423	0.180021	-0.000241
C126	C	1.318423	0.680021	0.499759
C127	C	0.819362	0.243240	-0.000252
C128	C	1.319362	0.743240	0.499748
N129	N	0.824221	0.075878	0.178938
N130	N	1.324221	0.575878	0.678938
N131	N	0.824270	0.075888	-0.179389
N132	N	1.324270	0.575888	0.320611
C133	C	0.871971	0.037062	0.218542
C134	C	1.371971	0.537062	0.718542
C135	C	0.871975	0.037059	0.297789
C136	C	1.371975	0.537059	0.797789
C137	C	0.824236	0.075883	0.337430
C138	C	1.324236	0.575883	0.837430
C139	C	0.776476	0.114702	0.297816
C140	C	1.276476	0.614702	0.797816
C141	C	0.776469	0.114700	0.218570
C142	C	1.276469	0.614700	0.718570
N143	N	0.814998	0.126298	0.461842
N144	N	1.314998	0.626298	0.961842
N145	N	0.815010	0.126298	0.537123
N146	N	1.315010	0.626298	1.037123
C147	C	0.824254	0.075891	0.576194
C148	C	1.324254	0.575891	1.076194
N149	N	0.833500	0.025481	0.537141
N150	N	1.333500	0.525481	1.037141
N151	N	0.833493	0.025482	0.461853
N152	N	1.333493	0.525482	0.961853
C153	C	0.824238	0.075889	0.423359
C154	C	1.324238	0.575889	0.923359
C155	C	0.872011	0.037068	0.701727
C156	C	1.372011	0.537068	1.201727
C157	C	0.872010	0.037064	0.780976
C158	C	1.372010	0.537064	1.280976
C159	C	0.776515	0.114713	0.781002
C160	C	1.276515	0.614713	1.281002
C161	C	0.776512	0.114711	0.701754
C162	C	1.276512	0.614711	1.201754
C163	C	0.824264	0.075889	0.662122
C164	C	1.324264	0.575889	1.162122
H165	H	0.152543	0.168178	-0.000274
H166	H	0.652543	0.668178	0.499726
H167	H	0.910892	0.005455	0.669457
H168	H	1.410892	0.505455	1.169457
F169	F	0.195328	-0.033026	-0.000241
F170	F	0.695328	0.466974	0.499759
F171	F	0.960558	-0.103890	-0.000232
F172	F	1.460558	0.396110	0.499768
F173	F	0.725666	0.156019	0.340005
F174	F	1.225666	0.656019	0.840005
H175	H	0.910860	0.005449	0.330041
H176	H	1.410860	0.505449	0.830041
H177	H	0.910892	0.005452	0.813222
H178	H	1.410892	0.505452	1.313222
F179	F	0.725645	0.156016	0.176419
F180	F	1.225645	0.656016	0.676419
F181	F	0.603470	0.186603	-0.000199
F182	F	1.103470	0.686603	0.499801
H183	H	0.737642	0.146321	0.813277
H184	H	1.237642	0.646321	1.313277
H185	H	1.002598	-0.497516	-0.000287
H186	H	1.502598	0.002484	0.499713
H187	H	0.737632	0.146322	0.669507
H188	H	1.237632	0.646322	1.169507
H189	H	0.942958	-0.217335	-0.000252
H190	H	1.442958	0.282665	0.499748
F191	F	0.695949	-0.197857	-0.000176
F192	F	1.195949	0.302143	0.499824
F193	F	0.639327	-0.027689	-0.000144
F194	F	1.139327	0.472311	0.499856
F195	F	0.045013	-0.034833	-0.000266
F196	F	0.545013	0.465167	0.499734
F197	F	0.453156	0.184794	-0.000220
F198	F	0.953156	0.684794	0.499780
F199	F	0.697754	-0.075232	-0.000175
F200	F	1.197754	0.424768	0.499825
H201	H	0.020438	0.166588	-0.000293
H202	H	0.520438	0.666588	0.499707
F203	F	0.922789	-0.004257	0.176363
F204	F	1.422789	0.495743	0.676363
H205	H	0.495937	-0.016404	-0.000195
H206	H	0.995937	0.483596	0.499805
F207	F	0.689727	-0.621728	-0.000219
F208	F	1.189727	-0.121728	0.499781
F209	F	1.020206	-0.384078	-0.000290
F210	F	1.520206	0.115922	0.499710
H211	H	0.644310	-0.458446	-0.000224
H212	H	1.144310	0.041554	0.499776
H213	H	0.645897	-0.350694	-0.000220
H214	H	1.145897	0.149306	0.499780
F215	F	0.952544	-0.650377	-0.000274
F216	F	1.452544	-0.150377	0.499726
F217	F	0.950736	-0.772998	-0.000286
F218	F	1.450736	-0.272998	0.499714
H219	H	0.703955	-0.738641	-0.000211
H220	H	1.203955	-0.238641	0.499789
