data_functionalizedCrystal
_audit_creation_method	'MofGen! by Chris Wilmer'
_symmetry_space_group_name_H-M	'P1'
_symmetry_Int_Tables_number	1
_symmetry_cell_setting	triclinic
loop_
_symmetry_equiv_pos_as_xyz
  x,y,z
_cell_length_a	16.992697
_cell_length_b	16.053934
_cell_length_c	16.992695
_cell_angle_alpha	92.750093
_cell_angle_beta	89.331663
_cell_angle_gamma	92.747587
loop_
_atom_site_label
_atom_site_type_symbol
_atom_site_fract_x
_atom_site_fract_y
_atom_site_fract_z
O1	O	-1.047750	0.069308	0.170019
O2	O	-0.714417	0.402642	0.503352
O3	O	-0.381083	0.735975	0.836685
O4	O	-0.819349	0.069337	0.168188
O5	O	-0.486015	0.402670	0.501521
O6	O	-0.152682	0.736003	0.834855
O7	O	-0.932634	0.069316	0.054903
O8	O	-0.599301	0.402649	0.388236
O9	O	-0.265967	0.735983	0.721570
O10	O	-0.934465	0.069329	0.283304
O11	O	-0.601131	0.402662	0.616637
O12	O	-0.267798	0.735996	0.949970
O13	O	-0.938835	-0.069541	0.048688
O14	O	-0.605502	0.263792	0.382022
O15	O	-0.272168	0.597125	0.715355
O16	O	-0.825550	-0.069521	0.161973
O17	O	-0.492216	0.263812	0.495307
O18	O	-0.158883	0.597146	0.828640
O19	O	-1.053951	-0.069549	0.163804
O20	O	-0.720618	0.263784	0.497137
O21	O	-0.387284	0.597118	0.830470
Zn22	Zn	-0.940735	-0.091582	0.161902
Zn23	Zn	-0.607401	0.241752	0.495235
Zn24	Zn	-0.274068	0.575085	0.828568
Zn25	Zn	-0.932565	0.091369	0.170090
Zn26	Zn	-0.599232	0.424702	0.503423
Zn27	Zn	-0.265898	0.758036	0.836757
O28	O	-0.940666	-0.069528	0.277089
O29	O	-0.607332	0.263805	0.610422
O30	O	-0.273999	0.597138	0.943755
C31	C	-0.793089	-0.000089	0.162725
C32	C	-0.459756	0.333245	0.496058
C33	C	-0.126422	0.666578	0.829392
C34	C	-0.705604	-0.000078	0.155697
C35	C	-0.372271	0.333255	0.489030
C36	C	-0.038937	0.666589	0.822363
C37	C	-0.659613	-0.000074	0.223515
C38	C	-0.326279	0.333259	0.556848
C39	C	0.007054	0.666593	0.890181
C40	C	-0.577413	-0.000085	0.216905
C41	C	-0.244079	0.333249	0.550238
C42	C	0.089254	0.666582	0.883572
C43	C	-0.541205	-0.000093	0.142477
C44	C	-0.207871	0.333240	0.475810
C45	C	0.125462	0.666573	0.809144
C46	C	-0.587202	-0.000100	0.074654
C47	C	-0.253869	0.333234	0.407987
C48	C	0.079465	0.666567	0.741320
C49	C	-0.669401	-0.000095	0.081264
C50	C	-0.336068	0.333238	0.414597
C51	C	-0.002734	0.666572	0.747930
C52	C	-0.295891	-0.000113	0.115081
C53	C	0.037442	0.333220	0.448414
C54	C	0.370775	0.666553	0.781748
C55	C	-0.213686	-0.000115	0.108476
C56	C	0.119647	0.333218	0.441810
C57	C	0.452981	0.666551	0.775143
C58	C	-0.203902	-0.000102	0.250728
C59	C	0.129431	0.333231	0.584062
C60	C	0.462764	0.666565	0.917395
C61	C	-0.286103	-0.000092	0.257332
C62	C	0.047230	0.333241	0.590665
C63	C	0.380564	0.666574	0.923999
C64	C	-0.332093	-0.000103	0.189508
C65	C	0.001240	0.333230	0.522842
C66	C	0.334573	0.666563	0.856175
N67	N	-0.457183	-0.000101	0.135719
N68	N	-0.123849	0.333232	0.469053
N69	N	0.209484	0.666565	0.802386
N70	N	-0.416114	-0.000101	0.196267
N71	N	-0.082781	0.333232	0.529600
N72	N	0.250553	0.666566	0.862933
N73	N	-0.946316	-0.216440	0.156313
N74	N	-0.612983	0.116893	0.489647
N75	N	-0.279650	0.450226	0.822980
C76	C	-0.080211	-0.000118	0.169267
C77	C	0.253123	0.333215	0.502600
C78	C	0.586456	0.666549	0.835933
C79	C	-0.167695	-0.000112	0.176294
C80	C	0.165638	0.333222	0.509628
C81	C	0.498972	0.666555	0.842961
C82	C	-0.898102	-0.260146	0.204497
C83	C	-0.564769	0.073187	0.537830
C84	C	-0.231435	0.406520	0.871163
C85	C	-0.902029	-0.347552	0.200586
C86	C	-0.568696	-0.014219	0.533919
C87	C	-0.235362	0.319115	0.867252
C88	C	-0.954167	-0.391250	0.148487
C89	C	-0.620833	-0.057917	0.481820
C90	C	-0.287500	0.275416	0.815153
C91	C	-1.002386	-0.347539	0.100301
C92	C	-0.669053	-0.014205	0.433635
C93	C	-0.335720	0.319128	0.766968
C94	C	-0.998463	-0.260134	0.104217
C95	C	-0.665129	0.073199	0.437550
C96	C	-0.331796	0.406532	0.770884
C97	C	-0.971285	-0.652656	0.131403
C98	C	-0.637952	-0.319323	0.464736
C99	C	-0.304619	0.014011	0.798070
C100	C	-0.975204	-0.740066	0.127489
C101	C	-0.641870	-0.406733	0.460823
C102	C	-0.308537	-0.073400	0.794156
C103	C	-0.874847	-0.740074	0.227775
C104	C	-0.541514	-0.406740	0.561108
C105	C	-0.208180	-0.073407	0.894442
C106	C	-0.870925	-0.652668	0.231683
C107	C	-0.537591	-0.319334	0.565016
C108	C	-0.204258	0.013999	0.898349
C109	C	-0.919147	-0.608963	0.183500
C110	C	-0.585814	-0.275630	0.516834
C111	C	-0.252480	0.057703	0.850167
N112	N	-0.958180	-0.480593	0.144486
N113	N	-0.624847	-0.147260	0.477819
N114	N	-0.291514	0.186073	0.811153
N115	N	-0.915137	-0.519622	0.187506
N116	N	-0.581804	-0.186289	0.520839
N117	N	-0.248470	0.147044	0.854172
C118	C	-0.933379	-0.000112	0.022435
C119	C	-0.600045	0.333221	0.355769
C120	C	-0.266712	0.666554	0.689102
C121	C	-0.926350	-0.000111	-0.065049
C122	C	-0.593017	0.333222	0.268284
C123	C	-0.259683	0.666555	0.601618
N124	N	-0.926989	0.216228	0.175673
N125	N	-0.593656	0.549561	0.509006
N126	N	-0.260323	0.882895	0.842339
C127	C	-0.994168	-0.000120	-0.111040
C128	C	-0.660835	0.333213	0.222293
C129	C	-0.327502	0.666546	0.555626
C130	C	-0.987559	-0.000112	-0.193241
C131	C	-0.654226	0.333222	0.140093
C132	C	-0.320892	0.666555	0.473426
C133	C	-0.913131	-0.000100	-0.229449
C134	C	-0.579798	0.333234	0.103885
C135	C	-0.246464	0.666567	0.437218
C136	C	-0.845307	-0.000088	-0.183451
C137	C	-0.511974	0.333245	0.149882
C138	C	-0.178641	0.666579	0.483216
C139	C	-0.851917	-0.000091	-0.101252
C140	C	-0.518584	0.333243	0.232081
C141	C	-0.185250	0.666576	0.565415
C142	C	-0.885736	-0.000085	-0.474762
C143	C	-0.552402	0.333248	-0.141429
C144	C	-0.219069	0.666582	0.191904
C145	C	-0.879131	-0.000085	-0.556968
C146	C	-0.545798	0.333249	-0.223634
C147	C	-0.212464	0.666582	0.109699
C148	C	-1.021383	-0.000107	-0.566751
C149	C	-0.688050	0.333227	-0.233418
C150	C	-0.354717	0.666560	0.099915
C151	C	-1.027987	-0.000115	-0.484550
C152	C	-0.694654	0.333219	-0.151217
C153	C	-0.361320	0.666552	0.182116
C154	C	-0.960163	-0.000098	-0.438560
C155	C	-0.626830	0.333235	-0.105227
C156	C	-0.293496	0.666568	0.228107
N157	N	-0.906373	-0.000093	-0.313471
N158	N	-0.573040	0.333240	0.019863
N159	N	-0.239707	0.666573	0.353196
N160	N	-0.966921	-0.000099	-0.354539
N161	N	-0.633588	0.333235	-0.021206
N162	N	-0.300254	0.666568	0.312127
C163	C	-0.939921	-0.000098	0.309556
C164	C	-0.606588	0.333235	0.642890
C165	C	-0.273254	0.666568	0.976223
C166	C	-0.946949	-0.000094	0.397041
C167	C	-0.613616	0.333239	0.730375
C168	C	-0.280283	0.666573	1.063708
H169	H	-0.557715	-0.000119	0.014052
H170	H	-0.224382	0.333215	0.347385
H171	H	0.108951	0.666548	0.680719
H172	H	-1.054776	-0.000135	-0.081566
H173	H	-0.721443	0.333198	0.251767
H174	H	-0.388109	0.666531	0.585100
Br175	Br	-0.800163	-0.593361	0.302385
Br176	Br	-0.466829	-0.260028	0.635719
Br177	Br	-0.133496	0.073305	0.969052
Br178	Br	-0.164548	-0.000145	0.007459
Br179	Br	0.168785	0.333188	0.340792
Br180	Br	0.502119	0.666522	0.674126
H181	H	-0.855642	-0.224573	0.246918
H182	H	-0.522309	0.108761	0.580251
H183	H	-0.188976	0.442094	0.913584
Br184	Br	-0.358297	-0.000130	0.023034
Br185	Br	-0.024963	0.333203	0.356367
Br186	Br	0.308370	0.666537	0.689701
H187	H	-0.706846	-0.000098	0.026039
H188	H	-0.373513	0.333236	0.359372
H189	H	-0.040180	0.666569	0.692706
H190	H	-0.862770	-0.383137	0.239821
H191	H	-0.529436	-0.049804	0.573154
H192	H	-0.196103	0.283530	0.906487
H193	H	-0.539970	-0.000081	0.272130
H194	H	-0.206636	0.333253	0.605463
H195	H	0.126697	0.666586	0.938797
H196	H	-0.835587	-0.775666	0.267004
H197	H	-0.502254	-0.442332	0.600337
H198	H	-0.168921	-0.108999	0.933670
Br199	Br	-0.744296	-0.000058	-0.232589
Br200	Br	-0.410962	0.333276	0.100745
Br201	Br	-0.077629	0.666609	0.434078
Br202	Br	-1.128999	-0.000104	-0.435416
Br203	Br	-0.795666	0.333229	-0.102082
Br204	Br	-0.462332	0.666563	0.231251
H205	H	-1.017663	-0.775642	0.085061
H206	H	-0.684329	-0.442308	0.418394
H207	H	-0.350996	-0.108975	0.751727
Br208	Br	-1.036726	-0.593348	0.066013
Br209	Br	-0.703393	-0.260014	0.399346
Br210	Br	-0.370060	0.073319	0.732680
Br211	Br	-1.079603	-0.000124	-0.255655
Br212	Br	-0.746269	0.333209	0.077679
Br213	Br	-0.412936	0.666543	0.411012
H214	H	-1.044842	-0.383123	0.057884
H215	H	-0.711509	-0.049790	0.391217
H216	H	-0.378175	0.283544	0.724551
H217	H	-1.037725	-0.224550	0.064982
H218	H	-0.704391	0.108783	0.398315
H219	H	-0.371058	0.442117	0.731649
H220	H	-1.076601	-0.000118	-0.604205
H221	H	-0.743268	0.333215	-0.270872
H222	H	-0.409935	0.666548	0.062461
H223	H	-0.830508	-0.000072	-0.437326
H224	H	-0.497175	0.333261	-0.103993
H225	H	-0.163842	0.666595	0.229340
H226	H	-0.689087	-0.000066	0.284122
H227	H	-0.355753	0.333267	0.617455
H228	H	-0.022420	0.666600	0.950789
Br229	Br	-0.335236	-0.000071	0.358346
Br230	Br	-0.001903	0.333262	0.691679
Br231	Br	0.331430	0.666595	1.025012
Br232	Br	-0.141484	-0.000088	0.342769
Br233	Br	0.191850	0.333245	0.676102
Br234	Br	0.525183	0.666578	1.009436
Br235	Br	-0.778115	-0.000077	-0.606107
Br236	Br	-0.444782	0.333256	-0.272774
Br237	Br	-0.111448	0.666590	0.060560
H238	H	-0.796692	-0.000083	-0.063807
H239	H	-0.463359	0.333250	0.269527
H240	H	-0.130025	0.666584	0.602860
