data_functionalizedCrystal
_audit_creation_method	'MofGen! by Chris Wilmer'
_symmetry_space_group_name_H-M	'P1'
_symmetry_Int_Tables_number	1
_symmetry_cell_setting	triclinic
loop_
_symmetry_equiv_pos_as_xyz
  x,y,z
_cell_length_a	6.817900
_cell_length_b	12.200863
_cell_length_c	14.125286
_cell_angle_alpha	95.007101
_cell_angle_beta	100.396688
_cell_angle_gamma	107.143441
loop_
_atom_site_label
_atom_site_type_symbol
_atom_site_fract_x
_atom_site_fract_y
_atom_site_fract_z
V1	V	-4.009747	-0.157826	-0.300088
V2	V	-3.676413	0.175507	0.033246
V3	V	-3.343080	0.508840	0.366579
O4	O	-3.978538	0.008496	-0.294275
O5	O	-3.645205	0.341829	0.039059
O6	O	-3.311872	0.675162	0.372392
O7	O	-3.979698	-0.313820	-0.298132
O8	O	-3.646364	0.019514	0.035201
O9	O	-3.313031	0.352847	0.368535
O10	O	-3.945568	-0.154999	-0.430922
O11	O	-3.612235	0.178335	-0.097589
O12	O	-3.278902	0.511668	0.235744
O13	O	-4.012904	-0.151425	-0.160565
O14	O	-3.679570	0.181908	0.172768
O15	O	-3.346237	0.515242	0.506101
V16	V	-4.493041	-0.137980	-0.283388
V17	V	-4.159708	0.195354	0.049945
V18	V	-3.826375	0.528687	0.383279
O19	O	-4.271506	-0.201362	-0.336720
O20	O	-3.938173	0.131971	-0.003387
O21	O	-3.604840	0.465305	0.329947
O22	O	-4.681479	-0.094444	-0.246756
O23	O	-4.348146	0.238889	0.086578
O24	O	-4.014813	0.572223	0.419911
O25	O	-4.299884	0.018014	-0.285344
O26	O	-3.966551	0.351347	0.047990
O27	O	-3.633217	0.684681	0.381323
O28	O	-4.641647	-0.304302	-0.289201
O29	O	-4.308313	0.029032	0.044132
O30	O	-3.974980	0.362365	0.377466
O31	O	-4.607281	-0.144381	-0.422910
O32	O	-4.273948	0.188952	-0.089577
O33	O	-3.940615	0.522286	0.243756
O34	O	-4.334013	-0.140807	-0.152554
O35	O	-4.000680	0.192526	0.180780
O36	O	-3.667347	0.525859	0.514113
C37	C	-3.829673	-0.351860	-0.293423
C38	C	-3.496340	-0.018527	0.039910
C39	C	-3.163006	0.314807	0.373244
C40	C	-3.886286	-0.479384	-0.292696
C41	C	-3.552953	-0.146051	0.040637
C42	C	-3.219619	0.187282	0.373970
C43	C	-3.989898	-0.712865	-0.291373
C44	C	-3.656565	-0.379532	0.041960
C45	C	-3.323231	-0.046198	0.375293
C46	C	-3.932233	-0.582940	-0.292109
C47	C	-3.598899	-0.249606	0.041224
C48	C	-3.265566	0.083727	0.374557
C49	C	-3.786137	-0.149267	-0.462809
C50	C	-3.452804	0.184067	-0.129475
C51	C	-3.119470	0.517400	0.203858
C52	C	-3.815069	-0.147987	-0.569767
C53	C	-3.481736	0.185346	-0.236434
C54	C	-3.148402	0.518680	0.096899
C55	C	-4.054112	-0.150312	-0.817891
C56	C	-3.720778	0.183021	-0.484557
C57	C	-3.387445	0.516355	-0.151224
C58	C	-3.868057	-0.145492	-0.765573
C59	C	-3.534724	0.187841	-0.432240
C60	C	-3.201390	0.521174	-0.098907
C61	C	-3.838575	-0.146880	-0.656617
C62	C	-3.505242	0.186453	-0.323283
C63	C	-3.171909	0.519786	0.010050
C64	C	-4.083601	-0.148924	-0.926857
C65	C	-3.750268	0.184410	-0.593524
C66	C	-3.416935	0.517743	-0.260190
C67	C	-4.113251	0.056048	-0.290050
C68	C	-3.779918	0.389381	0.043283
C69	C	-3.446585	0.722715	0.376617
C70	C	-4.035876	0.183571	-0.290783
C71	C	-3.702543	0.516904	0.042550
C72	C	-3.369210	0.850238	0.375884
C73	C	-4.156788	-0.146543	-0.120662
C74	C	-3.823454	0.186790	0.212671
C75	C	-3.490121	0.520124	0.546005
C76	C	-4.107094	-0.147817	-0.013702
C77	C	-3.773760	0.185516	0.319631
C78	C	-3.440427	0.518850	0.652964
H79	H	-4.191245	-0.155481	-0.780854
H80	H	-3.857912	0.177852	-0.447521
H81	H	-3.524579	0.511185	-0.114188
H82	H	-3.730911	-0.140321	-0.802611
H83	H	-3.397578	0.193013	-0.469278
H84	H	-3.064244	0.526346	-0.135945
