data_functionalizedCrystal
_audit_creation_method	'MofGen! by Chris Wilmer'
_symmetry_space_group_name_H-M	'P1'
_symmetry_Int_Tables_number	1
_symmetry_cell_setting	triclinic
loop_
_symmetry_equiv_pos_as_xyz
  x,y,z
_cell_length_a	12.759401
_cell_length_b	12.759400
_cell_length_c	12.759393
_cell_angle_alpha	90.029373
_cell_angle_beta	90.020938
_cell_angle_gamma	90.014690
loop_
_atom_site_label
_atom_site_type_symbol
_atom_site_fract_x
_atom_site_fract_y
_atom_site_fract_z
Zn1	Zn	1.606278	-0.418173	0.594028
Zn2	Zn	1.606173	-0.593888	0.418352
Zn3	Zn	1.430576	-0.418229	0.418363
Zn4	Zn	1.430573	-0.593815	0.593989
O5	O	1.518400	-0.506026	0.506183
O6	O	1.753285	-0.441489	0.570736
O7	O	1.582838	-0.570641	0.271332
O8	O	1.453928	-0.271200	0.441687
O9	O	1.753208	-0.570587	0.441667
O10	O	1.583015	-0.271159	0.570747
O11	O	1.453827	-0.441584	0.271341
O12	O	1.283555	-0.441513	0.441649
O13	O	1.453923	-0.570461	0.741015
O14	O	1.283552	-0.570516	0.570680
O15	O	1.583012	-0.441418	0.741044
O16	O	1.582835	-0.740900	0.441629
O17	O	1.453822	-0.740846	0.570669
C18	C	1.245433	-0.506013	0.506162
C19	C	1.128656	-0.506033	0.506178
C20	C	1.073820	-0.573307	0.573259
C21	C	0.964096	-0.573311	0.573280
C22	C	0.964053	-0.438764	0.439130
C23	C	1.073775	-0.438756	0.439115
C24	C	0.814201	-0.611009	0.697141
C25	C	0.759362	-0.678300	0.764213
C26	C	0.794962	-0.780830	0.780163
C27	C	0.885400	-0.816092	0.729026
C28	C	0.940234	-0.748807	0.661946
C29	C	0.904635	-0.646262	0.646016
C30	C	1.223672	-0.401068	0.315253
C31	C	1.278508	-0.333788	0.248167
C32	C	1.242910	-0.231255	0.232207
C33	C	1.152468	-0.195998	0.283325
C34	C	1.097632	-0.263278	0.350411
C35	C	1.133238	-0.365809	0.366373
C36	C	1.518345	-0.778993	0.506167
C37	C	1.518417	-0.895770	0.506195
C38	C	1.585599	-0.950531	0.573451
C39	C	1.585648	-1.060255	0.573477
C40	C	1.451330	-1.060448	0.438980
C41	C	1.451277	-0.950726	0.438961
C42	C	1.652740	-0.895576	0.640685
C43	C	1.719928	-0.950337	0.707947
C44	C	1.719977	-1.060061	0.707972
C45	C	1.652838	-1.115024	0.640737
C46	C	1.792433	-0.506040	0.506205
C47	C	1.909210	-0.506046	0.506214
C48	C	1.518479	-0.505925	0.780217
C49	C	1.518512	-0.505882	0.896993
C50	C	1.518484	-0.231993	0.506223
C51	C	1.518520	-0.115216	0.506240
C52	C	1.518382	-0.506051	0.233216
C53	C	1.518552	-0.505798	0.116440
C54	C	1.585734	-0.438679	0.951872
C55	C	1.585752	-0.438633	1.061596
C56	C	1.451323	-0.573004	1.061553
C57	C	1.451301	-0.573044	0.951831
C58	C	1.623361	-0.314677	1.211572
C59	C	1.690599	-0.247482	1.266454
C60	C	1.793111	-0.231372	1.230863
C61	C	1.828406	-0.282471	1.140390
C62	C	1.761173	-0.349673	1.085513
C63	C	1.658646	-0.365764	1.121104
C64	C	1.413703	-0.697002	0.801854
C65	C	1.346474	-0.764210	0.746975
C66	C	1.243960	-0.780331	0.782564
C67	C	1.208669	-0.729251	0.873040
C68	C	1.275897	-0.662042	0.927919
C69	C	1.378410	-0.645919	0.892322
H70	H	1.287562	-0.176480	0.177571
H71	H	0.685727	-0.649580	0.805850
H72	H	1.247155	-0.620450	1.001590
H73	H	1.375222	-0.805812	0.673311
C74	C	0.998147	-0.224495	0.406649
C75	C	0.958981	-0.111711	0.389098
C76	C	0.859497	-0.072931	0.445335
C77	C	0.799180	-0.146935	0.519123
C78	C	0.838345	-0.259726	0.536678
C79	C	0.937828	-0.298506	0.480441
H80	H	1.003633	-0.056923	0.334472
H81	H	0.830505	0.010565	0.432339
H82	H	0.725536	-0.118227	0.560753
H83	H	0.793693	-0.314514	0.591303
H84	H	0.966821	-0.382002	0.493436
C85	C	1.377401	-0.646887	1.121878
C86	C	1.377426	-0.646853	1.242568
C87	C	1.303505	-0.720741	1.302889
C88	C	1.229560	-0.794662	1.242521
C89	C	1.229532	-0.794699	1.121824
C90	C	1.303453	-0.720812	1.061502
H91	H	1.432168	-0.592130	1.287262
H92	H	1.303526	-0.720713	1.392237
H93	H	1.174839	-0.849358	1.287174
H94	H	1.174791	-0.849423	1.077130
H95	H	1.303432	-0.720839	0.972154
H96	H	1.774585	-0.905580	0.762694
C97	C	0.924553	-0.928886	0.746563
C98	C	0.933641	-1.004847	0.653184
C99	C	0.972797	-1.117643	0.670724
C100	C	1.002864	-1.154476	0.781643
C101	C	0.993775	-1.078513	0.875030
C102	C	0.954620	-0.965718	0.857490
H103	H	0.911384	-0.977582	0.571068
H104	H	0.979524	-1.173875	0.601593
H105	H	1.031849	-1.237974	0.794627
H106	H	1.016033	-1.105779	0.957146
H107	H	0.947892	-0.909486	0.926621
H108	H	0.750305	-0.835618	0.834775
H109	H	1.118501	-0.628086	0.627869
C110	C	1.095898	-0.746971	0.912192
C111	C	1.021945	-0.820886	0.851823
C112	C	0.909172	-0.838610	0.890971
C113	C	0.870352	-0.782419	0.990487
C114	C	0.944306	-0.708499	1.050862
C115	C	1.057079	-0.690775	1.011714
H116	H	1.050681	-0.862486	0.778150
H117	H	0.854427	-0.893330	0.846278
H118	H	0.786871	-0.795539	1.019467
H119	H	0.915570	-0.666899	1.124535
H120	H	1.111825	-0.636055	1.056407
C121	C	1.113270	-0.083222	0.265761
C122	C	1.083198	-0.046435	0.154828
C123	C	1.043985	0.066334	0.137251
C124	C	1.034844	0.142317	0.230608
C125	C	1.064917	0.105532	0.341549
C126	C	1.104130	-0.007238	0.359125
H127	H	1.089964	-0.102684	0.085713
H128	H	1.021724	0.093565	0.055125
H129	H	1.005817	0.225796	0.217596
H130	H	1.058151	0.161780	0.410664
H131	H	1.126391	-0.034468	0.441252
C132	C	1.659657	-0.364795	0.891550
C133	C	1.742116	-0.410348	0.816128
C134	C	1.816039	-0.336460	0.755810
C135	C	1.807502	-0.217018	0.770913
C136	C	1.725039	-0.171459	0.846338
C137	C	1.651116	-0.245347	0.906657
H138	H	1.748439	-0.498772	0.804945
H139	H	1.877083	-0.370187	0.699975
H140	H	1.862224	-0.162322	0.726262
H141	H	1.718716	-0.083036	0.857522
H142	H	1.590072	-0.211620	0.962491
H143	H	1.396570	-0.906139	0.384195
C144	C	1.941179	-0.264757	1.101246
C145	C	2.015132	-0.190837	1.161607
C146	C	2.127907	-0.173120	1.122459
C147	C	2.166727	-0.229323	1.022950
C148	C	2.092772	-0.303248	0.962583
C149	C	1.979998	-0.320965	1.001731
H150	H	1.986396	-0.149227	1.235275
H151	H	2.182652	-0.118395	1.167147
H152	H	2.250209	-0.216208	0.993970
H153	H	2.121509	-0.344858	0.888916
H154	H	1.925253	-0.375690	0.957044
H155	H	1.352150	-0.362504	0.206543
C156	C	1.867073	-0.157457	1.291232
C157	C	1.970383	-0.199706	1.337139
C158	C	2.044336	-0.125788	1.397513
C159	C	2.014981	-0.009622	1.411980
C160	C	1.911666	0.032633	1.366072
C161	C	1.837712	-0.041285	1.305699
H162	H	1.992118	-0.285705	1.326431
H163	H	2.120817	-0.157069	1.431497
H164	H	2.069726	0.045097	1.456673
H165	H	1.889930	0.118632	1.376781
H166	H	1.761231	-0.010004	1.271715
C167	C	1.170006	-0.854265	0.722202
C168	C	1.066688	-0.812028	0.676304
C169	C	0.992731	-0.885956	0.615947
C170	C	1.022093	-1.002122	0.601487
C171	C	1.125416	-1.044365	0.647386
C172	C	1.199373	-0.970437	0.707743
H173	H	1.044948	-0.726029	0.687007
H174	H	0.916244	-0.854684	0.581969
H175	H	0.967345	-1.056848	0.556807
H176	H	1.147156	-1.130364	0.636683
H177	H	1.275860	-1.001709	0.741720
H178	H	1.013867	-0.777517	0.620311
H179	H	0.785214	-0.527517	0.684172
H180	H	0.919356	-0.383991	0.384528
H181	H	1.252672	-0.484556	0.328252
H182	H	1.774677	-1.104644	0.762748
H183	H	1.652710	-0.806233	0.640670
H184	H	1.652871	-1.204368	0.640775
H185	H	1.396669	-1.105207	0.384240
H186	H	1.789912	-0.391281	1.011856
H187	H	1.661852	-0.205877	1.340117
H188	H	1.539884	-0.327780	1.240554
H189	H	1.497176	-0.683873	0.772862
