data_functionalizedCrystal
_audit_creation_method	'MofGen! by Chris Wilmer'
_symmetry_space_group_name_H-M	'P1'
_symmetry_Int_Tables_number	1
_symmetry_cell_setting	triclinic
loop_
_symmetry_equiv_pos_as_xyz
  x,y,z
_cell_length_a	17.699083
_cell_length_b	9.065218
_cell_length_c	8.140239
_cell_angle_alpha	90.001686
_cell_angle_beta	90.003310
_cell_angle_gamma	95.850550
loop_
_atom_site_label
_atom_site_type_symbol
_atom_site_fract_x
_atom_site_fract_y
_atom_site_fract_z
O1	O	1.005529	-0.186555	-0.136376
O2	O	0.785340	-0.210827	-0.136429
O3	O	0.899986	0.016086	-0.136398
O4	O	0.890883	-0.413468	-0.136407
O5	O	0.899979	0.016089	0.136829
O6	O	0.785333	-0.210824	0.136798
O7	O	1.005522	-0.186553	0.136851
Zn8	Zn	0.895427	-0.198688	0.180205
Zn9	Zn	0.895435	-0.198691	-0.179783
O10	O	0.890877	-0.413466	0.136820
C11	C	0.757133	-0.209956	0.000177
C12	C	0.673094	-0.207347	0.000157
N13	N	0.895427	-0.198685	0.425888
C14	C	0.899108	0.071048	0.000212
C15	C	0.896492	0.234814	0.000204
C16	C	0.625512	-0.340540	0.000155
C17	C	0.546550	-0.338080	0.000176
C18	C	0.515171	-0.202425	0.000188
C19	C	0.562759	-0.069221	0.000195
C20	C	0.641720	-0.071683	0.000186
C21	C	0.244319	-0.059289	0.000236
C22	C	0.165352	-0.056838	0.000241
C23	C	0.149148	-0.325686	0.000226
C24	C	0.228109	-0.328148	0.000217
C25	C	0.275691	-0.194946	0.000233
C26	C	0.361311	-0.197615	0.000213
C27	C	0.429552	-0.199754	0.000196
C28	C	1.033729	-0.187423	0.000240
C29	C	1.117768	-0.190033	0.000250
C30	C	0.891755	-0.468428	0.000206
C31	C	0.894370	-0.632193	0.000203
N32	N	0.895441	-0.198683	-0.425466
H33	H	0.651054	-0.451006	0.000144
H34	H	0.507811	-0.446539	0.000172
H35	H	0.139807	0.053635	0.000252
O36	O	0.102848	-0.454987	0.000009
C37	C	0.004319	-0.608285	-0.141590
C38	C	0.056694	-0.461789	-0.141521
H39	H	-0.032999	-0.613847	-0.256023
H40	H	-0.033099	-0.613884	-0.027317
H41	H	0.040327	-0.705637	-0.141529
H42	H	0.020745	-0.364355	-0.141641
H43	H	0.094115	-0.456321	-0.255785
O44	O	0.290423	0.070234	0.000172
C45	C	0.298156	0.337164	0.000290
C46	C	0.245850	0.190582	0.000323
H47	H	0.262140	0.434503	0.000447
H48	H	0.335511	0.342845	-0.114080
H49	H	0.335547	0.342653	0.114610
H50	H	0.208412	0.184994	-0.113919
H51	H	0.208546	0.184962	0.114769
H52	H	0.253653	-0.438612	0.000200
O53	O	0.532156	0.062427	0.000137
C54	C	0.417697	0.185377	0.000250
C55	C	0.452252	0.036180	0.000283
H56	H	0.353090	0.164208	0.000403
H57	H	0.437159	0.251207	-0.114120
H58	H	0.437268	0.251180	0.114570
H59	H	0.432696	-0.029743	-0.113960
H60	H	0.432792	-0.029537	0.114728
H61	H	0.680462	0.036777	0.000186
