data_functionalizedCrystal
_audit_creation_method	'MofGen! by Chris Wilmer'
_symmetry_space_group_name_H-M	'P1'
_symmetry_Int_Tables_number	1
_symmetry_cell_setting	triclinic
loop_
_symmetry_equiv_pos_as_xyz
  x,y,z
_cell_length_a	18.050589
_cell_length_b	16.959455
_cell_length_c	16.959455
_cell_angle_alpha	89.997526
_cell_angle_beta	90.010492
_cell_angle_gamma	89.977010
loop_
_atom_site_label
_atom_site_type_symbol
_atom_site_fract_x
_atom_site_fract_y
_atom_site_fract_z
Zn1	Zn	-0.295867	-1.208239	0.446948
Zn2	Zn	0.204133	-0.708239	0.946948
Zn3	Zn	-0.420033	-1.208173	0.314778
Zn4	Zn	0.079967	-0.708173	0.814778
Zn5	Zn	-0.295850	-1.076097	0.314783
Zn6	Zn	0.204150	-0.576097	0.814783
Zn7	Zn	-0.420008	-1.076014	0.446914
Zn8	Zn	0.079992	-0.576014	0.946914
O9	O	-0.357940	-1.142131	0.380856
O10	O	0.142060	-0.642131	0.880856
O11	O	-0.312355	-1.318841	0.429427
O12	O	0.187645	-0.818841	0.929427
O13	O	-0.403564	-1.190660	0.204168
O14	O	0.096436	-0.690660	0.704168
O15	O	-0.191928	-1.093689	0.332331
O16	O	0.308072	-0.593689	0.832331
O17	O	-0.403580	-1.318792	0.332322
O18	O	0.096420	-0.818792	0.832322
O19	O	-0.191940	-1.190773	0.429432
O20	O	0.308060	-0.690773	0.929432
O21	O	-0.312327	-1.093624	0.204172
O22	O	0.187673	-0.593624	0.704172
O23	O	-0.312303	-0.965475	0.332299
O24	O	0.187697	-0.465475	0.832299
O25	O	-0.403537	-1.093547	0.557529
O26	O	0.096463	-0.593547	1.057529
O27	O	-0.403521	-0.965414	0.429375
O28	O	0.096479	-0.465414	0.929375
O29	O	-0.312331	-1.190692	0.557554
O30	O	0.187669	-0.690692	1.057554
O31	O	-0.523955	-1.190579	0.332290
O32	O	-0.023955	-0.690579	0.832290
O33	O	-0.523936	-1.093482	0.429370
O34	O	-0.023936	-0.593482	0.929370
C35	C	-0.357908	-0.936765	0.380834
C36	C	0.142092	-0.436765	0.880834
C37	C	-0.357912	-0.848908	0.380844
C38	C	0.142088	-0.348908	0.880844
C39	C	-0.550892	-1.142035	0.380843
C40	C	-0.050892	-0.642035	0.880843
C41	C	-0.633438	-1.142067	0.380863
C42	C	-0.133438	-0.642067	0.880863
C43	C	-0.310380	-0.477440	0.330403
C44	C	0.189620	0.022560	0.830403
C45	C	-0.405513	-0.477425	0.431332
C46	C	0.094487	0.022575	0.931332
C47	C	-0.405506	-0.559971	0.431329
C48	C	0.094494	-0.059971	0.931329
C49	C	-0.357935	-0.601255	0.380861
C50	C	0.142065	-0.101255	0.880861
C51	C	-0.310372	-0.559993	0.330396
C52	C	0.189628	-0.059993	0.830396
C53	C	-0.453073	-0.601238	0.481787
C54	C	0.046927	-0.101238	0.981787
C55	C	-0.453068	-0.683789	0.481784
C56	C	0.046932	-0.183789	0.981784
C57	C	-0.405493	-0.725075	0.431320
C58	C	0.094507	-0.225075	0.931320
C59	C	-0.357927	-0.683809	0.380854
C60	C	0.142073	-0.183809	0.880854
C61	C	-0.310357	-0.725093	0.330386
C62	C	0.189643	-0.225093	0.830386
C63	C	-0.262787	-0.683828	0.279924
C64	C	0.237213	-0.183828	0.779924
C65	C	-0.262797	-0.601279	0.279932
C66	C	0.237203	-0.101279	0.779932
C67	C	-0.405483	-0.807624	0.431312
C68	C	0.094517	-0.307624	0.931312
C69	C	-0.310349	-0.807646	0.330379
C70	C	0.189651	-0.307646	0.830379
C71	C	-0.832905	-1.089318	0.433637
C72	C	-0.332905	-0.589318	0.933637
C73	C	-0.882328	-1.070071	0.361510
C74	C	-0.382328	-0.570071	0.861510
C75	C	-0.784568	-1.142145	0.380874
C76	C	-0.284568	-0.642145	0.880874
C77	C	-0.882226	-1.161430	0.453009
C78	C	-0.382226	-0.661430	0.953009
C79	C	-0.930553	-1.142218	0.380890
C80	C	-0.430553	-0.642218	0.880890
C81	C	-0.832904	-1.122860	0.308708
C82	C	-0.332904	-0.622860	0.808708
C83	C	-0.832798	-1.214253	0.400256
C84	C	-0.332798	-0.714253	0.900256
C85	C	-0.882199	-1.195033	0.328079
C86	C	-0.382199	-0.695033	0.828079
C87	C	-0.700470	-1.142100	0.380865
C88	C	-0.200470	-0.642100	0.880865
C89	C	-1.014650	-1.142263	0.380890
C90	C	-0.514650	-0.642263	0.880890
C91	C	-0.164234	-1.142248	0.380886
C92	C	0.335766	-0.642248	0.880886
C93	C	-0.081688	-1.142298	0.380899
C94	C	0.418312	-0.642298	0.880899
C95	C	-0.357933	-1.142118	0.587024
C96	C	0.142067	-0.642118	1.087024
C97	C	-0.357930	-1.142112	0.674880
C98	C	0.142070	-0.642112	1.174880
C99	C	-0.357963	-0.348299	0.380874
C100	C	0.142037	0.151701	0.880874
C101	C	-0.357950	-0.436156	0.380871
C102	C	0.142050	0.063844	0.880871
C103	C	-0.405437	-1.091545	1.046346
C104	C	0.094563	-0.591545	1.546346
C105	C	-0.310463	-1.192703	1.046366
C106	C	0.189537	-0.692703	1.546366
C107	C	-0.310457	-1.192701	0.963821
C108	C	0.189543	-0.692701	1.463821
C109	C	-0.357942	-1.142120	0.922533
C110	C	0.142058	-0.642120	1.422533
C111	C	-0.405434	-1.091542	0.963792
C112	C	0.094566	-0.591542	1.463792
C113	C	-0.262972	-1.243283	0.922556
C114	C	0.237028	-0.743283	1.422556
C115	C	-0.262964	-1.243283	0.840005
C116	C	0.237036	-0.743283	1.340005
C117	C	-0.310447	-1.192698	0.798716
C118	C	0.189553	-0.692698	1.298716
C119	C	-0.357939	-1.142117	0.839980
C120	C	0.142061	-0.642117	1.339980
C121	C	-0.405424	-1.091537	0.798693
C122	C	0.094576	-0.591537	1.298693
C123	C	-0.452914	-1.040952	0.839955
C124	C	0.047086	-0.540952	1.339955
C125	C	-0.452916	-1.040957	0.922503
C126	C	0.047084	-0.540957	1.422503
C127	C	-0.310445	-1.192693	0.716168
C128	C	0.189555	-0.692693	1.216168
C129	C	-0.405421	-1.091534	0.716139
C130	C	0.094579	-0.591534	1.216139
C131	C	-0.357960	-1.142133	1.175489
C132	C	0.142040	-0.642133	1.675489
C133	C	-0.357952	-1.142125	1.087633
C134	C	0.142048	-0.642125	1.587633
H135	H	-0.271607	-0.841254	0.289287
H136	H	0.228393	-0.341254	0.789287
N137	N	-0.454113	-0.435256	0.482869
N138	N	0.045887	0.064744	0.982869
N139	N	-0.501403	-0.389178	0.454974
N140	N	-0.001403	0.110822	0.954974
H141	H	-0.535729	-0.359393	0.491373
H142	H	-0.035729	0.140607	0.991373
N143	N	-0.454057	-0.849773	0.482863
N144	N	0.045943	-0.349773	0.982863
N145	N	-0.427996	-0.895845	0.533281
N146	N	0.072004	-0.395845	1.033281
H147	H	-0.462302	-0.925613	0.569694
H148	H	0.037698	-0.425613	1.069694
H149	H	-0.491807	-0.567619	0.522869
H150	H	0.008193	-0.067619	1.022869
N151	N	-0.805852	-1.102344	0.232162
N152	N	-0.305852	-0.602344	0.732162
N153	N	-0.822147	-1.143974	0.173870
N154	N	-0.322147	-0.643974	0.673870
H155	H	-0.803039	-1.129482	0.119811
H156	H	-0.303039	-0.629482	0.619811
H157	H	-0.811027	-1.275184	0.416670
H158	H	-0.311027	-0.775184	0.916670
N159	N	-0.501662	-0.725924	0.533332
N160	N	-0.001662	-0.225924	1.033332
N161	N	-0.544132	-0.689053	0.578386
N162	N	-0.044132	-0.189053	1.078386
H163	H	-0.578452	-0.718811	0.614793
H164	H	-0.078452	-0.218811	1.114793
H165	H	-0.903891	-1.177713	0.514007
H166	H	-0.403891	-0.677713	1.014007
N167	N	-0.805757	-1.033189	0.489531
N168	N	-0.305757	-0.533189	0.989531
N169	N	-0.821666	-0.961824	0.482202
N170	N	-0.321666	-0.461824	0.982202
H171	H	-0.802492	-0.922181	0.521674
H172	H	-0.302492	-0.422181	1.021674
H173	H	-0.903706	-1.239739	0.283414
H174	H	-0.403706	-0.739739	0.783414
H175	H	-0.491580	-0.999773	0.806328
H176	H	0.008420	-0.499773	1.306328
N177	N	-0.214195	-0.725988	0.228363
N178	N	0.285805	-0.225988	0.728363
N179	N	-0.219012	-0.716757	0.155418
N180	N	0.280988	-0.216757	0.655418
H181	H	-0.184693	-0.746534	0.119004
H182	H	0.315307	-0.246534	0.619004
N183	N	-0.214215	-0.559116	0.228395
N184	N	0.285785	-0.059116	0.728395
N185	N	-0.214233	-0.485412	0.228408
N186	N	0.285767	0.014588	0.728408
H187	H	-0.179923	-0.455631	0.192009
H188	H	0.320077	0.044369	0.692009
N189	N	-0.909614	-0.993609	0.340950
N190	N	-0.409614	-0.493609	0.840950
N191	N	-0.893835	-0.935336	0.382829
N192	N	-0.393835	-0.435336	0.882829
H193	H	-0.913103	-0.881332	0.368314
H194	H	-0.413103	-0.381332	0.868314
N195	N	-0.453926	-1.039854	0.673981
N196	N	0.046074	-0.539854	1.173981
N197	N	-0.496317	-0.994695	0.710833
N198	N	0.003683	-0.494695	1.210833
H199	H	-0.530574	-0.958195	0.681060
H200	H	-0.030574	-0.458195	1.181060
H201	H	-0.491582	-0.999776	0.956107
H202	H	0.008418	-0.499776	1.456107
N203	N	-0.453934	-1.039875	1.088500
N204	N	0.046066	-0.539875	1.588500
N205	N	-0.453930	-1.039876	1.162204
N206	N	0.046070	-0.539876	1.662204
H207	H	-0.488181	-1.003383	1.191978
H208	H	0.011819	-0.503383	1.691978
H209	H	-0.224317	-1.284468	0.956178
H210	H	0.275683	-0.784468	1.456178
N211	N	-0.261973	-1.244370	1.088549
N212	N	0.238027	-0.744370	1.588549
N213	N	-0.261988	-1.244370	1.162253
N214	N	0.238012	-0.744370	1.662253
H215	H	-0.227741	-1.280862	1.192048
H216	H	0.272259	-0.780862	1.692048
H217	H	-0.271782	-1.233881	0.682575
H218	H	0.228218	-0.733881	1.182575
N219	N	-0.214462	-1.294945	0.797846
N220	N	0.285538	-0.794945	1.297846
N221	N	-0.240594	-1.345293	0.751771
N222	N	0.259406	-0.845293	1.251771
H223	H	-0.206338	-1.381778	0.721994
H224	H	0.293662	-0.881778	1.221994
N225	N	-0.261791	-0.435282	0.278869
N226	N	0.238209	0.064718	0.778869
N227	N	-0.261796	-0.361578	0.278883
N228	N	0.238204	0.138422	0.778883
H229	H	-0.227479	-0.331802	0.242488
H230	H	0.272521	0.168198	0.742488
