data_functionalizedCrystal
_audit_creation_method	'MofGen! by Chris Wilmer'
_symmetry_space_group_name_H-M	'P1'
_symmetry_Int_Tables_number	1
_symmetry_cell_setting	triclinic
loop_
_symmetry_equiv_pos_as_xyz
  x,y,z
_cell_length_a	18.215407
_cell_length_b	16.625545
_cell_length_c	18.215399
_cell_angle_alpha	89.973113
_cell_angle_beta	89.982632
_cell_angle_gamma	90.023001
loop_
_atom_site_label
_atom_site_type_symbol
_atom_site_fract_x
_atom_site_fract_y
_atom_site_fract_z
Zn1	Zn	1.125068	-0.321065	-0.416073
Zn2	Zn	1.124975	-0.455905	-0.293009
Zn3	Zn	1.002001	-0.321084	-0.293026
Zn4	Zn	1.001965	-0.455853	-0.416039
O5	O	1.063503	-0.388477	-0.354537
O6	O	1.228040	-0.338965	-0.399755
O7	O	1.108639	-0.438051	-0.190027
O8	O	1.018380	-0.208249	-0.309369
O9	O	1.227972	-0.438032	-0.309341
O10	O	1.108797	-0.208235	-0.399772
O11	O	1.018290	-0.338998	-0.190039
O12	O	0.899012	-0.338948	-0.309336
O13	O	1.018319	-0.437943	-0.519028
O14	O	0.898986	-0.437962	-0.399714
O15	O	1.108763	-0.338915	-0.519053
O16	O	1.108604	-0.568731	-0.309308
O17	O	1.018229	-0.568693	-0.399698
C18	C	0.872296	-0.388452	-0.354524
C19	C	0.790497	-0.388461	-0.354536
C20	C	0.602338	-0.336983	-0.401689
C21	C	0.525479	-0.336990	-0.401691
C22	C	0.525419	-0.439993	-0.307397
C23	C	0.602276	-0.439982	-0.307392
C24	C	0.640734	-0.388478	-0.354542
C25	C	0.487018	-0.388496	-0.354550
C26	C	0.403684	-0.388504	-0.354552
C27	C	0.724073	-0.388469	-0.354539
C28	C	1.063423	-0.597968	-0.354513
C29	C	1.063456	-0.687589	-0.354528
C30	C	1.063484	-0.760371	-0.354543
C31	C	1.063527	-0.851680	-0.354559
C32	C	1.063565	-0.924456	-0.354568
C33	C	1.063607	-1.015770	-0.354583
C34	C	1.255455	-0.388502	-0.354550
C35	C	1.337254	-0.388513	-0.354556
C36	C	1.063547	-0.388421	-0.546490
C37	C	1.063567	-0.388398	-0.628289
C38	C	1.063603	-0.178168	-0.354576
C39	C	1.063646	-0.088547	-0.354593
C40	C	1.110677	-0.336785	-0.816497
C41	C	1.110686	-0.336762	-0.893355
C42	C	1.016508	-0.439885	-0.893318
C43	C	1.016496	-0.439904	-0.816461
C44	C	1.063585	-0.388355	-0.778052
C45	C	1.063606	-0.388313	-0.931768
C46	C	1.063615	-0.388288	-1.015102
C47	C	1.063575	-0.388379	-0.694713
C48	C	1.063500	-0.388474	-0.163330
C49	C	1.063624	-0.388271	-0.081532
H50	H	0.633539	-0.481916	-0.268995
H51	H	0.494098	-0.481927	-0.269010
C52	C	1.162467	-0.280077	-0.774246
C53	C	1.214264	-0.223347	-0.816538
C54	C	1.266054	-0.166634	-0.774290
C55	C	1.266046	-0.166651	-0.689750
C56	C	1.214247	-0.223383	-0.647453
C57	C	1.162458	-0.280096	-0.689701
H58	H	1.214272	-0.223332	-0.879124
H59	H	1.304399	-0.124638	-0.805601
H60	H	1.304384	-0.124669	-0.658475
H61	H	1.214240	-0.223398	-0.584867
H62	H	1.124113	-0.322093	-0.658390
H63	H	0.494221	-0.295057	-0.440082
C64	C	1.162491	-0.280035	-0.935644
C65	C	1.246148	-0.286629	-0.925089
C66	C	1.297954	-0.229898	-0.967377
C67	C	1.266102	-0.166573	-1.020219
C68	C	1.182441	-0.159976	-1.030775
C69	C	1.130635	-0.216707	-0.988488
H70	H	1.269730	-0.333509	-0.885971
H71	H	1.359886	-0.234782	-0.959562
H72	H	1.304452	-0.124577	-1.051522
H73	H	1.158859	-0.113096	-1.069894
H74	H	1.068703	-0.211823	-0.996303
C75	C	0.964723	-0.496593	-0.935576
C76	C	0.996604	-0.559883	-0.988401
C77	C	0.944823	-0.616595	-1.030659
C78	C	0.861160	-0.610017	-1.020093
C79	C	0.829275	-0.546725	-0.967266
C80	C	0.881056	-0.490013	-0.925008
H81	H	1.058540	-0.564754	-0.996224
H82	H	0.968427	-0.663448	-1.069765
H83	H	0.822828	-0.651999	-1.051376
H84	H	0.767339	-0.541853	-0.959443
H85	H	0.857452	-0.443160	-0.885902
C86	C	0.644642	-0.280324	-0.453546
C87	C	0.602404	-0.223678	-0.505404
C88	C	0.644705	-0.167015	-0.557261
C89	C	0.729245	-0.166999	-0.557261
C90	C	0.771489	-0.223648	-0.505401
C91	C	0.729187	-0.280310	-0.453544
H92	H	0.539818	-0.223687	-0.505406
H93	H	0.613434	-0.125080	-0.595651
H94	H	0.760560	-0.125054	-0.595649
H95	H	0.834075	-0.223638	-0.505399
H96	H	0.760459	-0.322246	-0.415154
C97	C	0.964691	-0.496636	-0.774166
C98	C	0.912902	-0.553345	-0.816411
C99	C	0.861098	-0.610071	-0.774115
C100	C	0.861083	-0.610087	-0.689575
C101	C	0.912875	-0.553376	-0.647326
C102	C	0.964679	-0.496650	-0.689621
H103	H	0.912911	-0.553334	-0.878996
H104	H	0.822758	-0.652052	-0.805391
H105	H	0.822735	-0.652079	-0.658265
H106	H	0.912866	-0.553387	-0.584740
H107	H	1.003018	-0.454669	-0.658345
