data_functionalizedCrystal
_audit_creation_method	'MofGen! by Chris Wilmer'
_symmetry_space_group_name_H-M	'P1'
_symmetry_Int_Tables_number	1
_symmetry_cell_setting	triclinic
loop_
_symmetry_equiv_pos_as_xyz
  x,y,z
_cell_length_a	9.065218
_cell_length_b	16.109301
_cell_length_c	8.140239
_cell_angle_alpha	89.995060
_cell_angle_beta	89.997198
_cell_angle_gamma	84.238683
loop_
_atom_site_label
_atom_site_type_symbol
_atom_site_fract_x
_atom_site_fract_y
_atom_site_fract_z
O1	O	1.957448	0.121905	-0.136624
O2	O	1.527922	0.131904	-0.136627
O3	O	1.754484	0.005964	-0.136608
O4	O	1.730885	0.247845	-0.136642
O5	O	1.754472	0.005963	0.136619
O6	O	1.527909	0.131903	0.136600
O7	O	1.957436	0.121904	0.136603
Zn8	Zn	1.742671	0.126903	0.179982
Zn9	Zn	1.742687	0.126905	-0.180006
O10	O	1.730873	0.247843	0.136585
C11	C	1.472952	0.130943	-0.000013
C12	C	1.309179	0.128069	-0.000014
C13	C	1.753522	-0.025019	0.000006
C14	C	1.750656	-0.117336	0.000008
C15	C	1.878430	-0.338627	-0.000017
C16	C	1.875726	-0.425368	-0.000031
C17	C	1.606917	-0.407559	-0.000026
C18	C	1.609623	-0.320819	-0.000024
C19	C	1.745384	-0.286356	-0.000011
C20	C	1.739974	-0.459836	-0.000027
C21	C	1.737040	-0.553885	-0.000041
C22	C	1.748318	-0.192301	0.000000
C23	C	2.012405	0.122865	-0.000014
C24	C	2.176179	0.125739	-0.000024
C25	C	1.731835	0.278826	-0.000033
C26	C	1.734701	0.371144	-0.000046
N27	N	1.742670	0.126901	0.425665
N28	N	1.742699	0.126900	-0.425689
H29	H	1.988976	-0.310570	-0.000010
C30	C	2.020338	-0.481980	0.000053
C31	C	2.139802	-0.433228	0.000104
C32	C	2.273047	-0.485350	0.000200
H33	H	2.025088	-0.516198	-0.095205
H34	H	2.024948	-0.516181	0.095368
H35	H	2.135196	-0.399042	-0.095202
H36	H	2.135102	-0.399012	0.095355
H37	H	2.277656	-0.519551	0.095516
H38	H	2.277781	-0.519566	-0.095059
H39	H	2.354119	-0.452280	0.000250
C40	C	1.465003	-0.264200	0.000066
C41	C	1.345530	-0.312945	0.000112
C42	C	1.212293	-0.260817	0.000210
H43	H	1.460267	-0.229972	-0.095189
H44	H	1.460392	-0.230009	0.095384
H45	H	1.350139	-0.347122	-0.095197
H46	H	1.350217	-0.347171	0.095360
H47	H	1.207681	-0.226626	0.095528
H48	H	1.207572	-0.226591	-0.095047
H49	H	1.131215	-0.293882	0.000256
H50	H	1.496385	-0.435630	-0.000033
