data_functionalizedCrystal
_audit_creation_method	'MofGen! by Chris Wilmer'
_symmetry_space_group_name_H-M	'P1'
_symmetry_Int_Tables_number	1
_symmetry_cell_setting	triclinic
loop_
_symmetry_equiv_pos_as_xyz
  x,y,z
_cell_length_a	13.033286
_cell_length_b	14.908308
_cell_length_c	13.032721
_cell_angle_alpha	80.009263
_cell_angle_beta	90.862713
_cell_angle_gamma	100.851703
loop_
_atom_site_label
_atom_site_type_symbol
_atom_site_fract_x
_atom_site_fract_y
_atom_site_fract_z
Zn1	Zn	1.489309	-0.415792	0.632770
Zn2	Zn	1.477102	-0.284301	0.797202
Zn3	Zn	1.327445	-0.279493	0.603164
Zn4	Zn	1.292634	-0.454050	0.785077
O5	O	1.396623	-0.358409	0.704553
O6	O	1.632631	-0.384351	0.672047
O7	O	1.466710	-0.155580	0.764147
O8	O	1.368594	-0.279550	0.462144
O9	O	1.623663	-0.287744	0.792854
O10	O	1.487515	-0.379689	0.483896
O11	O	1.356757	-0.152048	0.621588
O12	O	1.177886	-0.316647	0.609830
O13	O	1.309263	-0.577058	0.772189
O14	O	1.152310	-0.444893	0.743481
O15	O	1.453760	-0.548950	0.660289
O16	O	1.432955	-0.324841	0.940540
O17	O	1.297427	-0.449555	0.931632
C18	C	1.127516	-0.384400	0.672128
C19	C	1.012387	-0.395544	0.658283
C20	C	0.956641	-0.352615	0.711781
C21	C	0.837648	-0.364132	0.697472
C22	C	1.378990	-0.597143	0.718189
C23	C	1.371476	-0.698877	0.724000
C24	C	1.507821	-0.860777	0.618374
C25	C	1.500765	-0.956364	0.623830
C26	C	1.350304	-0.985641	0.740363
C27	C	1.357360	-0.890053	0.734907
C28	C	1.436122	-0.827624	0.673911
C29	C	1.443182	-0.732035	0.668461
C30	C	1.292717	-0.761313	0.784987
C31	C	1.285661	-0.856901	0.790444
C32	C	1.666779	-0.332317	0.737105
C33	C	1.781904	-0.321198	0.750977
C34	C	1.360115	-0.391889	0.973674
C35	C	1.344590	-0.406233	1.088818
C36	C	1.414256	-0.120589	0.690903
C37	C	1.422010	-0.018799	0.684824
C38	C	1.433299	-0.324815	0.434386
C39	C	1.448928	-0.310500	0.319257
C40	C	1.404777	-0.350958	1.144535
C41	C	1.388733	-0.365782	1.263542
H42	H	0.797284	-0.409418	0.641077
H43	H	1.507316	-0.681206	0.618797
H44	H	0.972018	-0.440827	0.601892
O45	O	1.524445	-0.240854	1.271005
C46	C	1.478271	-0.179667	1.197996
H47	H	1.392736	-0.185886	1.220590
H48	H	1.483564	-0.198171	1.117204
C49	C	1.641280	-0.071796	1.169113
C50	C	1.536227	-0.079428	1.196868
H51	H	1.677032	-0.009963	1.168413
H52	H	1.672390	-0.113020	1.218297
H53	H	1.645676	-0.087221	1.101788
H54	H	1.531831	-0.064014	1.264197
H55	H	1.505117	-0.038198	1.147695
H56	H	0.822264	-0.275923	0.807385
H57	H	1.571957	-0.809946	0.568715
H58	H	1.325325	-0.424087	1.303942
O59	O	1.570528	-0.988414	0.569855
C60	C	1.641536	-0.912811	0.514830
H61	H	1.644395	-0.849603	0.553798
H62	H	1.615031	-0.896527	0.431014
C63	C	1.747534	-1.015242	0.467443
C64	C	1.751052	-0.937610	0.515310
H65	H	1.815088	-1.030539	0.467734
H66	H	1.699693	-1.066178	0.504511
H67	H	1.725442	-1.001661	0.397601
H68	H	1.773132	-0.951195	0.585154
H69	H	1.798900	-0.886677	0.478254
H70	H	1.281187	-0.464534	1.129222
O71	O	1.480557	-0.281494	1.096415
C72	C	1.578770	-0.294832	1.136278
H73	H	1.574552	-0.371140	1.170852
H74	H	1.601112	-0.250918	1.199468
C75	C	1.666754	-0.171921	1.005293
C76	C	1.661574	-0.265645	1.047749
H77	H	1.717833	-0.153913	0.950687
H78	H	1.600586	-0.162931	0.978439
H79	H	1.685368	-0.135338	1.057961
H80	H	1.642948	-0.302227	0.995085
H81	H	1.727741	-0.274640	1.074593
O82	O	1.273879	-1.046419	0.799578
C83	C	1.283005	-1.137893	0.792447
H84	H	1.366583	-1.139008	0.768913
H85	H	1.227066	-1.164076	0.731415
C86	C	1.152986	-1.199571	0.927796
C87	C	1.255641	-1.200942	0.898900
H88	H	1.136102	-1.238464	0.993459
H89	H	1.146834	-1.137943	0.932599
H90	H	1.106382	-1.221388	0.876928
H91	H	1.302243	-1.179114	0.949761
H92	H	1.261800	-1.262567	0.894108
H93	H	1.221534	-0.907743	0.840102
H94	H	1.234337	-0.734312	0.830213
H95	H	0.997008	-0.307340	0.768179
