data_functionalizedCrystal
_audit_creation_method	'MofGen! by Chris Wilmer'
_symmetry_space_group_name_H-M	'P1'
_symmetry_Int_Tables_number	1
_symmetry_cell_setting	triclinic
loop_
_symmetry_equiv_pos_as_xyz
  x,y,z
_cell_length_a	25.639243
_cell_length_b	25.639239
_cell_length_c	25.639233
_cell_angle_alpha	89.981253
_cell_angle_beta	90.001040
_cell_angle_gamma	89.958085
loop_
_atom_site_label
_atom_site_type_symbol
_atom_site_fract_x
_atom_site_fract_y
_atom_site_fract_z
Zn1	Zn	0.799225	0.208169	0.295448
Zn2	Zn	1.049225	0.458169	0.545448
Zn3	Zn	1.299225	0.708169	0.795448
Zn4	Zn	1.549225	0.958169	1.045448
Zn5	Zn	0.799149	0.295588	0.208012
Zn6	Zn	1.049149	0.545588	0.458012
Zn7	Zn	1.299149	0.795588	0.708012
Zn8	Zn	1.549149	1.045588	0.958012
Zn9	Zn	0.711801	0.208174	0.208044
Zn10	Zn	0.961801	0.458174	0.458044
Zn11	Zn	1.211801	0.708174	0.708044
Zn12	Zn	1.461801	0.958174	0.958044
Zn13	Zn	0.711746	0.295581	0.295434
Zn14	Zn	0.961746	0.545581	0.545434
Zn15	Zn	1.211746	0.795581	0.795434
Zn16	Zn	1.461746	1.045581	1.045434
O17	O	0.755480	0.251878	0.251734
O18	O	1.005480	0.501878	0.501734
O19	O	1.255480	0.751878	0.751734
O20	O	1.505480	1.001878	1.001734
O21	O	0.872380	0.219767	0.283841
O22	O	1.122380	0.469767	0.533841
O23	O	1.372380	0.719767	0.783841
O24	O	1.622380	0.969767	1.033841
O25	O	0.787553	0.283997	0.134851
O26	O	1.037553	0.533997	0.384851
O27	O	1.287553	0.783997	0.634851
O28	O	1.537553	1.033997	0.884851
O29	O	0.723453	0.135008	0.219657
O30	O	0.973453	0.385008	0.469657
O31	O	1.223453	0.635008	0.719657
O32	O	1.473453	0.885008	0.969657
O33	O	0.872324	0.283993	0.219603
O34	O	1.122324	0.533993	0.469603
O35	O	1.372324	0.783993	0.719603
O36	O	1.622324	1.033993	0.969603
O37	O	0.787683	0.135005	0.283872
O38	O	1.037683	0.385005	0.533872
O39	O	1.287683	0.635005	0.783872
O40	O	1.537683	0.885005	1.033872
O41	O	0.723379	0.219774	0.134874
O42	O	0.973379	0.469774	0.384874
O43	O	1.223379	0.719774	0.634874
O44	O	1.473379	0.969774	0.884874
O45	O	0.638629	0.219767	0.219644
O46	O	0.888629	0.469767	0.469644
O47	O	1.138629	0.719767	0.719644
O48	O	1.388629	0.969767	0.969644
O49	O	0.723360	0.283980	0.368601
O50	O	0.973360	0.533980	0.618601
O51	O	1.223360	0.783980	0.868601
O52	O	1.473360	1.033980	1.118601
O53	O	0.638589	0.283984	0.283849
O54	O	0.888589	0.533984	0.533849
O55	O	1.138589	0.783984	0.783849
O56	O	1.388589	1.033984	1.033849
O57	O	0.787630	0.219760	0.368611
O58	O	1.037630	0.469760	0.618611
O59	O	1.287630	0.719760	0.868611
O60	O	1.537630	0.969760	1.118611
O61	O	0.787499	0.368752	0.219590
O62	O	1.037499	0.618752	0.469590
O63	O	1.287499	0.868752	0.719590
O64	O	1.537499	1.118752	0.969590
O65	O	0.723286	0.368747	0.283818
O66	O	0.973286	0.618747	0.533818
O67	O	1.223286	0.868747	0.783818
O68	O	1.473286	1.118747	1.033818
C69	C	0.755392	0.387721	0.251710
C70	C	1.005392	0.637721	0.501710
C71	C	1.255392	0.887721	0.751710
C72	C	1.505392	1.137721	1.001710
C73	C	0.755403	0.445835	0.251718
C74	C	1.005403	0.695835	0.501718
C75	C	1.255403	0.945835	0.751718
C76	C	1.505403	1.195835	1.001718
C77	C	0.619638	0.251876	0.251749
C78	C	0.869638	0.501876	0.501749
C79	C	1.119638	0.751876	0.751749
C80	C	1.369638	1.001876	1.001749
C81	C	0.561524	0.251887	0.251768
C82	C	0.811524	0.501887	0.501768
C83	C	1.061524	0.751887	0.751768
C84	C	1.311524	1.001887	1.001768
C85	C	0.891853	0.251881	0.251720
C86	C	1.141853	0.501881	0.501720
C87	C	1.391853	0.751881	0.751720
C88	C	1.641853	1.001881	1.001720
C89	C	0.949967	0.251882	0.251714
C90	C	1.199967	0.501882	0.501714
C91	C	1.449967	0.751882	0.751714
C92	C	1.699967	1.001882	1.001714
C93	C	1.310365	0.218449	0.285200
C94	C	1.560365	0.468449	0.535200
C95	C	1.810365	0.718449	0.785200
C96	C	2.060365	0.968449	1.035200
C97	C	1.364970	0.218451	0.285205
C98	C	1.614970	0.468451	0.535205
C99	C	1.864970	0.718451	0.785205
C100	C	2.114970	0.968451	1.035205
O101	O	1.393236	0.190027	0.313663
O102	O	1.643236	0.440027	0.563663
O103	O	1.893236	0.690027	0.813663
O104	O	2.143236	0.940027	1.063663
N105	N	1.392250	0.251888	0.251760
N106	N	1.642250	0.501888	0.501760
N107	N	1.892250	0.751888	0.751760
N108	N	2.142250	1.001888	1.001760
C109	C	1.364923	0.285331	0.218312
C110	C	1.614923	0.535331	0.468312
C111	C	1.864923	0.785331	0.718312
C112	C	2.114923	1.035331	0.968312
O113	O	1.393141	0.313773	0.189865
O114	O	1.643141	0.563773	0.439865
O115	O	1.893141	0.813773	0.689865
O116	O	2.143141	1.063773	0.939865
C117	C	1.310320	0.285331	0.218310
C118	C	1.560320	0.535331	0.468310
C119	C	1.810320	0.785331	0.718310
C120	C	2.060320	1.035331	0.968310
C121	C	1.283042	0.251888	0.251753
C122	C	1.533042	0.501888	0.501753
C123	C	1.783042	0.751888	0.751753
C124	C	2.033042	1.001888	1.001753
C125	C	1.283088	0.185009	0.318641
C126	C	1.533088	0.435009	0.568641
C127	C	1.783088	0.685009	0.818641
C128	C	2.033088	0.935009	1.068641
C129	C	1.228487	0.185007	0.318635
C130	C	1.478487	0.435007	0.568635
C131	C	1.728487	0.685007	0.818635
C132	C	1.978487	0.935007	1.068635
C133	C	1.201164	0.218445	0.285189
C134	C	1.451164	0.468445	0.535189
C135	C	1.701164	0.718445	0.785189
C136	C	1.951164	0.968445	1.035189
C137	C	1.228442	0.251886	0.251747
C138	C	1.478442	0.501886	0.501747
C139	C	1.728442	0.751886	0.751747
C140	C	1.978442	1.001886	1.001747
C141	C	1.282994	0.318776	0.184865
C142	C	1.532994	0.568776	0.434865
C143	C	1.782994	0.818776	0.684865
C144	C	2.032994	1.068776	0.934865
C145	C	1.228387	0.318774	0.184866
C146	C	1.478387	0.568774	0.434866
C147	C	1.728387	0.818774	0.684866
C148	C	1.978387	1.068774	0.934866
C149	C	1.201109	0.285330	0.218309
C150	C	1.451109	0.535330	0.468309
C151	C	1.701109	0.785330	0.718309
C152	C	1.951109	1.035330	0.968309
C153	C	1.146518	0.285322	0.218295
C154	C	1.396518	0.535322	0.468295
C155	C	1.646518	0.785322	0.718295
C156	C	1.896518	1.035322	0.968295
N157	N	1.119238	0.251884	0.251739
N158	N	1.369238	0.501884	0.501739
N159	N	1.619238	0.751884	0.751739
N160	N	1.869238	1.001884	1.001739
C161	C	1.146561	0.218446	0.285186
C162	C	1.396561	0.468446	0.535186
C163	C	1.646561	0.718446	0.785186
C164	C	1.896561	0.968446	1.035186
C165	C	1.479594	0.285327	0.218319
C166	C	1.729594	0.535327	0.468319
C167	C	1.979594	0.785327	0.718319
C168	C	2.229594	1.035327	0.968319
C169	C	1.534196	0.285324	0.218318
C170	C	1.784196	0.535324	0.468318
C171	C	2.034196	0.785324	0.718318
C172	C	2.284196	1.035324	0.968318
C173	C	1.534239	0.218445	0.285213
C174	C	1.784239	0.468445	0.535213
C175	C	2.034239	0.718445	0.785213
C176	C	2.284239	0.968445	1.035213
C177	C	1.479636	0.218445	0.285211
C178	C	1.729636	0.468445	0.535211
C179	C	1.979636	0.718445	0.785211
C180	C	2.229636	0.968445	1.035211
C181	C	1.452313	0.251889	0.251764
C182	C	1.702313	0.501889	0.501764
C183	C	1.952313	0.751889	0.751764
C184	C	2.202313	1.001889	1.001764
C185	C	1.031896	0.218444	0.285171
C186	C	1.281896	0.468444	0.535171
C187	C	1.531896	0.718444	0.785171
C188	C	1.781896	0.968444	1.035171
C189	C	0.977290	0.218443	0.285161
C190	C	1.227290	0.468443	0.535161
C191	C	1.477290	0.718443	0.785161
C192	C	1.727290	0.968443	1.035161
C193	C	0.977252	0.285324	0.218269
C194	C	1.227252	0.535324	0.468269
C195	C	1.477252	0.785324	0.718269
C196	C	1.727252	1.035324	0.968269
C197	C	1.031853	0.285323	0.218277
C198	C	1.281853	0.535323	0.468277
C199	C	1.531853	0.785323	0.718277
C200	C	1.781853	1.035323	0.968277
C201	C	1.059173	0.251881	0.251732
C202	C	1.309173	0.501881	0.501732
C203	C	1.559173	0.751881	0.751732
C204	C	1.809173	1.001881	1.001732
O205	O	1.118217	0.313733	0.189853
O206	O	1.368217	0.563733	0.439853
O207	O	1.618217	0.813733	0.689853
O208	O	1.868217	1.063733	0.939853
O209	O	1.118336	0.190014	0.313633
O210	O	1.368336	0.440014	0.563633
O211	O	1.618336	0.690014	0.813633
O212	O	1.868336	0.940014	1.063633
C213	C	0.755497	0.251869	0.388107
C214	C	1.005497	0.501869	0.638107
C215	C	1.255497	0.751869	0.888107
C216	C	1.505497	1.001869	1.138107
C217	C	0.755504	0.251865	0.446221
C218	C	1.005504	0.501865	0.696221
C219	C	1.255504	0.751865	0.946221
C220	C	1.505504	1.001865	1.196221
C221	C	0.755583	0.115505	0.251770
C222	C	1.005583	0.365505	0.501770
C223	C	1.255583	0.615505	0.751770
C224	C	1.505583	0.865505	1.001770
C225	C	0.755627	0.057391	0.251785
C226	C	1.005627	0.307391	0.501785
C227	C	1.255627	0.557391	0.751785
C228	C	1.505627	0.807391	1.001785
C229	C	0.789004	0.806188	0.218347
C230	C	1.039004	1.056188	0.468347
C231	C	1.289004	1.306188	0.718347
C232	C	1.539004	1.556188	0.968347
C233	C	0.789024	0.860792	0.218354
C234	C	1.039024	1.110792	0.468354
C235	C	1.289024	1.360792	0.718354
C236	C	1.539024	1.610792	0.968354
O237	O	0.817502	0.889021	0.189956
O238	O	1.067502	1.139021	0.439956
O239	O	1.317502	1.389021	0.689956
O240	O	1.567502	1.639021	0.939956
N241	N	0.755572	0.888117	0.251769
N242	N	1.005572	1.138117	0.501769
N243	N	1.255572	1.388117	0.751769
N244	N	1.505572	1.638117	1.001769
C245	C	0.722102	0.860835	0.285182
C246	C	0.972102	1.110835	0.535182
C247	C	1.222102	1.360835	0.785182
C248	C	1.472102	1.610835	1.035182
O249	O	0.693651	0.889090	0.313605
O250	O	0.943651	1.139090	0.563605
O251	O	1.193651	1.389090	0.813605
O252	O	1.443651	1.639090	1.063605
C253	C	0.722085	0.806231	0.285178
C254	C	0.972085	1.056231	0.535178
C255	C	1.222085	1.306231	0.785178
C256	C	1.472085	1.556231	1.035178
C257	C	0.755535	0.778909	0.251757
C258	C	1.005535	1.028909	0.501757
C259	C	1.255535	1.278909	0.751757
C260	C	1.505535	1.528909	1.001757
C261	C	0.822452	0.778866	0.184930
C262	C	1.072452	1.028866	0.434930
C263	C	1.322452	1.278866	0.684930
C264	C	1.572452	1.528866	0.934930
C265	C	0.822431	0.724265	0.184923
C266	C	1.072431	0.974265	0.434923
C267	C	1.322431	1.224265	0.684923
C268	C	1.572431	1.474265	0.934923
C269	C	0.788962	0.696987	0.218332
C270	C	1.038962	0.946987	0.468332
C271	C	1.288962	1.196987	0.718332
C272	C	1.538962	1.446987	0.968332
C273	C	0.755514	0.724309	0.251750
C274	C	1.005514	0.974309	0.501750
C275	C	1.255514	1.224309	0.751750
C276	C	1.505514	1.474309	1.001750
C277	C	0.688617	0.778950	0.318593
C278	C	0.938617	1.028950	0.568593
C279	C	1.188617	1.278950	0.818593
C280	C	1.438617	1.528950	1.068593
C281	C	0.688603	0.724343	0.318586
C282	C	0.938603	0.974343	0.568586
C283	C	1.188603	1.224343	0.818586
C284	C	1.438603	1.474343	1.068586
C285	C	0.722053	0.697021	0.285166
C286	C	0.972053	0.947021	0.535166
C287	C	1.222053	1.197021	0.785166
C288	C	1.472053	1.447021	1.035166
C289	C	0.722024	0.642430	0.285152
C290	C	0.972024	0.892430	0.535152
C291	C	1.222024	1.142430	0.785152
C292	C	1.472024	1.392430	1.035152
N293	N	0.755475	0.615105	0.251737
N294	N	1.005475	0.865105	0.501737
N295	N	1.255475	1.115105	0.751737
N296	N	1.505475	1.365105	1.001737
C297	C	0.788944	0.642384	0.218328
C298	C	1.038944	0.892384	0.468328
C299	C	1.288944	1.142384	0.718328
C300	C	1.538944	1.392384	0.968328
C301	C	0.722141	0.975505	0.285191
C302	C	0.972141	1.225505	0.535191
C303	C	1.222141	1.475505	0.785191
C304	C	1.472141	1.725505	1.035191
C305	C	0.722155	1.030107	0.285193
C306	C	0.972155	1.280107	0.535193
C307	C	1.222155	1.530107	0.785193
C308	C	1.472155	1.780107	1.035193
C309	C	0.789078	1.030061	0.218366
C310	C	1.039078	1.280061	0.468366
C311	C	1.289078	1.530061	0.718366
C312	C	1.539078	1.780061	0.968366
C313	C	0.789061	0.975458	0.218361
C314	C	1.039061	1.225458	0.468361
C315	C	1.289061	1.475458	0.718361
C316	C	1.539061	1.725458	0.968361
C317	C	0.755593	0.948180	0.251776
C318	C	1.005593	1.198180	0.501776
C319	C	1.255593	1.448180	0.751776
C320	C	1.505593	1.698180	1.001776
C321	C	0.788897	0.527719	0.218314
C322	C	1.038897	0.777719	0.468314
C323	C	1.288897	1.027719	0.718314
C324	C	1.538897	1.277719	0.968314
C325	C	0.788872	0.473113	0.218308
C326	C	1.038872	0.723113	0.468308
C327	C	1.288872	0.973113	0.718308
C328	C	1.538872	1.223113	0.968308
C329	C	0.721951	0.473164	0.285137
C330	C	0.971951	0.723164	0.535137
C331	C	1.221951	0.973164	0.785137
C332	C	1.471951	1.223164	1.035137
C333	C	0.721974	0.527765	0.285141
C334	C	0.971974	0.777765	0.535141
C335	C	1.221974	1.027765	0.785141
C336	C	1.471974	1.277765	1.035141
C337	C	0.755452	0.555041	0.251728
C338	C	1.005452	0.805041	0.501728
C339	C	1.255452	1.055041	0.751728
C340	C	1.505452	1.305041	1.001728
O341	O	0.693562	0.614167	0.313538
O342	O	0.943562	0.864167	0.563538
O343	O	1.193562	1.114167	0.813538
O344	O	1.443562	1.364167	1.063538
O345	O	0.817396	0.614121	0.189915
O346	O	1.067396	0.864121	0.439915
O347	O	1.317396	1.114121	0.689915
O348	O	1.567396	1.364121	0.939915
C349	C	0.755494	0.251849	0.115892
C350	C	1.005494	0.501849	0.365892
C351	C	1.255494	0.751849	0.615892
C352	C	1.505494	1.001849	0.865892
C353	C	0.755588	0.251706	0.057778
C354	C	1.005588	0.501706	0.307778
C355	C	1.255588	0.751706	0.557778
C356	C	1.505588	1.001706	0.807778
C357	C	0.789012	0.218326	0.806595
C358	C	1.039012	0.468326	1.056595
C359	C	1.289012	0.718326	1.306595
C360	C	1.539012	0.968326	1.556595
C361	C	0.789019	0.218311	0.861200
C362	C	1.039019	0.468311	1.111200
C363	C	1.289019	0.718311	1.361200
C364	C	1.539019	0.968311	1.611200
O365	O	0.817466	0.189857	0.889446
O366	O	1.067466	0.439857	1.139446
O367	O	1.317466	0.689857	1.389446
O368	O	1.567466	0.939857	1.639446
N369	N	0.755562	0.251742	0.888504
N370	N	1.005562	0.501742	1.138504
N371	N	1.255562	0.751742	1.388504
N372	N	1.505562	1.001742	1.638504
C373	C	0.722093	0.285186	0.861201
C374	C	0.972093	0.535186	1.111201
C375	C	1.222093	0.785186	1.361201
C376	C	1.472093	1.035186	1.611201
O377	O	0.693636	0.313620	0.889440
O378	O	0.943636	0.563620	1.139440
O379	O	1.193636	0.813620	1.389440
O380	O	1.443636	1.063620	1.639440
C381	C	0.722084	0.285197	0.806598
C382	C	0.972084	0.535197	1.056598
C383	C	1.222084	0.785197	1.306598
C384	C	1.472084	1.035197	1.556598
C385	C	0.755547	0.251768	0.779296
C386	C	1.005547	0.501768	1.029296
C387	C	1.255547	0.751768	1.279296
C388	C	1.505547	1.001768	1.529296
C389	C	0.822472	0.184899	0.779294
C390	C	1.072472	0.434899	1.029294
C391	C	1.322472	0.684899	1.279294
C392	C	1.572472	0.934899	1.529294
C393	C	0.822466	0.184914	0.724693
C394	C	1.072466	0.434914	0.974693
C395	C	1.322466	0.684914	1.224693
C396	C	1.572466	0.934914	1.474693
C397	C	0.789000	0.218356	0.697394
C398	C	1.039000	0.468356	0.947394
C399	C	1.289000	0.718356	1.197394
C400	C	1.539000	0.968356	1.447394
C401	C	0.755541	0.251783	0.724696
C402	C	1.005541	0.501783	0.974696
C403	C	1.255541	0.751783	1.224696
C404	C	1.505541	1.001783	1.474696
C405	C	0.688613	0.318638	0.779296
C406	C	0.938613	0.568638	1.029296
C407	C	1.188613	0.818638	1.279296
C408	C	1.438613	1.068638	1.529296
C409	C	0.688607	0.318647	0.724689
C410	C	0.938607	0.568647	0.974689
C411	C	1.188607	0.818647	1.224689
C412	C	1.438607	1.068647	1.474689
C413	C	0.722069	0.285217	0.697388
C414	C	0.972069	0.535217	0.947388
C415	C	1.222069	0.785217	1.197388
C416	C	1.472069	1.035217	1.447388
C417	C	0.722070	0.285241	0.642796
C418	C	0.972070	0.535241	0.892796
C419	C	1.222070	0.785241	1.142796
C420	C	1.472070	1.035241	1.392796
N421	N	0.755526	0.251810	0.615492
N422	N	1.005526	0.501810	0.865492
N423	N	1.255526	0.751810	1.115492
N424	N	1.505526	1.001810	1.365492
C425	C	0.788992	0.218368	0.642791
C426	C	1.038992	0.468368	0.892791
C427	C	1.288992	0.718368	1.142791
C428	C	1.538992	0.968368	1.392791
C429	C	0.722113	0.285159	0.975872
C430	C	0.972113	0.535159	1.225872
C431	C	1.222113	0.785159	1.475872
C432	C	1.472113	1.035159	1.725872
C433	C	0.722124	0.285150	1.030474
C434	C	0.972124	0.535150	1.280474
C435	C	1.222124	0.785150	1.530474
C436	C	1.472124	1.035150	1.780474
C437	C	0.789049	0.218275	1.030469
C438	C	1.039049	0.468275	1.280469
C439	C	1.289049	0.718275	1.530469
C440	C	1.539049	0.968275	1.780469
C441	C	0.789041	0.218286	0.975866
C442	C	1.039041	0.468286	1.225866
C443	C	1.289041	0.718286	1.475866
C444	C	1.539041	0.968286	1.725866
C445	C	0.755570	0.251728	0.948568
C446	C	1.005570	0.501728	1.198568
C447	C	1.255570	0.751728	1.448568
C448	C	1.505570	1.001728	1.698568
C449	C	0.788977	0.218403	0.528126
C450	C	1.038977	0.468403	0.778126
C451	C	1.288977	0.718403	1.028126
C452	C	1.538977	0.968403	1.278126
C453	C	0.788970	0.218423	0.473520
C454	C	1.038970	0.468423	0.723520
C455	C	1.288970	0.718423	0.973520
C456	C	1.538970	0.968423	1.223520
C457	C	0.722043	0.285296	0.473531
C458	C	0.972043	0.535296	0.723531
C459	C	1.222043	0.785296	0.973531
C460	C	1.472043	1.035296	1.223531
C461	C	0.722052	0.285278	0.528131
C462	C	0.972052	0.535278	0.778131
C463	C	1.222052	0.785278	1.028131
C464	C	1.472052	1.035278	1.278131
C465	C	0.755521	0.251827	0.555427
C466	C	1.005521	0.501827	0.805427
C467	C	1.255521	0.751827	1.055427
C468	C	1.505521	1.001827	1.305427
O469	O	0.693635	0.313679	0.614516
O470	O	0.943635	0.563679	0.864516
O471	O	1.193635	0.813679	1.114516
O472	O	1.443635	1.063679	1.364516
O473	O	0.817439	0.189934	0.614546
O474	O	1.067439	0.439934	0.864546
O475	O	1.317439	0.689934	1.114546
O476	O	1.567439	0.939934	1.364546
H477	H	0.955084	0.191207	0.312394
H478	H	1.205084	0.441207	0.562394
H479	H	1.455084	0.691207	0.812394
H480	H	1.705084	0.941207	1.062394
Cl481	Cl	0.942893	0.327359	0.176223
Cl482	Cl	1.192893	0.577359	0.426223
Cl483	Cl	1.442893	0.827359	0.676223
Cl484	Cl	1.692893	1.077359	0.926223
Cl485	Cl	1.445251	0.327369	0.176262
Cl486	Cl	1.695251	0.577369	0.426262
Cl487	Cl	1.945251	0.827369	0.676262
Cl488	Cl	2.195251	1.077369	0.926262
Cl489	Cl	1.317272	0.360814	0.142811
Cl490	Cl	1.567272	0.610814	0.392811
Cl491	Cl	1.817272	0.860814	0.642811
Cl492	Cl	2.067272	1.110814	0.892811
H493	H	1.457430	0.191212	0.312443
H494	H	1.707430	0.441212	0.562443
H495	H	1.957430	0.691212	0.812443
H496	H	2.207430	0.941212	1.062443
H497	H	1.556495	0.191217	0.312447
H498	H	1.806495	0.441217	0.562447
H499	H	2.056495	0.691217	0.812447
H500	H	2.306495	0.941217	1.062447
Cl501	Cl	0.679973	0.327334	0.439202
Cl502	Cl	0.929973	0.577334	0.689202
Cl503	Cl	1.179973	0.827334	0.939202
Cl504	Cl	1.429973	1.077334	1.189202
Cl505	Cl	1.194042	0.360824	0.142819
Cl506	Cl	1.444042	0.610824	0.392819
Cl507	Cl	1.694042	0.860824	0.642819
Cl508	Cl	1.944042	1.110824	0.892819
H509	H	1.054134	0.191212	0.312414
H510	H	1.304134	0.441212	0.562414
H511	H	1.554134	0.691212	0.812414
H512	H	1.804134	0.941212	1.062414
H513	H	1.305329	0.157778	0.345881
H514	H	1.555329	0.407778	0.595881
H515	H	1.805329	0.657778	0.845881
H516	H	2.055329	0.907778	1.095881
H517	H	1.556401	0.312552	0.191080
H518	H	1.806401	0.562552	0.441080
H519	H	2.056401	0.812552	0.691080
H520	H	2.306401	1.062552	0.941080
H521	H	0.694699	0.450945	0.312337
H522	H	0.944699	0.700945	0.562337
H523	H	1.194699	0.950945	0.812337
H524	H	1.444699	1.200945	1.062337
H525	H	0.816221	0.191200	0.451294
H526	H	1.066221	0.441200	0.701294
H527	H	1.316221	0.691200	0.951294
H528	H	1.566221	0.941200	1.201294
H529	H	1.206283	0.157775	0.345871
H530	H	1.456283	0.407775	0.595871
H531	H	1.706283	0.657775	0.845871
H532	H	1.956283	0.907775	1.095871
H533	H	0.849714	0.157691	0.702469
H534	H	1.099714	0.407691	0.952469
H535	H	1.349714	0.657691	1.202469
H536	H	1.599714	0.907691	1.452469
H537	H	1.054063	0.312551	0.191040
H538	H	1.304063	0.562551	0.441040
H539	H	1.554063	0.812551	0.691040
H540	H	1.804063	1.062551	0.941040
H541	H	0.816159	0.549920	0.191107
H542	H	1.066159	0.799920	0.441107
H543	H	1.316159	1.049920	0.691107
H544	H	1.566159	1.299920	0.941107
H545	H	0.816111	0.450869	0.191091
H546	H	1.066111	0.700869	0.441091
H547	H	1.316111	0.950869	0.691091
H548	H	1.566111	1.200869	0.941091
Cl549	Cl	0.831108	0.176258	0.941550
Cl550	Cl	1.081108	0.426258	1.191550
Cl551	Cl	1.331108	0.676258	1.441550
Cl552	Cl	1.581108	0.926258	1.691550
Cl553	Cl	0.864555	0.142858	0.813603
Cl554	Cl	1.114555	0.392858	1.063603
Cl555	Cl	1.364555	0.642858	1.313603
Cl556	Cl	1.614555	0.892858	1.563603
Cl557	Cl	0.864493	0.689926	0.142914
Cl558	Cl	1.114493	0.939926	0.392914
Cl559	Cl	1.364493	1.189926	0.642914
Cl560	Cl	1.614493	1.439926	0.892914
H561	H	0.849709	0.801070	0.157724
H562	H	1.099709	1.051070	0.407724
H563	H	1.349709	1.301070	0.657724
H564	H	1.599709	1.551070	0.907724
H565	H	0.816300	0.953216	0.191147
H566	H	1.066300	1.203216	0.441147
H567	H	1.316300	1.453216	0.691147
H568	H	1.566300	1.703216	0.941147
H569	H	0.816298	0.191043	1.052706
H570	H	1.066298	0.441043	1.302706
H571	H	1.316298	0.691043	1.552706
H572	H	1.566298	0.941043	1.802706
Cl573	Cl	0.831153	1.064365	0.176363
Cl574	Cl	1.081153	1.314365	0.426363
Cl575	Cl	1.331153	1.564365	0.676363
Cl576	Cl	1.581153	1.814365	0.926363
Cl577	Cl	0.680096	1.064448	0.327203
Cl578	Cl	0.930096	1.314448	0.577203
Cl579	Cl	1.180096	1.564448	0.827203
Cl580	Cl	1.430096	1.814448	1.077203
H581	H	0.694857	0.312394	0.953649
H582	H	0.944857	0.562394	1.203649
H583	H	1.194857	0.812394	1.453649
H584	H	1.444857	1.062394	1.703649
H585	H	0.694883	0.953298	0.312400
H586	H	0.944883	1.203298	0.562400
H587	H	1.194883	1.453298	0.812400
H588	H	1.444883	1.703298	1.062400
Cl589	Cl	0.680063	0.327186	1.064789
Cl590	Cl	0.930063	0.577186	1.314789
Cl591	Cl	1.180063	0.827186	1.564789
Cl592	Cl	1.430063	1.077186	1.814789
H593	H	0.661376	0.801186	0.345806
H594	H	0.911376	1.051186	0.595806
H595	H	1.161376	1.301186	0.845806
H596	H	1.411376	1.551186	1.095806
H597	H	0.661350	0.702136	0.345799
H598	H	0.911350	0.952136	0.595799
H599	H	1.161350	1.202136	0.845799
H600	H	1.411350	1.452136	1.095799
Cl601	Cl	0.679911	0.562113	0.327145
Cl602	Cl	0.929911	0.812113	0.577145
Cl603	Cl	1.179911	1.062113	0.827145
Cl604	Cl	1.429911	1.312113	1.077145
Cl605	Cl	0.831051	0.176348	0.562433
Cl606	Cl	1.081051	0.426348	0.812433
Cl607	Cl	1.331051	0.676348	1.062433
Cl608	Cl	1.581051	0.926348	1.312433
Cl609	Cl	0.646544	0.360668	0.813605
Cl610	Cl	0.896544	0.610668	1.063605
Cl611	Cl	1.146544	0.860668	1.313605
Cl612	Cl	1.396544	1.110668	1.563605
Cl613	Cl	0.679987	0.327307	0.562454
Cl614	Cl	0.929987	0.577307	0.812454
Cl615	Cl	1.179987	0.827307	1.062454
Cl616	Cl	1.429987	1.077307	1.312454
Cl617	Cl	0.646526	0.360690	0.690375
Cl618	Cl	0.896526	0.610690	0.940375
Cl619	Cl	1.146526	0.860690	1.190375
Cl620	Cl	1.396526	1.110690	1.440375
