data_functionalizedCrystal
_audit_creation_method	'MofGen! by Chris Wilmer'
_symmetry_space_group_name_H-M	'P1'
_symmetry_Int_Tables_number	1
_symmetry_cell_setting	triclinic
loop_
_symmetry_equiv_pos_as_xyz
  x,y,z
_cell_length_a	9.065218
_cell_length_b	9.065218
_cell_length_c	22.610064
_cell_angle_alpha	90.003700
_cell_angle_beta	90.015297
_cell_angle_gamma	94.984115
loop_
_atom_site_label
_atom_site_type_symbol
_atom_site_fract_x
_atom_site_fract_y
_atom_site_fract_z
O1	O	1.960424	-0.216341	0.049198
O2	O	2.293757	0.116993	0.382532
O3	O	2.627090	0.450326	0.715865
O4	O	1.531139	-0.234087	0.049196
O5	O	1.864472	0.099246	0.382529
O6	O	2.197805	0.432579	0.715862
O7	O	1.754654	-0.010572	0.049196
O8	O	2.087988	0.322762	0.382529
O9	O	2.421321	0.656095	0.715863
O10	O	1.736908	-0.439856	0.049198
O11	O	2.070241	-0.106523	0.382532
O12	O	2.403575	0.226810	0.715865
O13	O	1.754591	-0.010596	-0.049173
O14	O	2.087924	0.322737	0.284160
O15	O	2.421257	0.656070	0.617493
O16	O	1.531075	-0.234112	-0.049173
O17	O	1.864408	0.099221	0.284160
O18	O	2.197742	0.432555	0.617493
O19	O	1.960360	-0.216366	-0.049171
O20	O	2.293693	0.116968	0.284163
O21	O	2.627027	0.450301	0.617496
Zn22	Zn	1.745707	-0.225243	-0.064790
Zn23	Zn	2.079041	0.108091	0.268543
Zn24	Zn	2.412374	0.441424	0.601876
Zn25	Zn	1.745791	-0.225210	0.064815
Zn26	Zn	2.079125	0.108123	0.398149
Zn27	Zn	2.412458	0.441457	0.731482
O28	O	1.736844	-0.439881	-0.049171
O29	O	2.070178	-0.106548	0.284162
O30	O	2.403511	0.226785	0.617496
C31	C	1.476120	-0.232394	0.000011
C32	C	1.809454	0.100939	0.333344
C33	C	2.142787	0.434273	0.666678
C34	C	1.312277	-0.227294	0.000010
C35	C	1.645611	0.106039	0.333343
C36	C	1.978944	0.439372	0.666677
N37	N	1.745661	-0.225264	-0.153243
N38	N	2.078994	0.108069	0.180091
N39	N	2.412327	0.441402	0.513424
C40	C	1.752917	0.044403	0.000012
C41	C	2.086250	0.377736	0.333346
C42	C	2.419584	0.711069	0.666679
C43	C	1.747817	0.208245	0.000015
C44	C	2.081151	0.541579	0.333348
C45	C	2.414484	0.874912	0.666682
C46	C	2.015378	-0.218059	0.000016
C47	C	2.348712	0.115275	0.333349
C48	C	2.682045	0.448608	0.666682
C49	C	2.179221	-0.223158	0.000020
C50	C	2.512555	0.110175	0.333354
C51	C	2.845888	0.443508	0.666687
C52	C	1.738582	-0.494855	0.000014
C53	C	2.071915	-0.161522	0.333347
C54	C	2.405248	0.171811	0.666681
C55	C	1.743681	-0.658698	0.000015
C56	C	2.077015	-0.325365	0.333348
C57	C	2.410348	0.007968	0.666682
C58	C	1.655070	-0.134458	-0.438085
C59	C	1.988403	0.198876	-0.104752
C60	C	2.321737	0.532209	0.228582
C61	C	1.655056	-0.134465	-0.376165
C62	C	1.988389	0.198869	-0.042832
C63	C	2.321723	0.532202	0.290502
O64	O	1.577972	-0.057262	-0.344142
O65	O	1.911305	0.276072	-0.010808
O66	O	2.244638	0.609405	0.322525
N67	N	1.745722	-0.225218	-0.345195
N68	N	2.079055	0.108115	-0.011862
N69	N	2.412388	0.441449	0.321472
C70	C	1.836418	-0.315959	-0.376148
C71	C	2.169751	0.017374	-0.042815
C72	C	2.503085	0.350707	0.290519
O73	O	1.913536	-0.393152	-0.344120
O74	O	2.246869	-0.059818	-0.010786
O75	O	2.580202	0.273515	0.322547
C76	C	1.836439	-0.315944	-0.438067
C77	C	2.169772	0.017390	-0.104733
C78	C	2.503105	0.350723	0.228600
C79	C	1.745756	-0.225195	-0.469034
C80	C	2.079090	0.108138	-0.135700
C81	C	2.412423	0.441471	0.197633
C82	C	1.564396	-0.043716	-0.469052
C83	C	1.897730	0.289618	-0.135719
C84	C	2.231063	0.622951	0.197615
C85	C	1.564409	-0.043711	-0.530968
C86	C	1.897742	0.289622	-0.197634
C87	C	2.231075	0.622955	0.135699
C88	C	1.655095	-0.134449	-0.561916
C89	C	1.988428	0.198885	-0.228583
C90	C	2.321761	0.532218	0.104750
C91	C	1.745769	-0.225191	-0.530949
C92	C	2.079102	0.108142	-0.197616
C93	C	2.412435	0.441476	0.135717
C94	C	1.927142	-0.406676	-0.469019
C95	C	2.260475	-0.073343	-0.135685
C96	C	2.593809	0.259991	0.197648
C97	C	1.927156	-0.406652	-0.530942
C98	C	2.260489	-0.073318	-0.197608
C99	C	2.593822	0.260015	0.135725
C100	C	1.836473	-0.315903	-0.561909
C101	C	2.169807	0.017430	-0.228575
C102	C	2.503140	0.350763	0.104758
C103	C	1.836467	-0.315924	-0.623814
C104	C	2.169800	0.017409	-0.290480
C105	C	2.503134	0.350743	0.042853
N106	N	1.745802	-0.225171	-0.654784
N107	N	2.079135	0.108163	-0.321450
N108	N	2.412468	0.441496	0.011883
C109	C	1.655115	-0.134433	-0.623835
C110	C	1.988449	0.198900	-0.290502
C111	C	2.321782	0.532234	0.042832
C112	C	1.836369	-0.315984	-0.246114
C113	C	2.169703	0.017350	0.087219
C114	C	2.503036	0.350683	0.420552
C115	C	1.836342	-0.316008	-0.184197
C116	C	2.169675	0.017325	0.149137
C117	C	2.503009	0.350658	0.482470
C118	C	1.654982	-0.134511	-0.184218
C119	C	1.988315	0.198822	0.149115
C120	C	2.321648	0.532155	0.482448
C121	C	1.655002	-0.134495	-0.246137
C122	C	1.988336	0.198838	0.087196
C123	C	2.321669	0.532171	0.420530
C124	C	1.745704	-0.225230	-0.277085
C125	C	2.079037	0.108103	0.056249
C126	C	2.412371	0.441436	0.389582
C127	C	1.655147	-0.134431	-0.753862
C128	C	1.988481	0.198902	-0.420529
C129	C	2.321814	0.532235	-0.087196
C130	C	1.655163	-0.134439	-0.815784
C131	C	1.988496	0.198894	-0.482450
C132	C	2.321830	0.532227	-0.149117
C133	C	1.836528	-0.315930	-0.815757
C134	C	2.169862	0.017403	-0.482423
C135	C	2.503195	0.350737	-0.149090
C136	C	1.836508	-0.315928	-0.753841
C137	C	2.169841	0.017405	-0.420508
C138	C	2.503174	0.350738	-0.087174
C139	C	1.745813	-0.225167	-0.722895
C140	C	2.079146	0.108166	-0.389562
C141	C	2.412479	0.441499	-0.056229
O142	O	1.913517	-0.393083	-0.655877
O143	O	2.246850	-0.059750	-0.322543
O144	O	2.580183	0.273583	0.010790
O145	O	1.578025	-0.057239	-0.655871
O146	O	1.911358	0.276094	-0.322538
O147	O	2.244692	0.609427	0.010796
N148	N	1.745849	-0.225177	0.153268
N149	N	2.079183	0.108156	0.486601
N150	N	2.412516	0.441490	0.819934
H151	H	1.581312	-0.060541	-0.840994
H152	H	1.914645	0.272792	-0.507661
H153	H	2.247979	0.606125	-0.174327
Br154	Br	2.050180	-0.529882	-0.427008
Br155	Br	2.383513	-0.196549	-0.093674
Br156	Br	2.716847	0.136785	0.239659
H157	H	1.910167	-0.389922	-0.158989
H158	H	2.243500	-0.056589	0.174345
H159	H	2.576834	0.276744	0.507678
Br160	Br	1.531930	-0.011333	-0.288157
Br161	Br	1.865263	0.322001	0.045176
Br162	Br	2.198597	0.655334	0.378510
H163	H	1.490571	0.030191	-0.556176
H164	H	1.823904	0.363524	-0.222842
H165	H	2.157238	0.696857	0.110491
Br166	Br	1.959596	-0.439068	-0.711813
Br167	Br	2.292929	-0.105735	-0.378480
Br168	Br	2.626263	0.227598	-0.045146
H169	H	1.910359	-0.389810	-0.840966
H170	H	2.243693	-0.056477	-0.507633
H171	H	2.577026	0.276857	-0.174300
H172	H	2.001020	-0.480539	-0.556136
H173	H	2.334353	-0.147205	-0.222803
H174	H	2.667686	0.186128	0.110531
H175	H	1.490548	0.030181	-0.443860
H176	H	1.823881	0.363515	-0.110527
H177	H	2.157215	0.696848	0.222806
Br178	Br	1.531906	-0.011365	-0.142205
Br179	Br	1.865240	0.321968	0.191129
Br180	Br	2.198573	0.655301	0.524462
Br181	Br	1.532068	-0.011247	-0.711874
Br182	Br	1.865401	0.322086	-0.378541
Br183	Br	2.198735	0.655419	-0.045208
Br184	Br	1.959465	-0.439147	-0.288108
Br185	Br	2.292799	-0.105814	0.045225
Br186	Br	2.626132	0.227520	0.378558
