data_functionalizedCrystal
_audit_creation_method	'MofGen! by Chris Wilmer'
_symmetry_space_group_name_H-M	'P1'
_symmetry_Int_Tables_number	1
_symmetry_cell_setting	triclinic
loop_
_symmetry_equiv_pos_as_xyz
  x,y,z
_cell_length_a	17.077404
_cell_length_b	11.169416
_cell_length_c	17.077396
_cell_angle_alpha	89.976500
_cell_angle_beta	89.982756
_cell_angle_gamma	90.010565
loop_
_atom_site_label
_atom_site_type_symbol
_atom_site_fract_x
_atom_site_fract_y
_atom_site_fract_z
Zn1	Zn	1.200106	-0.477790	-0.443874
Zn2	Zn	1.200047	-0.678505	-0.312622
Zn3	Zn	1.068843	-0.477835	-0.312622
Zn4	Zn	1.068834	-0.678431	-0.443845
O5	O	1.134457	-0.578140	-0.378241
O6	O	1.309945	-0.504427	-0.426475
O7	O	1.182621	-0.651935	-0.202775
O8	O	1.086283	-0.309879	-0.330046
O9	O	1.309901	-0.651892	-0.330045
O10	O	1.182721	-0.309846	-0.426476
O11	O	1.086226	-0.504504	-0.202775
O12	O	0.958995	-0.504432	-0.330017
O13	O	1.086269	-0.651765	-0.553696
O14	O	0.958988	-0.651809	-0.426426
O15	O	1.182713	-0.504356	-0.553718
O16	O	1.182613	-0.846445	-0.330016
O17	O	1.086211	-0.846390	-0.426426
C18	C	0.930509	-0.578118	-0.378219
C19	C	0.843260	-0.578138	-0.378229
C20	C	0.802287	-0.654993	-0.428348
C21	C	0.720306	-0.654995	-0.428361
C22	C	0.679300	-0.578148	-0.378249
C23	C	0.720279	-0.501285	-0.328127
C24	C	0.802258	-0.501277	-0.328119
C25	C	0.549409	-0.501309	-0.328146
C26	C	0.467424	-0.501318	-0.328153
C27	C	0.467457	-0.655027	-0.428388
C28	C	0.549436	-0.655019	-0.428380
C29	C	0.590409	-0.578157	-0.378257
C30	C	1.134426	-0.889965	-0.378235
C31	C	1.134485	-1.023365	-0.378259
C32	C	1.339201	-0.578163	-0.378263
C33	C	1.426451	-0.578172	-0.378273
C34	C	1.134497	-0.578047	-0.582985
C35	C	1.134513	-0.578008	-0.670235
C36	C	1.134510	-0.265098	-0.378264
C37	C	1.134532	-0.131698	-0.378274
C38	C	1.084336	-0.501231	-0.711225
C39	C	1.084349	-0.501204	-0.793206
C40	C	1.134544	-0.577948	-0.834195
C41	C	1.184723	-0.654733	-0.793199
C42	C	1.184706	-0.654765	-0.711220
C43	C	1.184757	-0.654658	-0.964069
C44	C	1.184776	-0.654624	-1.046054
C45	C	1.084400	-0.501096	-1.046055
C46	C	1.084383	-0.501129	-0.964076
C47	C	1.134564	-0.577912	-0.923086
C48	C	1.134463	-0.578146	-0.174293
C49	C	1.134598	-0.577848	-0.087044
H50	H	0.582821	-0.717601	-0.469181
O51	O	0.423273	-0.737923	-0.482458
H52	H	0.359379	-0.725009	-0.474055
H53	H	1.043542	-0.438575	-1.079433
O54	O	0.423175	-0.418449	-0.274110
H55	H	0.438898	-0.324270	-0.287676
O56	O	1.238860	-0.737508	-0.837412
H57	H	1.225370	-0.831707	-0.821674
H58	H	1.225627	-0.717173	-0.930698
H59	H	1.225572	-0.717276	-0.677847
H60	H	0.582766	-0.438709	-0.287338
H61	H	0.835668	-0.717575	-0.469153
O62	O	0.676043	-0.418430	-0.274065
H63	H	0.638696	-0.357446	-0.309256
O64	O	0.846456	-0.418399	-0.274053
H65	H	0.804171	-0.364974	-0.239201
H66	H	1.043486	-0.438689	-0.826576
H67	H	1.225649	-0.717116	-1.079425
H68	H	1.043466	-0.438730	-0.677857
O69	O	0.676111	-0.738117	-0.482267
H70	H	0.718398	-0.791646	-0.517049
H71	H	1.043513	-0.438631	-0.930704
