data_functionalizedCrystal
_audit_creation_method	'MofGen! by Chris Wilmer'
_symmetry_space_group_name_H-M	'P1'
_symmetry_Int_Tables_number	1
_symmetry_cell_setting	triclinic
loop_
_symmetry_equiv_pos_as_xyz
  x,y,z
_cell_length_a	12.759401
_cell_length_b	12.759394
_cell_length_c	12.759393
_cell_angle_alpha	90.030331
_cell_angle_beta	90.018567
_cell_angle_gamma	90.013685
loop_
_atom_site_label
_atom_site_type_symbol
_atom_site_fract_x
_atom_site_fract_y
_atom_site_fract_z
Zn1	Zn	1.606256	-0.418231	0.593992
Zn2	Zn	1.606150	-0.593950	0.418316
Zn3	Zn	1.430558	-0.418283	0.418332
Zn4	Zn	1.430547	-0.593866	0.593957
O5	O	1.518378	-0.506083	0.506149
O6	O	1.753263	-0.441555	0.570697
O7	O	1.582818	-0.570704	0.271297
O8	O	1.453913	-0.271255	0.441654
O9	O	1.753185	-0.570654	0.441628
O10	O	1.582998	-0.271217	0.570712
O11	O	1.453811	-0.441642	0.271308
O12	O	1.283535	-0.441561	0.441620
O13	O	1.453894	-0.570511	0.740983
O14	O	1.283527	-0.570561	0.570652
O15	O	1.582987	-0.441473	0.741009
O16	O	1.582807	-0.740960	0.441594
O17	O	1.453792	-0.740898	0.570637
C18	C	1.245410	-0.506058	0.506135
C19	C	1.128634	-0.506073	0.506153
C20	C	1.073805	-0.438977	0.573464
C21	C	0.964081	-0.438997	0.573470
C22	C	0.964024	-0.573217	0.438854
C23	C	1.073746	-0.573191	0.438843
C24	C	1.128693	-0.371859	0.640774
C25	C	1.073864	-0.304758	0.708091
C26	C	0.964140	-0.304779	0.708097
C27	C	0.909245	-0.371899	0.640788
C28	C	1.518315	-0.779050	0.506133
C29	C	1.518385	-0.895827	0.506162
C30	C	1.652952	-1.115261	0.371933
C31	C	1.720148	-1.060395	0.304790
C32	C	1.720094	-0.950674	0.304770
C33	C	1.652833	-0.895816	0.371897
C34	C	1.585636	-0.950682	0.439040
C35	C	1.585700	-1.060406	0.439055
C36	C	1.451188	-0.950693	0.573304
C37	C	1.451247	-1.060415	0.573332
C38	C	1.383927	-0.895835	0.640432
C39	C	1.316734	-0.950702	0.707581
C40	C	1.316793	-1.060430	0.707600
C41	C	1.384050	-1.115281	0.640475
C42	C	1.792411	-0.506108	0.506165
C43	C	1.909188	-0.506119	0.506171
C44	C	1.518451	-0.505977	0.780183
C45	C	1.518483	-0.505931	0.896960
C46	C	1.518469	-0.232049	0.506188
C47	C	1.518507	-0.115272	0.506205
C48	C	1.518365	-0.506112	0.233182
C49	C	1.518537	-0.505862	0.116406
C50	C	1.585710	-0.438735	0.951837
C51	C	1.585735	-0.438697	1.061561
C52	C	1.451302	-0.573061	1.061521
C53	C	1.451272	-0.573093	0.951799
C54	C	1.652921	-0.371573	0.896997
C55	C	1.720155	-0.304372	0.951874
C56	C	1.720180	-0.304334	1.061599
C57	C	1.652971	-0.371498	1.116446
H58	H	1.774908	-1.105072	0.250134
O59	O	1.251461	-0.897527	0.772929
C60	C	1.274408	-0.924216	0.877667
H61	H	1.314834	-1.003851	0.879898
H62	H	1.328378	-0.862395	0.913076
C63	C	1.122310	-0.831501	0.938493
C64	C	1.171954	-0.929313	0.941234
H65	H	1.059113	-0.834640	0.977707
H66	H	1.106851	-0.813516	0.867930
H67	H	1.167296	-0.779993	0.967999
H68	H	1.126973	-0.980816	0.911717
H69	H	1.187403	-0.947307	1.011794
H70	H	1.774807	-0.906001	0.250092
O71	O	1.251663	-1.113839	0.772877
C72	C	1.311476	-1.177189	0.840819
H73	H	1.391124	-1.193595	0.803837
H74	H	1.322955	-1.134834	0.918677
C75	C	1.155889	-1.261294	0.905238
C76	C	1.253711	-1.281451	0.859813
H77	H	1.120256	-1.325606	0.916959
H78	H	1.115591	-1.218612	0.859467
H79	H	1.165469	-1.225996	0.970115
H80	H	1.244130	-1.316737	0.794932
H81	H	1.294007	-1.324142	0.905573
H82	H	1.774868	-0.249684	0.907211
O83	O	1.385877	-0.638194	1.114750
C84	C	1.281164	-0.615252	1.087925
H85	H	1.275875	-0.531328	1.057782
H86	H	1.253664	-0.671596	1.024222
C87	C	1.217571	-0.730521	1.222413
C88	C	1.211074	-0.627442	1.185399
H89	H	1.174334	-0.738045	1.282538
H90	H	1.288118	-0.745982	1.240484
H91	H	1.194656	-0.777464	1.169318
H92	H	1.234001	-0.580503	1.238489
H93	H	1.140529	-0.611974	1.167340
O94	O	1.385860	-0.638228	0.898448
C95	C	1.318016	-0.578437	0.834968
H96	H	1.311560	-0.495677	0.868044
H97	H	1.350474	-0.574853	0.751812
C98	C	1.216712	-0.731409	0.792651
C99	C	1.208775	-0.629764	0.833281
H100	H	1.149328	-0.763072	0.791606
H101	H	1.262422	-0.771693	0.835416
H102	H	1.243764	-0.728409	0.723358
H103	H	1.181736	-0.632767	0.902577
H104	H	1.163058	-0.589482	0.790528
O105	O	0.910715	-0.239634	0.773384
C106	C	0.802101	-0.254063	0.758982
H107	H	0.787079	-0.288371	0.677842
H108	H	0.770989	-0.310097	0.821202
C109	C	0.764227	-0.105647	0.868466
C110	C	0.745776	-0.147776	0.768805
H111	H	0.729481	-0.040086	0.874530
H112	H	0.837402	-0.095928	0.878173
H113	H	0.738300	-0.152353	0.920305
H114	H	0.771714	-0.101077	0.716969
H115	H	0.672603	-0.157485	0.759090
H116	H	0.919319	-0.627865	0.384055
O117	O	1.785582	-0.239023	1.114745
C118	C	1.844873	-0.179735	1.042810
H119	H	1.848473	-0.222796	0.964588
H120	H	1.806428	-0.099940	1.031153
C121	C	1.952285	-0.111709	1.181715
C122	C	1.956715	-0.164601	1.085645
H123	H	2.021273	-0.102368	1.208139
H124	H	1.912338	-0.151648	1.230181
H125	H	1.920244	-0.045219	1.171988
H126	H	1.988744	-0.231095	1.095375
H127	H	1.996670	-0.124672	1.037181
O128	O	1.653205	-1.221844	0.371965
C129	C	1.753896	-1.258398	0.399070
H130	H	1.814386	-1.195132	0.381158
H131	H	1.756085	-1.277796	0.486251
C132	C	1.704923	-1.435290	0.357108
C133	C	1.779219	-1.357589	0.335099
H134	H	1.720543	-1.496479	0.317652
H135	H	1.637084	-1.410665	0.338850
H136	H	1.706755	-1.451442	0.429760
H137	H	1.777377	-1.341429	0.262451
H138	H	1.847058	-1.382214	0.353343
H139	H	1.118388	-0.627826	0.384033
H140	H	1.218036	-0.371834	0.640776
H141	H	1.652984	-0.371449	1.205790
H142	H	0.819900	-0.371887	0.640776
H143	H	1.652786	-0.806475	0.371865
H144	H	1.118567	-0.250105	0.762885
H145	H	1.383884	-0.806494	0.640406
H146	H	1.384108	-1.204622	0.640488
H147	H	1.652910	-0.371599	0.807654
