data_functionalizedCrystal
_audit_creation_method	'MofGen! by Chris Wilmer'
_symmetry_space_group_name_H-M	'P1'
_symmetry_Int_Tables_number	1
_symmetry_cell_setting	triclinic
loop_
_symmetry_equiv_pos_as_xyz
  x,y,z
_cell_length_a	23.532407
_cell_length_b	10.967819
_cell_length_c	10.065875
_cell_angle_alpha	69.228723
_cell_angle_beta	81.276572
_cell_angle_gamma	96.201541
loop_
_atom_site_label
_atom_site_type_symbol
_atom_site_fract_x
_atom_site_fract_y
_atom_site_fract_z
O1	O	-0.041674	1.739273	-0.522578
O2	O	-0.055812	1.361503	-0.433737
O3	O	0.034310	1.561772	-0.480790
O4	O	-0.131796	1.539004	-0.475525
O5	O	0.017058	1.523583	-0.244828
O6	O	-0.073064	1.323314	-0.197776
O7	O	-0.058926	1.701084	-0.286616
Zn8	Zn	-0.068734	1.506136	-0.204733
Zn9	Zn	-0.046004	1.556452	-0.515621
O10	O	-0.149048	1.500815	-0.239564
C11	C	0.046893	1.542096	-0.362664
C12	C	0.110089	1.540347	-0.362226
C13	C	-0.064712	1.294087	-0.304392
C14	C	-0.065522	1.150104	-0.270530
C15	C	0.374885	1.414645	-0.332728
C16	C	0.315502	1.416264	-0.333103
O17	O	0.277670	1.316545	-0.309698
N18	N	0.294179	1.535326	-0.361089
C19	C	0.332242	1.652779	-0.388717
O20	O	0.308652	1.754199	-0.412557
C21	C	0.391625	1.651160	-0.388351
C22	C	0.412944	1.532088	-0.360349
C23	C	0.396206	1.295583	-0.304729
C24	C	0.455584	1.293963	-0.304351
C25	C	0.493643	1.411406	-0.331972
C26	C	0.472323	1.530468	-0.359971
C27	C	0.429688	1.768613	-0.415988
C28	C	0.489074	1.766983	-0.415621
C29	C	0.510393	1.647911	-0.387619
C30	C	0.569760	1.646292	-0.387214
N31	N	0.591084	1.527230	-0.359228
C32	C	0.553025	1.409787	-0.331607
C33	C	0.207535	1.656171	-0.389484
C34	C	0.148153	1.657790	-0.389840
C35	C	0.131417	1.421275	-0.334229
C36	C	0.190800	1.419656	-0.333864
C37	C	0.228858	1.537109	-0.361498
C38	C	0.677725	1.406395	-0.330814
C39	C	0.737109	1.404785	-0.330433
C40	C	0.753840	1.641300	-0.386051
C41	C	0.694461	1.642910	-0.386425
C42	C	0.656404	1.525447	-0.358809
O43	O	0.607627	1.745959	-0.410612
O44	O	0.576625	1.308386	-0.307789
C45	C	-0.057788	0.956890	-0.342696
C46	C	-0.056947	1.105705	-0.377686
C47	C	0.838368	1.520488	-0.357672
C48	C	0.775168	1.522228	-0.358054
C49	C	-0.050025	1.768501	-0.415965
C50	C	-0.049214	1.912486	-0.449837
N51	N	-0.084246	1.471806	0.007439
N52	N	-0.030487	1.590792	-0.727795
C53	C	-0.051397	1.544499	0.058139
C54	C	-0.063340	1.518088	0.221511
H55	H	0.646746	1.310746	-0.308327
O56	O	0.409089	1.884406	-0.443285
C57	C	0.455423	1.987695	-0.467554
H58	H	0.498555	1.959077	-0.503797
H59	H	0.449129	2.081961	-0.555626
H60	H	0.456051	2.005569	-0.362867
O61	O	-0.128287	1.374060	0.099914
C62	C	-0.118259	1.251499	0.093927
H63	H	-0.069709	1.257745	0.053110
H64	H	-0.132852	1.170620	0.206989
H65	H	-0.144108	1.227027	0.016843
O66	O	0.094446	1.307114	-0.307152
C67	C	0.094947	1.214972	-0.167954
H68	H	0.109936	1.269879	-0.098695
H69	H	0.049102	1.155769	-0.114576
H70	H	0.126209	1.144758	-0.178031
H71	H	0.006483	1.672582	0.194668
H72	H	-0.065755	0.884735	-0.225064
H73	H	-0.014430	1.626284	-0.019400
H74	H	-0.100306	1.436289	0.299050
O75	O	0.127546	1.773578	-0.417116
C76	C	0.173875	1.876873	-0.441373
H77	H	0.217010	1.848268	-0.477621
H78	H	0.167578	1.971141	-0.529437
H79	H	0.174500	1.894736	-0.336679
O80	O	0.757727	1.289009	-0.303271
C81	C	0.711395	1.185699	-0.278944
H82	H	0.674782	1.228759	-0.332038
H83	H	0.727698	1.113611	-0.327895
H84	H	0.694240	1.131186	-0.157232
H85	H	-0.041254	0.984639	-0.567468
H86	H	0.472937	1.197005	-0.281561
H87	H	-0.073490	1.077953	-0.152889
H88	H	0.365223	1.199942	-0.282240
H89	H	0.208153	1.322696	-0.311056
H90	H	0.520060	1.862631	-0.438133
O91	O	0.244545	1.770154	-0.416102
C92	C	0.270465	1.756533	-0.295334
H93	H	0.269127	1.647024	-0.230397
H94	H	0.317769	1.809906	-0.334330
H95	H	0.245459	1.801653	-0.223619
O96	O	0.673848	1.758698	-0.413715
C97	C	0.720174	1.862000	-0.437973
H98	H	0.763311	1.833396	-0.474201
H99	H	0.713878	1.956260	-0.526053
H100	H	0.720791	1.879879	-0.333286
H101	H	0.784837	1.736918	-0.408533
H102	H	-0.048987	1.177855	-0.495326
