data_functionalizedCrystal
_audit_creation_method	'MofGen! by Chris Wilmer'
_symmetry_space_group_name_H-M	'P1'
_symmetry_Int_Tables_number	1
_symmetry_cell_setting	triclinic
loop_
_symmetry_equiv_pos_as_xyz
  x,y,z
_cell_length_a	16.120484
_cell_length_b	14.908750
_cell_length_c	14.908308
_cell_angle_alpha	83.240757
_cell_angle_beta	95.986071
_cell_angle_gamma	90.537334
loop_
_atom_site_label
_atom_site_type_symbol
_atom_site_fract_x
_atom_site_fract_y
_atom_site_fract_z
Zn1	Zn	-0.427134	-1.329313	-0.456654
Zn2	Zn	-0.558950	-1.330262	-0.312967
Zn3	Zn	-0.411957	-1.187573	-0.313174
Zn4	Zn	-0.558898	-1.170238	-0.473023
O5	O	-0.489235	-1.254347	-0.388955
O6	O	-0.450994	-1.455728	-0.430656
O7	O	-0.533122	-1.318986	-0.185964
O8	O	-0.297310	-1.213232	-0.325443
O9	O	-0.547838	-1.456426	-0.325090
O10	O	-0.308460	-1.317368	-0.430857
O11	O	-0.425126	-1.214153	-0.186116
O12	O	-0.425075	-1.058984	-0.341316
O13	O	-0.547749	-1.183688	-0.597882
O14	O	-0.533032	-1.046248	-0.458756
O15	O	-0.450943	-1.300559	-0.585856
O16	O	-0.675604	-1.302178	-0.340963
O17	O	-0.675565	-1.184609	-0.458555
C18	C	-0.477402	-1.019871	-0.401835
C19	C	-0.472361	-0.919558	-0.407369
C20	C	-0.705836	-1.241638	-0.401531
C21	C	-0.798504	-1.236282	-0.406937
C22	C	-0.414932	-0.777795	-0.470219
C23	C	-0.419662	-0.872048	-0.465024
C24	C	-0.520335	-0.872810	-0.354906
C25	C	-0.515606	-0.778558	-0.360101
C26	C	-0.462901	-0.731053	-0.417758
C27	C	-0.458168	-0.636800	-0.422948
C28	C	-0.558845	-0.637563	-0.312835
C29	C	-0.563575	-0.731816	-0.307640
C30	C	-0.968172	-1.226508	-0.416826
C31	C	-1.009467	-1.282346	-0.361089
C32	C	-1.103875	-1.276907	-0.366591
C33	C	-0.873754	-1.231945	-0.411325
C34	C	-0.271791	-1.267128	-0.376347
C35	C	-0.179129	-1.272574	-0.370975
C36	C	-0.501033	-1.240084	-0.625727
C37	C	-0.506060	-1.234006	-0.726626
C38	C	-0.501106	-0.489739	-0.376017
C39	C	-0.506143	-0.590051	-0.370485
C40	C	-0.414684	-1.344282	-0.903703
C41	C	-0.419405	-1.338574	-0.998505
C42	C	-0.520219	-1.216879	-1.011036
C43	C	-0.515498	-1.222587	-0.916233
C44	C	-0.462730	-1.286291	-0.862570
C45	C	-0.458013	-1.292003	-0.767765
C46	C	-0.558822	-1.170304	-0.780298
C47	C	-0.563543	-1.164596	-0.875100
C48	C	-0.477425	-1.268609	-0.153096
C49	C	-0.472172	-1.274876	-0.052175
H50	H	-0.415250	-0.598124	-0.469891
H51	H	-0.606487	-0.770506	-0.260699
H52	H	-0.973917	-1.334234	-0.309238
H53	H	-0.380279	-1.385794	-1.031992
O54	O	-0.373189	-0.917481	-0.516083
C55	C	-0.426390	-0.965723	-0.574368
H56	H	-0.490907	-0.933151	-0.585236
H57	H	-0.399875	-0.964349	-0.642478
H58	H	-0.431406	-1.038675	-0.542523
H59	H	-0.372010	-0.739118	-0.517157
O60	O	-1.010700	-1.164630	-0.478595
C61	C	-1.096860	-1.172919	-0.470408
H62	H	-1.106651	-1.206095	-0.399425
H63	H	-1.126980	-1.103073	-0.482110
H64	H	-1.126619	-1.216291	-0.523066
H65	H	-0.563247	-0.911504	-0.307967
H66	H	-0.415048	-1.343875	-0.724073
H67	H	-0.371723	-1.396157	-0.860009
O68	O	-0.571445	-1.155067	-1.063307
C69	C	-0.565279	-1.162444	-1.155801
H70	H	-0.542146	-1.232920	-1.163338
H71	H	-0.629202	-1.150466	-1.195805
H72	H	-0.519507	-1.109912	-1.183054
H73	H	-0.597947	-1.123086	-0.746798
O74	O	-0.605543	-0.592107	-0.262009
C75	C	-0.659283	-0.531318	-0.319726
H76	H	-0.669521	-0.555116	-0.389953
H77	H	-0.721699	-0.528483	-0.290561
H78	H	-0.630085	-0.461201	-0.325334
O79	O	-0.614897	-1.102840	-0.927272
C80	C	-0.674046	-1.147758	-0.982428
H81	H	-0.681355	-1.220255	-0.950251
H82	H	-0.736613	-1.111288	-0.989022
H83	H	-0.652002	-1.148053	-1.052610
