data_functionalizedCrystal
_audit_creation_method	'MofGen! by Chris Wilmer'
_symmetry_space_group_name_H-M	'P1'
_symmetry_Int_Tables_number	1
_symmetry_cell_setting	triclinic
loop_
_symmetry_equiv_pos_as_xyz
  x,y,z
_cell_length_a	16.120530
_cell_length_b	16.120484
_cell_length_c	12.759393
_cell_angle_alpha	92.862829
_cell_angle_beta	87.081041
_cell_angle_gamma	90.167327
loop_
_atom_site_label
_atom_site_type_symbol
_atom_site_fract_x
_atom_site_fract_y
_atom_site_fract_z
Zn1	Zn	1.254495	-0.395546	-0.699366
Zn2	Zn	1.754495	0.104454	-0.199366
Zn3	Zn	1.247333	-0.534621	-0.532098
Zn4	Zn	1.747333	-0.034621	-0.032098
Zn5	Zn	1.115429	-0.388530	-0.514372
Zn6	Zn	1.615429	0.111470	-0.014372
Zn7	Zn	1.108347	-0.527500	-0.698405
Zn8	Zn	1.608347	-0.027500	-0.198405
O9	O	1.181401	-0.461549	-0.611060
O10	O	1.681401	0.038451	-0.111060
O11	O	1.369910	-0.419912	-0.684998
O12	O	1.869910	0.080088	-0.184998
O13	O	1.229802	-0.515285	-0.382726
O14	O	1.729802	-0.015285	0.117274
O15	O	1.139837	-0.273098	-0.531896
O16	O	1.639837	0.226902	-0.031896
O17	O	1.364648	-0.522089	-0.562107
O18	O	1.864648	-0.022089	-0.062107
O19	O	1.242008	-0.278253	-0.667810
O20	O	1.742008	0.221747	-0.167810
O21	O	1.132892	-0.407952	-0.369703
O22	O	1.632892	0.092048	0.130297
O23	O	0.998123	-0.401047	-0.530964
O24	O	1.498123	0.098953	-0.030964
O25	O	1.127767	-0.509952	-0.845553
O26	O	1.627767	-0.009952	-0.345553
O27	O	0.992920	-0.503148	-0.666172
O28	O	1.492920	-0.003148	-0.166172
O29	O	1.235141	-0.413007	-0.846259
O30	O	1.735141	0.086993	-0.346259
O31	O	1.222935	-0.650039	-0.561175
O32	O	1.722935	-0.150039	-0.061175
O33	O	1.120822	-0.644807	-0.683360
O34	O	1.620822	-0.144807	-0.183360
C35	C	0.965350	-0.450564	-0.596540
C36	C	1.465350	0.049436	-0.096540
C37	C	0.872921	-0.445885	-0.590355
C38	C	1.372921	0.054115	-0.090355
C39	C	1.170356	-0.677595	-0.624111
C40	C	1.670356	-0.177595	-0.124111
C41	C	1.165707	-0.770025	-0.629735
C42	C	1.665707	-0.270025	-0.129735
C43	C	0.703693	-0.437322	-0.579070
C44	C	1.203693	0.062678	-0.079070
C45	C	0.659945	-0.485837	-0.643131
C46	C	1.159945	0.014163	-0.143131
C47	C	0.565781	-0.481073	-0.636852
C48	C	1.065781	0.018927	-0.136852
C49	C	0.797866	-0.442086	-0.585347
C50	C	1.297866	0.057914	-0.085347
C51	C	1.157224	-0.939255	-0.640024
C52	C	1.657224	-0.439255	-0.140024
C53	C	1.205727	-0.983010	-0.582124
C54	C	1.705727	-0.483010	-0.082124
C55	C	1.201007	-1.077176	-0.587849
C56	C	1.701007	-0.577176	-0.087849
C57	C	1.161942	-0.845081	-0.634300
C58	C	1.661942	-0.345081	-0.134300
C59	C	1.398295	-0.472577	-0.625637
C60	C	1.898295	0.027423	-0.125637
C61	C	1.490723	-0.477277	-0.631849
C62	C	1.990723	0.022723	-0.131849
C63	C	1.181463	-0.461468	-0.885092
C64	C	1.681463	0.038532	-0.385092
C65	C	1.181490	-0.461433	-1.001869
C66	C	1.681490	0.038567	-0.501869
C67	C	1.192511	-0.244660	-0.597983
C68	C	1.692511	0.255340	-0.097983
C69	C	1.197246	-0.152235	-0.592410
C70	C	1.697246	0.347765	-0.092410
C71	C	1.131048	-0.405537	-1.049950
C72	C	1.631048	0.094463	-0.549950
C73	C	1.131069	-0.405512	-1.159674
C74	C	1.631069	0.094488	-0.659674
C75	C	1.231979	-0.517284	-1.173226
C76	C	1.731979	-0.017284	-0.673226
C77	C	1.231953	-0.517312	-1.063504
C78	C	1.731953	-0.017312	-0.563504
C79	C	1.181389	-0.461572	-0.338094
C80	C	1.681389	0.038428	0.161906
C81	C	1.181536	-0.461381	-0.221315
C82	C	1.681536	0.038619	0.278685
H83	H	0.693211	-0.530949	-0.702693
H84	H	1.193211	-0.030949	-0.202693
F85	F	0.660216	-0.378361	-0.501224
F86	F	1.160216	0.121639	-0.001224
F87	F	1.264635	-0.939539	-0.511710
F88	F	1.764635	-0.439539	-0.011710
H89	H	1.112157	-0.972513	-0.693887
H90	H	1.612157	-0.472513	-0.193887
F91	F	1.077338	-0.346068	-0.984356
F92	F	1.577338	0.153932	-0.484356
H93	H	1.089994	-0.359996	-1.198815
H94	H	1.589994	0.140004	-0.698815
H95	H	1.273066	-0.562777	-1.223423
H96	H	1.773066	-0.062777	-0.723423
F97	F	1.285640	-0.576811	-1.012330
F98	F	1.785640	-0.076811	-0.512330
