data_functionalizedCrystal
_audit_creation_method	'MofGen! by Chris Wilmer'
_symmetry_space_group_name_H-M	'P1'
_symmetry_Int_Tables_number	1
_symmetry_cell_setting	triclinic
loop_
_symmetry_equiv_pos_as_xyz
  x,y,z
_cell_length_a	18.050591
_cell_length_b	18.050589
_cell_length_c	13.897441
_cell_angle_alpha	89.967585
_cell_angle_beta	89.974236
_cell_angle_gamma	90.016540
loop_
_atom_site_label
_atom_site_type_symbol
_atom_site_fract_x
_atom_site_fract_y
_atom_site_fract_z
Zn1	Zn	1.135368	-0.295722	-0.545547
Zn2	Zn	1.135285	-0.419924	-0.384240
Zn3	Zn	1.011176	-0.295744	-0.384245
Zn4	Zn	1.011152	-0.419866	-0.545473
O5	O	1.073245	-0.357814	-0.464876
O6	O	1.239281	-0.312213	-0.524178
O7	O	1.118797	-0.403485	-0.249259
O8	O	1.027696	-0.191816	-0.405675
O9	O	1.239220	-0.403464	-0.405667
O10	O	1.118939	-0.191800	-0.524183
O11	O	1.027615	-0.312250	-0.249263
O12	O	0.907249	-0.312194	-0.405603
O13	O	1.027653	-0.403365	-0.680464
O14	O	0.907230	-0.403386	-0.524057
O15	O	1.118915	-0.312156	-0.680519
O16	O	1.118773	-0.523841	-0.405595
O17	O	1.027573	-0.523798	-0.524052
C18	C	0.880293	-0.357786	-0.464823
C19	C	0.797747	-0.357792	-0.464823
C20	C	1.073181	-0.550766	-0.464836
C21	C	1.073222	-0.633312	-0.464851
C22	C	0.598285	-0.308145	-0.400556
C23	C	0.548873	-0.375883	-0.376817
C24	C	0.646617	-0.357815	-0.464867
C25	C	0.548947	-0.290100	-0.488604
C26	C	0.500632	-0.357831	-0.464907
C27	C	0.598292	-0.425589	-0.441081
C28	C	0.598371	-0.339760	-0.552909
C29	C	0.548981	-0.407545	-0.529203
C30	C	0.730715	-0.357805	-0.464841
C31	C	0.416535	-0.357848	-0.464933
C32	C	1.122946	-0.882134	-0.400541
C33	C	1.055187	-0.832799	-0.376840
C34	C	1.073315	-0.930432	-0.464926
C35	C	1.141024	-0.832685	-0.488544
C36	C	1.073273	-0.784447	-0.464887
C37	C	1.005521	-0.882185	-0.441179
C38	C	1.091404	-0.882075	-0.552924
C39	C	1.023598	-0.832763	-0.529257
C40	C	1.073341	-1.014530	-0.464945
C41	C	1.073240	-0.700351	-0.464867
C42	C	1.266951	-0.357842	-0.464930
C43	C	1.349496	-0.357854	-0.464953
C44	C	1.073329	-0.164108	-0.464938
C45	C	1.073365	-0.081563	-0.464964
C46	C	1.073291	-0.357752	-0.716469
C47	C	1.073310	-0.357725	-0.823683
C48	C	1.073325	-0.357704	-0.910753
C49	C	1.073346	-0.357671	-1.019986
C50	C	1.073243	-0.357822	-0.214262
C51	C	1.073367	-0.357640	-0.107049
H52	H	0.527132	-0.391166	-0.302379
C53	C	1.179460	-0.988973	-0.328396
C54	C	1.179558	-0.911408	-0.327013
H55	H	1.214410	-1.007045	-0.283005
H56	H	1.131473	-1.006641	-0.312214
H57	H	1.192443	-1.005836	-0.390905
H58	H	1.166570	-0.894546	-0.264505
H59	H	1.227556	-0.893733	-0.343189
C60	C	0.601782	-0.370403	-0.720955
C61	C	0.627754	-0.319104	-0.653365
H62	H	0.619921	-0.357640	-0.782971
H63	H	0.618647	-0.418546	-0.704187
H64	H	0.549161	-0.369802	-0.721553
H65	H	0.680375	-0.319708	-0.652761
H66	H	0.610892	-0.270948	-0.670138
H67	H	1.039864	-0.811152	-0.302405
C68	C	0.601533	-0.180773	-0.351015
C69	C	0.627517	-0.251500	-0.327067
H70	H	0.619578	-0.145807	-0.305640
H71	H	0.618486	-0.167829	-0.413514
H72	H	0.548911	-0.180713	-0.350114
H73	H	0.680140	-0.251561	-0.327974
H74	H	0.610568	-0.264447	-0.264551
C75	C	0.442119	-0.213788	-0.516263
C76	C	0.519684	-0.212786	-0.515688
H77	H	0.424056	-0.166056	-0.532971
H78	H	0.425244	-0.249014	-0.562030
H79	H	0.424453	-0.226964	-0.454169
H80	H	0.537350	-0.199615	-0.577784
H81	H	0.536566	-0.177549	-0.469918
H82	H	0.619877	-0.482879	-0.420939
C83	C	0.928906	-0.988974	-0.414296
C84	C	0.928174	-0.911405	-0.414069
H85	H	0.881158	-1.007013	-0.397553
H86	H	0.941848	-1.006249	-0.476620
H87	H	0.964203	-1.006266	-0.368857
H88	H	0.892881	-0.894113	-0.459514
H89	H	0.915223	-0.894123	-0.351737
C90	C	0.896008	-0.828799	-0.577751
C91	C	0.966853	-0.803673	-0.602734
H92	H	0.860976	-0.810835	-0.623108
H93	H	0.895437	-0.881416	-0.577793
H94	H	0.883561	-0.811175	-0.515413
H95	H	0.979303	-0.821302	-0.665070
H96	H	0.967427	-0.751046	-0.602703
C97	C	0.442364	-0.463443	-0.602631
C98	C	0.519932	-0.464316	-0.602648
H99	H	0.424431	-0.498489	-0.647976
H100	H	0.424671	-0.475871	-0.540301
H101	H	0.425385	-0.415378	-0.619622
H102	H	0.536910	-0.512380	-0.585650
H103	H	0.537632	-0.451893	-0.664992
C104	C	1.183099	-0.886381	-0.677994
C105	C	1.112114	-0.911327	-0.653379
H106	H	1.195890	-0.904444	-0.740009
H107	H	1.183677	-0.833765	-0.678566
H108	H	1.217872	-0.904027	-0.632105
H109	H	1.077339	-0.893676	-0.699264
H110	H	1.111530	-0.963953	-0.652814
H111	H	1.198302	-0.810943	-0.508536
