data_functionalizedCrystal
_audit_creation_method	'MofGen! by Chris Wilmer'
_symmetry_space_group_name_H-M	'P1'
_symmetry_Int_Tables_number	1
_symmetry_cell_setting	triclinic
loop_
_symmetry_equiv_pos_as_xyz
  x,y,z
_cell_length_a	17.699104
_cell_length_b	23.532407
_cell_length_c	16.776229
_cell_angle_alpha	89.984855
_cell_angle_beta	89.991971
_cell_angle_gamma	83.070132
loop_
_atom_site_label
_atom_site_type_symbol
_atom_site_fract_x
_atom_site_fract_y
_atom_site_fract_z
O1	O	1.003703	0.072076	-0.066319
O2	O	1.503703	0.572076	0.433681
O3	O	0.783279	0.081434	-0.066319
O4	O	1.283279	0.581434	0.433681
O5	O	0.900138	-0.006157	-0.066297
O6	O	1.400138	0.493843	0.433703
O7	O	0.886844	0.159667	-0.066342
O8	O	1.386844	0.659667	0.433658
O9	O	0.900122	-0.006163	0.066280
O10	O	1.400122	0.493837	0.566280
O11	O	0.783264	0.081428	0.066257
O12	O	1.283264	0.581428	0.566257
O13	O	1.003687	0.072071	0.066257
O14	O	1.503687	0.572071	0.566257
Zn15	Zn	0.893473	0.076749	0.087307
Zn16	Zn	1.393473	0.576749	0.587307
Zn17	Zn	0.893493	0.076756	-0.087369
Zn18	Zn	1.393493	0.576756	0.412631
O19	O	0.886829	0.159662	0.066235
O20	O	1.386829	0.659662	0.566235
C21	C	0.755076	0.081094	-0.000031
C22	C	1.255076	0.581094	0.499969
C23	C	0.671064	0.080082	-0.000030
C24	C	1.171064	0.580082	0.499970
C25	C	0.899792	-0.027377	-0.000005
C26	C	1.399792	0.472623	0.499995
C27	C	0.898774	-0.090597	0.000007
C28	C	1.398774	0.409403	0.500007
C29	C	0.145962	0.125789	-0.000050
C30	C	0.645962	0.625789	0.499950
C31	C	0.224900	0.126736	-0.000053
C32	C	0.724900	0.626736	0.499947
C33	C	0.273779	0.075317	-0.000039
C34	C	0.773779	0.575317	0.499961
C35	C	0.243715	0.022947	-0.000030
C36	C	0.743715	0.522947	0.499970
C37	C	0.164777	0.022000	-0.000033
C38	C	0.664777	0.522000	0.499967
C39	C	0.562061	0.026764	-0.000019
C40	C	1.062061	0.526764	0.499981
C41	C	0.641004	0.027715	-0.000013
C42	C	1.141004	0.527715	0.499987
C43	C	0.622185	0.131500	-0.000038
C44	C	1.122185	0.631500	0.499962
C45	C	0.543247	0.130554	-0.000041
C46	C	1.043247	0.630554	0.499959
C47	C	0.513190	0.078184	-0.000037
C48	C	1.013190	0.578184	0.499963
C49	C	0.427595	0.077157	-0.000036
C50	C	0.927595	0.577157	0.499964
C51	C	0.359372	0.076343	-0.000034
C52	C	0.859372	0.576343	0.499966
C53	C	0.825422	-0.356979	-0.000042
C54	C	1.325422	0.143021	0.499958
C55	C	0.826367	-0.297576	-0.000036
C56	C	1.326367	0.202424	0.499964
O57	O	0.768178	-0.261002	-0.000061
O58	O	1.268178	0.238998	0.499939
N59	N	0.895840	-0.274746	-0.000027
N60	N	1.395840	0.225254	0.499973
C61	C	0.964371	-0.311323	-0.000032
C62	C	1.464371	0.188677	0.499968
O63	O	1.023550	-0.286450	-0.000024
O64	O	1.523550	0.213550	0.499976
C65	C	0.963425	-0.370725	-0.000044
C66	C	1.463425	0.129275	0.499956
C67	C	0.893948	-0.393551	-0.000045
C68	C	1.393948	0.106449	0.499955
C69	C	0.755951	-0.379806	-0.000044
C70	C	1.255951	0.120194	0.499956
C71	C	0.755006	-0.439205	-0.000049
C72	C	1.255006	0.060795	0.499951
C73	C	0.823532	-0.475777	-0.000052
C74	C	1.323532	0.024223	0.499948
C75	C	0.893003	-0.452950	-0.000050
C76	C	1.393003	0.047050	0.499950
C77	C	1.031956	-0.407301	-0.000055
C78	C	1.531956	0.092699	0.499945
C79	C	1.031003	-0.466706	-0.000067
C80	C	1.531003	0.033294	0.499933
C81	C	0.961527	-0.489532	-0.000068
C82	C	1.461527	0.010468	0.499932
C83	C	0.960584	-0.548921	-0.000057
C84	C	1.460584	-0.048921	0.499943
N85	N	0.891112	-0.571751	-0.000066
N86	N	1.391112	-0.071751	0.499934
C87	C	0.822585	-0.535179	-0.000063
C88	C	1.322585	-0.035179	0.499937
C89	C	0.966353	-0.186575	-0.000009
C90	C	1.466353	0.313425	0.499991
C91	C	0.967300	-0.127174	0.000009
C92	C	1.467300	0.372826	0.500009
C93	C	0.829296	-0.113431	0.000003
C94	C	1.329296	0.386569	0.500003
C95	C	0.828350	-0.172833	-0.000008
C96	C	1.328350	0.327167	0.499992
C97	C	0.896881	-0.209405	-0.000018
C98	C	1.396881	0.290595	0.499982
C99	C	0.820606	-0.659921	-0.000072
C100	C	1.320606	-0.159921	0.499928
C101	C	0.819667	-0.719326	-0.000074
C102	C	1.319667	-0.219326	0.499926
C103	C	0.957671	-0.733064	-0.000072
C104	C	1.457671	-0.233064	0.499928
C105	C	0.958610	-0.673664	-0.000067
C106	C	1.458610	-0.173664	0.499933
C107	C	0.890071	-0.637094	-0.000070
C108	C	1.390071	-0.137094	0.499930
O109	O	1.018743	-0.585530	-0.000035
O110	O	1.518743	-0.085530	0.499965
O111	O	0.763417	-0.560060	-0.000081
O112	O	1.263417	-0.060060	0.499919
C113	C	1.031890	0.072411	-0.000033
C114	C	1.531890	0.572411	0.499967
C115	C	1.115902	0.073423	-0.000039
C116	C	1.615902	0.573423	0.499961
C117	C	0.887175	0.180882	-0.000059
C118	C	1.387175	0.680882	0.499941
C119	C	0.888193	0.244102	-0.000076
C120	C	1.388193	0.744102	0.499924
N121	N	0.893465	0.076744	0.206518
N122	N	1.393465	0.576744	0.706518
N123	N	0.893508	0.076757	-0.206580
N124	N	1.393508	0.576757	0.293420
C125	C	0.945225	0.037974	0.248245
C126	C	1.445225	0.537974	0.748245
C127	C	0.945230	0.037974	0.331697
C128	C	1.445230	0.537974	0.831697
C129	C	0.893476	0.076746	0.373421
C130	C	1.393476	0.576746	0.873421
C131	C	0.841710	0.115517	0.331688
C132	C	1.341710	0.615517	0.831688
C133	C	0.841703	0.115514	0.248237
C134	C	1.341703	0.615514	0.748237
C135	C	0.841738	0.115528	0.668235
C136	C	1.341738	0.615528	1.168235
C137	C	0.841750	0.115529	0.751692
C138	C	1.341750	0.615529	1.251692
C139	C	0.945264	0.037988	0.751695
C140	C	1.445264	0.537988	1.251695
C141	C	0.945257	0.037985	0.668244
C142	C	1.445257	0.537985	1.168244
C143	C	0.893489	0.076754	0.626519
C144	C	1.393489	0.576754	1.126519
C145	C	0.893484	0.076753	0.536030
C146	C	1.393484	0.576753	1.036030
C147	C	0.893484	0.076750	0.463908
C148	C	1.393484	0.576750	0.963908
H149	H	0.106169	0.167661	-0.000056
H150	H	0.606169	0.667661	0.499944
C151	C	0.784817	0.158177	0.797590
C152	C	1.284817	0.658177	1.297590
H153	H	0.792244	0.152628	0.853266
H154	H	1.292244	0.652628	1.353266
H155	H	0.734353	0.152034	0.783934
H156	H	1.234353	0.652034	1.283934
H157	H	0.792746	0.196182	0.783895
H158	H	1.292746	0.696182	1.283895
C159	C	1.002159	-0.004670	0.202352
C160	C	1.502159	0.495330	0.702352
H161	H	0.994750	0.000884	0.146675
H162	H	1.494750	0.500884	0.646675
H163	H	0.994236	-0.042674	0.216045
H164	H	1.494236	0.457326	0.716045
H165	H	1.052623	0.001478	0.216017
H166	H	1.552623	0.501478	0.716017
C167	C	1.002183	-0.004666	0.622352
C168	C	1.502183	0.495334	1.122352
H169	H	1.033006	-0.027760	0.659156
H170	H	1.533006	0.472240	1.159156
H171	H	1.033529	0.015790	0.589778
H172	H	1.533529	0.515790	1.089778
H173	H	0.975127	-0.028351	0.589819
H174	H	1.475127	0.471649	1.089819
C175	C	0.131708	-0.035601	-0.000022
C176	C	0.631708	0.464399	0.499978
H177	H	0.077696	-0.028801	-0.000034
H178	H	0.577696	0.471199	0.499966
H179	H	0.148501	-0.056773	0.046215
H180	H	0.648501	0.443227	0.546215
H181	H	0.148519	-0.056762	-0.046256
H182	H	0.648519	0.443238	0.453744
C183	C	1.002202	-0.004664	0.797595
C184	C	1.502202	0.495336	1.297595
H185	H	0.994791	0.000884	0.853271
H186	H	1.494791	0.500884	1.353271
H187	H	1.052663	0.001476	0.783904
H188	H	1.552663	0.501476	1.283904
H189	H	0.994265	-0.042668	0.783933
H190	H	1.494265	0.457332	1.283933
H191	H	0.799553	0.147084	0.214264
H192	H	1.299553	0.647084	0.714264
H193	H	0.987376	0.006404	0.365671
H194	H	1.487376	0.506404	0.865671
H195	H	0.700145	-0.350034	-0.000045
H196	H	1.200145	0.149966	0.499955
C197	C	0.743239	-0.744432	-0.000081
C198	C	1.243239	-0.244432	0.499919
H199	H	0.702565	-0.714140	-0.000088
H200	H	1.202565	-0.214140	0.499912
H201	H	0.739990	-0.767330	0.046147
H202	H	1.239990	-0.267330	0.546147
H203	H	0.740009	-0.767306	-0.046323
H204	H	1.240009	-0.267306	0.453677
H205	H	1.088531	-0.388727	-0.000054
H206	H	1.588531	0.111273	0.499946
H207	H	0.799568	0.147084	0.365664
H208	H	1.299568	0.647084	0.865664
C209	C	0.257963	0.184339	-0.000055
C210	C	0.757963	0.684339	0.499945
H211	H	0.217547	0.214826	-0.000051
H212	H	0.717547	0.714826	0.499949
H213	H	0.288373	0.186874	-0.046285
H214	H	0.788373	0.686874	0.453715
H215	H	0.288356	0.186858	0.046186
H216	H	0.788356	0.686858	0.546186
C217	C	0.489485	0.187114	-0.000060
C218	C	0.989485	0.687114	0.499940
H219	H	0.518693	0.218438	-0.000075
H220	H	1.018693	0.718438	0.499925
H221	H	0.458290	0.188903	0.046168
H222	H	0.958290	0.688903	0.546168
H223	H	0.458312	0.188901	-0.046303
H224	H	0.958312	0.688901	0.453697
H225	H	0.771776	-0.191414	-0.000006
H226	H	1.271776	0.308586	0.499994
C227	C	0.753918	-0.073194	-0.000007
C228	C	1.253918	0.426806	0.499993
H229	H	0.764437	-0.034549	-0.000010
H230	H	1.264437	0.465451	0.499990
H231	H	0.725396	-0.080110	0.046219
H232	H	1.225396	0.419890	0.546219
H233	H	0.725424	-0.080094	-0.046251
H234	H	1.225424	0.419906	0.453749
H235	H	0.799587	0.147096	0.634269
H236	H	1.299587	0.647096	1.134269
H237	H	0.646666	0.174143	-0.000045
H238	H	1.146666	0.674143	0.499955
C239	C	0.745215	-0.619702	-0.000069
C240	C	1.245215	-0.119702	0.499931
H241	H	0.703711	-0.641812	-0.000064
H242	H	1.203711	-0.141812	0.499936
H243	H	0.742711	-0.596231	-0.046297
H244	H	1.242711	-0.096231	0.453703
H245	H	0.742709	-0.596257	0.046173
H246	H	1.242709	-0.096257	0.546173
C247	C	0.529008	-0.030840	-0.000000
C248	C	1.029008	0.469160	0.500000
H249	H	0.569425	-0.061326	0.000020
H250	H	1.069425	0.438674	0.500020
H251	H	0.498612	-0.033370	-0.046232
H252	H	0.998612	0.466630	0.453768
H253	H	0.498600	-0.033366	0.046239
H254	H	0.998600	0.466634	0.546239
C255	C	0.694769	-0.028849	-0.000008
C256	C	1.194769	0.471151	0.499992
H257	H	0.665563	-0.060174	-0.000015
H258	H	1.165563	0.439826	0.499985
H259	H	0.725948	-0.030643	0.046225
H260	H	1.225948	0.469357	0.546225
H261	H	0.725959	-0.030626	-0.046246
H262	H	1.225959	0.469374	0.453754
H263	H	0.283518	-0.018919	-0.000024
H264	H	0.783518	0.481081	0.499976
H265	H	1.022163	-0.216349	-0.000011
H266	H	1.522163	0.283651	0.499989
C267	C	0.678580	-0.464306	-0.000061
C268	C	1.178580	0.035694	0.499939
H269	H	0.637910	-0.434011	-0.000067
H270	H	1.137910	0.065989	0.499933
H271	H	0.675326	-0.487206	0.046165
H272	H	1.175326	0.012794	0.546165
H273	H	0.675348	-0.487178	-0.046306
H274	H	1.175348	0.012822	0.453694
H275	H	1.086811	-0.496481	-0.000079
H276	H	1.586811	0.003519	0.499921
C277	C	1.043723	-0.102069	0.000024
C278	C	1.543723	0.397931	0.500024
H279	H	1.034479	-0.061453	0.000035
H280	H	1.534479	0.438547	0.500035
H281	H	1.071927	-0.114619	-0.046206
H282	H	1.571927	0.385381	0.453794
H283	H	1.071906	-0.114641	0.046264
H284	H	1.571906	0.385359	0.546264
C285	C	1.035032	-0.648554	-0.000056
C286	C	1.535032	-0.148554	0.499944
H287	H	1.075708	-0.678845	-0.000060
H288	H	1.575708	-0.178845	0.499940
H289	H	1.038264	-0.625674	0.046175
H290	H	1.538264	-0.125674	0.546175
H291	H	1.038276	-0.625661	-0.046295
H292	H	1.538276	-0.125661	0.453705
H293	H	1.013463	-0.762852	-0.000071
H294	H	1.513463	-0.262852	0.499929
