data_functionalizedCrystal
_audit_creation_method	'MofGen! by Chris Wilmer'
_symmetry_space_group_name_H-M	'P1'
_symmetry_Int_Tables_number	1
_symmetry_cell_setting	triclinic
loop_
_symmetry_equiv_pos_as_xyz
  x,y,z
_cell_length_a	23.532407
_cell_length_b	23.532407
_cell_length_c	12.996460
_cell_angle_alpha	89.989202
_cell_angle_beta	89.999749
_cell_angle_gamma	82.848678
loop_
_atom_site_label
_atom_site_type_symbol
_atom_site_fract_x
_atom_site_fract_y
_atom_site_fract_z
O1	O	0.755260	0.069136	-0.085449
O2	O	1.005260	0.319136	0.164551
O3	O	1.255260	0.569136	0.414551
O4	O	1.505260	0.819136	0.664551
O5	O	0.589397	0.079139	-0.085480
O6	O	0.839397	0.329139	0.164520
O7	O	1.089397	0.579139	0.414520
O8	O	1.339397	0.829139	0.664520
O9	O	0.677330	-0.008794	-0.085445
O10	O	0.927330	0.241206	0.164555
O11	O	1.177330	0.491206	0.414555
O12	O	1.427330	0.741206	0.664555
O13	O	0.667327	0.157069	-0.085484
O14	O	0.917327	0.407069	0.164516
O15	O	1.167327	0.657069	0.414516
O16	O	1.417327	0.907069	0.664516
O17	O	0.677321	-0.008799	0.085689
O18	O	0.927321	0.241201	0.335689
O19	O	1.177321	0.491201	0.585689
O20	O	1.427321	0.741201	0.835689
O21	O	0.589388	0.079134	0.085653
O22	O	0.839388	0.329134	0.335653
O23	O	1.089388	0.579134	0.585653
O24	O	1.339388	0.829134	0.835653
O25	O	0.755251	0.069131	0.085685
O26	O	1.005251	0.319131	0.335685
O27	O	1.255251	0.569131	0.585685
O28	O	1.505251	0.819131	0.835685
Cu29	Cu	0.672319	0.074132	0.101295
Cu30	Cu	0.922319	0.324132	0.351295
Cu31	Cu	1.172319	0.574132	0.601295
Cu32	Cu	1.422319	0.824132	0.851295
Cu33	Cu	0.672329	0.074138	-0.101091
Cu34	Cu	0.922329	0.324138	0.148909
Cu35	Cu	1.172329	0.574138	0.398909
Cu36	Cu	1.422329	0.824138	0.648909
O37	O	0.667318	0.157064	0.085649
O38	O	0.917318	0.407064	0.335649
O39	O	1.167318	0.657064	0.585649
O40	O	1.417318	0.907064	0.835649
C41	C	0.568176	0.078882	0.000083
C42	C	0.818176	0.328882	0.250083
C43	C	1.068176	0.578882	0.500083
C44	C	1.318176	0.828882	0.750083
C45	C	0.504959	0.078116	0.000071
C46	C	0.754959	0.328116	0.250071
C47	C	1.004959	0.578116	0.500071
C48	C	1.254959	0.828116	0.750071
C49	C	0.105856	0.125350	0.000107
C50	C	0.355856	0.375350	0.250107
C51	C	0.605856	0.625350	0.500107
C52	C	0.855856	0.875350	0.750107
C53	C	0.046456	0.124638	0.000113
C54	C	0.296456	0.374638	0.250113
C55	C	0.546456	0.624638	0.500113
C56	C	0.796456	0.874638	0.750113
O57	O	0.009711	0.168424	0.000140
O58	O	0.259711	0.418424	0.250140
O59	O	0.509711	0.668424	0.500140
O60	O	0.759711	0.918424	0.750140
N61	N	0.023830	0.072362	0.000124
N62	N	0.273830	0.322362	0.250124
N63	N	0.523830	0.572362	0.500124
N64	N	0.773830	0.822362	0.750124
C65	C	0.060607	0.020794	0.000139
C66	C	0.310607	0.270794	0.250139
C67	C	0.560607	0.520794	0.500139
C68	C	0.810607	0.770794	0.750139
O69	O	0.035908	-0.023737	0.000149
O70	O	0.285908	0.226263	0.250149
O71	O	0.535908	0.476263	0.500149
O72	O	0.785908	0.726263	0.750149
C73	C	0.120006	0.021506	0.000140
C74	C	0.370006	0.271506	0.250140
C75	C	0.620006	0.521506	0.500140
C76	C	0.870006	0.771506	0.750140
C77	C	0.142629	0.073785	0.000118
C78	C	0.392629	0.323785	0.250118
C79	C	0.642629	0.573785	0.500118
C80	C	0.892629	0.823785	0.750118
C81	C	0.128479	0.177625	0.000087
C82	C	0.378479	0.427625	0.250087
C83	C	0.628479	0.677625	0.500087
C84	C	0.878479	0.927625	0.750087
C85	C	0.187876	0.178336	0.000078
C86	C	0.437876	0.428336	0.250078
C87	C	0.687876	0.678336	0.500078
C88	C	0.937876	0.928336	0.750078
C89	C	0.224649	0.126772	0.000090
C90	C	0.474649	0.376772	0.250090
C91	C	0.724649	0.626772	0.500090
C92	C	0.974649	0.876772	0.750090
C93	C	0.202025	0.074496	0.000110
C94	C	0.452025	0.324496	0.250110
C95	C	0.702025	0.574496	0.500110
C96	C	0.952025	0.824496	0.750110
C97	C	0.156783	-0.030062	0.000162
C98	C	0.406783	0.219938	0.250162
C99	C	0.656783	0.469938	0.500162
C100	C	0.906783	0.719938	0.750162
C101	C	0.216185	-0.029345	0.000163
C102	C	0.466185	0.220655	0.250163
C103	C	0.716185	0.470655	0.500163
C104	C	0.966185	0.720655	0.750163
C105	C	0.238808	0.022934	0.000142
C106	C	0.488808	0.272934	0.250142
C107	C	0.738808	0.522934	0.500142
C108	C	0.988808	0.772934	0.750142
C109	C	0.298194	0.023643	0.000113
C110	C	0.548194	0.273643	0.250113
C111	C	0.798194	0.523643	0.500113
C112	C	1.048194	0.773643	0.750113
N113	N	0.320820	0.075920	0.000103
N114	N	0.570820	0.325920	0.250103
N115	N	0.820820	0.575920	0.500103
N116	N	1.070820	0.825920	0.750103
C117	C	0.284048	0.127484	0.000091
C118	C	0.534048	0.377484	0.250091
C119	C	0.784048	0.627484	0.500091
C120	C	1.034048	0.877484	0.750091
C121	C	-0.064135	0.019302	0.000139
C122	C	0.185865	0.269302	0.250139
C123	C	0.435865	0.519302	0.500139
C124	C	0.685865	0.769302	0.750139
C125	C	-0.123533	0.018589	0.000130
C126	C	0.126467	0.268589	0.250130
C127	C	0.376467	0.518589	0.500130
C128	C	0.626467	0.768589	0.750130
C129	C	-0.137680	0.122434	0.000107
C130	C	0.112320	0.372434	0.250107
C131	C	0.362320	0.622434	0.500107
C132	C	0.612320	0.872434	0.750107
C133	C	-0.078281	0.123146	0.000108
C134	C	0.171719	0.373146	0.250108
C135	C	0.421719	0.623146	0.500108
C136	C	0.671719	0.873146	0.750108
C137	C	-0.041509	0.071578	0.000128
C138	C	0.208491	0.321578	0.250128
C139	C	0.458491	0.571578	0.500128
C140	C	0.708491	0.821578	0.750128
C141	C	0.408784	0.128974	0.000072
C142	C	0.658784	0.378974	0.250072
C143	C	0.908784	0.628974	0.500072
C144	C	1.158784	0.878974	0.750072
C145	C	0.468186	0.129680	0.000060
C146	C	0.718186	0.379680	0.250060
C147	C	0.968186	0.629680	0.500060
C148	C	1.218186	0.879680	0.750060
C149	C	0.482329	0.025836	0.000089
C150	C	0.732329	0.275836	0.250089
C151	C	0.982329	0.525836	0.500089
C152	C	1.232329	0.775836	0.750089
C153	C	0.422932	0.025129	0.000096
C154	C	0.672932	0.275129	0.250096
C155	C	0.922932	0.525129	0.500096
C156	C	1.172932	0.775129	0.750096
C157	C	0.386160	0.076702	0.000091
C158	C	0.636160	0.326702	0.250091
C159	C	0.886160	0.576702	0.500091
C160	C	1.136160	0.826702	0.750091
O161	O	0.334974	-0.020119	0.000091
O162	O	0.584974	0.229881	0.250091
O163	O	0.834974	0.479881	0.500091
O164	O	1.084974	0.729881	0.750091
O165	O	0.308755	0.172007	0.000094
O166	O	0.558755	0.422007	0.250094
O167	O	0.808755	0.672007	0.500094
O168	O	1.058755	0.922007	0.750094
C169	C	0.677071	-0.030013	0.000125
C170	C	0.927071	0.219987	0.250125
C171	C	1.177071	0.469987	0.500125
C172	C	1.427071	0.719987	0.750125
C173	C	0.676305	-0.093230	0.000132
C174	C	0.926305	0.156770	0.250132
C175	C	1.176305	0.406770	0.500132
C176	C	1.426305	0.656770	0.750132
C177	C	0.723539	-0.492333	0.000085
C178	C	0.973539	-0.242333	0.250085
C179	C	1.223539	0.007667	0.500085
C180	C	1.473539	0.257667	0.750085
C181	C	0.722827	-0.551733	0.000077
C182	C	0.972827	-0.301733	0.250077
C183	C	1.222827	-0.051733	0.500077
C184	C	1.472827	0.198267	0.750077
O185	O	0.766613	-0.588478	0.000047
O186	O	1.016613	-0.338478	0.250047
O187	O	1.266613	-0.088478	0.500047
O188	O	1.516613	0.161522	0.750047
N189	N	0.670551	-0.574359	0.000068
N190	N	0.920551	-0.324359	0.250068
N191	N	1.170551	-0.074359	0.500068
N192	N	1.420551	0.175641	0.750068
C193	C	0.618983	-0.537582	0.000056
C194	C	0.868983	-0.287582	0.250056
C195	C	1.118983	-0.037582	0.500056
C196	C	1.368983	0.212418	0.750056
O197	O	0.574452	-0.562281	0.000047
O198	O	0.824452	-0.312281	0.250047
O199	O	1.074452	-0.062281	0.500047
O200	O	1.324452	0.187719	0.750047
C201	C	0.619695	-0.478182	0.000057
C202	C	0.869695	-0.228182	0.250057
C203	C	1.119695	0.021818	0.500057
C204	C	1.369695	0.271818	0.750057
C205	C	0.671974	-0.455560	0.000076
C206	C	0.921974	-0.205560	0.250076
C207	C	1.171974	0.044440	0.500076
C208	C	1.421974	0.294440	0.750076
C209	C	0.775814	-0.469710	0.000104
C210	C	1.025814	-0.219710	0.250104
C211	C	1.275814	0.030290	0.500104
C212	C	1.525814	0.280290	0.750104
C213	C	0.776525	-0.410313	0.000113
C214	C	1.026525	-0.160313	0.250113
C215	C	1.276525	0.089687	0.500113
C216	C	1.526525	0.339687	0.750113
C217	C	0.724961	-0.373540	0.000105
C218	C	0.974961	-0.123540	0.250105
C219	C	1.224961	0.126460	0.500105
C220	C	1.474961	0.376460	0.750105
C221	C	0.672685	-0.396164	0.000086
C222	C	0.922685	-0.146164	0.250086
C223	C	1.172685	0.103836	0.500086
C224	C	1.422685	0.353836	0.750086
C225	C	0.568127	-0.441406	0.000038
C226	C	0.818127	-0.191406	0.250038
C227	C	1.068127	0.058594	0.500038
C228	C	1.318127	0.308594	0.750038
C229	C	0.568844	-0.382004	0.000037
C230	C	0.818844	-0.132004	0.250037
C231	C	1.068844	0.117996	0.500037
C232	C	1.318844	0.367996	0.750037
C233	C	0.621123	-0.359381	0.000057
C234	C	0.871123	-0.109381	0.250057
C235	C	1.121123	0.140619	0.500057
C236	C	1.371123	0.390619	0.750057
C237	C	0.621832	-0.299995	0.000087
C238	C	0.871832	-0.049995	0.250087
C239	C	1.121832	0.200005	0.500087
C240	C	1.371832	0.450005	0.750087
N241	N	0.674109	-0.277368	0.000097
N242	N	0.924109	-0.027368	0.250097
N243	N	1.174109	0.222632	0.500097
N244	N	1.424109	0.472632	0.750097
C245	C	0.725673	-0.314141	0.000105
C246	C	0.975673	-0.064141	0.250105
C247	C	1.225673	0.185859	0.500105
C248	C	1.475673	0.435859	0.750105
C249	C	0.617491	-0.662324	0.000053
C250	C	0.867491	-0.412324	0.250053
C251	C	1.117491	-0.162324	0.500053
C252	C	1.367491	0.087676	0.750053
C253	C	0.616778	-0.721722	0.000060
C254	C	0.866778	-0.471722	0.250060
C255	C	1.116778	-0.221722	0.500060
C256	C	1.366778	0.028278	0.750060
C257	C	0.720623	-0.735869	0.000079
C258	C	0.970623	-0.485869	0.250079
C259	C	1.220623	-0.235869	0.500079
C260	C	1.470623	0.014131	0.750079
C261	C	0.721335	-0.676470	0.000080
C262	C	0.971335	-0.426470	0.250080
C263	C	1.221335	-0.176470	0.500080
C264	C	1.471335	0.073530	0.750080
C265	C	0.669767	-0.639698	0.000062
C266	C	0.919767	-0.389698	0.250062
C267	C	1.169767	-0.139698	0.500062
C268	C	1.419767	0.110302	0.750062
C269	C	0.727163	-0.189405	0.000127
C270	C	0.977163	0.060595	0.250127
C271	C	1.227163	0.310595	0.500127
C272	C	1.477163	0.560595	0.750127
C273	C	0.727869	-0.130003	0.000141
C274	C	0.977869	0.119997	0.250141
C275	C	1.227869	0.369997	0.500141
C276	C	1.477869	0.619997	0.750141
C277	C	0.624025	-0.115860	0.000117
C278	C	0.874025	0.134140	0.250117
C279	C	1.124025	0.384140	0.500117
C280	C	1.374025	0.634140	0.750117
C281	C	0.623318	-0.175257	0.000108
C282	C	0.873318	0.074743	0.250108
C283	C	1.123318	0.324743	0.500108
C284	C	1.373318	0.574743	0.750108
C285	C	0.674891	-0.212029	0.000110
C286	C	0.924891	0.037971	0.250110
C287	C	1.174891	0.287971	0.500110
C288	C	1.424891	0.537971	0.750110
O289	O	0.578070	-0.263215	0.000113
O290	O	0.828070	-0.013215	0.250113
O291	O	1.078070	0.236785	0.500113
O292	O	1.328070	0.486785	0.750113
O293	O	0.770196	-0.289433	0.000101
O294	O	1.020196	-0.039433	0.250101
O295	O	1.270196	0.210567	0.500101
O296	O	1.520196	0.460567	0.750101
C297	C	0.776472	0.069388	0.000120
C298	C	1.026472	0.319388	0.250120
C299	C	1.276472	0.569388	0.500120
C300	C	1.526472	0.819388	0.750120
C301	C	0.839689	0.070154	0.000124
C302	C	1.089689	0.320154	0.250124
C303	C	1.339689	0.570154	0.500124
C304	C	1.589689	0.820154	0.750124
C305	C	0.667577	0.178283	0.000078
C306	C	0.917577	0.428283	0.250078
C307	C	1.167577	0.678283	0.500078
C308	C	1.417577	0.928283	0.750078
C309	C	0.668343	0.241500	0.000063
C310	C	0.918343	0.491500	0.250063
C311	C	1.168343	0.741500	0.500063
C312	C	1.418343	0.991500	0.750063
N313	N	0.672315	0.074128	0.243642
N314	N	0.922315	0.324128	0.493642
N315	N	1.172315	0.574128	0.743642
N316	N	1.422315	0.824128	0.993642
N317	N	0.672337	0.074138	-0.243438
N318	N	0.922337	0.324138	0.006562
N319	N	1.172337	0.574138	0.256562
N320	N	1.422337	0.824138	0.506562
C321	C	0.672329	0.074138	0.663456
C322	C	0.922329	0.324138	0.913456
C323	C	1.172329	0.574138	1.163456
C324	C	1.422329	0.824138	1.413456
C325	C	0.672323	0.074137	0.546651
C326	C	0.922323	0.324137	0.796651
C327	C	1.172323	0.574137	1.046651
C328	C	1.422323	0.824137	1.296651
C329	C	0.672322	0.074134	0.453553
C330	C	0.922322	0.324134	0.703553
C331	C	1.172322	0.574134	0.953553
C332	C	1.422322	0.824134	1.203553
C333	C	0.672316	0.074132	0.336740
C334	C	0.922316	0.324132	0.586740
C335	C	1.172316	0.574132	0.836740
C336	C	1.422316	0.824132	1.086740
H337	H	-0.059867	0.165717	0.000096
H338	H	0.190133	0.415717	0.250096
H339	H	0.440133	0.665717	0.500096
H340	H	0.690133	0.915717	0.750096
F341	F	0.211944	0.233980	0.000061
F342	F	0.461944	0.483980	0.250061
F343	F	0.711944	0.733980	0.500061
F344	F	0.961944	0.983980	0.750061
H345	H	0.486602	0.172255	0.000042
H346	H	0.736602	0.422255	0.250042
H347	H	0.986602	0.672255	0.500042
H348	H	1.236602	0.922255	0.750042
F349	F	-0.176827	0.177314	0.000098
F350	F	0.073173	0.427314	0.250098
F351	F	0.323173	0.677314	0.500098
F352	F	0.573173	0.927314	0.750098
F353	F	0.369658	0.183864	0.000068
F354	F	0.619658	0.433864	0.250068
F355	F	0.869658	0.683864	0.500068
F356	F	1.119658	0.933864	0.750068
H357	H	0.512280	-0.016146	0.000094
H358	H	0.762280	0.233854	0.250094
H359	H	1.012280	0.483854	0.500094
H360	H	1.262280	0.733854	0.750094
H361	H	-0.141947	-0.023982	0.000132
H362	H	0.108053	0.226018	0.250132
H363	H	0.358053	0.476018	0.500132
H364	H	0.608053	0.726018	0.750132
F365	F	-0.025003	-0.035587	0.000150
F366	F	0.224997	0.214413	0.250150
F367	F	0.474997	0.464413	0.500150
F368	F	0.724997	0.714413	0.750150
F369	F	0.089351	0.232512	0.000074
F370	F	0.339351	0.482512	0.250074
F371	F	0.589351	0.732512	0.500074
F372	F	0.839351	0.982512	0.750074
H373	H	0.526850	-0.352066	0.000022
H374	H	0.776850	-0.102066	0.250022
H375	H	1.026850	0.147934	0.500022
H376	H	1.276850	0.397934	0.750022
H377	H	0.575496	-0.632386	0.000048
H378	H	0.825496	-0.382386	0.250048
H379	H	1.075496	-0.132386	0.500048
H380	H	1.325496	0.117614	0.750048
H381	H	0.819097	-0.391900	0.000125
H382	H	1.069097	-0.141900	0.250125
H383	H	1.319097	0.108100	0.500125
H384	H	1.569097	0.358100	0.750125
F385	F	0.561135	-0.745792	0.000057
F386	F	0.811135	-0.495792	0.250057
F387	F	1.061135	-0.245792	0.500057
F388	F	1.311135	0.004208	0.750057
H389	H	0.817806	-0.499645	0.000107
H390	H	1.067806	-0.249645	0.250107
H391	H	1.317806	0.000355	0.500107
H392	H	1.567806	0.250355	0.750107
F393	F	0.776978	-0.652399	0.000100
F394	F	1.026978	-0.402399	0.250100
F395	F	1.276978	-0.152399	0.500100
F396	F	1.526978	0.097601	0.750100
F397	F	0.512483	-0.465469	0.000012
F398	F	0.762483	-0.215469	0.250012
F399	F	1.012483	0.034531	0.500012
F400	F	1.262483	0.284531	0.750012
H401	H	0.138375	-0.072634	0.000180
H402	H	0.388375	0.177366	0.250180
H403	H	0.638375	0.427366	0.500180
H404	H	0.888375	0.677366	0.750180
H405	H	0.246123	-0.071339	0.000181
H406	H	0.496123	0.178661	0.250181
H407	H	0.746123	0.428661	0.500181
H408	H	0.996123	0.678661	0.750181
H409	H	0.762610	-0.765821	0.000082
H410	H	1.012610	-0.515821	0.250082
H411	H	1.262610	-0.265821	0.500082
H412	H	1.512610	-0.015821	0.750082
F413	F	0.398854	-0.030513	0.000119
F414	F	0.648854	0.219487	0.250119
F415	F	0.898854	0.469487	0.500119
F416	F	1.148854	0.719487	0.750119
H417	H	0.770443	-0.111587	0.000160
H418	H	1.020443	0.138413	0.250160
H419	H	1.270443	0.388413	0.500160
H420	H	1.520443	0.638413	0.750160
H421	H	0.769159	-0.219337	0.000124
H422	H	1.019159	0.030663	0.250124
H423	H	1.269159	0.280663	0.500124
H424	H	1.519159	0.530663	0.750124
F425	F	0.567676	-0.199335	0.000105
F426	F	0.817676	0.050665	0.250105
F427	F	1.067676	0.300665	0.500105
F428	F	1.317676	0.550665	0.750105
H429	H	0.582043	-0.085909	0.000113
H430	H	0.832043	0.164091	0.250113
H431	H	1.082043	0.414091	0.500113
H432	H	1.332043	0.664091	0.750113
