data_functionalizedCrystal
_audit_creation_method	'MofGen! by Chris Wilmer'
_symmetry_space_group_name_H-M	'P1'
_symmetry_Int_Tables_number	1
_symmetry_cell_setting	triclinic
loop_
_symmetry_equiv_pos_as_xyz
  x,y,z
_cell_length_a	10.489746
_cell_length_b	8.965430
_cell_length_c	11.792241
_cell_angle_alpha	90.001078
_cell_angle_beta	95.632642
_cell_angle_gamma	90.001189
loop_
_atom_site_label
_atom_site_type_symbol
_atom_site_fract_x
_atom_site_fract_y
_atom_site_fract_z
O1	O	1.693505	0.123940	-0.160155
O2	O	1.322258	0.123965	-0.175180
O3	O	1.516891	0.123941	-0.002521
O4	O	1.498872	0.123963	-0.332814
O5	O	1.516873	-0.124138	-0.002536
O6	O	1.322241	-0.124114	-0.175194
O7	O	1.693487	-0.124139	-0.160169
Cu8	Cu	1.507862	-0.146778	-0.167683
Cu9	Cu	1.507883	0.146604	-0.167666
O10	O	1.498855	-0.124116	-0.332828
C11	C	1.274722	-0.000072	-0.174051
C12	C	1.133104	-0.000062	-0.170652
N13	N	1.507857	-0.353127	-0.167694
C14	C	0.980628	-0.000091	-0.058783
C15	C	1.057822	-0.122399	-0.114720
C16	C	1.057795	0.122188	-0.114732
C17	C	0.957970	-0.122508	-0.220591
C18	C	0.957938	0.122188	-0.220587
C19	C	1.035083	-0.000149	-0.276602
C20	C	1.418590	-0.549826	-0.248166
C21	C	1.392084	-0.450367	-0.145710
C22	C	1.534306	-0.450379	-0.270142
C23	C	1.481335	-0.549777	-0.065138
C24	C	1.623608	-0.549797	-0.189637
C25	C	1.597150	-0.450383	-0.087107
C26	C	1.741023	-0.000099	-0.161298
C27	C	1.882641	-0.000099	-0.164697
C28	C	1.515750	-0.000098	0.039765
C29	C	1.512362	-0.000096	0.165788
N30	N	1.507899	0.352953	-0.167646
C31	C	1.499995	-0.000073	-0.375115
C32	C	1.503383	-0.000065	-0.501138
C33	C	1.506133	-0.000071	0.396517
C34	C	1.509594	-0.000084	0.268123
H35	H	0.956221	-0.000220	0.033314
H36	H	0.914531	-0.226030	-0.265277
H37	H	1.059245	-0.000210	-0.368768
H38	H	1.556676	-0.406745	-0.356805
H39	H	1.294214	-0.406681	-0.127127
H40	H	1.458867	-0.593256	0.021541
H41	H	1.721447	-0.593509	-0.208258
H42	H	1.101444	-0.225810	-0.070014
H43	H	0.914292	0.225604	-0.265253
H44	H	1.101398	0.225592	-0.069995
H45	H	1.672661	-0.406996	-0.018960
H46	H	1.343030	-0.593489	-0.316161
