data_functionalizedCrystal
_audit_creation_method	'MofGen! by Chris Wilmer'
_symmetry_space_group_name_H-M	'P1'
_symmetry_Int_Tables_number	1
_symmetry_cell_setting	triclinic
loop_
_symmetry_equiv_pos_as_xyz
  x,y,z
_cell_length_a	10.654549
_cell_length_b	10.654545
_cell_length_c	7.088929
_cell_angle_alpha	83.718243
_cell_angle_beta	96.263241
_cell_angle_gamma	84.486172
loop_
_atom_site_label
_atom_site_type_symbol
_atom_site_fract_x
_atom_site_fract_y
_atom_site_fract_z
O1	O	1.655056	0.189229	-0.159023
O2	O	1.289579	0.206028	-0.159016
O3	O	1.480720	0.014889	-0.159018
O4	O	1.463915	0.380368	-0.159021
O5	O	1.506264	-0.010713	0.158957
O6	O	1.315123	0.180426	0.158959
O7	O	1.680600	0.163627	0.158952
Cu8	Cu	1.500194	0.169689	0.187989
Cu9	Cu	1.469985	0.199966	-0.188053
O10	O	1.489459	0.354766	0.158954
C11	C	1.255553	0.191992	-0.000027
C12	C	1.116110	0.188298	-0.000025
C13	C	0.826122	0.409925	-0.000080
C14	C	0.877660	0.525943	-0.000073
C15	C	1.008680	0.529417	-0.000048
C16	C	1.088166	0.416860	-0.000036
C17	C	1.036628	0.300842	-0.000043
C18	C	0.905604	0.297381	-0.000062
C19	C	1.064572	0.072280	-0.000032
C20	C	0.933553	0.068802	-0.000044
C21	C	1.144058	-0.040277	-0.000020
C22	C	1.092521	-0.156299	-0.000013
C23	C	0.961493	-0.159768	-0.000036
C24	C	0.882015	-0.047216	-0.000051
C25	C	1.492257	-0.044709	-0.000035
C26	C	1.488564	-0.184152	-0.000046
C27	C	1.460731	-0.156248	-0.346712
C28	C	1.445084	-0.207806	-0.520044
C29	C	1.441615	-0.338825	-0.520046
C30	C	1.453790	-0.418290	-0.346697
C31	C	1.469436	-0.366731	-0.173365
C32	C	1.472908	-0.235709	-0.173382
C33	C	1.497260	-0.394634	0.173297
C34	C	1.500739	-0.263616	0.173303
C35	C	1.509435	-0.474098	0.346645
C36	C	1.525091	-0.422541	0.519982
C37	C	1.528562	-0.291514	0.519977
C38	C	1.516386	-0.212058	0.346635
C39	C	1.714626	0.177663	-0.000041
C40	C	1.854067	0.181359	-0.000056
C41	C	1.477921	0.414365	-0.000034
C42	C	1.481614	0.553808	-0.000035
N43	N	1.521450	0.148393	0.452477
N44	N	1.448739	0.221252	-0.452541
H45	H	0.919539	-0.254243	-0.000053
O46	O	1.358810	0.311423	0.450366
C47	C	1.294624	0.375699	0.581439
H48	H	1.357526	0.366122	0.724164
H49	H	1.271842	0.480465	0.523458
H50	H	1.202603	0.332488	0.602682
H51	H	1.596820	0.072893	0.534132
O52	O	1.058783	0.642110	-0.000381
C53	C	1.120552	0.664189	-0.165023
H54	H	1.079756	0.607559	-0.280131
H55	H	1.105253	0.769755	-0.220308
H56	H	1.226590	0.633109	-0.127767
H57	H	0.719440	0.407106	-0.000067
H58	H	1.250740	-0.037440	-0.000009
O59	O	0.800275	0.635151	0.000005
C60	C	0.673577	0.607219	-0.000062
H61	H	0.672520	0.503682	0.060135
H62	H	0.622268	0.671455	0.092246
H63	H	0.623490	0.623935	-0.152617
H64	H	1.463568	-0.049566	-0.346727
H65	H	1.194847	0.419700	-0.000038
O66	O	0.754742	-0.050724	-0.000331
C67	C	0.705415	-0.101278	-0.165049
H68	H	0.784672	-0.161593	-0.219934
H69	H	0.627596	-0.162759	-0.128035
H70	H	0.664089	-0.020364	-0.280371
H71	H	1.428862	-0.380801	-0.661188
O72	O	1.169839	-0.265518	-0.000260
C73	C	1.233213	-0.257102	-0.164963
H74	H	1.236291	-0.152937	-0.219875
H75	H	1.334237	-0.306003	-0.127919
H76	H	1.180359	-0.305561	-0.280276
O77	O	1.433129	-0.130459	-0.688296
C78	C	1.325718	-0.040563	-0.698734
H79	H	1.302093	-0.028628	-0.548256
H80	H	1.346718	0.054487	-0.772065
H81	H	1.241488	-0.074854	-0.784322
H82	H	1.450948	-0.524969	-0.346714
H83	H	1.506602	-0.580779	0.346631
O84	O	1.519984	-0.084822	0.346727
C85	C	1.637337	-0.061969	0.441864
H86	H	1.710989	-0.146502	0.438832
H87	H	1.670106	0.027241	0.367179
H88	H	1.625811	-0.048164	0.596509
H89	H	1.534994	-0.487250	0.661108
H90	H	1.541284	-0.249543	0.661125
