data_functionalizedCrystal
_audit_creation_method	'MofGen! by Chris Wilmer'
_symmetry_space_group_name_H-M	'P1'
_symmetry_Int_Tables_number	1
_symmetry_cell_setting	triclinic
loop_
_symmetry_equiv_pos_as_xyz
  x,y,z
_cell_length_a	13.930277
_cell_length_b	19.288864
_cell_length_c	19.288865
_cell_angle_alpha	83.136245
_cell_angle_beta	90.009791
_cell_angle_gamma	90.021060
loop_
_atom_site_label
_atom_site_type_symbol
_atom_site_fract_x
_atom_site_fract_y
_atom_site_fract_z
O1	O	-0.080150	-0.921351	-0.086647
O2	O	0.419850	-0.421351	0.413353
O3	O	-0.080085	-0.719090	-0.098336
O4	O	0.419915	-0.219090	0.401664
O5	O	-0.080100	-0.826065	0.008639
O6	O	0.419900	-0.326065	0.508639
O7	O	-0.080135	-0.814376	-0.193622
O8	O	0.419865	-0.314376	0.306378
O9	O	0.079561	-0.826050	0.008641
O10	O	0.579561	-0.326050	0.508641
O11	O	0.079576	-0.719076	-0.098334
O12	O	0.579576	-0.219076	0.401666
O13	O	0.079512	-0.921336	-0.086645
O14	O	0.579512	-0.421336	0.413355
Zn15	Zn	0.104894	-0.820204	-0.092489
Zn16	Zn	0.604894	-0.320204	0.407511
Zn17	Zn	-0.105467	-0.820223	-0.092492
Zn18	Zn	0.394533	-0.320223	0.407508
O19	O	0.079527	-0.814362	-0.193620
O20	O	0.579527	-0.314362	0.306380
C21	C	-0.000246	-0.693207	-0.097959
C22	C	0.499754	-0.193207	0.402041
C23	C	-0.000221	-0.616103	-0.096830
C24	C	0.499779	-0.116103	0.403170
N25	N	0.248460	-0.820195	-0.092486
N26	N	0.748460	-0.320195	0.407514
N27	N	-0.249033	-0.820237	-0.092489
N28	N	0.250967	-0.320237	0.407511
C29	C	0.700736	-0.772853	-0.139842
C30	C	1.200736	-0.272853	0.360158
C31	C	0.700692	-0.867612	-0.045137
C32	C	1.200692	-0.367612	0.454863
C33	C	0.600196	-0.867604	-0.045134
C34	C	1.100196	-0.367604	0.454866
C35	C	0.549966	-0.820220	-0.092487
C36	C	1.049966	-0.320220	0.407513
C37	C	0.600231	-0.772845	-0.139842
C38	C	1.100231	-0.272845	0.360158
C39	C	0.549924	-0.914984	0.002215
C40	C	1.049924	-0.414984	0.502215
C41	C	0.449422	-0.914978	0.002219
C42	C	0.949422	-0.414978	0.502219
C43	C	0.399190	-0.867590	-0.045131
C44	C	0.899190	-0.367590	0.454869
C45	C	0.449461	-0.820212	-0.092488
C46	C	0.949461	-0.320212	0.407512
C47	C	0.399230	-0.772828	-0.139841
C48	C	0.899230	-0.272828	0.360159
C49	C	0.449500	-0.725446	-0.187195
C50	C	0.949500	-0.225446	0.312805
C51	C	0.549999	-0.725457	-0.187193
C52	C	1.049999	-0.225457	0.312807
C53	C	0.298691	-0.867579	-0.045134
C54	C	0.798691	-0.367579	0.454866
C55	C	0.298725	-0.772820	-0.139842
C56	C	0.798725	-0.272820	0.360158
C57	C	-0.000267	-0.825682	0.034516
C58	C	0.499733	-0.325682	0.534516
C59	C	-0.000258	-0.824553	0.111620
C60	C	0.499742	-0.324553	0.611620
C61	C	-0.000329	-0.947220	-0.087022
C62	C	0.499671	-0.447220	0.412978
C63	C	-0.000361	-1.024324	-0.088151
C64	C	0.499639	-0.524324	0.411849
C65	C	-0.000246	-0.571407	-0.159598
C66	C	0.499754	-0.071407	0.340402
C67	C	-0.000257	-0.498960	-0.158537
C68	C	0.499743	0.001040	0.341463
C69	C	-0.000261	-0.471212	-0.094705
C70	C	0.499739	0.028788	0.405295
C71	C	-0.000230	-0.515918	-0.031929
C72	C	0.499770	-0.015918	0.468071
C73	C	-0.000210	-0.588364	-0.032991
C74	C	0.499790	-0.088364	0.467009
C75	C	-0.056221	-0.362955	-0.044526
C76	C	0.443779	0.137045	0.455474
C77	C	-0.056247	-0.290511	-0.043467
C78	C	0.443753	0.209489	0.456533
C79	C	-0.000318	-0.247767	-0.091425
C80	C	0.499682	0.252233	0.408575
C81	C	0.055624	-0.277474	-0.140455
C82	C	0.555624	0.222526	0.359545
C83	C	0.055644	-0.349920	-0.141518
C84	C	0.555644	0.150080	0.358482
C85	C	-0.000282	-0.392658	-0.093546
C86	C	0.499718	0.107342	0.406454
C87	C	-0.000354	-0.124514	-0.153047
C88	C	0.499646	0.375486	0.346953
C89	C	-0.000359	-0.052066	-0.151984
C90	C	0.499641	0.447934	0.348016
C91	C	-0.000341	-0.069026	-0.025374
C92	C	0.499659	0.430974	0.474626
C93	C	-0.000327	-0.141473	-0.026439
C94	C	0.499673	0.358527	0.473561
C95	C	-0.000338	-0.169212	-0.090278
C96	C	0.499662	0.330788	0.409722
C97	C	-0.000309	-0.814745	-0.219497
C98	C	0.499691	-0.314745	0.280503
C99	C	-0.000324	-0.815874	-0.296601
C100	C	0.499676	-0.315874	0.203399
C101	C	-0.000273	-0.887321	0.156316
C102	C	0.499727	-0.387321	0.656316
C103	C	-0.000288	-0.886260	0.228763
C104	C	0.499712	-0.386260	0.728763
C105	C	-0.000268	-0.822428	0.256511
C106	C	0.499732	-0.322428	0.756511
C107	C	-0.000258	-0.759652	0.211805
C108	C	0.499742	-0.259652	0.711805
C109	C	-0.000253	-0.760714	0.139359
C110	C	0.499747	-0.260714	0.639359
C111	C	0.055674	-0.772243	0.364799
C112	C	0.555674	-0.272243	0.864799
C113	C	0.055675	-0.771183	0.437244
C114	C	0.555675	-0.271183	0.937244
C115	C	-0.000289	-0.819148	0.479956
C116	C	0.499711	-0.319148	0.979956
C117	C	-0.056240	-0.868185	0.450218
C118	C	0.443760	-0.368185	0.950218
C119	C	-0.056235	-0.869247	0.377772
C120	C	0.443765	-0.369247	0.877772
C121	C	-0.000274	-0.821269	0.335065
C122	C	0.499726	-0.321269	0.835065
C123	C	-0.000321	-0.880770	0.603209
C124	C	0.499679	-0.380770	1.103209
C125	C	-0.000342	-0.879707	0.675657
C126	C	0.499658	-0.379707	1.175657
C127	C	-0.000303	-0.753097	0.658697
C128	C	0.499697	-0.253097	1.158697
C129	C	-0.000292	-0.754162	0.586250
C130	C	0.499708	-0.254162	1.086250
C131	C	-0.000296	-0.818001	0.558511
C132	C	0.499704	-0.318001	1.058511
H133	H	0.257834	-0.734231	-0.178400
H134	H	0.757834	-0.234231	0.321600
F135	F	-0.000229	-0.486386	0.036006
F136	F	0.499771	0.013614	0.536006
F137	F	0.396030	-0.675022	-0.237594
F138	F	0.896030	-0.175022	0.262406
F139	F	-0.115785	-0.921431	0.346124
F140	F	0.384215	-0.421431	0.846124
F141	F	0.754151	-0.918044	0.005253
F142	F	1.254151	-0.418044	0.505253
H143	H	-0.000304	-0.937375	0.265162
H144	H	0.499696	-0.437375	0.765162
F145	F	0.754234	-0.722425	-0.190235
F146	F	1.254234	-0.222425	0.309765
F147	F	0.115152	-0.231988	-0.191501
F148	F	0.615152	0.268012	0.308499
H149	H	0.408499	-0.953558	0.040777
H150	H	0.908499	-0.453558	0.540777
H151	H	0.590934	-0.686881	-0.225747
H152	H	1.090934	-0.186881	0.274253
H153	H	-0.000374	-0.015674	-0.203099
H154	H	0.499626	0.484326	0.296901
H155	H	-0.000404	-0.046435	0.026600
H156	H	0.499596	0.453565	0.526600
H157	H	-0.101803	-0.266329	-0.003546
H158	H	0.398197	0.233671	0.496454
F159	F	-0.000322	-0.948712	0.573684
F160	F	0.499678	-0.448712	1.073684
F161	F	0.603382	-0.965415	0.052605
F162	F	1.103382	-0.465415	0.552605
F163	F	0.115183	-0.381534	-0.193696
F164	F	0.615183	0.118466	0.306304
F165	F	-0.000272	-0.687355	0.538679
F166	F	0.499728	-0.187355	1.038679
H167	H	-0.000311	-0.177866	0.024674
H168	H	0.499689	0.322134	0.524674
F169	F	0.245196	-0.918007	0.005257
F170	F	0.745196	-0.418007	0.505257
F171	F	-0.000255	-0.600925	-0.227541
F172	F	0.499745	-0.100925	0.272459
F173	F	-0.000282	-0.451382	-0.225346
F174	F	0.499718	0.048618	0.274654
H175	H	-0.101771	-0.397753	-0.005471
H176	H	0.398229	0.102247	0.494529
H177	H	-0.000189	-0.624756	0.018124
H178	H	0.499811	-0.124756	0.518124
F179	F	-0.000364	-0.946517	0.723227
F180	F	0.499636	-0.446517	1.223227
H181	H	-0.000280	-0.939303	0.133736
H182	H	0.499720	-0.439303	0.633736
H183	H	0.101251	-0.733182	0.330027
H184	H	0.601251	-0.233182	0.830027
F185	F	-0.115806	-0.919236	0.495670
F186	F	0.384194	-0.419236	0.995670
H187	H	-0.000349	-0.147101	-0.205028
H188	H	0.499651	0.352899	0.294972
F189	F	-0.000287	-0.685161	0.688223
F190	F	0.499713	-0.185161	1.188223
H191	H	0.101228	-0.731252	0.461451
H192	H	0.601228	-0.231252	0.961451
H193	H	-0.000244	-0.707679	0.234401
H194	H	0.499756	-0.207679	0.734401
H195	H	-0.000240	-0.709599	0.102967
H196	H	0.499760	-0.209599	0.602967
