data_functionalizedCrystal
_audit_creation_method	'MofGen! by Chris Wilmer'
_symmetry_space_group_name_H-M	'P1'
_symmetry_Int_Tables_number	1
_symmetry_cell_setting	triclinic
loop_
_symmetry_equiv_pos_as_xyz
  x,y,z
_cell_length_a	19.077105
_cell_length_b	12.827892
_cell_length_c	19.076919
_cell_angle_alpha	92.275535
_cell_angle_beta	90.076224
_cell_angle_gamma	87.711903
loop_
_atom_site_label
_atom_site_type_symbol
_atom_site_fract_x
_atom_site_fract_y
_atom_site_fract_z
Zn1	Zn	1.058323	-0.505562	-0.440440
Zn2	Zn	1.558323	-0.005562	0.059560
Zn3	Zn	1.062981	-0.673587	-0.322941
Zn4	Zn	1.562981	-0.173587	0.177059
Zn5	Zn	0.945540	-0.491563	-0.318233
Zn6	Zn	1.445540	0.008437	0.181767
Zn7	Zn	0.940802	-0.672957	-0.435693
Zn8	Zn	1.440802	-0.172957	0.064307
O9	O	1.001912	-0.585917	-0.379327
O10	O	1.501912	-0.085917	0.120673
O11	O	1.157274	-0.533973	-0.428810
O12	O	1.657274	-0.033973	0.071190
O13	O	1.051334	-0.643846	-0.223985
O14	O	1.551334	-0.143846	0.276015
O15	O	0.960534	-0.347187	-0.334460
O16	O	1.460534	0.152813	0.165540
O17	O	1.160695	-0.657421	-0.342484
O18	O	1.660695	-0.157421	0.157516
O19	O	1.043396	-0.357472	-0.424245
O20	O	1.543396	0.142528	0.075755
O21	O	0.965050	-0.510114	-0.220526
O22	O	1.465050	-0.010114	0.279474
O23	O	0.846579	-0.509503	-0.329857
O24	O	1.346579	-0.009503	0.170143
O25	O	0.952460	-0.656347	-0.534655
O26	O	1.452460	-0.156347	-0.034655
O27	O	0.843098	-0.642772	-0.416155
O28	O	1.343098	-0.142772	0.083845
O29	O	1.038802	-0.533362	-0.538142
O30	O	1.538802	-0.033362	-0.038142
O31	O	1.046740	-0.819737	-0.337881
O32	O	1.546740	-0.319737	0.162119
O33	O	0.956976	-0.819274	-0.420720
O34	O	1.456976	-0.319274	0.079280
C35	C	0.819342	-0.574551	-0.371981
C36	C	1.319342	-0.074551	0.128019
C37	C	0.741237	-0.569714	-0.368855
C38	C	1.241237	-0.069714	0.131145
C39	C	1.001868	-0.857424	-0.379313
C40	C	1.501868	-0.357424	0.120687
C41	C	1.001913	-0.973581	-0.379333
C42	C	1.501913	-0.473581	0.120667
C43	C	0.702753	-0.636925	-0.412246
C44	C	1.202753	-0.136925	0.087754
C45	C	0.629365	-0.632367	-0.409312
C46	C	1.129365	-0.132367	0.090688
C47	C	0.594463	-0.560602	-0.362983
C48	C	1.094463	-0.060602	0.137017
C49	C	0.632953	-0.493385	-0.319590
C50	C	1.132953	0.006615	0.180410
C51	C	0.706339	-0.497938	-0.322528
C52	C	1.206339	0.002062	0.177472
C53	C	0.375174	-0.539528	-0.349389
C54	C	0.875174	-0.039528	0.150611
C55	C	0.301782	-0.534981	-0.346453
C56	C	0.801782	-0.034981	0.153547
C57	C	0.298199	-0.673963	-0.436177
C58	C	0.798199	-0.173963	0.063823
C59	C	0.371587	-0.678514	-0.439108
C60	C	0.871587	-0.178514	0.060892
C61	C	0.410071	-0.611293	-0.395717
C62	C	0.910071	-0.111293	0.104283
N63	N	0.519449	-0.555944	-0.359982
N64	N	1.019449	-0.055944	0.140018
N65	N	0.485083	-0.615947	-0.398723
N66	N	0.985083	-0.115947	0.101277
C67	C	1.046380	-1.025566	-0.338391
C68	C	1.546380	-0.525566	0.161609
C69	C	1.046427	-1.145620	-0.338411
C70	C	1.546427	-0.645620	0.161589
C71	C	1.185194	-0.597329	-0.386702
C72	C	1.685194	-0.097329	0.113298
C73	C	1.263298	-0.602192	-0.389845
C74	C	1.763298	-0.102192	0.110155
C75	C	0.994583	-0.596346	-0.562607
C76	C	1.494583	-0.096346	-0.062607
C77	C	0.991460	-0.600790	-0.640711
C78	C	1.491460	-0.100790	-0.140711
C79	C	1.001974	-0.313353	-0.379357
C80	C	1.501974	0.186647	0.120643
C81	C	1.002000	-0.197202	-0.379370
C82	C	1.502000	0.302798	0.120630
C83	C	1.034945	-0.538849	-0.679221
C84	C	1.534945	-0.038849	-0.179221
C85	C	1.032002	-0.543020	-0.752607
C86	C	1.532002	-0.043020	-0.252607
C87	C	0.985578	-0.609138	-0.787481
C88	C	1.485578	-0.109138	-0.287481
C89	C	0.942089	-0.671081	-0.748966
C90	C	1.442089	-0.171081	-0.248966
C91	C	0.945028	-0.666904	-0.675581
C92	C	1.445028	-0.166904	-0.175581
C93	C	0.971962	-0.628492	-1.006763
C94	C	1.471962	-0.128492	-0.506763
C95	C	0.969027	-0.632667	-1.080153
C96	C	1.469027	-0.132667	-0.580153
C97	C	1.058939	-0.504604	-1.083789
C98	C	1.558939	-0.004604	-0.583789
C99	C	1.061878	-0.500438	-1.010402
C100	C	1.561878	-0.000438	-0.510402
C101	C	1.018386	-0.562376	-0.971894
C102	C	1.518386	-0.062376	-0.471894
N103	N	0.982570	-0.613406	-0.862494
N104	N	1.482570	-0.113406	-0.362494
N105	N	1.021391	-0.558103	-0.896882
N106	N	1.521391	-0.058103	-0.396882
C107	C	1.009252	-0.575456	-0.196761
C108	C	1.509252	-0.075456	0.303239
C109	C	1.012511	-0.570727	-0.118663
C110	C	1.512511	-0.070727	0.381337
H111	H	0.731165	-0.695367	-0.449970
H112	H	1.231165	-0.195367	0.050030
C113	C	0.748676	-0.424009	-0.274799
C114	C	1.248676	0.075991	0.225201
H115	H	0.797380	-0.436991	-0.283189
H116	H	1.297380	0.063009	0.216811
H117	H	0.738527	-0.435754	-0.227086
H118	H	1.238527	0.064246	0.272914
H119	H	0.736244	-0.353661	-0.284689
H120	H	1.236244	0.146339	0.215311
C121	C	0.263389	-0.456047	-0.295484
C122	C	0.763389	0.043953	0.204516
H123	H	0.214171	-0.462977	-0.299943
H124	H	0.714171	0.037023	0.200057
H125	H	0.275004	-0.387188	-0.306324
H126	H	0.775004	0.112812	0.193676
H127	H	0.277297	-0.469303	-0.248735
H128	H	0.777297	0.030697	0.251265
C129	C	0.950567	-1.136829	-0.426728
C130	C	1.450567	-0.636829	0.073272
H131	H	0.922698	-1.184765	-0.452425
H132	H	1.422698	-0.684765	0.047575
H133	H	0.976207	-1.097608	-0.458414
H134	H	1.476207	-0.597608	0.041586
H135	H	0.921054	-1.090873	-0.398557
H136	H	1.421054	-0.590873	0.101443
C137	C	1.086008	-0.466114	-0.640864
C138	C	1.586008	0.033886	-0.140864
H139	H	1.111478	-0.429813	-0.674312
H140	H	1.611478	0.070187	-0.174312
H141	H	1.117765	-0.506357	-0.613464
H142	H	1.617765	-0.006357	-0.113464
H143	H	1.060277	-0.417276	-0.611162
H144	H	1.560277	0.082724	-0.111162
C145	C	0.924129	-0.696628	-0.964410
C146	C	1.424129	-0.196628	-0.464410
H147	H	0.932520	-0.684667	-0.915709
H148	H	1.432520	-0.184667	-0.415709
H149	H	0.933916	-0.768164	-0.976843
H150	H	1.433916	-0.268164	-0.476843
H151	H	0.876436	-0.679073	-0.974538
H152	H	1.376436	-0.179073	-0.474538
H153	H	1.084418	-0.981195	-0.303327
H154	H	1.584418	-0.481195	0.196673
H155	H	1.084495	-1.190325	-0.303357
H156	H	1.584495	-0.690325	0.196643
H157	H	1.094347	-0.454176	-1.115150
H158	H	1.594347	0.045824	-0.615150
H159	H	0.909612	-0.717331	-0.644227
H160	H	1.409612	-0.217331	-0.144227
H161	H	0.931220	-0.686511	-1.108546
H162	H	1.431220	-0.186511	-0.608546
H163	H	0.399999	-0.736955	-0.476832
H164	H	0.899999	-0.236955	0.023168
H165	H	0.963881	-1.017954	-0.414402
H166	H	1.463881	-0.517954	0.085598
H167	H	1.067413	-0.492584	-0.783958
H168	H	1.567413	0.007416	-0.283958
H169	H	0.266859	-0.728689	-0.471504
H170	H	0.766859	-0.228689	0.028496
H171	H	1.099683	-0.446600	-0.982013
H172	H	1.599683	0.053400	-0.482013
C173	C	0.891024	-0.743810	-0.787327
C174	C	1.391024	-0.243810	-0.287327
H175	H	0.895505	-0.737436	-0.836548
H176	H	1.395505	-0.237436	-0.336548
H177	H	0.844296	-0.724895	-0.773400
H178	H	1.344296	-0.224895	-0.273400
H179	H	0.901779	-0.813981	-0.775704
H180	H	1.401779	-0.313981	-0.275704
H181	H	0.598034	-0.687098	-0.444645
H182	H	1.098034	-0.187098	0.055355
H183	H	0.406498	-0.484799	-0.314053
H184	H	0.906498	0.015201	0.185947
H185	H	0.604530	-0.434948	-0.281871
H186	H	1.104530	0.065052	0.218129
