data_functionalizedCrystal
_audit_creation_method	'MofGen! by Chris Wilmer'
_symmetry_space_group_name_H-M	'P1'
_symmetry_Int_Tables_number	1
_symmetry_cell_setting	triclinic
loop_
_symmetry_equiv_pos_as_xyz
  x,y,z
_cell_length_a	16.625539
_cell_length_b	13.897449
_cell_length_c	13.897448
_cell_angle_alpha	89.981028
_cell_angle_beta	89.974316
_cell_angle_gamma	90.015918
loop_
_atom_site_label
_atom_site_type_symbol
_atom_site_fract_x
_atom_site_fract_y
_atom_site_fract_z
Zn1	Zn	-0.455889	-1.474657	-0.383998
Zn2	Zn	-0.122556	-1.141323	-0.050665
Zn3	Zn	0.210778	-0.807990	0.282669
Zn4	Zn	-0.321058	-1.474564	-0.545306
Zn5	Zn	0.012275	-1.141231	-0.211973
Zn6	Zn	0.345609	-0.807898	0.121361
Zn7	Zn	-0.321072	-1.313359	-0.384030
Zn8	Zn	0.012261	-0.980026	-0.050697
Zn9	Zn	0.345594	-0.646693	0.282637
Zn10	Zn	-0.455851	-1.313328	-0.545256
Zn11	Zn	-0.122517	-0.979994	-0.211923
Zn12	Zn	0.210816	-0.646661	0.121410
O13	O	-0.388468	-1.393977	-0.464648
O14	O	-0.055134	-1.060644	-0.131314
O15	O	0.278199	-0.727310	0.202019
O16	O	-0.438014	-1.609626	-0.405403
O17	O	-0.104680	-1.276293	-0.072070
O18	O	0.228653	-0.942959	0.261264
O19	O	-0.208228	-1.453155	-0.523946
O20	O	0.125106	-1.119821	-0.190613
O21	O	0.458439	-0.786488	0.142720
O22	O	-0.338978	-1.334808	-0.249044
O23	O	-0.005645	-1.001475	0.084289
O24	O	0.327689	-0.668141	0.417622
O25	O	-0.338954	-1.609558	-0.523915
O26	O	-0.005621	-1.276225	-0.190582
O27	O	0.327713	-0.942892	0.142751
O28	O	-0.438027	-1.453312	-0.249021
O29	O	-0.104694	-1.119979	0.084313
O30	O	0.228639	-0.786646	0.417646
O31	O	-0.208238	-1.334718	-0.405458
O32	O	0.125095	-1.001385	-0.072124
O33	O	0.458429	-0.668052	0.261209
O34	O	-0.338941	-1.178374	-0.405410
O35	O	-0.005607	-0.845040	-0.072076
O36	O	0.327726	-0.511707	0.261257
O37	O	-0.568688	-1.334754	-0.523831
O38	O	-0.235355	-1.001420	-0.190498
O39	O	0.097978	-0.668087	0.142836
O40	O	-0.437962	-1.178350	-0.523862
O41	O	-0.104629	-0.845017	-0.190529
O42	O	0.228705	-0.511684	0.142805
O43	O	-0.568716	-1.453281	-0.405355
O44	O	-0.235383	-1.119948	-0.072022
O45	O	0.097950	-0.786615	0.261312
O46	O	-0.338917	-1.453124	-0.680281
O47	O	-0.005583	-1.119791	-0.346948
O48	O	0.327750	-0.786457	-0.013614
O49	O	-0.437948	-1.334664	-0.680245
O50	O	-0.104615	-1.001331	-0.346911
O51	O	0.228719	-0.667997	-0.013578
C52	C	-0.388444	-1.393907	-0.715262
C53	C	-0.055111	-1.060573	-0.381929
C54	C	0.278222	-0.727240	-0.048595
C55	C	-0.388461	-1.393965	-0.822476
C56	C	-0.055128	-1.060631	-0.489142
C57	C	0.278205	-0.727298	-0.155809
C58	C	-0.388449	-1.143363	-0.464635
C59	C	-0.055116	-0.810029	-0.131301
C60	C	0.278217	-0.476696	0.202032
C61	C	-0.388460	-1.036149	-0.464652
C62	C	-0.055127	-0.702815	-0.131319
C63	C	0.278206	-0.369482	0.202014
C64	C	-0.598777	-1.394024	-0.464584
C65	C	-0.265443	-1.060691	-0.131251
C66	C	0.067890	-0.727358	0.202083
C67	C	-0.688398	-1.394044	-0.464557
C68	C	-0.355064	-1.060711	-0.131223
C69	C	-0.021731	-0.727378	0.202110
C70	C	-0.761180	-1.394060	-0.464535
C71	C	-0.427847	-1.060727	-0.131202
C72	C	-0.094514	-0.727394	0.202131
C73	C	-0.852489	-1.394083	-0.464500
C74	C	-0.519155	-1.060749	-0.131166
C75	C	-0.185822	-0.727416	0.202167
C76	C	-0.925265	-1.394105	-0.464466
C77	C	-0.591932	-1.060772	-0.131132
C78	C	-0.258599	-0.727439	0.202201
C79	C	-1.016580	-1.394129	-0.464431
C80	C	-0.683246	-1.060796	-0.131097
C81	C	-0.349913	-0.727463	0.202236
C82	C	-0.178977	-1.393985	-0.464641
C83	C	0.154357	-1.060652	-0.131308
C84	C	0.487690	-0.727319	0.202025
C85	C	-0.089356	-1.394152	-0.464397
C86	C	0.243977	-1.060819	-0.131063
C87	C	0.577311	-0.727486	0.202270
C88	C	-0.388486	-1.645570	-0.464661
C89	C	-0.055153	-1.312237	-0.131328
C90	C	0.278180	-0.978903	0.202005
C91	C	-0.388495	-1.752784	-0.464667
C92	C	-0.055161	-1.419451	-0.131334
C93	C	0.278172	-1.086117	0.202000
C94	C	-0.388482	-0.839854	-0.464656
C95	C	-0.055148	-0.506520	-0.131322
C96	C	0.278185	-0.173187	0.202011
C97	C	-0.388468	-0.949086	-0.464651
C98	C	-0.055134	-0.615753	-0.131318
C99	C	0.278199	-0.282419	0.202016
C100	C	-0.388512	-1.394066	-1.018771
C101	C	-0.055178	-1.060733	-0.685438
C102	C	0.278155	-0.727399	-0.352104
C103	C	-0.388486	-1.394007	-0.909538
C104	C	-0.055153	-1.060674	-0.576205
C105	C	0.278181	-0.727340	-0.242872
C106	C	-0.388509	-1.394074	-0.213055
C107	C	-0.055175	-1.060741	0.120279
C108	C	0.278158	-0.727407	0.453612
C109	C	-0.388526	-1.394115	-0.105841
C110	C	-0.055193	-1.060782	0.227493
C111	C	0.278141	-0.727449	0.560826
