data_functionalizedCrystal
_audit_creation_method	'MofGen! by Chris Wilmer'
_symmetry_space_group_name_H-M	'P1'
_symmetry_Int_Tables_number	1
_symmetry_cell_setting	triclinic
loop_
_symmetry_equiv_pos_as_xyz
  x,y,z
_cell_length_a	12.645331
_cell_length_b	18.101397
_cell_length_c	12.645323
_cell_angle_alpha	90.034448
_cell_angle_beta	90.021793
_cell_angle_gamma	90.019444
loop_
_atom_site_label
_atom_site_type_symbol
_atom_site_fract_x
_atom_site_fract_y
_atom_site_fract_z
Zn1	Zn	1.620702	-0.294829	0.599390
Zn2	Zn	1.620577	-0.418684	0.422107
Zn3	Zn	1.443419	-0.294859	0.422135
Zn4	Zn	1.443389	-0.418631	0.599322
O5	O	1.532022	-0.356751	0.510738
O6	O	1.769032	-0.311269	0.575890
O7	O	1.597037	-0.402293	0.273763
O8	O	1.467000	-0.191222	0.445688
O9	O	1.768941	-0.402264	0.445641
O10	O	1.597249	-0.191200	0.575917
O11	O	1.466880	-0.311319	0.273784
O12	O	1.295068	-0.311268	0.445622
O13	O	1.466950	-0.402175	0.747679
O14	O	1.295046	-0.402203	0.575801
O15	O	1.597220	-0.311218	0.747729
O16	O	1.597009	-0.522310	0.445575
O17	O	1.466829	-0.522271	0.575774
C18	C	1.256592	-0.356733	0.510708
C19	C	1.138762	-0.356744	0.510720
C20	C	0.971176	-0.299273	0.429276
C21	C	1.093736	-0.299422	0.428917
C22	C	1.094237	-0.434758	0.480190
C23	C	0.971638	-0.434444	0.479635
C24	C	0.971612	-0.336942	0.623008
C25	C	1.094218	-0.335200	0.622384
C26	C	1.531931	-0.549162	0.510687
C27	C	1.531989	-0.631476	0.510701
C28	C	1.532125	-0.930567	0.510797
C29	C	1.613801	-0.899235	0.428660
C30	C	1.614084	-0.813616	0.428873
C31	C	1.532058	-0.782184	0.510748
C32	C	1.562347	-0.813186	0.622490
C33	C	1.562979	-0.898831	0.622043
C34	C	1.419941	-0.899075	0.482160
C35	C	1.420495	-0.813426	0.479666
C36	C	1.532018	-0.698325	0.510728
C37	C	1.532167	-1.014426	0.510826
C38	C	1.808527	-0.356769	0.510770
C39	C	1.926357	-0.356777	0.510783
C40	C	1.532096	-0.356687	0.787244
C41	C	1.532127	-0.356660	0.905074
C42	C	1.532142	-0.163589	0.510813
C43	C	1.532193	-0.081275	0.510845
C44	C	1.532009	-0.356761	0.235309
C45	C	1.532183	-0.356580	0.117479
C46	C	1.450179	-0.413869	0.949925
C47	C	1.449890	-0.413654	1.072485
C48	C	1.502263	-0.278489	1.072991
C49	C	1.501636	-0.278867	0.950393
C50	C	1.644214	-0.376842	0.950261
C51	C	1.643646	-0.378517	1.072867
H52	H	1.124892	-0.451867	0.399029
H53	H	0.940329	-0.312237	0.346603
H54	H	1.697184	-0.793073	0.447820
H55	H	1.644980	-0.918750	0.646300
Br56	Br	0.920127	-0.243779	0.669280
Br57	Br	1.582608	-0.933650	0.290143
H58	H	1.643430	-0.791679	0.647158
H59	H	1.123326	-0.277790	0.645405
H60	H	1.707957	-0.339888	1.103500
Br61	Br	0.922078	-0.202556	0.460827
H62	H	1.696447	-0.920703	0.447390
Br63	Br	1.145302	-0.399917	0.729024
Br64	Br	1.142827	-0.508080	0.576039
Br65	Br	1.142545	-0.321266	0.290305
H66	H	1.356366	-0.792037	0.535110
Br67	Br	1.367251	-0.249494	1.124163
Br68	Br	0.923887	-0.462477	0.342893
Br69	Br	1.374012	-0.935184	0.348708
Br70	Br	0.923308	-0.406749	0.724229
Br71	Br	1.468120	-0.933376	0.727509
Br72	Br	1.745975	-0.307398	0.901916
H73	H	1.504676	-0.792823	0.685334
Br74	Br	1.689700	-0.470184	0.898724
H75	H	1.397656	-0.793171	0.397433
Br76	Br	1.318510	-0.932847	0.581868
H77	H	1.123840	-0.241571	0.448055
H78	H	1.468621	-0.471971	0.920437
H79	H	0.941990	-0.478739	0.536411
Br80	Br	1.481016	-0.510156	1.122624
Br81	Br	1.582420	-0.778681	0.290794
H82	H	1.367597	-0.400654	0.919115
H83	H	1.366852	-0.400254	1.101813
Br84	Br	1.681265	-0.474307	1.121324
H85	H	1.558749	-0.234771	0.920724
Br86	Br	1.365098	-0.250405	0.902726
H87	H	1.560138	-0.234675	1.102136
