data_functionalizedCrystal
_audit_creation_method	'MofGen! by Chris Wilmer'
_symmetry_space_group_name_H-M	'P1'
_symmetry_Int_Tables_number	1
_symmetry_cell_setting	triclinic
loop_
_symmetry_equiv_pos_as_xyz
  x,y,z
_cell_length_a	15.944545
_cell_length_b	14.421503
_cell_length_c	14.044220
_cell_angle_alpha	89.996304
_cell_angle_beta	88.342525
_cell_angle_gamma	90.004847
loop_
_atom_site_label
_atom_site_type_symbol
_atom_site_fract_x
_atom_site_fract_y
_atom_site_fract_z
O1	O	1.123683	0.077054	0.122209
O2	O	1.623683	0.577054	0.622209
O3	O	0.880262	0.077069	0.137287
O4	O	1.380262	0.577069	0.637287
O5	O	0.998319	0.077053	-0.008236
O6	O	1.498319	0.577053	0.491764
O7	O	1.005626	0.077070	0.267733
O8	O	1.505626	0.577070	0.767733
O9	O	0.998299	-0.077171	-0.008215
O10	O	1.498299	0.422829	0.491785
O11	O	0.880242	-0.077154	0.137309
O12	O	1.380242	0.422846	0.637309
O13	O	1.123663	-0.077170	0.122231
O14	O	1.623663	0.422830	0.622231
Cu15	Cu	1.001951	-0.091244	0.129772
Cu16	Cu	1.501951	0.408756	0.629772
Cu17	Cu	1.001974	0.091143	0.129746
Cu18	Cu	1.501974	0.591143	0.629746
O19	O	1.005607	-0.077153	0.267755
O20	O	1.505607	0.422847	0.767755
C21	C	0.848911	-0.000041	0.136673
C22	C	1.348911	0.499959	0.636673
C23	C	0.755525	-0.000035	0.134800
C24	C	1.255525	0.499965	0.634800
C25	C	0.477719	-0.000051	0.038999
C26	C	0.977719	0.499949	0.538999
C27	C	0.531749	-0.076091	0.085197
C28	C	1.031749	0.423909	0.585197
C29	C	0.419380	-0.000051	0.128119
C30	C	0.919380	0.499949	0.628119
C31	C	0.531751	0.075962	0.085200
C32	C	1.031751	0.575962	0.585200
C33	C	0.584539	-0.000042	0.131396
C34	C	1.084539	0.499958	0.631396
C35	C	0.472181	-0.076154	0.174293
C36	C	0.972181	0.423846	0.674293
C37	C	0.472178	0.075967	0.174282
C38	C	0.972178	0.575967	0.674282
C39	C	0.526180	-0.000091	0.220546
C40	C	1.026180	0.499909	0.720546
C41	C	0.324237	-0.000058	0.126228
C42	C	0.824237	0.499942	0.626228
C43	C	0.679681	-0.000042	0.133294
C44	C	1.179681	0.499958	0.633294
N45	N	1.001941	-0.219525	0.129789
N46	N	1.501941	0.280475	0.629789
C47	C	0.947338	-0.469171	0.197049
C48	C	1.447338	0.030829	0.697049
C49	C	1.024616	-0.530977	0.215450
C50	C	1.524616	-0.030977	0.715450
C51	C	1.001959	-0.408686	0.129767
C52	C	1.501959	0.091314	0.629767
C53	C	0.924703	-0.530974	0.111388
C54	C	1.424703	-0.030974	0.611388
C55	C	1.001971	-0.591408	0.129747
C56	C	1.501971	-0.091408	0.629747
C57	C	1.079279	-0.469132	0.148210
C58	C	1.579279	0.030868	0.648210
C59	C	0.979312	-0.469123	0.044111
C60	C	1.479312	0.030877	0.544111
C61	C	1.056643	-0.530902	0.062475
C62	C	1.556643	-0.030902	0.562475
C63	C	1.001952	-0.303425	0.129780
C64	C	1.501952	0.196575	0.629780
C65	C	1.001987	-0.696667	0.129732
C66	C	1.501987	-0.196667	0.629732
C67	C	1.155014	-0.000058	0.122845
C68	C	1.655014	0.499942	0.622845
C69	C	1.248401	-0.000057	0.124718
C70	C	1.748401	0.499943	0.624718
C71	C	0.995110	-0.000059	-0.043540
C72	C	1.495110	0.499941	0.456460
C73	C	0.985569	-0.000060	-0.148766
C74	C	1.485569	0.499940	0.351234
N75	N	1.001991	0.219425	0.129721
N76	N	1.501991	0.719425	0.629721
C77	C	0.968125	-0.000045	-0.341428
C78	C	1.468125	0.499955	0.158572
C79	C	1.035796	-0.000047	-0.399059
C80	C	1.535796	0.499953	0.100941
C81	C	1.026090	-0.000039	-0.506263
C82	C	1.526090	0.499961	-0.006263
C83	C	0.977830	-0.000054	-0.234215
C84	C	1.477830	0.499946	0.265785
C85	C	1.008815	-0.000039	0.303058
C86	C	1.508815	0.499961	0.803058
C87	C	1.018356	-0.000032	0.408285
C88	C	1.518356	0.499968	0.908285
H89	H	0.557853	-0.140381	0.047569
H90	H	1.057853	0.359619	0.547569
H91	H	0.446179	-0.140508	0.211911
H92	H	0.946179	0.359492	0.711911
H93	H	0.901202	-0.442067	0.253994
H94	H	1.401202	0.057933	0.753994
N95	N	0.953892	-0.433101	-0.051794
N96	N	1.453892	0.066899	0.448206
H97	H	0.954614	-0.363073	-0.051254
H98	H	1.454614	0.136927	0.448746
H99	H	0.994553	-0.456600	-0.102724
H100	H	1.494553	0.043400	0.397276
N101	N	0.449341	-0.000167	-0.062652
N102	N	0.949341	0.499833	0.437348
H103	H	0.414951	0.057279	-0.074509
H104	H	0.914951	0.557279	0.425491
H105	H	0.500029	-0.000842	-0.107467
H106	H	1.000029	0.499158	0.392533
H107	H	1.102894	-0.557836	0.005565
H108	H	1.602894	-0.057836	0.505565
N109	N	0.838158	-0.566967	0.090804
N110	N	1.338158	-0.066967	0.590804
H111	H	0.796946	-0.544514	0.141681
H112	H	1.296946	-0.044514	0.641681
H113	H	0.820692	-0.543497	0.026587
H114	H	1.320692	-0.043497	0.526587
H115	H	1.043782	-0.558146	0.287878
H116	H	1.543782	-0.058146	0.787878
H117	H	0.547424	-0.000131	0.297356
H118	H	1.047424	0.499869	0.797356
H119	H	0.557857	0.140243	0.047538
H120	H	1.057857	0.640243	0.547538
H121	H	0.902906	-0.000039	-0.372600
H122	H	1.402906	0.499961	0.127400
N123	N	0.437563	0.161121	0.224088
N124	N	0.937563	0.661121	0.724088
H125	H	0.485405	0.200125	0.247422
H126	H	0.985405	0.700125	0.747422
H127	H	0.403665	0.198476	0.178082
H128	H	0.903665	0.698476	0.678082
N129	N	1.165859	-0.433312	0.168899
N130	N	1.665859	0.066688	0.668899
H131	H	1.165316	-0.363280	0.168806
H132	H	1.665316	0.136720	0.668806
H133	H	1.183041	-0.456425	0.233358
H134	H	1.683041	0.043575	0.733358
H135	H	1.101020	0.000011	-0.367886
H136	H	1.601020	0.500011	0.132114
