data_functionalizedCrystal
_audit_creation_method	'MofGen! by Chris Wilmer'
_symmetry_space_group_name_H-M	'P1'
_symmetry_Int_Tables_number	1
_symmetry_cell_setting	triclinic
loop_
_symmetry_equiv_pos_as_xyz
  x,y,z
_cell_length_a	19.188905
_cell_length_b	27.731996
_cell_length_c	26.809956
_cell_angle_alpha	90.001656
_cell_angle_beta	90.015923
_cell_angle_gamma	82.877971
loop_
_atom_site_label
_atom_site_type_symbol
_atom_site_fract_x
_atom_site_fract_y
_atom_site_fract_z
O1	O	0.925761	0.060284	0.041568
O2	O	1.259094	0.393618	0.374902
O3	O	1.592427	0.726951	0.708235
O4	O	0.722393	0.068421	0.041552
O5	O	1.055726	0.401754	0.374885
O6	O	1.389059	0.735088	0.708219
O7	O	0.830412	-0.006027	0.041550
O8	O	1.163745	0.327306	0.374883
O9	O	1.497079	0.660640	0.708217
O10	O	0.817742	0.134732	0.041570
O11	O	1.151075	0.468065	0.374904
O12	O	1.484408	0.801399	0.708237
O13	O	0.830391	-0.006016	-0.041409
O14	O	1.163725	0.327318	0.291924
O15	O	1.497058	0.660651	0.625257
O16	O	0.722372	0.068432	-0.041407
O17	O	1.055706	0.401766	0.291926
O18	O	1.389039	0.735099	0.625259
O19	O	0.925740	0.060296	-0.041391
O20	O	1.259074	0.393629	0.291942
O21	O	1.592407	0.726962	0.625276
Zn22	Zn	0.824053	0.064366	-0.054571
Zn23	Zn	1.157386	0.397699	0.278763
Zn24	Zn	1.490720	0.731032	0.612096
Zn25	Zn	0.824080	0.064351	0.054732
Zn26	Zn	1.157413	0.397684	0.388065
Zn27	Zn	1.490747	0.731017	0.721398
O28	O	0.817721	0.134744	-0.041389
O29	O	1.151055	0.468077	0.291944
O30	O	1.484388	0.801410	0.625278
C31	C	0.696373	0.068165	0.000070
C32	C	1.029706	0.401498	0.333404
C33	C	1.363040	0.734832	0.666737
C34	C	0.618873	0.067380	0.000064
C35	C	0.952206	0.400714	0.333397
C36	C	1.285539	0.734047	0.666730
C37	C	0.582495	0.066997	0.045286
C38	C	0.915828	0.400330	0.378619
C39	C	1.249161	0.733664	0.711953
C40	C	0.509676	0.066254	0.045292
C41	C	0.843009	0.399587	0.378625
C42	C	1.176343	0.732921	0.711959
C43	C	0.473240	0.065885	0.000073
C44	C	0.806574	0.399218	0.333406
C45	C	1.139907	0.732551	0.666740
C46	C	0.509627	0.066271	-0.045155
C47	C	0.842960	0.399604	0.288178
C48	C	1.176293	0.732937	0.621511
C49	C	0.582443	0.067018	-0.045160
C50	C	0.915776	0.400352	0.288173
C51	C	1.249110	0.733685	0.621507
N52	N	0.364402	0.037207	-0.033583
N53	N	0.697736	0.370540	0.299750
N54	N	1.031069	0.703874	0.633084
N55	N	0.295230	0.036496	-0.033575
N56	N	0.628563	0.369829	0.299758
N57	N	0.961897	0.703162	0.633091
C58	C	0.253849	0.063633	0.000085
C59	C	0.587182	0.396966	0.333418
C60	C	0.920515	0.730299	0.666752
N61	N	0.284254	0.091502	0.033745
N62	N	0.617587	0.424835	0.367078
N63	N	0.950920	0.758169	0.700411
N64	N	0.353433	0.092211	0.033739
N65	N	0.686766	0.425545	0.367072
N66	N	1.020099	0.758878	0.700405
C67	C	0.394283	0.065074	0.000073
C68	C	0.727616	0.398408	0.333407
C69	C	1.060950	0.731741	0.666740
C70	C	0.138512	0.062445	0.045317
C71	C	0.471845	0.395778	0.378650
C72	C	0.805179	0.729111	0.711984
C73	C	0.065691	0.061705	0.045321
C74	C	0.399025	0.395038	0.378654
C75	C	0.732358	0.728372	0.711988
C76	C	0.065644	0.061717	-0.045127
C77	C	0.398978	0.395050	0.288206
C78	C	0.732311	0.728383	0.621539
C79	C	0.138462	0.062461	-0.045130
C80	C	0.471796	0.395795	0.288203
C81	C	0.805129	0.729128	0.621536
C82	C	0.174892	0.062823	0.000093
C83	C	0.508226	0.396156	0.333427
C84	C	0.841559	0.729490	0.666760
C85	C	0.830141	-0.024029	0.000068
C86	C	1.163475	0.309304	0.333402
C87	C	1.496808	0.642637	0.666735
C88	C	0.829357	-0.077688	0.000063
C89	C	1.162691	0.255645	0.333397
C90	C	1.496024	0.588979	0.666730
C91	C	0.824436	-0.410425	0.045308
C92	C	1.157770	-0.077092	0.378642
C93	C	1.491103	0.256241	0.711975
C94	C	0.821459	-0.612092	0.045317
C95	C	1.154793	-0.278759	0.378650
C96	C	1.488126	0.054574	0.711984
O97	O	0.821054	-0.638170	0.083776
O98	O	1.154387	-0.304836	0.417109
O99	O	1.487720	0.028497	0.750443
N100	N	0.821078	-0.637305	0.000096
N101	N	1.154412	-0.303971	0.333430
N102	N	1.487745	0.029362	0.666763
C103	C	0.821437	-0.612096	-0.045130
C104	C	1.154771	-0.278763	0.288204
C105	C	1.488104	0.054570	0.621537
O106	O	0.821038	-0.638167	-0.083593
O107	O	1.154371	-0.304834	0.249741
O108	O	1.487704	0.028499	0.583074
C109	C	0.824409	-0.410430	-0.045138
C110	C	1.157743	-0.077096	0.288196
C111	C	1.491076	0.256237	0.621529
C112	C	0.824797	-0.385221	0.000086
C113	C	1.158130	-0.051887	0.333419
C114	C	1.491464	0.281446	0.666753
C115	C	0.824823	-0.385216	0.090528
C116	C	1.158157	-0.051883	0.423862
C117	C	1.491490	0.281450	0.757195
C118	C	0.825571	-0.334803	0.090526
C119	C	1.158905	-0.001470	0.423859
C120	C	1.492238	0.331864	0.757192
C121	C	0.825932	-0.309599	0.045303
C122	C	1.159266	0.023735	0.378637
C123	C	1.492599	0.357068	0.711970
C124	C	0.825545	-0.334807	0.000083
C125	C	1.158878	-0.001474	0.333417
C126	C	1.492212	0.331859	0.666750
C127	C	0.824763	-0.385222	-0.090363
C128	C	1.158096	-0.051888	0.242970
C129	C	1.491430	0.281445	0.576303
C130	C	0.825504	-0.334802	-0.090361
C131	C	1.158838	-0.001468	0.242972
C132	C	1.492171	0.331865	0.576305
C133	C	0.825892	-0.309593	-0.045138
C134	C	1.159225	0.023740	0.288196
C135	C	1.492559	0.357074	0.621529
C136	C	0.826654	-0.259189	-0.045142
C137	C	1.159987	0.074144	0.288191
C138	C	1.493321	0.407477	0.621525
N139	N	0.827035	-0.233977	0.000079
N140	N	1.160368	0.099356	0.333412
N141	N	1.493702	0.432689	0.666745
C142	C	0.826674	-0.259182	0.045301
C143	C	1.160007	0.074151	0.378635
C144	C	1.493341	0.407485	0.711968
C145	C	0.819878	-0.717974	-0.045122
C146	C	1.153212	-0.384641	0.288211
C147	C	1.486545	-0.051308	0.621544
C148	C	0.819137	-0.768391	-0.045121
C149	C	1.152470	-0.435058	0.288213
C150	C	1.485803	-0.101724	0.621546
C151	C	0.819157	-0.768383	0.045326
C152	C	1.152491	-0.435050	0.378660
C153	C	1.485824	-0.101717	0.711993
C154	C	0.819904	-0.717966	0.045324
C155	C	1.153237	-0.384633	0.378657
C156	C	1.486571	-0.051300	0.711991
C157	C	0.820259	-0.692762	0.000098
C158	C	1.153592	-0.359429	0.333432
C159	C	1.486926	-0.026096	0.666765
C160	C	0.828246	-0.153310	0.045292
C161	C	1.161579	0.180023	0.378626
C162	C	1.494912	0.513356	0.711959
C163	C	0.828997	-0.102893	0.045286
C164	C	1.162330	0.230441	0.378619
C165	C	1.495663	0.563774	0.711953
C166	C	0.828972	-0.102904	-0.045161
C167	C	1.162305	0.230429	0.288173
C168	C	1.495639	0.563763	0.621506
C169	C	0.828225	-0.153318	-0.045154
C170	C	1.161558	0.180016	0.288179
C171	C	1.494891	0.513349	0.621512
C172	C	0.827859	-0.178519	0.000076
C173	C	1.161193	0.154814	0.333410
C174	C	1.494526	0.488147	0.666743
O175	O	0.827052	-0.233081	-0.083581
O176	O	1.160385	0.100253	0.249753
O177	O	1.493719	0.433586	0.583086
O178	O	0.827058	-0.233101	0.083758
O179	O	1.160391	0.100233	0.417092
O180	O	1.493725	0.433566	0.750425
C181	C	0.823688	-0.460839	0.045311
C182	C	1.157022	-0.127505	0.378644
C183	C	1.490355	0.205828	0.711978
C184	C	0.823301	-0.486048	0.000091
C185	C	1.156634	-0.152714	0.333424
C186	C	1.489968	0.180619	0.666758
C187	C	0.823662	-0.460843	-0.045132
C188	C	1.156995	-0.127510	0.288202
C189	C	1.490329	0.205824	0.621535
C190	C	0.822559	-0.536464	0.000093
C191	C	1.155893	-0.203131	0.333426
C192	C	1.489226	0.130202	0.666760
C193	C	0.822198	-0.561669	0.045315
C194	C	1.155532	-0.228335	0.378649
C195	C	1.488865	0.104998	0.711982
C196	C	0.822579	-0.536457	0.090536
C197	C	1.155913	-0.203123	0.423869
C198	C	1.489246	0.130210	0.757203
C199	C	0.823327	-0.486043	0.090534
C200	C	1.156661	-0.152710	0.423867
C201	C	1.489994	0.180623	0.757200
C202	C	0.823281	-0.486055	-0.090352
C203	C	1.156614	-0.152722	0.242981
C204	C	1.489948	0.180611	0.576314
C205	C	0.822534	-0.536469	-0.090346
C206	C	1.155867	-0.203135	0.242987
C207	C	1.489201	0.130198	0.576321
C208	C	0.822173	-0.561673	-0.045123
C209	C	1.155506	-0.228340	0.288210
C210	C	1.488840	0.104993	0.621543
C211	C	0.951760	0.060551	0.000092
C212	C	1.285093	0.393885	0.333425
C213	C	1.618427	0.727218	0.666759
C214	C	1.029260	0.061336	0.000102
C215	C	1.362594	0.394670	0.333435
C216	C	1.695927	0.728003	0.666769
C217	C	0.817992	0.152746	0.000094
C218	C	1.151325	0.486079	0.333427
C219	C	1.484658	0.819413	0.666760
C220	C	0.818776	0.206405	0.000102
C221	C	1.152109	0.539738	0.333435
C222	C	1.485442	0.873071	0.666769
N223	N	0.824040	0.064376	-0.129167
N224	N	1.157373	0.397709	0.204167
N225	N	1.490707	0.731042	0.537500
C226	C	0.871905	0.031393	-0.473794
C227	C	1.205238	0.364727	-0.140460
C228	C	1.538571	0.698060	0.192873
C229	C	0.871921	0.031386	-0.682671
C230	C	1.205255	0.364719	-0.349338
C231	C	1.538588	0.698053	-0.016005
O232	O	0.912589	0.003346	-0.709676
O233	O	1.245922	0.336680	-0.376343
O234	O	1.579256	0.670013	-0.043009
N235	N	0.824084	0.064340	-0.708794
N236	N	1.157417	0.397673	-0.375460
N237	N	1.490751	0.731007	-0.042127
C238	C	0.776236	0.097296	-0.682694
C239	C	1.109569	0.430630	-0.349360
C240	C	1.442903	0.763963	-0.016027
O241	O	0.735543	0.125322	-0.709705
O242	O	1.068876	0.458656	-0.376372
O243	O	1.402210	0.791989	-0.043038
C244	C	0.776217	0.097301	-0.473817
C245	C	1.109550	0.430634	-0.140483
C246	C	1.442883	0.763968	0.192850
C247	C	0.824062	0.064348	-0.447697
C248	C	1.157395	0.397681	-0.114364
C249	C	1.490728	0.731015	0.218970
C250	C	0.919745	-0.001557	-0.447674
C251	C	1.253079	0.331776	-0.114341
C252	C	1.586412	0.665109	0.218993
C253	C	0.919743	-0.001553	-0.395458
C254	C	1.253077	0.331780	-0.062124
C255	C	1.586410	0.665113	0.271209
C256	C	0.871900	0.031401	-0.369361
C257	C	1.205234	0.364735	-0.036028
C258	C	1.538567	0.698068	0.297306
C259	C	0.824060	0.064352	-0.395481
C260	C	1.157393	0.397685	-0.062147
C261	C	1.490726	0.731019	0.271186
C262	C	0.728366	0.130255	-0.447718
C263	C	1.061699	0.463588	-0.114384
C264	C	1.395032	0.796921	0.218949
C265	C	0.728364	0.130252	-0.395495
C266	C	1.061697	0.463585	-0.062162
C267	C	1.395031	0.796919	0.271172
C268	C	0.776209	0.097299	-0.369375
C269	C	1.109543	0.430632	-0.036042
C270	C	1.442876	0.763966	0.297291
C271	C	0.776215	0.097311	-0.317168
C272	C	1.109548	0.430644	0.016165
C273	C	1.442881	0.763977	0.349499
N274	N	0.824052	0.064356	-0.291046
N275	N	1.157385	0.397690	0.042288
N276	N	1.490719	0.731023	0.375621
C277	C	0.871895	0.031402	-0.317142
C278	C	1.205228	0.364735	0.016191
C279	C	1.538562	0.698068	0.349525
C280	C	0.776250	0.097292	-0.792357
C281	C	1.109584	0.430625	-0.459023
C282	C	1.442917	0.763959	-0.125690
C283	C	0.776256	0.097292	-0.844576
C284	C	1.109589	0.430625	-0.511242
C285	C	1.442923	0.763958	-0.177909
C286	C	0.871941	0.031381	-0.844550
C287	C	1.205274	0.364714	-0.511217
C288	C	1.538607	0.698047	-0.177883
C289	C	0.871938	0.031384	-0.792330
C290	C	1.205271	0.364717	-0.458997
C291	C	1.538604	0.698050	-0.125663
C292	C	0.824088	0.064338	-0.766234
C293	C	1.157421	0.397671	-0.432901
C294	C	1.490754	0.731005	-0.099568
C295	C	0.871887	0.031413	-0.207484
C296	C	1.205221	0.364746	0.125849
C297	C	1.538554	0.698079	0.459183
C298	C	0.871883	0.031421	-0.155263
C299	C	1.205216	0.364754	0.178070
C300	C	1.538549	0.698088	0.511403
C301	C	0.776196	0.097330	-0.155294
C302	C	1.109529	0.430663	0.178040
C303	C	1.442863	0.763997	0.511373
C304	C	0.776203	0.097324	-0.207510
C305	C	1.109536	0.430657	0.125823
C306	C	1.442869	0.763991	0.459157
C307	C	0.824051	0.064361	-0.233604
C308	C	1.157384	0.397694	0.099729
C309	C	1.490718	0.731028	0.433063
O310	O	0.735563	0.125332	-0.290131
O311	O	1.068896	0.458665	0.043202
O312	O	1.402230	0.791999	0.376536
O313	O	0.912572	0.003373	-0.290122
O314	O	1.245905	0.336706	0.043212
O315	O	1.579238	0.670039	0.376545
C316	C	0.871907	0.031389	-0.526010
C317	C	1.205240	0.364723	-0.192677
C318	C	1.538573	0.698056	0.140657
C319	C	0.824066	0.064340	-0.552130
C320	C	1.157399	0.397673	-0.218796
C321	C	1.490733	0.731007	0.114537
C322	C	0.776223	0.097295	-0.526033
C323	C	1.109556	0.430628	-0.192700
C324	C	1.442890	0.763961	0.140634
C325	C	0.824071	0.064340	-0.604349
C326	C	1.157405	0.397673	-0.271015
C327	C	1.490738	0.731006	0.062318
C328	C	0.871914	0.031385	-0.630445
C329	C	1.205248	0.364718	-0.297112
C330	C	1.538581	0.698052	0.036221
C331	C	0.919752	-0.001569	-0.604323
C332	C	1.253085	0.331764	-0.270990
C333	C	1.586418	0.665098	0.062344
C334	C	0.919750	-0.001565	-0.552107
C335	C	1.253083	0.331768	-0.218773
C336	C	1.586416	0.665101	0.114560
C337	C	0.728386	0.130249	-0.552156
C338	C	1.061719	0.463582	-0.218822
C339	C	1.395052	0.796916	0.114511
C340	C	0.728392	0.130243	-0.604372
C341	C	1.061726	0.463576	-0.271039
C342	C	1.395059	0.796909	0.062295
C343	C	0.776235	0.097288	-0.630468
C344	C	1.109568	0.430621	-0.297135
C345	C	1.442902	0.763955	0.036198
N346	N	0.824099	0.064337	0.129328
N347	N	1.157432	0.397670	0.462661
N348	N	1.490765	0.731004	0.795994
H349	H	0.827944	-0.173823	0.082124
H350	H	1.161278	0.159510	0.415457
H351	H	1.494611	0.492844	0.748790
H352	H	0.036073	0.061396	0.082148
H353	H	0.369406	0.394729	0.415481
H354	H	0.702739	0.728062	0.748815
H355	H	0.035978	0.061419	-0.081945
H356	H	0.369312	0.394752	0.251388
H357	H	0.702645	0.728085	0.584721
O358	O	0.971345	-0.037101	-0.367292
O359	O	1.304678	0.296232	-0.033959
O360	O	1.638011	0.629566	0.299374
H361	H	0.963316	-0.031567	-0.326595
H362	H	1.296649	0.301766	0.006738
H363	H	1.629982	0.635099	0.340072
O364	O	0.829363	-0.075711	-0.093933
O365	O	1.162696	0.257622	0.239400
O366	O	1.496029	0.590955	0.572733
H367	H	0.828974	-0.101708	-0.125382
H368	H	1.162307	0.231625	0.207951
H369	H	1.495641	0.564959	0.541285
H370	H	0.737303	0.124130	-0.865839
H371	H	1.070637	0.457463	-0.532505
H372	H	1.403970	0.790797	-0.199172
O373	O	0.676779	0.165798	-0.524017
O374	O	1.010113	0.499131	-0.190684
O375	O	1.343446	0.832465	0.142650
H376	H	0.643061	0.145516	-0.500236
H377	H	0.976395	0.478849	-0.166903
H378	H	1.309728	0.812182	0.166431
H379	H	0.168083	0.062770	-0.081955
H380	H	0.501416	0.396104	0.251378
H381	H	0.834749	0.729437	0.584711
H382	H	0.958705	-0.028395	-0.468917
H383	H	1.292038	0.304938	-0.135584
H384	H	1.625372	0.638272	0.197749
O385	O	0.825897	-0.307619	-0.139143
O386	O	1.159231	0.025714	0.194191
O387	O	1.492564	0.359047	0.527524
H388	H	0.778145	-0.312885	-0.160832
H389	H	1.111478	0.020449	0.172501
H390	H	1.444812	0.353782	0.505834
O391	O	0.923485	-0.004130	-0.127096
O392	O	1.256818	0.329204	0.206238
O393	O	1.590152	0.662537	0.539571
H394	H	0.894350	-0.027567	-0.103311
H395	H	1.227683	0.305766	0.230023
H396	H	1.561017	0.639099	0.563356
O397	O	0.470443	0.065931	-0.093978
O398	O	0.803777	0.399264	0.239355
O399	O	1.137110	0.732598	0.572688
H400	H	0.477921	0.099043	-0.115582
H401	H	0.811255	0.432376	0.217751
H402	H	1.144588	0.765709	0.551085
O403	O	0.923504	-0.004134	-0.235622
O404	O	1.256838	0.329200	0.097711
O405	O	1.590171	0.662533	0.431045
H406	H	0.915038	-0.041801	-0.225595
H407	H	1.248371	0.291532	0.107739
H408	H	1.581705	0.624865	0.441072
O409	O	0.824418	-0.412391	0.139311
O410	O	1.157752	-0.079058	0.472645
O411	O	1.491085	0.254276	0.805978
H412	H	0.872172	-0.407126	0.161000
H413	H	1.205505	-0.073793	0.494333
H414	H	1.538839	0.259541	0.827666
H415	H	0.818831	-0.788913	-0.081946
H416	H	1.152165	-0.455579	0.251387
H417	H	1.485498	-0.122246	0.584721
O418	O	0.823683	-0.458874	-0.139130
O419	O	1.157017	-0.125541	0.194203
O420	O	1.490350	0.207793	0.527536
H421	H	0.823301	-0.484881	-0.170570
H422	H	1.156634	-0.151547	0.162763
H423	H	1.489968	0.181786	0.496096
O424	O	0.724644	0.132842	-0.764213
O425	O	1.057977	0.466175	-0.430879
O426	O	1.391311	0.799509	-0.097546
H427	H	0.691391	0.155757	-0.791155
H428	H	1.024724	0.489091	-0.457822
H429	H	1.358057	0.822424	-0.124488
O430	O	0.724595	0.132865	-0.127132
O431	O	1.057928	0.466198	0.206201
O432	O	1.391261	0.799532	0.539534
H433	H	0.733062	0.170537	-0.137140
H434	H	1.066395	0.503871	0.196193
H435	H	1.399729	0.837204	0.529526
H436	H	0.958710	-0.028399	-0.530844
H437	H	1.292043	0.304935	-0.197510
H438	H	1.625376	0.638268	0.135823
O439	O	0.923545	-0.004167	-0.872698
O440	O	1.256879	0.329167	-0.539365
O441	O	1.590212	0.662500	-0.206032
H442	H	0.894412	-0.027608	-0.896493
H443	H	1.227746	0.305725	-0.563160
H444	H	1.561079	0.639058	-0.229827
O445	O	0.829405	-0.075701	0.094064
O446	O	1.162739	0.257632	0.427398
O447	O	1.496072	0.590966	0.760731
H448	H	0.829018	-0.101700	0.125509
H449	H	1.162352	0.231634	0.458843
H450	H	1.495685	0.564967	0.792176
O451	O	0.923534	-0.004162	-0.764159
O452	O	1.256868	0.329171	-0.430825
O453	O	1.590201	0.662504	-0.097492
H454	H	0.956797	-0.027078	-0.791083
H455	H	1.290131	0.306255	-0.457750
H456	H	1.623464	0.639589	-0.124417
H457	H	0.822289	-0.556987	0.127358
H458	H	1.155622	-0.223654	0.460691
H459	H	1.488955	0.109679	0.794025
O460	O	0.621787	0.067394	0.094060
O461	O	0.955121	0.400727	0.427393
O462	O	1.288454	0.734060	0.760727
H463	H	0.584252	0.067007	0.125507
H464	H	0.917585	0.400340	0.458841
H465	H	1.250919	0.733673	0.792174
H466	H	0.689406	0.157088	-0.468977
H467	H	1.022739	0.490421	-0.135644
H468	H	1.356072	0.823754	0.197690
O469	O	0.470427	0.065831	0.094069
O470	O	0.803761	0.399164	0.427402
O471	O	1.137094	0.732498	0.760735
H472	H	0.507994	0.066203	0.125514
H473	H	0.841327	0.399537	0.458847
H474	H	1.174661	0.732870	0.792181
O475	O	0.621685	0.067438	-0.093937
O476	O	0.955019	0.400771	0.239396
O477	O	1.288352	0.734105	0.572730
H478	H	0.584119	0.067058	-0.125381
H479	H	0.917452	0.400392	0.207952
H480	H	1.250785	0.733725	0.541285
H481	H	0.168174	0.062744	0.082141
H482	H	0.501507	0.396078	0.415474
H483	H	0.834840	0.729411	0.748807
H484	H	0.820219	-0.697445	0.082149
H485	H	1.153552	-0.364111	0.415482
H486	H	1.486886	-0.030778	0.748816
H487	H	0.689396	0.157087	-0.374250
H488	H	1.022730	0.490420	-0.040917
H489	H	1.356063	0.823754	0.292416
H490	H	0.737249	0.124162	-0.228777
H491	H	1.070583	0.457495	0.104556
H492	H	1.403916	0.790828	0.437890
O493	O	0.971354	-0.037116	-0.632474
O494	O	1.304687	0.296217	-0.299141
O495	O	1.638020	0.629551	0.034193
H496	H	0.963308	-0.031581	-0.673172
H497	H	1.296641	0.301753	-0.339839
H498	H	1.629974	0.635086	-0.006506
O499	O	0.676803	0.165800	-0.632542
O500	O	1.010137	0.499133	-0.299209
O501	O	1.343470	0.832467	0.034124
H502	H	0.643540	0.188716	-0.605618
H503	H	0.976873	0.522049	-0.272284
H504	H	1.310207	0.855382	0.061049
O505	O	0.825971	-0.307614	0.139303
O506	O	1.159305	0.025719	0.472636
O507	O	1.492638	0.359053	0.805969
H508	H	0.825584	-0.333616	0.170745
H509	H	1.158917	-0.000283	0.504078
H510	H	1.492251	0.333051	0.837411
O511	O	0.818759	-0.795571	0.094104
O512	O	1.152092	-0.462238	0.427438
O513	O	1.485426	-0.128904	0.760771
H514	H	0.818171	-0.834862	0.086503
H515	H	1.151504	-0.501529	0.419837
H516	H	1.484838	-0.168196	0.753170
H517	H	0.820171	-0.697458	-0.081953
H518	H	1.153504	-0.364125	0.251381
H519	H	1.486837	-0.030791	0.584714
O520	O	0.824342	-0.412404	-0.139141
O521	O	1.157675	-0.079071	0.194193
O522	O	1.491008	0.254262	0.527526
H523	H	0.776865	-0.398311	-0.160821
H524	H	1.110199	-0.064977	0.172513
H525	H	1.443532	0.268356	0.505846
O526	O	0.827809	-0.180512	-0.093929
O527	O	1.161142	0.152821	0.239404
O528	O	1.494475	0.486154	0.572737
H529	H	0.828182	-0.154513	-0.125375
H530	H	1.161516	0.178820	0.207958
H531	H	1.494849	0.512153	0.541291
O532	O	0.823733	-0.458855	0.139310
O533	O	1.157066	-0.125521	0.472644
O534	O	1.490400	0.207812	0.805977
H535	H	0.823348	-0.484857	0.170752
H536	H	1.156681	-0.151524	0.504086
H537	H	1.490014	0.181810	0.837419
O538	O	0.822114	-0.563657	-0.139126
O539	O	1.155447	-0.230323	0.194207
O540	O	1.488780	0.103010	0.527541
H541	H	0.822483	-0.537655	-0.170570
H542	H	1.155816	-0.204321	0.162764
H543	H	1.489149	0.129012	0.496097
