data_functionalizedCrystal
_audit_creation_method	'MofGen! by Chris Wilmer'
_symmetry_space_group_name_H-M	'P1'
_symmetry_Int_Tables_number	1
_symmetry_cell_setting	triclinic
loop_
_symmetry_equiv_pos_as_xyz
  x,y,z
_cell_length_a	16.120530
_cell_length_b	19.121063
_cell_length_c	16.120297
_cell_angle_alpha	95.179432
_cell_angle_beta	90.128140
_cell_angle_gamma	89.687057
loop_
_atom_site_label
_atom_site_type_symbol
_atom_site_fract_x
_atom_site_fract_y
_atom_site_fract_z
Zn1	Zn	1.228532	-0.355748	-0.551587
Zn2	Zn	1.728532	0.144252	-0.051587
Zn3	Zn	1.229542	-0.467532	-0.417878
Zn4	Zn	1.729542	0.032468	0.082122
Zn5	Zn	1.097153	-0.343883	-0.404937
Zn6	Zn	1.597153	0.156117	0.095063
Zn7	Zn	1.083532	-0.466885	-0.549816
Zn8	Zn	1.583532	0.033115	-0.049816
O9	O	1.159690	-0.408512	-0.481054
O10	O	1.659690	0.091488	0.018946
O11	O	1.344754	-0.375813	-0.540007
O12	O	1.844754	0.124187	-0.040007
O13	O	1.218103	-0.446434	-0.299571
O14	O	1.718103	0.053566	0.200429
O15	O	1.119859	-0.247198	-0.419716
O16	O	1.619859	0.252802	0.080284
O17	O	1.345496	-0.457940	-0.441771
O18	O	1.845496	0.042060	0.058229
O19	O	1.216382	-0.255916	-0.527458
O20	O	1.716382	0.244084	-0.027458
O21	O	1.120838	-0.355590	-0.290063
O22	O	1.620838	0.144410	0.209937
O23	O	0.979258	-0.354963	-0.417999
O24	O	1.479258	0.145037	0.082001
O25	O	1.096644	-0.456838	-0.666641
O26	O	1.596644	0.043162	-0.166641
O27	O	0.969251	-0.445332	-0.524441
O28	O	1.469251	0.054668	-0.024441
O29	O	1.203175	-0.375186	-0.667942
O30	O	1.703175	0.124814	-0.167942
O31	O	1.204895	-0.565705	-0.440054
O32	O	1.704895	-0.065705	0.059946
O33	O	1.097623	-0.565230	-0.536989
O34	O	1.597623	-0.065230	-0.036989
C35	C	0.944155	-0.398790	-0.469624
C36	C	1.444155	0.101210	0.030376
C37	C	0.851946	-0.394649	-0.464754
C38	C	1.351946	0.105351	0.035246
C39	C	1.149912	-0.590946	-0.489753
C40	C	1.649912	-0.090946	0.010247
C41	C	1.145804	-0.668997	-0.493506
C42	C	1.645804	-0.168997	0.006494
C43	C	0.683119	-0.387072	-0.455870
C44	C	1.183119	0.112928	0.044130
C45	C	0.637096	-0.430006	-0.506302
C46	C	1.137096	0.069994	-0.006302
C47	C	0.543155	-0.425790	-0.501358
C48	C	1.043155	0.074210	-0.001358
C49	C	0.777068	-0.391287	-0.460812
C50	C	1.277068	0.108713	0.039188
C51	C	1.199763	-0.705893	-0.444847
C52	C	1.699763	-0.205893	0.055153
C53	C	1.195904	-0.779230	-0.448382
C54	C	1.695904	-0.279230	0.051618
C55	C	1.138080	-0.815670	-0.500573
C56	C	1.638080	-0.315670	-0.000573
C57	C	1.084118	-0.778769	-0.549237
C58	C	1.584118	-0.278769	-0.049237
C59	C	1.087982	-0.705433	-0.545706
C60	C	1.587982	-0.205433	-0.045706
C61	C	1.123621	-1.037085	-0.513761
C62	C	1.623621	-0.537085	-0.013761
C63	C	1.119760	-1.110426	-0.517287
C64	C	1.619760	-0.610426	-0.017287
C65	C	1.231547	-1.110882	-0.416433
C66	C	1.731547	-0.610882	0.083567
C67	C	1.235403	-1.037545	-0.412903
C68	C	1.735403	-0.537545	0.087097
C69	C	1.181443	-1.000650	-0.461570
C70	C	1.681443	-0.500650	0.038430
C71	C	1.134132	-0.890632	-0.504185
C72	C	1.634132	-0.390632	-0.004185
C73	C	1.185396	-0.925690	-0.457962
C74	C	1.685396	-0.425690	0.042038
C75	C	1.376067	-0.418272	-0.492530
C76	C	1.876067	0.081728	0.007470
C77	C	1.468274	-0.422431	-0.497420
C78	C	1.968274	0.077569	0.002580
C79	C	1.148278	-0.417263	-0.698367
C80	C	1.648278	0.082737	-0.198367
C81	C	1.143414	-0.420993	-0.790973
C82	C	1.643414	0.079007	-0.290973
C83	C	1.169527	-0.225367	-0.472341
C84	C	1.669527	0.274633	0.027659
C85	C	1.173720	-0.147322	-0.468628
C86	C	1.673720	0.352678	0.031372
C87	C	1.134506	-0.427785	-0.960523
C88	C	1.634506	0.072215	-0.460523
C89	C	1.185049	-0.389036	-1.002436
C90	C	1.685049	0.110964	-0.502436
C91	C	1.180092	-0.392815	-1.096780
C92	C	1.680092	0.107185	-0.596780
C93	C	1.139461	-0.424006	-0.866171
C94	C	1.639461	0.075994	-0.366171
C95	C	1.171108	-0.399746	-0.264587
C96	C	1.671108	0.100254	0.235413
C97	C	1.176143	-0.395826	-0.171981
C98	C	1.676143	0.104174	0.328019
H99	H	0.668246	-0.469929	-0.553190
H100	H	1.168246	0.030071	-0.053190
C101	C	0.641700	-0.333884	-0.393221
C102	C	1.141700	0.166116	0.106779
C103	C	0.666213	-0.346663	-0.312566
C104	C	1.166213	0.153337	0.187434
C105	C	0.628073	-0.297679	-0.254832
C106	C	1.128073	0.202321	0.245168
H107	H	0.583161	-0.338045	-0.398053
H108	H	1.083161	0.161955	0.101947
H109	H	0.657752	-0.287823	-0.403930
H110	H	1.157752	0.212177	0.096070
H111	H	0.650156	-0.392713	-0.301860
H112	H	1.150156	0.107287	0.198140
H113	H	0.724746	-0.342497	-0.307707
H114	H	1.224746	0.157503	0.192293
H115	H	0.644125	-0.251617	-0.265541
H116	H	1.144125	0.248383	0.234459
H117	H	0.569536	-0.301843	-0.259671
H118	H	1.069536	0.198157	0.240329
H119	H	0.644705	-0.306338	-0.200101
H120	H	1.144705	0.193662	0.299899
H121	H	1.072682	-1.140094	-0.559802
H122	H	1.572682	-0.640094	-0.059802
C123	C	1.071769	-0.475823	-1.006992
C124	C	1.571769	0.024177	-0.506992
C125	C	1.026096	-0.510823	-0.949782
C126	C	1.526096	-0.010823	-0.449782
C127	C	0.968292	-0.555076	-0.992569
C128	C	1.468292	-0.055076	-0.492569
H129	H	1.100023	-0.509235	-1.044088
H130	H	1.600023	-0.009235	-0.544088
H131	H	1.035272	-0.448681	-1.037718
H132	H	1.535272	0.051319	-0.537718
H133	H	1.062587	-0.537964	-0.919070
H134	H	1.562587	-0.037964	-0.419070
H135	H	0.997824	-0.477428	-0.912684
H136	H	1.497824	0.022572	-0.412684
H137	H	0.931796	-0.527934	-1.023295
H138	H	1.431796	-0.027934	-0.523295
H139	H	0.996553	-0.588484	-1.029664
H140	H	1.496553	-0.088484	-0.529664
H141	H	0.937291	-0.578824	-0.953759
H142	H	1.437291	-0.078824	-0.453759
C143	C	1.290041	-1.150896	-0.363460
C144	C	1.790041	-0.650896	0.136540
C145	C	1.277302	-1.128986	-0.279197
C146	C	1.777302	-0.628986	0.220803
C147	C	1.331169	-1.165839	-0.230376
C148	C	1.831169	-0.665839	0.269624
H149	H	1.345796	-1.141864	-0.377969
H150	H	1.845796	-0.641864	0.122031
H151	H	1.279455	-1.199795	-0.372983
H152	H	1.779455	-0.699795	0.127017
H153	H	1.287895	-1.080098	-0.269679
H154	H	1.787895	-0.580098	0.230321
H155	H	1.221559	-1.138019	-0.264662
H156	H	1.721559	-0.638019	0.235338
H157	H	1.320583	-1.214737	-0.239898
H158	H	1.820583	-0.714737	0.260102
H159	H	1.386920	-1.156804	-0.244892
H160	H	1.886920	-0.656804	0.255108
H161	H	1.322528	-1.150982	-0.173198
H162	H	1.822528	-0.650982	0.326802
H163	H	1.246846	-0.676228	-0.402345
H164	H	1.746846	-0.176228	0.097655
H165	H	1.044044	-0.675393	-0.585330
H166	H	1.544044	-0.175393	-0.085330
H167	H	1.087051	-0.920309	-0.546677
H168	H	1.587051	-0.420309	-0.046677
C169	C	1.247619	-0.340896	-0.955856
C170	C	1.747619	0.159104	-0.455856
C171	C	1.232189	-0.271436	-0.972663
C172	C	1.732189	0.228564	-0.472663
C173	C	1.289804	-0.227071	-0.929760
C174	C	1.789804	0.272929	-0.429760
H175	H	1.302107	-0.354155	-0.973489
H176	H	1.802107	0.145845	-0.473489
H177	H	1.242668	-0.344652	-0.897712
H178	H	1.742668	0.155348	-0.397712
H179	H	1.237147	-0.267683	-1.030794
H180	H	1.737147	0.232317	-0.530794
H181	H	1.177712	-0.258155	-0.955027
H182	H	1.677712	0.241845	-0.455027
H183	H	1.284853	-0.230827	-0.871616
H184	H	1.784853	0.269173	-0.371616
H185	H	1.344288	-0.240336	-0.947396
H186	H	1.844288	0.259664	-0.447396
H187	H	1.279338	-0.179936	-0.941151
H188	H	1.779338	0.320064	-0.441151
H189	H	1.239843	-0.809268	-0.408758
H190	H	1.739843	-0.309268	0.091242
H191	H	1.282487	-1.007877	-0.370405
H192	H	1.782487	-0.507877	0.129595
H193	H	1.079684	-1.007051	-0.553387
H194	H	1.579684	-0.507051	-0.053387
H195	H	1.037040	-0.808444	-0.591735
H196	H	1.537040	-0.308444	-0.091735
H197	H	1.232479	-0.896019	-0.415471
H198	H	1.732479	-0.396019	0.084529
