data_functionalizedCrystal
_audit_creation_method	'MofGen! by Chris Wilmer'
_symmetry_space_group_name_H-M	'P1'
_symmetry_Int_Tables_number	1
_symmetry_cell_setting	triclinic
loop_
_symmetry_equiv_pos_as_xyz
  x,y,z
_cell_length_a	10.686220
_cell_length_b	10.685194
_cell_length_c	19.076919
_cell_angle_alpha	87.724484
_cell_angle_beta	96.464688
_cell_angle_gamma	99.069756
loop_
_atom_site_label
_atom_site_type_symbol
_atom_site_fract_x
_atom_site_fract_y
_atom_site_fract_z
Zn1	Zn	1.878297	-0.379845	-0.301440
Zn2	Zn	2.378297	0.120155	0.198560
Zn3	Zn	1.871773	-0.582303	-0.175369
Zn4	Zn	2.371773	-0.082303	0.324631
Zn5	Zn	1.674573	-0.387658	-0.192131
Zn6	Zn	2.174573	0.112342	0.307869
Zn7	Zn	1.649783	-0.608369	-0.301397
Zn8	Zn	2.149783	-0.108369	0.198603
O9	O	1.768606	-0.489544	-0.242584
O10	O	2.268606	0.010456	0.257416
O11	O	2.055594	-0.392523	-0.277719
O12	O	2.555594	0.107477	0.222281
O13	O	1.853259	-0.548844	-0.079104
O14	O	2.353259	-0.048844	0.420896
O15	O	1.714702	-0.209525	-0.213664
O16	O	2.214702	0.290475	0.286336
O17	O	2.050801	-0.541268	-0.185096
O18	O	2.550801	-0.041268	0.314904
O19	O	1.864377	-0.203785	-0.293972
O20	O	2.364377	0.296215	0.206028
O21	O	1.708376	-0.405839	-0.091418
O22	O	2.208376	0.094161	0.408582
O23	O	1.493121	-0.431114	-0.213623
O24	O	1.993121	0.068886	0.286377
O25	O	1.672451	-0.585693	-0.399892
O26	O	2.172451	-0.085693	0.100108
O27	O	1.474908	-0.593269	-0.293900
O28	O	1.974908	-0.093269	0.206100
O29	O	1.840339	-0.417798	-0.399923
O30	O	2.340339	0.082202	0.100077
O31	O	1.829221	-0.762858	-0.185055
O32	O	2.329221	-0.262858	0.314945
O33	O	1.666125	-0.782008	-0.277647
O34	O	2.166125	-0.282008	0.222353
C35	C	1.437819	-0.515869	-0.255576
C36	C	1.937819	-0.015869	0.244424
C37	C	1.296303	-0.527163	-0.261149
C38	C	1.796303	-0.027163	0.238851
C39	C	1.744308	-0.818351	-0.229541
C40	C	2.244308	-0.318351	0.270459
C41	C	1.734028	-0.959008	-0.223980
C42	C	2.234028	-0.459008	0.276020
C43	C	2.100685	-0.463117	-0.229542
C44	C	2.600685	0.036883	0.270458
C45	C	2.242197	-0.451855	-0.223985
C46	C	2.742197	0.048145	0.276015
C47	C	1.754357	-0.503782	-0.426159
C48	C	2.254357	-0.003782	0.073841
C49	C	1.748285	-0.509849	-0.504387
C50	C	2.248285	-0.009849	-0.004387
C51	C	1.793032	-0.159451	-0.255692
C52	C	2.293032	0.340549	0.244308
C53	C	1.803441	-0.018786	-0.261278
C54	C	2.303441	0.481214	0.238722
C55	C	1.832839	-0.425290	-0.541157
C56	C	2.332839	0.074710	-0.041157
C57	C	1.827118	-0.430988	-0.614661
C58	C	2.327118	0.069012	-0.114661
C59	C	1.736850	-0.521251	-0.651395
C60	C	2.236850	-0.021251	-0.151395
C61	C	1.652288	-0.605815	-0.614621
C62	C	2.152288	-0.105815	-0.114621
C63	C	1.658003	-0.600110	-0.541118
C64	C	2.158003	-0.100110	-0.041118
C65	C	1.710378	-0.547679	-0.871224
C66	C	2.210378	-0.047679	-0.371224
C67	C	1.704671	-0.553380	-0.944732
C68	C	2.204671	-0.053380	-0.444732
C69	C	1.879501	-0.378550	-0.944767
C70	C	2.379501	0.121450	-0.444767
C71	C	1.885213	-0.372859	-0.871263
C72	C	2.385213	0.127141	-0.371263
C73	C	1.800647	-0.457418	-0.834495
C74	C	2.300647	0.042582	-0.334495
N75	N	1.731003	-0.527080	-0.726529
N76	N	2.231003	-0.027080	-0.226529
N77	N	1.806489	-0.451583	-0.759364
N78	N	2.306489	0.048417	-0.259364
C79	C	1.782880	-0.475264	-0.059725
C80	C	2.282880	0.024736	0.440275
C81	C	1.789224	-0.468820	0.018499
C82	C	2.289224	0.031180	0.518499
H83	H	1.234355	-0.600289	-0.297230
H84	H	1.734355	-0.100289	0.202770
F85	F	1.646051	-1.032770	-0.176681
F86	F	2.146051	-0.532770	0.323319
F87	F	1.891400	-0.945031	-0.308582
F88	F	2.391400	-0.445031	0.191418
F89	F	1.323156	-0.356289	-0.176820
F90	F	1.823156	0.143711	0.323180
H91	H	1.906349	-0.351791	-0.511253
H92	H	2.406349	0.148209	-0.011253
H93	H	1.578784	-0.679305	-0.644536
H94	H	2.078784	-0.179305	-0.144536
H95	H	1.895973	-0.362133	-0.644595
H96	H	2.395973	0.137867	-0.144595
F97	F	1.981290	-0.276788	-0.832173
F98	F	2.481290	0.223212	-0.332173
H99	H	1.641535	-0.616550	-0.841295
H100	H	2.141535	-0.116550	-0.341295
H101	H	1.948349	-0.309706	-0.974711
H102	H	2.448349	0.190294	-0.474711
F103	F	1.608585	-0.649450	-0.983826
F104	F	2.108585	-0.149450	-0.483826
F105	F	1.568007	-0.690107	-0.501986
F106	F	2.068007	-0.190107	-0.001986
