data_functionalizedCrystal
_audit_creation_method	'MofGen! by Chris Wilmer'
_symmetry_space_group_name_H-M	'P1'
_symmetry_Int_Tables_number	1
_symmetry_cell_setting	triclinic
loop_
_symmetry_equiv_pos_as_xyz
  x,y,z
_cell_length_a	14.044220
_cell_length_b	14.044220
_cell_length_c	12.503572
_cell_angle_alpha	86.156832
_cell_angle_beta	93.835250
_cell_angle_gamma	93.188878
loop_
_atom_site_label
_atom_site_type_symbol
_atom_site_fract_x
_atom_site_fract_y
_atom_site_fract_z
O1	O	1.282200	0.225116	0.089210
O2	O	1.782200	0.725116	0.589210
O3	O	1.005530	0.216809	0.089237
O4	O	1.505530	0.716809	0.589237
O5	O	1.139712	0.082627	0.089213
O6	O	1.639712	0.582627	0.589213
O7	O	1.148019	0.359298	0.089234
O8	O	1.648019	0.859298	0.589234
O9	O	1.129622	0.092737	-0.089427
O10	O	1.629622	0.592737	0.410573
O11	O	0.995440	0.226918	-0.089403
O12	O	1.495440	0.726918	0.410597
O13	O	1.272110	0.235226	-0.089430
O14	O	1.772110	0.735226	0.410570
Cu15	Cu	1.132854	0.231995	-0.105728
Cu16	Cu	1.632854	0.731995	0.394272
Cu17	Cu	1.144786	0.220040	0.105535
Cu18	Cu	1.644786	0.720040	0.605535
O19	O	1.137929	0.369407	-0.089406
O20	O	1.637929	0.869407	0.410594
C21	C	0.964864	0.218228	-0.000080
C22	C	1.464864	0.718228	0.499920
C23	C	0.858721	0.207383	-0.000070
C24	C	1.358721	0.707383	0.499930
C25	C	0.664382	0.187558	-0.000092
C26	C	1.164382	0.687558	0.499908
C27	C	0.613253	0.264472	-0.000091
C28	C	1.113253	0.764472	0.499909
C29	C	0.505116	0.253441	-0.000104
C30	C	1.005116	0.753441	0.499896
C31	C	0.772529	0.198587	-0.000080
C32	C	1.272529	0.698587	0.499920
C33	C	1.131031	0.052060	-0.000107
C34	C	1.631031	0.552060	0.499893
C35	C	1.120187	-0.054082	-0.000107
C36	C	1.620187	0.445918	0.499893
C37	C	1.100361	-0.248421	-0.000090
C38	C	1.600361	0.251579	0.499910
C39	C	1.177275	-0.299551	-0.000094
C40	C	1.677275	0.200449	0.499906
C41	C	1.166244	-0.407687	-0.000084
C42	C	1.666244	0.092313	0.499916
C43	C	1.111391	-0.140274	-0.000099
C44	C	1.611391	0.359726	0.499901
C45	C	1.312777	0.233807	-0.000111
C46	C	1.812777	0.733807	0.499889
C47	C	1.418920	0.244651	-0.000114
C48	C	1.918920	0.744651	0.499886
C49	C	1.146609	0.399974	-0.000084
C50	C	1.646609	0.899974	0.499916
C51	C	1.157454	0.506117	-0.000077
C52	C	1.657454	1.006117	0.499923
N53	N	1.124469	0.240404	-0.254319
N54	N	1.624469	0.740404	0.245681
C55	C	1.112134	0.252782	-0.473432
C56	C	1.612134	0.752782	0.026568
C57	C	1.165511	0.199249	-0.526768
C58	C	1.665511	0.699249	-0.026768
C59	C	1.158648	0.206136	-0.648690
C60	C	1.658648	0.706136	-0.148690
C61	C	1.118996	0.245896	-0.351499
C62	C	1.618996	0.745896	0.148501
N63	N	1.153179	0.211624	0.254126
N64	N	1.653179	0.711624	0.754126
H65	H	0.626945	0.113431	-0.000104
H66	H	1.126945	0.613431	0.499896
H67	H	1.216364	0.148245	-0.480864
H68	H	1.716364	0.648245	0.019136
O69	O	1.265676	-0.254794	0.000028
O70	O	1.765676	0.245206	0.500028
C71	C	1.382118	-0.151975	0.092571
C72	C	1.882118	0.348025	0.592571
C73	C	1.281981	-0.202594	0.092559
C74	C	1.781981	0.297406	0.592559
H75	H	1.395339	-0.109774	0.167385
H76	H	1.895339	0.390226	0.667385
H77	H	1.386909	-0.101194	0.017854
H78	H	1.886909	0.398806	0.517854
H79	H	1.438269	-0.207546	0.092512
H80	H	1.938269	0.292454	0.592512
H81	H	1.225771	-0.147090	0.092655
H82	H	1.725771	0.352910	0.592655
H83	H	1.277270	-0.253392	0.167270
H84	H	1.777270	0.246608	0.667270
H85	H	1.061285	0.303783	-0.519330
H86	H	1.561285	0.803783	-0.019330
O87	O	1.011983	-0.293194	0.000058
O88	O	1.511983	0.206806	0.500058
C89	C	0.906014	-0.406482	0.092640
C90	C	1.406014	0.093518	0.592640
C91	C	1.006142	-0.355847	0.092600
C92	C	1.506142	0.144153	0.592600
H93	H	0.901252	-0.457134	0.167463
H94	H	1.401252	0.042866	0.667463
H95	H	0.892787	-0.448826	0.017932
H96	H	1.392787	0.051174	0.517932
H97	H	0.849848	-0.350913	0.092585
H98	H	1.349848	0.149087	0.592585
H99	H	1.062371	-0.411353	0.092693
H100	H	1.562371	0.088647	0.592693
H101	H	1.019286	-0.313485	0.167301
H102	H	1.519286	0.186515	0.667301
O103	O	0.658066	0.352840	-0.000004
O104	O	1.158066	0.852840	0.499996
C105	C	0.808269	0.444549	0.000018
C106	C	1.308269	0.944549	0.500018
C107	C	0.757636	0.344422	-0.000075
C108	C	1.257636	0.844422	0.499925
H109	H	0.888779	0.437778	-0.000063
H110	H	1.388779	0.937778	0.499937
H111	H	0.791012	0.480760	0.074810
H112	H	1.291012	0.980760	0.574810
H113	H	0.782485	0.489247	-0.074711
H114	H	1.282485	0.989247	0.425289
H115	H	0.783391	0.299648	0.074603
H116	H	1.283391	0.799648	0.574603
H117	H	0.774892	0.308287	-0.074917
H118	H	1.274892	0.808287	0.425083
