data_functionalizedCrystal
_audit_creation_method	'MofGen! by Chris Wilmer'
_symmetry_space_group_name_H-M	'P1'
_symmetry_Int_Tables_number	1
_symmetry_cell_setting	triclinic
loop_
_symmetry_equiv_pos_as_xyz
  x,y,z
_cell_length_a	6.394989
_cell_length_b	16.992695
_cell_length_c	16.053802
_cell_angle_alpha	87.258926
_cell_angle_beta	92.655437
_cell_angle_gamma	88.582967
loop_
_atom_site_label
_atom_site_type_symbol
_atom_site_fract_x
_atom_site_fract_y
_atom_site_fract_z
O1	O	-2.801246	-0.125449	-0.069422
O2	O	-2.194200	-0.131931	-0.069425
O3	O	-2.495289	-0.014523	-0.069417
O4	O	-2.500158	-0.242856	-0.069430
O5	O	-2.478712	-0.020958	0.069441
O6	O	-2.177623	-0.138366	0.069433
O7	O	-2.784669	-0.131884	0.069437
Zn8	Zn	-2.478514	-0.136147	0.091482
Zn9	Zn	-2.500355	-0.127668	-0.091470
O10	O	-2.483580	-0.249291	0.069428
C11	C	-2.480739	0.011533	0.000012
C12	C	-2.462058	0.098762	0.000012
C13	C	-2.498130	-0.275348	-0.000003
C14	C	-2.516812	-0.362577	-0.000008
N15	N	-2.463623	-0.141933	0.216341
C16	C	-2.107876	-0.133867	0.000008
C17	C	-1.870987	-0.129950	0.000012
N18	N	-2.515262	-0.121876	-0.216330
C19	C	-2.642306	0.147221	0.000014
C20	C	-2.624741	0.229182	0.000006
C21	C	-2.426927	0.262682	0.000002
C22	C	-2.246666	0.214216	-0.000003
C23	C	-2.264233	0.132257	-0.000001
C24	C	-2.354118	0.506999	-0.000010
C25	C	-2.336564	0.588964	-0.000010
C26	C	-2.714642	0.603925	-0.000003
C27	C	-2.732191	0.521963	0.000004
C28	C	-2.551931	0.473505	-0.000005
N29	N	-2.408968	0.346458	-0.000004
N30	N	-2.569892	0.389731	-0.000005
C31	C	-2.591790	-0.091994	0.260039
C32	C	-2.581394	-0.096049	0.347445
C33	C	-2.442841	-0.150047	0.391153
C34	C	-2.314660	-0.199987	0.347449
C35	C	-2.325047	-0.195928	0.260044
C36	C	-2.397468	-0.167757	0.652561
C37	C	-2.387095	-0.171814	0.739972
C38	C	-2.653827	-0.067875	0.739962
C39	C	-2.664210	-0.063823	0.652556
C40	C	-2.536022	-0.113761	0.608860
N41	N	-2.432216	-0.154195	0.480496
N42	N	-2.546637	-0.109608	0.519518
H43	H	-2.771519	0.268635	0.000009
H44	H	-2.704623	-0.048027	0.224458
C45	C	-2.088924	0.669141	0.071368
C46	C	-2.119104	0.625784	-0.000016
H47	H	-1.954674	0.691867	0.071367
H48	H	-2.193747	0.709729	0.071367
H49	H	-2.097850	0.635227	0.119784
H50	H	-2.110194	0.659699	-0.048433
H51	H	-2.014253	0.585191	-0.000023
H52	H	-2.803387	0.119953	0.000022
C53	C	-2.016110	0.301015	-0.071387
C54	C	-2.029225	0.251040	-0.000007
H55	H	-1.881872	0.323750	-0.071383
H56	H	-2.036588	0.271594	-0.119801
H57	H	-2.120959	0.341602	-0.071376
H58	H	-1.924386	0.210449	-0.000021
H59	H	-2.008724	0.280463	0.048420
H60	H	-2.893273	0.494694	0.000007
C61	C	-2.045774	0.472337	-0.071387
C62	C	-2.155967	0.453746	-0.000008
H63	H	-1.923430	0.439461	-0.071379
H64	H	-2.132091	0.464210	-0.119802
H65	H	-2.007039	0.525946	-0.071378
H66	H	-2.194715	0.400137	-0.000020
H67	H	-2.069633	0.461866	0.048419
C68	C	-1.955917	0.097575	-0.071385
C69	C	-2.066098	0.078988	-0.000002
H70	H	-1.833588	0.064692	-0.071384
H71	H	-2.042252	0.089456	-0.119797
H72	H	-1.917158	0.151182	-0.071375
H73	H	-2.104870	0.025383	-0.000014
H74	H	-1.979746	0.087101	0.048423
H75	H	-2.685756	-0.055385	0.383024
C76	C	-2.127253	-0.177376	0.554295
C77	C	-2.256600	-0.222657	0.604533
H78	H	-2.040284	-0.211274	0.524645
H79	H	-2.211247	-0.144640	0.515761
H80	H	-2.042479	-0.145514	0.588412
H81	H	-2.341385	-0.254515	0.570415
H82	H	-2.172597	-0.255406	0.643071
H83	H	-2.777031	-0.019854	0.616971
H84	H	-2.861400	0.643388	0.000003
H85	H	-2.201836	-0.243951	0.383041
H86	H	-2.758190	-0.027217	0.775548
C87	C	-2.124414	-0.274131	0.731207
C88	C	-2.234754	-0.231162	0.788017
H89	H	-2.030359	-0.310761	0.760870
H90	H	-2.220242	-0.301689	0.697107
H91	H	-2.047778	-0.239081	0.697125
H92	H	-2.311403	-0.266211	0.822096
H93	H	-2.138912	-0.203602	0.822132
C94	C	-2.060374	-0.299082	0.268828
C95	C	-2.184172	-0.250825	0.212009
H96	H	-1.973408	-0.332975	0.239171
H97	H	-1.975615	-0.267213	0.302929
H98	H	-2.148147	-0.329795	0.302907
H99	H	-2.096399	-0.220108	0.177933
H100	H	-2.268939	-0.282698	0.177892
