data_functionalizedCrystal
_audit_creation_method	'MofGen! by Chris Wilmer'
_symmetry_space_group_name_H-M	'P1'
_symmetry_Int_Tables_number	1
_symmetry_cell_setting	triclinic
loop_
_symmetry_equiv_pos_as_xyz
  x,y,z
_cell_length_a	19.288864
_cell_length_b	9.130313
_cell_length_c	19.288865
_cell_angle_alpha	89.993536
_cell_angle_beta	96.863755
_cell_angle_gamma	90.014070
loop_
_atom_site_label
_atom_site_type_symbol
_atom_site_fract_x
_atom_site_fract_y
_atom_site_fract_z
O1	O	0.921344	0.122286	-0.086645
O2	O	0.719084	0.122188	-0.098333
O3	O	0.826058	0.122211	0.008641
O4	O	0.814370	0.122263	-0.193619
O5	O	0.826057	-0.121388	0.008638
O6	O	0.719082	-0.121411	-0.098336
O7	O	0.921343	-0.121313	-0.086647
Cu8	Cu	0.820213	-0.143605	-0.092492
Cu9	Cu	0.820214	0.144479	-0.092489
O10	O	0.814368	-0.121336	-0.193622
C11	C	0.693207	0.000375	-0.097959
C12	C	0.616103	0.000337	-0.096830
N13	N	0.820217	-0.346227	-0.092494
C14	C	0.571407	0.000376	-0.159598
C15	C	0.498960	0.000392	-0.158537
C16	C	0.471212	0.000398	-0.094705
C17	C	0.515918	0.000350	-0.031929
C18	C	0.588364	0.000320	-0.032991
C19	C	0.362951	0.085778	-0.044525
C20	C	0.290506	0.085817	-0.043465
C21	C	0.247767	0.000486	-0.091425
C22	C	0.277479	-0.084866	-0.140457
C23	C	0.349924	-0.084897	-0.141520
C24	C	0.392658	0.000430	-0.093546
C25	C	0.124514	0.000540	-0.153047
C26	C	0.052066	0.000547	-0.151984
C27	C	0.069026	0.000520	-0.025374
C28	C	0.141473	0.000499	-0.026439
C29	C	0.169212	0.000516	-0.090278
C30	C	0.867597	-0.422869	-0.045142
C31	C	0.867595	-0.576206	-0.045133
C32	C	0.772830	-0.576246	-0.139836
C33	C	0.772829	-0.422911	-0.139840
C34	C	0.922311	-0.422848	0.009532
C35	C	0.922309	-0.576184	0.009541
C36	C	0.947220	0.000502	-0.087022
C37	C	1.024324	0.000551	-0.088151
C38	C	0.825682	0.000407	0.034516
C39	C	0.824553	0.000393	0.111620
N40	N	0.820216	0.347102	-0.092481
C41	C	0.814745	0.000471	-0.219497
C42	C	0.815874	0.000494	-0.296601
C43	C	0.887321	0.000416	0.156316
C44	C	0.886260	0.000439	0.228763
C45	C	0.822428	0.000409	0.256511
C46	C	0.759652	0.000394	0.211805
C47	C	0.760714	0.000386	0.139359
C48	C	0.772248	-0.084943	0.364797
C49	C	0.771188	-0.084944	0.437242
C50	C	0.819148	0.000440	0.479956
C51	C	0.868180	0.085806	0.450219
C52	C	0.869242	0.085798	0.377774
C53	C	0.821269	0.000419	0.335065
C54	C	0.880770	0.000490	0.603209
C55	C	0.879707	0.000522	0.675657
C56	C	0.753097	0.000462	0.658697
C57	C	0.754162	0.000445	0.586250
C58	C	0.818000	0.000452	0.558511
H59	H	0.593987	0.000393	-0.211580
H60	H	0.734249	-0.638698	-0.178384
H61	H	0.046435	0.000616	0.026600
N62	N	0.900758	-0.639198	0.076115
H63	H	0.857615	-0.701495	0.064789
H64	H	0.890384	-0.556780	0.108237
N65	N	0.947413	0.000543	0.723865
H66	H	0.949787	-0.089752	0.754309
H67	H	0.949760	0.090912	0.754246
H68	H	0.907234	0.155335	0.484997
H69	H	0.709599	0.000367	0.102967
N70	N	0.485993	0.000372	0.036918
H71	H	0.525305	0.000343	0.076522
H72	H	0.456283	-0.089918	0.040116
N73	N	0.381978	-0.176957	-0.194392
H74	H	0.362835	-0.145090	-0.243080
H75	H	0.370209	-0.283417	-0.187674
N76	N	0.988849	-0.359787	-0.012082
H77	H	0.994767	-0.393908	-0.060833
H78	H	1.029901	-0.393916	0.021445
H79	H	0.462561	0.000420	-0.209652
H80	H	0.266320	0.155322	-0.003543
N81	N	0.189687	0.000456	0.041261
H82	H	0.161118	0.000460	0.081861
H83	H	0.220135	0.090745	0.043581
N84	N	0.720528	-0.177076	0.318733
H85	H	0.728642	-0.164135	0.268328
H86	H	0.671490	-0.145218	0.324844
H87	H	0.015674	0.000571	-0.203099
N88	N	0.721714	-0.340260	-0.190906
H89	H	0.729546	-0.366934	-0.240186
H90	H	0.728922	-0.231512	-0.183667
N91	N	0.409046	0.177814	0.007209
H92	H	0.379232	0.231897	0.038426
H93	H	0.435696	0.250702	-0.018791
H94	H	0.937375	0.000464	0.265162
H95	H	0.624756	0.000289	0.018124
H96	H	0.911082	-0.381248	0.062785
H97	H	0.975550	-0.617771	-0.001729
N98	N	0.956172	0.000427	0.126397
H99	H	0.995774	0.000446	0.165710
H100	H	0.959374	0.090730	0.096702
N101	N	0.922120	0.177866	0.345698
H102	H	0.952344	0.231960	0.383746
H103	H	0.897000	0.250743	0.312211
N104	N	0.949620	0.000504	0.573283
H105	H	0.989224	0.000534	0.612594
H106	H	0.952818	0.090802	0.543584
H107	H	0.242681	-0.154353	-0.179511
N108	N	0.684247	0.000446	0.688613
H109	H	0.693097	0.000460	0.741290
H110	H	0.656787	-0.089872	0.672256
N111	N	0.686462	0.000412	0.538036
H112	H	0.645862	0.000395	0.566605
H113	H	0.684145	-0.089899	0.507616
H114	H	0.731260	-0.154445	0.461447
N115	N	0.154440	0.000551	-0.221897
H116	H	0.115129	0.000566	-0.261501
H117	H	0.184113	-0.089762	-0.225095
H118	H	0.707679	0.000373	0.234401
