data_functionalizedCrystal
_audit_creation_method	'MofGen! by Chris Wilmer'
_symmetry_space_group_name_H-M	'P1'
_symmetry_Int_Tables_number	1
_symmetry_cell_setting	triclinic
loop_
_symmetry_equiv_pos_as_xyz
  x,y,z
_cell_length_a	9.065218
_cell_length_b	7.540329
_cell_length_c	9.065215
_cell_angle_alpha	90.002642
_cell_angle_beta	85.015325
_cell_angle_gamma	90.005135
loop_
_atom_site_label
_atom_site_type_symbol
_atom_site_fract_x
_atom_site_fract_y
_atom_site_fract_z
O1	O	-1.960396	-0.147569	-0.216356
O2	O	-1.460396	0.352431	0.283644
O3	O	-1.531111	-0.147553	-0.234102
O4	O	-1.031111	0.352447	0.265898
O5	O	-1.754629	-0.147554	-0.010587
O6	O	-1.254629	0.352446	0.489413
O7	O	-1.736878	-0.147568	-0.439872
O8	O	-1.236878	0.352432	0.060128
O9	O	-1.754616	0.147411	-0.010584
O10	O	-1.254616	0.647411	0.489416
O11	O	-1.531098	0.147412	-0.234099
O12	O	-1.031098	0.647412	0.265901
O13	O	-1.960383	0.147396	-0.216353
O14	O	-1.460383	0.647396	0.283647
Cu15	Cu	-1.745739	0.174337	-0.225226
Cu16	Cu	-1.245739	0.674337	0.274774
Cu17	Cu	-1.745755	-0.174494	-0.225229
Cu18	Cu	-1.245755	0.325506	0.274771
O19	O	-1.736865	0.147397	-0.439869
O20	O	-1.236865	0.647397	0.060131
C21	C	-1.476118	-0.000068	-0.232395
C22	C	-0.976118	0.499932	0.267605
C23	C	-1.312275	-0.000062	-0.227296
C24	C	-0.812275	0.499938	0.272704
C25	C	-1.752917	-0.000073	0.044402
C26	C	-1.252917	0.499927	0.544402
C27	C	-1.747819	-0.000078	0.208245
C28	C	-1.247819	0.499922	0.708245
N29	N	-1.745738	0.419685	-0.225223
N30	N	-1.245738	0.919685	0.274777
C31	C	-1.015376	-0.000082	-0.218060
C32	C	-0.515376	0.499918	0.281940
C33	C	-1.179219	-0.000067	-0.223159
C34	C	-0.679219	0.499933	0.276841
N35	N	-1.745767	-0.419842	-0.225221
N36	N	-1.245767	0.080158	0.274779
C37	C	-1.738576	-0.000088	-0.494857
C38	C	-1.238576	0.499912	0.005143
C39	C	-1.743674	-0.000094	-0.658700
C40	C	-1.243674	0.499906	-0.158700
