data_functionalizedCrystal
_audit_creation_method	'MofGen! by Chris Wilmer'
_symmetry_space_group_name_H-M	'P1'
_symmetry_Int_Tables_number	1
_symmetry_cell_setting	triclinic
loop_
_symmetry_equiv_pos_as_xyz
  x,y,z
_cell_length_a	6.817900
_cell_length_b	15.300912
_cell_length_c	16.015572
_cell_angle_alpha	77.749998
_cell_angle_beta	104.485554
_cell_angle_gamma	104.173621
loop_
_atom_site_label
_atom_site_type_symbol
_atom_site_fract_x
_atom_site_fract_y
_atom_site_fract_z
V1	V	-3.992605	-0.036345	-0.269469
O2	O	-3.977252	0.092637	-0.264070
O3	O	-3.947737	-0.159481	-0.267886
O4	O	-3.927765	0.004096	-0.386876
O5	O	-3.997363	-0.072072	-0.144256
V6	V	-4.477906	-0.025629	-0.254461
O7	O	-4.249964	-0.059850	-0.302391
O8	O	-4.670744	-0.002124	-0.221540
O9	O	-4.299567	0.097507	-0.256045
O10	O	-4.610655	-0.154611	-0.259860
O11	O	-4.590544	0.010097	-0.379675
O12	O	-4.319539	-0.066070	-0.137055
C13	C	-3.794129	-0.190745	-0.263701
C14	C	-3.838622	-0.291154	-0.263189
C15	C	-3.768652	0.017914	-0.415484
C16	C	-3.796944	0.050164	-0.511467
C17	C	-4.211988	-0.726825	-0.265302
C18	C	-4.170164	-0.632481	-0.265777
C19	C	-3.967617	-0.582138	-0.261702
C20	C	-3.806879	-0.626145	-0.257142
C21	C	-3.848701	-0.720488	-0.256661
C22	C	-3.719722	-0.429504	-0.258149
C23	C	-3.677897	-0.335154	-0.258632
C24	C	-4.041185	-0.341497	-0.267265
C25	C	-4.083007	-0.435840	-0.266784
C26	C	-3.922267	-0.479840	-0.262226
C27	C	-4.093790	-0.236084	-0.889701
C28	C	-4.120379	-0.205751	-0.979886
C29	C	-4.038889	-0.048820	-0.954850
C30	C	-4.012283	-0.079140	-0.864660
C31	C	-4.039739	-0.172773	-0.832093
C32	C	-3.958232	-0.015828	-0.807052
C33	C	-3.931638	-0.046146	-0.716871
C34	C	-3.959096	-0.139775	-0.684297
C35	C	-4.013146	-0.203090	-0.741912
C36	C	-3.930791	0.077804	-0.839621
C37	C	-3.876740	0.141116	-0.782014
C38	C	-3.850131	0.110799	-0.691830
C39	C	-3.877589	0.017170	-0.659256
C40	C	-3.796081	0.174114	-0.634215
C41	C	-3.769488	0.143797	-0.544033
C42	C	-3.850995	-0.013148	-0.569074
C43	C	-4.116517	0.128765	-0.260227
C44	C	-4.051262	0.229175	-0.260745
C45	C	-4.141995	-0.079892	-0.108442
C46	C	-4.092941	-0.112138	-0.012459
H47	H	-4.376922	-0.767807	-0.268625
F48	F	-3.959111	0.110069	-0.935603
H49	H	-3.641956	-0.585149	-0.253819
F50	F	-4.042328	-0.302745	-0.707246
F51	F	-4.341226	-0.585661	-0.270606
F52	F	-3.930798	-0.172042	-0.588316
F53	F	-3.548641	-0.476329	-0.253299
H54	H	-3.873326	-0.089393	-0.542556
F55	F	-4.122972	-0.335739	-0.855035
F56	F	-4.177914	-0.273144	-1.041196
H57	H	-3.725476	0.195351	-0.497127
F58	F	-3.766889	0.273762	-0.668888
F59	F	-4.212259	-0.294668	-0.272119
F60	F	-4.298582	-0.489416	-0.271127
F61	F	-3.847526	0.240764	-0.816684
F62	F	-3.462324	-0.281576	-0.254295
H63	H	-3.717822	-0.756310	-0.252957
F64	F	-4.009676	0.050828	-0.989520
