data_functionalizedCrystal
_audit_creation_method	'MofGen! by Chris Wilmer'
_symmetry_space_group_name_H-M	'P1'
_symmetry_Int_Tables_number	1
_symmetry_cell_setting	triclinic
loop_
_symmetry_equiv_pos_as_xyz
  x,y,z
_cell_length_a	15.995350
_cell_length_b	14.853567
_cell_length_c	13.330367
_cell_angle_alpha	90.000844
_cell_angle_beta	90.003907
_cell_angle_gamma	83.563652
loop_
_atom_site_label
_atom_site_type_symbol
_atom_site_fract_x
_atom_site_fract_y
_atom_site_fract_z
O1	O	-1.111124	-0.116206	-0.083330
O2	O	-0.867366	-0.130556	-0.083350
O3	O	-0.995756	0.007858	-0.083342
O4	O	-0.982734	-0.254619	-0.083337
O5	O	-0.995738	0.007861	0.083505
O6	O	-0.867347	-0.130553	0.083498
O7	O	-1.111106	-0.116203	0.083517
Cu8	Cu	-0.989225	-0.123377	0.098742
Cu9	Cu	-0.989247	-0.123381	-0.098574
O10	O	-0.982715	-0.254616	0.083510
C11	C	-0.836161	-0.129961	0.000071
C12	C	-0.743209	-0.128182	0.000064
C13	C	-0.995157	0.041447	0.000078
C14	C	-0.993389	0.141528	0.000069
C15	C	-1.142311	-0.116798	0.000094
C16	C	-1.235263	-0.118576	0.000095
C17	C	-0.405454	-0.121795	0.000084
C18	C	-0.452773	-0.023220	0.000455
C19	C	-0.549465	-0.024999	0.000072
C20	C	-0.573018	-0.124963	0.000075
C21	C	-0.531998	-0.173586	-0.095198
C22	C	-0.435359	-0.171110	-0.095271
C23	C	-0.435002	-0.173143	0.094465
C24	C	-0.531947	-0.173119	0.095717
C25	C	-0.667717	-0.126759	0.000066
C26	C	-0.310754	-0.120002	0.000086
C27	C	-0.983315	-0.288206	0.000087
C28	C	-0.985083	-0.388287	0.000089
N29	N	-0.989215	-0.123374	0.237523
C30	C	-0.909648	0.553949	0.000082
C31	C	-1.062178	0.575436	0.000094
C32	C	-1.063841	0.481405	0.000088
C33	C	-0.988406	0.423641	0.000081
C34	C	-0.911308	0.459909	0.000079
C35	C	-1.140937	0.445129	0.000100
C36	C	-1.142603	0.351093	0.000096
C37	C	-1.067167	0.293327	0.000081
C38	C	-0.990066	0.329600	0.000078
C39	C	-0.914631	0.271837	0.000071
C40	C	-0.837529	0.308108	0.000061
C41	C	-0.835872	0.402144	0.000064
C42	C	-1.068824	0.199292	0.000077
C43	C	-0.916291	0.177796	0.000068
N44	N	-0.989263	-0.123377	-0.237356
C45	C	-0.932393	-0.184646	0.710143
C46	C	-1.046123	-0.062109	0.710117
C47	C	-1.046114	-0.062106	0.605099
C48	C	-0.989244	-0.123375	0.552598
C49	C	-0.932384	-0.184647	0.605115
C50	C	-1.102979	-0.000841	0.552574
C51	C	-1.102972	-0.000836	0.447549
C52	C	-1.046098	-0.062102	0.395046
C53	C	-0.989234	-0.123376	0.447570
C54	C	-0.932365	-0.184646	0.395068
C55	C	-0.875497	-0.245916	0.447590
C56	C	-0.875509	-0.245913	0.552612
C57	C	-1.046085	-0.062105	0.290025
C58	C	-0.932355	-0.184647	0.290040
H59	H	-0.577842	0.013221	0.068367
C60	C	-0.825916	0.593274	-0.000136
C61	C	-0.780331	0.563932	-0.085993
C62	C	-0.703198	0.600151	-0.086236
H63	H	-0.794743	0.573474	0.057975
H64	H	-0.835692	0.657555	-0.000192
H65	H	-0.770551	0.499666	-0.085929
H66	H	-0.811478	0.583732	-0.144119
H67	H	-0.712975	0.664431	-0.086291
H68	H	-0.672033	0.580348	-0.028120
H69	H	-0.672262	0.580254	-0.144493
C70	C	-0.870571	-0.251272	0.233224
C71	C	-0.820790	-0.304939	0.301701
C72	C	-0.763874	-0.366331	0.249399
H73	H	-0.835601	-0.218925	0.192255
H74	H	-0.900707	-0.288873	0.192273
H75	H	-0.790656	-0.267342	0.342634
H76	H	-0.855737	-0.337305	0.342672
H77	H	-0.794010	-0.403933	0.208449
H78	H	-0.728910	-0.333977	0.208432
H79	H	-0.730096	-0.402757	0.295853
C80	C	-0.586637	0.026438	-0.091032
C81	C	-0.643933	0.099103	-0.059452
C82	C	-0.678185	0.146512	-0.143353
H83	H	-0.614804	-0.013014	-0.131896
H84	H	-0.542834	0.048776	-0.128497
H85	H	-0.687730	0.076765	-0.022003
H86	H	-0.615787	0.138576	-0.018599
H87	H	-0.634381	0.168850	-0.180818
H88	H	-0.706347	0.107052	-0.184212
H89	H	-0.717058	0.195825	-0.121937
C90	C	-0.813871	-0.312397	0.609817
C91	C	-0.826073	-0.299300	0.713027
C92	C	-0.769319	-0.360538	0.765759
H93	H	-0.757941	-0.302634	0.592746
H94	H	-0.823039	-0.372591	0.592657
H95	H	-0.816898	-0.239121	0.730179
H96	H	-0.881992	-0.309070	0.730128
H97	H	-0.778487	-0.420732	0.748599
H98	H	-0.713392	-0.350770	0.748679
H99	H	-0.777595	-0.351666	0.835792
H100	H	-0.829196	-0.295806	0.404832
C101	C	-0.569717	-0.128721	-0.189866
C102	C	-0.532419	-0.172967	-0.274084
C103	C	-0.567155	-0.131669	-0.361306
H104	H	-0.559697	-0.066892	-0.190875
H105	H	-0.628604	-0.132538	-0.190904
H106	H	-0.473545	-0.169141	-0.273047
H107	H	-0.542436	-0.234793	-0.273109
H108	H	-0.626043	-0.135486	-0.362343
H109	H	-0.557134	-0.069841	-0.362303
H110	H	-0.541860	-0.161689	-0.418457
H111	H	-0.434198	0.016185	0.068778
C112	C	-1.164848	0.065588	0.609511
C113	C	-1.247142	0.050912	0.583977
C114	C	-1.304156	0.112091	0.636417
H115	H	-1.155790	0.125796	0.592331
H116	H	-1.156765	0.056822	0.679591
H117	H	-1.255221	0.059685	0.513913
H118	H	-1.256226	-0.009285	0.601160
H119	H	-1.296073	0.103325	0.706498
H120	H	-1.295090	0.172296	0.619234
H121	H	-1.359998	0.102136	0.619108
C122	C	-1.144048	0.638193	-0.000101
C123	C	-1.147566	0.692796	-0.085948
C124	C	-1.222980	0.750615	-0.086170
H125	H	-1.146644	0.675403	0.058017
H126	H	-1.190227	0.603157	-0.000156
H127	H	-1.101400	0.727829	-0.085884
H128	H	-1.144985	0.655610	-0.144081
H129	H	-1.269159	0.715579	-0.086225
H130	H	-1.225569	0.787819	-0.028048
H131	H	-1.225380	0.787664	-0.144420
H132	H	-0.886090	-0.234530	0.752909
C133	C	-0.550777	-0.271571	-0.099877
C134	C	-0.475127	-0.328981	-0.098530
C135	C	-0.492395	-0.419250	-0.102823
H136	H	-0.580553	-0.281135	-0.159898
H137	H	-0.584022	-0.284302	-0.043666
H138	H	-0.441895	-0.316255	-0.154735
H139	H	-0.445341	-0.319445	-0.038514
H140	H	-0.525641	-0.431980	-0.046612
H141	H	-0.522172	-0.428804	-0.162845
H142	H	-0.441071	-0.458213	-0.101900
C143	C	-1.107995	0.004315	0.767055
C144	C	-1.190287	-0.010359	0.741510
C145	C	-1.247305	0.050814	0.793952
H146	H	-1.098937	0.064526	0.749885
H147	H	-1.099918	-0.004458	0.837136
H148	H	-1.198362	-0.001578	0.671446
H149	H	-1.199373	-0.070557	0.758683
H150	H	-1.239228	0.042041	0.864032
H151	H	-1.238239	0.111021	0.776778
H152	H	-1.303147	0.040861	0.776634
H153	H	-1.131599	0.169764	0.000092
H154	H	-0.433141	0.016001	-0.067494
C155	C	-1.164608	0.065931	0.390708
C156	C	-1.150816	0.154467	0.416396
C157	C	-1.207567	0.216043	0.364098
H158	H	-1.220536	0.056259	0.407899
H159	H	-1.156520	0.057325	0.320607
H160	H	-1.158910	0.163069	0.486481
H161	H	-1.094899	0.164168	0.399203
H162	H	-1.199480	0.207437	0.293998
H163	H	-1.263492	0.206362	0.381293
H164	H	-1.198212	0.276121	0.381513
H165	H	-0.403325	-0.245822	0.095112
C166	C	-1.107725	0.004542	0.233040
C167	C	-1.094055	0.093153	0.258558
C168	C	-1.150816	0.154571	0.206068
H169	H	-1.163651	-0.005171	0.250190
H170	H	-1.099562	-0.004181	0.162967
H171	H	-1.102225	0.101873	0.328616
H172	H	-1.038140	0.102894	0.241406
H173	H	-1.142653	0.145847	0.135995
H174	H	-1.206739	0.144850	0.223222
H175	H	-1.141544	0.214700	0.223368
C176	C	-0.834413	0.115041	-0.000148
C177	C	-0.830912	0.060442	-0.086000
C178	C	-0.755495	0.002630	-0.086240
H179	H	-0.831800	0.077826	0.057967
H180	H	-0.788237	0.150081	-0.000209
H181	H	-0.877076	0.025405	-0.085930
H182	H	-0.833511	0.097633	-0.144129
H183	H	-0.709319	0.037670	-0.086301
H184	H	-0.752889	-0.034578	-0.028121
H185	H	-0.753106	-0.034416	-0.144493
H186	H	-0.417018	-0.135654	-0.166492
H187	H	-0.414421	-0.140915	0.166680
C188	C	-0.568141	-0.125709	0.189731
C189	C	-0.503242	-0.093141	0.244666
C190	C	-0.536561	-0.049449	0.331266
H191	H	-0.594549	-0.167349	0.229616
H192	H	-0.608350	-0.076506	0.171320
H193	H	-0.463048	-0.142338	0.263078
H194	H	-0.476828	-0.051489	0.204811
H195	H	-0.576771	-0.000246	0.312856
H196	H	-0.562969	-0.091095	0.371143
H197	H	-0.492535	-0.027340	0.368546
C198	C	-0.552711	-0.270265	0.103349
C199	C	-0.640061	-0.270711	0.109191
C200	C	-0.659220	-0.360189	0.116197
H201	H	-0.527192	-0.297766	0.161757
H202	H	-0.531984	-0.303158	0.045713
H203	H	-0.660779	-0.237831	0.166820
H204	H	-0.665600	-0.243228	0.050789
H205	H	-0.638493	-0.393081	0.058562
H206	H	-0.633696	-0.387682	0.174606
H207	H	-0.718488	-0.360504	0.120152
C208	C	-0.755539	0.245538	0.000102
C209	C	-0.687660	0.297422	0.000115
C210	C	-0.612121	0.239811	0.000166
H211	H	-0.752910	0.208386	-0.058064
H212	H	-0.752965	0.208424	0.058310
H213	H	-0.690232	0.334521	-0.058087
H214	H	-0.690260	0.334572	0.058277
H215	H	-0.609547	0.202696	0.058374
H216	H	-0.609501	0.202661	-0.058001
H217	H	-0.566056	0.275005	0.000185
H218	H	-0.773099	0.431685	0.000057
C219	C	-1.222805	0.507889	-0.000093
C220	C	-1.226326	0.562487	-0.085945
C221	C	-1.301737	0.620310	-0.086164
H222	H	-1.225394	0.545105	0.058022
H223	H	-1.268987	0.472857	-0.000138
H224	H	-1.180157	0.597516	-0.085891
H225	H	-1.223752	0.525296	-0.144074
H226	H	-1.347919	0.585278	-0.086209
H227	H	-1.304319	0.657519	-0.028045
H228	H	-1.304140	0.657355	-0.144418
H229	H	-1.205384	0.321569	0.000102
H230	H	-0.403195	-0.243482	-0.099593
