data_functionalizedCrystal
_audit_creation_method	'MofGen! by Chris Wilmer'
_symmetry_space_group_name_H-M	'P1'
_symmetry_Int_Tables_number	1
_symmetry_cell_setting	triclinic
loop_
_symmetry_equiv_pos_as_xyz
  x,y,z
_cell_length_a	10.489716
_cell_length_b	10.489741
_cell_length_c	13.448316
_cell_angle_alpha	89.993703
_cell_angle_beta	89.993632
_cell_angle_gamma	84.534155
loop_
_atom_site_label
_atom_site_type_symbol
_atom_site_fract_x
_atom_site_fract_y
_atom_site_fract_z
O1	O	1.694076	0.179822	-0.082683
O2	O	1.322876	0.196747	-0.082687
O3	O	1.516922	0.002686	-0.082679
O4	O	1.500029	0.373883	-0.082691
O5	O	1.516898	0.002674	0.082705
O6	O	1.322851	0.196735	0.082697
O7	O	1.694051	0.179810	0.082701
Cu8	Cu	1.508449	0.188271	0.097800
Cu9	Cu	1.508478	0.188286	-0.097786
O10	O	1.500005	0.373871	0.082693
C11	C	1.275332	0.195470	0.000004
C12	C	1.133701	0.191665	0.000003
C13	C	1.036027	0.310669	-0.000003
C14	C	0.958669	0.247779	0.081546
C15	C	0.958699	0.247763	-0.081509
C16	C	1.058208	0.128824	0.081620
C17	C	1.058244	0.128826	-0.081509
C18	C	0.980935	0.065848	0.000060
C19	C	1.515634	-0.044852	0.000012
C20	C	1.511817	-0.186481	0.000010
C21	C	1.388351	-0.254610	0.000002
C22	C	1.446663	-0.346744	0.081545
C23	C	1.446716	-0.346706	-0.081510
C24	C	1.570180	-0.276749	0.081621
C25	C	1.570216	-0.276702	-0.081508
C26	C	1.628618	-0.368808	0.000056
C27	C	1.741596	0.181087	0.000007
C28	C	1.883227	0.184892	0.000002
C29	C	1.501293	0.421409	-0.000001
C30	C	1.505110	0.563038	-0.000006
N31	N	1.508438	0.188260	0.235364
N32	N	1.508499	0.188287	-0.235350
C33	C	1.594389	0.102366	0.287408
C34	C	1.594397	0.102365	0.391511
C35	C	1.508459	0.188266	0.443568
C36	C	1.422499	0.274164	0.391517
C37	C	1.422486	0.274158	0.287416
C38	C	1.422534	0.274173	0.608497
C39	C	1.422548	0.274181	0.712606
C40	C	1.594445	0.102380	0.712592
C41	C	1.594432	0.102374	0.608491
C42	C	1.508473	0.188274	0.556447
H43	H	0.915226	0.298029	-0.150443
N44	N	1.687163	0.009731	0.768718
H45	H	1.674131	0.022762	0.842565
H46	H	1.671608	-0.080908	0.750532
H47	H	0.915176	0.298011	0.150486
H48	H	1.622365	-0.245927	0.150637
N49	N	1.115887	0.062360	-0.172836
H50	H	1.211907	0.064736	-0.171815
H51	H	1.094761	-0.029580	-0.173438
N52	N	1.253889	-0.188828	0.000096
H53	H	1.207411	-0.214123	0.061751
H54	H	1.257522	-0.092965	-0.000571
N55	N	1.763193	-0.434310	0.000119
H56	H	1.776860	-0.488996	-0.061472
H57	H	1.826531	-0.367584	0.000771
H58	H	1.394470	-0.377660	-0.150455
H59	H	1.352568	0.344129	0.754986
N60	N	1.639364	-0.235558	-0.172825
H61	H	1.716956	-0.192010	-0.152051
H62	H	1.667373	-0.313205	-0.214614
H63	H	1.352533	0.344118	0.566127
N64	N	1.687087	0.009722	0.231263
H65	H	1.741536	-0.044692	0.280034
H66	H	1.637736	-0.047147	0.188085
N67	N	1.115557	0.062340	0.173048
H68	H	1.045230	0.029594	0.214431
H69	H	1.178327	-0.011888	0.152296
N70	N	1.068710	0.447783	0.000082
H71	H	1.032295	0.492588	0.061736
H72	H	1.164828	0.449326	-0.000592
H73	H	1.394411	-0.377756	0.150483
H74	H	0.956505	-0.037744	0.000111
N75	N	1.329804	0.366805	0.447667
H76	H	1.379069	0.423762	0.490842
H77	H	1.275369	0.421132	0.398839
N78	N	1.687144	0.009766	0.447645
H79	H	1.741604	-0.044631	0.398871
H80	H	1.743961	0.059204	0.490803
N81	N	1.687127	0.009735	0.552339
H82	H	1.741583	-0.044683	0.601103
H83	H	1.637772	-0.047131	0.509162
N84	N	1.329775	0.366794	0.231278
H85	H	1.275336	0.421214	0.280050
H86	H	1.379111	0.423660	0.188066
