data_functionalizedCrystal
_audit_creation_method	'MofGen! by Chris Wilmer'
_symmetry_space_group_name_H-M	'P1'
_symmetry_Int_Tables_number	1
_symmetry_cell_setting	triclinic
loop_
_symmetry_equiv_pos_as_xyz
  x,y,z
_cell_length_a	10.654545
_cell_length_b	10.654550
_cell_length_c	9.730223
_cell_angle_alpha	89.996763
_cell_angle_beta	89.997167
_cell_angle_gamma	84.483991
loop_
_atom_site_label
_atom_site_type_symbol
_atom_site_fract_x
_atom_site_fract_y
_atom_site_fract_z
O1	O	1.667842	0.176372	-0.114272
O2	O	1.302363	0.193184	-0.114278
O3	O	1.493506	0.002038	-0.114270
O4	O	1.476700	0.367517	-0.114280
O5	O	1.493493	0.002033	0.114310
O6	O	1.302351	0.193178	0.114302
O7	O	1.667830	0.176366	0.114308
Zn8	Zn	1.485088	0.184771	0.150597
Zn9	Zn	1.485105	0.184778	-0.150567
O10	O	1.476687	0.367512	0.114300
C11	C	1.255559	0.191948	0.000011
C12	C	1.116115	0.188258	0.000009
C13	C	1.050604	0.186518	0.124609
C14	C	0.919585	0.183031	0.124609
C15	C	0.919599	0.183028	-0.124601
C16	C	1.050617	0.186507	-0.124600
C17	C	1.492266	-0.044762	0.000018
C18	C	1.488574	-0.184206	0.000014
C19	C	1.601115	-0.263693	0.000019
C20	C	1.597639	-0.394714	0.000010
C21	C	1.369069	-0.366747	-0.000006
C22	C	1.372547	-0.235729	-0.000006
C23	C	1.733079	-0.279841	0.000034
C24	C	1.729602	-0.410862	0.000025
C25	C	1.714634	0.177602	0.000015
C26	C	1.854078	0.181292	0.000008
C27	C	1.477927	0.414312	0.000008
C28	C	1.481619	0.553755	0.000004
N29	N	1.485086	0.184766	0.356133
N30	N	1.485117	0.184774	-0.356104
C31	C	1.569753	0.100163	0.428063
C32	C	1.569766	0.100163	0.571946
C33	C	1.400440	0.269381	0.571957
C34	C	1.400423	0.269374	0.428077
H35	H	0.866251	0.181614	0.226071
O36	O	1.661100	0.008915	0.649514
H37	H	1.607725	-0.052634	0.715074
H38	H	1.331511	0.338269	0.630548
O39	O	0.848961	0.181147	-0.259002
H40	H	0.778823	0.265018	-0.264981
O41	O	1.121255	0.188410	0.259001
H42	H	1.053685	0.186608	0.345642
O43	O	1.121290	0.188388	-0.258995
H44	H	1.053734	0.186605	-0.345644
H45	H	1.331471	0.338268	0.369508
H46	H	1.280904	-0.171013	-0.000030
O47	O	1.661029	0.008881	0.350455
H48	H	1.722529	0.062291	0.284876
H49	H	1.784699	-0.250481	-0.095619
O50	O	1.243928	-0.422316	-0.000006
H51	H	1.260414	-0.526776	0.000006
H52	H	1.775095	-0.244217	0.098731
O53	O	1.782439	-0.471339	-0.130694
H54	H	1.813269	-0.397448	-0.199989
O55	O	1.795435	-0.466198	0.126738
H56	H	1.830411	-0.389381	0.188789
