data_functionalizedCrystal
_audit_creation_method	'MofGen! by Chris Wilmer'
_symmetry_space_group_name_H-M	'P1'
_symmetry_Int_Tables_number	1
_symmetry_cell_setting	triclinic
loop_
_symmetry_equiv_pos_as_xyz
  x,y,z
_cell_length_a	10.489689
_cell_length_b	9.565339
_cell_length_c	10.723024
_cell_angle_alpha	90.001403
_cell_angle_beta	84.492846
_cell_angle_gamma	89.993230
loop_
_atom_site_label
_atom_site_type_symbol
_atom_site_fract_x
_atom_site_fract_y
_atom_site_fract_z
O1	O	-1.693979	0.116360	-0.175744
O2	O	-1.322765	0.116340	-0.192338
O3	O	-1.516935	0.116345	-0.002469
O4	O	-1.499809	0.116355	-0.365614
O5	O	-1.516919	-0.116175	-0.002480
O6	O	-1.322749	-0.116180	-0.192350
O7	O	-1.693964	-0.116160	-0.175756
Zn8	Zn	-1.508354	-0.153088	-0.184055
Zn9	Zn	-1.508374	0.153267	-0.184039
O10	O	-1.499794	-0.116166	-0.365626
C11	C	-1.275225	0.000077	-0.191105
C12	C	-1.133595	0.000069	-0.187396
N13	N	-1.508350	-0.362167	-0.184065
C14	C	-0.951133	0.000083	-0.301583
C15	C	-1.043324	0.114726	-0.244539
C16	C	-1.043282	-0.114520	-0.244520
C17	C	-0.973449	0.114829	-0.123683
C18	C	-0.973398	-0.114520	-0.123680
C19	C	-1.065561	0.000152	-0.066549
C20	C	-1.418525	-0.453373	-0.271844
C21	C	-1.534008	-0.546545	-0.297073
C22	C	-1.392916	-0.546551	-0.158845
C23	C	-1.623892	-0.453287	-0.209351
C24	C	-1.482723	-0.453285	-0.071074
C25	C	-1.598289	-0.546415	-0.096256
C26	C	-0.741501	0.000098	-0.177009
C27	C	-0.883124	0.000091	-0.180777
C28	C	-1.515681	0.000087	0.044026
C29	C	-1.511952	0.000091	0.182581
N30	N	-1.508389	0.362347	-0.184020
C31	C	-1.501048	0.000096	-0.412120
C32	C	-1.504776	0.000100	-0.550676
C33	C	-1.620599	0.000099	0.257518
C34	C	-1.616748	0.000104	0.400723
H35	H	-0.901379	0.000198	-0.400886
C36	C	-1.167192	-0.554867	-0.222128
C37	C	-1.261112	-0.601844	-0.130058
H38	H	-1.085821	-0.588992	-0.204356
H39	H	-1.186023	-0.588179	-0.301765
H40	H	-1.166024	-0.455565	-0.222688
H41	H	-1.262287	-0.701146	-0.129505
H42	H	-1.242276	-0.568538	-0.050401
H43	H	-1.416084	0.000095	0.224445
H44	H	-1.074199	-0.211440	-0.295662
H45	H	-1.411761	0.000084	0.384939
C46	C	-1.469108	-0.554907	-0.517843
C47	C	-1.563306	-0.601861	-0.426034
H48	H	-1.487187	-0.589062	-0.597458
H49	H	-1.468538	-0.455619	-0.519017
H50	H	-1.387714	-0.588220	-0.499327
H51	H	-1.644699	-0.568539	-0.444546
H52	H	-1.563888	-0.701169	-0.424864
H53	H	-0.942401	-0.211450	-0.072612
C54	C	-1.675115	-0.552053	0.121950
C55	C	-1.700965	-0.601227	0.003986
H56	H	-1.738510	-0.585888	0.183828
H57	H	-1.593205	-0.584170	0.140037
H58	H	-1.676119	-0.452748	0.121991
H59	H	-1.699951	-0.700533	0.003943
H60	H	-1.782896	-0.569118	-0.014105
C61	C	-1.819509	0.119652	0.240781
C62	C	-1.750023	0.000114	0.201012
H63	H	-1.899407	0.119665	0.205891
H64	H	-1.833903	0.119641	0.329594
H65	H	-1.772345	0.200722	0.213808
H66	H	-1.797183	-0.080957	0.227993
H67	H	-1.735633	0.000113	0.112180
H68	H	-1.074293	0.211647	-0.295654
H69	H	-0.942679	0.211862	-0.072610
C70	C	-1.714197	0.000127	0.612680
C71	C	-1.742318	0.000120	0.487641
H72	H	-1.791723	0.000147	0.666339
H73	H	-1.665911	-0.080957	0.628257
H74	H	-1.665903	0.081213	0.628248
H75	H	-1.790604	-0.080972	0.472070
H76	H	-1.790625	0.081213	0.472058
C77	C	-1.209864	0.119194	0.085275
C78	C	-1.132438	0.000229	0.067620
H79	H	-1.251157	0.119239	0.168102
H80	H	-1.158433	0.200639	0.072771
H81	H	-1.272528	0.118371	0.026936
H82	H	-1.069767	0.001057	0.125953
H83	H	-1.183872	-0.081237	0.080137
H84	H	-1.342633	-0.412520	-0.346145
H85	H	-1.721550	-0.412493	-0.230776
C86	C	-1.332366	-0.444919	0.084048
C87	C	-1.453379	-0.397924	0.057850
H88	H	-1.314239	-0.410730	0.163636
H89	H	-1.331392	-0.544207	0.084785
H90	H	-1.269393	-0.411669	0.021498
H91	H	-1.516353	-0.431183	0.120396
H92	H	-1.454363	-0.298615	0.057124
