data_functionalizedCrystal
_audit_creation_method	'MofGen! by Chris Wilmer'
_symmetry_space_group_name_H-M	'P1'
_symmetry_Int_Tables_number	1
_symmetry_cell_setting	triclinic
loop_
_symmetry_equiv_pos_as_xyz
  x,y,z
_cell_length_a	17.052862
_cell_length_b	20.875641
_cell_length_c	20.875641
_cell_angle_alpha	89.846015
_cell_angle_beta	68.096749
_cell_angle_gamma	47.603815
loop_
_atom_site_label
_atom_site_type_symbol
_atom_site_fract_x
_atom_site_fract_y
_atom_site_fract_z
Zr1	Zr	0.825678	-0.164918	0.740927
O2	O	1.013433	-0.298614	0.653552
O3	O	0.652002	-0.109607	0.753388
O4	O	0.832717	-0.271022	0.770379
O5	O	0.822255	-0.026169	0.639453
O6	O	0.822256	-0.265553	0.878828
O7	O	0.832717	-0.137199	0.636561
O8	O	0.498988	0.023189	0.848434
O9	O	1.145523	-0.314910	0.669846
O10	O	0.710416	-0.099244	0.856943
O11	O	0.710415	-0.020465	0.778166
O12	O	0.923185	-0.210510	0.798171
O13	O	0.923185	-0.131731	0.719394
Zr14	Zr	0.792307	0.020885	0.918502
Zr15	Zr	0.808993	-0.156195	0.913891
Zr16	Zr	0.808992	0.012163	0.745538
Zr17	Zr	1.036346	-0.190909	0.766914
Zr18	Zr	0.581639	0.046876	0.892515
O19	O	0.965983	-0.034426	0.906041
O20	O	0.989709	-0.286212	0.899484
O21	O	0.989708	-0.046828	0.660109
O22	O	0.604552	0.154581	1.005877
O23	O	0.628277	-0.097205	0.999320
O24	O	0.628277	0.142179	0.759945
O25	O	0.795730	-0.117864	1.019977
O26	O	0.785268	0.126989	0.889051
O27	O	0.795729	0.121520	0.780601
O28	O	0.785268	-0.006833	1.022868
O29	O	1.132260	-0.307977	0.807329
O30	O	0.485725	0.163944	0.852100
O31	O	0.472463	0.170878	0.989583
O32	O	0.485726	0.030122	0.985917
O33	O	1.132259	-0.174155	0.673512
O34	O	1.118997	-0.167222	0.810995
O35	O	0.694800	0.066477	0.861258
O36	O	0.694800	-0.012302	0.940035
O37	O	0.907570	-0.123568	0.881263
O38	O	0.907569	-0.044789	0.802487
C39	C	0.545479	-0.039506	0.797208
C40	C	0.456045	-0.028472	0.786176
C41	C	0.829863	-0.082927	0.613363
C42	C	0.836947	-0.086630	0.539935
C43	C	0.788121	0.149485	0.835483
C44	C	0.781038	0.224660	0.837441
C45	C	0.203956	-0.161870	0.919557
C46	C	0.287989	-0.172243	0.929921
C47	C	0.330007	-0.136301	0.893986
C48	C	0.287984	-0.089985	0.847685
C49	C	0.203950	-0.079617	0.837316
C50	C	0.330001	-0.054048	0.811744
C51	C	0.287978	-0.007732	0.765443
C52	C	0.203952	0.002635	0.755077
C53	C	0.161934	-0.033307	0.791012
C54	C	0.414035	-0.064416	0.822113
C55	C	0.414029	0.017838	0.739872
C56	C	0.329996	0.028211	0.729508
C57	C	1.072506	-0.104527	0.862221
C58	C	1.161940	-0.115561	0.873253
C59	C	0.829864	-0.293517	0.823946
C60	C	0.836948	-0.368693	0.821988
C61	C	0.888770	0.201900	0.807683
C62	C	0.882108	0.272539	0.809519
C63	C	0.767711	0.365937	0.841116
C64	C	0.659971	0.388696	0.870874
C65	C	0.666635	0.318058	0.869034
C66	C	0.735871	0.583428	0.849906
C67	C	0.729215	0.654067	0.851746
C68	C	0.951353	0.537905	0.790389
C69	C	0.958007	0.467271	0.788555
C70	C	0.850267	0.490035	0.818309
N71	N	0.760898	0.438143	0.842995
N72	N	0.857081	0.417830	0.816426
C73	C	0.729214	-0.030294	0.536115
C74	C	0.735877	-0.033777	0.467120
C75	C	0.850274	-0.093599	0.401946
C76	C	0.958014	-0.149937	0.405769
C77	C	0.951350	-0.146449	0.474763
C78	C	0.882114	-0.110253	0.192311
C79	C	0.888771	-0.113738	0.123314
C80	C	0.666633	0.002424	0.184670
C81	C	0.659979	0.005902	0.253663
C82	C	0.767719	-0.050432	0.257480
N83	N	0.857087	-0.097162	0.331421
N84	N	0.760904	-0.046864	0.328004
C85	C	0.788122	-0.061106	1.046066
C86	C	0.781038	-0.057403	1.119494
C87	C	0.524609	-0.028595	1.013560
C88	C	0.428091	-0.013859	1.075955
C89	C	0.524608	0.181995	0.802977
C90	C	0.428090	0.268204	0.793902
C91	C	0.503737	0.192905	1.019328
C92	C	0.400136	0.282818	1.083681
C93	C	1.114248	-0.336938	0.640101
C94	C	1.217849	-0.426850	0.575748
C95	C	1.093377	-0.115437	0.645869
C96	C	1.189894	-0.130174	0.583474
C97	C	1.093377	-0.326028	0.856452
C98	C	1.189895	-0.412237	0.865527
C99	C	0.390917	-0.052329	1.061883
C100	C	0.300243	-0.038500	1.120504
C101	C	0.246738	0.013804	1.193197
C102	C	0.283920	0.052274	1.207268
C103	C	0.374599	0.038440	1.148648
C104	C	0.374613	0.354079	0.833014
C105	C	0.283936	0.435087	0.824486
C106	C	0.246732	0.430219	0.776850
C107	C	0.300219	0.344334	0.737734
C108	C	0.390900	0.263327	0.746258
C109	C	0.351484	0.283920	1.155030
C110	C	0.254151	0.368394	1.215504
C111	C	0.205468	0.451765	1.204628
C112	C	0.254129	0.450660	1.133272
C113	C	0.351466	0.366187	1.072800
C114	C	1.266512	-0.427954	0.504400
C115	C	1.363870	-0.512431	0.443929
C116	C	1.412558	-0.595803	0.454806
C117	C	1.363891	-0.594697	0.526161
C118	C	1.266540	-0.510222	0.586632
C119	C	1.227077	-0.091713	0.597547
C120	C	1.317777	-0.105563	0.538928
C121	C	1.371285	-0.157870	0.466236
C122	C	1.334099	-0.196336	0.452164
C123	C	1.243407	-0.182491	0.510783
C124	C	1.313765	-0.464715	0.819018
C125	C	1.404465	-0.545712	0.827543
C126	C	1.371293	-0.574234	0.882574
C127	C	1.247410	-0.521748	0.929088
C128	C	1.156712	-0.440748	0.920566
H129	H	0.448243	-0.102127	0.859812
H130	H	1.377679	-0.238926	0.392971
H131	H	0.126210	0.520543	1.253875
H132	H	1.220417	-0.544983	0.973895
H133	H	0.969835	0.254000	0.785288
Br134	Br	1.494367	-0.176652	0.386689
H135	H	0.169749	0.040340	0.717369
Br136	Br	0.589661	0.042694	0.461940
Br137	Br	0.417539	0.170784	1.169812
H138	H	0.295770	0.065921	0.691809
H139	H	1.039076	-0.192313	0.477870
Br140	Br	1.192950	-0.234692	0.491670
H141	H	0.214477	0.518553	1.124427
H142	H	0.404853	0.069774	1.160116
Br143	Br	0.047874	-0.019220	0.776951
Br144	Br	1.200504	-0.508740	0.683458
Br145	Br	1.429896	-0.513909	0.347099
Br146	Br	0.988604	-0.369547	0.983684
Br147	Br	0.123661	0.540167	0.765289
Br148	Br	0.249799	-0.090715	1.101390
Br149	Br	0.471056	0.066610	0.691093
Br150	Br	0.463462	0.146787	0.693173
H151	H	0.404893	0.358060	0.871804
Br152	Br	0.123673	0.032570	1.272745
H153	H	0.391067	0.365302	1.014706
Br154	Br	1.358818	-0.426029	0.744323
H155	H	0.214541	0.369277	1.273600
H156	H	0.566827	0.464747	0.896598
H157	H	0.398431	-0.144750	0.902427
Br158	Br	1.028334	-0.186708	0.197482
Br159	Br	1.494400	-0.684165	0.894130
Br160	Br	0.345023	-0.235105	0.992750
Br161	Br	1.200453	-0.314818	0.489618
H162	H	1.183516	-0.049115	0.656732
H163	H	1.491827	-0.664582	0.405561
H164	H	0.434482	-0.094930	1.002699
Br165	Br	0.146946	-0.210658	0.968310
Br166	Br	1.429980	-0.707854	0.540910
H167	H	0.269913	0.340384	0.698948
H168	H	1.051161	0.391224	0.762827
H169	H	1.039069	0.519380	0.766164
H170	H	1.348038	-0.074233	0.550400
Br171	Br	1.572580	-0.616928	0.764408
H172	H	0.981924	0.125854	0.781957
H173	H	0.240343	0.094860	1.266462
H174	H	0.636055	0.730119	0.877475
H175	H	0.578907	0.336595	0.893263
Br176	Br	0.573954	0.050890	0.624562
Br177	Br	0.589652	0.614331	0.890285
H178	H	0.566826	0.054600	0.306726
H179	H	0.578917	0.048288	0.181554
H180	H	1.051158	-0.198641	0.352698
Br181	Br	1.044035	-0.194944	0.034860
H182	H	0.240396	0.505010	0.856344
