data_functionalizedCrystal
_audit_creation_method	'MofGen! by Chris Wilmer'
_symmetry_space_group_name_H-M	'P1'
_symmetry_Int_Tables_number	1
_symmetry_cell_setting	triclinic
loop_
_symmetry_equiv_pos_as_xyz
  x,y,z
_cell_length_a	15.995350
_cell_length_b	27.731996
_cell_length_c	15.072220
_cell_angle_alpha	89.992847
_cell_angle_beta	89.991149
_cell_angle_gamma	83.056881
loop_
_atom_site_label
_atom_site_type_symbol
_atom_site_fract_x
_atom_site_fract_y
_atom_site_fract_z
O1	O	1.110170	0.062303	-0.073719
O2	O	0.866292	0.069997	-0.073739
O3	O	0.995828	-0.004216	-0.073709
O4	O	0.980634	0.136516	-0.073749
O5	O	0.995796	-0.004212	0.073856
O6	O	0.866260	0.070001	0.073826
O7	O	1.110138	0.062307	0.073846
Zn8	Zn	0.988194	0.066155	0.097265
Zn9	Zn	0.988236	0.066149	-0.097158
O10	O	0.980602	0.136520	0.073816
C11	C	0.835086	0.069681	0.000041
C12	C	0.742148	0.068727	0.000035
C13	C	0.404446	0.065303	0.000054
C14	C	0.452581	0.012450	0.000398
C15	C	0.549259	0.013403	0.000059
C16	C	0.571984	0.067001	0.000045
C17	C	0.530569	0.093068	-0.084226
C18	C	0.433951	0.091740	-0.084290
C19	C	0.433562	0.092837	0.083519
C20	C	0.530507	0.092824	0.084627
C21	C	0.666669	0.067964	0.000037
C22	C	0.309761	0.064341	0.000056
C23	C	0.995500	-0.022223	0.000076
C24	C	0.994560	-0.075883	0.000085
C25	C	0.988662	-0.408627	-0.080396
C26	C	0.985092	-0.610301	-0.080412
O27	O	0.984609	-0.636375	-0.148822
N28	N	0.984632	-0.635517	0.000025
C29	C	0.985058	-0.610312	0.080471
O30	O	0.984575	-0.636388	0.148888
C31	C	0.988622	-0.408639	0.080486
C32	C	0.989091	-0.383426	0.000044
C33	C	0.989131	-0.383413	-0.160832
C34	C	0.990028	-0.332998	-0.160827
C35	C	0.990456	-0.307797	-0.080387
C36	C	0.989988	-0.333011	0.000049
C37	C	0.989042	-0.383434	0.160932
C38	C	0.989931	-0.333013	0.160929
C39	C	0.990400	-0.307799	0.080486
C40	C	0.991314	-0.257394	0.080494
N41	N	0.991775	-0.232177	0.000057
C42	C	0.991346	-0.257379	-0.080383
C43	C	0.983188	-0.716194	0.080458
C44	C	0.982299	-0.766612	0.080454
C45	C	0.982332	-0.766597	-0.080430
C46	C	0.983227	-0.716178	-0.080425
C47	C	0.983649	-0.690977	0.000021
C48	C	0.993230	-0.151504	-0.080367
C49	C	0.994131	-0.101084	-0.080355
C50	C	0.994094	-0.101104	0.080528
C51	C	0.993197	-0.151519	0.080517
C52	C	0.992763	-0.176717	0.000062
O53	O	0.991788	-0.231288	0.148868
O54	O	0.991810	-0.231293	-0.148789
C55	C	0.987765	-0.459042	-0.080401
C56	C	0.987297	-0.484256	0.000035
C57	C	0.987726	-0.459054	0.080475
C58	C	0.986407	-0.534674	0.000031
C59	C	0.985979	-0.559875	-0.080409
C60	C	0.986439	-0.534658	-0.160846
C61	C	0.987337	-0.484243	-0.160842
C62	C	0.987265	-0.484271	0.160912
C63	C	0.986369	-0.534686	0.160901
C64	C	0.985940	-0.559888	0.080460
C65	C	1.141344	0.062623	0.000064
C66	C	1.234282	0.063577	0.000064
C67	C	0.980930	0.154526	0.000029
C68	C	0.981870	0.208187	0.000014
N69	N	0.988171	0.066158	0.229954
N70	N	0.988265	0.066142	-0.229847
C71	C	0.988234	0.066147	0.589155
C72	C	0.918693	0.105724	0.551533
C73	C	0.918849	0.105868	0.448707
C74	C	0.988202	0.066153	0.410951
C75	C	1.075421	0.077169	0.448246
C76	C	1.075031	0.077450	0.551104
C77	C	0.971337	0.015438	0.551268
C78	C	0.969328	0.015776	0.448405
C79	C	0.988190	0.066155	0.310238
C80	C	0.988253	0.066146	0.689869
H81	H	0.992873	-0.172014	-0.145881
H82	H	0.986094	-0.555186	-0.226344
H83	H	0.992823	-0.172049	0.146019
O84	O	0.985872	-0.561876	0.247673
H85	H	0.985183	-0.601170	0.234166
H86	H	0.545353	0.131910	0.089706
O87	O	0.410051	0.066547	-0.167709
H88	H	0.428625	0.086839	-0.226560
H89	H	0.544173	0.132445	-0.087369
O90	O	0.994625	-0.073887	-0.167120
H91	H	0.994164	-0.099884	-0.223054
H92	H	0.988778	-0.403927	-0.226340
H93	H	1.090022	0.114432	0.575076
O94	O	0.566993	0.067614	0.167209
H95	H	0.537354	0.086078	0.226691
H96	H	0.577946	-0.007086	0.060469
H97	H	1.016740	-0.015055	0.422708
H98	H	0.994446	-0.080576	0.146021
O99	O	1.095774	0.125600	0.414111
H100	H	1.155389	0.120243	0.375708
H101	H	0.434326	-0.008675	0.060833
O102	O	0.390543	0.143136	-0.089387
H103	H	0.438590	0.168828	-0.091803
H104	H	1.128359	0.049761	0.575990
H105	H	0.433279	-0.008581	-0.059691
O106	O	0.406655	0.069953	0.168134
H107	H	0.463167	0.057148	0.208288
O108	O	0.568473	0.069081	-0.167294
H109	H	0.616796	0.038600	-0.148773
O110	O	0.888959	0.001408	0.585665
H111	H	0.846403	-0.003279	0.528973
H112	H	0.401283	0.131805	0.084079
O113	O	0.586551	-0.013920	-0.080086
H114	H	0.535522	-0.027863	-0.118758
H115	H	0.990407	-0.312474	-0.226332
O116	O	0.933046	0.155714	0.416080
H117	H	0.991238	0.152863	0.375326
O118	O	0.983719	-0.688983	-0.167186
H119	H	0.983265	-0.714982	-0.223117
O120	O	0.981859	-0.793781	-0.167194
H121	H	0.981153	-0.833074	-0.153674
H122	H	0.981930	-0.787137	0.145958
H123	H	0.987718	-0.463719	-0.226346
H124	H	0.983536	-0.695680	0.145970
O125	O	0.988527	-0.410622	0.247695
H126	H	0.988963	-0.384618	0.303622
H127	H	0.905173	0.007416	0.424030
H128	H	0.990262	-0.312496	0.226439
H129	H	0.987615	-0.463757	0.226418
O130	O	1.038488	-0.023592	0.583504
H131	H	1.101124	-0.015271	0.560598
O132	O	0.832943	0.097185	0.415296
H133	H	0.790911	0.092846	0.472607
H134	H	0.853629	0.099269	0.576291
H135	H	0.929261	0.143143	0.577362
H136	H	1.128377	0.049110	0.423788
