data_functionalizedCrystal
_audit_creation_method	'MofGen! by Chris Wilmer'
_symmetry_space_group_name_H-M	'P1'
_symmetry_Int_Tables_number	1
_symmetry_cell_setting	triclinic
loop_
_symmetry_equiv_pos_as_xyz
  x,y,z
_cell_length_a	19.288864
_cell_length_b	18.266242
_cell_length_c	19.188940
_cell_angle_alpha	89.993204
_cell_angle_beta	96.857520
_cell_angle_gamma	90.022884
loop_
_atom_site_label
_atom_site_type_symbol
_atom_site_fract_x
_atom_site_fract_y
_atom_site_fract_z
O1	O	0.921362	0.061116	-0.087099
O2	O	0.719103	0.061066	-0.098848
O3	O	0.826066	0.061087	0.008682
O4	O	0.814399	0.061096	-0.194629
O5	O	0.826048	-0.060675	0.008688
O6	O	0.719085	-0.060696	-0.098843
O7	O	0.921344	-0.060646	-0.087093
Zn8	Zn	0.820212	-0.080003	-0.092967
Zn9	Zn	0.820235	0.080424	-0.092974
O10	O	0.814381	-0.060666	-0.194624
C11	C	0.693217	0.000179	-0.098467
C12	C	0.616114	0.000160	-0.097333
N13	N	0.820200	-0.189490	-0.092962
C14	C	0.571424	0.000174	-0.160427
C15	C	0.498977	0.000182	-0.159360
C16	C	0.471222	0.000191	-0.095197
C17	C	0.515922	0.000172	-0.032094
C18	C	0.588367	0.000157	-0.033162
C19	C	0.362961	0.042872	-0.044759
C20	C	0.290517	0.042892	-0.043693
C21	C	0.247777	0.000235	-0.091900
C22	C	0.277488	-0.042433	-0.141184
C23	C	0.349934	-0.042448	-0.142252
C24	C	0.392668	0.000207	-0.094031
C25	C	0.124531	0.000257	-0.153842
C26	C	0.052083	0.000260	-0.152773
C27	C	0.069029	0.000258	-0.025506
C28	C	0.141476	0.000247	-0.026576
C29	C	0.169222	0.000250	-0.090746
C30	C	0.867579	-0.227789	-0.045371
C31	C	0.867584	-0.304434	-0.045367
C32	C	0.820216	-0.342777	-0.092967
C33	C	0.772828	-0.304468	-0.140562
C34	C	0.772821	-0.227824	-0.140559
N35	N	0.811189	-0.463108	-0.154775
N36	N	0.811201	-0.535916	-0.154776
C37	C	0.820235	-0.573699	-0.092977
N38	N	0.829272	-0.535924	-0.031177
N39	N	0.829264	-0.463109	-0.031177
C40	C	0.820219	-0.425884	-0.092975
C41	C	0.867621	-0.695106	-0.045379
C42	C	0.867621	-0.771752	-0.045375
C43	C	0.772869	-0.771784	-0.140575
C44	C	0.772866	-0.695139	-0.140574
C45	C	0.820246	-0.656805	-0.092976
C46	C	0.947230	0.000243	-0.087474
C47	C	1.024333	0.000267	-0.088609
C48	C	0.825678	0.000206	0.034696
C49	C	0.824540	0.000206	0.112200
N50	N	0.820252	0.189911	-0.092974
C51	C	0.814769	0.000216	-0.220637
C52	C	0.815907	0.000221	-0.298141
C53	C	0.816438	-0.066151	0.665461
C54	C	0.817499	-0.066155	0.592637
C55	C	0.818043	0.000217	0.556215
C56	C	0.817508	0.066598	0.592620
C57	C	0.816439	0.066600	0.665442
N58	N	0.859252	0.049629	0.447191
N59	N	0.860269	0.049623	0.378014
C60	C	0.821260	0.000215	0.336806
N61	N	0.781205	-0.049197	0.367390
N62	N	0.780192	-0.049192	0.436574
C63	C	0.819201	0.000222	0.477251
C64	C	0.822941	-0.066165	0.221444
C65	C	0.823998	-0.066166	0.148617
C66	C	0.824013	0.066588	0.148603
C67	C	0.822949	0.066587	0.221427
C68	C	0.822417	0.000209	0.257843
H69	H	0.594010	0.000178	-0.212679
O70	O	0.913652	-0.657749	0.000752
C71	C	0.903501	-0.581888	-0.009465
H72	H	0.877316	-0.571441	-0.065024
H73	H	0.868845	-0.560120	0.030002
C74	C	1.006761	-0.555368	0.069350
C75	C	0.974605	-0.542537	0.001110
H76	H	1.050621	-0.531093	0.075876
H77	H	1.013599	-0.606477	0.076236
H78	H	0.977874	-0.537228	0.102232
H79	H	1.003488	-0.560684	-0.031770
H80	H	0.967773	-0.491429	-0.005781
O81	O	0.822410	0.130996	0.256892
C82	C	0.821369	0.116766	0.328978
H83	H	0.799231	0.059717	0.335972
H84	H	0.876778	0.119927	0.357141
C85	C	0.802480	0.244085	0.351641
C86	C	0.775284	0.174018	0.360230
H87	H	0.774055	0.279402	0.370920
H88	H	0.803184	0.253673	0.303075
H89	H	0.848654	0.246708	0.375110
H90	H	0.729115	0.171393	0.336754
H91	H	0.774572	0.164431	0.408793
O92	O	0.455654	0.000235	-0.220717
C93	C	0.495679	0.000214	-0.277583
H94	H	0.549820	0.023248	-0.259691
H95	H	0.500739	-0.058199	-0.297269
C96	C	0.392931	0.019696	-0.359251
C97	C	0.459427	0.047992	-0.337278
H98	H	0.370568	0.049164	-0.396076
H99	H	0.365965	0.019707	-0.320940
H100	H	0.397157	-0.028982	-0.375652
H101	H	0.455199	0.096664	-0.320869
H102	H	0.486392	0.047990	-0.375587
O103	O	0.378686	-0.083964	-0.190144
C104	C	0.325433	-0.121598	-0.232479
H105	H	0.277579	-0.126740	-0.203226
H106	H	0.310962	-0.089967	-0.283353
C107	C	0.410229	-0.192177	-0.285443
C108	C	0.351456	-0.198497	-0.249512
H109	H	0.426282	-0.239610	-0.295953
H110	H	0.446107	-0.166820	-0.256923
H111	H	0.398162	-0.165815	-0.327834
H112	H	0.363527	-0.224851	-0.207118
H113	H	0.315581	-0.223860	-0.278025
H114	H	0.397755	0.077613	-0.005502
H115	H	0.015697	0.000267	-0.204154
O116	O	0.041962	0.000300	0.036763
C117	C	-0.031564	0.000296	0.024178
H118	H	-0.048728	0.023350	-0.030364
H119	H	-0.051753	-0.058115	0.027502
C120	C	-0.040343	0.019740	0.146606
C121	C	-0.061423	0.048061	0.079619
H122	H	-0.058763	0.049201	0.180807
H123	H	0.009193	0.019740	0.155086
H124	H	-0.057169	-0.028935	0.149367
H125	H	-0.044590	0.096732	0.076857
H126	H	-0.110957	0.048070	0.071140
O127	O	0.726826	-0.809100	-0.186719
C128	C	0.684083	-0.853447	-0.149436
H129	H	0.711914	-0.864925	-0.094730
H130	H	0.632764	-0.823935	-0.144821
C131	C	0.634937	-0.912155	-0.256031
C132	C	0.669123	-0.926257	-0.188843
H133	H	0.625706	-0.957066	-0.280341
H134	H	0.663732	-0.882276	-0.281150
H135	H	0.592175	-0.887559	-0.252176
H136	H	0.711888	-0.950843	-0.192699
H137	H	0.640335	-0.956141	-0.163726
H138	H	0.816006	0.120649	0.695076
H139	H	0.242690	-0.077169	-0.180438
O140	O	0.816016	-0.130604	0.700889
C141	C	0.875518	-0.134564	0.751135
H142	H	0.917900	-0.096909	0.734849
H143	H	0.861105	-0.116716	0.804485
C144	C	0.850680	-0.260115	0.775957
C145	C	0.902736	-0.213871	0.755951
H146	H	0.867468	-0.309035	0.778931
H147	H	0.810590	-0.257446	0.742108
H148	H	0.838674	-0.245233	0.820413
H149	H	0.914735	-0.228748	0.711492
H150	H	0.942828	-0.216544	0.789794
H151	H	0.817948	0.120638	0.562960
H152	H	0.147123	0.000248	-0.206093
H153	H	0.177863	0.000239	0.024802
O154	O	0.913514	-0.341686	0.000930
C155	C	0.876455	-0.386063	0.043896
H156	H	0.821685	-0.362991	0.044945
H157	H	0.872747	-0.444145	0.022026
C158	C	0.982241	-0.415584	0.117668
C159	C	0.914972	-0.387243	0.118961
H160	H	1.006001	-0.416315	0.163971
H161	H	1.007209	-0.385688	0.088720
H162	H	0.979141	-0.463983	0.099439
H163	H	0.918073	-0.338842	0.137181
H164	H	0.890006	-0.417131	0.147914
H165	H	0.734260	-0.335690	-0.179318
O166	O	0.726878	-0.657817	-0.186746
C167	C	0.737042	-0.581949	-0.176552
H168	H	0.763164	-0.571476	-0.120972
H169	H	0.771760	-0.560178	-0.215978
C170	C	0.633874	-0.555495	-0.255499
C171	C	0.665953	-0.542631	-0.187233
H172	H	0.590024	-0.531241	-0.262091
H173	H	0.627028	-0.606609	-0.262369
H174	H	0.662814	-0.537352	-0.288346
H175	H	0.637018	-0.560782	-0.154387
H176	H	0.672793	-0.491519	-0.180357
H177	H	0.266331	0.077637	-0.003566
H178	H	0.822501	-0.120214	0.251095
H179	H	0.493319	0.000189	0.020148
O180	O	0.726771	-0.190730	-0.186862
C181	C	0.684948	-0.241003	-0.228862
H182	H	0.713424	-0.295623	-0.229580
H183	H	0.633422	-0.249181	-0.206323
C184	C	0.635426	-0.144000	-0.303339
C185	C	0.670403	-0.211084	-0.304225
H186	H	0.626450	-0.125544	-0.349826
H187	H	0.663601	-0.110129	-0.275042
H188	H	0.592492	-0.150824	-0.284553
H189	H	0.713340	-0.204257	-0.323003
H190	H	0.642234	-0.244953	-0.332527
O191	O	0.824546	-0.130709	0.113371
C192	C	0.823833	-0.189291	0.161131
H193	H	0.845056	-0.169821	0.215997
H194	H	0.768009	-0.209726	0.161381
C195	C	0.843726	-0.275893	0.071461
C196	C	0.869798	-0.251981	0.138848
H197	H	0.872077	-0.314566	0.057715
H198	H	0.844204	-0.236426	0.039283
H199	H	0.797207	-0.292917	0.071678
H200	H	0.916313	-0.234950	0.138628
H201	H	0.869329	-0.291447	0.171025
O202	O	0.818111	-0.130588	0.557212
C203	C	0.878879	-0.134551	0.523200
H204	H	0.899093	-0.076916	0.514978
H205	H	0.920580	-0.167288	0.556941
C206	C	0.836797	-0.243300	0.461674
C207	C	0.861620	-0.172512	0.451570
H208	H	0.826153	-0.266720	0.417490
H209	H	0.795857	-0.240633	0.484590
H210	H	0.871551	-0.270572	0.489794
H211	H	0.826863	-0.145239	0.423458
H212	H	0.902554	-0.175176	0.428647
H213	H	0.624754	0.000146	0.018218
O214	O	0.824400	0.131096	0.113267
C215	C	0.764001	0.171435	0.123012
H216	H	0.721683	0.132559	0.137365
H217	H	0.776979	0.212803	0.167128
C218	C	0.789632	0.259879	0.037044
C219	C	0.737655	0.212130	0.054667
H220	H	0.773382	0.284985	-0.005113
H221	H	0.830326	0.232704	0.030480
H222	H	0.800443	0.294345	0.073813
H223	H	0.726852	0.177659	0.017902
H224	H	0.696959	0.239301	0.061222
O225	O	0.913480	-0.190409	0.000868
C226	C	0.956219	-0.145871	-0.036236
H227	H	0.957530	-0.168952	-0.091256
H228	H	0.934270	-0.087878	-0.040060
C229	C	1.029172	-0.116030	0.070300
C230	C	1.030788	-0.144383	0.002725
H231	H	1.075169	-0.115109	0.094333
H232	H	1.000377	-0.146034	0.095299
H233	H	1.010879	-0.067705	0.067104
H234	H	1.049073	-0.192710	0.005922
H235	H	1.059588	-0.114387	-0.022273
O236	O	0.913620	-0.808877	0.000954
C237	C	0.902538	-0.790177	0.070045
H238	H	0.875760	-0.734543	0.069893
H239	H	0.868039	-0.833334	0.091554
C240	C	1.006095	-0.854935	0.116851
C241	C	0.973212	-0.786601	0.116666
H242	H	1.049690	-0.852732	0.145611
H243	H	1.013561	-0.867536	0.070303
H244	H	0.977339	-0.890892	0.134774
H245	H	1.001964	-0.750648	0.098736
H246	H	0.965753	-0.773994	0.163212
