data_functionalizedCrystal
_audit_creation_method	'MofGen! by Chris Wilmer'
_symmetry_space_group_name_H-M	'P1'
_symmetry_Int_Tables_number	1
_symmetry_cell_setting	triclinic
loop_
_symmetry_equiv_pos_as_xyz
  x,y,z
_cell_length_a	21.606444
_cell_length_b	14.395555
_cell_length_c	14.395555
_cell_angle_alpha	89.999455
_cell_angle_beta	59.998963
_cell_angle_gamma	59.998460
loop_
_atom_site_label
_atom_site_type_symbol
_atom_site_fract_x
_atom_site_fract_y
_atom_site_fract_z
Zr1	Zr	0.677424	0.894906	-0.121828
O2	O	0.806552	0.746576	-0.270160
O3	O	0.548303	0.940378	-0.076360
O4	O	0.677427	0.940379	-0.270156
O5	O	0.677423	0.746572	0.076510
O6	O	0.677423	1.093254	-0.270148
O7	O	0.677427	0.746574	-0.076364
O8	O	0.446443	1.093251	0.076517
O9	O	0.908402	0.746574	-0.270155
O10	O	0.601407	1.073858	-0.056958
O11	O	0.601407	0.959768	0.057124
O12	O	0.753434	0.959769	-0.171045
O13	O	0.753434	0.845679	-0.056962
Zr14	Zr	0.677410	1.138718	0.122002
Zr15	Zr	0.677417	1.138722	-0.121815
Zr16	Zr	0.677417	0.894901	0.121989
Zr17	Zr	0.839865	0.894903	-0.121820
Zr18	Zr	0.514969	1.138720	0.121994
O19	O	0.806531	1.093245	0.076534
O20	O	0.806541	1.093252	-0.270141
O21	O	0.806541	0.746570	0.076516
O22	O	0.548282	1.287048	0.270334
O23	O	0.548293	1.287054	-0.076342
O24	O	0.548293	0.940372	0.270315
O25	O	0.677411	1.287052	-0.076336
O26	O	0.677407	1.093244	0.270330
O27	O	0.677411	0.940370	0.270322
O28	O	0.677407	1.287049	0.076539
O29	O	0.908397	0.940376	-0.270144
O30	O	0.446437	1.093248	0.270319
O31	O	0.446432	1.287049	0.270329
O32	O	0.446437	1.287053	0.076527
O33	O	0.908397	0.746571	-0.076353
O34	O	0.908391	0.940372	-0.076343
O35	O	0.601400	1.073854	0.171219
O36	O	0.601400	1.187944	0.057137
O37	O	0.753427	1.073856	-0.056950
O38	O	0.753427	0.959765	0.057132
C39	C	0.474229	1.016815	0.000077
C40	C	0.405269	1.016816	0.000074
C41	C	0.677426	0.711834	0.000071
C42	C	0.677429	0.608328	0.000065
C43	C	0.372871	1.076367	-0.059478
C44	C	0.308071	1.076371	-0.059470
C45	C	0.275674	1.016817	0.000083
C46	C	0.308075	0.957264	0.059642
C47	C	0.372869	0.957267	0.059640
C48	C	0.046765	0.957250	0.059651
C49	C	-0.018032	0.957249	0.059646
C50	C	-0.018032	1.076355	-0.059459
C51	C	0.046762	1.076358	-0.059460
C52	C	0.079153	1.016810	0.000103
C53	C	0.149416	1.016808	0.000096
C54	C	0.205418	1.016811	0.000085
C55	C	0.760321	0.485533	-0.062130
C56	C	0.718885	0.454699	-0.107209
C57	C	0.718861	0.454739	0.045136
C58	C	0.635993	0.578857	-0.045076
C59	C	0.635981	0.578894	0.107328
C60	C	0.594485	0.548133	0.062276
C61	C	0.880605	1.016809	0.000097
C62	C	0.949565	1.016807	0.000100
C63	C	0.677426	1.016817	-0.304890
C64	C	0.677429	1.016819	-0.408397
C65	C	0.677408	1.321789	0.000103
C66	C	0.677405	1.425296	0.000109
C67	C	0.760321	0.954600	-0.531191
C68	C	0.718881	1.061870	-0.562027
C69	C	0.718866	0.909555	-0.561984
C70	C	0.635989	1.124152	-0.437869
C71	C	0.635986	0.971760	-0.437830
C72	C	0.594485	1.079093	-0.468592
C73	C	0.677408	1.016806	0.305064
C74	C	0.677405	1.016805	0.408571
C75	C	0.474220	1.321792	0.000093
C76	C	0.405257	1.425300	0.000096
C77	C	0.474220	1.016810	0.305055
C78	C	0.405257	1.016809	0.408558
C79	C	0.474211	1.321787	0.305071
C80	C	0.405244	1.425293	0.408579
C81	C	0.880623	0.711837	-0.304897
C82	C	0.949590	0.608331	-0.408405
C83	C	0.880614	0.711831	0.000081
C84	C	0.949577	0.608324	0.000079
C85	C	0.880614	1.016814	-0.304880
C86	C	0.949577	1.016815	-0.408383
C87	C	0.372874	1.414356	-0.059470
C88	C	0.308085	1.511603	-0.059490
C89	C	0.275675	1.619793	0.000061
C90	C	0.308063	1.630734	0.059628
C91	C	0.372856	1.533488	0.059642
C92	C	0.372867	1.076360	0.516730
C93	C	0.308078	1.076355	0.613992
C94	C	0.275675	1.016805	0.603078
C95	C	0.308071	0.957246	0.494894
C96	C	0.372863	0.957245	0.397635
C97	C	0.372857	1.533464	0.397638
C98	C	0.308065	1.630728	0.494887
C99	C	0.275657	1.619818	0.603074
C100	C	0.308050	1.511635	0.614013
C101	C	0.372846	1.414374	0.516766
C102	C	0.981985	0.500159	-0.397464
C103	C	1.046797	0.402895	-0.494712
C104	C	1.079209	0.413805	-0.602900
C105	C	1.046811	0.521988	-0.613839
C106	C	0.982004	0.619250	-0.516592
C107	C	0.981966	0.619267	0.059634
C108	C	1.046774	0.522020	0.059628
C109	C	1.079186	0.413831	0.000072
C110	C	1.046795	0.402889	-0.059490
C111	C	0.981993	0.500135	-0.059490
C112	C	0.981960	1.076377	-0.397434
C113	C	1.046750	1.076400	-0.494677
C114	C	1.079160	1.016853	-0.602868
C115	C	1.046771	0.957289	-0.613816
C116	C	0.981978	0.957274	-0.516574
H117	H	0.399248	1.124858	-0.107978
Cl118	Cl	0.267298	1.497939	0.750030
H119	H	0.222917	1.016815	0.682282
H120	H	0.281693	1.124864	-0.107960
Cl121	Cl	0.087490	1.151224	-0.134336
H122	H	1.131978	0.334599	-0.682076
H123	H	1.073165	0.314818	-0.485784
Cl124	Cl	0.486180	1.160426	-0.428983
Cl125	Cl	0.413551	1.547266	0.134541
Cl126	Cl	0.267351	1.766715	0.481109
Cl127	Cl	0.413609	1.278358	-0.134350
H128	H	0.222916	1.698968	0.000042
H129	H	1.131952	0.334656	0.000082
Cl130	Cl	0.941277	0.486357	-0.134358
H131	H	1.073195	0.314788	-0.107978
Cl132	Cl	1.087563	0.535684	-0.749856
H133	H	1.131919	1.016875	-0.682039
H134	H	0.830414	0.902078	-0.556633
Cl135	Cl	0.194196	1.742103	0.725319
Cl136	Cl	0.941285	0.882375	-0.530360
Cl137	Cl	0.868536	0.446259	-0.143454
Cl138	Cl	0.941280	0.755233	-0.530366
H139	H	1.073170	0.908808	-0.701918
Cl140	Cl	0.413548	1.278390	0.530541
Cl141	Cl	0.267362	1.151240	0.749980
Cl142	Cl	0.267377	1.497822	-0.134375
Cl143	Cl	0.941237	0.755265	0.134506
H144	H	0.600976	0.632407	0.198001
Cl145	Cl	0.581938	1.264262	-0.355496
Cl146	Cl	0.772965	1.120711	-0.644655
H147	H	0.955581	1.124867	-0.309347
Cl148	Cl	0.486209	0.587636	0.143422
H149	H	1.073136	0.530951	0.108135
Cl150	Cl	-0.058760	1.151221	-0.134335
Cl151	Cl	0.267335	0.882412	0.134527
Cl152	Cl	0.413591	1.547210	0.261642
Cl153	Cl	0.267306	1.766753	0.134494
Cl154	Cl	0.413586	1.151236	0.530480
H155	H	0.753909	0.401232	0.083235
H156	H	0.399226	0.908755	0.309560
H157	H	-0.044408	0.908750	0.108145
Cl158	Cl	0.087474	0.882394	0.134536
Cl159	Cl	0.941252	0.486414	-0.261468
Cl160	Cl	1.087459	1.151278	-0.480888
H161	H	0.399248	0.908771	0.108130
Cl162	Cl	0.267324	0.882391	0.481194
H163	H	0.753921	0.401182	-0.197902
H164	H	0.600984	0.933623	-0.384316
Cl165	Cl	0.581969	0.661218	-0.104093
H166	H	0.753917	0.818849	-0.615489
