data_functionalizedCrystal
_audit_creation_method	'MofGen! by Chris Wilmer'
_symmetry_space_group_name_H-M	'P1'
_symmetry_Int_Tables_number	1
_symmetry_cell_setting	triclinic
loop_
_symmetry_equiv_pos_as_xyz
  x,y,z
_cell_length_a	12.970454
_cell_length_b	14.560438
_cell_length_c	14.560438
_cell_angle_alpha	60.000939
_cell_angle_beta	90.001163
_cell_angle_gamma	60.006647
loop_
_atom_site_label
_atom_site_type_symbol
_atom_site_fract_x
_atom_site_fract_y
_atom_site_fract_z
Zr1	Zr	-0.135118	1.005206	0.884794
O2	O	-0.299713	1.196787	0.738156
O3	O	-0.084683	0.813622	0.929741
O4	O	-0.299741	1.005206	0.929750
O5	O	0.085012	1.005204	0.738146
O6	O	-0.299738	1.005208	1.080888
O7	O	-0.084654	1.005204	0.738147
O8	O	0.084962	0.662500	1.080872
O9	O	-0.299688	1.347913	0.738162
O10	O	-0.063144	0.892426	1.061709
O11	O	0.063474	0.892425	0.948916
O12	O	-0.189729	1.117990	0.948926
O13	O	-0.063111	1.117989	0.836133
Zr14	Zr	0.135485	1.005211	1.125840
Zr15	Zr	-0.135113	1.005210	1.125842
Zr16	Zr	0.135481	1.005207	0.884792
Zr17	Zr	-0.135078	1.246234	0.884803
Zr18	Zr	0.135445	0.764184	1.125830
O19	O	0.085050	1.196795	1.080893
O20	O	-0.299706	1.196793	1.080895
O21	O	0.085044	1.196789	0.738154
O22	O	0.300080	0.813630	1.272477
O23	O	-0.084676	0.813628	1.272480
O24	O	0.300074	0.813624	0.929738
O25	O	-0.084645	1.005213	1.272488
O26	O	0.300108	1.005211	1.080884
O27	O	0.300105	1.005209	0.929746
O28	O	0.085022	1.005214	1.272486
O29	O	-0.299684	1.347916	0.929763
O30	O	0.300052	0.662501	1.080870
O31	O	0.300055	0.662504	1.272471
O32	O	0.084965	0.662503	1.272473
O33	O	-0.084598	1.347914	0.738161
O34	O	-0.084595	1.347917	0.929762
O35	O	0.190096	0.892427	1.061708
O36	O	0.063478	0.892429	1.174501
O37	O	-0.063107	1.117992	1.061718
O38	O	0.063511	1.117991	0.948925
C39	C	0.000134	0.703720	1.005305
C40	C	0.000117	0.601397	1.005301
C41	C	-0.093307	0.636522	0.922045
C42	C	-0.093243	0.540333	0.922063
C43	C	0.093679	0.373896	1.088597
C44	C	0.093609	0.470084	1.088583
C45	C	-0.201222	0.732613	0.825894
C46	C	-0.201159	0.636424	0.825912
C47	C	-0.338294	1.005207	1.005319
C48	C	-0.453170	1.005206	1.005320
C49	C	0.338661	1.005210	1.005315
C50	C	0.453537	1.005211	1.005314
C51	C	0.000178	1.005203	0.703802
C52	C	0.000176	1.005202	0.601471
C53	C	0.000233	1.306697	1.005329
C54	C	0.000250	1.409020	1.005333
C55	C	0.066252	0.887462	0.612264
C56	C	0.066263	0.887468	0.516109
C57	C	-0.065887	1.122964	0.398372
C58	C	-0.065890	1.122957	0.494525
C59	C	0.142544	0.751500	0.680239
C60	C	0.142555	0.751506	0.584084
C61	C	0.000189	1.005214	1.306831
C62	C	0.000191	1.005216	1.409162
C63	C	0.000139	0.703725	1.306819
C64	C	0.000124	0.601404	1.409146
C65	C	0.338611	0.703721	1.005303
C66	C	0.453471	0.601399	1.005298
C67	C	0.338617	0.703727	1.306817
C68	C	0.453478	0.601406	1.409143
C69	C	-0.338250	1.306691	0.703817
C70	C	-0.453111	1.409011	0.601490
C71	C	0.000228	1.306692	0.703815
C72	C	0.000243	1.409013	0.601487
C73	C	-0.338244	1.306696	1.005331
C74	C	-0.453104	1.409018	1.005336
C75	C	0.507423	0.636607	0.922024
C76	C	0.615336	0.540478	0.921997
C77	C	0.669299	0.409143	1.005249
C78	C	0.615336	0.373936	1.088527
C79	C	0.507421	0.470064	1.088549
C80	C	0.507403	0.470087	1.457201
C81	C	0.615316	0.373931	1.553359
C82	C	0.669306	0.409098	1.601452
C83	C	0.615371	0.540430	1.553389
C84	C	0.507455	0.636583	1.457238
C85	C	-0.507046	1.540330	0.553440
C86	C	-0.614982	1.636486	0.457304
C87	C	-0.668976	1.601319	0.409215
C88	C	-0.615035	1.469986	0.457274
C89	C	-0.507107	1.373834	0.553413
C90	C	-0.507032	1.540337	0.922073
C91	C	-0.614944	1.636493	0.922074
C92	C	-0.668931	1.601327	1.005333
C93	C	-0.614993	1.469994	1.088604
C94	C	-0.507078	1.373841	1.088607
C95	C	-0.065974	0.553329	1.398347
C96	C	-0.065992	0.457195	1.494498
C97	C	0.066197	0.457217	1.612245
C98	C	0.066207	0.553355	1.516095
C99	C	-0.142288	0.553311	1.330367
C100	C	-0.142306	0.457178	1.426518
H101	H	0.169798	0.266971	1.156402
C102	C	0.138908	0.606246	1.527982
N103	N	0.193669	0.646083	1.536939
C104	C	0.274572	0.694495	0.572304
N105	N	0.374005	0.651555	0.563431
H106	H	-0.658883	1.743415	0.418187
C107	C	0.448029	0.431372	1.404322
N108	N	0.403310	0.402202	1.364504
C109	C	0.448079	0.781071	0.830428
N110	N	0.403383	0.889880	0.761429
H111	H	0.463561	0.743508	1.418113
H112	H	-0.240025	0.493310	1.435246
C113	C	-0.787716	1.707106	0.303471
N114	N	-0.877155	1.786791	0.223828
C115	C	0.788023	0.303310	1.707216
N116	N	0.877444	0.223625	1.786875
C117	C	-0.278800	0.674907	1.259855
N118	N	-0.381619	0.766492	1.206748
H119	H	0.659345	0.569045	1.592561
H120	H	0.659290	0.266991	1.156310
C121	C	-0.447679	1.579045	0.606325
N122	N	-0.402975	1.608216	0.646157
H123	H	0.119998	0.418084	1.699332
C124	C	-0.447779	1.229381	0.606247
N125	N	-0.403097	1.120578	0.646036
C126	C	0.084956	0.681216	0.583959
N127	N	0.041491	0.628358	0.583824
C128	C	0.196373	0.431437	1.180180
N129	N	0.273778	0.402324	1.249174
H130	H	-0.659013	1.441371	0.418105
H131	H	-0.658966	1.441379	1.156391
H132	H	-0.091934	0.517178	1.279451
C133	C	-0.447661	1.579051	0.830480
N134	N	-0.402944	1.608222	0.761491
C135	C	-0.674272	1.780951	0.830451
N136	N	-0.718959	1.889754	0.761437
H137	H	-0.756805	1.679634	1.005315
C138	C	0.674684	0.579234	0.830389
N139	N	0.719384	0.608428	0.761392
H140	H	0.757170	0.330882	1.005218
H141	H	-0.191832	0.647237	0.743801
C142	C	0.674632	0.229474	1.606201
N143	N	0.719308	0.120671	1.645997
H144	H	-0.463181	1.266916	1.156408
H145	H	-0.099864	0.367163	1.426510
C146	C	0.448094	0.431313	1.180171
N147	N	0.403415	0.402116	1.249186
C148	C	-0.138575	1.252479	0.482645
N149	N	-0.193327	1.350041	0.473694
C150	C	-0.325772	0.817685	0.837086
N151	N	-0.419579	0.881758	0.845518
H152	H	-0.182369	0.792285	0.749425
C153	C	-0.138566	1.252488	0.280726
N154	N	-0.193313	1.350048	0.192114
C155	C	-0.317124	0.636395	0.848576
N156	N	-0.404473	0.636379	0.865637
H157	H	0.092172	0.709318	0.731145
C158	C	0.279061	0.680973	0.750761
N159	N	0.381884	0.627855	0.803877
