data_functionalizedCrystal
_audit_creation_method	'MofGen! by Chris Wilmer'
_symmetry_space_group_name_H-M	'P1'
_symmetry_Int_Tables_number	1
_symmetry_cell_setting	triclinic
loop_
_symmetry_equiv_pos_as_xyz
  x,y,z
_cell_length_a	15.298068
_cell_length_b	19.120786
_cell_length_c	15.297738
_cell_angle_alpha	82.347622
_cell_angle_beta	110.812604
_cell_angle_gamma	101.659200
loop_
_atom_site_label
_atom_site_type_symbol
_atom_site_fract_x
_atom_site_fract_y
_atom_site_fract_z
Zn1	Zn	1.501036	-0.180114	0.760452
Zn2	Zn	1.467376	-0.280252	0.598264
Zn3	Zn	1.318587	-0.180101	0.577978
Zn4	Zn	1.336506	-0.314830	0.724486
O5	O	1.405876	-0.238824	0.665295
O6	O	1.627696	-0.178932	0.762478
O7	O	1.426052	-0.252490	0.466382
O8	O	1.349376	-0.081810	0.608745
O9	O	1.602966	-0.252503	0.643319
O10	O	1.483421	-0.081820	0.742808
O11	O	1.316737	-0.178909	0.451478
O12	O	1.189838	-0.212438	0.573871
O13	O	1.379918	-0.311437	0.858448
O14	O	1.203004	-0.311424	0.681510
O15	O	1.500797	-0.212462	0.884871
O16	O	1.443428	-0.383131	0.608445
O17	O	1.347279	-0.408536	0.701181
C18	C	1.162422	-0.265682	0.621587
C19	C	1.058273	-0.277192	0.602910
C20	C	0.816246	-0.156741	0.798776
C21	C	0.914099	-0.145930	0.816330
C22	C	0.950148	-0.178744	0.762976
C23	C	0.888333	-0.222372	0.692066
C24	C	0.790471	-0.233189	0.674516
C25	C	0.924373	-0.255192	0.638716
C26	C	0.862558	-0.298819	0.567805
C27	C	0.764706	-0.309634	0.550258
C28	C	0.728657	-0.276819	0.603611
C29	C	1.022235	-0.244375	0.656266
C30	C	0.996460	-0.320823	0.532005
C31	C	0.898606	-0.331634	0.514452
C32	C	1.393674	-0.421319	0.653136
C33	C	1.388545	-0.499385	0.647981
C34	C	1.455889	-0.536016	0.715399
C35	C	1.451066	-0.609368	0.710556
C36	C	1.378902	-0.646087	0.638291
C37	C	1.311552	-0.609452	0.570870
C38	C	1.316372	-0.536102	0.575717
C39	C	1.360857	-0.867559	0.620164
C40	C	1.356044	-0.940913	0.615320
C41	C	1.495557	-0.940825	0.755007
C42	C	1.500374	-0.867473	0.759845
C43	C	1.433020	-0.830845	0.692427
C44	C	1.373972	-0.721064	0.633337
C45	C	1.437947	-0.755870	0.697385
C46	C	1.650281	-0.211862	0.709174
C47	C	1.754432	-0.200372	0.727872
C48	C	1.446111	-0.265808	0.906094
C49	C	1.463257	-0.277307	1.008708
C50	C	1.418155	-0.055616	0.677525
C51	C	1.423387	0.022456	0.682737
C52	C	1.365855	-0.211889	0.425445
C53	C	1.348904	-0.200172	0.322877
C54	C	1.528226	-0.321019	1.064677
C55	C	1.544341	-0.331817	1.161090
C56	C	1.495483	-0.298907	1.201541
C57	C	1.430508	-0.255197	1.145571
C58	C	1.414396	-0.244394	1.049150
C59	C	1.381653	-0.222282	1.186014
C60	C	1.316678	-0.178572	1.130044
C61	C	1.300569	-0.167772	1.033633
C62	C	1.349427	-0.200682	0.993181
C63	C	1.397765	-0.233085	1.282435
C64	C	1.283935	-0.156460	1.266908
C65	C	1.267820	-0.145662	1.170496
H66	H	0.964422	-0.110411	0.874067
O67	O	1.515788	-0.716270	0.775321
H68	H	1.483856	-0.692752	0.816929
H69	H	1.450669	-0.268673	1.327997
O70	O	1.614393	-0.378976	1.221453
H71	H	1.645647	-0.400057	1.177126
H72	H	0.648979	-0.285625	0.589329
O73	O	1.512989	-0.310442	1.305557
H74	H	1.566422	-0.346329	1.337691
O75	O	1.088896	-0.197312	0.732732
H76	H	1.081418	-0.219630	0.800989
O77	O	1.580921	-0.356511	1.021052
H78	H	1.558797	-0.341657	0.944605
H79	H	1.505910	-0.639188	0.765448
O80	O	0.831927	-0.378691	0.437977
H81	H	0.839394	-0.356362	0.369719
H82	H	1.214916	-0.110073	1.124911
H83	H	1.252792	-0.639355	0.512033
H84	H	0.786886	-0.130033	0.842214
O85	O	1.578235	-0.827876	0.837775
H86	H	1.573309	-0.851833	0.906406
O87	O	1.243745	-0.496586	0.502998
H88	H	1.192761	-0.534438	0.451926
O89	O	1.332050	-0.189027	0.889191
H90	H	1.376944	-0.219253	0.870471
O91	O	1.035324	-0.356215	0.474446
H92	H	1.113753	-0.341357	0.498554
H93	H	1.247668	-0.132175	0.988065
O94	O	1.533729	-0.496411	0.793335
H95	H	1.579744	-0.534210	0.839403
O96	O	1.231241	-0.120953	1.310529
H97	H	1.188792	-0.162567	1.343797
O98	O	1.055688	-0.167068	0.781896
H99	H	1.092194	-0.186286	0.855177
O100	O	0.698029	-0.356686	0.473777
H101	H	0.739531	-0.377681	0.439616
H102	H	1.550391	-0.970656	0.809896
O103	O	1.278211	-0.980528	0.537377
H104	H	1.208210	-0.976396	0.540878
O105	O	1.288231	-0.828052	0.547438
H106	H	1.237255	-0.865907	0.496366
H107	H	1.315219	-0.750968	0.574497
