data_functionalizedCrystal
_audit_creation_method	'MofGen! by Chris Wilmer'
_symmetry_space_group_name_H-M	'P1'
_symmetry_Int_Tables_number	1
_symmetry_cell_setting	triclinic
loop_
_symmetry_equiv_pos_as_xyz
  x,y,z
_cell_length_a	13.635800
_cell_length_b	11.102244
_cell_length_c	11.102291
_cell_angle_alpha	88.051419
_cell_angle_beta	108.605752
_cell_angle_gamma	71.395130
loop_
_atom_site_label
_atom_site_type_symbol
_atom_site_fract_x
_atom_site_fract_y
_atom_site_fract_z
V1	V	2.055766	-0.175854	0.396256
O2	O	2.035286	0.008434	0.388716
O3	O	2.044152	-0.348674	0.393542
O4	O	2.044159	-0.173157	0.569078
O5	O	2.035279	-0.168298	0.211965
V6	V	2.294318	-0.153810	0.374213
O7	O	2.193437	-0.224209	0.444607
O8	O	2.381746	-0.105455	0.325862
O9	O	2.194329	0.019009	0.376927
O10	O	2.373497	-0.338099	0.381753
O11	O	2.373504	-0.161367	0.558504
O12	O	2.194322	-0.156508	0.201391
V13	V	2.555766	-0.175854	0.396256
O14	O	2.535286	0.008434	0.388716
O15	O	2.544152	-0.348674	0.393542
O16	O	2.544159	-0.173157	0.569078
O17	O	2.535279	-0.168298	0.211965
V18	V	2.794318	-0.153810	0.374213
O19	O	2.693437	-0.224209	0.444607
O20	O	2.881746	-0.105455	0.325862
O21	O	2.694329	0.019009	0.376927
O22	O	2.873497	-0.338099	0.381753
O23	O	2.873504	-0.161367	0.558504
O24	O	2.694322	-0.156508	0.201391
C25	C	1.969306	-0.390803	0.387290
C26	C	2.000537	-0.532086	0.386224
C27	C	1.985123	-0.580316	0.269343
C28	C	2.014475	-0.713068	0.268355
C29	C	2.074652	-0.749350	0.501140
C30	C	2.045307	-0.616600	0.502127
C31	C	1.940352	-0.495801	0.153440
C32	C	1.924934	-0.544030	0.036549
C33	C	1.954287	-0.676782	0.035562
C34	C	1.999057	-0.761306	0.151465
C35	C	1.969314	-0.166912	0.611202
C36	C	2.000549	-0.165850	0.752485
C37	C	2.100846	0.061132	0.383175
C38	C	2.059234	0.202413	0.384250
C39	C	2.100837	-0.162757	0.159261
C40	C	2.059221	-0.163813	0.017976
C41	C	2.469306	-0.390803	0.387290
C42	C	2.500537	-0.532086	0.386224
C43	C	2.469314	-0.166912	0.611202
C44	C	2.500549	-0.165850	0.752485
C45	C	2.107226	-0.171689	0.825333
C46	C	2.136562	-0.170666	0.958079
C47	C	1.952534	-0.157969	0.945118
C48	C	1.923197	-0.158983	0.812373
C49	C	2.213475	-0.179025	0.832818
C50	C	2.242811	-0.178002	0.965564
C51	C	2.600846	0.061132	0.383175
C52	C	2.559234	0.202413	0.384250
C53	C	2.600837	-0.162757	0.159261
C54	C	2.559221	-0.163813	0.017976
C55	C	2.607213	-0.604934	0.392062
C56	C	2.636555	-0.737685	0.391071
C57	C	2.452533	-0.724726	0.378397
C58	C	2.423195	-0.591979	0.379397
C59	C	2.713456	-0.612416	0.399374
C60	C	2.742798	-0.745167	0.398383
C61	C	2.607226	-0.171689	0.825333
C62	C	2.636562	-0.170666	0.958079
C63	C	2.452534	-0.157969	0.945118
C64	C	2.423197	-0.158983	0.812373
C65	C	2.713475	-0.179025	0.832818
C66	C	2.742811	-0.178002	0.965564
H67	H	1.888489	-0.475203	-0.057814
H68	H	2.336334	-0.154230	0.753065
H69	H	2.769390	-0.593199	0.491804
H70	H	2.057875	-0.577332	0.597303
H71	H	2.808702	-0.803037	0.492537
H72	H	2.713490	-0.559185	0.309766
O73	O	2.117988	-0.831313	0.613795
C74	C	2.090925	-0.896838	0.806390
C75	C	2.041730	-0.803919	0.678860
H76	H	2.029284	-0.874741	0.859019
H77	H	2.170599	-0.884642	0.868933
H78	H	2.109289	-0.999995	0.785580
H79	H	2.023296	-0.700725	0.699551
H80	H	1.962095	-0.816227	0.616355
H81	H	2.261043	-0.087765	0.994667
H82	H	2.389568	-0.773508	0.372841
H83	H	2.768450	-0.770132	0.311567
H84	H	2.223214	-0.092764	0.785723
H85	H	2.261171	-0.273803	0.808352
H86	H	2.389560	-0.152376	0.993895
H87	H	1.836334	-0.154230	0.753065
H88	H	1.889560	-0.152376	0.993895
O89	O	2.328371	-0.287761	1.028591
C90	C	2.393528	-0.519259	1.069023
C91	C	2.296557	-0.395056	0.997579
H92	H	2.367849	-0.606040	1.043955
H93	H	2.417390	-0.518511	1.177130
H94	H	2.467171	-0.525171	1.038806
H95	H	2.222851	-0.389064	1.027689
H96	H	2.272789	-0.395856	0.889486
O97	O	2.725072	-0.076217	0.776424
C98	C	2.708579	0.039218	0.579027
C99	C	2.695421	-0.077275	0.642730
H100	H	2.684590	0.038416	0.470923
H101	H	2.798113	0.033887	0.620700
H102	H	2.652695	0.131656	0.598299
H103	H	2.751241	-0.169771	0.623481
H104	H	2.605857	-0.071830	0.601050
O105	O	2.319512	-0.521397	0.373675
C106	C	2.140111	-0.522575	0.361103
C107	C	2.257489	-0.602656	0.367544
H108	H	2.089939	-0.588243	0.356171
H109	H	2.098598	-0.446190	0.271874
H110	H	2.144928	-0.474007	0.450595
H111	H	2.252770	-0.651307	0.278116
H112	H	2.298957	-0.678966	0.456829
O113	O	2.770339	-0.292206	0.803782
C114	C	2.813002	-0.521592	0.824423
C115	C	2.748567	-0.393509	0.857423
H116	H	2.795404	-0.603526	0.867753
H117	H	2.905209	-0.538898	0.865450
H118	H	2.786035	-0.517156	0.715543
H119	H	2.775441	-0.397851	0.966285
H120	H	2.656373	-0.376251	0.816305
H121	H	2.761043	-0.087765	0.994667
H122	H	1.916443	-0.387705	0.154230
H123	H	2.814658	-0.269896	1.018409
H124	H	2.022962	-0.869401	0.150652
O125	O	1.939448	-0.723853	-0.077861
C126	C	1.957957	-0.912275	-0.182557
C127	C	1.974844	-0.859146	-0.054010
H128	H	1.986545	-1.021664	-0.163320
H129	H	2.008024	-0.882281	-0.234897
H130	H	1.866716	-0.872192	-0.244634
H131	H	2.066056	-0.899203	0.008167
H132	H	1.924707	-0.889128	-0.001770
