data_functionalizedCrystal
_audit_creation_method	'MofGen! by Chris Wilmer'
_symmetry_space_group_name_H-M	'P1'
_symmetry_Int_Tables_number	1
_symmetry_cell_setting	triclinic
loop_
_symmetry_equiv_pos_as_xyz
  x,y,z
_cell_length_a	15.944551
_cell_length_b	15.944551
_cell_length_c	9.730223
_cell_angle_alpha	89.997716
_cell_angle_beta	90.004286
_cell_angle_gamma	83.498738
loop_
_atom_site_label
_atom_site_type_symbol
_atom_site_fract_x
_atom_site_fract_y
_atom_site_fract_z
O1	O	1.114519	0.108328	-0.114150
O2	O	0.869970	0.121685	-0.114184
O3	O	0.998923	-0.007268	-0.114153
O4	O	0.985566	0.237281	-0.114180
O5	O	0.998921	-0.007265	0.114426
O6	O	0.869968	0.121688	0.114396
O7	O	1.114518	0.108332	0.114430
Zn8	Zn	0.992243	0.115010	0.150705
Zn9	Zn	0.992245	0.115006	-0.150459
O10	O	0.985565	0.237285	0.114400
C11	C	0.838675	0.121132	0.000102
C12	C	0.745429	0.119470	0.000089
C13	C	0.530572	0.035565	0.000125
C14	C	0.469553	0.074526	-0.112582
C15	C	0.574703	0.116462	0.000105
C16	C	0.469574	0.074548	0.112780
C17	C	0.409790	0.113551	0.000127
C18	C	0.514912	0.155445	-0.112694
C19	C	0.514939	0.155456	0.112769
C20	C	0.453937	0.194476	0.000035
C21	C	0.669705	0.118137	0.000091
C22	C	0.314789	0.111883	0.000131
C23	C	0.998367	-0.038561	0.000137
C24	C	0.996705	-0.131807	0.000137
C25	C	0.912801	-0.346663	0.000106
C26	C	0.951762	-0.407679	0.112816
C27	C	0.993698	-0.302533	0.000126
C28	C	0.951783	-0.407666	-0.112546
C29	C	0.990787	-0.467445	0.000110
C30	C	1.032682	-0.362320	0.112928
C31	C	1.032691	-0.362300	-0.112535
C32	C	1.071711	-0.423298	0.000202
C33	C	0.995372	-0.207530	0.000137
C34	C	0.989119	-0.562446	0.000109
C35	C	1.145813	0.108885	0.000142
C36	C	1.239059	0.110547	0.000145
C37	C	0.986120	0.268577	0.000107
C38	C	0.987782	0.361823	0.000097
N39	N	0.992248	0.115013	0.356242
N40	N	0.992247	0.114997	-0.355995
C41	C	1.049362	0.057932	0.428181
C42	C	1.049360	0.057921	0.572064
C43	C	0.935126	0.172081	0.572055
C44	C	0.935124	0.172086	0.428175
C45	C	1.106486	0.000858	0.356248
C46	C	1.163606	-0.056227	0.428188
C47	C	1.163604	-0.056237	0.572070
C48	C	1.106481	0.000837	0.644014
H49	H	0.449443	0.040308	-0.207860
H50	H	1.210108	-0.102701	0.369604
C51	C	1.044299	0.063031	0.150136
C52	C	1.106493	0.000873	0.198091
H53	H	1.044310	0.063045	0.052497
H54	H	0.990625	0.051486	0.182660
H55	H	1.055794	0.116719	0.182713
H56	H	1.094994	-0.052816	0.165522
H57	H	1.160179	0.012413	0.165553
H58	H	1.066869	-0.342328	0.208320
H59	H	0.845652	-0.313356	0.000209
C60	C	0.820815	0.190241	0.266364
C61	C	0.872342	0.234831	0.349092
H62	H	0.782050	0.228978	0.217550
H63	H	0.854830	0.156258	0.202937
H64	H	0.790608	0.155257	0.322506
H65	H	0.902554	0.269811	0.292948
H66	H	0.838322	0.268829	0.412526
C67	C	0.354684	0.027946	0.240681
C68	C	0.442455	0.028346	0.241411
H69	H	0.337947	-0.000586	0.320083
H70	H	0.328187	0.084384	0.240825
H71	H	0.338394	-0.000244	0.160646
H72	H	0.458745	0.056542	0.321441
H73	H	0.468961	-0.028102	0.241279
H74	H	1.138919	-0.456457	0.000275
C75	C	0.822376	-0.395764	0.241220
C76	C	0.905575	-0.434831	0.241433
H77	H	0.793859	-0.412529	0.320616
H78	H	0.822652	-0.336226	0.241726
H79	H	0.794190	-0.412055	0.161179
H80	H	0.933763	-0.418536	0.321470
H81	H	0.905303	-0.494382	0.240940
C82	C	0.551694	-0.097854	0.116809
C83	C	0.575542	-0.055080	-0.000018
H84	H	0.579454	-0.153813	0.116706
H85	H	0.567123	-0.069245	0.196955
H86	H	0.492330	-0.099523	0.115980
H87	H	0.634905	-0.053405	0.000815
H88	H	0.560118	-0.083695	-0.080185
C89	C	1.276522	-0.169073	0.557620
C90	C	1.226386	-0.118984	0.651149
H91	H	1.315288	-0.207806	0.606441
H92	H	1.241563	-0.199309	0.501498
H93	H	1.306728	-0.134073	0.501506
H94	H	1.196175	-0.153984	0.707256
H95	H	1.261350	-0.088746	0.707295
C96	C	0.358081	0.297553	-0.117005
C97	C	0.409163	0.285198	-0.000053
H98	H	0.330436	0.353558	-0.117057
H99	H	0.392022	0.288816	-0.197068
H100	H	0.317132	0.258669	-0.116190
H101	H	0.450116	0.324078	-0.000873
H102	H	0.375220	0.293944	0.080030
C103	C	0.581234	0.272077	0.201479
C104	C	0.542125	0.201611	0.241391
H105	H	0.598014	0.300568	0.280895
H106	H	0.629465	0.254248	0.147158
H107	H	0.542737	0.309211	0.149334
H108	H	0.580624	0.164474	0.293529
H109	H	0.493887	0.219439	0.295735
C110	C	1.080560	-0.247516	-0.239086
C111	C	1.078844	-0.335116	-0.241156
H112	H	1.109053	-0.230734	-0.318496
H113	H	1.024430	-0.220228	-0.238293
H114	H	1.109374	-0.232181	-0.159073
H115	H	1.050024	-0.350450	-0.321164
H116	H	1.134985	-0.362413	-0.241962
C117	C	0.822388	-0.395701	-0.240962
C118	C	0.905581	-0.434782	-0.241183
H119	H	0.793865	-0.412435	-0.320378
H120	H	0.794205	-0.412005	-0.160947
H121	H	0.822676	-0.336157	-0.241434
H122	H	0.905293	-0.494326	-0.240701
H123	H	0.933772	-0.418483	-0.321219
C124	C	1.089530	-0.078334	0.850108
C125	C	1.106473	0.000822	0.802173
H126	H	1.089531	-0.078342	0.947747
H127	H	1.035853	-0.089853	0.817547
H128	H	1.131725	-0.120489	0.817556
H129	H	1.064274	0.042977	0.834718
H130	H	1.160157	0.012351	0.834749
H131	H	0.888620	0.218550	0.630641
H132	H	0.534900	0.189634	-0.208082
