data_functionalizedCrystal
_audit_creation_method	'MofGen! by Chris Wilmer'
_symmetry_space_group_name_H-M	'P1'
_symmetry_Int_Tables_number	1
_symmetry_cell_setting	triclinic
loop_
_symmetry_equiv_pos_as_xyz
  x,y,z
_cell_length_a	8.559649
_cell_length_b	14.519709
_cell_length_c	7.681481
_cell_angle_alpha	84.238882
_cell_angle_beta	85.086760
_cell_angle_gamma	103.270595
loop_
_atom_site_label
_atom_site_type_symbol
_atom_site_fract_x
_atom_site_fract_y
_atom_site_fract_z
O1	O	2.104962	0.021483	0.146394
O2	O	2.604962	0.521483	0.646394
O3	O	1.639892	-0.026137	0.146417
O4	O	2.139892	0.473863	0.646417
O5	O	1.884763	0.132800	0.146356
O6	O	2.384763	0.632800	0.646356
O7	O	1.860091	-0.137454	0.146456
O8	O	2.360091	0.362546	0.646456
O9	O	1.914902	0.152402	-0.146509
O10	O	2.414902	0.652402	0.353491
O11	O	1.670031	-0.006535	-0.146448
O12	O	2.170031	0.493465	0.353552
O13	O	2.135102	0.041085	-0.146471
O14	O	2.635102	0.541085	0.353529
Zn15	Zn	1.907352	0.020387	-0.192958
Zn16	Zn	2.407352	0.520387	0.307042
Zn17	Zn	1.867642	-0.005439	0.192904
Zn18	Zn	2.367642	0.494561	0.692904
O19	O	1.890231	-0.117852	-0.146410
O20	O	2.390231	0.382148	0.353590
C21	C	1.595442	-0.019945	-0.000013
C22	C	2.095442	0.480055	0.499987
C23	C	1.418092	-0.030686	-0.000006
C24	C	1.918092	0.469314	0.499994
C25	C	1.898684	0.176879	-0.000086
C26	C	2.398684	0.676879	0.499914
C27	C	1.895243	0.279015	-0.000112
C28	C	2.395243	0.779015	0.499888
C29	C	1.882569	0.653004	-0.000159
C30	C	2.382569	1.153004	0.499841
C31	C	1.886088	0.548947	-0.000147
C32	C	2.386088	1.048947	0.499853
C33	C	1.888905	0.466012	-0.000137
C34	C	2.388905	0.966012	0.499863
C35	C	1.892426	0.361950	-0.000121
C36	C	2.392426	0.861950	0.499879
C37	C	2.179551	0.034892	-0.000037
C38	C	2.679551	0.534892	0.499963
C39	C	2.356900	0.045633	-0.000032
C40	C	2.856900	0.545633	0.499968
N41	N	1.934465	0.038014	-0.456299
N42	N	2.434465	0.538014	0.043701
C43	C	1.876316	0.838073	-0.000027
C44	C	2.376316	1.338073	0.499973
C45	C	1.879775	0.735949	-0.000176
C46	C	2.379775	1.235949	0.499824
N47	N	1.840542	-0.023058	0.456245
N48	N	2.340542	0.476942	0.956245
H49	H	1.334792	-0.104251	0.000030
H50	H	1.834792	0.395749	0.500030
O51	O	1.726353	-0.097462	-0.453835
O52	O	2.226353	0.402538	0.046165
C53	C	1.801314	-0.155323	-0.347193
C54	C	2.301314	0.344677	0.152807
H55	H	1.923339	-0.111519	-0.319748
H56	H	2.423339	0.388481	0.180252
H57	H	1.721448	-0.183272	-0.217479
H58	H	2.221448	0.316728	0.282521
H59	H	1.819771	-0.217964	-0.418112
H60	H	2.319771	0.282036	0.081888
O61	O	1.456391	0.133327	0.000169
O62	O	1.956391	0.633327	0.500169
C63	C	1.538260	0.134056	0.151864
C64	C	2.038260	0.634056	0.651864
H65	H	1.541528	0.058053	0.202460
H66	H	2.041528	0.558053	0.702460
H67	H	1.666967	0.179475	0.117735
H68	H	2.166967	0.679475	0.617735
H69	H	1.472489	0.165229	0.258061
H70	H	1.972489	0.665229	0.758061
O71	O	2.048770	0.112495	-0.545843
O72	O	2.548770	0.612495	-0.045843
C73	C	2.017705	0.198909	-0.500995
C74	C	2.517705	0.698909	-0.000995
H75	H	1.942435	0.185514	-0.367100
H76	H	2.442435	0.685514	0.132900
H77	H	2.136934	0.252462	-0.494874
H78	H	2.636934	0.752462	0.005126
H79	H	1.948629	0.228627	-0.604742
H80	H	2.448629	0.728627	-0.104742
