data_functionalizedCrystal
_audit_creation_method	'MofGen! by Chris Wilmer'
_symmetry_space_group_name_H-M	'P1'
_symmetry_Int_Tables_number	1
_symmetry_cell_setting	triclinic
loop_
_symmetry_equiv_pos_as_xyz
  x,y,z
_cell_length_a	13.032831
_cell_length_b	14.908520
_cell_length_c	13.032268
_cell_angle_alpha	99.985811
_cell_angle_beta	90.886977
_cell_angle_gamma	86.522975
loop_
_atom_site_label
_atom_site_type_symbol
_atom_site_fract_x
_atom_site_fract_y
_atom_site_fract_z
Zn1	Zn	1.453341	-0.608125	-0.815711
Zn2	Zn	1.465124	-0.742288	-0.651425
Zn3	Zn	1.305991	-0.570509	-0.619794
Zn4	Zn	1.271734	-0.737420	-0.801271
O5	O	1.374048	-0.664586	-0.722050
O6	O	1.597505	-0.643703	-0.813198
O7	O	1.463283	-0.705796	-0.502526
O8	O	1.334942	-0.449498	-0.638589
O9	O	1.606162	-0.742272	-0.692498
O10	O	1.443199	-0.477135	-0.782527
O11	O	1.346369	-0.579590	-0.479287
O12	O	1.158846	-0.574869	-0.624587
O13	O	1.276556	-0.733974	-0.947889
O14	O	1.133677	-0.697498	-0.757917
O15	O	1.409982	-0.638982	-0.958498
O16	O	1.430066	-0.867643	-0.678496
O17	O	1.287983	-0.864066	-0.788588
C18	C	1.109287	-0.631574	-0.686253
C19	C	0.996016	-0.617476	-0.670965
C20	C	1.356610	-0.898531	-0.735434
C21	C	1.349239	-0.998628	-0.741207
C22	C	0.933097	-0.671944	-0.730029
C23	C	0.816026	-0.657374	-0.714229
C24	C	1.483459	-1.190413	-0.637541
C25	C	1.476537	-1.284464	-0.642962
C26	C	1.328478	-1.280784	-0.757475
C27	C	1.335400	-1.186733	-0.752054
C28	C	1.412892	-1.141551	-0.692084
C29	C	1.419809	-1.047497	-0.686657
C30	C	1.271756	-1.043820	-0.801176
C31	C	1.264834	-1.137870	-0.806597
C32	C	1.639842	-0.697726	-0.757987
C33	C	1.753108	-0.711849	-0.773302
C34	C	1.338133	-0.690131	-0.991762
C35	C	1.322829	-0.701017	-1.106698
C36	C	1.391578	-0.429732	-0.708640
C37	C	1.399048	-0.329652	-0.702926
C38	C	1.382022	-0.658870	-1.163188
C39	C	1.366205	-0.670120	-1.281980
C40	C	1.409886	-0.639082	-0.453391
C41	C	1.425406	-0.627967	-0.338469
H42	H	0.965901	-0.729359	-0.792296
H43	H	1.534001	-1.324244	-0.598550
H44	H	1.265394	-1.317589	-0.806308
C45	C	1.559800	-1.047869	-0.578376
C46	C	1.568628	-1.140740	-0.571618
H47	H	1.612377	-1.017205	-0.537671
H48	H	1.566547	-1.040862	-0.648977
H49	H	1.494491	-1.022555	-0.553047
H50	H	1.633934	-1.166056	-0.596954
H51	H	1.561890	-1.147753	-0.501003
C52	C	1.490836	-0.478537	-1.303041
C53	C	1.509632	-0.567997	-1.285063
H54	H	1.542830	-0.441513	-1.270068
H55	H	1.491254	-0.478247	-1.375857
H56	H	1.425683	-0.455176	-1.275373
H57	H	1.574782	-0.591361	-1.312738
H58	H	1.509224	-0.568290	-1.212232
H59	H	1.303808	-0.714528	-1.321556
H60	H	0.963212	-0.560054	-0.608705
C61	C	1.188477	-1.280409	-0.865749
C62	C	1.179653	-1.187539	-0.872508
H63	H	1.135882	-1.311068	-0.906434
H64	H	1.253768	-1.305729	-0.891091
H65	H	1.181745	-1.287414	-0.795136
H66	H	1.186392	-1.180534	-0.943121
H67	H	1.114346	-1.162212	-0.847171
C68	C	1.216620	-0.898015	-0.843718
C69	C	1.194184	-0.990108	-0.861138
H70	H	1.168733	-0.864858	-0.880739
H71	H	1.212147	-0.874209	-0.771340
H72	H	1.284193	-0.892520	-0.867278
H73	H	1.126614	-0.995603	-0.837571
H74	H	1.198648	-1.013921	-0.933531
H75	H	0.783226	-0.599948	-0.651965
C76	C	1.239248	-0.760523	-1.267461
C77	C	1.238611	-0.760981	-1.160121
H78	H	1.187260	-0.797550	-1.300438
H79	H	1.226509	-0.699833	-1.279634
H80	H	1.304407	-0.783893	-1.295108
H81	H	1.173454	-0.737605	-1.132472
H82	H	1.251344	-0.821684	-1.147940
H83	H	0.785905	-0.769267	-0.835576
C84	C	1.447464	-0.509446	-1.127724
C85	C	1.466243	-0.598912	-1.109763
H86	H	1.499458	-0.472431	-1.094736
H87	H	1.447893	-0.509145	-1.200537
H88	H	1.382309	-0.486082	-1.100062
H89	H	1.531396	-0.622278	-1.137432
H90	H	1.465825	-0.599217	-1.036934
H91	H	1.482904	-1.010710	-0.637823
