data_functionalizedCrystal
_audit_creation_method	'MofGen! by Chris Wilmer'
_symmetry_space_group_name_H-M	'P1'
_symmetry_Int_Tables_number	1
_symmetry_cell_setting	triclinic
loop_
_symmetry_equiv_pos_as_xyz
  x,y,z
_cell_length_a	9.065218
_cell_length_b	15.995350
_cell_length_c	7.540329
_cell_angle_alpha	89.998640
_cell_angle_beta	89.996962
_cell_angle_gamma	84.254130
loop_
_atom_site_label
_atom_site_type_symbol
_atom_site_fract_x
_atom_site_fract_y
_atom_site_fract_z
O1	O	1.957508	0.122770	-0.147477
O2	O	1.527986	0.132840	-0.147479
O3	O	1.754488	0.006007	-0.147476
O4	O	1.731005	0.249604	-0.147480
O5	O	1.754474	0.006005	0.147489
O6	O	1.527972	0.132839	0.147486
O7	O	1.957494	0.122769	0.147488
Cu8	Cu	1.742732	0.127804	0.174420
Cu9	Cu	1.742748	0.127805	-0.174411
O10	O	1.730992	0.249602	0.147485
C11	C	1.473015	0.131872	0.000003
C12	C	1.309240	0.128978	0.000002
C13	C	1.753510	-0.025196	0.000003
C14	C	1.750600	-0.118169	-0.000007
C15	C	1.740148	-0.455995	-0.000001
C16	C	1.578837	-0.409785	-0.000663
C17	C	1.581748	-0.313072	0.000001
C18	C	1.745332	-0.288396	-0.000005
C19	C	1.824889	-0.328871	0.168432
C20	C	1.820836	-0.425537	0.168573
C21	C	1.824184	-0.425868	-0.166858
C22	C	1.824146	-0.328923	-0.169084
C23	C	1.748271	-0.193676	-0.000001
C24	C	1.737214	-0.550716	0.000007
C25	C	2.012465	0.123737	0.000002
C26	C	2.176239	0.126631	-0.000009
C27	C	1.731969	0.280805	0.000002
C28	C	1.734880	0.373778	0.000001
N29	N	1.742731	0.127802	0.419768
N30	N	1.742760	0.127801	-0.419759
H31	H	1.514368	-0.428805	-0.121452
H32	H	1.765980	-0.302115	-0.293689
H33	H	1.519211	-0.285124	-0.120740
C34	C	1.985304	-0.306948	-0.182848
C35	C	2.048445	-0.251575	-0.040158
C36	C	2.209609	-0.229599	-0.053910
C37	C	2.307632	-0.262997	-0.210353
C38	C	2.244492	-0.318374	-0.353054
C39	C	2.083328	-0.340350	-0.339302
H40	H	1.975881	-0.226848	0.075661
H41	H	2.256348	-0.188605	0.051728
H42	H	2.426935	-0.246729	-0.220533
H43	H	2.317056	-0.343101	-0.468873
H44	H	2.036589	-0.381344	-0.444940
C45	C	1.984852	-0.467558	-0.168402
C46	C	2.040735	-0.523742	-0.325226
C47	C	2.201396	-0.565437	-0.326748
C48	C	2.306173	-0.550949	-0.171447
C49	C	2.250293	-0.494763	-0.014611
C50	C	2.089632	-0.453068	-0.013089
H51	H	1.963171	-0.534469	-0.440199
H52	H	2.242762	-0.607030	-0.442849
H53	H	2.425104	-0.581814	-0.172574
H54	H	2.327857	-0.484036	0.100363
H55	H	2.048266	-0.411475	0.103012
H56	H	1.514643	-0.429866	0.119452
H57	H	1.771449	-0.446807	-0.294523
C58	C	1.987232	-0.308534	0.176911
C59	C	2.041644	-0.260038	0.336587
C60	C	2.203981	-0.239689	0.345064
C61	C	2.311905	-0.267837	0.193865
C62	C	2.257494	-0.316336	0.034178
C63	C	2.095158	-0.336685	0.025701
H64	H	1.961751	-0.239199	0.448523
H65	H	2.244258	-0.203787	0.463275
H66	H	2.432076	-0.252774	0.200140
H67	H	2.337388	-0.337175	-0.077759
H68	H	2.054880	-0.372587	-0.092511
C69	C	1.742432	-0.450863	0.338657
C70	C	1.683939	-0.383158	0.473409
C71	C	1.605527	-0.408478	0.643493
C72	C	1.585609	-0.501503	0.678826
C73	C	1.644104	-0.569214	0.544070
C74	C	1.722516	-0.543894	0.373986
H75	H	1.698682	-0.314290	0.447257
H76	H	1.562226	-0.358354	0.743248
H77	H	1.527565	-0.520246	0.804733
H78	H	1.629361	-0.638082	0.570222
H79	H	1.765817	-0.594018	0.274231
H80	H	1.769622	-0.300909	0.293781
H81	H	1.518779	-0.285686	0.120949
H82	H	1.939268	-0.456887	0.176210
