data_functionalizedCrystal
_audit_creation_method	'MofGen! by Chris Wilmer'
_symmetry_space_group_name_H-M	'P1'
_symmetry_Int_Tables_number	1
_symmetry_cell_setting	triclinic
loop_
_symmetry_equiv_pos_as_xyz
  x,y,z
_cell_length_a	11.792241
_cell_length_b	10.654550
_cell_length_c	10.268362
_cell_angle_alpha	90.000169
_cell_angle_beta	89.999574
_cell_angle_gamma	95.660841
loop_
_atom_site_label
_atom_site_type_symbol
_atom_site_fract_x
_atom_site_fract_y
_atom_site_fract_z
O1	O	1.507307	-0.172129	-0.108170
O2	O	1.177007	-0.189869	-0.108200
O3	O	1.349751	0.001761	-0.108180
O4	O	1.334563	-0.363760	-0.108191
O5	O	1.349735	0.001755	0.108421
O6	O	1.176990	-0.189876	0.108400
O7	O	1.507291	-0.172136	0.108430
Cu8	Cu	1.342139	-0.181006	0.128193
Cu9	Cu	1.342159	-0.180999	-0.127963
O10	O	1.334546	-0.363767	0.108410
C11	C	1.134705	-0.188758	0.000096
C12	C	1.008684	-0.185423	0.000085
C13	C	1.348628	0.048553	0.000119
C14	C	1.345291	0.187987	0.000114
N15	N	1.342133	-0.181011	0.308359
C16	C	0.777957	-0.179290	0.000122
C17	C	0.906351	-0.182697	0.000102
C18	C	1.549592	-0.173247	0.000131
C19	C	1.675614	-0.176582	0.000134
C20	C	1.335670	-0.410558	0.000108
C21	C	1.339006	-0.549992	0.000105
C22	C	1.447000	0.267760	0.000127
C23	C	1.443858	0.398772	0.000118
C24	C	1.237290	0.370224	0.000088
C25	C	1.240433	0.239215	0.000088
C26	C	1.551859	0.216532	0.000154
C27	C	1.653577	0.296307	0.000168
C28	C	1.650435	0.427319	0.000159
C29	C	1.545575	0.478556	0.000135
N30	N	1.342173	-0.180984	-0.308128
C31	C	1.342142	-0.181012	0.426201
C32	C	1.342156	-0.181000	0.574039
H33	H	1.554429	0.109857	0.000165
N34	N	1.542344	0.612379	0.000133
N35	N	1.448717	0.658106	0.000124
H36	H	1.446434	0.752617	0.000127
H37	H	1.733258	0.492268	0.000158
N38	N	1.130197	0.422583	0.000090
N39	N	1.105401	0.492503	0.091395
H40	H	1.029766	0.529483	0.091402
N41	N	1.760672	0.243954	0.000173
N42	N	1.763466	0.126981	0.000178
H43	H	1.839105	0.090007	0.000179
N44	N	1.136531	0.157738	0.000054
N45	N	1.042916	0.203490	0.000032
H46	H	0.969532	0.145947	-0.000002
