data_functionalizedCrystal
_audit_creation_method	'MofGen! by Chris Wilmer'
_symmetry_space_group_name_H-M	'P1'
_symmetry_Int_Tables_number	1
_symmetry_cell_setting	triclinic
loop_
_symmetry_equiv_pos_as_xyz
  x,y,z
_cell_length_a	9.065218
_cell_length_b	27.732048
_cell_length_c	7.540329
_cell_angle_alpha	89.991480
_cell_angle_beta	89.996962
_cell_angle_gamma	83.829270
loop_
_atom_site_label
_atom_site_type_symbol
_atom_site_fract_x
_atom_site_fract_y
_atom_site_fract_z
O1	O	1.955892	0.070866	-0.147510
O2	O	1.526237	0.076679	-0.147514
O3	O	1.754409	0.003467	-0.147478
O4	O	1.727721	0.144079	-0.147546
O5	O	1.754395	0.003466	0.147487
O6	O	1.526224	0.076678	0.147451
O7	O	1.955878	0.070866	0.147455
Cu8	Cu	1.741050	0.073772	0.174386
Cu9	Cu	1.741066	0.073773	-0.174444
O10	O	1.727707	0.144078	0.147419
C11	C	1.471280	0.076120	-0.000031
C12	C	1.307543	0.074450	-0.000032
C13	C	1.753842	-0.014544	0.000010
C14	C	1.752155	-0.068210	0.000024
C15	C	1.876369	-0.406178	-0.000066
C16	C	1.870110	-0.607880	-0.000090
O17	O	1.983695	-0.638360	-0.000167
N18	N	1.734814	-0.627927	-0.000090
C19	C	1.601073	-0.597545	-0.000095
O20	O	1.485852	-0.619225	-0.000114
C21	C	1.607334	-0.395844	-0.000083
C22	C	1.742639	-0.375800	-0.000065
C23	C	2.011663	-0.386133	-0.000050
C24	C	2.013226	-0.335710	-0.000034
C25	C	1.879496	-0.305332	-0.000034
C26	C	1.744202	-0.325377	-0.000050
C27	C	1.473594	-0.365463	-0.000101
C28	C	1.475171	-0.315035	-0.000103
C29	C	1.610476	-0.294991	-0.000085
C30	C	1.612034	-0.244577	-0.000034
N31	N	1.747331	-0.224529	-0.000034
C32	C	1.881061	-0.254907	-0.000034
C33	C	1.597796	-0.703442	-0.000098
C34	C	1.596230	-0.753867	-0.000098
C35	C	1.865268	-0.764198	-0.000096
C36	C	1.866832	-0.713772	-0.000084
C37	C	1.733092	-0.683395	-0.000098
C38	C	1.884334	-0.149016	0.000001
C39	C	1.885886	-0.098588	0.000024
C40	C	1.616849	-0.088262	0.000013
C41	C	1.615296	-0.138685	-0.000001
C42	C	1.749051	-0.169061	-0.000013
O43	O	1.498510	-0.214067	0.000023
O44	O	1.996266	-0.233218	-0.000055
C45	C	1.874806	-0.456600	-0.000082
C46	C	1.739512	-0.476645	-0.000097
C47	C	1.605781	-0.446267	-0.000097
C48	C	1.737946	-0.527070	-0.000097
C49	C	1.871677	-0.557448	-0.000097
C50	C	2.006973	-0.537401	-0.000098
C51	C	2.008537	-0.486978	-0.000082
C52	C	1.470485	-0.466314	-0.000097
C53	C	1.468933	-0.516737	-0.000111
C54	C	1.602663	-0.547115	-0.000111
C55	C	2.010836	0.071425	-0.000031
C56	C	2.174573	0.073095	-0.000042
C57	C	1.728274	0.162089	-0.000072
C58	C	1.729961	0.215755	-0.000098
N59	N	1.741050	0.073771	0.419734
N60	N	1.741078	0.073770	-0.419793
H61	H	1.993250	-0.173743	-0.000016
N62	N	1.450296	-0.775484	-0.000069
H63	H	1.365823	-0.748583	-0.000068
H64	H	1.443777	-0.796176	-0.109413
N65	N	1.469366	-0.160308	0.000005
H66	H	1.384887	-0.133410	0.000013
H67	H	1.462863	-0.180995	-0.109357
H68	H	1.996072	-0.082271	0.000043
H69	H	1.366261	-0.290304	-0.000117
N70	N	1.453539	-0.670681	-0.000110
H71	H	1.367604	-0.691037	-0.000104
H72	H	1.448317	-0.649539	0.109239
N73	N	1.472616	-0.055492	0.000061
H74	H	1.494150	-0.020508	0.000079
H75	H	1.413588	-0.062037	-0.109281
N76	N	1.322987	-0.538353	-0.000100
H77	H	1.238515	-0.511453	-0.000097
H78	H	1.316475	-0.559043	-0.109454
N79	N	1.327657	-0.387074	-0.000097
H80	H	1.243191	-0.360172	-0.000101
H81	H	1.321138	-0.407766	-0.109444
H82	H	2.120569	-0.410862	-0.000057
H83	H	2.118716	-0.470663	-0.000068
N84	N	2.009502	-0.796971	-0.000108
H85	H	2.068581	-0.790452	-0.109458
H86	H	2.068477	-0.790449	0.109302
H87	H	2.115862	-0.562143	-0.000090
N88	N	1.326244	-0.433551	-0.000088
H89	H	1.267163	-0.440063	-0.109429
H90	H	1.267288	-0.440093	0.109330
N91	N	2.159172	-0.314100	-0.000030
H92	H	2.217697	-0.325134	-0.109379
H93	H	2.139780	-0.277550	0.000041
H94	H	1.977009	-0.697456	-0.000071
