data_functionalizedCrystal
_audit_creation_method	'MofGen! by Chris Wilmer'
_symmetry_space_group_name_H-M	'P1'
_symmetry_Int_Tables_number	1
_symmetry_cell_setting	triclinic
loop_
_symmetry_equiv_pos_as_xyz
  x,y,z
_cell_length_a	17.640112
_cell_length_b	19.121063
_cell_length_c	17.640968
_cell_angle_alpha	81.648500
_cell_angle_beta	92.139080
_cell_angle_gamma	103.148881
loop_
_atom_site_label
_atom_site_type_symbol
_atom_site_fract_x
_atom_site_fract_y
_atom_site_fract_z
Zn1	Zn	1.247036	-0.020114	-0.196194
Zn2	Zn	1.747036	0.479886	0.303806
Zn3	Zn	1.215936	-0.164540	-0.077209
Zn4	Zn	1.715936	0.335460	0.422791
Zn5	Zn	1.092687	-0.065650	-0.097361
Zn6	Zn	1.592687	0.434350	0.402639
Zn7	Zn	1.115017	-0.155325	-0.229281
Zn8	Zn	1.615017	0.344675	0.270719
O9	O	1.167669	-0.101407	-0.150011
O10	O	1.667669	0.398593	0.349989
O11	O	1.349741	-0.024071	-0.158129
O12	O	1.849741	0.475929	0.341871
O13	O	1.177226	-0.174335	0.025122
O14	O	1.677226	0.325665	0.525122
O15	O	1.116833	0.038363	-0.105059
O16	O	1.616833	0.538363	0.394941
O17	O	1.326892	-0.130180	-0.070712
O18	O	1.826892	0.369820	0.429288
O19	O	1.230232	0.071818	-0.177670
O20	O	1.730232	0.571818	0.322330
O21	O	1.086676	-0.101681	0.010316
O22	O	1.586676	0.398319	0.510316
O23	O	0.988819	-0.092746	-0.137142
O24	O	1.488819	0.407254	0.362858
O25	O	1.154890	-0.114475	-0.329896
O26	O	1.654890	0.385525	0.170104
O27	O	1.005224	-0.158630	-0.234062
O28	O	1.505224	0.341370	0.265938
O29	O	1.251884	-0.015136	-0.305587
O30	O	1.751884	0.484864	0.194413
O31	O	1.198878	-0.261289	-0.102795
O32	O	1.698878	0.238711	0.397205
O33	O	1.124733	-0.254519	-0.214521
O34	O	1.624733	0.245481	0.285479
C35	C	0.969322	-0.129630	-0.191380
C36	C	1.469322	0.370370	0.308620
C37	C	0.884471	-0.141717	-0.209096
C38	C	1.384471	0.358283	0.290904
C39	C	1.160878	-0.283301	-0.160074
C40	C	1.660878	0.216699	0.339926
C41	C	1.158048	-0.361101	-0.164389
C42	C	1.658048	0.138899	0.335611
C43	C	0.562686	-0.009571	-0.015428
C44	C	1.062686	0.490429	0.484572
C45	C	0.482957	-0.020940	-0.032086
C46	C	0.982957	0.479060	0.467914
C47	C	0.500055	-0.089704	-0.132851
C48	C	1.000055	0.410296	0.367149
C49	C	0.579787	-0.078338	-0.116204
C50	C	1.079787	0.421662	0.383796
C51	C	0.611096	-0.038271	-0.057491
C52	C	1.111096	0.461729	0.442509
C53	C	0.628197	-0.107038	-0.158266
C54	C	1.128197	0.392962	0.341734
C55	C	0.707921	-0.095675	-0.141618
C56	C	1.207921	0.404325	0.358382
C57	C	0.739236	-0.055612	-0.082906
C58	C	1.239236	0.444388	0.417094
C59	C	0.690820	-0.026908	-0.040842
C60	C	1.190820	0.473092	0.459158
C61	C	0.596886	-0.147109	-0.216975
C62	C	1.096886	0.352891	0.283025
C63	C	0.645295	-0.175809	-0.259038
C64	C	1.145295	0.324191	0.240962
C65	C	0.725022	-0.164442	-0.242393
C66	C	1.225022	0.335558	0.257607
C67	C	0.756337	-0.124379	-0.183682
C68	C	1.256337	0.375621	0.316318
C69	C	0.773438	-0.193146	-0.284457
C70	C	1.273438	0.306854	0.215543
C71	C	0.853163	-0.181784	-0.267809
C72	C	1.353163	0.318216	0.232191
C73	C	0.836061	-0.113017	-0.167033
C74	C	1.336061	0.386983	0.332967
C75	C	1.195368	-0.401138	-0.108278
C76	C	1.695368	0.098862	0.391722
C77	C	1.192712	-0.474238	-0.112340
C78	C	1.692712	0.025762	0.387660
C79	C	1.152731	-0.507299	-0.172510
C80	C	1.652731	-0.007299	0.327490
C81	C	1.115410	-0.467255	-0.228626
C82	C	1.615410	0.032745	0.271374
C83	C	1.118071	-0.394156	-0.224567
C84	C	1.618071	0.105844	0.275433
C85	C	1.142766	-0.727835	-0.187679
C86	C	1.642766	-0.227835	0.312321
C87	C	1.140106	-0.800941	-0.191733
C88	C	1.640106	-0.300941	0.308267
C89	C	1.217410	-0.807918	-0.075447
C90	C	1.717410	-0.307918	0.424553
C91	C	1.220063	-0.734818	-0.071390
C92	C	1.720063	-0.234818	0.428610
C93	C	1.182746	-0.694779	-0.127508
C94	C	1.682746	-0.194779	0.372492
C95	C	1.150013	-0.582019	-0.176662
C96	C	1.650013	-0.082019	0.323338
C97	C	1.185469	-0.620060	-0.123359
C98	C	1.685469	-0.120060	0.376641
C99	C	1.366791	-0.073074	-0.108482
C100	C	1.866791	0.426926	0.391518
C101	C	1.451644	-0.061001	-0.090784
C102	C	1.951644	0.438999	0.409216
C103	C	1.209347	-0.058698	-0.345729
C104	C	1.709347	0.441302	0.154271
C105	C	1.227107	-0.040499	-0.429132
C106	C	1.727107	0.459501	0.070868
C107	C	1.174511	0.081204	-0.139922
C108	C	1.674511	0.581204	0.360078
C109	C	1.177426	0.159022	-0.135622
C110	C	1.677426	0.659022	0.364378
C111	C	1.033051	-0.239247	-0.766711
C112	C	1.533051	0.260753	-0.266711
C113	C	1.049756	-0.222134	-0.845077
C114	C	1.549756	0.277866	-0.345077
C115	C	1.150747	-0.118701	-0.819756
C116	C	1.650747	0.381299	-0.319756
C117	C	1.134048	-0.135803	-0.741387
C118	C	1.634048	0.364197	-0.241387
C119	C	1.075199	-0.196077	-0.714871
C120	C	1.575199	0.303923	-0.214871
C121	C	1.176197	-0.092633	-0.689546
C122	C	1.676197	0.407367	-0.189546
C123	C	1.159501	-0.109736	-0.611183
C124	C	1.659501	0.390264	-0.111183
C125	C	1.100657	-0.170009	-0.584660
C126	C	1.600657	0.329991	-0.084660
C127	C	1.058504	-0.213180	-0.636508
C128	C	1.558504	0.286820	-0.136508
C129	C	1.235048	-0.032362	-0.716063
C130	C	1.735048	0.467638	-0.216063
C131	C	1.277197	0.010807	-0.664223
C132	C	1.777197	0.510807	-0.164223
C133	C	1.260498	-0.006292	-0.585859
C134	C	1.760498	0.493708	-0.085859
C135	C	1.201654	-0.066565	-0.559336
C136	C	1.701654	0.433435	-0.059336
C137	C	1.302651	0.036879	-0.534012
C138	C	1.802651	0.536879	-0.034012
C139	C	1.285956	0.019776	-0.455648
C140	C	1.785956	0.519776	0.044352
C141	C	1.184959	-0.083668	-0.480973
C142	C	1.684959	0.416332	0.019027
C143	C	1.126199	-0.143893	0.044957
C144	C	1.626199	0.356107	0.544957
C145	C	1.108594	-0.161874	0.128402
C146	C	1.608594	0.338126	0.628402
H147	H	0.861557	-0.080377	-0.119234
H148	H	1.361557	0.419623	0.380766
H149	H	1.218025	-0.593138	-0.074370
H150	H	1.718025	-0.093138	0.425630
H151	H	1.248641	-0.018440	-0.779872
H152	H	1.748641	0.481560	-0.279872
H153	H	1.252619	-0.707901	-0.022394
H154	H	1.752619	-0.207901	0.477606
F155	F	1.004889	-0.268085	-0.900249
F156	F	1.504889	0.231915	-0.400249
F157	F	1.257127	-0.850533	-0.015728
F158	F	1.757127	-0.350533	0.484272
F159	F	1.078352	-0.351544	-0.284290
F160	F	1.578352	0.148456	0.215710
F161	F	1.107462	-0.617212	-0.240698
F162	F	1.607462	-0.117212	0.259302
H163	H	1.325113	0.059881	-0.685823
H164	H	1.825113	0.559881	-0.185823
F165	F	1.122319	-0.147815	-0.452750
F166	F	1.622319	0.352185	0.047250
F167	F	0.824086	-0.043523	-0.065183
F168	F	1.324086	0.456477	0.434817
F169	F	0.724146	0.015741	0.021642
F170	F	1.224146	0.515741	0.521642
F171	F	1.232436	-0.516845	-0.052620
F172	F	1.732436	-0.016845	0.447380
H173	H	1.107560	-0.827852	-0.240742
H174	H	1.607560	-0.327852	0.259258
F175	F	1.237916	-0.365961	-0.044232
F176	F	1.737916	0.134039	0.455768
H177	H	1.087068	-0.183935	-0.520851
H178	H	1.587068	0.316065	-0.020851
H179	H	1.350570	0.085950	-0.555613
H180	H	1.850570	0.585950	-0.055613
F181	F	0.512033	-0.159210	-0.234686
F182	F	1.012033	0.340790	0.265314
H183	H	0.747933	-0.225774	-0.332256
H184	H	1.247933	0.274226	0.167744
H185	H	1.010566	-0.262247	-0.614920
H186	H	1.510566	0.237753	-0.114920
F187	F	0.611964	-0.218458	-0.321515
F188	F	1.111964	0.281542	0.178485
H189	H	1.320276	0.054930	-0.413438
H190	H	1.820276	0.554930	0.086562
H191	H	0.474551	-0.122329	-0.180653
H192	H	0.974551	0.377671	0.319347
F193	F	1.103048	-0.685233	-0.247405
F194	F	1.603048	-0.185233	0.252595
H195	H	0.588182	0.023068	0.032371
H196	H	1.088182	0.523068	0.532371
F197	F	0.431436	0.009605	0.012692
F198	F	0.931436	0.509605	0.512692
F199	F	1.072864	-0.502442	-0.292668
F200	F	1.572864	-0.002442	0.207332
H201	H	1.198664	-0.069627	-0.841357
H202	H	1.698664	0.430373	-0.341357
F203	F	0.904686	-0.212331	-0.312575
F204	F	1.404686	0.287669	0.187425
F205	F	0.970411	-0.303393	-0.738488
F206	F	1.470411	0.196607	-0.238488
