data_functionalizedCrystal
_audit_creation_method	'MofGen! by Chris Wilmer'
_symmetry_space_group_name_H-M	'P1'
_symmetry_Int_Tables_number	1
_symmetry_cell_setting	triclinic
loop_
_symmetry_equiv_pos_as_xyz
  x,y,z
_cell_length_a	19.805407
_cell_length_b	19.805405
_cell_length_c	19.805398
_cell_angle_alpha	90.030326
_cell_angle_beta	90.013121
_cell_angle_gamma	90.026410
loop_
_atom_site_label
_atom_site_type_symbol
_atom_site_fract_x
_atom_site_fract_y
_atom_site_fract_z
Zn1	Zn	1.034693	-0.269472	0.382712
Zn2	Zn	1.284693	-0.019472	0.632712
Zn3	Zn	1.534693	0.230528	0.882712
Zn4	Zn	1.784693	0.480528	1.132712
Zn5	Zn	1.034620	-0.382662	0.269520
Zn6	Zn	1.284620	-0.132662	0.519520
Zn7	Zn	1.534620	0.117338	0.769520
Zn8	Zn	1.784620	0.367338	1.019520
Zn9	Zn	0.921520	-0.269493	0.269536
Zn10	Zn	1.171520	-0.019493	0.519536
Zn11	Zn	1.421520	0.230507	0.769536
Zn12	Zn	1.671520	0.480507	1.019536
Zn13	Zn	0.921471	-0.382624	0.382667
Zn14	Zn	1.171471	-0.132624	0.632667
Zn15	Zn	1.421471	0.117376	0.882667
Zn16	Zn	1.671471	0.367376	1.132667
O17	O	0.978076	-0.326063	0.326109
O18	O	1.228076	-0.076063	0.576109
O19	O	1.478076	0.173937	0.826109
O20	O	1.728076	0.423937	1.076109
O21	O	1.129400	-0.284494	0.367708
O22	O	1.379400	-0.034494	0.617708
O23	O	1.629400	0.215506	0.867708
O24	O	1.879400	0.465506	1.117708
O25	O	1.019607	-0.367675	0.174805
O26	O	1.269607	-0.117675	0.424805
O27	O	1.519607	0.132325	0.674805
O28	O	1.769607	0.382325	0.924805
O29	O	0.936583	-0.174773	0.284575
O30	O	1.186583	0.075227	0.534575
O31	O	1.436583	0.325227	0.784575
O32	O	1.686583	0.575227	1.034575
O33	O	1.129346	-0.367655	0.284547
O34	O	1.379346	-0.117655	0.534547
O35	O	1.629346	0.132345	0.784547
O36	O	1.879346	0.382345	1.034547
O37	O	1.019731	-0.174758	0.367724
O38	O	1.269731	0.075242	0.617724
O39	O	1.519731	0.325242	0.867724
O40	O	1.769731	0.575242	1.117724
O41	O	0.936513	-0.284529	0.174817
O42	O	1.186513	-0.034529	0.424817
O43	O	1.436513	0.215471	0.674817
O44	O	1.686513	0.465471	0.924817
O45	O	0.826797	-0.284493	0.284531
O46	O	1.076797	-0.034493	0.534531
O47	O	1.326797	0.215507	0.784531
O48	O	1.576797	0.465507	1.034531
O49	O	0.936500	-0.367590	0.477389
O50	O	1.186500	-0.117590	0.727389
O51	O	1.436500	0.132410	0.977389
O52	O	1.686500	0.382410	1.227389
O53	O	0.826761	-0.367610	0.367648
O54	O	1.076761	-0.117610	0.617648
O55	O	1.326761	0.132390	0.867648
O56	O	1.576761	0.382390	1.117648
O57	O	1.019683	-0.284457	0.477422
O58	O	1.269683	-0.034457	0.727422
O59	O	1.519683	0.215543	0.977422
O60	O	1.769683	0.465543	1.227422
O61	O	1.019560	-0.477374	0.284503
O62	O	1.269560	-0.227374	0.534503
O63	O	1.519560	0.022626	0.784503
O64	O	1.769560	0.272626	1.034503
O65	O	0.936429	-0.477346	0.367632
O66	O	1.186429	-0.227346	0.617632
O67	O	1.436429	0.022654	0.867632
O68	O	1.686429	0.272654	1.117632
C69	C	0.802220	-0.326050	0.326087
C70	C	1.052220	-0.076050	0.576087
C71	C	1.302220	0.173950	0.826087
C72	C	1.552220	0.423950	1.076087
C73	C	0.726988	-0.326061	0.326093
C74	C	0.976988	-0.076061	0.576093
C75	C	1.226988	0.173939	0.826093
C76	C	1.476988	0.423939	1.076093
C77	C	0.978000	-0.501919	0.326076
C78	C	1.228000	-0.251919	0.576076
C79	C	1.478000	-0.001919	0.826076
C80	C	1.728000	0.248081	1.076076
C81	C	0.978029	-0.577151	0.326084
C82	C	1.228029	-0.327151	0.576084
C83	C	1.478029	-0.077151	0.826084
C84	C	1.728029	0.172849	1.076084
C85	C	0.691643	-0.369405	0.369302
C86	C	0.941643	-0.119405	0.619302
C87	C	1.191643	0.130595	0.869302
C88	C	1.441643	0.380595	1.119302
C89	C	0.620954	-0.369406	0.369312
C90	C	0.870954	-0.119406	0.619312
C91	C	1.120954	0.130594	0.869312
C92	C	1.370954	0.380594	1.119312
C93	C	0.585612	-0.326066	0.326109
C94	C	0.835612	-0.076066	0.576109
C95	C	1.085612	0.173934	0.826109
C96	C	1.335612	0.423934	1.076109
C97	C	0.620962	-0.282717	0.282898
C98	C	0.870962	-0.032717	0.532898
C99	C	1.120962	0.217283	0.782898
C100	C	1.370962	0.467283	1.032898
C101	C	0.691650	-0.282713	0.282892
C102	C	0.941650	-0.032713	0.532892
C103	C	1.191650	0.217287	0.782892
C104	C	1.441650	0.467287	1.032892
C105	C	0.335889	-0.282732	0.282920
C106	C	0.585889	-0.032732	0.532920
C107	C	0.835889	0.217268	0.782920
C108	C	1.085889	0.467268	1.032920
C109	C	0.265197	-0.282741	0.282928
C110	C	0.515197	-0.032741	0.532928
C111	C	0.765197	0.217259	0.782928
C112	C	1.015197	0.467259	1.032928
C113	C	0.265194	-0.369425	0.369340
C114	C	0.515194	-0.119425	0.619340
C115	C	0.765194	0.130575	0.869340
C116	C	1.015194	0.380575	1.119340
C117	C	0.335881	-0.369421	0.369334
C118	C	0.585881	-0.119421	0.619334
C119	C	0.835881	0.130579	0.869334
C120	C	1.085881	0.380579	1.119334
C121	C	0.371225	-0.326070	0.326126
C122	C	0.621225	-0.076070	0.576126
C123	C	0.871225	0.173930	0.826126
C124	C	1.121225	0.423930	1.076126
C125	C	0.447873	-0.326068	0.326117
C126	C	0.697873	-0.076068	0.576117
C127	C	0.947873	0.173932	0.826117
C128	C	1.197873	0.423932	1.076117
C129	C	0.508965	-0.326071	0.326114
C130	C	0.758965	-0.076071	0.576114
C131	C	1.008965	0.173929	0.826114
C132	C	1.258965	0.423929	1.076114
C133	C	1.021357	-0.612487	0.282845
C134	C	1.271357	-0.362487	0.532845
C135	C	1.521357	-0.112487	0.782845
C136	C	1.771357	0.137513	1.032845
C137	C	1.021386	-0.683176	0.282860
C138	C	1.271386	-0.433176	0.532860
C139	C	1.521386	-0.183176	0.782860
C140	C	1.771386	0.066824	1.032860
C141	C	0.978083	-0.718526	0.326111
C142	C	1.228083	-0.468526	0.576111
C143	C	1.478083	-0.218526	0.826111
C144	C	1.728083	0.031474	1.076111
C145	C	0.934753	-0.683185	0.369356
C146	C	1.184753	-0.433185	0.619356
C147	C	1.434753	-0.183185	0.869356
C148	C	1.684753	0.066815	1.119356
C149	C	0.934728	-0.612498	0.369344
C150	C	1.184728	-0.362498	0.619344
C151	C	1.434728	-0.112498	0.869344
C152	C	1.684728	0.137502	1.119344
C153	C	0.934853	-0.968259	0.369406
C154	C	1.184853	-0.718259	0.619406
C155	C	1.434853	-0.468259	0.869406
C156	C	1.684853	-0.218259	1.119406
C157	C	0.934879	-1.038951	0.369413
C158	C	1.184879	-0.788951	0.619413
C159	C	1.434879	-0.538951	0.869413
C160	C	1.684879	-0.288951	1.119413
C161	C	1.021510	-1.038936	0.282922
C162	C	1.271510	-0.788936	0.532922
C163	C	1.521510	-0.538936	0.782922
C164	C	1.771510	-0.288936	1.032922
C165	C	1.021486	-0.968249	0.282910
C166	C	1.271486	-0.718249	0.532910
C167	C	1.521486	-0.468249	0.782910
C168	C	1.771486	-0.218249	1.032910
C169	C	0.978159	-0.932914	0.326157
C170	C	1.228159	-0.682914	0.576157
C171	C	1.478159	-0.432914	0.826157
C172	C	1.728159	-0.182914	1.076157
C173	C	0.978129	-0.856265	0.326141
C174	C	1.228129	-0.606265	0.576141
C175	C	1.478129	-0.356265	0.826141
C176	C	1.728129	-0.106265	1.076141
C177	C	0.978108	-0.795174	0.326124
C178	C	1.228108	-0.545174	0.576124
C179	C	1.478108	-0.295174	0.826124
C180	C	1.728108	-0.045174	1.076124
C181	C	1.154619	-0.326076	0.326131
C182	C	1.404619	-0.076076	0.576131
C183	C	1.654619	0.173924	0.826131
C184	C	1.904619	0.423924	1.076131
C185	C	1.229851	-0.326082	0.326140
C186	C	1.479851	-0.076082	0.576140
C187	C	1.729851	0.173918	0.826140
C188	C	1.979851	0.423918	1.076140
C189	C	0.978094	-0.326017	0.502651
C190	C	1.228094	-0.076017	0.752651
C191	C	1.478094	0.173983	1.002651
C192	C	1.728094	0.423983	1.252651
C193	C	0.978102	-0.325998	0.577883
C194	C	1.228102	-0.075998	0.827883
C195	C	1.478102	0.174002	1.077883
C196	C	1.728102	0.424002	1.327883
C197	C	0.978171	-0.149520	0.326156
C198	C	1.228171	0.100480	0.576156
C199	C	1.478171	0.350480	0.826156
C200	C	1.728171	0.600480	1.076156
C201	C	0.978211	-0.074288	0.326177
C202	C	1.228211	0.175712	0.576177
C203	C	1.478211	0.425712	0.826177
C204	C	1.728211	0.675712	1.076177
C205	C	0.978097	-0.326060	0.150253
C206	C	1.228097	-0.076060	0.400253
C207	C	1.478097	0.173940	0.650253
C208	C	1.728097	0.423940	0.900253
C209	C	0.978220	-0.325889	0.075021
C210	C	1.228220	-0.075889	0.325021
C211	C	1.478220	0.174111	0.575021
C212	C	1.728220	0.424111	0.825021
C213	C	1.021476	-0.369184	1.039666
C214	C	1.271476	-0.119184	1.289666
C215	C	1.521476	0.130816	1.539666
C216	C	1.771476	0.380816	1.789666
C217	C	1.021457	-0.369202	0.968978
C218	C	1.271457	-0.119202	1.218978
C219	C	1.521457	0.130798	1.468978
C220	C	1.771457	0.380798	1.718978
C221	C	0.978186	-0.325921	0.933645
C222	C	1.228186	-0.075921	1.183645
C223	C	1.478186	0.174079	1.433645
C224	C	1.728186	0.424079	1.683645
C225	C	0.934926	-0.282624	0.969005
C226	C	1.184926	-0.032624	1.219005
C227	C	1.434926	0.217376	1.469005
C228	C	1.684926	0.467376	1.719005
C229	C	0.934941	-0.282610	1.039692
C230	C	1.184941	-0.032610	1.289692
C231	C	1.434941	0.217390	1.539692
C232	C	1.684941	0.467390	1.789692
C233	C	0.934860	-0.282682	0.683932
C234	C	1.184860	-0.032682	0.933932
C235	C	1.434860	0.217318	1.183932
C236	C	1.684860	0.467318	1.433932
C237	C	0.934849	-0.282698	0.613240
C238	C	1.184849	-0.032698	0.863240
C239	C	1.434849	0.217302	1.113240
C240	C	1.684849	0.467302	1.363240
C241	C	1.021376	-0.369275	0.613217
C242	C	1.271376	-0.119275	0.863217
C243	C	1.521376	0.130725	1.113217
C244	C	1.771376	0.380725	1.363217
C245	C	1.021391	-0.369260	0.683904
C246	C	1.271391	-0.119260	0.933904
C247	C	1.521391	0.130740	1.183904
C248	C	1.771391	0.380740	1.433904
C249	C	0.978129	-0.325966	0.719258
C250	C	1.228129	-0.075966	0.969258
C251	C	1.478129	0.174034	1.219258
C252	C	1.728129	0.424034	1.469258
C253	C	0.978149	-0.325947	0.795906
C254	C	1.228149	-0.075947	1.045906
C255	C	1.478149	0.174053	1.295906
C256	C	1.728149	0.424053	1.545906
C257	C	0.978169	-0.325936	0.856998
C258	C	1.228169	-0.075936	1.106998
C259	C	1.478169	0.174064	1.356998
C260	C	1.728169	0.424064	1.606998
H261	H	0.720413	-0.404700	0.404481
H262	H	0.970413	-0.154700	0.654481
H263	H	1.220413	0.095300	0.904481
H264	H	1.470413	0.345300	1.154481
H265	H	0.899632	-0.247430	0.712708
H266	H	1.149632	0.002570	0.962708
H267	H	1.399632	0.252570	1.212708
H268	H	1.649632	0.502570	1.462708
H269	H	0.899690	-0.247387	0.940232
H270	H	1.149690	0.002613	1.190232
H271	H	1.399690	0.252613	1.440232
H272	H	1.649690	0.502613	1.690232
Br273	Br	0.739619	-0.223882	0.224253
Br274	Br	0.989619	0.026118	0.474253
Br275	Br	1.239619	0.276118	0.724253
Br276	Br	1.489619	0.526118	0.974253
Br277	Br	1.080123	-0.564518	0.224136
Br278	Br	1.330123	-0.314518	0.474136
Br279	Br	1.580123	-0.064518	0.724136
Br280	Br	1.830123	0.185482	0.974136
Br281	Br	0.876238	-0.223847	1.087675
Br282	Br	1.126238	0.026153	1.337675
Br283	Br	1.376238	0.276153	1.587675
Br284	Br	1.626238	0.526153	1.837675
H285	H	1.056667	-0.711943	0.247649
H286	H	1.306667	-0.461943	0.497649
H287	H	1.556667	-0.211943	0.747649
H288	H	1.806667	0.038057	0.997649
Br289	Br	0.876052	-0.920313	0.428098
Br290	Br	1.126052	-0.670313	0.678098
Br291	Br	1.376052	-0.420313	0.928098
Br292	Br	1.626052	-0.170313	1.178098
Br293	Br	0.572999	-0.223891	0.224271
Br294	Br	0.822999	0.026109	0.474271
Br295	Br	1.072999	0.276109	0.724271
Br296	Br	1.322999	0.526109	0.974271
Br297	Br	0.572988	-0.428232	0.427956
Br298	Br	0.822988	-0.178232	0.677956
Br299	Br	1.072988	0.071768	0.927956
Br300	Br	1.322988	0.321768	1.177956
Br301	Br	1.080210	-0.427920	1.087610
Br302	Br	1.330210	-0.177920	1.337610
Br303	Br	1.580210	0.072080	1.587610
Br304	Br	1.830210	0.322080	1.837610
Br305	Br	0.383841	-0.428246	0.427965
Br306	Br	0.633841	-0.178246	0.677965
Br307	Br	0.883841	0.071754	0.927965
Br308	Br	1.133841	0.321754	1.177965
H309	H	0.236408	-0.404722	0.404524
H310	H	0.486408	-0.154722	0.654524
H311	H	0.736408	0.095278	0.904524
H312	H	0.986408	0.345278	1.154524
H313	H	1.056600	-0.404529	0.584423
H314	H	1.306600	-0.154529	0.834423
H315	H	1.556600	0.095471	1.084423
H316	H	1.806600	0.345471	1.334423
Br317	Br	0.217233	-0.223918	0.224291
Br318	Br	0.467233	0.026082	0.474291
Br319	Br	0.717233	0.276082	0.724291
Br320	Br	0.967233	0.526082	0.974291
H321	H	0.899610	-0.247452	0.584474
H322	H	1.149610	0.002548	0.834474
H323	H	1.399610	0.252548	1.084474
H324	H	1.649610	0.502548	1.334474
Br325	Br	1.080255	-0.920276	0.224208
Br326	Br	1.330255	-0.670276	0.474208
Br327	Br	1.580255	-0.420276	0.724208
Br328	Br	1.830255	-0.170276	0.974208
Br329	Br	1.080315	-1.086894	0.224231
Br330	Br	1.330315	-0.836894	0.474231
Br331	Br	1.580315	-0.586894	0.724231
Br332	Br	1.830315	-0.336894	0.974231
H333	H	0.899617	-1.067731	0.404639
H334	H	1.149617	-0.817731	0.654639
H335	H	1.399617	-0.567731	0.904639
H336	H	1.649617	-0.317731	1.154639
H337	H	0.899497	-0.711974	0.404575
H338	H	1.149497	-0.461974	0.654575
H339	H	1.399497	-0.211974	0.904575
H340	H	1.649497	0.038026	1.154575
Br341	Br	0.383847	-0.223894	0.224285
Br342	Br	0.633847	0.026106	0.474285
Br343	Br	0.883847	0.276106	0.724285
Br344	Br	1.133847	0.526106	0.974285
Br345	Br	0.875928	-0.564541	0.428033
Br346	Br	1.125928	-0.314541	0.678033
Br347	Br	1.375928	-0.064541	0.928033
Br348	Br	1.625928	0.185459	1.178033
H349	H	1.056671	-0.404466	0.940195
H350	H	1.306671	-0.154466	1.190195
H351	H	1.556671	0.095534	1.440195
H352	H	1.806671	0.345534	1.690195
Br353	Br	1.080121	-0.427998	0.731852
Br354	Br	1.330121	-0.177998	0.981852
Br355	Br	1.580121	0.072002	1.231852
Br356	Br	1.830121	0.322002	1.481852
