data_functionalizedCrystal
_audit_creation_method	'MofGen! by Chris Wilmer'
_symmetry_space_group_name_H-M	'P1'
_symmetry_Int_Tables_number	1
_symmetry_cell_setting	triclinic
loop_
_symmetry_equiv_pos_as_xyz
  x,y,z
_cell_length_a	19.288864
_cell_length_b	23.532407
_cell_length_c	17.766277
_cell_angle_alpha	89.988964
_cell_angle_beta	89.976791
_cell_angle_gamma	82.992461
loop_
_atom_site_label
_atom_site_type_symbol
_atom_site_fract_x
_atom_site_fract_y
_atom_site_fract_z
O1	O	0.921134	0.071045	-0.062843
O2	O	0.718844	0.080629	-0.062793
O3	O	0.826089	-0.007082	-0.062806
O4	O	0.813889	0.158756	-0.062830
O5	O	0.826070	-0.007086	0.062383
O6	O	0.718825	0.080625	0.062396
O7	O	0.921115	0.071041	0.062345
Cu8	Cu	0.819968	0.075832	0.073801
Cu9	Cu	0.819991	0.075838	-0.074249
O10	O	0.813870	0.158752	0.062358
C11	C	0.692959	0.080319	-0.000192
C12	C	0.615858	0.079393	-0.000172
C13	C	0.571003	0.130858	-0.000191
C14	C	0.498559	0.129988	-0.000200
C15	C	0.470973	0.077651	-0.000203
C16	C	0.515838	0.026179	-0.000180
C17	C	0.588280	0.027050	-0.000164
C18	C	0.362844	0.036509	-0.044082
C19	C	0.290402	0.035640	-0.044102
C20	C	0.247535	0.074961	-0.000249
C21	C	0.277118	0.115162	0.043616
C22	C	0.349560	0.116033	0.043631
C23	C	0.392422	0.076700	-0.000220
C24	C	0.124127	0.125487	-0.000276
C25	C	0.051682	0.124615	-0.000279
C26	C	0.068962	0.020805	-0.000267
C27	C	0.141406	0.021678	-0.000256
C28	C	0.168984	0.074021	-0.000264
C29	C	0.825769	-0.028301	-0.000209
C30	C	0.824835	-0.091520	-0.000203
C31	C	0.882442	-0.490503	-0.000259
C32	C	0.881574	-0.549905	-0.000264
O33	O	0.934976	-0.586539	-0.000306
N34	N	0.817817	-0.572664	-0.000248
C35	C	0.754923	-0.536017	-0.000234
O36	O	0.700613	-0.560829	-0.000221
C37	C	0.755792	-0.476616	-0.000234
C38	C	0.819553	-0.453861	-0.000242
C39	C	0.946198	-0.467748	-0.000269
C40	C	0.947065	-0.408350	-0.000262
C41	C	0.884177	-0.371707	-0.000245
C42	C	0.820420	-0.394463	-0.000236
C43	C	0.692899	-0.439970	-0.000225
C44	C	0.693773	-0.380565	-0.000225
C45	C	0.757534	-0.357810	-0.000234
C46	C	0.758399	-0.298422	-0.000212
N47	N	0.822156	-0.275664	-0.000229
C48	C	0.885045	-0.312307	-0.000245
C49	C	0.753104	-0.660763	-0.000235
C50	C	0.752235	-0.720163	-0.000230
C51	C	0.878886	-0.734047	-0.000262
C52	C	0.879755	-0.674647	-0.000262
C53	C	0.816861	-0.638005	-0.000252
C54	C	0.886862	-0.187566	-0.000230
C55	C	0.887724	-0.128162	-0.000220
C56	C	0.761073	-0.114283	-0.000192
C57	C	0.760211	-0.173681	-0.000198
C58	C	0.823111	-0.210322	-0.000219
O59	O	0.705025	-0.261754	-0.000174
O60	O	0.939346	-0.287486	-0.000268
C61	C	0.947000	0.071351	-0.000257
C62	C	1.024101	0.072277	-0.000282
C63	C	0.814190	0.179971	-0.000240
C64	C	0.815124	0.243190	-0.000251
N65	N	0.819958	0.075828	0.177932
N66	N	0.820007	0.075837	-0.178379
C67	C	0.867461	0.037009	0.217313
C68	C	0.867465	0.037006	0.296115
C69	C	0.819973	0.075833	0.335532
C70	C	0.772460	0.114655	0.296142
C71	C	0.772453	0.114653	0.217341
C72	C	0.810514	0.127724	0.460364
C73	C	0.810526	0.127727	0.539163
C74	C	0.819991	0.075840	0.578579
C75	C	0.829459	0.023947	0.539186
C76	C	0.829452	0.023945	0.460385
C77	C	0.819975	0.075839	0.420978
C78	C	0.867501	0.037014	0.703406
C79	C	0.867501	0.037011	0.782209
C80	C	0.772499	0.114665	0.782234
C81	C	0.772496	0.114663	0.703433
C82	C	0.820001	0.075839	0.664023
H83	H	0.397741	0.004488	-0.079797
N84	N	0.230900	0.157579	0.090923
H85	H	0.196788	0.181679	0.057322
H86	H	0.204355	0.136262	0.128425
H87	H	0.938081	-0.217393	-0.000250
H88	H	0.493372	-0.016435	-0.000193
N89	N	0.039215	-0.035644	-0.000264
H90	H	0.009568	-0.038320	-0.046676
H91	H	0.078664	-0.068084	-0.000223
H92	H	0.906141	0.005394	0.185228
H93	H	0.701886	-0.630931	-0.000220
H94	H	0.624802	-0.014860	-0.000149
N95	N	0.450171	0.185500	-0.000223
H96	H	0.459028	0.208340	-0.046635
H97	H	0.400115	0.176958	-0.000205
N98	N	0.839682	-0.032018	0.581694
H99	H	0.886407	-0.053716	0.567962
H100	H	0.838216	-0.024091	0.637575
H101	H	0.733827	0.146276	0.814328
H102	H	0.733790	0.146268	0.328239
N103	N	0.956497	-0.103620	-0.000225
H104	H	0.996203	-0.135850	-0.000239
H105	H	0.959626	-0.079267	-0.046631
H106	H	0.802821	0.169981	0.571230
H107	H	0.906181	0.005396	0.814274
N108	N	0.721260	0.156533	0.660951
H109	H	0.691172	0.181129	0.697877
H110	H	0.747669	0.181655	0.628232
H111	H	0.998986	-0.389829	-0.000272
H112	H	0.837159	-0.018307	0.428315
H113	H	0.700314	-0.738684	-0.000210
N114	N	0.918711	-0.004863	0.338595
H115	H	0.949310	0.016843	0.371263
H116	H	0.892305	-0.030017	0.371271
N117	N	0.721221	0.156531	0.174863
H118	H	0.728426	0.150639	0.118963
H119	H	0.671995	0.150055	0.188662
N120	N	0.918733	-0.004860	0.660892
H121	H	0.948825	-0.029456	0.697801
H122	H	0.892316	-0.029981	0.628217
N123	N	0.624127	-0.464503	-0.000206
H124	H	0.584426	-0.432268	-0.000197
H125	H	0.621008	-0.488839	-0.046614
N126	N	0.003298	0.180126	-0.000240
H127	H	0.031765	0.213415	-0.000227
H128	H	-0.027137	0.182053	-0.046636
N129	N	0.800305	0.183693	0.417857
H130	H	0.838754	0.207353	0.431542
H131	H	0.801719	0.175769	0.361975
N132	N	0.600748	0.187310	-0.000205
H133	H	0.561335	0.219781	-0.000221
H134	H	0.630404	0.189937	0.046208
H135	H	0.177928	-0.020230	-0.000244
N136	N	0.381469	0.159385	0.090941
H137	H	0.343326	0.184164	0.118722
H138	H	0.414993	0.138785	0.128410
H139	H	0.931675	-0.656124	-0.000270
N140	N	0.625936	-0.341044	-0.000218
H141	H	0.585417	-0.364477	-0.000213
H142	H	0.623525	-0.316104	0.046194
H143	H	0.146582	0.168107	-0.000271
N144	N	0.693253	-0.074746	-0.000175
H145	H	0.665423	-0.082034	-0.046578
H146	H	0.665459	-0.082066	0.046267
N147	N	0.258498	-0.007714	-0.091411
H148	H	0.296645	-0.032497	-0.119182
H149	H	0.232486	-0.032493	-0.057769
N150	N	1.014034	-0.507264	-0.000286
H151	H	1.054548	-0.483826	-0.000291
H152	H	1.016426	-0.532216	0.046125
H153	H	0.930094	-0.763893	-0.000279
H154	H	0.708291	-0.192209	-0.000170
