data_functionalizedCrystal
_audit_creation_method	'MofGen! by Chris Wilmer'
_symmetry_space_group_name_H-M	'P1'
_symmetry_Int_Tables_number	1
_symmetry_cell_setting	triclinic
loop_
_symmetry_equiv_pos_as_xyz
  x,y,z
_cell_length_a	16.959455
_cell_length_b	17.640280
_cell_length_c	17.638773
_cell_angle_alpha	92.174452
_cell_angle_beta	101.225412
_cell_angle_gamma	78.797529
loop_
_atom_site_label
_atom_site_type_symbol
_atom_site_fract_x
_atom_site_fract_y
_atom_site_fract_z
Zn1	Zn	1.361589	-0.389223	0.368311
Zn2	Zn	1.351153	-0.490534	0.215676
Zn3	Zn	1.198556	-0.363562	0.241331
Zn4	Zn	1.249874	-0.516159	0.342639
O5	O	1.290293	-0.439870	0.291989
O6	O	1.470820	-0.402678	0.348070
O7	O	1.305066	-0.452228	0.112803
O8	O	1.203073	-0.260704	0.279656
O9	O	1.463153	-0.477111	0.235930
O10	O	1.322853	-0.279558	0.372947
O11	O	1.192953	-0.358941	0.131652
O12	O	1.094748	-0.383788	0.254763
O13	O	1.290538	-0.520784	0.452321
O14	O	1.132451	-0.495901	0.329194
O15	O	1.372614	-0.427525	0.471182
O16	O	1.354827	-0.600195	0.211037
O17	O	1.280418	-0.619021	0.304317
C18	C	1.084918	-0.439841	0.291977
C19	C	0.997066	-0.439851	0.291986
C20	C	0.605956	-0.381473	0.253343
C21	C	0.645254	-0.498337	0.330667
C22	C	0.727797	-0.498325	0.330664
C23	C	0.749423	-0.439887	0.292000
C24	C	0.688506	-0.381461	0.253337
C25	C	0.788719	-0.556755	0.369319
C26	C	0.871268	-0.556746	0.369318
C27	C	0.892895	-0.498304	0.330657
C28	C	0.831973	-0.439875	0.291994
C29	C	0.853599	-0.381437	0.253329
C30	C	0.792678	-0.323004	0.214670
C31	C	0.710134	-0.323019	0.214676
C32	C	0.975439	-0.498289	0.330651
C33	C	0.936149	-0.381425	0.253324
C34	C	1.322085	-0.637164	0.252124
C35	C	1.335764	-0.721572	0.235095
C36	C	1.186765	-1.048269	0.421634
C37	C	1.199615	-1.127579	0.405608
C38	C	1.277183	-1.107930	0.308575
C39	C	1.264344	-1.028618	0.324595
C40	C	1.219134	-0.998794	0.381125
C41	C	1.296712	-0.979142	0.284085
C42	C	1.283870	-0.899836	0.300102
C43	C	1.238659	-0.870006	0.356627
C44	C	1.206291	-0.919488	0.397141
C45	C	1.341917	-1.008966	0.227552
C46	C	1.374285	-0.959491	0.187043
C47	C	1.361448	-0.880184	0.203062
C48	C	1.316238	-0.850354	0.259588
C49	C	1.393816	-0.830702	0.162549
C50	C	1.380974	-0.751396	0.178565
C51	C	1.303396	-0.771048	0.275604
C52	C	1.496470	-0.439899	0.292002
C53	C	1.584330	-0.439911	0.292008
C54	C	1.338465	-0.479875	0.490078
C55	C	1.358993	-0.496923	0.574492
C56	C	1.258403	-0.241808	0.332027
C57	C	1.244813	-0.157407	0.349089
C58	C	1.242345	-0.399965	0.094682
C59	C	1.221936	-0.382703	0.010312
C60	C	1.446292	-0.569516	0.683657
C61	C	1.426996	-0.553491	0.604339
C62	C	1.310261	-0.456355	0.623958
C63	C	1.329550	-0.472369	0.703280
C64	C	1.397566	-0.528951	0.733123
C65	C	1.280823	-0.431803	0.752746
C66	C	1.300108	-0.447819	0.832060
C67	C	1.368120	-0.504400	0.861909
C68	C	1.416851	-0.544966	0.812438
C69	C	1.212804	-0.375225	0.722901
C70	C	1.164078	-0.334660	0.772366
C71	C	1.183366	-0.350671	0.851683
C72	C	1.251377	-0.407252	0.881532
C73	C	1.134635	-0.310105	0.901155
C74	C	1.153920	-0.326121	0.980470
C75	C	1.270662	-0.423268	0.960847
H76	H	0.920864	-0.604325	0.400797
O77	O	1.162426	-0.890388	0.452057
C78	C	1.108225	-0.776910	0.519700
C79	C	1.157931	-0.809766	0.457507
H80	H	1.104560	-0.711721	0.524115
H81	H	1.139468	-0.804795	0.577835
H82	H	1.043794	-0.789891	0.503153
H83	H	1.222368	-0.796795	0.473980
H84	H	1.126623	-0.781881	0.399388
O85	O	1.386908	-0.519838	0.938980
C86	C	1.423129	-0.470017	1.067519
C87	C	1.401882	-0.452433	0.980259
H88	H	1.435224	-0.415528	1.100919
H89	H	1.480139	-0.517388	1.080402
H90	H	1.369690	-0.490146	1.085839
H91	H	1.455269	-0.432272	0.961878
H92	H	1.344845	-0.405088	0.967424
O93	O	1.034514	-0.555081	0.368266
C94	C	1.064774	-0.671027	0.444917
C95	C	0.997790	-0.606744	0.402359
H96	H	1.035107	-0.712822	0.472479
H97	H	1.107479	-0.644299	0.491761
H98	H	1.101330	-0.703579	0.401964
H99	H	0.961175	-0.574168	0.445253
H100	H	0.955142	-0.633518	0.355504
O101	O	1.474437	-0.592952	0.556399
C102	C	1.592223	-0.691048	0.545299
C103	C	1.538585	-0.646400	0.599681
H104	H	1.644088	-0.734282	0.580269
H105	H	1.618984	-0.648744	0.515223
H106	H	1.553261	-0.723209	0.500129
H107	H	1.577491	-0.614237	0.644894
H108	H	1.511818	-0.688741	0.629700
O109	O	1.482934	-0.599975	0.841303
C110	C	1.596732	-0.694601	0.813489
C111	C	1.521911	-0.632341	0.780693
H112	H	1.628276	-0.720776	0.764504
H113	H	1.575904	-0.741846	0.842563
H114	H	1.641444	-0.667230	0.857696
H115	H	1.477168	-0.659643	0.736457
H116	H	1.542799	-0.585104	0.751668
H117	H	1.501683	-0.615585	0.707958
H118	H	1.352374	-1.073544	0.214515
H119	H	1.266588	-0.746766	0.321642
O120	O	0.767572	-0.613442	0.406864
C121	C	0.657812	-0.665273	0.441101
C122	C	0.681652	-0.601016	0.398564
H123	H	0.588345	-0.655257	0.434392
H124	H	0.686762	-0.664409	0.505052
H125	H	0.680688	-0.723760	0.415302
H126	H	0.658781	-0.542497	0.424298
H127	H	0.652713	-0.601948	0.334615
H128	H	0.660525	-0.275447	0.183201
H129	H	1.173265	-1.167863	0.438609
H130	H	1.407331	-0.711111	0.145577
O131	O	1.226145	-0.792940	0.372050
C132	C	1.169720	-0.664452	0.322220
C133	C	1.183854	-0.751704	0.304644
H134	H	1.135511	-0.631088	0.267739
H135	H	1.231252	-0.646016	0.342351
H136	H	1.131881	-0.651661	0.369608
H137	H	1.221664	-0.764559	0.257243
H138	H	1.122293	-0.770095	0.284557
H139	H	1.079252	-0.264042	0.876843
H140	H	1.149958	-1.023988	0.467672
O141	O	1.336651	-0.478287	0.989916
C142	C	1.385551	-0.598918	1.058701
C143	C	1.310758	-0.536660	1.025835
H144	H	1.364642	-0.646136	1.087735
H145	H	1.430306	-0.571614	1.102930
H146	H	1.417076	-0.625121	1.009714
H147	H	1.279167	-0.510434	1.074769
H148	H	1.266060	-0.564005	0.981586
H149	H	1.313991	-1.132223	0.262546
O150	O	1.244244	-0.401393	0.594843
C151	C	1.162768	-0.333695	0.481346
C152	C	1.237564	-0.395949	0.514215
H153	H	1.157332	-0.329286	0.416152
H154	H	1.170574	-0.275589	0.509262
H155	H	1.104984	-0.350163	0.494289
H156	H	1.295383	-0.379554	0.501281
H157	H	1.229686	-0.454039	0.486298
H158	H	0.810296	-0.275427	0.183185
H159	H	0.556351	-0.333897	0.221870
O160	O	0.957105	-0.324716	0.215637
C161	C	0.944912	-0.261544	0.094007
C162	C	0.921132	-0.325805	0.136588
H163	H	0.915824	-0.262392	0.030091
H164	H	1.014367	-0.271562	0.100573
H165	H	0.922102	-0.203062	0.119852
H166	H	0.943886	-0.384314	0.110771
H167	H	0.851675	-0.315720	0.130026
O168	O	1.418200	-0.988595	0.132170
C169	C	1.472294	-1.102049	0.064432
C170	C	1.422567	-1.069197	0.126612
H171	H	1.475827	-1.167217	0.059907
H172	H	1.536773	-1.089178	0.080962
H173	H	1.441042	-1.074054	0.006351
H174	H	1.453748	-1.097172	0.184716
H175	H	1.358089	-1.082058	0.110017
H176	H	1.197099	-0.362194	0.658316
H177	H	1.108697	-0.288593	0.748056
O178	O	0.624108	-0.555025	0.368212
C179	C	0.514352	-0.606864	0.402444
C180	C	0.538188	-0.542606	0.359906
H181	H	0.444884	-0.596855	0.395730
H182	H	0.543296	-0.605994	0.466396
H183	H	0.537236	-0.665351	0.376650
H184	H	0.515309	-0.484087	0.385635
H185	H	0.509255	-0.543544	0.295956
O186	O	1.437730	-0.859808	0.107677
C187	C	1.491821	-0.973264	0.039940
C188	C	1.442095	-0.940409	0.102120
H189	H	1.495351	-1.038432	0.035416
H190	H	1.556301	-0.960396	0.056469
H191	H	1.460570	-0.945269	-0.018142
H192	H	1.473275	-0.968384	0.160224
H193	H	1.377616	-0.953268	0.085524
H194	H	1.114244	-0.293086	1.020747
