data_functionalizedCrystal
_audit_creation_method	'MofGen! by Chris Wilmer'
_symmetry_space_group_name_H-M	'P1'
_symmetry_Int_Tables_number	1
_symmetry_cell_setting	triclinic
loop_
_symmetry_equiv_pos_as_xyz
  x,y,z
_cell_length_a	17.699083
_cell_length_b	10.654550
_cell_length_c	16.176319
_cell_angle_alpha	89.994395
_cell_angle_beta	89.998611
_cell_angle_gamma	83.883959
loop_
_atom_site_label
_atom_site_type_symbol
_atom_site_fract_x
_atom_site_fract_y
_atom_site_fract_z
O1	O	1.005088	0.158809	-0.068628
O2	O	0.784841	0.179470	-0.068655
O3	O	0.900029	-0.013688	-0.068638
O4	O	0.889901	0.351967	-0.068646
O5	O	0.900013	-0.013701	0.068855
O6	O	0.784825	0.179458	0.068838
O7	O	1.005072	0.158797	0.068865
Cu8	Cu	0.894947	0.169126	0.081406
Cu9	Cu	0.894966	0.169141	-0.081196
O10	O	0.889885	0.351955	0.068848
C11	C	0.756632	0.178724	0.000088
C12	C	0.672599	0.176503	0.000078
C13	C	0.624699	0.289883	0.000076
C14	C	0.545743	0.287788	0.000086
C15	C	0.514688	0.172313	0.000093
C16	C	0.562594	0.058924	0.000098
C17	C	0.641549	0.061020	0.000093
C18	C	0.244177	0.050470	0.000118
C19	C	0.165216	0.048383	0.000121
C20	C	0.148371	0.277239	0.000112
C21	C	0.227326	0.279334	0.000107
C22	C	0.275225	0.165946	0.000116
C23	C	0.360839	0.168219	0.000106
C24	C	0.429076	0.170039	0.000097
C25	C	0.899277	-0.060479	0.000107
C26	C	0.897052	-0.199884	0.000104
C27	C	0.964873	-0.280557	0.000115
C28	C	0.962778	-0.411541	0.000109
C29	C	0.825036	-0.381166	0.000085
C30	C	0.827132	-0.250185	0.000085
C31	C	1.034794	-0.230256	0.000134
C32	C	1.102620	-0.310930	0.000146
C33	C	1.100525	-0.441914	0.000140
C34	C	1.030603	-0.492224	0.000122
C35	C	1.033282	0.159543	0.000120
C36	C	1.117314	0.161764	0.000125
C37	C	0.890637	0.398746	0.000100
C38	C	0.892861	0.538151	0.000098
N39	N	0.894940	0.169115	0.195771
N40	N	0.894980	0.169142	-0.195561
C41	C	0.945960	0.083619	0.239042
C42	C	0.945964	0.083618	0.325590
C43	C	0.894950	0.169120	0.368863
C44	C	0.843924	0.254619	0.325586
C45	C	0.843917	0.254614	0.239040
C46	C	0.843950	0.254643	0.674614
C47	C	0.843962	0.254644	0.761165
C48	C	0.945997	0.083647	0.761163
C49	C	0.945990	0.083642	0.674618
C50	C	0.894962	0.169136	0.631348
C51	C	0.894957	0.169135	0.537503
C52	C	0.894958	0.169128	0.462706
H53	H	0.109361	0.369564	0.000109
H54	H	0.987505	0.014000	0.203815
H55	H	0.139935	-0.045657	0.000127
O56	O	0.290591	-0.059787	0.000087
C57	C	0.246247	-0.162152	0.000112
H58	H	0.187497	-0.130091	-0.025920
H59	H	0.274950	-0.241581	-0.039801
H60	H	0.240437	-0.197560	0.066077
H61	H	1.028903	-0.598881	0.000108
O62	O	0.532305	-0.053141	0.000069
C63	C	0.452345	-0.030681	0.000091
H64	H	0.434320	0.067377	-0.025942
H65	H	0.427719	-0.104556	-0.039823
H66	H	0.430339	-0.036704	0.066055
H67	H	0.802402	0.324258	0.639390
H68	H	0.649978	0.383916	0.000069
H69	H	0.768109	-0.422140	0.000072
O70	O	1.036730	-0.102997	0.000035
C71	C	0.999683	-0.050887	-0.071188
H72	H	0.958270	-0.117498	-0.094949
H73	H	0.967220	0.044197	-0.055170
H74	H	1.043600	-0.037220	-0.121038
O75	O	1.166355	-0.520410	0.000255
C76	C	1.169262	-0.597078	0.071472
H77	H	1.109149	-0.603520	0.095202
H78	H	1.196939	-0.695608	0.055458
H79	H	1.204048	-0.554103	0.121343
H80	H	0.802384	0.324232	0.360824
H81	H	1.159547	-0.269958	0.000140
O82	O	0.688190	-0.049002	0.000128
C83	C	0.764537	-0.022392	0.000104
H84	H	0.768080	0.076236	0.026130
H85	H	0.799926	-0.094678	0.040023
H86	H	0.787341	-0.027218	-0.065860
O87	O	0.257617	0.391397	0.000054
C88	C	0.337576	0.368933	0.000065
H89	H	0.355597	0.270872	-0.025955
H90	H	0.362200	0.442804	-0.039867
H91	H	0.359589	0.374960	0.066023
H92	H	0.987533	0.014023	0.639387
H93	H	0.771906	-0.184498	0.000077
O94	O	0.995527	0.000410	0.803108
C95	C	0.982561	-0.123879	0.781984
H96	H	0.953387	-0.123662	0.719149
H97	H	1.039125	-0.185845	0.779023
H98	H	0.944688	-0.162636	0.830698
H99	H	0.802370	0.324231	0.203809
O100	O	0.995502	0.000404	0.367528
C101	C	0.982551	-0.123893	0.346406
H102	H	0.953368	-0.123685	0.283576
H103	H	1.039122	-0.185839	0.343436
H104	H	0.944691	-0.162666	0.395127
O105	O	0.499321	0.398042	0.000047
C106	C	0.543662	0.500412	0.000055
H107	H	0.602411	0.468357	-0.025980
H108	H	0.514954	0.579840	-0.039864
H109	H	0.549474	0.535817	0.066015
O110	O	0.794327	0.337745	0.803075
C111	C	0.749296	0.413223	0.746326
H112	H	0.748168	0.361737	0.684637
H113	H	0.688960	0.432493	0.771343
H114	H	0.774347	0.506470	0.737110
