data_functionalizedCrystal
_audit_creation_method	'MofGen! by Chris Wilmer'
_symmetry_space_group_name_H-M	'P1'
_symmetry_Int_Tables_number	1
_symmetry_cell_setting	triclinic
loop_
_symmetry_equiv_pos_as_xyz
  x,y,z
_cell_length_a	21.295418
_cell_length_b	12.759399
_cell_length_c	12.759393
_cell_angle_alpha	90.031199
_cell_angle_beta	90.040879
_cell_angle_gamma	90.031221
loop_
_atom_site_label
_atom_site_type_symbol
_atom_site_fract_x
_atom_site_fract_y
_atom_site_fract_z
Zn1	Zn	0.962404	-0.417761	0.594612
Zn2	Zn	0.962339	-0.593480	0.418933
Zn3	Zn	0.857133	-0.417864	0.418882
Zn4	Zn	0.857124	-0.593447	0.594506
O5	O	0.909750	-0.505638	0.506733
O6	O	1.050485	-0.441041	0.571373
O7	O	0.948360	-0.570241	0.271905
O8	O	0.871127	-0.270829	0.442217
O9	O	1.050437	-0.570141	0.442303
O10	O	0.948470	-0.270753	0.571324
O11	O	0.871065	-0.441216	0.271868
O12	O	0.769042	-0.441185	0.442114
O13	O	0.871114	-0.570085	0.741541
O14	O	0.769036	-0.570185	0.571144
O15	O	0.948462	-0.441009	0.741619
O16	O	0.948352	-0.740496	0.442200
O17	O	0.871051	-0.740472	0.571192
C18	C	0.746198	-0.505693	0.506612
C19	C	0.676230	-0.505742	0.506585
C20	C	0.909711	-0.778605	0.506713
C21	C	0.909751	-0.895382	0.506740
C22	C	0.950091	-1.059946	0.439679
C23	C	0.950050	-0.950222	0.439649
C24	C	0.869487	-0.950271	0.573858
C25	C	0.869525	-1.059993	0.573883
C26	C	0.990397	-1.114781	0.372592
C27	C	1.030661	-1.059899	0.305472
C28	C	1.030620	-0.950175	0.305441
C29	C	0.990315	-0.895333	0.372530
C30	C	0.643377	-0.573001	0.573671
C31	C	0.577635	-0.572975	0.573718
C32	C	0.544748	-0.505701	0.506661
C33	C	0.577609	-0.438429	0.439571
C34	C	0.643350	-0.438449	0.439533
N35	N	0.441473	-0.497506	0.414769
N36	N	0.379022	-0.497493	0.414808
C37	C	0.346673	-0.505634	0.506773
N38	N	0.379135	-0.513810	0.598699
N39	N	0.441592	-0.513828	0.598659
C40	C	0.473463	-0.505671	0.506695
C41	C	0.242534	-0.572869	0.573915
C42	C	0.176791	-0.572836	0.573964
C43	C	0.176766	-0.438295	0.439807
C44	C	0.242509	-0.438322	0.439768
C45	C	0.275389	-0.505615	0.506820
C46	C	1.073940	-0.505583	0.506855
C47	C	1.143909	-0.505560	0.506907
C48	C	0.909794	-0.505532	0.780767
C49	C	0.909813	-0.505486	0.897543
C50	C	0.909807	-0.231604	0.506777
C51	C	0.909831	-0.114828	0.506795
C52	C	0.909742	-0.505667	0.233766
C53	C	0.909846	-0.505417	0.116990
C54	C	0.950094	-0.438270	0.952448
C55	C	0.950109	-0.438232	1.062172
C56	C	0.869560	-0.572636	1.062078
C57	C	0.869543	-0.572668	0.952356
C58	C	0.990364	-0.371089	0.897636
C59	C	1.030649	-0.303868	0.952540
C60	C	1.030664	-0.303830	1.062264
C61	C	0.990394	-0.371013	1.117084
H62	H	1.063473	-1.104559	0.250845
C63	C	1.066392	-0.244245	0.784384
C64	C	1.074909	-0.230018	0.892286
H65	H	1.093719	-0.198654	0.747190
H66	H	1.024102	-0.228888	0.766379
H67	H	1.075589	-0.314841	0.766405
H68	H	1.065707	-0.159424	0.910267
H69	H	1.117208	-0.245368	0.910299
C70	C	1.110260	-0.961153	0.172790
C71	C	1.074876	-0.889848	0.231664
H72	H	1.137587	-0.923909	0.127250
H73	H	1.082864	-1.004031	0.132555
H74	H	1.134336	-1.003868	0.218642
H75	H	1.050797	-0.847137	0.185812
H76	H	1.102276	-0.846952	0.271903
H77	H	0.836748	-1.104679	0.628544
C78	C	1.034116	-0.738127	0.299414
C79	C	0.990268	-0.774722	0.372495
H80	H	1.034090	-0.663669	0.299400
H81	H	1.023259	-0.763022	0.231610
H82	H	1.074739	-0.762861	0.317682
H83	H	0.949644	-0.749994	0.354222
H84	H	1.001122	-0.749816	0.440314
C85	C	0.833663	-0.782094	0.633418
C86	C	0.825191	-0.889990	0.647609
H87	H	0.806320	-0.744882	0.678957
H88	H	0.824464	-0.764188	0.562814
H89	H	0.875950	-0.764035	0.648878
H90	H	0.782906	-0.908050	0.632142
H91	H	0.834386	-0.907902	0.718230
C92	C	0.156553	-0.260334	0.388933
C93	C	0.140614	-0.364356	0.366098
H94	H	0.134225	-0.214690	0.343432
H95	H	0.200400	-0.250715	0.379292
H96	H	0.145831	-0.245047	0.459559
H97	H	0.151340	-0.379646	0.295474
H98	H	0.096756	-0.373980	0.375730
C99	C	1.110284	-0.170989	1.051331
C100	C	1.074943	-0.229943	1.122617
H101	H	1.137624	-0.125381	1.088591
H102	H	1.082861	-0.130822	1.008526
H103	H	1.134342	-0.216786	1.008541
H104	H	1.050880	-0.184146	1.165401
H105	H	1.102369	-0.270113	1.165440
H106	H	0.670144	-0.627795	0.628272
C107	C	1.034273	-0.297790	1.274314
C108	C	0.990413	-0.370976	1.237695
H109	H	1.034289	-0.297778	1.348773
H110	H	1.023395	-0.230012	1.249509
H111	H	1.074885	-0.315960	1.249508
H112	H	0.949801	-0.352802	1.262495
H113	H	1.001288	-0.438770	1.262512
H114	H	0.670099	-0.383675	0.384904
C115	C	0.235958	-0.705840	0.706539
C116	C	0.278681	-0.646820	0.647631
H117	H	0.258273	-0.751487	0.752053
H118	H	0.210271	-0.745969	0.660715
H119	H	0.210361	-0.660088	0.746813
H120	H	0.304275	-0.692572	0.607350
H121	H	0.304379	-0.606688	0.693461
C122	C	0.584255	-0.705972	0.706315
C123	C	0.541512	-0.646908	0.647467
H124	H	0.561955	-0.751616	0.751841
H125	H	0.609942	-0.660255	0.746565
H126	H	0.609850	-0.746115	0.660447
H127	H	0.515920	-0.606759	0.693335
H128	H	0.515814	-0.692631	0.607214
H129	H	0.269258	-0.383558	0.385134
H130	H	0.150043	-0.627604	0.628599
C131	C	0.476820	-0.378682	0.380042
C132	C	0.541462	-0.364489	0.365851
H133	H	0.454507	-0.333036	0.334523
H134	H	0.466098	-0.363377	0.450654
H135	H	0.466016	-0.449257	0.364555
H136	H	0.552267	-0.293915	0.381346
H137	H	0.552189	-0.379786	0.295223
H138	H	0.990358	-0.371115	0.808293
H139	H	0.836774	-0.627332	1.106721
H140	H	0.836733	-0.627385	0.907652
H141	H	0.990437	-1.204124	0.372612
