data_functionalizedCrystal
_audit_creation_method	'MofGen! by Chris Wilmer'
_symmetry_space_group_name_H-M	'P1'
_symmetry_Int_Tables_number	1
_symmetry_cell_setting	triclinic
loop_
_symmetry_equiv_pos_as_xyz
  x,y,z
_cell_length_a	27.731996
_cell_length_b	16.098538
_cell_length_c	17.038272
_cell_angle_alpha	87.069734
_cell_angle_beta	86.866472
_cell_angle_gamma	92.693548
loop_
_atom_site_label
_atom_site_type_symbol
_atom_site_fract_x
_atom_site_fract_y
_atom_site_fract_z
O1	O	0.102901	-0.069170	1.039633
O2	O	0.602901	0.430830	1.539633
O3	O	0.101234	-0.069195	0.812024
O4	O	0.601234	0.430805	1.312024
O5	O	0.031994	-0.069164	0.932918
O6	O	0.531994	0.430836	1.432918
O7	O	0.172141	-0.069201	0.918739
O8	O	0.672141	0.430799	1.418739
O9	O	0.036021	0.069347	0.925856
O10	O	0.536021	0.569347	1.425856
O11	O	0.105262	0.069316	0.804962
O12	O	0.605262	0.569316	1.304962
O13	O	0.106928	0.069341	1.032572
O14	O	0.606928	0.569341	1.532572
Zn15	Zn	0.106734	0.091320	0.917646
Zn16	Zn	0.606734	0.591320	1.417646
Zn17	Zn	0.101428	-0.091174	0.926950
Zn18	Zn	0.601428	0.408826	1.426950
O19	O	0.176169	0.069310	0.911677
O20	O	0.676169	0.569310	1.411677
C21	C	0.101733	0.000058	0.779383
C22	C	0.601733	0.500058	1.279383
C23	C	0.097212	0.000050	0.692645
C24	C	0.597212	0.500050	1.192645
C25	C	0.015987	0.000095	0.929096
C26	C	0.515987	0.500095	1.429096
C27	C	-0.037709	0.000103	0.928218
C28	C	0.462291	0.500103	1.428218
N29	N	0.110356	0.215868	0.911301
N30	N	0.610356	0.715868	1.411301
C31	C	-0.372875	-0.075441	0.926549
C32	C	0.127125	0.424559	1.426549
C33	C	-0.574686	-0.075456	0.923218
C34	C	-0.074686	0.424544	1.423218
O35	O	-0.602645	-0.139668	0.926027
O36	O	-0.102645	0.360332	1.426027
N37	N	-0.597726	0.000046	0.918955
N38	N	-0.097726	0.500046	1.418955
C39	C	-0.570311	0.075557	0.915519
C40	C	-0.070311	0.575557	1.415519
O41	O	-0.594539	0.139775	0.911808
O42	O	-0.094539	0.639775	1.411808
C43	C	-0.368500	0.075571	0.918844
C44	C	0.131500	0.575571	1.418844
C45	C	-0.345463	0.000064	0.923116
C46	C	0.154537	0.500064	1.423116
C47	C	-0.349837	-0.150941	0.930819
C48	C	0.150163	0.349059	1.430819
C49	C	-0.299387	-0.150937	0.931656
C50	C	0.200613	0.349063	1.431656
C51	C	-0.271976	-0.075432	0.928223
C52	C	0.228024	0.424568	1.428223
C53	C	-0.295013	0.000069	0.923953
C54	C	0.204987	0.500069	1.423953
C55	C	-0.341086	0.151081	0.915403
C56	C	0.158914	0.651081	1.415403
C57	C	-0.290630	0.151078	0.916233
C58	C	0.209370	0.651078	1.416233
C59	C	-0.267592	0.075571	0.920504
C60	C	0.232408	0.575571	1.420504
C61	C	-0.217152	0.075578	0.921357
C62	C	0.282848	0.575578	1.421357
N63	N	-0.194111	0.000077	0.925620
N64	N	0.305889	0.500077	1.425620
C65	C	-0.221523	-0.075428	0.929053
C66	C	0.278477	0.424572	1.429053
C67	C	-0.676264	0.075544	0.913775
C68	C	-0.176264	0.575544	1.413775
C69	C	-0.726717	0.075541	0.912945
C70	C	-0.226717	0.575541	1.412945
C71	C	-0.731088	-0.075472	0.920642
C72	C	-0.231088	0.424528	1.420642
C73	C	-0.680635	-0.075468	0.921478
C74	C	-0.180635	0.424532	1.421478
C75	C	-0.653224	0.000042	0.918038
C76	C	-0.153224	0.500042	1.418038
C77	C	-0.115575	-0.075413	0.930811
C78	C	0.384425	0.424587	1.430811
C79	C	-0.065121	-0.075402	0.931651
C80	C	0.434879	0.424598	1.431651
C81	C	-0.060754	0.075610	0.923949
C82	C	0.439246	0.575610	1.423949
C83	C	-0.111204	0.075600	0.923113
C84	C	0.388796	0.575600	1.423113
C85	C	-0.138613	0.000081	0.926542
C86	C	0.361387	0.500081	1.426542
O87	O	-0.189162	0.139757	0.918541
O88	O	0.310838	0.639757	1.418541
O89	O	-0.197286	-0.139637	0.932746
O90	O	0.302714	0.360363	1.432746
C91	C	-0.423324	-0.075445	0.925712
C92	C	0.076676	0.424555	1.425712
C93	C	-0.446362	0.000055	0.921442
C94	C	0.053638	0.500055	1.421442
C95	C	-0.418950	0.075560	0.918009
C96	C	0.081050	0.575560	1.418009
C97	C	-0.496815	0.000052	0.920612
C98	C	0.003185	0.500052	1.420612
C99	C	-0.524226	-0.075453	0.924045
C100	C	-0.024226	0.424547	1.424045
C101	C	-0.501186	-0.150955	0.928308
C102	C	-0.001186	0.349045	1.428308
C103	C	-0.450736	-0.150950	0.929145
C104	C	0.049264	0.349050	1.429145
C105	C	-0.441991	0.151062	0.913745
C106	C	0.058009	0.651062	1.413745
C107	C	-0.492441	0.151051	0.912910
C108	C	0.007559	0.651051	1.412910
C109	C	-0.519853	0.075546	0.916343
C110	C	-0.019853	0.575546	1.416343
C111	C	0.192175	0.000050	0.915500
C112	C	0.692175	0.500050	1.415500
C113	C	0.245871	0.000036	0.916378
C114	C	0.745871	0.500036	1.416378
N115	N	0.097803	-0.215722	0.933300
N116	N	0.597803	0.284278	1.433300
C117	C	0.080980	0.259466	0.962632
C118	C	0.580980	0.759466	1.462632
C119	C	0.083518	0.346654	0.958201
C120	C	0.583518	0.846654	1.458201
C121	C	0.115436	0.390242	0.902443
C122	C	0.615436	0.890242	1.402443
C123	C	0.144813	0.346638	0.851107
C124	C	0.644813	0.846638	1.351107
C125	C	0.142272	0.259451	0.855534
C126	C	0.642272	0.759451	1.355534
C127	C	0.124639	0.653488	0.886392
C128	C	0.624639	1.153488	1.386392
C129	C	0.127179	0.740680	0.881970
C130	C	0.627179	1.240680	1.381970
C131	C	0.065883	0.740690	0.989064
C132	C	0.565883	1.240690	1.489064
C133	C	0.063347	0.653502	0.993490
C134	C	0.563347	1.153502	1.493490
C135	C	0.092722	0.609906	0.942151
C136	C	0.592722	1.109906	1.442151
C137	C	0.118032	0.479362	0.897914
C138	C	0.618032	0.979362	1.397914
C139	C	0.090123	0.520787	0.946676
C140	C	0.590123	1.020787	1.446676
C141	C	0.138715	0.000039	0.642035
C142	C	0.638715	0.500039	1.142035
C143	C	0.134465	0.000052	0.560534
C144	C	0.634465	0.500052	1.060534
C145	C	0.088711	0.000069	0.529646
C146	C	0.588711	0.500069	1.029646
C147	C	0.047205	0.000082	0.580262
C148	C	0.547205	0.500082	1.080262
C149	C	0.051456	0.000075	0.661761
C150	C	0.551456	0.500075	1.161761
C151	C	0.073695	0.000095	0.284066
C152	C	0.573695	0.500095	0.784066
C153	C	0.069447	0.000099	0.202561
C154	C	0.569447	0.500099	0.702561
C155	C	0.156707	0.000071	0.182839
C156	C	0.656707	0.500071	0.682839
C157	C	0.160954	0.000059	0.264340
C158	C	0.660954	0.500059	0.764340
C159	C	0.119448	0.000077	0.314949
C160	C	0.619448	0.500077	0.814949
C161	C	0.084366	0.000079	0.446340
C162	C	0.584366	0.500079	0.946340
C163	C	0.123794	0.000072	0.398253
C164	C	0.623794	0.500072	0.898253
C165	C	0.106430	0.000086	1.065213
C166	C	0.606430	0.500086	1.565213
C167	C	0.110950	0.000089	1.151951
C168	C	0.610950	0.500089	1.651951
H169	H	-0.046367	-0.136891	0.935131
H170	H	0.453633	0.363109	1.435131
Cl171	Cl	-0.256173	0.246011	0.911909
Cl172	Cl	0.243827	0.746011	1.411909
H173	H	0.064134	0.485295	0.992072
H174	H	0.564134	0.985295	1.492072
Cl175	Cl	0.208883	0.000052	0.119212
Cl176	Cl	0.708883	0.500052	0.619212
H177	H	-0.661882	-0.136952	0.924955
H178	H	-0.161882	0.363048	1.424955
H179	H	0.032187	0.000113	0.177416
H180	H	0.532187	0.500113	0.677416
Cl181	Cl	-0.421782	-0.245878	0.934514
Cl182	Cl	0.078218	0.254122	1.434514
H183	H	-0.753416	-0.136951	0.923439
H184	H	-0.253416	0.363049	1.423439
H185	H	0.054991	0.223982	1.008040
H186	H	0.554991	0.723982	1.508040
Cl187	Cl	-0.370034	0.246010	0.910028
Cl188	Cl	0.129966	0.746010	1.410028
H189	H	-0.038426	0.137084	0.921158
H190	H	0.461574	0.637084	1.421158
H191	H	0.153172	0.776166	0.836562
H192	H	0.653172	1.276166	1.336562
Cl193	Cl	-0.641811	0.170481	0.909446
Cl194	Cl	-0.141811	0.670481	1.409446
Cl195	Cl	-0.535656	-0.245874	0.932628
Cl196	Cl	-0.035656	0.254126	1.432628
Cl197	Cl	0.161570	0.598686	0.821856
Cl198	Cl	0.661570	1.098686	1.321856
H199	H	0.161046	0.000063	0.423406
H200	H	0.661046	0.500063	0.923406
H201	H	0.198211	0.000036	0.289483
H202	H	0.698211	0.500036	0.789483
H203	H	0.175972	0.000025	0.667177
H204	H	0.675972	0.500025	1.167177
Cl205	Cl	-0.384289	-0.245875	0.935137
Cl206	Cl	0.115711	0.254125	1.435137
Cl207	Cl	-0.755673	0.170467	0.907590
Cl208	Cl	-0.255673	0.670467	1.407590
Cl209	Cl	0.026849	0.000097	0.407502
Cl210	Cl	0.526849	0.500097	0.907502
Cl211	Cl	0.158158	0.534162	0.827820
Cl212	Cl	0.658158	1.034162	1.327820
Cl213	Cl	0.186643	0.000034	0.496913
Cl214	Cl	0.686643	0.500034	0.996913
Cl215	Cl	-0.000722	0.000092	0.725385
Cl216	Cl	0.499278	0.500092	1.225385
Cl217	Cl	0.021515	0.000116	0.347678
Cl218	Cl	0.521515	0.500116	0.847678
H219	H	-0.137886	-0.136908	0.933599
H220	H	0.362114	0.363092	1.433599
H221	H	-0.280635	-0.212422	0.935131
H222	H	0.219365	0.287578	1.435131
Cl223	Cl	-0.010314	0.000109	0.541431
Cl224	Cl	0.489686	0.500109	1.041431
Cl225	Cl	0.179203	0.204643	0.790998
Cl226	Cl	0.679203	0.704643	1.290998
Cl227	Cl	-0.140167	0.170523	0.917759
Cl228	Cl	0.359833	0.670523	1.417759
H229	H	-0.511193	0.212542	0.909437
H230	H	-0.011193	0.712542	1.409437
H231	H	-0.419677	0.212548	0.910951
H232	H	0.080323	0.712548	1.410951
H233	H	0.059597	0.382151	0.999998
H234	H	0.559597	0.882151	1.499998
Cl235	Cl	0.028954	0.795501	1.053598
Cl236	Cl	0.528954	1.295501	1.553598
Cl237	Cl	0.023222	0.598706	1.063588
Cl238	Cl	0.523222	1.098706	1.563588
H239	H	0.170799	0.382132	0.805703
H240	H	0.670799	0.882132	1.305703
