data_functionalizedCrystal
_audit_creation_method	'MofGen! by Chris Wilmer'
_symmetry_space_group_name_H-M	'P1'
_symmetry_Int_Tables_number	1
_symmetry_cell_setting	triclinic
loop_
_symmetry_equiv_pos_as_xyz
  x,y,z
_cell_length_a	18.215407
_cell_length_b	25.639240
_cell_length_c	18.215399
_cell_angle_alpha	90.032103
_cell_angle_beta	89.980167
_cell_angle_gamma	89.956389
loop_
_atom_site_label
_atom_site_type_symbol
_atom_site_fract_x
_atom_site_fract_y
_atom_site_fract_z
Zn1	Zn	1.124978	0.208150	-0.416095
Zn2	Zn	1.124848	0.295586	-0.293019
Zn3	Zn	1.001911	0.208167	-0.293042
Zn4	Zn	1.001838	0.295557	-0.416044
O5	O	1.063394	0.251865	-0.354550
O6	O	1.227945	0.219754	-0.399780
O7	O	1.108516	0.284009	-0.190038
O8	O	1.018322	0.135000	-0.309396
O9	O	1.227849	0.283992	-0.309357
O10	O	1.108739	0.134987	-0.399802
O11	O	1.018195	0.219783	-0.190055
O12	O	0.898917	0.219754	-0.309347
O13	O	1.018197	0.283943	-0.519035
O14	O	0.898863	0.283959	-0.399716
O15	O	1.108668	0.219725	-0.519072
O16	O	1.108445	0.368747	-0.309308
O17	O	1.018070	0.368726	-0.399694
C18	C	0.872187	0.251856	-0.354529
C19	C	0.790389	0.251865	-0.354537
C20	C	0.602186	0.285349	-0.401534
C21	C	0.525327	0.285350	-0.401543
C22	C	0.525354	0.218391	-0.307583
C23	C	0.602211	0.218387	-0.307578
C24	C	0.640625	0.251869	-0.354552
C25	C	0.486909	0.251874	-0.354566
C26	C	0.403575	0.251876	-0.354576
C27	C	0.723964	0.251867	-0.354544
C28	C	1.063255	0.387708	-0.354509
C29	C	1.063263	0.445822	-0.354517
C30	C	1.110514	0.806183	-0.307538
C31	C	1.110536	0.860787	-0.307545
O32	O	1.150613	0.889023	-0.267580
N33	N	1.063453	0.888104	-0.354566
C34	C	1.016350	0.860813	-0.401589
O35	O	0.976304	0.889062	-0.441585
C36	C	1.016331	0.806210	-0.401585
C37	C	1.063412	0.778896	-0.354555
C38	C	1.157591	0.778869	-0.260513
C39	C	1.157568	0.724269	-0.260505
C40	C	1.110466	0.696982	-0.307522
C41	C	1.063389	0.724296	-0.354548
C42	C	0.969232	0.778920	-0.448611
C43	C	0.969218	0.724313	-0.448603
C44	C	1.016299	0.697000	-0.401574
C45	C	1.016264	0.642409	-0.401557
N46	N	1.063347	0.615092	-0.354536
C47	C	1.110448	0.642379	-0.307519
C48	C	1.016392	0.975484	-0.401595
C49	C	1.016406	1.030086	-0.401595
C50	C	1.110594	1.030057	-0.307552
C51	C	1.110576	0.975453	-0.307548
C52	C	1.063476	0.948167	-0.354573
C53	C	1.110394	0.527714	-0.307505
C54	C	1.110364	0.473108	-0.307499
C55	C	1.016180	0.473143	-0.401545
C56	C	1.016207	0.527743	-0.401548
C57	C	1.063320	0.555028	-0.354526
O58	O	0.976210	0.614138	-0.441505
O59	O	1.150494	0.614123	-0.267536
C60	C	1.255347	0.251874	-0.354572
C61	C	1.337145	0.251878	-0.354581
C62	C	1.063439	0.251829	-0.546503
C63	C	1.063458	0.251814	-0.628302
C64	C	1.063525	1.115492	-0.354594
C65	C	1.063511	1.057378	-0.354580
C66	C	1.110583	0.218344	-0.816516
C67	C	1.110592	0.218329	-0.893375
C68	C	1.016385	0.285202	-0.893325
C69	C	1.016373	0.285214	-0.816468
C70	C	1.063476	0.251786	-0.778066
C71	C	1.063497	0.251759	-0.931782
C72	C	1.063506	0.251742	-1.015115
C73	C	1.063466	0.251802	-0.694727
C74	C	1.063391	0.251863	-0.163344
C75	C	1.063515	0.251731	-0.081545
H76	H	1.148703	0.450871	-0.269200
H77	H	0.978007	0.312446	-0.785161
H78	H	0.494033	0.312613	-0.439801
Cl79	Cl	0.650475	0.327438	-0.460590
H80	H	0.633509	0.191120	-0.269320
Cl81	Cl	0.477056	0.176302	-0.248531
Cl82	Cl	1.169622	0.562005	-0.248389
H83	H	1.148914	0.953218	-0.269253
Cl84	Cl	1.216770	0.689940	-0.201390
Cl85	Cl	0.957176	0.327226	-0.941608
H86	H	1.195951	0.801081	-0.222226
H87	H	1.148949	1.052283	-0.269271
H88	H	0.978061	1.052321	-0.439885
H89	H	1.148950	0.191096	-0.924679
H90	H	0.978032	0.953271	-0.439886
Cl91	Cl	0.910049	0.813244	-0.507746
H92	H	0.930864	0.702100	-0.486899
H93	H	0.977872	0.549983	-0.439846
Cl94	Cl	0.956974	0.438829	-0.460653
H95	H	1.148935	0.191123	-0.785251
