data_functionalizedCrystal
_audit_creation_method	'MofGen! by Chris Wilmer'
_symmetry_space_group_name_H-M	'P1'
_symmetry_Int_Tables_number	1
_symmetry_cell_setting	triclinic
loop_
_symmetry_equiv_pos_as_xyz
  x,y,z
_cell_length_a	12.645330
_cell_length_b	12.827893
_cell_length_c	12.827885
_cell_angle_alpha	90.019272
_cell_angle_beta	90.028978
_cell_angle_gamma	90.017853
loop_
_atom_site_label
_atom_site_type_symbol
_atom_site_fract_x
_atom_site_fract_y
_atom_site_fract_z
Zn1	Zn	-0.421983	1.597653	0.590855
Zn2	Zn	0.078017	2.097653	1.090855
Zn3	Zn	-0.599284	1.597540	0.416117
Zn4	Zn	-0.099284	2.097540	0.916117
Zn5	Zn	-0.422036	1.422894	0.416128
Zn6	Zn	0.077964	1.922894	0.916128
Zn7	Zn	-0.599206	1.422873	0.590817
Zn8	Zn	-0.099206	1.922873	1.090817
O9	O	-0.510627	1.510240	0.503479
O10	O	-0.010627	2.010240	1.003479
O11	O	-0.445514	1.743874	0.567686
O12	O	0.054486	2.243874	1.067686
O13	O	-0.575826	1.574335	0.269883
O14	O	-0.075826	2.074335	0.769883
O15	O	-0.273681	1.446133	0.439326
O16	O	0.226319	1.946133	0.939326
O17	O	-0.575776	1.743791	0.439308
O18	O	-0.075776	2.243791	0.939308
O19	O	-0.273643	1.574527	0.567697
O20	O	0.226357	2.074527	1.067697
O21	O	-0.445603	1.446023	0.269891
O22	O	0.054397	1.946023	0.769891
O23	O	-0.445527	1.276655	0.439290
O24	O	0.054473	1.776655	0.939290
O25	O	-0.575642	1.446096	0.737058
O26	O	-0.075642	1.946096	1.237058
O27	O	-0.575693	1.276639	0.567633
O28	O	-0.075693	1.776639	1.067633
O29	O	-0.445438	1.574506	0.737086
O30	O	0.054562	2.074506	1.237086
O31	O	-0.747621	1.574314	0.439271
O32	O	-0.247621	2.074314	0.939271
O33	O	-0.747564	1.445986	0.567623
O34	O	-0.247564	1.945986	1.067623
C35	C	-0.510608	1.238730	0.503459
C36	C	-0.010608	1.738730	1.003459
C37	C	-0.510625	1.122577	0.503476
C38	C	-0.010625	1.622577	1.003476
C39	C	-0.575000	0.950707	0.439884
C40	C	-0.075000	1.450707	0.939884
C41	C	-0.574984	1.070757	0.439866
C42	C	-0.074984	1.570757	0.939866
C43	C	-0.786057	1.510164	0.503465
C44	C	-0.286057	2.010164	1.003465
C45	C	-0.903887	1.510227	0.503493
C46	C	-0.403887	2.010227	1.003493
C47	C	-1.071459	1.429829	0.584488
C48	C	-0.571459	1.929829	1.084488
C49	C	-0.948900	1.429418	0.584228
C50	C	-0.448900	1.929418	1.084228
C51	C	-0.948489	1.480414	0.393362
C52	C	-0.448489	1.980414	0.893362
C53	C	-1.071088	1.479923	0.393854
C54	C	-0.571088	1.979923	0.893854
C55	C	-1.070974	1.620929	0.531736
C56	C	-0.570974	2.120929	1.031736
C57	C	-0.948367	1.620251	0.534144
C58	C	-0.448367	2.120251	1.034144
C59	C	-0.234122	1.510345	0.503517
C60	C	0.265878	2.010345	1.003517
C61	C	-0.116292	1.510390	0.503533
C62	C	0.383708	2.010390	1.003533
C63	C	-0.510525	1.510311	0.776050
C64	C	-0.010525	2.010311	1.276050
C65	C	-0.510482	1.510341	0.892203
C66	C	-0.010482	2.010341	1.392203
C67	C	-0.510648	1.782810	0.503500
C68	C	-0.010648	2.282810	1.003500
C69	C	-0.510656	1.898963	0.503509
C70	C	-0.010656	2.398963	1.003509
C71	C	-0.510652	1.510229	0.231969
C72	C	-0.010652	2.010229	0.731969
C73	C	-0.510397	1.510401	0.115817
C74	C	-0.010397	2.010401	0.615817
C75	C	-0.446040	1.573890	0.944001
C76	C	0.053960	2.073890	1.444001
C77	C	-0.445994	1.573923	1.064052
C78	C	0.054006	2.073923	1.564052
H79	H	-0.455539	1.078085	0.557953
H80	H	0.044461	1.578085	1.057953
H81	H	-0.565575	1.455996	1.071278
H82	H	-0.065575	1.955996	1.571278
H83	H	-0.565612	1.455953	0.936733
H84	H	-0.065612	1.955953	1.436733
C85	C	-1.109854	1.370758	0.361583
C86	C	-0.609854	1.870758	0.861583
N87	N	-1.139047	1.288530	0.337280
N88	N	-0.639047	1.788530	0.837280
C89	C	-0.436216	0.959179	0.577081
C90	C	0.063784	1.459179	1.077081
N91	N	-0.380146	1.004533	0.632498
N92	N	0.119854	1.504533	1.132498
H93	H	-0.630094	0.906130	0.385421
H94	H	-0.130094	1.406130	0.885421
C95	C	-0.649405	1.130870	0.366272
C96	C	-0.149405	1.630870	0.866272
N97	N	-0.705459	1.176149	0.310837
N98	N	-0.205459	1.676149	0.810837
H99	H	-0.919210	1.642733	0.615195
H100	H	-0.419210	2.142733	1.115195
C101	C	-1.111193	1.454787	0.695173
C102	C	-0.611193	1.954787	1.195173
N103	N	-1.141131	1.473586	0.778543
N104	N	-0.641131	1.973586	1.278543
C105	C	-0.908152	1.454612	0.694550
C106	C	-0.408152	1.954612	1.194550
N107	N	-0.877466	1.473585	0.777651
N108	N	-0.377466	1.973585	1.277651
C109	C	-1.111162	1.555741	0.309580
C110	C	-0.611162	2.055741	0.809580
N111	N	-1.141341	1.612839	0.246099
N112	N	-0.641341	2.112839	0.746099
H113	H	-1.099966	1.680949	0.472773
H114	H	-0.599966	2.180949	0.972773
C115	C	-1.113192	1.319807	0.559561
C116	C	-0.613192	1.819807	1.059561
N117	N	-1.144622	1.236939	0.540780
N118	N	-0.644622	1.736939	1.040780
H119	H	-0.390900	1.628268	0.899471
H120	H	0.109100	2.128268	1.399471
H121	H	-0.919666	1.347469	0.565543
H122	H	-0.419666	1.847469	1.065543
H123	H	-0.919335	1.537231	0.331396
H124	H	-0.419335	2.037231	0.831396
C125	C	-0.907149	1.372382	0.360504
C126	C	-0.407149	1.872382	0.860504
N127	N	-0.876015	1.291010	0.335761
N128	N	-0.376015	1.791010	0.835761
H129	H	-1.101812	1.648124	0.610678
H130	H	-0.601812	2.148124	1.110678
C131	C	-0.906969	1.705610	0.460285
C132	C	-0.406969	2.205610	0.960285
N133	N	-0.875791	1.769900	0.404644
N134	N	-0.375791	2.269900	0.904644
C135	C	-0.371454	1.647423	1.124227
C136	C	0.128546	2.147423	1.624227
N137	N	-0.315307	1.702784	1.169554
N138	N	0.184693	2.202784	1.669554
