data_functionalizedCrystal
_audit_creation_method	'MofGen! by Chris Wilmer'
_symmetry_space_group_name_H-M	'P1'
_symmetry_Int_Tables_number	1
_symmetry_cell_setting	triclinic
loop_
_symmetry_equiv_pos_as_xyz
  x,y,z
_cell_length_a	16.992698
_cell_length_b	16.992695
_cell_length_c	15.455301
_cell_angle_alpha	87.173129
_cell_angle_beta	87.172453
_cell_angle_gamma	90.667582
loop_
_atom_site_label
_atom_site_type_symbol
_atom_site_fract_x
_atom_site_fract_y
_atom_site_fract_z
O1	O	-1.054120	-0.170174	0.072150
O2	O	-0.825720	-0.168345	0.072148
O3	O	-0.939004	-0.055059	0.072142
O4	O	-0.940836	-0.283460	0.072156
O5	O	-0.932456	-0.048519	-0.072121
O6	O	-0.819172	-0.161805	-0.072115
O7	O	-1.047572	-0.163633	-0.072113
Cu8	Cu	-0.932774	-0.162122	-0.085286
Cu9	Cu	-0.940518	-0.169856	0.085321
O10	O	-0.934288	-0.276919	-0.072107
C11	C	-0.793086	-0.162719	0.000016
C12	C	-0.705601	-0.155691	0.000015
N13	N	-0.927333	-0.156682	-0.205283
C14	C	-0.213682	-0.108471	0.000011
C15	C	-0.295882	-0.115080	0.000007
C16	C	-0.332090	-0.189508	0.000016
C17	C	-0.286092	-0.257331	0.000019
C18	C	-0.203893	-0.250721	0.000017
C19	C	-0.577404	-0.216904	0.000017
C20	C	-0.659609	-0.223509	0.000022
C21	C	-0.669394	-0.081257	0.000007
C22	C	-0.587193	-0.074654	0.000011
C23	C	-0.541202	-0.142477	0.000010
N24	N	-0.416112	-0.196266	0.000014
N25	N	-0.457181	-0.135718	0.000005
C26	C	-0.080206	-0.169259	0.000018
C27	C	-0.167690	-0.176289	0.000017
C28	C	-0.933374	-0.022429	0.000011
C29	C	-0.926345	0.065056	0.000011
C30	C	-0.939917	-0.309550	0.000026
C31	C	-0.946946	-0.397034	0.000032
C32	C	-0.994163	0.111048	0.000011
C33	C	-0.987555	0.193248	0.000019
C34	C	-0.913127	0.229455	0.000021
C35	C	-0.845304	0.183457	0.000024
C36	C	-0.851914	0.101258	0.000022
C37	C	-0.885733	0.474769	0.000033
C38	C	-0.879129	0.556974	0.000032
C39	C	-1.021380	0.566759	0.000028
C40	C	-1.027983	0.484558	0.000021
C41	C	-0.960160	0.438567	0.000029
N42	N	-0.906370	0.313477	0.000027
N43	N	-0.966918	0.354546	0.000029
C44	C	-0.976009	-0.205389	-0.250670
C45	C	-0.971905	-0.201270	-0.341478
C46	C	-0.919120	-0.148448	-0.386898
C47	C	-0.870442	-0.099736	-0.341504
C48	C	-0.874550	-0.103851	-0.250698
C49	C	-0.901395	-0.130694	-0.658482
C50	C	-0.897288	-0.126584	-0.749295
C51	C	-0.998753	-0.228118	-0.749263
C52	C	-1.002854	-0.232231	-0.658454
C53	C	-0.954178	-0.183516	-0.613069
N54	N	-0.914921	-0.144239	-0.479719
N55	N	-0.958381	-0.187722	-0.520249
N56	N	-0.945964	-0.175291	0.205318
H57	H	-0.333326	-0.059855	-0.000002
O58	O	-1.060699	0.242857	0.000004
H59	H	-1.113563	0.203871	-0.000014
H60	H	-0.557719	-0.014047	0.000003
H61	H	-1.018988	-0.248407	-0.213696
O62	O	-0.174634	-0.028193	0.000002
H63	H	-0.134745	-0.019121	-0.058796
O64	O	-0.778766	0.051651	0.000011
H65	H	-0.746056	0.062415	0.058805
O66	O	-0.718995	-0.008107	-0.000009
H67	H	-0.782236	-0.025203	-0.000016
H68	H	-1.088589	0.455084	0.000019
H69	H	-0.689086	-0.284120	0.000016
H70	H	-1.045839	-0.275243	-0.621480
H71	H	-0.830507	0.437332	0.000039
H72	H	-0.784704	0.212944	0.000031
O73	O	-0.813515	-0.042752	-0.390485
H74	H	-0.752459	-0.056681	-0.373059
O75	O	-0.527803	-0.290052	0.000021
H76	H	-0.566793	-0.342915	0.000036
H77	H	-1.076597	0.604213	0.000024
H78	H	-1.011544	-0.240931	-0.378429
O79	O	-0.822062	-0.051283	-0.201766
H80	H	-0.859044	-0.013231	-0.160419
H81	H	-0.818517	0.586452	0.000020
H82	H	-0.315578	-0.317932	0.000021
O83	O	-1.051262	-0.280642	-0.798219
H84	H	-1.014308	-0.318686	-0.839604
O85	O	-0.840355	-0.069607	-0.798289
H86	H	-0.807203	-0.036418	-0.751475
O87	O	-0.848889	-0.078162	-0.609534
H88	H	-0.811488	-0.040750	-0.656376
O89	O	-0.154279	-0.323865	0.000022
H90	H	-0.170367	-0.361902	0.058829
O91	O	-1.074439	0.071995	0.000016
H92	H	-1.120487	0.117789	0.000029
