data_functionalizedCrystal
_audit_creation_method	'MofGen! by Chris Wilmer'
_symmetry_space_group_name_H-M	'P1'
_symmetry_Int_Tables_number	1
_symmetry_cell_setting	triclinic
loop_
_symmetry_equiv_pos_as_xyz
  x,y,z
_cell_length_a	17.077404
_cell_length_b	12.827892
_cell_length_c	17.077396
_cell_angle_alpha	89.974288
_cell_angle_beta	89.982756
_cell_angle_gamma	90.015617
loop_
_atom_site_label
_atom_site_type_symbol
_atom_site_fract_x
_atom_site_fract_y
_atom_site_fract_z
Zn1	Zn	1.200078	-0.416018	-0.443862
Zn2	Zn	1.200007	-0.590783	-0.312605
Zn3	Zn	1.068815	-0.416057	-0.312610
Zn4	Zn	1.068795	-0.590719	-0.443828
O5	O	1.134424	-0.503394	-0.378226
O6	O	1.309916	-0.439212	-0.426463
O7	O	1.182583	-0.567649	-0.202758
O8	O	1.086265	-0.269816	-0.330038
O9	O	1.309864	-0.567611	-0.330028
O10	O	1.182704	-0.269787	-0.426468
O11	O	1.086197	-0.439279	-0.202763
O12	O	0.958965	-0.439216	-0.330005
O13	O	1.086231	-0.567501	-0.553680
O14	O	0.958951	-0.567539	-0.426410
O15	O	1.182684	-0.439149	-0.553705
O16	O	1.182564	-0.737011	-0.329995
O17	O	1.086163	-0.736963	-0.426404
C18	C	0.930476	-0.503375	-0.378205
C19	C	0.843226	-0.503392	-0.378214
C20	C	0.802249	-0.570311	-0.428332
C21	C	0.720269	-0.570313	-0.428344
C22	C	0.679267	-0.503401	-0.378235
C23	C	0.720250	-0.436476	-0.328115
C24	C	0.802229	-0.436469	-0.328107
C25	C	0.549380	-0.436496	-0.328134
C26	C	0.467395	-0.436504	-0.328140
C27	C	0.467420	-0.570341	-0.428371
C28	C	0.549398	-0.570334	-0.428363
C29	C	0.590376	-0.503409	-0.378242
C30	C	1.134375	-0.774904	-0.378213
C31	C	1.134426	-0.891057	-0.378233
C32	C	1.182185	-0.942831	-0.330579
C33	C	1.182238	-1.062881	-0.330599
C34	C	1.339168	-0.503414	-0.378249
C35	C	1.426418	-0.503422	-0.378258
C36	C	1.134463	-0.503313	-0.582971
C37	C	1.134480	-0.503279	-0.670221
C38	C	1.134495	-0.230824	-0.378257
C39	C	1.134525	-0.114671	-0.378271
C40	C	1.084307	-0.436428	-0.711212
C41	C	1.084320	-0.436405	-0.793193
C42	C	1.134510	-0.503227	-0.834180
C43	C	1.184686	-0.570085	-0.793183
C44	C	1.184668	-0.570113	-0.711204
C45	C	1.184720	-0.570019	-0.964053
C46	C	1.184738	-0.569990	-1.046037
C47	C	1.084371	-0.436311	-1.046042
C48	C	1.084354	-0.436339	-0.964063
C49	C	1.134530	-0.503196	-0.923071
C50	C	1.134430	-0.503400	-0.174279
C51	C	1.134565	-0.503140	-0.087029
H52	H	0.434052	-0.624830	-0.469184
H53	H	1.043488	-0.381922	-0.930693
Cl54	Cl	0.853743	-0.352336	-0.265101
H55	H	1.225530	-0.624542	-0.677829
H56	H	1.043516	-0.381873	-1.079421
Cl57	Cl	0.600893	-0.352361	-0.265123
Cl58	Cl	1.071386	-1.045942	-0.441261
Cl59	Cl	1.245260	-0.874056	-0.267569
Cl60	Cl	0.668705	-0.352350	-0.265124
H61	H	1.093580	-0.935609	-0.419049
H62	H	1.043440	-0.382008	-0.677846
H63	H	1.043461	-0.381972	-0.826565
H64	H	1.225586	-0.624452	-0.930680
Cl65	Cl	0.853786	-0.654439	-0.491327
H66	H	0.686908	-0.624806	-0.469154
Cl67	Cl	1.247778	-0.654097	-0.844710
Cl68	Cl	1.247841	-0.653990	-1.097563
Cl69	Cl	1.245366	-1.131617	-0.267603
Cl70	Cl	0.600943	-0.654460	-0.491354
H71	H	0.434014	-0.382006	-0.287346
