data_functionalizedCrystal
_audit_creation_method	'MofGen! by Chris Wilmer'
_symmetry_space_group_name_H-M	'P1'
_symmetry_Int_Tables_number	1
_symmetry_cell_setting	triclinic
loop_
_symmetry_equiv_pos_as_xyz
  x,y,z
_cell_length_a	17.639617
_cell_length_b	17.640280
_cell_length_c	17.639477
_cell_angle_alpha	70.346041
_cell_angle_beta	92.133882
_cell_angle_gamma	87.821186
loop_
_atom_site_label
_atom_site_type_symbol
_atom_site_fract_x
_atom_site_fract_y
_atom_site_fract_z
Zn1	Zn	1.065789	0.035952	-0.670043
Zn2	Zn	1.565789	0.535952	-0.170043
Zn3	Zn	1.126487	-0.114354	-0.519803
Zn4	Zn	1.626487	0.385646	-0.019803
Zn5	Zn	0.976273	-0.014598	-0.509539
Zn6	Zn	1.476273	0.485402	-0.009539
Zn7	Zn	0.976253	-0.124480	-0.619472
Zn8	Zn	1.476253	0.375520	-0.119472
O9	O	1.036201	-0.054370	-0.579714
O10	O	1.536201	0.445630	-0.079714
O11	O	1.174177	0.041406	-0.675573
O12	O	1.674177	0.541406	-0.175573
O13	O	1.131971	-0.118039	-0.409558
O14	O	1.631971	0.381961	0.090442
O15	O	0.962753	0.100997	-0.547699
O16	O	1.462753	0.600997	-0.047699
O17	O	1.218771	-0.069023	-0.565192
O18	O	1.718771	0.430977	-0.065192
O19	O	1.028520	0.138136	-0.665620
O20	O	1.528520	0.638136	-0.165620
O21	O	1.021609	-0.044749	-0.402017
O22	O	1.521609	0.455251	0.097983
O23	O	0.875934	-0.054567	-0.498662
O24	O	1.375934	0.445433	0.001338
O25	O	0.962720	-0.086280	-0.735064
O26	O	1.462720	0.413720	-0.235064
O27	O	0.875920	-0.135296	-0.579430
O28	O	1.375920	0.364704	-0.079430
O29	O	1.028501	0.031588	-0.772218
O30	O	1.528501	0.531588	-0.272218
O31	O	1.131952	-0.224587	-0.516156
O32	O	1.631952	0.275413	-0.016156
O33	O	1.021577	-0.232026	-0.589382
O34	O	1.521577	0.267974	-0.089382
C35	C	0.849911	-0.101516	-0.532445
C36	C	1.349911	0.398484	-0.032445
C37	C	0.770215	-0.121701	-0.512239
C38	C	1.270215	0.378299	-0.012239
C39	C	0.392004	0.099021	-0.733416
C40	C	0.892004	0.599021	-0.233416
C41	C	0.317126	0.080032	-0.714410
C42	C	0.817126	0.580032	-0.214410
C43	C	0.363579	-0.034815	-0.599353
C44	C	0.863579	0.465185	-0.099353
C45	C	0.438463	-0.015838	-0.618351
C46	C	0.938463	0.484162	-0.118351
C47	C	0.452668	0.051082	-0.685383
C48	C	0.952668	0.551082	-0.185383
C49	C	0.499127	-0.063777	-0.570319
C50	C	0.999127	0.436223	-0.070319
C51	C	0.574003	-0.044799	-0.589314
C52	C	1.074003	0.455201	-0.089314
C53	C	0.588216	0.022119	-0.656341
C54	C	1.088216	0.522119	-0.156341
C55	C	0.527545	0.070060	-0.704378
C56	C	1.027545	0.570060	-0.204378
C57	C	0.484920	-0.130693	-0.503284
C58	C	0.984920	0.369307	-0.003284
C59	C	0.545584	-0.178633	-0.455251
C60	C	1.045584	0.321367	0.044749
C61	C	0.620462	-0.159658	-0.474249
C62	C	1.120462	0.340342	0.025751
C63	C	0.634675	-0.092740	-0.541276
C64	C	1.134675	0.407260	-0.041276
C65	C	0.681133	-0.207599	-0.426212
C66	C	1.181133	0.292401	0.073788
C67	C	0.756010	-0.188621	-0.445207
C68	C	1.256010	0.311379	0.054793
C69	C	0.709551	-0.073762	-0.560271
C70	C	1.209551	0.426238	-0.060271
C71	C	1.083364	-0.256533	-0.548417
C72	C	1.583364	0.243467	-0.048417
C73	C	1.103601	-0.342998	-0.535071
C74	C	1.603601	0.157002	-0.035071
C75	C	0.882694	-0.646969	-0.681463
C76	C	1.382694	-0.146969	-0.181463
C77	C	0.901717	-0.728220	-0.668898
C78	C	1.401717	-0.228220	-0.168898
C79	C	1.016685	-0.720378	-0.592762
C80	C	1.516685	-0.220378	-0.092762
C81	C	0.997674	-0.639124	-0.605324
C82	C	1.497674	-0.139124	-0.105324
C83	C	0.930677	-0.602426	-0.649675
C84	C	1.430677	-0.102426	-0.149675
C85	C	1.045657	-0.594581	-0.573536
C86	C	1.545657	-0.094581	-0.073536
C87	C	1.026645	-0.513335	-0.586094
C88	C	1.526645	-0.013335	-0.086094
C89	C	0.959650	-0.476632	-0.630440
C90	C	1.459650	0.023368	-0.130440
C91	C	0.911666	-0.521180	-0.662232
C92	C	1.411666	-0.021180	-0.162232
C93	C	1.112650	-0.631282	-0.529181
C94	C	1.612650	-0.131282	-0.029181
C95	C	1.160633	-0.586739	-0.497392
C96	C	1.660633	-0.086739	0.002608
C97	C	1.141624	-0.505490	-0.509955
C98	C	1.641624	-0.005490	-0.009955
C99	C	1.074630	-0.468787	-0.554301
C100	C	1.574630	0.031213	-0.054301
C101	C	1.189609	-0.460942	-0.478163
C102	C	1.689609	0.039058	0.021837
C103	C	1.170597	-0.379696	-0.490720
C104	C	1.670597	0.120304	0.009280
C105	C	1.055618	-0.387541	-0.566859
C106	C	1.555618	0.112459	-0.066859
C107	C	1.223218	-0.007040	-0.627169
C108	C	1.723218	0.492960	-0.127169
C109	C	1.302913	0.013129	-0.647391
C110	C	1.802913	0.513129	-0.147391
C111	C	0.988838	-0.022837	-0.782663
C112	C	1.488838	0.477163	-0.282663
C113	C	0.968655	-0.009399	-0.869147
C114	C	1.468655	0.490601	-0.369147
C115	C	0.988868	0.148590	-0.611156
C116	C	1.488868	0.648590	-0.111156
C117	C	0.968698	0.235079	-0.624554
C118	C	1.468698	0.735079	-0.124554
C119	C	1.189584	-0.155996	-1.173193
C120	C	1.689584	0.344004	-0.673193
C121	C	1.170607	-0.143363	-1.254457
C122	C	1.670607	0.356637	-0.754457
C123	C	1.055695	-0.067050	-1.246605
C124	C	1.555695	0.432950	-0.746605
C125	C	1.074660	-0.079680	-1.165337
C126	C	1.574660	0.420320	-0.665337
C127	C	1.141606	-0.124153	-1.128638
C128	C	1.641606	0.375847	-0.628638
C129	C	1.026682	-0.047838	-1.120782
C130	C	1.526682	0.452162	-0.620782
C131	C	1.045648	-0.060463	-1.039522
C132	C	1.545648	0.439537	-0.539522
C133	C	1.112591	-0.104932	-1.002818
C134	C	1.612591	0.395068	-0.502818
C135	C	1.160571	-0.136779	-1.047378
C136	C	1.660571	0.363221	-0.547378
C137	C	0.959739	-0.003360	-1.157484
C138	C	1.459739	0.496640	-0.657484
C139	C	0.911761	0.028482	-1.112929
C140	C	1.411761	0.528482	-0.612929
C141	C	0.930724	0.015852	-1.031666
C142	C	1.430724	0.515852	-0.531666
C143	C	0.997667	-0.028616	-0.994962
C144	C	1.497667	0.471384	-0.494962
C145	C	0.882744	0.047699	-0.987106
C146	C	1.382744	0.547699	-0.487106
C147	C	0.901709	0.035073	-0.905846
C148	C	1.401709	0.535073	-0.405846
C149	C	1.016633	-0.041242	-0.913702
C150	C	1.516633	0.458758	-0.413702
C151	C	1.083407	-0.085714	-0.377575
C152	C	1.583407	0.414286	0.122425
C153	C	1.103678	-0.098897	-0.291160
C154	C	1.603678	0.401103	0.208840
H155	H	0.649186	0.037572	-0.671803
H156	H	1.149186	0.537572	-0.171803
F157	F	0.252562	0.131065	-0.765536
F158	F	0.752562	0.631065	-0.265536
H159	H	0.539110	0.124550	-0.758965
H160	H	1.039110	0.624550	-0.258965
F161	F	0.348451	-0.106031	-0.528013
F162	F	0.848451	0.393969	-0.028013
F163	F	0.840517	0.075814	-1.151996
F164	F	1.340517	0.575814	-0.651996
H165	H	0.534007	-0.233116	-0.400672
H166	H	1.034007	0.266884	0.099328
F167	F	0.984451	-0.019719	-1.285672
F168	F	1.484451	0.480281	-0.785672
F169	F	0.407126	0.170240	-0.804764
F170	F	0.907126	0.670240	-0.304764
H171	H	1.001067	-0.357658	-0.602981
H172	H	1.501067	0.142342	-0.102981
F173	F	0.405228	-0.150887	-0.483066
F174	F	0.905228	0.349113	0.016934
H175	H	0.669555	-0.262080	-0.371630
H176	H	1.169555	0.237920	0.128370
F177	F	1.260829	-0.203340	-1.134127
F178	F	1.760829	0.296660	-0.634127
H179	H	0.862645	-0.764481	-0.694798
H180	H	1.362645	-0.264481	-0.194798
H181	H	1.215180	-0.616630	-0.461280
H182	H	1.715180	-0.116630	0.038720
F183	F	0.939559	0.010081	-1.243970
F184	F	1.439559	0.510081	-0.743970
F185	F	1.260906	-0.500010	-0.430958
F186	F	1.760906	-0.000010	0.069042
F187	F	0.724673	-0.002543	-0.631620
F188	F	1.224673	0.497457	-0.131620
F189	F	0.820577	-0.239648	-0.394090
F190	F	1.320577	0.260352	0.105910
H191	H	1.071232	-0.750270	-0.556649
H192	H	1.571232	-0.250270	-0.056649
H193	H	0.944169	-0.410478	-0.640657
H194	H	1.444169	0.089522	-0.140657
H195	H	0.828143	-0.617086	-0.717585
H196	H	1.328143	-0.117086	-0.217585
F197	F	1.221682	-0.177252	-1.301876
F198	F	1.721682	0.322748	-0.801876
F199	F	0.840364	-0.482117	-0.709444
F200	F	1.340364	0.017883	-0.209444
H201	H	1.215090	-0.172984	-1.017499
H202	H	1.715090	0.327016	-0.517499
H203	H	0.828241	0.083915	-1.017000
H204	H	1.328241	0.583915	-0.517000
F205	F	1.132898	-0.717744	-0.515843
F206	F	1.632898	-0.217744	-0.015843
H207	H	0.862643	0.061006	-0.869569
H208	H	1.362643	0.561006	-0.369569
H209	H	1.209670	-0.343429	-0.464834
H210	H	1.709670	0.156571	0.035166
H211	H	1.071152	-0.077447	-0.883823
H212	H	1.571152	0.422553	-0.383823
H213	H	1.128033	-0.115208	-0.936652
H214	H	1.628033	0.384792	-0.436652
