data_functionalizedCrystal
_audit_creation_method	'MofGen! by Chris Wilmer'
_symmetry_space_group_name_H-M	'P1'
_symmetry_Int_Tables_number	1
_symmetry_cell_setting	triclinic
loop_
_symmetry_equiv_pos_as_xyz
  x,y,z
_cell_length_a	15.944551
_cell_length_b	14.044220
_cell_length_c	14.421503
_cell_angle_alpha	90.000302
_cell_angle_beta	89.988429
_cell_angle_gamma	88.343808
loop_
_atom_site_label
_atom_site_type_symbol
_atom_site_fract_x
_atom_site_fract_y
_atom_site_fract_z
O1	O	-1.123664	-0.122244	-0.077017
O2	O	-0.873664	0.127756	0.172983
O3	O	-0.623664	0.377756	0.422983
O4	O	-0.373664	0.627756	0.672983
O5	O	-0.880243	-0.137316	-0.077040
O6	O	-0.630243	0.112684	0.172960
O7	O	-0.380243	0.362684	0.422960
O8	O	-0.130243	0.612684	0.672960
O9	O	-0.998300	0.008205	-0.077020
O10	O	-0.748300	0.258205	0.172980
O11	O	-0.498300	0.508205	0.422980
O12	O	-0.248300	0.758205	0.672980
O13	O	-1.005607	-0.267765	-0.077037
O14	O	-0.755607	-0.017765	0.172963
O15	O	-0.505607	0.232235	0.422963
O16	O	-0.255607	0.482235	0.672963
O17	O	-0.998316	0.008196	0.077204
O18	O	-0.748316	0.258196	0.327204
O19	O	-0.498316	0.508196	0.577204
O20	O	-0.248316	0.758196	0.827204
O21	O	-0.880259	-0.137325	0.077183
O22	O	-0.630259	0.112675	0.327183
O23	O	-0.380259	0.362675	0.577183
O24	O	-0.130259	0.612675	0.827183
O25	O	-1.123680	-0.122253	0.077207
O26	O	-0.873680	0.127747	0.327207
O27	O	-0.623680	0.377747	0.577207
O28	O	-0.373680	0.627747	0.827207
Cu29	Cu	-1.001971	-0.129790	0.091277
Cu30	Cu	-0.751971	0.120210	0.341277
Cu31	Cu	-0.501971	0.370210	0.591277
Cu32	Cu	-0.251971	0.620210	0.841277
Cu33	Cu	-1.001952	-0.129779	-0.091110
Cu34	Cu	-0.751952	0.120221	0.158890
Cu35	Cu	-0.501952	0.370221	0.408890
Cu36	Cu	-0.251952	0.620221	0.658890
O37	O	-1.005624	-0.267774	0.077186
O38	O	-0.755624	-0.017774	0.327186
O39	O	-0.505624	0.232226	0.577186
O40	O	-0.255624	0.482226	0.827186
C41	C	-0.848910	-0.136695	0.000069
C42	C	-0.598910	0.113305	0.250069
C43	C	-0.348910	0.363305	0.500069
C44	C	-0.098910	0.613305	0.750069
C45	C	-0.755524	-0.134819	0.000060
C46	C	-0.505524	0.115181	0.250060
C47	C	-0.255524	0.365181	0.500060
C48	C	-0.005524	0.615181	0.750060
C49	C	-0.995109	0.043515	0.000092
C50	C	-0.745109	0.293515	0.250092
C51	C	-0.495109	0.543515	0.500092
C52	C	-0.245109	0.793515	0.750092
C53	C	-0.985568	0.148741	0.000092
C54	C	-0.735568	0.398741	0.250092
C55	C	-0.485568	0.648741	0.500092
C56	C	-0.235568	0.898741	0.750092
C57	C	-1.155013	-0.122874	0.000096
C58	C	-0.905013	0.127126	0.250096
C59	C	-0.655013	0.377126	0.500096
C60	C	-0.405013	0.627126	0.750096
C61	C	-1.248399	-0.124750	0.000098
C62	C	-0.998399	0.125250	0.250098
C63	C	-0.748399	0.375250	0.500098
C64	C	-0.498399	0.625250	0.750098
C65	C	-0.533577	-0.040135	0.000084
C66	C	-0.283577	0.209865	0.250084
C67	C	-0.033577	0.459865	0.500084
C68	C	0.216423	0.709865	0.750084
C69	C	-0.475841	-0.084098	-0.075959
C70	C	-0.225841	0.165902	0.174041
C71	C	0.024159	0.415902	0.424041
C72	C	0.274159	0.665902	0.674041
C73	C	-0.584544	-0.131425	0.000071
C74	C	-0.334544	0.118575	0.250071
C75	C	-0.084544	0.368575	0.500071
C76	C	0.165456	0.618575	0.750071
C77	C	-0.475881	-0.084129	0.076093
C78	C	-0.225881	0.165871	0.326093
C79	C	0.024119	0.415871	0.576093
C80	C	0.274119	0.665871	0.826093
C81	C	-0.419385	-0.128141	0.000086
C82	C	-0.169385	0.121859	0.250086
C83	C	0.080615	0.371859	0.500086
C84	C	0.330615	0.621859	0.750086
C85	C	-0.528038	-0.175414	-0.076035
C86	C	-0.278038	0.074586	0.173965
C87	C	-0.028038	0.324586	0.423965
C88	C	0.221962	0.574586	0.673965
C89	C	-0.528083	-0.175432	0.076086
C90	C	-0.278083	0.074568	0.326086
C91	C	-0.028083	0.324568	0.576086
C92	C	0.221917	0.574568	0.826086
C93	C	-0.470370	-0.219462	0.000024
C94	C	-0.220370	0.030538	0.250024
C95	C	0.029630	0.280538	0.500024
C96	C	0.279630	0.530538	0.750024
C97	C	-0.679688	-0.133315	0.000062
C98	C	-0.429688	0.116685	0.250062
C99	C	-0.179688	0.366685	0.500062
C100	C	0.070312	0.616685	0.750062
C101	C	-0.324243	-0.126258	0.000089
C102	C	-0.074243	0.123742	0.250089
C103	C	0.175757	0.373742	0.500089
C104	C	0.425757	0.623742	0.750089
C105	C	-1.008814	-0.303084	0.000072
C106	C	-0.758814	-0.053084	0.250072
C107	C	-0.508814	0.196916	0.500072
C108	C	-0.258814	0.446916	0.750072
C109	C	-1.018355	-0.408310	0.000066
C110	C	-0.768355	-0.158310	0.250066
C111	C	-0.518355	0.091690	0.500066
C112	C	-0.268355	0.341690	0.750066
N113	N	-1.001991	-0.129797	0.219558
N114	N	-0.751991	0.120203	0.469558
N115	N	-0.501991	0.370203	0.719558
N116	N	-0.251991	0.620203	0.969558
C117	C	-0.968124	0.341404	0.000077
C118	C	-0.718124	0.591404	0.250077
C119	C	-0.468124	0.841404	0.500077
C120	C	-0.218124	1.091404	0.750077
C121	C	-1.035795	0.399033	0.000081
C122	C	-0.785795	0.649033	0.250081
C123	C	-0.535795	0.899033	0.500081
C124	C	-0.285795	1.149033	0.750081
C125	C	-1.026089	0.506237	0.000073
C126	C	-0.776089	0.756237	0.250073
C127	C	-0.526089	1.006237	0.500073
C128	C	-0.276089	1.256237	0.750073
C129	C	-0.977829	0.234190	0.000086
C130	C	-0.727829	0.484190	0.250086
C131	C	-0.477829	0.734190	0.500086
C132	C	-0.227829	0.984190	0.750086
N133	N	-1.001938	-0.129764	-0.219392
N134	N	-0.751938	0.120236	0.030608
N135	N	-0.501938	0.370236	0.280608
N136	N	-0.251938	0.620236	0.530608
C137	C	-1.056592	-0.062494	0.469196
C138	C	-0.806592	0.187506	0.719196
C139	C	-0.556592	0.437506	0.969196
C140	C	-0.306592	0.687506	1.219196
C141	C	-0.979314	-0.044080	0.530987
C142	C	-0.729314	0.205920	0.780987
C143	C	-0.479314	0.455920	1.030987
C144	C	-0.229314	0.705920	1.280987
C145	C	-1.001971	-0.129786	0.408719
C146	C	-0.751971	0.120214	0.658719
C147	C	-0.501971	0.370214	0.908719
C148	C	-0.251971	0.620214	1.158719
C149	C	-1.079228	-0.148144	0.531022
C150	C	-0.829228	0.101856	0.781022
C151	C	-0.579228	0.351856	1.031022
C152	C	-0.329228	0.601856	1.281022
C153	C	-1.001959	-0.129773	0.591441
C154	C	-0.751959	0.120227	0.841441
C155	C	-0.501959	0.370227	1.091441
C156	C	-0.251959	0.620227	1.341441
C157	C	-0.924652	-0.111330	0.469150
C158	C	-0.674652	0.138670	0.719150
C159	C	-0.424652	0.388670	0.969150
C160	C	-0.174652	0.638670	1.219150
C161	C	-1.024618	-0.215431	0.469179
C162	C	-0.774618	0.034569	0.719179
C163	C	-0.524618	0.284569	0.969179
C164	C	-0.274618	0.534569	1.219179
C165	C	-0.947288	-0.197054	0.530942
C166	C	-0.697288	0.052946	0.780942
C167	C	-0.447288	0.302946	1.030942
C168	C	-0.197288	0.552946	1.280942
C169	C	-1.001979	-0.129791	0.303458
C170	C	-0.751979	0.120209	0.553458
C171	C	-0.501979	0.370209	0.803458
C172	C	-0.251979	0.620209	1.053458
C173	C	-1.001942	-0.129768	0.696700
C174	C	-0.751942	0.120232	0.946700
C175	C	-0.501942	0.370232	1.196700
C176	C	-0.251942	0.620232	1.446700
H177	H	-0.561237	0.035629	-0.000005
H178	H	-0.311237	0.285629	0.249995
H179	H	-0.061237	0.535629	0.499995
H180	H	0.188763	0.785629	0.749995
H181	H	-0.452833	-0.045482	-0.140243
H182	H	-0.202833	0.204518	0.109757
H183	H	0.047167	0.454518	0.359757
H184	H	0.297167	0.704518	0.609757
H185	H	-0.551110	-0.214017	0.140373
H186	H	-0.301110	0.035983	0.390373
H187	H	-0.051110	0.285983	0.640373
H188	H	0.198890	0.535983	0.890373
H189	H	-0.452910	-0.045504	0.140379
H190	H	-0.202910	0.204496	0.390379
H191	H	0.047090	0.454496	0.640379
H192	H	0.297090	0.704496	0.890379
H193	H	-1.101019	0.367858	0.000025
H194	H	-0.851019	0.617858	0.250025
H195	H	-0.601019	0.867858	0.500025
H196	H	-0.351019	1.117858	0.750025
H197	H	-0.902905	0.372577	0.000069
H198	H	-0.652905	0.622577	0.250069
H199	H	-0.402905	0.872577	0.500069
H200	H	-0.152905	1.122577	0.750069
H201	H	-1.043805	-0.287842	0.442009
H202	H	-0.793805	-0.037842	0.692009
H203	H	-0.543805	0.212158	0.942009
H204	H	-0.293805	0.462158	1.192009
H205	H	-0.550908	-0.213994	-0.140393
H206	H	-0.300908	0.036006	0.109607
H207	H	-0.050908	0.286006	0.359607
H208	H	0.199092	0.536006	0.609607
H209	H	-1.102728	-0.005555	0.442084
H210	H	-0.852728	0.244445	0.692084
H211	H	-0.602728	0.494445	0.942084
H212	H	-0.352728	0.744445	1.192084
H213	H	-0.442890	-0.295304	-0.000023
H214	H	-0.192890	-0.045304	0.249977
H215	H	0.057110	0.204696	0.499977
H216	H	0.307110	0.454696	0.749977
H217	H	-0.960149	0.028354	0.558137
H218	H	-0.710149	0.278354	0.808137
H219	H	-0.460149	0.528354	1.058137
H220	H	-0.210149	0.778354	1.308137
H221	H	-0.859291	-0.095714	0.442086
H222	H	-0.609291	0.154286	0.692086
H223	H	-0.359291	0.404286	0.942086
H224	H	-0.109291	0.654286	1.192086
H225	H	-0.901037	-0.253959	0.557883
H226	H	-0.651037	-0.003959	0.807883
H227	H	-0.401037	0.246041	1.057883
H228	H	-0.151037	0.496041	1.307883
H229	H	-1.144567	-0.163678	0.558200
H230	H	-0.894567	0.086322	0.808200
H231	H	-0.644567	0.336322	1.058200
H232	H	-0.394567	0.586322	1.308200
