data_functionalizedCrystal
_audit_creation_method	'MofGen! by Chris Wilmer'
_symmetry_space_group_name_H-M	'P1'
_symmetry_Int_Tables_number	1
_symmetry_cell_setting	triclinic
loop_
_symmetry_equiv_pos_as_xyz
  x,y,z
_cell_length_a	11.169417
_cell_length_b	16.120484
_cell_length_c	16.120297
_cell_angle_alpha	84.385569
_cell_angle_beta	87.118439
_cell_angle_gamma	92.926269
loop_
_atom_site_label
_atom_site_type_symbol
_atom_site_fract_x
_atom_site_fract_y
_atom_site_fract_z
Zn1	Zn	1.773031	-0.356726	0.489383
Zn2	Zn	2.106364	-0.023392	0.822716
Zn3	Zn	2.439697	0.309941	1.156049
Zn4	Zn	1.772879	-0.489415	0.356693
Zn5	Zn	2.106213	-0.156082	0.690026
Zn6	Zn	2.439546	0.177251	1.023360
Zn7	Zn	1.583045	-0.349664	0.349636
Zn8	Zn	1.916379	-0.016331	0.682970
Zn9	Zn	2.249712	0.317003	1.016303
Zn10	Zn	1.561557	-0.496459	0.496424
Zn11	Zn	1.894890	-0.163126	0.829757
Zn12	Zn	2.228223	0.170208	1.163091
O13	O	1.672628	-0.423066	0.423034
O14	O	2.005961	-0.089733	0.756367
O15	O	2.339295	0.243601	1.089701
O16	O	1.940959	-0.374335	0.471788
O17	O	2.274292	-0.041001	0.805121
O18	O	2.607626	0.292332	1.138454
O19	O	1.756627	-0.464974	0.238795
O20	O	2.089961	-0.131640	0.572128
O21	O	2.423294	0.201693	0.905461
O22	O	1.617304	-0.233635	0.362274
O23	O	1.950637	0.099698	0.695607
O24	O	2.283970	0.433031	1.028940
O25	O	1.940848	-0.471821	0.374301
O26	O	2.274181	-0.138488	0.707634
O27	O	2.607515	0.194846	1.040968
O28	O	1.756885	-0.238823	0.464945
O29	O	2.090218	0.094510	0.798278
O30	O	2.423552	0.427843	1.131612
O31	O	1.617157	-0.362299	0.233610
O32	O	1.950490	-0.028966	0.566944
O33	O	2.283824	0.304368	0.900277
O34	O	1.412246	-0.369129	0.369102
O35	O	1.745580	-0.035796	0.702435
O36	O	2.078913	0.297537	1.035768
O37	O	1.580679	-0.483826	0.612452
O38	O	1.914013	-0.150493	0.945786
O39	O	2.247346	0.182840	1.279119
O40	O	1.396459	-0.476979	0.476946
O41	O	1.729792	-0.143646	0.810279
O42	O	2.063125	0.189688	1.143613
O43	O	1.736048	-0.381165	0.607279
O44	O	2.069382	-0.047831	0.940612
O45	O	2.402715	0.285502	1.273946
O46	O	1.735791	-0.607315	0.381129
O47	O	2.069124	-0.273982	0.714462
O48	O	2.402457	0.059352	1.047796
O49	O	1.580533	-0.612490	0.483789
O50	O	1.913866	-0.279157	0.817122
O51	O	2.247199	0.054177	1.150455
C52	C	1.360805	-0.423053	0.423023
C53	C	1.694138	-0.089719	0.756356
C54	C	2.027472	0.243614	1.089689
C55	C	1.227403	-0.423068	0.423039
C56	C	1.560736	-0.089735	0.756372
C57	C	1.894069	0.243598	1.089705
C58	C	1.655845	-0.640231	0.434007
C59	C	1.989178	-0.306898	0.767340
C60	C	2.322511	0.026435	1.100674
C61	C	1.648772	-0.733137	0.438729
C62	C	1.982106	-0.399804	0.772062
C63	C	2.315439	-0.066470	1.105396
C64	C	1.635866	-0.903237	0.447368
C65	C	1.969199	-0.569904	0.780701
C66	C	2.302532	-0.236570	1.114034
C67	C	1.709604	-0.942055	0.398714
C68	C	2.042938	-0.608722	0.732048
C69	C	2.376271	-0.275388	1.065381
C70	C	1.702423	-1.036705	0.403521
C71	C	2.035756	-0.703371	0.736854
C72	C	2.369090	-0.370038	1.070187
C73	C	1.643045	-0.808579	0.442562
C74	C	1.976379	-0.475246	0.775896
C75	C	2.309712	-0.141912	1.109229
C76	C	1.985668	-0.423080	0.423046
C77	C	2.319002	-0.089747	0.756379
C78	C	2.652335	0.243587	1.089713
C79	C	2.119068	-0.423086	0.423051
C80	C	2.452401	-0.089752	0.756384
C81	C	2.785734	0.243581	1.089718
C82	C	1.655984	-0.434069	0.641041
C83	C	1.989317	-0.100736	0.974374
C84	C	2.322650	0.232598	1.307707
C85	C	1.648891	-0.438758	0.733942
C86	C	1.982224	-0.105424	1.067275
C87	C	2.315558	0.227909	1.400609
C88	C	1.689508	-0.205054	0.412037
C89	C	2.022842	0.128280	0.745370
C90	C	2.356175	0.461613	1.078703
C91	C	1.696702	-0.112150	0.407350
C92	C	2.030035	0.221184	0.740684
C93	C	2.363368	0.554517	1.074017
C94	C	1.689281	-0.412046	0.205873
C95	C	2.022615	-0.078712	0.539206
C96	C	2.355948	0.254621	0.872539
C97	C	1.696625	-0.407121	0.112960
C98	C	2.029958	-0.073788	0.446293
C99	C	2.363291	0.259545	0.779626
C100	C	1.635899	-0.447300	0.904033
C101	C	1.969232	-0.113966	1.237366
C102	C	2.302565	0.219367	1.570699
C103	C	1.709613	-0.398582	0.942875
C104	C	2.042946	-0.065248	1.276208
C105	C	2.376280	0.268085	1.609541
C106	C	1.702384	-0.403335	1.037519
C107	C	2.035717	-0.070001	1.370852
C108	C	2.369051	0.263332	1.704186
C109	C	1.643126	-0.442548	0.809380
C110	C	1.976459	-0.109215	1.142713
C111	C	2.309793	0.224119	1.476047
H112	H	1.778126	-0.904204	0.353450
H113	H	2.111460	-0.570870	0.686784
H114	H	2.444793	-0.237537	1.020117
Cl115	Cl	1.530074	-0.961673	0.517245
Cl116	Cl	1.863408	-0.628340	0.850578
Cl117	Cl	2.196741	-0.295006	1.183911
H118	H	1.778150	-0.353303	0.905048
H119	H	2.111483	-0.019969	1.238381
H120	H	2.444817	0.313364	1.571715
Cl121	Cl	1.530092	-0.517206	0.962431
Cl122	Cl	1.863426	-0.183872	1.295764
Cl123	Cl	2.196759	0.149461	1.629098
