data_functionalizedCrystal
_audit_creation_method	'MofGen! by Chris Wilmer'
_symmetry_space_group_name_H-M	'P1'
_symmetry_Int_Tables_number	1
_symmetry_cell_setting	triclinic
loop_
_symmetry_equiv_pos_as_xyz
  x,y,z
_cell_length_a	23.532407
_cell_length_b	23.532407
_cell_length_c	22.010155
_cell_angle_alpha	90.003069
_cell_angle_beta	89.999577
_cell_angle_gamma	97.151322
loop_
_atom_site_label
_atom_site_type_symbol
_atom_site_fract_x
_atom_site_fract_y
_atom_site_fract_z
O1	O	0.069127	-0.755264	-0.050455
O2	O	0.079130	-0.589400	-0.050474
O3	O	-0.008803	-0.677334	-0.050453
O4	O	0.157060	-0.667330	-0.050476
O5	O	-0.008790	-0.677318	0.050597
O6	O	0.079143	-0.589384	0.050576
O7	O	0.069140	-0.755248	0.050595
Cu8	Cu	0.074143	-0.672315	0.059812
Cu9	Cu	0.074127	-0.672333	-0.059691
O10	O	0.157073	-0.667314	0.050574
C11	C	0.078882	-0.568176	0.000049
C12	C	0.078116	-0.504959	0.000042
C13	C	-0.030013	-0.677071	0.000074
C14	C	-0.093230	-0.676305	0.000078
C15	C	0.069388	-0.776472	0.000071
C16	C	0.070154	-0.839689	0.000073
C17	C	-0.492333	-0.723539	0.000050
C18	C	-0.551733	-0.722827	0.000046
O19	O	-0.588478	-0.766613	0.000028
N20	N	-0.574359	-0.670551	0.000040
C21	C	-0.537582	-0.618983	0.000033
O22	O	-0.562281	-0.574452	0.000027
C23	C	-0.478182	-0.619695	0.000033
C24	C	-0.455560	-0.671974	0.000045
C25	C	-0.469710	-0.775814	0.000061
C26	C	-0.410313	-0.776525	0.000067
C27	C	-0.373540	-0.724961	0.000062
C28	C	-0.396164	-0.672685	0.000051
C29	C	-0.441406	-0.568127	0.000022
C30	C	-0.382004	-0.568844	0.000022
C31	C	-0.359381	-0.621123	0.000034
C32	C	-0.299995	-0.621832	0.000052
N33	N	-0.277368	-0.674109	0.000057
C34	C	-0.314141	-0.725673	0.000062
C35	C	-0.662324	-0.617491	0.000031
C36	C	-0.721722	-0.616778	0.000035
C37	C	-0.735869	-0.720623	0.000047
C38	C	-0.676470	-0.721335	0.000047
C39	C	-0.639698	-0.669767	0.000037
C40	C	-0.189405	-0.727163	0.000075
C41	C	-0.130003	-0.727869	0.000083
C42	C	-0.115860	-0.624025	0.000069
C43	C	-0.175257	-0.623318	0.000064
C44	C	-0.212029	-0.674891	0.000065
O45	O	-0.263215	-0.578070	0.000067
O46	O	-0.289433	-0.770196	0.000060
C47	C	0.178283	-0.667577	0.000046
C48	C	0.241500	-0.668343	0.000037
N49	N	0.074153	-0.672305	0.143865
C50	C	0.125350	-0.105856	0.000063
C51	C	0.124638	-0.046456	0.000067
O52	O	0.168424	-0.009711	0.000083
N53	N	0.072362	-0.023830	0.000073
C54	C	0.020794	-0.060607	0.000082
O55	O	-0.023737	-0.035908	0.000088
C56	C	0.021506	-0.120006	0.000082
C57	C	0.073785	-0.142629	0.000070
C58	C	0.177625	-0.128479	0.000051
C59	C	0.178336	-0.187876	0.000046
C60	C	0.126772	-0.224649	0.000053
C61	C	0.074497	-0.202025	0.000065
C62	C	-0.030062	-0.156783	0.000096
C63	C	-0.029345	-0.216185	0.000097
C64	C	0.022934	-0.238808	0.000084
C65	C	0.023643	-0.298194	0.000067
N66	N	0.075920	-0.320820	0.000061
C67	C	0.127484	-0.284048	0.000054
C68	C	0.019302	0.064135	0.000082
C69	C	0.018589	0.123533	0.000077
C70	C	0.122434	0.137680	0.000063
C71	C	0.123146	0.078281	0.000064
C72	C	0.071578	0.041509	0.000076
C73	C	0.128974	-0.408784	0.000043
C74	C	0.129680	-0.468186	0.000035
C75	C	0.025836	-0.482329	0.000052
C76	C	0.025129	-0.422932	0.000057
C77	C	0.076702	-0.386160	0.000054
O78	O	-0.020119	-0.334974	0.000054
O79	O	0.172007	-0.308755	0.000055
N80	N	0.074112	-0.672347	-0.143744
C81	C	0.035196	-0.711273	0.563653
C82	C	0.035192	-0.711275	0.627261
O83	O	0.002076	-0.744384	0.660160
N84	N	0.074115	-0.672333	0.659072
C85	C	0.113041	-0.633382	0.627272
O86	O	0.146148	-0.600259	0.660170
C87	C	0.113042	-0.633377	0.563665
C88	C	0.074120	-0.672326	0.531858
C89	C	-0.003723	-0.750217	0.531846
C90	C	-0.003719	-0.750215	0.468243
C91	C	0.035205	-0.711268	0.436447
C92	C	0.074125	-0.672324	0.468255
C93	C	0.151965	-0.594424	0.531866
C94	C	0.151962	-0.594422	0.468256
C95	C	0.113040	-0.633370	0.436448
C96	C	0.113054	-0.633374	0.372856
N97	N	0.074130	-0.672317	0.341045
C98	C	0.035206	-0.711263	0.372841
C99	C	0.113036	-0.633395	0.760850
C100	C	0.113039	-0.633402	0.824455
C101	C	0.035188	-0.711294	0.824440
C102	C	0.035189	-0.711290	0.760833
C103	C	0.074113	-0.672337	0.729039
C104	C	0.035220	-0.711256	0.239269
C105	C	0.035229	-0.711252	0.175660
C106	C	0.113077	-0.633358	0.175681
C107	C	0.113070	-0.633364	0.239284
C108	C	0.074136	-0.672315	0.271077
O109	O	0.146151	-0.600282	0.339916
O110	O	0.002100	-0.744376	0.339935
H111	H	-0.111587	-0.770443	0.000094
H112	H	0.183658	-0.562700	0.442372
H113	H	-0.632386	-0.575496	0.000028
C114	C	0.155886	-0.590516	0.140698
H115	H	0.150306	-0.596091	0.098261
H116	H	0.193869	-0.596475	0.151117
H117	H	0.149883	-0.552544	0.151125
H118	H	-0.459814	-0.525555	0.000009
C119	C	-0.007629	-0.754128	0.725851
H120	H	-0.030811	-0.777320	0.753902
H121	H	0.012734	-0.777717	0.701032
H122	H	-0.031237	-0.733772	0.701044
C123	C	0.179156	0.178136	0.000060
H124	H	0.210396	0.156159	0.000051
H125	H	0.181037	0.201603	0.035299
H126	H	0.181030	0.201599	-0.035182
H127	H	-0.740136	-0.574207	0.000036
C128	C	-0.229845	-0.783892	0.000081
H129	H	-0.207856	-0.815123	0.000094
H130	H	-0.253311	-0.785787	-0.035157
H131	H	-0.253310	-0.785768	0.035324
C132	C	-0.038918	0.148412	0.000085
H133	H	-0.069523	0.117999	0.000092
H134	H	-0.041363	0.171289	-0.035151
H135	H	-0.041351	0.171287	0.035331
C136	C	0.155861	-0.590501	0.274274
H137	H	0.179034	-0.567297	0.246225
H138	H	0.179473	-0.610823	0.299105
H139	H	0.135461	-0.566919	0.299068
C140	C	-0.385436	-0.834033	0.000068
H141	H	-0.415850	-0.864637	0.000063
H142	H	-0.362558	-0.836473	0.035305
H143	H	-0.362562	-0.836474	-0.035176
C144	C	0.235844	-0.212753	0.000044
H145	H	0.266448	-0.182339	0.000048
H146	H	0.238286	-0.235634	-0.035192
H147	H	0.238283	-0.235625	0.035289
H148	H	-0.499645	-0.817806	0.000063
H149	H	-0.658056	-0.763906	0.000056
C150	C	-0.037426	0.023690	0.000082
H151	H	-0.068658	0.045677	0.000079
H152	H	-0.039310	0.000223	0.035318
H153	H	-0.039311	0.000225	-0.035163
C154	C	-0.075406	-0.567307	0.000059
H155	H	-0.097383	-0.536068	0.000055
H156	H	-0.051940	-0.565439	-0.035179
H157	H	-0.051940	-0.565420	0.035302
C158	C	-0.776327	-0.777344	0.000041
H159	H	-0.814942	-0.769428	0.000031
H160	H	-0.769508	-0.798796	0.035279
H161	H	-0.769498	-0.798794	-0.035202
H162	H	-0.352066	-0.526850	0.000013
H163	H	0.170970	-0.378851	0.000042
H164	H	0.144737	-0.601676	0.734966
C165	C	-0.087571	-0.131911	0.000118
H166	H	-0.118173	-0.162326	0.000131
H167	H	-0.090024	-0.109034	-0.035117
H168	H	-0.089999	-0.109036	0.035365
C169	C	-0.086072	-0.256632	0.000103
H170	H	-0.117306	-0.234647	0.000105
H171	H	-0.087951	-0.280100	0.035338
H172	H	-0.087957	-0.280095	-0.035143
H173	H	0.172255	-0.486602	0.000025
H174	H	0.219617	-0.098544	0.000048
H175	H	-0.193677	-0.580748	0.000071
C176	C	-0.046541	-0.793066	0.566811
H177	H	-0.069713	-0.816258	0.538750
H178	H	-0.070151	-0.772726	0.591630
H179	H	-0.026170	-0.816661	0.591617
C180	C	-0.032377	-0.398045	0.000064
H181	H	-0.062984	-0.428456	0.000069
H182	H	-0.034819	-0.375165	-0.035170
H183	H	-0.034809	-0.375172	0.035311
C184	C	0.180653	0.053402	0.000055
H185	H	0.211258	0.083814	0.000054
H186	H	0.183088	0.030520	-0.035182
H187	H	0.183096	0.030530	0.035300
C188	C	-0.030880	-0.522786	0.000065
H189	H	-0.022964	-0.561400	0.000068
H190	H	-0.052342	-0.515965	-0.035167
H191	H	-0.052320	-0.515957	0.035315
C192	C	-0.007589	-0.754095	0.140676
H193	H	-0.030775	-0.777285	0.168725
H194	H	0.012777	-0.777685	0.115861
H195	H	-0.031194	-0.733740	0.115865
C196	C	-0.007604	-0.754104	0.274232
H197	H	-0.030776	-0.777298	0.246172
H198	H	-0.031214	-0.733760	0.299047
H199	H	0.012764	-0.777698	0.299042
C200	C	-0.046540	-0.793052	0.433262
H201	H	-0.069723	-0.816240	0.461316
H202	H	-0.026180	-0.816645	0.408444
H203	H	-0.070147	-0.772695	0.408455
H204	H	0.003493	-0.743006	0.850339
C205	C	0.155853	-0.590559	0.859436
H206	H	0.179030	-0.567362	0.831385
H207	H	0.179459	-0.610904	0.884252
H208	H	0.135479	-0.566968	0.884246
H209	H	0.183658	-0.562708	0.557755
