data_functionalizedCrystal
_audit_creation_method	'MofGen! by Chris Wilmer'
_symmetry_space_group_name_H-M	'P1'
_symmetry_Int_Tables_number	1
_symmetry_cell_setting	triclinic
loop_
_symmetry_equiv_pos_as_xyz
  x,y,z
_cell_length_a	16.992694
_cell_length_b	14.044220
_cell_length_c	15.455313
_cell_angle_alpha	92.908275
_cell_angle_beta	87.142206
_cell_angle_gamma	91.928550
loop_
_atom_site_label
_atom_site_type_symbol
_atom_site_fract_x
_atom_site_fract_y
_atom_site_fract_z
O1	O	1.057683	0.198159	-0.072025
O2	O	0.829244	0.195941	-0.072050
O3	O	0.940034	0.058806	-0.072029
O4	O	0.946893	0.335294	-0.072046
O5	O	0.933696	0.066614	0.072232
O6	O	0.822906	0.203749	0.072211
O7	O	1.051345	0.205967	0.072236
Cu8	Cu	0.936547	0.205571	0.085396
Cu9	Cu	0.944042	0.196337	-0.085210
O10	O	0.940555	0.343102	0.072215
C11	C	0.796663	0.196993	0.000077
C12	C	0.709024	0.188484	0.000068
C13	C	0.933863	0.027168	0.000101
C14	C	0.924909	-0.078736	0.000101
C15	C	0.664526	0.270581	0.000063
C16	C	0.582179	0.262581	0.000076
C17	C	0.544332	0.172483	0.000086
C18	C	0.588836	0.090381	0.000093
C19	C	0.671181	0.098382	0.000087
C20	C	0.298414	0.139322	0.000112
C21	C	0.216063	0.131327	0.000115
C22	C	0.209411	0.303528	0.000100
C23	C	0.291759	0.311521	0.000088
C24	C	0.336255	0.229419	0.000099
N25	N	0.460161	0.164304	0.000096
N26	N	0.420425	0.237599	0.000096
C27	C	0.908540	-0.272638	0.000087
C28	C	0.972046	-0.325460	0.000092
C29	C	0.962938	-0.433354	0.000084
C30	C	0.917647	-0.164734	0.000095
C31	C	1.083926	0.204915	0.000107
C32	C	1.171565	0.213424	0.000111
C33	C	0.946726	0.374740	0.000083
C34	C	0.955680	0.480644	0.000077
N35	N	0.931281	0.212065	0.205390
N36	N	0.949314	0.189836	-0.205204
C37	C	0.978368	0.153829	0.250793
C38	C	0.974393	0.158750	0.341600
C39	C	0.923335	0.221911	0.387003
C40	C	0.876243	0.280149	0.341594
C41	C	0.880214	0.275223	0.250788
C42	C	0.906193	0.243148	0.658581
C43	C	0.902227	0.248072	0.749393
C44	C	1.000377	0.126671	0.749394
C45	C	1.004347	0.121754	0.658586
C46	C	0.957251	0.179989	0.613185
N47	N	0.919273	0.226945	0.479822
N48	N	0.961310	0.174950	0.520367
H49	H	0.695334	0.343947	0.000054
Br50	Br	1.073643	0.036039	0.596967
H51	H	1.033258	-0.289655	0.000040
Br52	Br	0.806525	-0.332318	0.000068
Br53	Br	0.731573	-0.013039	0.000100
Br54	Br	1.047671	0.068113	0.189185
Br55	Br	0.358792	0.027897	0.000129
Br56	Br	0.343117	0.433800	0.000064
H57	H	1.012735	0.111329	0.378567
H58	H	1.038719	0.079258	0.786368
H59	H	0.860647	0.299509	0.786355
H60	H	0.867847	0.290567	0.621622
H61	H	0.834666	0.331573	0.378565
H62	H	0.841869	0.322643	0.213822
H63	H	0.173174	0.370371	0.000092
Br64	Br	0.521791	0.374003	0.000067
H65	H	0.185251	0.057956	0.000123
H66	H	0.558015	0.017022	0.000114
