data_functionalizedCrystal
_audit_creation_method	'MofGen! by Chris Wilmer'
_symmetry_space_group_name_H-M	'P1'
_symmetry_Int_Tables_number	1
_symmetry_cell_setting	triclinic
loop_
_symmetry_equiv_pos_as_xyz
  x,y,z
_cell_length_a	10.654541
_cell_length_b	13.596369
_cell_length_c	10.654545
_cell_angle_alpha	90.003630
_cell_angle_beta	84.484678
_cell_angle_gamma	90.003965
loop_
_atom_site_label
_atom_site_type_symbol
_atom_site_fract_x
_atom_site_fract_y
_atom_site_fract_z
O1	O	1.667846	0.081756	0.176387
O2	O	1.302367	0.081764	0.193196
O3	O	1.493509	0.081759	0.002052
O4	O	1.476704	0.081761	0.367530
O5	O	1.493489	-0.081824	0.002041
O6	O	1.302348	-0.081819	0.193185
O7	O	1.667827	-0.081827	0.176376
Zn8	Zn	1.485084	-0.107795	0.184779
Zn9	Zn	1.485110	0.107732	0.184793
O10	O	1.476685	-0.081822	0.367520
C11	C	1.255559	-0.000027	0.191957
C12	C	1.116116	-0.000023	0.188266
N13	N	1.485076	-0.254887	0.184769
C14	C	1.088146	-0.000010	0.416831
C15	C	1.008652	0.000001	0.529374
C16	C	0.877634	0.000002	0.525898
C17	C	0.826108	-0.000011	0.409867
C18	C	0.905602	-0.000022	0.297324
C19	C	1.036622	-0.000020	0.300812
C20	C	0.933572	-0.000042	0.068763
C21	C	1.064590	-0.000036	0.072235
C22	C	0.882046	-0.000055	-0.047269
C23	C	0.961540	-0.000058	-0.159814
C24	C	1.092565	-0.000058	-0.156334
C25	C	1.144084	-0.000047	-0.040308
C26	C	1.485108	-0.656178	0.184794
C27	C	1.485095	-0.544527	0.184791
C28	C	1.485093	-0.455536	0.184783
C29	C	1.485079	-0.343878	0.184778
C30	C	1.714634	-0.000035	0.177615
C31	C	1.854078	-0.000031	0.181306
C32	C	1.492265	-0.000031	-0.044751
C33	C	1.488572	-0.000025	-0.184195
N34	N	1.485128	0.254824	0.184793
C35	C	1.488608	0.178318	-0.184192
C36	C	1.486896	0.267489	-0.249700
C37	C	1.483427	0.267491	-0.380719
C38	C	1.481666	0.178311	-0.446232
C39	C	1.483378	0.089140	-0.380723
C40	C	1.486851	0.089148	-0.249702
C41	C	1.483333	-0.089201	-0.380725
C42	C	1.486811	-0.089204	-0.249707
C43	C	1.481572	-0.178381	-0.446238
C44	C	1.483293	-0.267554	-0.380730
C45	C	1.486764	-0.267551	-0.249704
C46	C	1.488523	-0.178376	-0.184199
C47	C	1.477929	-0.000031	0.414323
C48	C	1.481621	-0.000030	0.553766
H49	H	1.194826	0.000011	0.419672
F50	F	1.492322	0.178324	-0.044752
F51	F	0.686666	-0.000025	0.406174
H52	H	1.482022	0.340102	-0.434054
H53	H	1.050619	0.000008	0.623844
F54	F	0.742604	-0.000059	-0.050965
H55	H	1.488139	-0.340166	-0.196372
F56	F	1.477869	-0.178377	-0.585679
H57	H	1.478826	0.178320	-0.552912
F58	F	0.793029	0.000005	0.645678
F59	F	1.481406	-0.362454	-0.450458
H60	H	0.919576	-0.000068	-0.254278
F61	F	1.177160	-0.000077	-0.276121
H62	H	1.250764	-0.000035	-0.037463
H63	H	1.491355	-0.178365	-0.077517
F64	F	1.488797	0.362396	-0.179972
