data_functionalizedCrystal
_audit_creation_method	'MofGen! by Chris Wilmer'
_symmetry_space_group_name_H-M	'P1'
_symmetry_Int_Tables_number	1
_symmetry_cell_setting	triclinic
loop_
_symmetry_equiv_pos_as_xyz
  x,y,z
_cell_length_a	13.635800
_cell_length_b	17.253917
_cell_length_c	9.582880
_cell_angle_alpha	83.284586
_cell_angle_beta	111.207034
_cell_angle_gamma	77.340689
loop_
_atom_site_label
_atom_site_type_symbol
_atom_site_fract_x
_atom_site_fract_y
_atom_site_fract_z
V1	V	2.060133	-0.110944	0.480761
O2	O	2.051100	0.005681	0.456994
O3	O	2.037399	-0.220320	0.491528
O4	O	2.055490	-0.109085	0.684024
O5	O	2.032884	-0.106325	0.263166
V6	V	2.299223	-0.097013	0.453027
O7	O	2.196623	-0.141504	0.541596
O8	O	2.387832	-0.066453	0.392191
O9	O	2.210354	0.012363	0.442259
O10	O	2.366955	-0.213638	0.476793
O11	O	2.385171	-0.101632	0.670622
O12	O	2.192264	-0.098873	0.249763
V13	V	2.560133	-0.110944	0.480761
O14	O	2.551100	0.005681	0.456994
O15	O	2.537399	-0.220320	0.491528
O16	O	2.555490	-0.109085	0.684024
O17	O	2.532884	-0.106325	0.263166
V18	V	2.799223	-0.097013	0.453027
O19	O	2.696623	-0.141504	0.541596
O20	O	2.887832	-0.066453	0.392191
O21	O	2.710354	0.012363	0.442259
O22	O	2.866955	-0.213638	0.476793
O23	O	2.885171	-0.101632	0.670622
O24	O	2.692264	-0.098873	0.249763
C25	C	1.959624	-0.246988	0.487571
C26	C	1.981810	-0.336403	0.497730
C27	C	1.958729	-0.367024	0.364003
C28	C	1.979585	-0.451039	0.373554
C29	C	2.023515	-0.504433	0.516831
C30	C	2.046600	-0.473807	0.650568
C31	C	2.025751	-0.389793	0.641017
C32	C	2.089470	-0.756920	0.560249
C33	C	2.110315	-0.840939	0.569790
C34	C	2.043301	-0.818165	0.292775
C35	C	2.022448	-0.734150	0.283236
C36	C	2.045540	-0.703532	0.416973
N37	N	2.044832	-0.590310	0.526597
N38	N	2.024231	-0.617656	0.407207
C39	C	1.982699	-0.105095	0.733116
C40	C	2.019554	-0.104299	0.899378
C41	C	2.119800	0.039027	0.446213
C42	C	2.087235	0.128441	0.436064
C43	C	2.096725	-0.102864	0.200663
C44	C	2.049489	-0.103657	0.034400
C45	C	2.459624	-0.246988	0.487571
C46	C	2.481810	-0.336403	0.497730
C47	C	2.482699	-0.105095	0.733116
C48	C	2.519554	-0.104299	0.899378
C49	C	2.619800	0.039027	0.446213
C50	C	2.587235	0.128441	0.436064
C51	C	2.596725	-0.102864	0.200663
C52	C	2.549489	-0.103657	0.034400
C53	C	2.584082	-0.382489	0.510500
C54	C	2.604948	-0.466506	0.520069
C55	C	2.523537	-0.504435	0.516856
C56	C	2.421257	-0.458343	0.504088
C57	C	2.400395	-0.374329	0.494531
C58	C	2.657456	0.174526	0.423298
C59	C	2.626863	0.258543	0.413737
C60	C	2.526051	0.296472	0.416953
C61	C	2.455824	0.250380	0.429716
C62	C	2.486414	0.166366	0.439266
H63	H	1.922949	-0.323555	0.247330
H64	H	2.540538	-0.572846	0.524639
O65	O	2.755311	0.137753	0.419886
C66	C	2.758776	0.171606	0.281107
H67	H	2.671615	0.199867	0.191196
H68	H	2.803899	0.121845	0.239579
H69	H	2.803617	0.220479	0.300325
H70	H	1.986683	-0.690682	0.166564
H71	H	2.684060	0.296059	0.403347
O72	O	2.496535	0.378086	0.407734
C73	C	2.580131	0.410623	0.395742
H74	H	2.661193	0.360557	0.444817
H75	H	2.587900	0.461011	0.462641
H76	H	2.558898	0.436613	0.270074
H77	H	2.024504	-0.843104	0.183894
H78	H	2.082377	-0.517287	0.767229
H79	H	2.373740	0.281275	0.432332
O80	O	2.342284	-0.495315	0.500913
C81	C	2.382651	-0.579352	0.512118
H82	H	2.452803	-0.590370	0.472200
H83	H	2.314091	-0.602619	0.436867
H84	H	2.413698	-0.613022	0.636343
H85	H	2.317111	-0.336811	0.484125
H86	H	2.429229	0.128848	0.449674
H87	H	2.650382	-0.351618	0.513109
O88	O	1.957050	-0.480646	0.243496
C89	C	1.913824	-0.415505	0.114991
H90	H	1.876887	-0.357536	0.146019
H91	H	1.847496	-0.429640	0.016630
H92	H	1.982131	-0.406665	0.078410
O93	O	2.153051	-0.892697	0.709107
C94	C	2.168942	-0.847658	0.825098
H95	H	2.176152	-0.785850	0.780462
H96	H	2.247323	-0.882075	0.928968
H97	H	2.096205	-0.838628	0.859661
H98	H	2.108261	-0.732001	0.669147
H99	H	2.044557	-0.364865	0.749912
O100	O	2.704344	-0.511142	0.532382
C101	C	2.771720	-0.459644	0.533182
H102	H	2.718276	-0.394609	0.475928
H103	H	2.824131	-0.480704	0.467751
H104	H	2.827235	-0.461977	0.656512
