data_functionalizedCrystal
_audit_creation_method	'MofGen! by Chris Wilmer'
_symmetry_space_group_name_H-M	'P1'
_symmetry_Int_Tables_number	1
_symmetry_cell_setting	triclinic
loop_
_symmetry_equiv_pos_as_xyz
  x,y,z
_cell_length_a	17.640112
_cell_length_b	12.645330
_cell_length_c	12.645331
_cell_angle_alpha	90.004032
_cell_angle_beta	78.812412
_cell_angle_gamma	101.237348
loop_
_atom_site_label
_atom_site_type_symbol
_atom_site_fract_x
_atom_site_fract_y
_atom_site_fract_z
Zn1	Zn	1.208287	-0.094183	0.272316
Zn2	Zn	1.208254	-0.271409	0.095058
Zn3	Zn	1.076148	-0.130031	0.130834
Zn4	Zn	1.076102	-0.307297	0.308051
O5	O	1.142198	-0.200730	0.201565
O6	O	1.318889	-0.087670	0.218875
O7	O	1.190735	-0.252638	-0.048545
O8	O	1.093709	0.023081	0.149619
O9	O	1.318865	-0.217877	0.088645
O10	O	1.190791	0.049418	0.253565
O11	O	1.093677	-0.148768	-0.022261
O12	O	0.965535	-0.183567	0.184269
O13	O	1.093631	-0.279044	0.451659
O14	O	0.965501	-0.313804	0.314470
O15	O	1.190747	-0.122470	0.425405
O16	O	1.190691	-0.424526	0.123295
O17	O	1.093599	-0.450893	0.279780
C18	C	0.936839	-0.256471	0.257130
C19	C	0.848986	-0.280343	0.280926
C20	C	0.560025	-0.019360	0.020796
C21	C	0.477473	-0.041812	0.043171
C22	C	0.477492	-0.177614	0.178515
C23	C	0.560046	-0.155169	0.156155
C24	C	0.601305	-0.076042	0.077294
C25	C	0.601326	-0.211852	0.212653
C26	C	0.683872	-0.189412	0.190291
C27	C	0.725138	-0.110290	0.111431
C28	C	0.683851	-0.053602	0.054932
C29	C	0.560065	-0.290984	0.291508
C30	C	0.601346	-0.347666	0.348006
C31	C	0.683893	-0.325222	0.325650
C32	C	0.725159	-0.246100	0.246790
C33	C	0.725180	-0.381910	0.382149
C34	C	0.807726	-0.359471	0.359787
C35	C	0.807705	-0.223661	0.224428
C36	C	1.142158	-0.476170	0.201550
C37	C	1.142214	-0.593985	0.201560
C38	C	1.203196	-0.744944	0.102976
C39	C	1.203394	-0.622330	0.103123
C40	C	1.164777	-0.632285	0.307196
C41	C	1.165261	-0.754752	0.306630
C42	C	1.058643	-0.783993	0.195616
C43	C	1.059044	-0.661279	0.193001
C44	C	1.348358	-0.144772	0.145783
C45	C	1.436212	-0.120926	0.122012
C46	C	1.142188	-0.200762	0.478073
C47	C	1.142183	-0.200775	0.595904
C48	C	1.142259	0.075792	0.201597
C49	C	1.142285	0.193629	0.201610
C50	C	1.081081	-0.299280	0.657304
C51	C	1.080837	-0.299092	0.779930
C52	C	1.119866	-0.095010	0.769852
C53	C	1.119427	-0.095616	0.647373
C54	C	1.225747	-0.206992	0.618471
C55	C	1.225295	-0.209567	0.741199
C56	C	1.142194	-0.200735	0.926136
C57	C	1.142175	-0.200755	0.808311
H58	H	1.189280	-0.596126	0.024087
Cl59	Cl	1.098361	-0.605375	0.422205
H60	H	0.717447	0.010847	-0.009269
Cl61	Cl	0.859581	-0.124177	0.125294
Cl62	Cl	0.985196	-0.634103	0.298593
Cl63	Cl	1.258104	-0.559431	0.320011
Cl64	Cl	1.299309	-0.104111	0.768440
Cl65	Cl	0.611900	0.080124	-0.078338
H66	H	0.841338	-0.405626	0.405795
Cl67	Cl	1.181685	-0.796367	-0.019504
Cl68	Cl	1.025132	-0.083466	0.628743
Cl69	Cl	0.673301	-0.481401	0.481264
Cl70	Cl	1.299042	-0.550959	0.106482
H71	H	1.094847	-0.378701	0.624098
Cl72	Cl	1.251279	-0.329546	0.779066
Cl73	Cl	1.186464	0.019895	0.796808
H74	H	1.264815	-0.758950	0.105024
Cl75	Cl	1.026603	-0.081912	0.842497
Cl76	Cl	1.185172	0.019707	0.583752
H77	H	1.246111	-0.281613	0.582040
Cl78	Cl	0.425616	-0.277098	0.277638
H79	H	0.792352	-0.092024	0.093224
Cl80	Cl	0.425580	0.029447	-0.027872
H81	H	1.226399	-0.766674	0.314336
H82	H	1.038119	-0.820543	0.121107
Cl83	Cl	1.099732	-0.818394	0.422075
Cl84	Cl	1.032769	-0.623587	0.073154
Cl85	Cl	0.988574	-0.847844	0.306952
H86	H	1.018915	-0.296739	0.826021
Cl87	Cl	1.102334	-0.421236	0.820567
H88	H	1.271267	-0.134967	0.577145
Cl89	Cl	0.456291	-0.319207	0.319607
Cl90	Cl	0.549469	-0.447150	0.447130
H91	H	1.019514	-0.297069	0.643160
