data_functionalizedCrystal
_audit_creation_method	'MofGen! by Chris Wilmer'
_symmetry_space_group_name_H-M	'P1'
_symmetry_Int_Tables_number	1
_symmetry_cell_setting	triclinic
loop_
_symmetry_equiv_pos_as_xyz
  x,y,z
_cell_length_a	11.026607
_cell_length_b	9.482900
_cell_length_c	11.792254
_cell_angle_alpha	99.383138
_cell_angle_beta	96.392307
_cell_angle_gamma	78.618164
loop_
_atom_site_label
_atom_site_type_symbol
_atom_site_fract_x
_atom_site_fract_y
_atom_site_fract_z
O1	O	1.594443	0.120909	0.489791
O2	O	2.094443	0.620909	0.989791
O3	O	1.240778	0.120909	0.435599
O4	O	1.740778	0.620909	0.935599
O5	O	1.426186	0.120899	0.299227
O6	O	1.926186	0.620899	0.799227
O7	O	1.409034	0.120919	0.626163
O8	O	1.909034	0.620919	1.126163
O9	O	1.463916	-0.120896	0.271463
O10	O	1.963916	0.379104	0.771463
O11	O	1.278507	-0.120885	0.407835
O12	O	1.778507	0.379115	0.907835
O13	O	1.632172	-0.120886	0.462027
O14	O	2.132172	0.379114	0.962027
Cu15	Cu	1.458785	-0.142963	0.432396
Cu16	Cu	1.958785	0.357037	0.932396
Cu17	Cu	1.414165	0.142987	0.465230
Cu18	Cu	1.914165	0.642987	0.965230
O19	O	1.446764	-0.120875	0.598399
O20	O	1.946764	0.379125	1.098399
C21	C	1.214365	0.000012	0.411719
C22	C	1.714365	0.500012	0.911719
C23	C	1.079454	0.000012	0.381917
C24	C	1.579454	0.500012	0.881917
C25	C	1.006192	0.000018	0.464208
C26	C	1.506192	0.500018	0.964208
C27	C	0.866754	0.000018	0.433407
C28	C	1.366754	0.500018	0.933407
C29	C	1.443971	0.000002	0.242839
C30	C	1.943971	0.500002	0.742839
C31	C	1.440737	0.000003	0.116185
C32	C	1.940737	0.500003	0.616185
C33	C	1.658584	0.000015	0.485907
C34	C	2.158584	0.500015	0.985907
C35	C	1.793494	0.000024	0.515711
C36	C	2.293494	0.500024	1.015711
N37	N	1.382783	0.344109	0.488315
N38	N	1.882783	0.844109	0.988315
N39	N	1.490176	-0.344085	0.409303
N40	N	1.990176	0.155915	0.909303
C41	C	1.449535	0.416304	0.439214
C42	C	1.949535	0.916304	0.939214
C43	C	1.423415	0.583723	0.458412
C44	C	1.923415	1.083723	0.958412
C45	C	1.438109	0.000009	0.013327
C46	C	1.938109	0.500009	0.513327
C47	C	1.434822	0.000022	-0.115710
C48	C	1.934822	0.500022	0.384290
C49	C	1.428979	0.000025	0.654787
C50	C	1.928979	0.500025	1.154787
C51	C	1.432211	0.000033	0.781443
C52	C	1.932211	0.500033	1.281443
H53	H	1.046702	0.000016	0.557462
H54	H	1.546702	0.500016	1.057462
Br55	Br	1.577031	0.312760	0.345468
Br56	Br	2.077031	0.812760	0.845468
Br57	Br	0.799259	-0.000008	0.277962
Br58	Br	1.299259	0.499992	0.777962
Br59	Br	0.860992	0.000007	0.671152
Br60	Br	1.360992	0.500007	1.171152
Br61	Br	1.011953	-0.000014	0.226477
Br62	Br	1.511953	0.499986	0.726477
Br63	Br	1.295934	0.687266	0.552183
Br64	Br	1.795934	1.187266	1.052183
H65	H	1.566672	0.593786	0.353055
H66	H	2.066672	1.093786	0.853055
H67	H	1.306302	0.406243	0.544570
H68	H	1.806302	0.906243	1.044570
