data_functionalizedCrystal
_audit_creation_method	'MofGen! by Chris Wilmer'
_symmetry_space_group_name_H-M	'P1'
_symmetry_Int_Tables_number	1
_symmetry_cell_setting	triclinic
loop_
_symmetry_equiv_pos_as_xyz
  x,y,z
_cell_length_a	12.759401
_cell_length_b	16.625545
_cell_length_c	12.759393
_cell_angle_alpha	90.032830
_cell_angle_beta	90.020938
_cell_angle_gamma	90.027083
loop_
_atom_site_label
_atom_site_type_symbol
_atom_site_fract_x
_atom_site_fract_y
_atom_site_fract_z
Zn1	Zn	1.606187	-0.320930	0.594003
Zn2	Zn	2.106187	0.179070	1.094003
Zn3	Zn	1.606045	-0.455784	0.418316
Zn4	Zn	2.106045	0.044216	0.918316
Zn5	Zn	1.430486	-0.320973	0.418338
Zn6	Zn	1.930486	0.179027	0.918338
Zn7	Zn	1.430444	-0.455728	0.593953
Zn8	Zn	1.930444	0.044272	1.093953
O9	O	1.518291	-0.388354	0.506153
O10	O	2.018291	0.111646	1.006153
O11	O	1.753189	-0.338824	0.570709
O12	O	2.253189	0.161176	1.070709
O13	O	1.582714	-0.437943	0.271298
O14	O	2.082714	0.062057	0.771298
O15	O	1.453870	-0.208135	0.441671
O16	O	1.953870	0.291865	0.941671
O17	O	1.753085	-0.437901	0.441633
O18	O	2.253085	0.062099	0.941633
O19	O	1.582957	-0.208103	0.570731
O20	O	2.082957	0.291897	1.070731
O21	O	1.453732	-0.338897	0.271314
O22	O	1.953732	0.161103	0.771314
O23	O	1.283459	-0.338843	0.441622
O24	O	1.783459	0.161157	0.941622
O25	O	1.453799	-0.437805	0.740981
O26	O	1.953799	0.062195	1.240981
O27	O	1.283429	-0.437847	0.570646
O28	O	1.783429	0.062153	1.070646
O29	O	1.582917	-0.338770	0.741018
O30	O	2.082917	0.161230	1.241018
O31	O	1.582674	-0.568609	0.441585
O32	O	2.082674	-0.068609	0.941585
O33	O	1.453661	-0.568568	0.570624
O34	O	1.953661	-0.068568	1.070624
C35	C	1.245323	-0.388344	0.506132
C36	C	1.745323	0.111656	1.006132
C37	C	1.128547	-0.388359	0.506148
C38	C	1.628547	0.111641	1.006148
C39	C	1.073696	-0.439989	0.573225
C40	C	1.573696	0.060011	1.073225
C41	C	0.963972	-0.439992	0.573245
C42	C	1.463972	0.060008	1.073245
C43	C	0.963958	-0.336733	0.439104
C44	C	1.463958	0.163267	0.939104
C45	C	1.073680	-0.336727	0.439089
C46	C	1.573680	0.163273	0.939089
C47	C	1.518176	-0.597844	0.506120
C48	C	2.018176	-0.097844	1.006120
C49	C	1.518224	-0.687466	0.506141
C50	C	2.018224	-0.187466	1.006141
C51	C	1.518265	-0.760248	0.506161
C52	C	2.018265	-0.260248	1.006161
C53	C	1.518326	-0.851556	0.506185
C54	C	2.018326	-0.351556	1.006185
C55	C	1.518380	-0.924333	0.506198
C56	C	2.018380	-0.424333	1.006198
C57	C	1.518440	-1.015647	0.506219
C58	C	2.018440	-0.515647	1.006219
C59	C	1.792324	-0.388364	0.506174
C60	C	2.292324	0.111636	1.006174
C61	C	1.909100	-0.388369	0.506183
C62	C	2.409100	0.111631	1.006183
C63	C	1.518369	-0.388276	0.780186
C64	C	2.018369	0.111724	1.280186
C65	C	1.518403	-0.388243	0.896963
C66	C	2.018403	0.111757	1.396963
C67	C	1.518434	-0.178045	0.506209
C68	C	2.018434	0.321955	1.006209
C69	C	1.518495	-0.088424	0.506233
C70	C	2.018495	0.411576	1.006233
C71	C	1.518273	-0.388373	0.233185
C72	C	2.018273	0.111627	0.733185
C73	C	1.518443	-0.388178	0.116409
C74	C	2.018443	0.111822	0.616409
C75	C	1.585639	-0.336667	0.951846
C76	C	2.085639	0.163333	1.451846
C77	C	1.585657	-0.336632	1.061570
C78	C	2.085657	0.163368	1.561570
C79	C	1.451199	-0.439757	1.061519
C80	C	1.951199	0.060243	1.561519
C81	C	1.451177	-0.439787	0.951797
C82	C	1.951177	0.060213	1.451797
H83	H	0.919273	-0.294697	0.384505
H84	H	1.419273	0.205303	0.884505
C85	C	1.133077	-0.496068	0.646153
C86	C	1.633077	0.003932	1.146153
C87	C	1.061551	-0.541267	0.704922
C88	C	1.561551	-0.041267	1.204922
C89	C	1.116210	-0.592927	0.772129
C90	C	1.616210	-0.092927	1.272129
H91	H	1.175846	-0.531234	0.605998
H92	H	1.675846	-0.031234	1.105998
H93	H	1.175895	-0.465280	0.692051
H94	H	1.675895	0.034720	1.192051
H95	H	1.018751	-0.572053	0.659030
H96	H	1.518751	-0.072053	1.159030
H97	H	1.018779	-0.506123	0.745098
H98	H	1.518779	-0.006123	1.245098
H99	H	1.159028	-0.562139	0.818027
H100	H	1.659028	-0.062139	1.318027
H101	H	1.158977	-0.628088	0.731965
H102	H	1.658977	-0.128088	1.231965
H103	H	1.067688	-0.623595	0.812018
H104	H	1.567688	-0.123595	1.312018
H105	H	1.396417	-0.481785	0.907110
H106	H	1.896417	0.018215	1.407110
C107	C	1.378108	-0.495754	1.120866
C108	C	1.878108	0.004246	1.620866
C109	C	1.319200	-0.540913	1.049313
C110	C	1.819200	-0.040913	1.549313
C111	C	1.251850	-0.592502	1.103942
C112	C	1.751850	-0.092502	1.603942
H113	H	1.418167	-0.530947	1.163667
H114	H	1.918167	-0.030947	1.663667
H115	H	1.332305	-0.464915	1.163649
H116	H	1.832305	0.035085	1.663649
H117	H	1.364998	-0.571750	1.006547
H118	H	1.864998	-0.071750	1.506547
H119	H	1.279120	-0.505741	1.006510
H120	H	1.779120	-0.005741	1.506510
H121	H	1.206047	-0.561663	1.146725
H122	H	1.706047	-0.061663	1.646725
H123	H	1.291917	-0.627690	1.146741
H124	H	1.791917	-0.127690	1.646741
H125	H	1.211866	-0.623143	1.055402
H126	H	1.711866	-0.123143	1.555402
H127	H	1.640406	-0.294633	1.106250
H128	H	2.140406	0.205367	1.606250
C129	C	0.904365	-0.495916	0.646201
C130	C	1.404365	0.004084	1.146201
C131	C	0.841456	-0.450328	0.713678
C132	C	1.341456	0.049672	1.213678
C133	C	0.786543	-0.501818	0.780913
C134	C	1.286543	-0.001818	1.280913
H135	H	0.861436	-0.531027	0.606059
H136	H	1.361436	-0.031027	1.106059
H137	H	0.952727	-0.526648	0.686196
H138	H	1.452727	-0.026648	1.186196
H139	H	0.793101	-0.419609	0.673688
H140	H	1.293101	0.080391	1.173688
H141	H	0.884360	-0.415219	0.753844
H142	H	1.384360	0.084781	1.253844
H143	H	0.834904	-0.532551	0.820907
H144	H	1.334904	-0.032551	1.320907
H145	H	0.743619	-0.536927	0.740762
H146	H	1.243619	-0.036927	1.240762
H147	H	0.743860	-0.470895	0.826710
H148	H	1.243860	0.029105	1.326710
C149	C	1.133051	-0.280638	0.366142
C150	C	1.633051	0.219362	0.866142
C151	C	1.061520	-0.235442	0.307391
C152	C	1.561520	0.264558	0.807391
C153	C	1.116174	-0.183773	0.240179
C154	C	1.616174	0.316227	0.740179
H155	H	1.175895	-0.245471	0.406292
H156	H	1.675895	0.254529	0.906292
H157	H	1.175793	-0.311420	0.320233
H158	H	1.675793	0.188580	0.820233
H159	H	1.018796	-0.204662	0.353294
H160	H	1.518796	0.295338	0.853294
H161	H	1.018674	-0.270588	0.267219
H162	H	1.518674	0.229412	0.767219
H163	H	1.158916	-0.214555	0.194270
H164	H	1.658916	0.285445	0.694270
H165	H	1.159016	-0.148611	0.280338
H166	H	1.659016	0.351389	0.780338
H167	H	1.067649	-0.153107	0.200302
H168	H	1.567649	0.346893	0.700302
H169	H	1.640376	-0.294695	0.907203
H170	H	2.140376	0.205305	1.407203
