data_functionalizedCrystal
_audit_creation_method	'MofGen! by Chris Wilmer'
_symmetry_space_group_name_H-M	'P1'
_symmetry_Int_Tables_number	1
_symmetry_cell_setting	triclinic
loop_
_symmetry_equiv_pos_as_xyz
  x,y,z
_cell_length_a	15.944551
_cell_length_b	13.339070
_cell_length_c	12.376457
_cell_angle_alpha	104.410245
_cell_angle_beta	101.276265
_cell_angle_gamma	80.435984
loop_
_atom_site_label
_atom_site_type_symbol
_atom_site_fract_x
_atom_site_fract_y
_atom_site_fract_z
O1	O	0.409519	-1.361721	-0.094056
O2	O	0.909519	-0.861721	0.405944
O3	O	0.354248	-1.067189	-0.094048
O4	O	0.854248	-0.567189	0.405952
O5	O	0.261484	-1.222496	-0.094042
O6	O	0.761484	-0.722496	0.405958
O7	O	0.502283	-1.206414	-0.094062
O8	O	1.002283	-0.706414	0.405938
O9	O	0.284634	-1.183683	0.093969
O10	O	0.784634	-0.683683	0.593969
O11	O	0.377398	-1.028376	0.093963
O12	O	0.877398	-0.528376	0.593963
O13	O	0.432670	-1.322908	0.093955
O14	O	0.932670	-0.822908	0.593955
Zn15	Zn	0.408710	-1.169480	0.123810
Zn16	Zn	0.908710	-0.669480	0.623810
Zn17	Zn	0.378208	-1.220618	-0.123903
Zn18	Zn	0.878208	-0.720618	0.376097
O19	O	0.525433	-1.167601	0.093949
O20	O	1.025433	-0.667601	0.593949
C21	C	0.356487	-1.010092	-0.000041
C22	C	0.856487	-0.510092	0.499959
C23	C	0.328657	-0.897788	-0.000038
C24	C	0.828657	-0.397788	0.499962
C25	C	0.241610	-1.202422	-0.000036
C26	C	0.741610	-0.702422	0.499964
C27	C	0.147897	-1.200420	-0.000036
C28	C	0.647897	-0.700420	0.499964
C29	C	0.430431	-1.380005	-0.000054
C30	C	0.930431	-0.880005	0.499946
C31	C	0.458260	-1.492311	-0.000065
C32	C	0.958260	-0.992311	0.499935
C33	C	-0.090507	-1.099369	-0.000048
C34	C	0.409493	-0.599369	0.499952
C35	C	-0.129176	-1.127158	0.092651
C36	C	0.370824	-0.627158	0.592651
C37	C	-0.023674	-1.196799	-0.000044
C38	C	0.476326	-0.696799	0.499956
C39	C	-0.151979	-1.165448	-0.092713
C40	C	0.348021	-0.665448	0.407287
C41	C	-0.189405	-1.193296	-0.000057
C42	C	0.310595	-0.693296	0.499943
C43	C	-0.061099	-1.224599	0.092732
C44	C	0.438901	-0.724599	0.592732
C45	C	-0.083908	-1.262892	-0.092715
C46	C	0.416092	-0.762892	0.407285
C47	C	-0.122540	-1.290747	0.000007
C48	C	0.377460	-0.790747	0.500007
C49	C	0.071800	-1.198814	-0.000036
C50	C	0.571800	-0.698814	0.499964
C51	C	-0.284874	-1.191287	-0.000058
C52	C	0.215126	-0.691287	0.499942
C53	C	0.545308	-1.187676	-0.000059
C54	C	1.045308	-0.687676	0.499941
C55	C	0.639019	-1.189680	-0.000067
C56	C	1.139019	-0.689680	0.499933
N57	N	0.429527	-1.134587	0.292867
N58	N	0.929527	-0.634587	0.792867
C59	C	0.545045	-0.533017	-0.000074
C60	C	1.045045	-0.033017	0.499926
C61	C	0.571195	-0.638533	-0.000081
C62	C	1.071195	-0.138533	0.499919
C63	C	0.510563	-0.703352	-0.000069
C64	C	1.010563	-0.203352	0.499931
C65	C	0.423776	-0.662645	-0.000053
C66	C	0.923776	-0.162645	0.499947
C67	C	0.397623	-0.557120	-0.000055
C68	C	0.897623	-0.057120	0.499945
C69	C	0.363140	-0.727455	-0.000050
C70	C	0.863140	-0.227455	0.499950
C71	C	0.276354	-0.686748	-0.000033
C72	C	0.776354	-0.186748	0.499967
C73	C	0.250205	-0.581233	-0.000035
C74	C	0.750205	-0.081233	0.499965
C75	C	0.310837	-0.516415	-0.000046
C76	C	0.810837	-0.016415	0.499954
C77	C	0.389294	-0.832979	-0.000048
C78	C	0.889294	-0.332979	0.499952
C79	C	0.241871	-0.857082	-0.000029
C80	C	0.741871	-0.357082	0.499971
C81	C	0.215722	-0.751566	-0.000022
C82	C	0.715722	-0.251566	0.499978
N83	N	0.357386	-1.255518	-0.292960
N84	N	0.857386	-0.755518	0.207040
C85	C	0.309045	-1.336516	0.647859
C86	C	0.809045	-0.836516	1.147859
C87	C	0.294473	-1.360931	0.529520
C88	C	0.794473	-0.860931	1.029520
C89	C	0.328235	-1.304347	0.470351
C90	C	0.828235	-0.804347	0.970351
C91	C	0.376572	-1.223343	0.529532
C92	C	0.876572	-0.723343	1.029532
C93	C	0.391151	-1.198930	0.647883
C94	C	0.891151	-0.698930	1.147883
C95	C	0.410341	-1.166762	0.470375
C96	C	0.910341	-0.666762	0.970375
C97	C	0.458678	-1.085758	0.529556
C98	C	0.958678	-0.585758	1.029556
C99	C	0.473254	-1.061349	0.647895
C100	C	0.973254	-0.561349	1.147895
C101	C	0.439492	-1.117933	0.707064
C102	C	0.939492	-0.617933	1.207064
C103	C	0.395762	-1.191175	0.352024
C104	C	0.895762	-0.691175	0.852024
C105	C	0.477868	-1.053590	0.352048
C106	C	0.977868	-0.553590	0.852048
C107	C	0.492440	-1.029174	0.470387
C108	C	0.992440	-0.529174	0.970387
H109	H	-0.076032	-1.018478	0.000046
H110	H	0.423968	-0.518478	0.500046
H111	H	0.192498	-0.909859	-0.000025
H112	H	0.692498	-0.409859	0.499975
H113	H	0.594401	-0.480235	-0.000092
H114	H	1.094401	0.019765	0.499908
H115	H	0.281565	-1.382585	0.696043
H116	H	0.781565	-0.882585	1.196043
F117	F	-0.155396	-1.052149	0.195090
F118	F	0.344604	-0.552149	0.695090
H119	H	-0.021853	-1.249577	0.171188
H120	H	0.478147	-0.749577	0.671188
F121	F	0.524708	-0.975148	0.710880
F122	F	1.024708	-0.475148	1.210880
H123	H	-0.136832	-1.371680	0.000057
H124	H	0.363168	-0.871680	0.500057
H125	H	0.531859	-0.789267	-0.000078
H126	H	1.031859	-0.289267	0.499922
H127	H	-0.063834	-1.320246	-0.171092
H128	H	0.436166	-0.820246	0.328908
F129	F	0.283011	-0.404109	-0.000036
F130	F	0.783011	0.095891	0.499964
H131	H	-0.191311	-1.140405	-0.171088
H132	H	0.308689	-0.640405	0.328912
H133	H	0.459956	-0.866111	-0.000057
H134	H	0.959956	-0.366111	0.499943
F135	F	0.543883	-0.942965	0.533384
F136	F	1.043883	-0.442965	1.033384
F137	F	0.344320	-1.277382	0.289053
F138	F	0.844320	-0.777382	0.789053
H139	H	0.179536	-0.548096	-0.000034
H140	H	0.679536	-0.048096	0.499966
F141	F	0.663555	-0.681850	-0.000103
F142	F	1.163555	-0.181850	0.499897
H143	H	0.145057	-0.718409	-0.000018
H144	H	0.645057	-0.218409	0.499982
H145	H	0.505362	-1.007515	0.303873
H146	H	1.005362	-0.507515	0.803873
F147	F	0.312724	-1.330333	0.344404
F148	F	0.812724	-0.830333	0.844404
H149	H	0.255119	-1.426885	0.481339
H150	H	0.755119	-0.926885	0.981339
H151	H	0.451353	-1.098051	0.803425
H152	H	0.951353	-0.598051	1.303425
