data_functionalizedCrystal
_audit_creation_method	'MofGen! by Chris Wilmer'
_symmetry_space_group_name_H-M	'P1'
_symmetry_Int_Tables_number	1
_symmetry_cell_setting	triclinic
loop_
_symmetry_equiv_pos_as_xyz
  x,y,z
_cell_length_a	18.215407
_cell_length_b	18.215405
_cell_length_c	18.215399
_cell_angle_alpha	89.969449
_cell_angle_beta	89.980167
_cell_angle_gamma	90.025333
loop_
_atom_site_label
_atom_site_type_symbol
_atom_site_fract_x
_atom_site_fract_y
_atom_site_fract_z
Zn1	Zn	1.125072	-0.292983	-0.416103
Zn2	Zn	1.625072	0.207017	0.083897
Zn3	Zn	1.124980	-0.416054	-0.293031
Zn4	Zn	1.624980	0.083946	0.206969
Zn5	Zn	1.002005	-0.293007	-0.293050
Zn6	Zn	1.502005	0.206993	0.206950
Zn7	Zn	1.001970	-0.416013	-0.416056
Zn8	Zn	1.501970	0.083987	0.083944
O9	O	1.063507	-0.354514	-0.354560
O10	O	1.563507	0.145486	0.145440
O11	O	1.228044	-0.309316	-0.399788
O12	O	1.728044	0.190684	0.100212
O13	O	1.108643	-0.399759	-0.190049
O14	O	1.608643	0.100241	0.309951
O15	O	1.018382	-0.190020	-0.309401
O16	O	1.518382	0.309980	0.190599
O17	O	1.227977	-0.399736	-0.309368
O18	O	1.727977	0.100264	0.190632
O19	O	1.108799	-0.190002	-0.399807
O20	O	1.608799	0.309998	0.100193
O21	O	1.018293	-0.309357	-0.190063
O22	O	1.518293	0.190643	0.309937
O23	O	0.899016	-0.309317	-0.309355
O24	O	1.399016	0.190683	0.190645
O25	O	1.018324	-0.399666	-0.519046
O26	O	1.518324	0.100334	-0.019046
O27	O	0.898991	-0.399689	-0.399727
O28	O	1.398991	0.100311	0.100273
O29	O	1.108766	-0.309276	-0.519081
O30	O	1.608766	0.190724	-0.019081
O31	O	1.108610	-0.519033	-0.309322
O32	O	1.608610	-0.019033	0.190678
O33	O	1.018235	-0.519003	-0.399708
O34	O	1.518235	-0.019003	0.100292
C35	C	1.063429	-0.545721	-0.354524
C36	C	1.563429	-0.045721	0.145476
C37	C	1.063463	-0.627520	-0.354534
C38	C	1.563463	-0.127520	0.145466
C39	C	0.872301	-0.354502	-0.354539
C40	C	1.372301	0.145498	0.145461
C41	C	0.790502	-0.354514	-0.354547
C42	C	1.290502	0.145486	0.145453
C43	C	1.110632	-0.815705	-0.307556
C44	C	1.610632	-0.315705	0.192444
C45	C	1.110665	-0.892563	-0.307574
C46	C	1.610665	-0.392563	0.192426
C47	C	1.016476	-0.892572	-0.401616
C48	C	1.516476	-0.392572	0.098384
C49	C	1.016447	-0.815715	-0.401601
C50	C	1.516447	-0.315715	0.098399
C51	C	1.063524	-0.777283	-0.354567
C52	C	1.563524	-0.277283	0.145433
C53	C	1.063586	-0.930999	-0.354600
C54	C	1.563586	-0.430999	0.145400
C55	C	1.063621	-1.014333	-0.354619
C56	C	1.563621	-0.514333	0.145381
C57	C	1.063490	-0.693944	-0.354548
C58	C	1.563490	-0.193944	0.145452
C59	C	0.602314	-0.401645	-0.401544
C60	C	1.102314	0.098355	0.098456
C61	C	0.525455	-0.401647	-0.401554
C62	C	1.025455	0.098353	0.098446
C63	C	0.525452	-0.307397	-0.307591
C64	C	1.025452	0.192603	0.192409
C65	C	0.602309	-0.307392	-0.307586
C66	C	1.102309	0.192608	0.192414
C67	C	0.640738	-0.354520	-0.354562
C68	C	1.140738	0.145480	0.145438
C69	C	0.487022	-0.354528	-0.354576
C70	C	0.987022	0.145472	0.145424
C71	C	0.403688	-0.354530	-0.354585
C72	C	0.903688	0.145470	0.145415
C73	C	0.724077	-0.354517	-0.354553
C74	C	1.224077	0.145483	0.145447
C75	C	1.255460	-0.354528	-0.354581
C76	C	1.755460	0.145472	0.145419
C77	C	1.337259	-0.354533	-0.354591
C78	C	1.837259	0.145467	0.145409
C79	C	1.063552	-0.354464	-0.546513
C80	C	1.563552	0.145536	-0.046513
C81	C	1.063571	-0.354442	-0.628312
C82	C	1.563571	0.145558	-0.128312
C83	C	1.063605	-0.162561	-0.354611
C84	C	1.563605	0.337439	0.145389
C85	C	1.063647	-0.080763	-0.354633
C86	C	1.563647	0.419237	0.145367
C87	C	1.110681	-0.307332	-0.816525
C88	C	1.610681	0.192668	-0.316525
C89	C	1.110690	-0.307311	-0.893384
C90	C	1.610690	0.192689	-0.393384
C91	C	1.016513	-0.401438	-0.893336
C92	C	1.516513	0.098562	-0.393336
C93	C	1.016501	-0.401455	-0.816479
C94	C	1.516501	0.098545	-0.316479
C95	C	1.063589	-0.354403	-0.778075
C96	C	1.563589	0.145597	-0.278075
C97	C	1.063610	-0.354365	-0.931791
C98	C	1.563610	0.145635	-0.431791
C99	C	1.063619	-0.354342	-1.015125
C100	C	1.563619	0.145658	-0.515125
C101	C	1.063579	-0.354425	-0.694736
C102	C	1.563579	0.145575	-0.194736
C103	C	1.063504	-0.354512	-0.163353
C104	C	1.563504	0.145488	0.336647
C105	C	1.063628	-0.354326	-0.081555
C106	C	1.563628	0.145674	0.418445
H107	H	1.149026	-0.923843	-0.269294
H108	H	1.649026	-0.423843	0.230706
C109	C	0.965518	-0.452617	-0.935074
C110	C	1.465518	0.047383	-0.435074
C111	C	1.007174	-0.499790	-0.979175
C112	C	1.507174	0.000210	-0.479175
C113	C	0.960224	-0.546954	-1.017625
C114	C	1.460224	-0.046954	-0.517625
H115	H	0.933457	-0.424543	-0.965120
H116	H	1.433457	0.075457	-0.465120
H117	H	0.937481	-0.480696	-0.901189
H118	H	1.437481	0.019304	-0.401189
H119	H	1.035199	-0.471714	-1.013056
H120	H	1.535199	0.028286	-0.513056
H121	H	1.039234	-0.527880	-0.949147
H122	H	1.539234	-0.027880	-0.449147
H123	H	0.932187	-0.575034	-0.983740
H124	H	1.432187	-0.075034	-0.483740
H125	H	0.928165	-0.518875	-1.047666
H126	H	1.428165	-0.018875	-0.547666
H127	H	0.988481	-0.578972	-1.047547
H128	H	1.488481	-0.078972	-0.547547
C129	C	0.483768	-0.256113	-0.256676
C130	C	0.983768	0.243887	0.243324
C131	C	0.502483	-0.183317	-0.272843
C132	C	1.002483	0.316683	0.227157
C133	C	0.464094	-0.136054	-0.225959
C134	C	0.964094	0.363946	0.274041
H135	H	0.496310	-0.266724	-0.207184
H136	H	0.996310	0.233276	0.292816
H137	H	0.432483	-0.262815	-0.263410
H138	H	0.932483	0.237185	0.236590
H139	H	0.553756	-0.176619	-0.266102
H140	H	1.053756	0.323381	0.233898
H141	H	0.489939	-0.172684	-0.322327
H142	H	0.989939	0.327316	0.177673
H143	H	0.412810	-0.142755	-0.232693
H144	H	0.912810	0.357245	0.267307
H145	H	0.476640	-0.146671	-0.176470
H146	H	0.976640	0.353329	0.323530
H147	H	0.476782	-0.086656	-0.236926
H148	H	0.976782	0.413344	0.263074
H149	H	0.633595	-0.269012	-0.269327
H150	H	1.133595	0.230988	0.230673
H151	H	0.978148	-0.439786	-0.785173
H152	H	1.478148	0.060214	-0.285173
H153	H	1.149021	-0.269017	-0.785259
H154	H	1.649021	0.230983	-0.285259
C155	C	0.644170	-0.452776	-0.452471
C156	C	1.144170	0.047224	0.047529
C157	C	0.719704	-0.442702	-0.442400
C158	C	1.219704	0.057298	0.057600
C159	C	0.758282	-0.489797	-0.489297
C160	C	1.258282	0.010203	0.010703
H161	H	0.631687	-0.442113	-0.501967
H162	H	1.131687	0.057887	-0.001967
H163	H	0.631594	-0.502227	-0.441608
H164	H	1.131594	-0.002227	0.058392
H165	H	0.732276	-0.393262	-0.453268
H166	H	1.232276	0.106738	0.046732
H167	H	0.732209	-0.453371	-0.392914
H168	H	1.232209	0.046629	0.107086
H169	H	0.745706	-0.539248	-0.478434
H170	H	1.245706	-0.039248	0.021566
H171	H	0.745793	-0.479129	-0.538790
H172	H	1.245793	0.020871	-0.038790
H173	H	0.809535	-0.482973	-0.482465
H174	H	1.309535	0.017027	0.017535
C175	C	1.161827	-0.774111	-0.256469
C176	C	1.661827	-0.274111	0.243531
C177	C	1.203102	-0.824213	-0.215317
C178	C	1.703102	-0.324213	0.284683
C179	C	1.250279	-0.785926	-0.168254
C180	C	1.750279	-0.285926	0.331746
H181	H	1.133766	-0.744173	-0.224304
H182	H	1.633766	-0.244173	0.275696
H183	H	1.193903	-0.744097	-0.284629
H184	H	1.693903	-0.244097	0.215371
H185	H	1.171029	-0.854214	-0.187159
H186	H	1.671029	-0.354214	0.312841
H187	H	1.231177	-0.854153	-0.247462
H188	H	1.731177	-0.354153	0.252538
H189	H	1.282355	-0.755913	-0.196414
H190	H	1.782355	-0.255913	0.303586
H191	H	1.222212	-0.755990	-0.136094
H192	H	1.722212	-0.255990	0.363906
H193	H	1.278294	-0.819915	-0.140332
H194	H	1.778294	-0.319915	0.359668
C195	C	0.965388	-0.934433	-0.452593
C196	C	1.465388	-0.434433	0.047407
C197	C	0.975479	-1.009965	-0.442529
C198	C	1.475479	-0.509965	0.057471
C199	C	0.928419	-1.048548	-0.489468
C200	C	1.428419	-0.548548	0.010532
H201	H	0.976074	-0.921883	-0.502078
H202	H	1.476074	-0.421883	-0.002078
H203	H	0.915928	-0.921925	-0.441763
H204	H	1.415928	-0.421925	0.058237
H205	H	1.024927	-1.022467	-0.453364
H206	H	1.524927	-0.522467	0.046636
H207	H	0.964787	-1.022537	-0.393054
H208	H	1.464787	-0.522537	0.106946
H209	H	0.878959	-1.036040	-0.478639
H210	H	1.378959	-0.536040	0.021361
H211	H	0.939110	-1.035992	-0.538951
H212	H	1.439110	-0.535992	-0.038951
H213	H	0.935255	-1.099800	-0.482642
H214	H	1.435255	-0.599800	0.017358
H215	H	1.149035	-0.268979	-0.924686
H216	H	1.649035	0.231021	-0.424686
C217	C	0.965218	-0.774127	-0.452673
C218	C	1.465218	-0.274127	0.047327
C219	C	0.923978	-0.824232	-0.493848
C220	C	1.423978	-0.324232	0.006152
C221	C	0.876776	-0.785948	-0.540896
C222	C	1.376776	-0.285948	-0.040896
H223	H	0.993259	-0.744096	-0.484823
H224	H	1.493259	-0.244096	0.015177
H225	H	0.933120	-0.744206	-0.424500
H226	H	1.433120	-0.244206	0.075500
H227	H	0.956072	-0.854140	-0.522019
H228	H	1.456072	-0.354140	-0.022019
H229	H	0.895922	-0.854263	-0.461717
H230	H	1.395922	-0.354263	0.038283
H231	H	0.844679	-0.756027	-0.512723
H232	H	1.344679	-0.256027	-0.012723
H233	H	0.904823	-0.755919	-0.573041
H234	H	1.404823	-0.255919	-0.073041
H235	H	0.848785	-0.819938	-0.568834
H236	H	1.348785	-0.319938	-0.068834
H237	H	0.494174	-0.440020	-0.439813
H238	H	0.994174	0.059980	0.060187
