data_functionalizedCrystal
_audit_creation_method	'MofGen! by Chris Wilmer'
_symmetry_space_group_name_H-M	'P1'
_symmetry_Int_Tables_number	1
_symmetry_cell_setting	triclinic
loop_
_symmetry_equiv_pos_as_xyz
  x,y,z
_cell_length_a	34.408637
_cell_length_b	34.407814
_cell_length_c	34.404193
_cell_angle_alpha	60.004510
_cell_angle_beta	60.009006
_cell_angle_gamma	59.994604
loop_
_atom_site_label
_atom_site_type_symbol
_atom_site_fract_x
_atom_site_fract_y
_atom_site_fract_z
O1	O	0.053973	-0.567860	0.474801
O2	O	0.553973	-0.067860	0.974801
O3	O	0.020377	-0.442124	0.382567
O4	O	0.520377	0.057876	0.882567
O5	O	0.100004	-0.521670	0.382483
O6	O	0.600004	-0.021670	0.882483
O7	O	-0.025653	-0.488314	0.474886
O8	O	0.474347	0.011686	0.974886
O9	O	0.126426	-0.495253	0.408816
O10	O	0.626426	0.004747	0.908816
O11	O	0.046800	-0.415707	0.408900
O12	O	0.546800	0.084293	0.908900
O13	O	0.080396	-0.541443	0.501134
O14	O	0.580396	-0.041443	1.001134
Zn15	Zn	0.067793	-0.474381	0.459198
Zn16	Zn	0.567793	0.025619	0.959198
Zn17	Zn	0.032980	-0.509186	0.424503
Zn18	Zn	0.532980	-0.009186	0.924503
O19	O	0.000769	-0.461897	0.501219
O20	O	0.500769	0.038103	1.001219
N21	N	0.091552	-0.450631	0.482879
N22	N	0.591552	0.049369	0.982879
N23	N	0.009225	-0.532940	0.400823
N24	N	0.509225	-0.032940	0.900823
C25	C	0.142848	-0.268847	0.534081
C26	C	0.642848	0.231153	1.034081
C27	C	0.142979	-0.399386	0.664559
C28	C	0.642979	0.100614	1.164559
C29	C	0.142862	-0.399365	0.534081
C30	C	0.642862	0.100635	1.034081
C31	C	0.273409	-0.399338	0.533986
C32	C	0.773409	0.100662	1.033986
C33	C	0.157225	-0.311914	0.548422
C34	C	0.657225	0.188086	1.048422
C35	C	0.157300	-0.385019	0.621491
C36	C	0.657300	0.114981	1.121491
C37	C	0.230339	-0.384991	0.548370
C38	C	0.730339	0.115009	1.048370
C39	C	0.157235	-0.385007	0.548422
C40	C	0.657235	0.114993	1.048422
C41	C	0.124548	-0.214028	0.515827
C42	C	0.624548	0.285972	1.015827
C43	C	0.124571	-0.417639	0.515827
C44	C	0.624571	0.082361	1.015827
C45	C	0.175526	-0.366733	0.566676
C46	C	0.675526	0.133267	1.066676
C47	C	0.353121	-0.385580	0.491988
C48	C	0.853121	0.114420	0.991988
C49	C	0.402952	-0.402180	0.475348
C50	C	0.902952	0.097820	0.975348
C51	C	0.402981	-0.482812	0.506096
C52	C	0.902981	0.017188	1.006096
C53	C	0.353151	-0.466211	0.522737
C54	C	0.853151	0.033789	1.022737
C55	C	0.136544	-0.189099	0.466839
C56	C	0.636544	0.310901	0.966839
C57	C	0.119905	-0.139265	0.450247
C58	C	0.619905	0.360735	0.950247
C59	C	0.079280	-0.139291	0.531632
C60	C	0.579280	0.360709	1.031632
C61	C	0.095918	-0.189125	0.548224
C62	C	0.595918	0.310875	1.048224
C63	C	0.075577	-0.405615	0.527900
C64	C	0.575577	0.094385	1.027900
C65	C	0.058953	-0.422228	0.511301
C66	C	0.558953	0.077772	1.011301
C67	C	0.140315	-0.462889	0.470566
C68	C	0.640315	0.037111	0.970566
C69	C	0.156941	-0.446276	0.487159
C70	C	0.656941	0.053724	0.987159
C71	C	0.075772	-0.405653	0.744326
C72	C	0.575772	0.094347	1.244326
C73	C	0.059206	-0.422280	0.794159
C74	C	0.559206	0.077720	1.294159
C75	C	0.140607	-0.462951	0.794094
C76	C	0.640607	0.037049	1.294094
C77	C	0.157172	-0.446325	0.744260
C78	C	0.657172	0.053675	1.244260
C79	C	0.124753	-0.417674	0.719377
C80	C	0.624753	0.082326	1.219377
C81	C	0.328223	-0.417595	0.515681
C82	C	0.828223	0.082405	1.015681
C83	C	-0.172390	-0.583988	0.349141
C84	C	0.327610	-0.083988	0.849141
C85	C	-0.041751	-0.584138	0.218783
C86	C	0.458249	-0.084138	0.718783
C87	C	-0.041941	-0.584130	0.349402
C88	C	0.458059	-0.084130	0.849402
C89	C	-0.041957	-0.714607	0.349338
C90	C	0.458043	-0.214607	0.849338
C91	C	-0.129326	-0.598388	0.334853
C92	C	0.370674	-0.098388	0.834853
C93	C	-0.056165	-0.598473	0.261852
C94	C	0.443835	-0.098473	0.761852
C95	C	-0.056282	-0.671535	0.334962
C96	C	0.443718	-0.171535	0.834962
C97	C	-0.056272	-0.598469	0.334999
C98	C	0.443728	-0.098469	0.834999
C99	C	-0.227205	-0.565659	0.367327
C100	C	0.272795	-0.065659	0.867327
C101	C	-0.023703	-0.565882	0.367734
C102	C	0.476297	-0.065882	0.867734
C103	C	-0.074511	-0.616717	0.316667
C104	C	0.425489	-0.116717	0.816667
C105	C	-0.055754	-0.794298	0.391257
C106	C	0.444246	-0.294298	0.891257
C107	C	-0.039181	-0.844132	0.407888
C108	C	0.460819	-0.344132	0.907888
C109	C	0.041447	-0.844215	0.377269
C110	C	0.541447	-0.344215	0.877269
C111	C	0.024873	-0.794381	0.360637
C112	C	0.524873	-0.294381	0.860637
C113	C	-0.252183	-0.577666	0.416302
C114	C	0.247817	-0.077666	0.916302
C115	C	-0.302014	-0.561001	0.432833
C116	C	0.197986	-0.061001	0.932833
C117	C	-0.301886	-0.520329	0.351410
C118	C	0.198114	-0.020329	0.851410
C119	C	-0.252055	-0.536994	0.334880
C120	C	0.247945	-0.036994	0.834880
C121	C	-0.035709	-0.516892	0.355682
C122	C	0.464291	-0.016892	0.855682
C123	C	-0.019129	-0.500308	0.372353
C124	C	0.480871	-0.000308	0.872353
C125	C	0.021465	-0.581700	0.413115
C126	C	0.521465	-0.081700	0.913115
C127	C	0.004884	-0.598286	0.396450
C128	C	0.504884	-0.098286	0.896450
C129	C	-0.035389	-0.516907	0.139026
C130	C	0.464611	-0.016907	0.639026
C131	C	-0.018707	-0.500324	0.089193
C132	C	0.481293	-0.000324	0.589193
C133	C	0.021949	-0.581721	0.089240
C134	C	0.521949	-0.081721	0.589240
C135	C	0.005268	-0.598303	0.139074
C136	C	0.505268	-0.098303	0.639074
C137	C	-0.023402	-0.565894	0.163965
C138	C	0.476598	-0.065894	0.663965
C139	C	-0.023728	-0.769425	0.367633
C140	C	0.476272	-0.269425	0.867633
N141	N	0.427173	-0.450553	0.482630
N142	N	0.927173	0.049447	0.982630
O143	O	0.589997	-0.458460	0.365361
O144	O	1.089997	0.041540	0.865361
O145	O	0.590185	-0.550997	0.490963
O146	O	1.090185	-0.050997	0.990963
O147	O	0.590104	-0.550786	0.411309
O148	O	1.090104	-0.050786	0.911309
O149	O	0.590077	-0.458671	0.445016
O150	O	1.090077	0.041329	0.945016
O151	O	0.510940	-0.524462	0.437777
O152	O	1.010940	-0.024462	0.937777
O153	O	0.511020	-0.524674	0.517432
O154	O	1.011020	-0.024674	1.017432
O155	O	0.510832	-0.432136	0.391830
O156	O	1.010832	0.067864	0.891830
Zn157	Zn	0.498357	-0.474225	0.458833
Zn158	Zn	0.998357	0.025775	0.958833
Zn159	Zn	0.602660	-0.508908	0.423960
Zn160	Zn	1.102660	-0.008908	0.923960
O161	O	0.510913	-0.432348	0.471484
O162	O	1.010913	0.067652	0.971484
N163	N	0.673844	-0.532580	0.400158
N164	N	1.173844	-0.032580	0.900158
N165	N	0.091520	-0.115070	0.482873
N166	N	0.591520	0.384930	0.982873
O167	O	-0.025663	0.047841	0.474857
O168	O	0.474337	0.547841	0.974857
O169	O	0.099940	0.047877	0.382299
O170	O	0.599940	0.547877	0.882299
O171	O	0.020247	0.047844	0.382560
O172	O	0.520247	0.547844	0.882560
O173	O	0.054030	0.047874	0.474596
O174	O	0.554030	0.547874	0.974596
O175	O	0.046674	-0.031326	0.408942
O176	O	0.546674	0.468674	0.908942
O177	O	0.126367	-0.031293	0.408680
O178	O	0.626367	0.468707	0.908680
O179	O	0.000764	-0.031329	0.501238
O180	O	0.500764	0.468671	1.001238
Zn181	Zn	0.067761	-0.043881	0.459148
Zn182	Zn	0.567761	0.456119	0.959148
Zn183	Zn	0.032943	0.060429	0.424389
Zn184	Zn	0.532943	0.560429	0.924389
O185	O	0.080457	-0.031296	0.500977
O186	O	0.580457	0.468704	1.000977
N187	N	0.009178	0.131618	0.400665
N188	N	0.509178	0.631618	0.900665
N189	N	0.091852	-0.450680	0.818332
N190	N	0.591852	0.049320	1.318332
O191	O	0.083862	-0.567845	0.981235
O192	O	0.583862	-0.067845	1.481235
O193	O	-0.008657	-0.442198	0.981276
O194	O	0.491343	0.057802	1.481276
O195	O	-0.008441	-0.521875	0.981252
O196	O	0.491559	-0.021875	1.481252
O197	O	0.083646	-0.488168	0.981258
O198	O	0.583646	0.011832	1.481258
O199	O	0.017919	-0.495468	0.902085
O200	O	0.517919	0.004532	1.402085
O201	O	0.017703	-0.415791	0.902109
O202	O	0.517703	0.084209	1.402109
O203	O	0.110222	-0.541438	0.902067
O204	O	0.610222	-0.041438	1.402067
Zn205	Zn	0.068148	-0.474422	0.889518
Zn206	Zn	0.568148	0.025578	1.389518
Zn207	Zn	0.033417	-0.509214	0.993825
Zn208	Zn	0.533417	-0.009214	1.493825
O209	O	0.110006	-0.461761	0.902091
O210	O	0.610006	0.038239	1.402091
N211	N	0.009712	-0.532961	1.065011
N212	N	0.509712	-0.032961	1.565011
C213	C	0.030439	-0.413071	0.383027
C214	C	0.530439	0.086929	0.883027
C215	C	0.129046	-0.511580	0.382922
C216	C	0.629046	-0.011580	0.882922
C217	C	0.070334	-0.570496	0.500675
C218	C	0.570334	-0.070496	1.000675
C219	C	-0.028274	-0.471987	0.500780
C220	C	0.471726	0.028013	1.000780
C221	C	0.550625	-0.550579	0.520021
C222	C	1.050625	-0.050579	1.020021
C223	C	0.550527	-0.550317	0.421379
C224	C	1.050527	-0.050317	0.921379
C225	C	0.550389	-0.432554	0.362773
C226	C	1.050389	0.067446	0.862773
C227	C	0.550491	-0.432816	0.461414
C228	C	1.050491	0.067184	0.961414
C229	C	0.128944	0.008394	0.382712
C230	C	0.628944	0.508394	0.882712
C231	C	0.030287	0.008256	0.383068
C232	C	0.530287	0.508256	0.883068
C233	C	-0.028273	0.008252	0.500793
C234	C	0.471727	0.508252	1.000793
C235	C	0.070417	0.008292	0.500470
C236	C	0.570417	0.508292	1.000470
C237	C	-0.008218	-0.413165	0.941698
C238	C	0.491782	0.086835	1.441698
C239	C	-0.007945	-0.511830	0.941653
C240	C	0.492055	-0.011830	1.441653
C241	C	0.109783	-0.570471	0.941646
C242	C	0.609783	-0.070471	1.441646
C243	C	0.109516	-0.471800	0.941673
C244	C	0.609516	0.028200	1.441673
H245	H	0.049370	-0.382321	0.724071
H246	H	0.549370	0.117679	1.224071
H247	H	0.138447	-0.464586	0.941669
H248	H	0.638447	0.035414	1.441669
C249	C	0.020517	0.008246	0.344003
C250	C	0.520517	0.508246	0.844003
C251	C	0.023878	0.049358	0.296120
C252	C	0.523878	0.549358	0.796120
C253	C	0.014108	0.049348	0.257055
C254	C	0.514108	0.549348	0.757055
C255	C	0.000977	0.008226	0.265873
C256	C	0.500977	0.508226	0.765873
C257	C	-0.002384	-0.032890	0.313758
C258	C	0.497616	0.467110	0.813758
C259	C	0.007385	-0.032880	0.352823
C260	C	0.507385	0.467120	0.852823
H261	H	0.033599	0.079802	0.289590
H262	H	0.533599	0.579802	0.789590
H263	H	0.016597	0.079785	0.221607
H264	H	0.516597	0.579785	0.721607
H265	H	-0.006255	0.008218	0.236955
H266	H	0.493745	0.508218	0.736955
H267	H	-0.012105	-0.063334	0.320287
H268	H	0.487895	0.436666	0.820287
H269	H	0.004897	-0.063317	0.388270
H270	H	0.504897	0.436683	0.888270
H271	H	-0.064365	-0.464880	0.529794
H272	H	0.435635	0.035120	1.029794
C273	C	0.550695	-0.589828	0.568753
C274	C	1.050695	-0.089828	1.068753
C275	C	0.509624	-0.610349	0.599432
C276	C	1.009624	-0.110349	1.099432
C277	C	0.509694	-0.649598	0.648163
C278	C	1.009694	-0.149598	1.148163
C279	C	0.550835	-0.668326	0.666216
C280	C	1.050835	-0.168326	1.166216
C281	C	0.591909	-0.647804	0.635537
C282	C	1.091909	-0.147804	1.135537
C283	C	0.591839	-0.608555	0.586805
C284	C	1.091839	-0.108555	1.086805
H285	H	0.479167	-0.596486	0.586068
H286	H	0.979167	-0.096486	1.086068
H287	H	0.479288	-0.664789	0.670874
H288	H	0.979288	-0.164789	1.170874
H289	H	0.550887	-0.697380	0.702290
H290	H	1.050887	-0.197380	1.202290
H291	H	0.622367	-0.661667	0.648900
H292	H	1.122367	-0.161667	1.148900
H293	H	0.622245	-0.593364	0.564094
H294	H	1.122245	-0.093364	1.064094
C295	C	0.020744	-0.364278	0.343888
C296	C	0.520744	0.135722	0.843888
C297	C	0.051593	-0.333534	0.323370
C298	C	0.551593	0.166466	0.823370
C299	C	0.041899	-0.284741	0.284231
C300	C	0.541899	0.215259	0.784231
C301	C	0.001356	-0.266692	0.265610
C302	C	0.501356	0.233308	0.765610
C303	C	-0.029496	-0.297437	0.286128
C304	C	0.470504	0.202563	0.786128
C305	C	-0.019801	-0.346231	0.325267
C306	C	0.480199	0.153769	0.825267
H307	H	0.081608	-0.346894	0.337154
H308	H	0.581608	0.153106	0.837154
H309	H	0.064737	-0.261981	0.269043
H310	H	0.564737	0.238019	0.769043
H311	H	-0.005821	-0.230573	0.236638
H312	H	0.494179	0.269427	0.736638
H313	H	-0.059510	-0.284077	0.272344
H314	H	0.440490	0.215923	0.772344
H315	H	-0.042640	-0.368990	0.340456
H316	H	0.457360	0.131010	0.840456
H317	H	0.550540	-0.579254	0.414165
H318	H	1.050540	-0.079254	0.914165
H319	H	0.019320	-0.412483	0.814467
H320	H	0.519320	0.087517	1.314467
H321	H	0.550329	-0.403500	0.326702
H322	H	1.050329	0.096500	0.826702
H323	H	0.014660	-0.638178	0.406265
H324	H	0.514660	-0.138178	0.906265
H325	H	0.550485	-0.403881	0.468626
H326	H	1.050485	0.096119	0.968626
C327	C	-0.077002	0.008240	0.540049
C328	C	0.422998	0.508240	1.040049
C329	C	-0.116247	0.008223	0.530567
C330	C	0.383753	0.508223	1.030567
C331	C	-0.164976	0.008211	0.569823
C332	C	0.335024	0.508211	1.069823
C333	C	-0.174459	0.008216	0.618561
C334	C	0.325541	0.508216	1.118561
C335	C	-0.135212	0.008234	0.628046
C336	C	0.364788	0.508234	1.128046
C337	C	-0.086484	0.008246	0.588790
C338	C	0.413516	0.508246	1.088790
H339	H	-0.109228	0.008219	0.494486
H340	H	0.390772	0.508219	0.994486
H341	H	-0.194029	0.008198	0.562802
H342	H	0.305971	0.508198	1.062802
H343	H	-0.210531	0.008208	0.647621
H344	H	0.289469	0.508208	1.147621
H345	H	-0.142231	0.008238	0.664127
H346	H	0.357769	0.508238	1.164127
H347	H	-0.057431	0.008258	0.595811
H348	H	0.442569	0.508258	1.095811
C349	C	0.177571	0.008708	0.343356
C350	C	0.677571	0.508708	0.843356
C351	C	0.216766	0.008876	0.352788
C352	C	0.716766	0.508876	0.852788
C353	C	0.265393	0.009190	0.313432
C354	C	0.765393	0.509190	0.813432
C355	C	0.274826	0.009335	0.264644
C356	C	0.774826	0.509335	0.764644
C357	C	0.235630	0.009167	0.255209
C358	C	0.735630	0.509167	0.755209
C359	C	0.187002	0.008853	0.294565
C360	C	0.687002	0.508853	0.794565
H361	H	0.209785	0.008768	0.388906
H362	H	0.709785	0.508768	0.888906
H363	H	0.294409	0.009314	0.320416
H364	H	0.794409	0.509314	0.820416
H365	H	0.310823	0.009568	0.235510
H366	H	0.810823	0.509568	0.735510
H367	H	0.242611	0.009275	0.219091
H368	H	0.742611	0.509275	0.719091
H369	H	0.157987	0.008729	0.287581
H370	H	0.657987	0.508729	0.787581
H371	H	-0.028907	-0.460416	0.362542
H372	H	0.471093	0.039584	0.862542
C373	C	-0.031903	-0.446435	0.061763
C374	C	0.468097	0.053565	0.561763
C375	C	-0.017425	-0.415172	0.068666
C376	C	0.482575	0.084828	0.568666
C377	C	-0.030619	-0.361282	0.041237
C378	C	0.469381	0.138718	0.541237
C379	C	-0.058291	-0.338656	0.006904
C380	C	0.441709	0.161344	0.506904
C381	C	-0.072770	-0.369920	-0.000000
C382	C	0.427230	0.130080	0.500000
C383	C	-0.059576	-0.423809	0.027429
C384	C	0.440424	0.076191	0.527429
H385	H	0.003060	-0.431921	0.094082
H386	H	0.503060	0.068079	0.594082
H387	H	-0.019901	-0.338139	0.046348
H388	H	0.480099	0.161861	0.546348
H389	H	-0.068058	-0.298764	-0.013401
H390	H	0.431942	0.201236	0.486599
H391	H	-0.093256	-0.353171	-0.025417
H392	H	0.406744	0.146829	0.474583
H393	H	-0.070295	-0.446952	0.022318
H394	H	0.429705	0.053048	0.522318
H395	H	0.081021	-0.864532	0.371574
H396	H	0.581021	-0.364532	0.871574
C397	C	0.080188	0.008299	0.539536
C398	C	0.580188	0.508299	1.039536
C399	C	0.129011	0.008316	0.529765
C400	C	0.629011	0.508316	1.029765
C401	C	0.138781	0.008324	0.568831
C402	C	0.638781	0.508324	1.068831
C403	C	0.099729	0.008315	0.617667
C404	C	0.599729	0.508315	1.117667
C405	C	0.050903	0.008298	0.627439
C406	C	0.550903	0.508298	1.127439
C407	C	0.041132	0.008290	0.588374
C408	C	0.541132	0.508290	1.088374
H409	H	0.157923	0.008323	0.493612
H410	H	0.657923	0.508323	0.993612
H411	H	0.174926	0.008337	0.561596
H412	H	0.674926	0.508337	1.061596
H413	H	0.106962	0.008321	0.646586
H414	H	0.606962	0.508321	1.146586
H415	H	0.021991	0.008291	0.663593
H416	H	0.521991	0.508291	1.163593
H417	H	0.004988	0.008278	0.595608
H418	H	0.504988	0.508278	1.095608
C419	C	-0.047461	-0.364417	0.941714
C420	C	0.452539	0.135583	1.441714
C421	C	-0.037953	-0.325187	0.941726
C422	C	0.462047	0.174813	1.441726
C423	C	-0.077196	-0.276439	0.941742
C424	C	0.422804	0.223561	1.441742
C425	C	-0.125947	-0.266922	0.941748
C426	C	0.374053	0.233078	1.441748
C427	C	-0.135456	-0.306153	0.941736
C428	C	0.364544	0.193847	1.441736
C429	C	-0.096214	-0.354901	0.941719
C430	C	0.403786	0.145099	1.441719
H431	H	-0.001863	-0.332231	0.941722
H432	H	0.498137	0.167769	1.441722
H433	H	-0.070156	-0.247398	0.941751
H434	H	0.429844	0.252602	1.441751
H435	H	-0.154996	-0.230836	0.941760
H436	H	0.345004	0.269164	1.441760
H437	H	-0.171546	-0.299109	0.941740
H438	H	0.328454	0.200891	1.441740
H439	H	-0.103254	-0.383943	0.941711
H440	H	0.396746	0.116057	1.441711
H441	H	0.166679	-0.486211	0.447227
H442	H	0.666679	0.013789	0.947227
C443	C	-0.047014	-0.521552	0.941604
C444	C	0.452986	-0.021552	1.441604
C445	C	-0.037259	-0.570364	0.941566
C446	C	0.462741	-0.070364	1.441566
C447	C	-0.076328	-0.580087	0.941517
C448	C	0.423672	-0.080087	1.441517
C449	C	-0.125150	-0.540998	0.941507
C450	C	0.374850	-0.040998	1.441507
C451	C	-0.134907	-0.492182	0.941546
C452	C	0.365093	0.007818	1.441546
C453	C	-0.095839	-0.482460	0.941594
C454	C	0.404161	0.017540	1.441594
H455	H	-0.001116	-0.599303	0.941573
H456	H	0.498884	-0.099303	1.441573
H457	H	-0.069105	-0.616223	0.941489
H458	H	0.430895	-0.116223	1.441489
H459	H	-0.154071	-0.548195	0.941471
H460	H	0.345929	-0.048195	1.441471
H461	H	-0.171050	-0.463243	0.941538
H462	H	0.328950	0.036757	1.441538
H463	H	-0.103061	-0.446323	0.941623
H464	H	0.396939	0.053677	1.441623
C465	C	0.080027	-0.619290	0.539812
C466	C	0.580027	-0.119290	1.039812
C467	C	0.076619	-0.622602	0.587679
C468	C	0.576619	-0.122602	1.087679
C469	C	0.086312	-0.671397	0.626817
C470	C	0.586312	-0.171397	1.126817
C471	C	0.099414	-0.716878	0.618088
C472	C	0.599414	-0.216878	1.118088
C473	C	0.102822	-0.713567	0.570219
C474	C	0.602822	-0.213567	1.070219
C475	C	0.093129	-0.664773	0.531081
C476	C	0.593129	-0.164773	1.031081
H477	H	0.066920	-0.588933	0.594143
H478	H	0.566920	-0.088933	1.094143
H479	H	0.083789	-0.673847	0.662253
H480	H	0.583789	-0.173847	1.162253
H481	H	0.106589	-0.752999	0.647060
H482	H	0.606589	-0.252999	1.147060
H483	H	0.112521	-0.747237	0.563755
H484	H	0.612521	-0.247237	1.063755
H485	H	0.095653	-0.662323	0.495645
H486	H	0.595653	-0.162323	0.995645
C487	C	0.149026	-0.619218	0.941629
C488	C	0.649026	-0.119218	1.441629
C489	C	0.139518	-0.658449	0.941618
C490	C	0.639518	-0.158449	1.441618
C491	C	0.178761	-0.707197	0.941601
C492	C	0.678761	-0.207197	1.441601
C493	C	0.227511	-0.716714	0.941596
C494	C	0.727511	-0.216714	1.441596
C495	C	0.237021	-0.677483	0.941608
C496	C	0.737021	-0.177483	1.441608
C497	C	0.197779	-0.628735	0.941624
C498	C	0.697779	-0.128735	1.441624
H499	H	0.103428	-0.651404	0.941622
H500	H	0.603428	-0.151404	1.441622
H501	H	0.171721	-0.736238	0.941593
H502	H	0.671721	-0.236238	1.441593
H503	H	0.256561	-0.752800	0.941584
H504	H	0.756561	-0.252800	1.441584
H505	H	0.273111	-0.684527	0.941604
H506	H	0.773111	-0.184527	1.441604
H507	H	0.204819	-0.599693	0.941632
H508	H	0.704819	-0.099693	1.441632
H509	H	0.167007	-0.486271	0.814352
H510	H	0.667007	0.013729	1.314352
H511	H	0.049217	-0.382297	0.551240
H512	H	0.549217	0.117703	1.051240
C513	C	0.211055	-0.459548	0.716818
C514	C	0.711055	0.040452	1.216818
C515	C	0.246712	-0.491056	0.744190
C516	C	0.746712	0.008944	1.244190
C517	C	0.300594	-0.504279	0.716749
C518	C	0.800594	-0.004279	1.216749
C519	C	0.318819	-0.485993	0.661936
C520	C	0.818819	0.014007	1.161936
C521	C	0.283162	-0.454483	0.634561
C522	C	0.783162	0.045517	1.134561
C523	C	0.229280	-0.441260	0.662002
C524	C	0.729280	0.058740	1.162002
H525	H	0.233221	-0.504594	0.784769
H526	H	0.733221	-0.004594	1.284769
H527	H	0.326990	-0.527604	0.737014
H528	H	0.826990	-0.027604	1.237014
H529	H	0.358706	-0.495781	0.641622
H530	H	0.858706	0.004219	1.141622
H531	H	0.296653	-0.440945	0.593982
H532	H	0.796653	0.059055	1.093982
H533	H	0.202884	-0.417934	0.641736
H534	H	0.702884	0.082066	1.141736
C535	C	0.082722	-0.216544	0.602112
C536	C	0.582722	0.283456	1.102112
C537	C	0.097247	-0.209693	0.633379
C538	C	0.597247	0.290307	1.133379
C539	C	0.084048	-0.237113	0.687268
C540	C	0.584048	0.262887	1.187268
C541	C	0.056324	-0.271383	0.709891
C542	C	0.556324	0.228617	1.209891
C543	C	0.041798	-0.278236	0.678624
C544	C	0.541798	0.221764	1.178624
C545	C	0.054996	-0.250817	0.624734
C546	C	0.554996	0.249183	1.124734
H547	H	0.117771	-0.184322	0.616632
H548	H	0.617771	0.315678	1.116632
H549	H	0.094802	-0.232039	0.710414
H550	H	0.594802	0.267961	1.210414
H551	H	0.046554	-0.291681	0.749784
H552	H	0.546554	0.208319	1.249784
H553	H	0.021273	-0.303607	0.695371
H554	H	0.521273	0.196393	1.195371
H555	H	0.044243	-0.255890	0.601588
H556	H	0.544243	0.244110	1.101588
H557	H	0.019058	-0.412426	0.521121
H558	H	0.519058	0.087574	1.021121
H559	H	0.332881	-0.492283	0.542031
H560	H	0.832881	0.007717	1.042031
C561	C	0.210836	-0.459502	0.473882
C562	C	0.710836	0.040498	0.973882
C563	C	0.246441	-0.491002	0.442350
C564	C	0.746441	0.008998	0.942350
C565	C	0.300336	-0.504230	0.429073
C566	C	0.800336	-0.004230	0.929073
C567	C	0.318625	-0.485957	0.447328
C568	C	0.818625	0.014043	0.947328
C569	C	0.283019	-0.454455	0.478861
C570	C	0.783019	0.045545	0.978861
C571	C	0.229124	-0.441228	0.492139
C572	C	0.729124	0.058772	0.992139
H573	H	0.232903	-0.504530	0.428835
H574	H	0.732903	-0.004530	0.928835
H575	H	0.326694	-0.527550	0.405730
H576	H	0.826694	-0.027550	0.905730
H577	H	0.358521	-0.495749	0.437499
H578	H	0.858521	0.004251	0.937499
H579	H	0.296557	-0.440927	0.492376
H580	H	0.796557	0.059073	0.992376
H581	H	0.202766	-0.417908	0.515482
H582	H	0.702766	0.082092	1.015482
H583	H	0.423225	-0.376108	0.456057
H584	H	0.923225	0.123892	0.956057
C585	C	0.430403	-0.536289	0.513854
C586	C	0.930403	-0.036289	1.013854
C587	C	0.403016	-0.571507	0.539917
C588	C	0.903016	-0.071507	1.039917
C589	C	0.430441	-0.624984	0.547675
C590	C	0.930441	-0.124984	1.047675
C591	C	0.485252	-0.643244	0.529370
C592	C	0.985252	-0.143244	1.029370
C593	C	0.512642	-0.608025	0.503306
C594	C	1.012642	-0.108025	1.003306
C595	C	0.485218	-0.554547	0.495548
C596	C	0.985218	-0.054547	0.995548
H597	H	0.362438	-0.557991	0.553469
H598	H	0.862438	-0.057991	1.053469
H599	H	0.410165	-0.651056	0.566970
H600	H	0.910165	-0.151056	1.066970
H601	H	0.505554	-0.682831	0.535113
H602	H	1.005554	-0.182831	1.035113
H603	H	0.553220	-0.621541	0.489754
H604	H	1.053220	-0.121541	0.989754
H605	H	0.505494	-0.528476	0.476253
H606	H	1.005494	-0.028476	0.976253
H607	H	0.332825	-0.345993	0.486242
H608	H	0.832825	0.154007	0.986242
H609	H	-0.231721	-0.527215	0.295000
H610	H	0.268279	-0.027215	0.795000
H611	H	0.159856	-0.209371	0.440456
H612	H	0.659856	0.290629	0.940456
H613	H	0.129672	-0.118967	0.410356
H614	H	0.629672	0.381033	0.910356
C615	C	0.177800	-0.521178	0.343720
C616	C	0.677800	-0.021178	0.843720
C617	C	0.208490	-0.490274	0.323200
C618	C	0.708490	0.009726	0.823200
C619	C	0.257244	-0.499872	0.283998
C620	C	0.757244	0.000128	0.783998
C621	C	0.275308	-0.540374	0.265316
C622	C	0.775308	-0.040374	0.765316
C623	C	0.244618	-0.571281	0.285836
C624	C	0.744618	-0.071281	0.785836
C625	C	0.195864	-0.561683	0.325038
C626	C	0.695864	-0.061683	0.825038
H627	H	0.195118	-0.460290	0.337030
H628	H	0.695118	0.039710	0.837030
H629	H	0.279963	-0.476993	0.268808
H630	H	0.779963	0.023007	0.768808
H631	H	0.311399	-0.547479	0.236297
H632	H	0.811399	-0.047479	0.736297
H633	H	0.257989	-0.601265	0.272007
H634	H	0.757989	-0.101265	0.772007
H635	H	0.173145	-0.584562	0.340228
H636	H	0.673145	-0.084562	0.840228
C637	C	0.047790	-0.111896	0.567268
C638	C	0.547790	0.388104	1.067268
C639	C	0.034602	-0.139317	0.621155
C640	C	0.534602	0.360683	1.121155
C641	C	0.003110	-0.111924	0.656792
C642	C	0.503110	0.388076	1.156792
C643	C	-0.015193	-0.057108	0.638543
C644	C	0.484807	0.442892	1.138543
C645	C	-0.002005	-0.029683	0.584654
C646	C	0.497995	0.470317	1.084654
C647	C	0.029487	-0.057077	0.549016
C648	C	0.529487	0.442923	1.049016
H649	H	0.048151	-0.179898	0.634667
H650	H	0.548151	0.320102	1.134667
H651	H	-0.006652	-0.132226	0.696685
H652	H	0.493348	0.367774	1.196685
H653	H	-0.038504	-0.036830	0.664924
H654	H	0.461496	0.463170	1.164924
H655	H	-0.015554	0.010897	0.571142
H656	H	0.484446	0.510897	1.071142
H657	H	0.039249	-0.036775	0.509124
H658	H	0.539249	0.463225	1.009124
H659	H	0.045284	-0.608113	0.068976
H660	H	0.545284	-0.108113	0.568976
C661	C	-0.066928	-0.481255	0.166404
C662	C	0.433072	0.018745	0.666404
C663	C	-0.080113	-0.427369	0.138969
C664	C	0.419887	0.072631	0.638969
C665	C	-0.111650	-0.391718	0.166347
C666	C	0.388350	0.108282	0.666347
C667	C	-0.130001	-0.409953	0.221161
C668	C	0.369999	0.090047	0.721161
C669	C	-0.116815	-0.463842	0.248598
C670	C	0.383185	0.036158	0.748598
C671	C	-0.085279	-0.499493	0.221220
C672	C	0.414721	0.000507	0.721220
H673	H	-0.066529	-0.413868	0.098390
H674	H	0.433471	0.086132	0.598390
H675	H	-0.121410	-0.351826	0.146036
H676	H	0.378590	0.148174	0.646036
H677	H	-0.153346	-0.383562	0.241428
H678	H	0.346654	0.116438	0.741428
H679	H	-0.130400	-0.477343	0.289177
H680	H	0.369600	0.022657	0.789177
H681	H	-0.075519	-0.539385	0.241531
H682	H	0.424481	-0.039385	0.741531
H683	H	-0.058984	-0.490504	0.332300
H684	H	0.441016	0.009496	0.832300
C685	C	0.018453	-0.652193	0.166507
C686	C	0.518453	-0.152193	0.666507
C687	C	0.071065	-0.683528	0.159741
C688	C	0.571065	-0.183528	0.659741
C689	C	0.084249	-0.737417	0.187173
C690	C	0.584249	-0.237417	0.687173
C691	C	0.044821	-0.759971	0.221370
C692	C	0.544821	-0.259971	0.721370
C693	C	-0.007795	-0.728636	0.228137
C694	C	0.492205	-0.228636	0.728137
C695	C	-0.020979	-0.674747	0.200705
C696	C	0.479021	-0.174747	0.700705
H697	H	0.100256	-0.666832	0.134425
H698	H	0.600256	-0.166832	0.634425
H699	H	0.123199	-0.760613	0.182163
H700	H	0.623199	-0.260613	0.682163
H701	H	0.054581	-0.799863	0.241676
H702	H	0.554581	-0.299863	0.741676
H703	H	-0.036985	-0.745332	0.253453
H704	H	0.463015	-0.245332	0.753453
H705	H	-0.059928	-0.651551	0.205715
H706	H	0.440072	-0.151551	0.705715
C707	C	0.060105	-0.767022	0.334648
C708	C	0.560105	-0.267022	0.834648
C709	C	0.113564	-0.794479	0.326957
C710	C	0.613564	-0.294479	0.826957
C711	C	0.148798	-0.767120	0.300968
C712	C	0.648798	-0.267120	0.800968
C713	C	0.130574	-0.712304	0.282670
C714	C	0.630574	-0.212304	0.782670
C715	C	0.077112	-0.684845	0.290361
C716	C	0.577112	-0.184845	0.790361
C717	C	0.041878	-0.712204	0.316350
C718	C	0.541878	-0.212204	0.816350
H719	H	0.127058	-0.835059	0.340503
H720	H	0.627058	-0.335059	0.840503
H721	H	0.188374	-0.787448	0.295275
H722	H	0.688374	-0.287448	0.795275
H723	H	0.156656	-0.692052	0.263431
H724	H	0.656656	-0.192052	0.763431
H725	H	0.063618	-0.644264	0.276815
H726	H	0.563618	-0.144264	0.776815
H727	H	0.002302	-0.691876	0.322043
H728	H	0.502302	-0.191876	0.822043
H729	H	0.044746	-0.608091	0.436494
H730	H	0.544746	-0.108091	0.936494
C731	C	-0.074413	-0.871495	0.433879
C732	C	0.425587	-0.371495	0.933879
C733	C	-0.115253	-0.864601	0.480128
C734	C	0.384747	-0.364601	0.980128
C735	C	-0.150485	-0.891964	0.506123
C736	C	0.349515	-0.391964	1.006123
C737	C	-0.144876	-0.926221	0.485870
C738	C	0.355124	-0.426221	0.985870
C739	C	-0.104033	-0.933117	0.439619
C740	C	0.395967	-0.433117	0.939619
C741	C	-0.068802	-0.905754	0.413624
C742	C	0.431198	-0.405754	0.913624
H743	H	-0.119407	-0.839240	0.495123
H744	H	0.380593	-0.339240	0.995123
H745	H	-0.180719	-0.886859	0.540361
H746	H	0.319281	-0.386859	1.040361
H747	H	-0.170956	-0.946477	0.505113
H748	H	0.329044	-0.446477	1.005113
H749	H	-0.099879	-0.958478	0.424624
H750	H	0.400121	-0.458478	0.924624
H751	H	-0.038568	-0.910859	0.379386
H752	H	0.461432	-0.410859	0.879386
H753	H	-0.095331	-0.773979	0.396956
H754	H	0.404669	-0.273979	0.896956
H755	H	-0.231954	-0.601008	0.442726
H756	H	0.268046	-0.101008	0.942726
H757	H	-0.322118	-0.496994	0.324987
H758	H	0.177882	0.003006	0.824987
H759	H	-0.322352	-0.570775	0.472713
H760	H	0.177648	-0.070775	0.972713
