data_functionalizedCrystal
_audit_creation_method	'MofGen! by Chris Wilmer'
_symmetry_space_group_name_H-M	'P1'
_symmetry_Int_Tables_number	1
_symmetry_cell_setting	triclinic
loop_
_symmetry_equiv_pos_as_xyz
  x,y,z
_cell_length_a	14.044220
_cell_length_b	10.654550
_cell_length_c	12.503552
_cell_angle_alpha	93.554944
_cell_angle_beta	86.160109
_cell_angle_gamma	88.836890
loop_
_atom_site_label
_atom_site_type_symbol
_atom_site_fract_x
_atom_site_fract_y
_atom_site_fract_z
O1	O	-1.265120	-0.296344	0.089201
O2	O	-0.989080	-0.285409	0.089229
O3	O	-1.133446	-0.108775	0.089210
O4	O	-1.120754	-0.472977	0.089220
O5	O	-1.122577	-0.122070	-0.089431
O6	O	-0.978211	-0.298704	-0.089413
O7	O	-1.254250	-0.309639	-0.089440
Cu8	Cu	-1.115238	-0.305385	-0.105738
Cu9	Cu	-1.128093	-0.289662	0.105526
O10	O	-1.109884	-0.486273	-0.089422
C11	C	-0.948300	-0.287270	-0.000088
C12	C	-0.842981	-0.272994	-0.000078
C13	C	-1.127080	-0.068531	-0.000109
C14	C	-1.124292	0.071193	-0.000105
C15	C	-1.295031	-0.307778	-0.000120
C16	C	-1.400350	-0.322053	-0.000124
C17	C	-0.650147	-0.246897	-0.000100
C18	C	-0.593179	-0.348145	-0.000102
C19	C	-0.485879	-0.333624	-0.000114
C20	C	-0.757456	-0.261415	-0.000088
C21	C	-1.116251	-0.526517	-0.000100
C22	C	-1.119039	-0.666240	-0.000097
N23	N	-1.106203	-0.316444	-0.254329
C24	C	-1.209292	0.142136	-0.000117
C25	C	-1.206667	0.273421	-0.000109
C26	C	-1.034033	0.262808	-0.000082
C27	C	-1.036659	0.131526	-0.000082
C28	C	-1.296924	0.081803	-0.000139
C29	C	-1.381931	0.152747	-0.000152
C30	C	-1.379306	0.284032	-0.000144
C31	C	-1.291673	0.344374	-0.000124
C32	C	-1.150419	-0.262322	-0.526768
C33	C	-1.092922	-0.332713	-0.473437
C34	C	-1.100313	-0.323659	-0.351514
C35	C	-1.143029	-0.271375	-0.648702
N36	N	-1.137134	-0.278594	0.254118
H37	H	-0.624992	-0.445732	-0.000094
O38	O	-0.612322	-0.130405	0.000045
C39	C	-0.648441	-0.057876	0.092586
H40	H	-0.719218	-0.097364	0.123432
H41	H	-0.595226	-0.061337	0.157368
C42	C	-0.577244	0.127868	0.026610
C43	C	-0.664178	0.079374	0.064490
H44	H	-0.586948	0.212532	0.009282
H45	H	-0.552907	0.079004	-0.035735
H46	H	-0.532907	0.124972	0.080601
H47	H	-0.708510	0.082256	0.010494
H48	H	-0.688523	0.128243	0.126826
H49	H	-1.453280	0.103610	-0.000142
O50	O	-0.948990	0.321616	-0.000118
C51	C	-0.964901	0.452703	-0.000095
H52	H	-1.036666	0.472675	-0.033924
H53	H	-0.965280	0.496085	0.085608
C54	C	-0.796684	0.485787	-0.028597
C55	C	-0.884824	0.510316	-0.070154
H56	H	-0.747287	0.521328	-0.071808
H57	H	-0.785963	0.397472	-0.028608
H58	H	-0.797013	0.521940	0.042822
H59	H	-0.884497	0.474151	-0.141566
H60	H	-0.895542	0.598628	-0.070157
O61	O	-0.954000	0.062789	-0.000118
C62	C	-0.876092	0.144190	-0.000078
H63	H	-0.897458	0.236811	-0.033908
H64	H	-0.854494	0.162899	0.085630
C65	C	-0.765060	-0.031042	-0.028565
C66	C	-0.791299	0.082714	-0.070124
H67	H	-0.712754	-0.068964	-0.071768
H68	H	-0.817547	-0.085884	-0.028587
H69	H	-0.747068	-0.015435	0.042858
H70	H	-0.809302	0.067103	-0.141540
H71	H	-0.738813	0.137552	-0.070115
H72	H	-1.299071	-0.025096	-0.000149
H73	H	-1.448524	0.341792	-0.000144
H74	H	-1.289543	0.451276	-0.000106
H75	H	-1.038145	-0.399777	-0.519345
H76	H	-1.205193	-0.195264	-0.480865
