data_functionalizedCrystal
_audit_creation_method	'MofGen! by Chris Wilmer'
_symmetry_space_group_name_H-M	'P1'
_symmetry_Int_Tables_number	1
_symmetry_cell_setting	triclinic
loop_
_symmetry_equiv_pos_as_xyz
  x,y,z
_cell_length_a	10.723024
_cell_length_b	10.489741
_cell_length_c	9.798715
_cell_angle_alpha	89.997135
_cell_angle_beta	89.996609
_cell_angle_gamma	84.503522
loop_
_atom_site_label
_atom_site_type_symbol
_atom_site_fract_x
_atom_site_fract_y
_atom_site_fract_z
O1	O	1.657297	0.178906	-0.113481
O2	O	1.294155	0.196031	-0.113486
O3	O	1.483989	0.001865	-0.113475
O4	O	1.467463	0.373072	-0.113492
O5	O	1.483975	0.001865	0.113507
O6	O	1.294141	0.196030	0.113496
O7	O	1.657283	0.178906	0.113501
Zn8	Zn	1.475709	0.187468	0.149537
Zn9	Zn	1.475728	0.187469	-0.149522
O10	O	1.467448	0.373071	0.113490
C11	C	1.247647	0.194785	0.000005
C12	C	1.109091	0.191056	0.000003
C13	C	1.482734	-0.045666	0.000015
C14	C	1.478999	-0.187293	0.000012
C15	C	1.034175	0.299701	-0.000003
C16	C	0.890969	0.295850	-0.000004
C17	C	1.358213	-0.255356	0.000001
C18	C	1.415265	-0.347515	0.111915
C19	C	1.415307	-0.347489	-0.111871
C20	C	1.536100	-0.277587	0.112019
C21	C	1.536126	-0.277551	-0.111868
C22	C	1.593265	-0.369683	0.000074
C23	C	1.703790	0.180152	0.000007
C24	C	1.842347	0.183881	-0.000000
C25	C	1.468704	0.420602	-0.000003
C26	C	1.472438	0.562229	-0.000009
N27	N	1.475706	0.187467	0.353637
N28	N	1.475742	0.187460	-0.353622
C29	C	1.555412	0.105583	0.421418
C30	C	1.555432	0.105578	0.578581
H31	H	1.076055	0.395567	0.000001
C32	C	0.928315	0.059949	-0.000208
C33	C	1.003887	0.055291	-0.116968
C34	C	1.083117	-0.058845	-0.117198
H35	H	0.879389	-0.010901	-0.000275
H36	H	0.979743	0.056548	0.078905
H37	H	0.952464	0.058680	-0.196060
H38	H	1.052839	0.126116	-0.116926
H39	H	1.134545	-0.062247	-0.038085
H40	H	1.034181	-0.129687	-0.117261
H41	H	1.134409	-0.062016	-0.196411
H42	H	1.407503	0.257572	0.588098
H43	H	1.067210	0.095190	-0.000028
C44	C	1.384666	0.280739	0.431563
C45	C	1.307566	0.212236	0.513639
C46	C	1.223693	0.298117	0.585455
H47	H	1.334535	0.332149	0.368816
H48	H	1.430211	0.334043	0.487375
H49	H	1.262025	0.158954	0.457833
H50	H	1.357662	0.160830	0.576412
H51	H	1.269238	0.351421	0.641266
H52	H	1.173571	0.349523	0.522698
H53	H	1.171379	0.251651	0.641161
C54	C	1.347349	-0.388955	-0.238080
C55	C	1.428795	-0.472545	-0.315497
C56	C	1.366222	-0.510777	-0.431753
H57	H	1.320151	-0.315829	-0.291278
H58	H	1.276857	-0.431336	-0.211222
H59	H	1.499264	-0.430163	-0.342357
H60	H	1.455997	-0.545690	-0.262340
H61	H	1.295731	-0.553159	-0.404895
H62	H	1.339027	-0.437644	-0.484939
H63	H	1.421471	-0.567506	-0.484288
C64	C	1.646242	0.011928	0.343704
C65	C	1.624582	-0.113567	0.378304
C66	C	1.708223	-0.199865	0.306715
H67	H	1.729786	0.026134	0.366963
H68	H	1.634109	0.024299	0.248400
H69	H	1.636726	-0.125932	0.473586
H70	H	1.541055	-0.127813	0.355040
H71	H	1.696090	-0.187494	0.211412
H72	H	1.791762	-0.185648	0.329981
H73	H	1.693531	-0.285023	0.330172
H74	H	0.826593	0.388858	-0.000015
C75	C	1.225774	-0.189123	0.000422
C76	C	1.163105	-0.224373	0.117877
C77	C	1.041111	-0.163370	0.118327
H78	H	1.182283	-0.214010	-0.078184
H79	H	1.229025	-0.098935	-0.000315
H80	H	1.159848	-0.314542	0.118602
H81	H	1.206559	-0.199484	0.196502
H82	H	1.044361	-0.073182	0.117590
H83	H	0.997631	-0.188262	0.039716
H84	H	0.998578	-0.187269	0.198024
H85	H	1.587157	-0.246787	0.206741
C86	C	1.725822	-0.435616	0.000434
C87	C	1.788455	-0.400168	0.117820
C88	C	1.910560	-0.460896	0.118214
H89	H	1.769209	-0.410651	-0.078219
H90	H	1.722775	-0.525833	-0.000248
H91	H	1.791509	-0.309971	0.118490
H92	H	1.745106	-0.425134	0.196493
H93	H	1.907513	-0.551112	0.117532
H94	H	1.953935	-0.435926	0.039556
H95	H	1.953068	-0.436862	0.197865
C96	C	1.604435	-0.236139	-0.237863
C97	C	1.709585	-0.175915	-0.197892
C98	C	1.772539	-0.137759	-0.313933
H99	H	1.549923	-0.178109	-0.289723
H100	H	1.630345	-0.309153	-0.291823
H101	H	1.683673	-0.102911	-0.143955
H102	H	1.764126	-0.233921	-0.146048
H103	H	1.798449	-0.210773	-0.367893
H104	H	1.718017	-0.079734	-0.365785
H105	H	1.843896	-0.096903	-0.286829
H106	H	1.364151	-0.378494	0.206530
H107	H	1.623676	0.035479	0.636870
