data_functionalizedCrystal
_audit_creation_method	'MofGen! by Chris Wilmer'
_symmetry_space_group_name_H-M	'P1'
_symmetry_Int_Tables_number	1
_symmetry_cell_setting	triclinic
loop_
_symmetry_equiv_pos_as_xyz
  x,y,z
_cell_length_a	16.109302
_cell_length_b	10.489716
_cell_length_c	14.586319
_cell_angle_alpha	90.000245
_cell_angle_beta	89.994552
_cell_angle_gamma	83.995458
loop_
_atom_site_label
_atom_site_type_symbol
_atom_site_fract_x
_atom_site_fract_y
_atom_site_fract_z
O1	O	1.104132	0.163953	-0.076273
O2	O	1.604132	0.663953	0.423727
O3	O	0.862194	0.184355	-0.076265
O4	O	1.362194	0.684355	0.423735
O5	O	0.988679	-0.011526	-0.076273
O6	O	1.488679	0.488474	0.423727
O7	O	0.977647	0.359834	-0.076266
O8	O	1.477647	0.859834	0.423734
O9	O	0.988670	-0.011528	0.076208
O10	O	1.488670	0.488472	0.576208
O11	O	0.862185	0.184353	0.076216
O12	O	1.362185	0.684353	0.576216
O13	O	1.104123	0.163950	0.076208
O14	O	1.604123	0.663950	0.576208
Cu15	Cu	0.983153	0.174151	0.090134
Cu16	Cu	1.483153	0.674151	0.590134
Cu17	Cu	0.983164	0.174155	-0.090192
Cu18	Cu	1.483164	0.674155	0.409808
O19	O	0.977638	0.359831	0.076215
O20	O	1.477638	0.859831	0.576215
C21	C	0.831210	0.183527	-0.000024
C22	C	1.331210	0.683527	0.499976
C23	C	0.738900	0.181049	-0.000021
C24	C	1.238900	0.681049	0.499979
C25	C	0.526519	0.175317	0.083087
C26	C	1.026519	0.675317	0.583087
C27	C	0.439784	0.172975	0.083084
C28	C	0.939784	0.672975	0.583084
C29	C	0.439805	0.172985	-0.083159
C30	C	0.939805	0.672985	0.416841
C31	C	0.526538	0.175318	-0.083155
C32	C	1.026538	0.675318	0.416845
C33	C	0.569892	0.176491	-0.000029
C34	C	1.069892	0.676491	0.499971
C35	C	0.396425	0.171815	-0.000037
C36	C	0.896425	0.671815	0.499963
C37	C	0.302383	0.169276	-0.000041
C38	C	0.802383	0.669276	0.499959
C39	C	0.663940	0.179028	-0.000025
C40	C	1.163940	0.679028	0.499975
C41	C	0.987845	-0.059047	-0.000035
C42	C	1.487845	0.440953	0.499965
C43	C	0.985366	-0.200642	-0.000043
C44	C	1.485366	0.299358	0.499957
C45	C	1.062930	-0.299441	-0.000038
C46	C	1.562930	0.200559	0.499962
C47	C	1.021948	-0.376206	-0.075215
C48	C	1.521948	0.123794	0.424785
C49	C	1.021921	-0.376172	0.075119
C50	C	1.521921	0.123828	0.575119
C51	C	0.944416	-0.275542	-0.075283
C52	C	1.444416	0.224458	0.424717
C53	C	0.944400	-0.275503	0.075119
C54	C	1.444400	0.224497	0.575119
C55	C	0.903361	-0.352218	-0.000077
C56	C	1.403361	0.147782	0.499923
C57	C	1.135107	0.164778	-0.000036
C58	C	1.635107	0.664778	0.499964
C59	C	1.227417	0.167257	-0.000045
C60	C	1.727417	0.667257	0.499955
C61	C	0.978472	0.407353	-0.000025
C62	C	1.478472	0.907353	0.499975
C63	C	0.980951	0.548948	-0.000022
C64	C	1.480951	1.048948	0.499978
N65	N	0.983152	0.174148	0.216966
N66	N	1.483152	0.674148	0.716966
N67	N	0.983172	0.174148	-0.217024
N68	N	1.483172	0.674148	0.282976
C69	C	1.039178	0.087441	0.451969
C70	C	1.539178	0.587441	0.951969
C71	C	1.039180	0.087438	0.547950
C72	C	1.539180	0.587438	1.047950
C73	C	0.927139	0.260859	0.547967
C74	C	1.427139	0.760859	1.047967
C75	C	0.927134	0.260855	0.451987
C76	C	1.427134	0.760855	0.951987
C77	C	0.983158	0.174147	0.403991
C78	C	1.483158	0.674147	0.903991
C79	C	0.983166	0.174148	0.595952
C80	C	1.483166	0.674148	1.095952
C81	C	0.983168	0.174146	0.700019
C82	C	1.483168	0.674146	1.200019
C83	C	0.983155	0.174148	0.299917
C84	C	1.483155	0.674148	0.799917
H85	H	0.404495	0.172031	-0.150837
H86	H	0.904495	0.672031	0.349163
H87	H	1.130397	-0.275743	-0.000116
H88	H	1.630397	0.224257	0.499884
H89	H	0.404473	0.172020	0.150765
H90	H	0.904473	0.672020	0.650765
H91	H	0.561815	0.176272	0.150774
H92	H	1.061815	0.676272	0.650774
H93	H	0.561854	0.176270	-0.150842
H94	H	1.061854	0.676270	0.349158
H95	H	1.054677	-0.420121	0.138674
H96	H	1.554677	0.079879	0.638674
H97	H	1.054694	-0.420174	-0.138775
H98	H	1.554694	0.079826	0.361225
H99	H	0.911694	-0.231762	-0.138910
H100	H	1.411694	0.268238	0.361090
H101	H	0.835843	-0.375669	-0.000115
H102	H	1.335843	0.124331	0.499885
H103	H	0.911682	-0.231512	0.138682
H104	H	1.411682	0.268488	0.638682
H105	H	1.084795	0.016837	0.412893
H106	H	1.584795	0.516837	0.912893
H107	H	1.084796	0.016832	0.587012
H108	H	1.584796	0.516832	1.087012
H109	H	0.881511	0.331462	0.412920
H110	H	1.381511	0.831462	0.912920
H111	H	0.881527	0.331456	0.587055
H112	H	1.381527	0.831456	1.087055
