data_functionalizedCrystal
_audit_creation_method	'MofGen! by Chris Wilmer'
_symmetry_space_group_name_H-M	'P1'
_symmetry_Int_Tables_number	1
_symmetry_cell_setting	triclinic
loop_
_symmetry_equiv_pos_as_xyz
  x,y,z
_cell_length_a	16.109302
_cell_length_b	15.995350
_cell_length_c	15.186229
_cell_angle_alpha	89.998487
_cell_angle_beta	89.994701
_cell_angle_gamma	83.477078
loop_
_atom_site_label
_atom_site_type_symbol
_atom_site_fract_x
_atom_site_fract_y
_atom_site_fract_z
O1	O	1.103159	0.107627	-0.073264
O2	O	0.861101	0.121020	-0.073256
O3	O	0.988747	-0.007566	-0.073259
O4	O	0.975513	0.236213	-0.073261
O5	O	0.988738	-0.007568	0.073198
O6	O	0.861092	0.121018	0.073201
O7	O	1.103151	0.107625	0.073194
Zn8	Zn	0.982120	0.114321	0.096451
Zn9	Zn	0.982131	0.114324	-0.096513
O10	O	0.975505	0.236211	0.073197
C11	C	0.830122	0.120476	-0.000027
C12	C	0.737826	0.118850	-0.000024
C13	C	0.525479	0.115087	0.079801
C14	C	0.438759	0.113549	0.079798
C15	C	0.438779	0.113556	-0.079878
C16	C	0.525498	0.115087	-0.079874
C17	C	0.568846	0.115857	-0.000032
C18	C	0.395406	0.112788	-0.000039
C19	C	0.301380	0.111121	-0.000043
C20	C	0.662878	0.117523	-0.000027
C21	C	0.988196	-0.038761	-0.000032
C22	C	0.986555	-0.131711	-0.000037
C23	C	0.980665	-0.469457	-0.000034
C24	C	0.889758	-0.421999	-0.000360
C25	C	0.891398	-0.325309	-0.000030
C26	C	0.983587	-0.301898	-0.000036
C27	C	1.028420	-0.342988	0.083595
C28	C	1.026137	-0.439623	0.083665
C29	C	1.028024	-0.439980	-0.082884
C30	C	1.028003	-0.343035	-0.083989
C31	C	0.985243	-0.207201	-0.000034
C32	C	0.979012	-0.564155	-0.000030
C33	C	1.134130	0.108169	-0.000038
C34	C	1.226426	0.109796	-0.000046
C35	C	0.976056	0.267407	-0.000032
C36	C	0.977696	0.360357	-0.000033
N37	N	0.982119	0.114319	0.228143
N38	N	0.982140	0.114319	-0.228206
C39	C	1.038660	0.057401	0.453865
C40	C	1.038662	0.057399	0.546054
C41	C	0.925593	0.171241	0.546066
C42	C	0.925587	0.171238	0.453878
C43	C	0.982125	0.114319	0.407780
C44	C	0.982133	0.114320	0.592157
C45	C	0.982136	0.114318	0.692114
C46	C	0.982122	0.114319	0.307817
H47	H	0.856156	-0.296877	-0.059980
H48	H	0.403454	0.112923	0.144806
H49	H	0.403474	0.112930	-0.144882
F50	F	0.842350	-0.447879	0.077382
F51	F	0.865426	0.231817	0.595133
F52	F	0.842267	-0.446205	-0.078750
H53	H	0.560809	0.115712	-0.144887
F54	F	0.865409	0.231818	0.404827
H55	H	0.993437	-0.457917	0.146185
F56	F	0.571611	0.115903	0.164776
H57	H	0.855912	-0.297435	0.060025
H58	H	1.092879	-0.471890	0.087455
H59	H	1.084697	0.011050	0.583574
H60	H	1.096149	-0.328881	0.086701
H61	H	0.997274	-0.314599	0.145835
H62	H	0.998306	-0.460511	-0.146272
F63	F	1.115874	-0.322975	-0.090602
F64	F	0.985488	-0.307017	-0.164868
F65	F	1.115631	-0.481518	-0.083627
F66	F	1.098830	-0.003180	0.404807
