data_functionalizedCrystal
_audit_creation_method	'MofGen! by Chris Wilmer'
_symmetry_space_group_name_H-M	'P1'
_symmetry_Int_Tables_number	1
_symmetry_cell_setting	triclinic
loop_
_symmetry_equiv_pos_as_xyz
  x,y,z
_cell_length_a	19.805407
_cell_length_b	16.959453
_cell_length_c	19.805399
_cell_angle_alpha	89.972778
_cell_angle_beta	89.975799
_cell_angle_gamma	90.021973
loop_
_atom_site_label
_atom_site_type_symbol
_atom_site_fract_x
_atom_site_fract_y
_atom_site_fract_z
Zn1	Zn	1.034753	-0.314716	-0.382805
Zn2	Zn	1.534753	0.185284	0.117195
Zn3	Zn	1.034675	-0.446898	-0.269617
Zn4	Zn	1.534675	0.053102	0.230383
Zn5	Zn	0.921568	-0.314736	-0.269620
Zn6	Zn	1.421568	0.185264	0.230380
Zn7	Zn	0.921538	-0.446854	-0.382755
Zn8	Zn	1.421538	0.053146	0.117245
O9	O	0.978134	-0.380801	-0.326199
O10	O	1.478134	0.119199	0.173801
O11	O	1.129459	-0.332260	-0.367810
O12	O	1.629459	0.167740	0.132190
O13	O	1.019651	-0.429393	-0.174901
O14	O	1.519651	0.070607	0.325099
O15	O	0.936627	-0.204122	-0.284657
O16	O	1.436627	0.295878	0.215343
O17	O	1.129402	-0.429374	-0.284652
O18	O	1.629402	0.070626	0.215348
O19	O	1.019784	-0.204107	-0.367813
O20	O	1.519784	0.295893	0.132187
O21	O	0.936551	-0.332294	-0.174903
O22	O	1.436551	0.167706	0.325097
O23	O	0.826847	-0.332252	-0.284608
O24	O	1.326847	0.167748	0.215392
O25	O	0.936577	-0.429299	-0.477478
O26	O	1.436577	0.070701	0.022522
O27	O	0.826826	-0.429319	-0.367728
O28	O	1.326826	0.070681	0.132272
O29	O	1.019755	-0.332217	-0.477515
O30	O	1.519755	0.167783	0.022485
O31	O	1.019623	-0.557503	-0.284603
O32	O	1.519623	-0.057503	0.215397
O33	O	0.936501	-0.557471	-0.367725
O34	O	1.436501	-0.057471	0.132275
C35	C	0.802278	-0.380783	-0.326163
C36	C	1.302278	0.119217	0.173837
C37	C	0.727046	-0.380795	-0.326164
C38	C	1.227046	0.119205	0.173836
C39	C	0.265261	-0.431439	-0.369455
C40	C	0.765261	0.068561	0.130545
C41	C	0.335950	-0.431437	-0.369441
C42	C	0.835950	0.068563	0.130559
C43	C	0.371284	-0.380820	-0.326226
C44	C	0.871284	0.119180	0.173774
C45	C	0.335926	-0.330206	-0.283018
C46	C	0.835926	0.169794	0.216982
C47	C	0.265239	-0.330212	-0.283029
C48	C	0.765239	0.169788	0.216971
C49	C	0.620999	-0.330182	-0.282970
C50	C	1.120999	0.169818	0.217030
C51	C	0.691691	-0.330179	-0.282963
C52	C	1.191691	0.169821	0.217037
C53	C	0.691710	-0.431407	-0.369382
C54	C	1.191710	0.068593	0.130618
C55	C	0.621023	-0.431413	-0.369393
C56	C	1.121023	0.068587	0.130607
C57	C	0.585671	-0.380803	-0.326183
C58	C	1.085671	0.119197	0.173817
C59	C	0.509023	-0.380806	-0.326198
C60	C	1.009023	0.119194	0.173802
C61	C	0.447931	-0.380812	-0.326214
C62	C	0.947931	0.119188	0.173786
C63	C	0.978069	-0.586167	-0.326173
C64	C	1.478069	-0.086167	0.173827
C65	C	0.978103	-0.674024	-0.326184
C66	C	1.478103	-0.174024	0.173816
C67	C	0.934860	-0.715374	-0.282858
C68	C	1.434860	-0.215374	0.217142
C69	C	1.021375	-0.715228	-0.369526
C70	C	1.521375	-0.215228	0.130474
C71	C	1.021407	-0.797773	-0.369540
C72	C	1.521407	-0.297773	0.130460
C73	C	0.978163	-0.839123	-0.326214
C74	C	1.478163	-0.339123	0.173786
C75	C	0.934888	-0.797927	-0.282873
C76	C	1.434888	-0.297927	0.217127
C77	C	1.064676	-0.838976	-0.412885
C78	C	1.564676	-0.338976	0.087115
C79	C	1.064709	-0.921526	-0.412902
C80	C	1.564709	-0.421526	0.087098
C81	C	1.021468	-0.962878	-0.369572
C82	C	1.521468	-0.462878	0.130428
C83	C	0.978192	-0.921677	-0.326229
C84	C	1.478192	-0.421677	0.173771
C85	C	0.934949	-0.963027	-0.282902
C86	C	1.434949	-0.463027	0.217098
C87	C	0.891676	-0.921827	-0.239555
C88	C	1.391676	-0.421827	0.260445
C89	C	0.891648	-0.839279	-0.239543
C90	C	1.391648	-0.339279	0.260457
C91	C	1.021496	-1.045426	-0.369585
C92	C	1.521496	-0.545426	0.130415
C93	C	0.934978	-1.045580	-0.282917
C94	C	1.434978	-0.545580	0.217083
C95	C	1.154676	-0.380819	-0.326236
C96	C	1.654676	0.119181	0.173764
C97	C	1.229908	-0.380827	-0.326252
C98	C	1.729908	0.119173	0.173748
C99	C	0.978172	-0.380751	-0.502742
C100	C	1.478172	0.119249	-0.002742
C101	C	0.978188	-0.380730	-0.577974
C102	C	1.478188	0.119270	-0.077974
C103	C	0.978217	-0.174633	-0.326241
C104	C	1.478217	0.325367	0.173759
C105	C	0.978253	-0.086776	-0.326258
C106	C	1.478253	0.413224	0.173742
C107	C	1.021500	-0.330177	-0.613339
C108	C	1.521500	0.169823	-0.113339
C109	C	1.021507	-0.330154	-0.684027
C110	C	1.521507	0.169846	-0.184027
C111	C	0.978205	-0.380689	-0.719350
C112	C	1.478205	0.119311	-0.219350
C113	C	0.934888	-0.431244	-0.683981
C114	C	1.434888	0.068756	-0.183981
C115	C	0.934878	-0.431262	-0.613293
C116	C	1.434878	0.068738	-0.113293
C117	C	0.934926	-0.431170	-0.969054
C118	C	1.434926	0.068830	-0.469054
C119	C	0.934941	-0.431150	-1.039746
C120	C	1.434941	0.068850	-0.539746
C121	C	1.021555	-0.330062	-1.039788
C122	C	1.521555	0.169938	-0.539788
C123	C	1.021545	-0.330080	-0.969101
C124	C	1.521545	0.169920	-0.469101
C125	C	0.978226	-0.380632	-0.933737
C126	C	1.478226	0.119368	-0.433737
C127	C	0.978218	-0.380656	-0.857089
C128	C	1.478218	0.119344	-0.357089
C129	C	0.978215	-0.380670	-0.795997
C130	C	1.478215	0.119330	-0.295997
C131	C	0.978135	-0.380794	-0.150343
C132	C	1.478135	0.119206	0.349657
C133	C	0.978250	-0.380592	-0.075112
C134	C	1.478250	0.119408	0.424888
H135	H	0.592257	-0.472628	-0.404586
H136	H	1.092257	0.027372	0.095414
H137	H	0.899765	-1.079241	-0.247633
H138	H	1.399765	-0.579241	0.252367
H139	H	1.056763	-0.289028	-0.584584
H140	H	1.556763	0.210972	-0.084584
C141	C	0.887284	-0.486779	-0.930160
C142	C	1.387284	0.013221	-0.430160
H143	H	0.893471	-0.479550	-0.883002
H144	H	1.393471	0.020450	-0.383002
H145	H	0.897170	-0.539885	-0.941737
H146	H	1.397170	-0.039885	-0.441737
H147	H	0.841811	-0.475198	-0.941738
H148	H	1.341811	0.024802	-0.441738
H149	H	0.236456	-0.288997	-0.247850
H150	H	0.736456	0.211003	0.252150
C151	C	0.844110	-0.967317	-0.191900
C152	C	1.344110	-0.467317	0.308100
H153	H	0.850330	-1.022380	-0.198119
H154	H	1.350330	-0.522380	0.301881
H155	H	0.798621	-0.953823	-0.201749
H156	H	1.298621	-0.453823	0.298251
H157	H	0.854048	-0.953823	-0.146427
H158	H	1.354048	-0.453823	0.353573
C159	C	1.069087	-1.090746	-0.417260
C160	C	1.569087	-0.590746	0.082740
H161	H	1.062909	-1.145831	-0.411067
H162	H	1.562909	-0.645831	0.088933
H163	H	1.114567	-1.077182	-0.407408
H164	H	1.614567	-0.577182	0.092592
H165	H	1.059136	-1.077192	-0.462726
H166	H	1.559136	-0.577192	0.037274
C167	C	0.730595	-0.487086	-0.416910
C168	C	1.230595	0.012914	0.083090
H169	H	0.699427	-0.517225	-0.442653
H170	H	1.199427	-0.017225	0.057347
H171	H	0.758146	-0.521488	-0.390965
H172	H	1.258146	-0.021488	0.109035
H173	H	0.758195	-0.456887	-0.446444
H174	H	1.258195	0.043113	0.053556
H175	H	0.592225	-0.288975	-0.247783
H176	H	1.092225	0.211025	0.252217
H177	H	0.856416	-0.805729	-0.204251
H178	H	1.356416	-0.305729	0.295749
H179	H	0.899628	-0.472387	-0.712746
H180	H	1.399628	0.027613	-0.212746
H181	H	0.899602	-0.472420	-0.584501
H182	H	1.399602	0.027580	-0.084501
C183	C	0.887261	-0.670060	-0.235182
C184	C	1.387261	-0.170060	0.264818
H185	H	0.893432	-0.614974	-0.241378
H186	H	1.393432	-0.114974	0.258622
H187	H	0.897199	-0.683619	-0.189719
H188	H	1.397199	-0.183619	0.310281
H189	H	0.841780	-0.683622	-0.245047
H190	H	1.341780	-0.183622	0.254953
H191	H	0.236497	-0.472653	-0.404649
H192	H	0.736497	0.027347	0.095351
C193	C	1.112312	-0.966839	-0.460575
C194	C	1.612312	-0.466839	0.039425
H195	H	1.138065	-0.930389	-0.486373
H196	H	1.638065	-0.430389	0.013627
H197	H	1.086417	-0.999047	-0.490044
H198	H	1.586417	-0.499047	0.009956
H199	H	1.141835	-0.999029	-0.434714
H200	H	1.641835	-0.499029	0.065286
C201	C	0.374838	-0.487133	-0.416942
C202	C	0.874838	0.012867	0.083058
H203	H	0.421997	-0.479896	-0.410735
H204	H	0.921997	0.020104	0.089265
H205	H	0.363296	-0.475658	-0.462446
H206	H	0.863296	0.024342	0.037554
H207	H	0.363219	-0.540221	-0.406934
H208	H	0.863219	-0.040221	0.093066
C209	C	0.730558	-0.274501	-0.235421
C210	C	1.230558	0.225499	0.264579
H211	H	0.699381	-0.244365	-0.209684
H212	H	1.199381	0.255635	0.290316
H213	H	0.758157	-0.240097	-0.261360
H214	H	1.258157	0.259903	0.238640
H215	H	0.758109	-0.304700	-0.205882
H216	H	1.258109	0.195300	0.294118
H217	H	1.056777	-0.288991	-0.712818
H218	H	1.556777	0.211009	-0.212818
C219	C	1.069174	-0.274493	-0.930246
C220	C	1.569174	0.225507	-0.430246
H221	H	1.062968	-0.281749	-0.883082
H222	H	1.562968	0.218251	-0.383082
H223	H	1.059292	-0.221381	-0.941839
H224	H	1.559292	0.278619	-0.441839
H225	H	1.114652	-0.286066	-0.941839
H226	H	1.614652	0.213934	-0.441839
H227	H	1.056825	-0.288897	-1.068589
H228	H	1.556825	0.211103	-0.568589
C229	C	0.887301	-0.486735	-1.078600
C230	C	1.387301	0.013265	-0.578600
H231	H	0.861496	-0.516839	-1.047416
H232	H	1.361496	-0.016839	-0.547416
H233	H	0.913180	-0.521172	-1.106175
H234	H	1.413180	-0.021172	-0.606175
H235	H	0.857829	-0.456476	-1.106173
H236	H	1.357829	0.043524	-0.606173
H237	H	0.364701	-0.288996	-0.247828
H238	H	0.864701	0.211004	0.252172
C239	C	1.068939	-0.669745	-0.417180
C240	C	1.568939	-0.169745	0.082820
H241	H	1.062726	-0.614682	-0.410961
H242	H	1.562726	-0.114682	0.089039
H243	H	1.059012	-0.683247	-0.462649
H244	H	1.559012	-0.183247	0.037351
H245	H	1.114430	-0.683237	-0.407318
H246	H	1.614430	-0.183237	0.092682
H247	H	1.099880	-0.805306	-0.448164
H248	H	1.599880	-0.305306	0.051836
