data_functionalizedCrystal
_audit_creation_method	'MofGen! by Chris Wilmer'
_symmetry_space_group_name_H-M	'P1'
_symmetry_Int_Tables_number	1
_symmetry_cell_setting	triclinic
loop_
_symmetry_equiv_pos_as_xyz
  x,y,z
_cell_length_a	30.700809
_cell_length_b	30.711276
_cell_length_c	30.700862
_cell_angle_alpha	59.998386
_cell_angle_beta	89.999414
_cell_angle_gamma	60.000191
loop_
_atom_site_label
_atom_site_type_symbol
_atom_site_fract_x
_atom_site_fract_y
_atom_site_fract_z
O1	O	-0.371254	-0.311651	0.012944
O2	O	-0.307913	-0.222487	-0.012907
O3	O	-0.307911	-0.311650	0.076286
O4	O	-0.371257	-0.222488	-0.076249
O5	O	-0.235466	-0.384070	0.076286
O6	O	-0.235468	-0.294907	-0.012907
O7	O	-0.298809	-0.384071	0.012944
Cu8	Cu	-0.260524	-0.346102	0.000018
Cu9	Cu	-0.346199	-0.260456	0.000019
O10	O	-0.298812	-0.294908	-0.076249
C11	C	-0.234796	-0.137097	-0.018777
C12	C	-0.261674	-0.083360	-0.015076
C13	C	-0.182374	-0.163176	-0.019143
C14	C	-0.234798	-0.215942	-0.018783
C15	C	-0.261678	-0.246507	-0.015089
C16	C	-0.182376	-0.241901	-0.019150
C17	C	-0.155920	-0.215947	-0.018777
C18	C	-0.098463	-0.246515	-0.015075
C19	C	-0.261132	-0.163172	-0.019150
C20	C	-0.574961	-0.535511	0.039265
C21	C	-0.548506	-0.588283	0.039634
C22	C	-0.496086	-0.535509	0.039262
C23	C	-0.469751	-0.588281	0.039632
C24	C	-0.496085	-0.614360	0.039265
C25	C	-0.548507	-0.509552	0.039632
C26	C	-0.765169	-0.393516	0.024987
C27	C	-0.819034	-0.364488	0.020950
C28	C	-0.846055	-0.389406	0.018925
C29	C	-0.904462	-0.357927	0.014538
C30	C	-0.819206	-0.443357	0.020941
C31	C	-0.765344	-0.472385	0.024984
C32	C	-0.738325	-0.447463	0.027007
C33	C	-0.447920	-0.790230	0.024988
C34	C	-0.423094	-0.840041	0.020951
C35	C	-0.371150	-0.865027	0.018921
C36	C	-0.344230	-0.919028	0.014536
C37	C	-0.344030	-0.840201	0.020935
C38	C	-0.368852	-0.790399	0.024981
C39	C	-0.420803	-0.765414	0.027004
C40	C	-0.447922	-0.393510	0.024977
C41	C	-0.423099	-0.364475	0.020931
C42	C	-0.371152	-0.389391	0.018903
C43	C	-0.344235	-0.357911	0.014513
C44	C	-0.344034	-0.443338	0.020916
C45	C	-0.368860	-0.472368	0.024960
C46	C	-0.420804	-0.447452	0.026995
C47	C	-0.679920	-0.478941	0.031387
C48	C	-0.633366	-0.504032	0.034880
C49	C	-0.469171	-0.504029	0.034875
C50	C	-0.447717	-0.478936	0.031380
C51	C	-0.469170	-0.668361	0.034880
C52	C	-0.447716	-0.711408	0.031386
C53	C	-0.496432	-0.071057	-0.503890
C54	C	-0.548853	-0.018285	-0.530226
C55	C	-0.496432	-0.071056	-0.425015
C56	C	-0.548854	-0.018284	-0.451470
C57	C	-0.575308	0.007793	-0.503892
C58	C	-0.470097	-0.097014	-0.451469
C59	C	-0.368666	-0.213054	-0.552051
C60	C	-0.343664	-0.242084	-0.576877
C61	C	-0.370616	-0.217167	-0.628824
C62	C	-0.343513	-0.248647	-0.655741
C63	C	-0.422570	-0.163216	-0.655945
C64	C	-0.447565	-0.134187	-0.631122
C65	C	-0.420611	-0.159108	-0.579173
C66	C	-0.765518	0.183662	-0.631659
C67	C	-0.819384	0.233473	-0.656662
C68	C	-0.846408	0.258459	-0.629712
C69	C	-0.904813	0.312461	-0.656813
C70	C	-0.819559	0.233635	-0.577758
C71	C	-0.765694	0.183833	-0.552761
C72	C	-0.738677	0.158847	-0.579717
C73	C	-0.368668	-0.213052	-0.234803
C74	C	-0.343669	-0.242086	-0.180935
C75	C	-0.370621	-0.217169	-0.153914
C76	C	-0.343519	-0.248648	-0.095506
C77	C	-0.422573	-0.163222	-0.180762
C78	C	-0.447570	-0.134193	-0.234627
C79	C	-0.420610	-0.159111	-0.261646
C80	C	-0.447720	-0.127629	-0.552258
C81	C	-0.469327	-0.102536	-0.530805
C82	C	-0.469328	-0.102535	-0.366609
C83	C	-0.447721	-0.127627	-0.320054
C84	C	-0.633714	0.061794	-0.530997
C85	C	-0.680269	0.104841	-0.552605
O86	O	0.076277	-0.384081	0.012960
O87	O	-0.076257	-0.294916	-0.012894
O88	O	0.012931	-0.384083	0.076300
O89	O	-0.012910	-0.294914	-0.076234
O90	O	0.012933	-0.311666	0.076306
O91	O	-0.076254	-0.222499	-0.012888
O92	O	0.076280	-0.311664	0.012966
Cu93	Cu	0.000013	-0.260469	0.000040
Cu94	Cu	0.000010	-0.346111	0.000033
O95	O	-0.012908	-0.222497	-0.076228
O96	O	-0.298805	0.063292	0.012964
O97	O	-0.235462	-0.063346	-0.012888
O98	O	-0.235465	-0.063353	0.076305
O99	O	-0.298803	0.063300	-0.076229
O100	O	-0.307912	-0.063350	0.076299
O101	O	-0.307909	-0.063342	-0.012895
O102	O	-0.371252	0.063295	0.012958
Cu103	Cu	-0.346196	-0.000023	0.000031
Cu104	Cu	-0.260519	-0.000027	0.000039
O105	O	-0.371250	0.063303	-0.076236
O106	O	-1.076607	0.456783	-0.692421
O107	O	-0.924074	0.330140	-0.629074
O108	O	-1.013262	0.330138	-0.629073
O109	O	-0.987418	0.456785	-0.692422
O110	O	-1.013261	0.330136	-0.701518
O111	O	-0.924072	0.330138	-0.701518
O112	O	-1.076605	0.456781	-0.764865
Cu113	Cu	-1.000338	0.393460	-0.739807
Cu114	Cu	-1.000340	0.393461	-0.654133
O115	O	-0.987417	0.456783	-0.764866
O116	O	-0.307911	-0.311650	-0.764507
O117	O	-0.371254	-0.222491	-0.701165
O118	O	-0.371252	-0.311652	-0.701162
O119	O	-0.307912	-0.222489	-0.764510
O120	O	-0.298806	-0.384074	-0.628716
O121	O	-0.298807	-0.294912	-0.628719
O122	O	-0.235464	-0.384072	-0.692061
Cu123	Cu	-0.260521	-0.346105	-0.653775
Cu124	Cu	-0.346197	-0.260458	-0.739451
O125	O	-0.235466	-0.294910	-0.692064
C126	C	-0.155920	-0.469469	0.234827
C127	C	-0.098464	-0.523208	0.261706
C128	C	-0.182375	-0.443392	0.261162
C129	C	-0.234797	-0.390619	0.155950
C130	C	-0.261676	-0.360052	0.098494
C131	C	-0.261132	-0.364662	0.182405
C132	C	-0.234797	-0.390620	0.234826
C133	C	-0.261675	-0.360052	0.261704
C134	C	-0.182375	-0.443391	0.182406
C135	C	0.018810	-0.390643	0.234846
C136	C	0.015111	-0.360079	0.261727
C137	C	0.019176	-0.443414	0.261179
C138	C	0.018812	-0.390637	0.155967
C139	C	0.015115	-0.360067	0.098511
C140	C	0.019178	-0.443408	0.182420
C141	C	0.018807	-0.469488	0.234841
C142	C	0.015106	-0.523226	0.261717
C143	C	0.019180	-0.364683	0.182425
C144	C	-0.234799	-0.215977	0.234834
C145	C	-0.261678	-0.246545	0.261708
C146	C	-0.182376	-0.241940	0.261172
C147	C	-0.234798	-0.137119	0.155964
C148	C	-0.261676	-0.083372	0.098509
C149	C	-0.182375	-0.163202	0.182421
C150	C	-0.155921	-0.215981	0.234841
C151	C	-0.098464	-0.246554	0.261721
C152	C	-0.261134	-0.163198	0.182415
C153	C	-0.039199	0.007461	-0.503869
C154	C	-0.039568	-0.018614	-0.530207
C155	C	-0.039203	-0.071390	-0.424995
C156	C	-0.039572	-0.097344	-0.451452
C157	C	-0.039201	-0.071385	-0.503874
C158	C	-0.039570	-0.018618	-0.451448
C159	C	-0.024912	0.183325	-0.552025
C160	C	-0.020873	0.233135	-0.576849
C161	C	-0.018844	0.258123	-0.628796
C162	C	-0.014454	0.312124	-0.655711
C163	C	-0.020859	0.233301	-0.655918
C164	C	-0.024906	0.183500	-0.631097
C165	C	-0.026932	0.158512	-0.579148
C166	C	-0.024920	-0.133799	-0.631644
C167	C	-0.020882	-0.162650	-0.656647
C168	C	-0.018855	-0.216605	-0.629699
C169	C	-0.014470	-0.247897	-0.656801
C170	C	-0.020872	-0.241704	-0.577746
C171	C	-0.024919	-0.212847	-0.552747
C172	C	-0.026939	-0.158893	-0.579702
C173	C	-0.024929	-0.133823	-0.234783
C174	C	-0.020887	-0.162684	-0.180915
C175	C	-0.018862	-0.216639	-0.153896
C176	C	-0.014477	-0.247936	-0.095488
C177	C	-0.020875	-0.241733	-0.180745
C178	C	-0.024915	-0.212872	-0.234610
C179	C	-0.026947	-0.158912	-0.261627
C180	C	-0.031316	0.104507	-0.552235
C181	C	-0.034811	0.061462	-0.530782
C182	C	-0.034820	-0.102682	-0.366590
C183	C	-0.031328	-0.127624	-0.320035
C184	C	-0.034816	-0.102672	-0.530980
C185	C	-0.031322	-0.127610	-0.552588
O186	O	-0.012940	-0.294936	0.371303
O187	O	0.012923	-0.384099	0.307961
O188	O	-0.076273	-0.294935	0.307950
O189	O	0.076257	-0.384100	0.371315
O190	O	-0.076265	-0.222515	0.235508
O191	O	0.012932	-0.311679	0.235520
O192	O	-0.012931	-0.222517	0.298862
Cu193	Cu	0.000001	-0.260485	0.260576
Cu194	Cu	-0.000009	-0.346130	0.346247
O195	O	0.076266	-0.311681	0.298873
C196	C	-0.574962	0.464558	-0.503864
C197	C	-0.548506	0.490518	-0.530195
C198	C	-0.496085	0.385697	-0.424987
C199	C	-0.469749	0.411776	-0.451438
C200	C	-0.496084	0.464555	-0.503857
C201	C	-0.548507	0.411779	-0.451444
C202	C	-0.765173	0.526994	-0.552039
C203	C	-0.819039	0.555852	-0.576867
C204	C	-0.846061	0.609814	-0.628812
C205	C	-0.904469	0.641114	-0.655732
C206	C	-0.819211	0.634913	-0.655928
C207	C	-0.765348	0.606050	-0.631102
C208	C	-0.738329	0.552088	-0.579155
C209	C	-0.447916	0.606561	-0.631604
C210	C	-0.423088	0.635592	-0.656601
C211	C	-0.371143	0.610674	-0.629648
C212	C	-0.344222	0.642150	-0.656742
C213	C	-0.344023	0.556716	-0.577696
C214	C	-0.368845	0.527681	-0.552704
C215	C	-0.420798	0.552613	-0.579664
C216	C	-0.447920	0.209802	-0.234786
C217	C	-0.423096	0.159988	-0.180919
C218	C	-0.371148	0.134996	-0.153895
C219	C	-0.344230	0.080987	-0.095489
C220	C	-0.344029	0.159823	-0.180737
C221	C	-0.368856	0.209637	-0.234602
C222	C	-0.420801	0.234620	-0.261624
C223	C	-0.679923	0.520797	-0.552238
C224	C	-0.633367	0.495853	-0.530781
C225	C	-0.469169	0.331687	-0.366583
C226	C	-0.447714	0.288634	-0.320030
C227	C	-0.469167	0.496035	-0.530956
C228	C	-0.447712	0.521128	-0.552558
H229	H	-0.569747	-0.610106	0.040228
O230	O	0.019972	-0.308439	0.154292
H231	H	-0.015996	-0.270141	0.152182
H232	H	-0.304205	-0.141343	-0.019747
O233	O	-0.736733	0.157054	-0.496729
H234	H	-0.721750	0.107860	-0.470203
O235	O	-0.339597	-0.239930	-0.263944
H236	H	-0.299277	-0.282325	-0.236225
O237	O	-0.503595	-0.076000	-0.660375
H238	H	-0.516447	-0.059999	-0.634387
O239	O	-0.452347	-0.866809	0.018774
H240	H	-0.426356	-0.905641	0.015626
H241	H	-0.301723	0.536422	-0.555753
O242	O	-0.154246	-0.472302	0.154272
H243	H	-0.152143	-0.438449	0.118068
O244	O	-0.339605	-0.763630	0.027168
H245	H	-0.362282	-0.714433	-0.007055
O246	O	-0.154238	-0.134293	0.154299
H247	H	-0.181453	-0.093135	0.113326
H248	H	-0.161139	-0.284365	-0.019743
H249	H	-0.026564	-0.233284	-0.510448
O250	O	-0.154237	-0.134270	-0.019930
H251	H	-0.181450	-0.093123	-0.020116
O252	O	-0.027098	0.156378	-0.495996
H253	H	-0.065006	0.160181	-0.496050
H254	H	-0.346761	0.483749	-0.510407
O255	O	-0.452347	0.133213	-0.151974
H256	H	-0.456191	0.137025	-0.117880
H257	H	-0.445184	-0.320548	0.019287
O258	O	-0.736375	0.156717	-0.660731
H259	H	-0.764089	0.182349	-0.701057
O260	O	-0.848355	0.260230	-0.712681
H261	H	-0.863348	0.309426	-0.739231
H262	H	-0.161141	-0.284407	0.304244
H263	H	-0.304205	-0.141373	0.161175
H264	H	-0.019230	0.253339	-0.554762
H265	H	-0.040166	-0.139808	-0.430213
O266	O	-0.287997	0.132866	-0.151592
H267	H	-0.273313	0.158501	-0.179307
H268	H	0.019760	-0.465234	0.304248
O269	O	-0.412715	-0.617160	0.040364
H270	H	-0.398772	-0.590132	0.040535
H271	H	-0.040160	0.003216	-0.573279
H272	H	-0.019230	-0.285631	-0.555806
O273	O	-0.339614	-0.530550	0.027131
H274	H	-0.299322	-0.543001	0.025044
O275	O	-0.027098	-0.239931	-0.263568
H276	H	-0.030246	-0.210800	-0.305562
O277	O	-0.848691	0.260600	-0.548697
H278	H	-0.890655	0.299407	-0.574808
O279	O	-0.576636	-0.453303	0.040415
H280	H	-0.617610	-0.439549	0.040606
H281	H	-0.040120	0.003178	-0.430195
H282	H	-0.019235	-0.142256	-0.159055
H283	H	-0.490218	-0.769893	0.026639
H284	H	0.019779	-0.465234	0.161179
O285	O	-0.503950	-0.366634	0.027162
H286	H	-0.518641	-0.324239	0.025073
O287	O	-0.027110	-0.075631	-0.263923
H288	H	-0.025021	-0.063036	-0.236203
H289	H	-0.743175	-0.373219	0.026636
O290	O	-0.288005	-0.470213	0.018730
H291	H	-0.287073	-0.471882	-0.016570
O292	O	-0.848347	-0.470233	0.018759
H293	H	-0.847600	-0.471914	-0.016535
H294	H	-0.019210	0.253653	-0.698214
O295	O	-0.027086	0.156733	-0.660348
H296	H	-0.024994	0.182472	-0.700639
O297	O	-0.027107	-0.075603	-0.660715
H298	H	-0.025032	-0.062994	-0.701041
O299	O	-0.018691	-0.135594	-0.712672
H300	H	-0.020768	-0.093235	-0.727209
O301	O	-0.287638	-0.300271	-0.151974
H302	H	-0.260260	-0.290801	-0.171904
O303	O	-0.018708	-0.299917	-0.151612
H304	H	-0.015571	-0.315766	-0.109648
H305	H	-0.426677	0.389946	-0.430194
H306	H	-0.569746	0.532985	-0.573266
O307	O	-0.576636	0.382863	-0.423312
H308	H	-0.617611	0.409882	-0.450528
H309	H	-0.490215	0.626864	-0.653559
O310	O	-0.318184	-0.308413	0.154268
H311	H	-0.320521	-0.270120	0.152162
O312	O	-0.848000	0.528791	-0.547621
H313	H	-0.820164	0.486425	-0.507328
H314	H	-0.570092	0.003538	-0.430229
O315	O	-0.847994	-0.306297	0.018767
H316	H	-0.820159	-0.293842	0.020846
O317	O	-0.503950	0.236759	-0.263931
H318	H	-0.518642	0.211136	-0.236216
O319	O	-0.736029	0.468786	-0.496017
H320	H	-0.763743	0.456177	-0.481337
O321	O	-0.736387	-0.530568	0.027155
H322	H	-0.764224	-0.543016	0.025062
O323	O	-0.288004	-0.867144	0.018748
H324	H	-0.275299	-0.905943	0.015593
O325	O	-0.848350	0.693106	-0.711954
H326	H	-0.890317	0.708962	-0.724663
O327	O	-0.576992	0.010627	-0.587278
H328	H	-0.549780	-0.016393	-0.601225
H329	H	-0.427024	-0.139478	-0.430231
H330	H	-0.346770	0.229846	-0.256454
H331	H	-0.489870	-0.090268	-0.256484
H332	H	-0.444519	-0.142934	-0.158758
H333	H	-0.743490	0.626486	-0.653184
O334	O	-0.452337	0.693786	-0.712628
H335	H	-0.492631	0.706243	-0.727171
H336	H	-0.346713	-0.233351	-0.509753
O337	O	-0.287638	-0.300278	-0.547623
H338	H	-0.273099	-0.312734	-0.507328
O339	O	-0.451687	-0.136323	-0.711960
H340	H	-0.428968	-0.124833	-0.738462
O341	O	-0.154245	-0.472295	0.318214
H342	H	-0.113268	-0.513441	0.332162
