data_functionalizedCrystal
_audit_creation_method	'MofGen! by Chris Wilmer'
_symmetry_space_group_name_H-M	'P1'
_symmetry_Int_Tables_number	1
_symmetry_cell_setting	triclinic
loop_
_symmetry_equiv_pos_as_xyz
  x,y,z
_cell_length_a	14.853566
_cell_length_b	14.853567
_cell_length_c	16.053802
_cell_angle_alpha	92.572962
_cell_angle_beta	87.418009
_cell_angle_gamma	83.634672
loop_
_atom_site_label
_atom_site_type_symbol
_atom_site_fract_x
_atom_site_fract_y
_atom_site_fract_z
O1	O	1.200161	0.113911	-0.069367
O2	O	0.937702	0.127933	-0.069380
O3	O	1.075942	-0.010308	-0.069376
O4	O	1.061920	0.252152	-0.069371
O5	O	1.068333	-0.002730	0.069483
O6	O	0.930093	0.135511	0.069479
O7	O	1.192551	0.121489	0.069492
Zn8	Zn	1.060114	0.129703	0.091532
Zn9	Zn	1.070139	0.119719	-0.091420
O10	O	1.054311	0.259730	0.069488
C11	C	0.900308	0.131087	0.000048
C12	C	0.800225	0.129183	0.000042
C13	C	0.381187	0.117002	-0.075635
C14	C	0.372913	0.125265	0.075754
C15	C	0.466947	0.127052	0.075752
C16	C	0.518105	0.123816	0.000055
C17	C	0.475230	0.118792	-0.075640
C18	C	0.509828	0.132084	0.151445
C19	C	0.603868	0.133873	0.151445
C20	C	0.655029	0.130630	0.075747
C21	C	0.612148	0.125606	0.000050
C22	C	0.663307	0.122370	-0.075647
C23	C	0.620428	0.117339	-0.151346
C24	C	0.526391	0.115550	-0.151338
C25	C	0.749066	0.132419	0.075739
C26	C	0.757349	0.124160	-0.075652
C27	C	1.071502	-0.040108	0.000051
C28	C	1.069599	-0.140192	0.000044
C29	C	0.979432	-0.552725	0.000055
C30	C	1.143665	-0.574006	0.000063
C31	C	1.145455	-0.479973	0.000059
C32	C	1.064233	-0.422311	0.000053
C33	C	0.981220	-0.458682	0.000053
C34	C	1.228466	-0.443593	0.000067
C35	C	1.230260	-0.349554	0.000064
C36	C	1.149037	-0.291891	0.000052
C37	C	1.066021	-0.328268	0.000051
C38	C	0.984798	-0.270606	0.000046
C39	C	0.901782	-0.306981	0.000039
C40	C	0.899997	-0.401019	0.000042
C41	C	1.150821	-0.197854	0.000049
C42	C	0.986586	-0.176563	0.000044
C43	C	1.229945	0.118335	0.000062
C44	C	1.330029	0.120239	0.000062
C45	C	1.058751	0.289530	0.000059
C46	C	1.060655	0.389613	0.000061
N47	N	1.053278	0.136516	0.216392
N48	N	1.076982	0.112899	-0.216280
C49	C	1.112121	0.077716	0.260088
C50	C	1.107348	0.082490	0.347495
C51	C	1.043736	0.146070	0.391204
C52	C	0.984887	0.204874	0.347502
C53	C	0.989656	0.200094	0.260097
C54	C	1.022902	0.166922	0.652613
C55	C	1.018139	0.171699	0.740024
C56	C	1.140600	0.049314	0.740011
C57	C	1.145367	0.044544	0.652604
C58	C	1.086515	0.103344	0.608910
N59	N	1.038857	0.150954	0.480547
N60	N	1.091390	0.098455	0.519568
H61	H	0.783973	0.136524	0.137372
O62	O	1.222542	-0.630061	-0.000077
C63	C	1.230347	-0.689041	-0.071978
H64	H	1.187044	-0.657409	-0.122247
H65	H	1.206035	-0.756559	-0.055713
C66	C	1.383398	-0.743841	-0.042841
C67	C	1.330218	-0.704987	-0.104586
H68	H	1.445003	-0.753682	-0.062954
H69	H	1.378140	-0.704108	0.005602
H70	H	1.363128	-0.800103	-0.029293
H71	H	1.350481	-0.648722	-0.118125
H72	H	1.335482	-0.744711	-0.153032
H73	H	0.491471	0.111453	-0.212967
H74	H	0.662093	0.114710	-0.212978
H75	H	0.832409	-0.430644	0.000037
O76	O	1.307341	-0.499651	-0.000071
C77	C	1.315150	-0.558625	-0.071977
H78	H	1.271853	-0.526985	-0.122247
H79	H	1.290832	-0.626143	-0.055720
C80	C	1.468195	-0.613437	-0.042830
C81	C	1.415023	-0.574573	-0.104577
H82	H	1.529802	-0.623279	-0.062938
H83	H	1.462934	-0.573708	0.005615
H84	H	1.447920	-0.669698	-0.029289
H85	H	1.435292	-0.518309	-0.118109
H86	H	1.420290	-0.614293	-0.153026
H87	H	0.920444	-0.129620	0.000036
O88	O	1.231402	-0.162415	-0.000055
C89	C	1.241304	-0.112608	-0.071985
H90	H	1.171592	-0.090595	-0.095970
H91	H	1.283903	-0.156854	-0.122336
C92	C	1.374371	-0.055208	-0.020681
C93	C	1.288748	-0.028163	-0.050136
H94	H	1.403640	-0.003120	-0.007206
H95	H	1.367702	-0.088766	0.027778
H96	H	1.409858	-0.092080	-0.062645
H97	H	1.253258	0.008698	-0.008168
H98	H	1.295412	0.005403	-0.098588
O99	O	0.956253	0.233482	0.782355
C100	C	0.905341	0.284367	0.725048
H101	H	0.907683	0.244000	0.662744
H102	H	0.935184	0.350895	0.715745
C103	C	0.803373	0.354193	0.835702
C104	C	0.806244	0.304610	0.759181
H105	H	0.742246	0.366684	0.856757
H106	H	0.837675	0.319914	0.874312
H107	H	0.828247	0.409627	0.827939
H108	H	0.781380	0.249173	0.766947
H109	H	0.771935	0.338881	0.720573
O110	O	0.898731	-0.587940	0.000159
C111	C	0.845279	-0.554578	0.072082
H112	H	0.868616	-0.488021	0.096064
H113	H	0.852890	-0.606233	0.122439
C114	C	0.716421	-0.620012	0.020773
C115	C	0.745079	-0.538262	0.050224
H116	H	0.654613	-0.609951	0.007292
H117	H	0.752433	-0.642492	-0.027682
H118	H	0.722772	-0.663050	0.062742
H119	H	0.738739	-0.495230	0.008251
H120	H	0.709063	-0.515774	0.098671
H121	H	1.163925	0.025946	0.224506
O122	O	1.310929	-0.314276	-0.000084
C123	C	1.364394	-0.347683	-0.071986
H124	H	1.318607	-0.370054	-0.122250
H125	H	1.413665	-0.408016	-0.055721
C126	C	1.474326	-0.244978	-0.042867
C127	C	1.418089	-0.272448	-0.104605
H128	H	1.507451	-0.198572	-0.062987
H129	H	1.438308	-0.222473	0.005577
H130	H	1.515377	-0.295263	-0.029318
H131	H	1.377032	-0.222166	-0.118145
H132	H	1.454102	-0.294942	-0.153052
O133	O	0.645495	0.138592	0.224997
C134	C	0.630084	0.062661	0.271051
H135	H	0.613721	0.005226	0.226759
H136	H	0.570631	0.081839	0.318250
C137	C	0.735763	0.101941	0.371832
C138	C	0.715673	0.031395	0.317431
H139	H	0.788556	0.082656	0.400445
H140	H	0.746143	0.153099	0.340807
H141	H	0.686212	0.117916	0.411157
H142	H	0.765219	0.015429	0.278101
H143	H	0.705303	-0.019767	0.348451
H144	H	0.835650	-0.260020	0.000040
O145	O	1.164613	0.025340	0.389811
C146	C	1.221774	-0.031808	0.332489
H147	H	1.226224	0.001750	0.270179
H148	H	1.192946	-0.099352	0.323208
C149	C	1.311681	-0.089539	0.443113
C150	C	1.317152	-0.048320	0.366585
H151	H	1.370514	-0.099729	0.464146
H152	H	1.273169	-0.051040	0.481733
H153	H	1.287654	-0.145821	0.435369
H154	H	1.341168	0.007966	0.374332
H155	H	1.355671	-0.086810	0.327967
O156	O	1.207185	-0.017302	0.610277
C157	C	1.258114	-0.068163	0.667588
H158	H	1.217754	-0.065845	0.729900
H159	H	1.324611	-0.038259	0.676869
C160	C	1.328012	-0.170099	0.556947
C161	C	1.278437	-0.167257	0.633477
H162	H	1.340552	-0.231224	0.535906
H163	H	1.293703	-0.135831	0.518334
H164	H	1.383420	-0.145174	0.564692
H165	H	1.223026	-0.192172	0.625729
H166	H	1.312738	-0.201532	0.672088
O167	O	0.965873	0.224085	0.610088
C168	C	1.016981	0.277045	0.559537
H169	H	1.088190	0.240542	0.546424
H170	H	1.021361	0.345521	0.593224
C171	C	0.883239	0.336537	0.492629
C172	C	0.970697	0.291700	0.476518
H173	H	0.854688	0.345581	0.441420
H174	H	0.848806	0.300859	0.526688
H175	H	0.886901	0.393596	0.520704
H176	H	0.967033	0.234638	0.448453
H177	H	1.005129	0.327368	0.442452
H178	H	1.188514	0.001441	0.775594
H179	H	0.798997	0.121521	-0.137295
H180	H	0.346272	0.112903	-0.137267
H181	H	0.933087	0.256639	0.383095
H182	H	0.941739	0.247975	0.224521
H183	H	0.468168	0.134725	0.213073
O184	O	0.323331	0.128294	0.149334
C185	C	0.353883	0.053212	0.195371
H186	H	0.426710	0.027323	0.173849
H187	H	0.308611	-0.002996	0.184875
C188	C	0.260588	0.113892	0.315348
C189	C	0.350038	0.082100	0.288918
H190	H	0.258213	0.131709	0.373052
H191	H	0.240002	0.164475	0.284331
H192	H	0.222871	0.067046	0.306594
H193	H	0.387751	0.128949	0.297662
H194	H	0.370631	0.031526	0.319938
