data_functionalizedCrystal
_audit_creation_method	'MofGen! by Chris Wilmer'
_symmetry_space_group_name_H-M	'P1'
_symmetry_Int_Tables_number	1
_symmetry_cell_setting	triclinic
loop_
_symmetry_equiv_pos_as_xyz
  x,y,z
_cell_length_a	19.077236
_cell_length_b	13.034595
_cell_length_c	19.077174
_cell_angle_alpha	99.147242
_cell_angle_beta	85.294282
_cell_angle_gamma	85.409765
loop_
_atom_site_label
_atom_site_type_symbol
_atom_site_fract_x
_atom_site_fract_y
_atom_site_fract_z
Zn1	Zn	1.127387	-0.377242	-0.475647
Zn2	Zn	1.137555	-0.545224	-0.372754
Zn3	Zn	1.004770	-0.377258	-0.353032
Zn4	Zn	1.025643	-0.558643	-0.487056
O5	O	1.073839	-0.464592	-0.422122
O6	O	1.226887	-0.393902	-0.465477
O7	O	1.115461	-0.517334	-0.270987
O8	O	1.008044	-0.231044	-0.356269
O9	O	1.234358	-0.517318	-0.389882
O10	O	1.098131	-0.231032	-0.446354
O11	O	1.017904	-0.393930	-0.256497
O12	O	0.909387	-0.406942	-0.367331
O13	O	1.043619	-0.540189	-0.584694
O14	O	0.924722	-0.540205	-0.465798
O15	O	1.118370	-0.406914	-0.576312
O16	O	1.135701	-0.693216	-0.400945
O17	O	1.053479	-0.703075	-0.484922
C18	C	0.891605	-0.475032	-0.415663
C19	C	0.813648	-0.479524	-0.412919
C20	C	0.773147	-0.417489	-0.451067
C21	C	0.699897	-0.421704	-0.448482
C22	C	0.667150	-0.487962	-0.407752
C23	C	0.707656	-0.550000	-0.369600
C24	C	0.780904	-0.545778	-0.372181
C25	C	0.448498	-0.507462	-0.395799
C26	C	0.375245	-0.511681	-0.393223
C27	C	0.367491	-0.383384	-0.472104
C28	C	0.440741	-0.379173	-0.474685
C29	C	0.481240	-0.441206	-0.436529
N30	N	0.592278	-0.492275	-0.405111
N31	N	0.556111	-0.436887	-0.439167
C32	C	1.097978	-0.736056	-0.446328
C33	C	1.108370	-0.852188	-0.456709
C34	C	1.068471	-0.904048	-0.416738
C35	C	1.079211	-1.024076	-0.427466
C36	C	1.256784	-0.454112	-0.428607
C37	C	1.334744	-0.449646	-0.431370
C38	C	1.082189	-0.475047	-0.606930
C39	C	1.085747	-0.479502	-0.685684
C40	C	1.049625	-0.192067	-0.397839
C41	C	1.039306	-0.075933	-0.387490
C42	C	1.036628	-0.417347	-0.715139
C43	C	1.039970	-0.421542	-0.789137
C44	C	1.092434	-0.487888	-0.833680
C45	C	1.141555	-0.550050	-0.804221
C46	C	1.138210	-0.545860	-0.730224
C47	C	1.107882	-0.507315	-1.055797
C48	C	1.111225	-0.511498	-1.129798
C49	C	1.009638	-0.382990	-1.114710
C50	C	1.006300	-0.378801	-1.040712
C51	C	1.055419	-0.440968	-1.011259
N52	N	1.095852	-0.492175	-0.909318
N53	N	1.051998	-0.436685	-0.935623
C54	C	1.065555	-0.454100	-0.238028
C55	C	1.062106	-0.449342	-0.159253
H56	H	0.334509	-0.332878	-0.503166
H57	H	0.481464	-0.557975	-0.364731
H58	H	0.348585	-0.565641	-0.360056
C59	C	0.655347	-0.353475	-0.490449
H60	H	0.607032	-0.365468	-0.483074
H61	H	0.670881	-0.370882	-0.539834
H62	H	0.660635	-0.281970	-0.474319
C63	C	0.978912	-0.344374	-0.666149
H64	H	0.950133	-0.307968	-0.694293
H65	H	1.000385	-0.295674	-0.634173
H66	H	0.950599	-0.384474	-0.639766
C67	C	1.165258	-0.912240	-0.513668
H68	H	1.165011	-0.985035	-0.513410
H69	H	1.210337	-0.891064	-0.503423
H70	H	1.155515	-0.897680	-0.559320
C71	C	1.136102	-1.084124	-0.484429
H72	H	1.135854	-1.156919	-0.484170
H73	H	1.181181	-1.062948	-0.474183
H74	H	1.126358	-1.069564	-0.530080
H75	H	0.813879	-0.596293	-0.341117
C76	C	0.809166	-0.344609	-0.495870
H77	H	0.858592	-0.350985	-0.491951
H78	H	0.790445	-0.274493	-0.478896
H79	H	0.800690	-0.363402	-0.544413
C80	C	0.948595	-0.305812	-0.991719
H81	H	0.919818	-0.269397	-1.019860
H82	H	0.970084	-0.257121	-0.959753
H83	H	0.920275	-0.345893	-0.965327
C84	C	0.476757	-0.306279	-0.519480
H85	H	0.442143	-0.269928	-0.541824
H86	H	0.510295	-0.346409	-0.554884
H87	H	0.500042	-0.257514	-0.489359
C88	C	0.671637	-0.622883	-0.324800
H89	H	0.622213	-0.616522	-0.328731
H90	H	0.680110	-0.604102	-0.276260
H91	H	0.690361	-0.693001	-0.341782
C92	C	1.011582	-0.843996	-0.359779
H93	H	1.011824	-0.771201	-0.360045
H94	H	1.021317	-0.858558	-0.314130
H95	H	0.966502	-0.865171	-0.370034
H96	H	1.184270	-0.604076	-0.840494
H97	H	1.147872	-0.557947	-1.031827
H98	H	1.153951	-0.565526	-1.166064
H99	H	1.178213	-0.596466	-0.706243
H100	H	0.997196	-1.031477	-0.345322
C101	C	0.985922	-0.353206	-0.821540
H102	H	0.995415	-0.365222	-0.871990
H103	H	0.989380	-0.281720	-0.803535
H104	H	0.939614	-0.370546	-0.809094
C105	C	0.955605	-0.314627	-1.147110
H106	H	0.965105	-0.326629	-1.197559
H107	H	0.959079	-0.243149	-1.129094
H108	H	0.909290	-0.331946	-1.134674
