data_functionalizedCrystal
_audit_creation_method	'MofGen! by Chris Wilmer'
_symmetry_space_group_name_H-M	'P1'
_symmetry_Int_Tables_number	1
_symmetry_cell_setting	triclinic
loop_
_symmetry_equiv_pos_as_xyz
  x,y,z
_cell_length_a	10.967926
_cell_length_b	17.019294
_cell_length_c	10.065875
_cell_angle_alpha	94.957055
_cell_angle_beta	93.120479
_cell_angle_gamma	84.884424
loop_
_atom_site_label
_atom_site_type_symbol
_atom_site_fract_x
_atom_site_fract_y
_atom_site_fract_z
O1	O	1.615134	0.135993	0.250397
O2	O	1.265126	0.138220	0.167813
O3	O	1.447829	0.023860	0.224231
O4	O	1.432431	0.250352	0.193978
O5	O	1.412992	0.045759	0.440451
O6	O	1.230289	0.160118	0.384033
O7	O	1.580296	0.157891	0.466617
Zn8	Zn	1.399761	0.162481	0.459654
Zn9	Zn	1.445661	0.133629	0.174775
O10	O	1.397594	0.272250	0.410198
C11	C	1.202884	0.147352	0.265594
C12	C	1.069325	0.141930	0.234818
C13	C	0.991732	0.150856	0.333105
C14	C	0.853691	0.145252	0.301299
C15	C	1.429139	0.005732	0.335458
C16	C	1.425338	-0.080910	0.344743
C17	C	1.442545	-0.133547	0.231245
C18	C	1.438965	-0.214956	0.239971
C19	C	1.418187	-0.243727	0.362199
C20	C	1.400976	-0.191083	0.475705
C21	C	1.404547	-0.109676	0.466975
C22	C	1.406446	-0.488929	0.394451
C23	C	1.402879	-0.570343	0.403173
C24	C	1.440867	-0.594210	0.167438
C25	C	1.444444	-0.512800	0.158721
C26	C	1.427226	-0.460163	0.272225
C27	C	1.414531	-0.326940	0.371122
C28	C	1.430873	-0.376952	0.263298
C29	C	1.642539	0.148758	0.368833
C30	C	1.776100	0.154180	0.399600
C31	C	1.416284	0.290378	0.298968
C32	C	1.420086	0.377020	0.289675
N33	N	1.368445	0.182172	0.654079
N34	N	1.476987	0.113933	-0.019647
C35	C	1.434758	0.140475	0.742357
C36	C	1.410665	0.155636	0.892075
H37	H	1.459471	-0.110130	0.131715
H38	H	1.397618	-0.350375	0.470642
H39	H	1.293831	0.229091	0.689339
C40	C	1.577784	0.050539	0.932747
H41	H	1.616257	0.026342	1.007548
H42	H	1.636952	0.074619	0.888073
H43	H	1.542317	0.011534	0.873264
C44	C	1.309849	0.219017	0.939682
H45	H	1.271359	0.243204	0.864880
H46	H	1.345286	0.258022	0.999178
H47	H	1.250686	0.194915	0.984340
C48	C	0.824390	0.170111	0.545099
H49	H	0.757808	0.174979	0.602638
H50	H	0.864152	0.217768	0.553920
H51	H	0.880991	0.127400	0.568507
H52	H	1.027500	0.162643	0.440800
C53	C	1.453731	-0.345310	0.128854
H54	H	1.463464	-0.388315	0.062499
H55	H	1.525914	-0.317953	0.137484
H56	H	1.385900	-0.310143	0.103623
C57	C	1.021025	0.126005	0.089326
H58	H	1.087607	0.121128	0.031787
H59	H	0.964420	0.168710	0.065925
H60	H	0.981268	0.078341	0.080504
C61	C	1.459789	-0.652110	0.042592
H62	H	1.454676	-0.704714	0.065288
H63	H	1.538178	-0.647581	0.009650
H64	H	1.398160	-0.639762	-0.024186
H65	H	1.390518	-0.066817	0.559393
C66	C	1.535548	0.077085	0.694735
H67	H	1.538523	0.075215	0.600355
H68	H	1.517843	0.026928	0.719823
H69	H	1.612471	0.090017	0.734636
C70	C	1.467285	-0.481157	0.024267
H71	H	1.477008	-0.524166	-0.042084
H72	H	1.539468	-0.453801	0.032879
H73	H	1.399450	-0.445991	-0.000956
H74	H	0.817931	0.133458	0.193598
H75	H	1.385952	-0.593764	0.502709
C76	C	1.378124	-0.222729	0.610153
H77	H	1.378475	-0.278753	0.599102
H78	H	1.300904	-0.200579	0.640232
H79	H	1.440922	-0.208389	0.674072
C80	C	1.387528	-0.431040	0.519306
H81	H	1.374659	-0.459838	0.593351
H82	H	1.318128	-0.394876	0.503890
H83	H	1.458147	-0.402698	0.537723
H84	H	1.452982	-0.257811	0.147550
