data_functionalizedCrystal
_audit_creation_method	'MofGen! by Chris Wilmer'
_symmetry_space_group_name_H-M	'P1'
_symmetry_Int_Tables_number	1
_symmetry_cell_setting	triclinic
loop_
_symmetry_equiv_pos_as_xyz
  x,y,z
_cell_length_a	20.016444
_cell_length_b	14.560438
_cell_length_c	14.560438
_cell_angle_alpha	59.995857
_cell_angle_beta	90.001382
_cell_angle_gamma	60.001313
loop_
_atom_site_label
_atom_site_type_symbol
_atom_site_fract_x
_atom_site_fract_y
_atom_site_fract_z
Zr1	Zr	0.643612	1.005285	-0.120547
O2	O	0.536936	1.196901	-0.267216
O3	O	0.676313	0.813674	-0.075577
O4	O	0.676314	1.005286	-0.267194
O5	O	0.536936	1.005287	0.075542
O6	O	0.786259	1.005281	-0.267186
O7	O	0.536936	1.005289	-0.075599
O8	O	0.786257	0.662523	0.075581
O9	O	0.536937	1.348045	-0.267225
O10	O	0.772311	0.892481	-0.056403
O11	O	0.690261	0.892483	0.056387
O12	O	0.690262	1.118080	-0.169217
O13	O	0.608212	1.118082	-0.056428
Zr14	Zr	0.818961	1.005272	0.120517
Zr15	Zr	0.818961	1.005276	-0.120535
Zr16	Zr	0.643612	1.005281	0.120505
Zr17	Zr	0.643614	1.246342	-0.120563
Zr18	Zr	0.818960	0.764215	0.120532
O19	O	0.786260	1.196883	0.075547
O20	O	0.786260	1.196889	-0.267199
O21	O	0.536937	1.196895	0.075530
O22	O	0.925637	0.813656	0.267185
O23	O	0.925637	0.813662	-0.075560
O24	O	0.676314	0.813668	0.267168
O25	O	0.925638	1.005270	-0.075573
O26	O	0.786259	1.005271	0.267163
O27	O	0.676315	1.005276	0.267156
O28	O	0.925638	1.005268	0.075568
O29	O	0.676316	1.348038	-0.267216
O30	O	0.786257	0.662519	0.267185
O31	O	0.925636	0.662512	0.267195
O32	O	0.925636	0.662516	0.075590
O33	O	0.536937	1.348041	-0.075621
O34	O	0.676316	1.348034	-0.075611
O35	O	0.772311	0.892477	0.169187
O36	O	0.854362	0.892475	0.056398
O37	O	0.772312	1.118074	-0.056417
O38	O	0.690262	1.118076	0.056372
C39	C	0.731285	0.703753	0.000004
C40	C	0.731284	0.601418	0.000011
C41	C	0.670714	0.636636	-0.083276
C42	C	0.670717	0.540497	-0.083305
C43	C	0.791866	0.373921	0.083250
C44	C	0.791865	0.470060	0.083273
C45	C	0.511952	1.005289	-0.000030
C46	C	0.437512	1.005293	-0.000035
C47	C	0.266256	1.005279	-0.083283
C48	C	0.196316	1.005271	-0.083276
C49	C	0.196323	1.005274	0.083261
C50	C	0.266266	1.005273	0.083257
C51	C	0.301228	1.005282	-0.000021
C52	C	0.161345	1.005275	-0.000009
C53	C	0.085513	1.005266	-0.000001
C54	C	0.377066	1.005288	-0.000029
C55	C	0.950621	1.005268	-0.000000
C56	C	1.025061	1.005264	0.000005
C57	C	0.731286	1.005284	-0.301535
C58	C	0.731286	1.005286	-0.403868
C59	C	0.731288	1.306804	-0.000035
C60	C	0.731289	1.409139	-0.000041
C61	C	0.791855	1.005284	-0.451940
C62	C	0.791858	1.005272	-0.548086
C63	C	0.670715	1.005269	-0.548082
C64	C	0.670716	1.005272	-0.451933
C65	C	0.731287	1.005273	0.301504
C66	C	0.731287	1.005271	0.403837
C67	C	0.950619	0.703742	0.000019
C68	C	1.025059	0.601404	0.000031
C69	C	0.731285	0.703748	0.301524
C70	C	0.731285	0.601411	0.403863
C71	C	0.950620	0.703737	0.301539
C72	C	1.025059	0.601397	0.403883
C73	C	0.511954	1.306820	-0.301569
C74	C	0.437514	1.409160	-0.403914
C75	C	0.511954	1.306815	-0.000049
C76	C	0.437514	1.409153	-0.000061
C77	C	0.731288	1.306809	-0.301554
C78	C	0.731288	1.409146	-0.403894
C79	C	1.017187	0.553348	-0.058855
C80	C	1.087124	0.457203	-0.058866
C81	C	1.164933	0.409110	0.000015
C82	C	1.172803	0.457175	0.058902
C83	C	1.102866	0.553325	0.058906
C84	C	1.102854	0.553335	0.393070
C85	C	1.172804	0.457189	0.489225
C86	C	1.164959	0.409099	0.596191
C87	C	1.087156	0.457170	0.607001
C88	C	1.017208	0.553321	0.510848
C89	C	0.359720	1.457233	-0.393101
C90	C	0.289769	1.553409	-0.489255
C91	C	0.297614	1.601504	-0.596221
C92	C	0.375417	1.553427	-0.607032
C93	C	0.445366	1.457260	-0.510879
C94	C	0.445386	1.457219	0.058814
C95	C	0.375449	1.553391	0.058799
C96	C	0.297641	1.601487	-0.000085
C97	C	0.289770	1.553417	-0.058968
C98	C	0.359707	1.457254	-0.058958
C99	C	0.774113	0.553328	0.510823
C100	C	0.774104	0.457180	0.606978
C101	C	0.688436	0.457204	0.489200
C102	C	0.688441	0.553356	0.393047
H103	H	0.621395	0.569184	-0.151126
F104	F	0.159100	1.005264	-0.171892
F105	F	0.206974	1.604555	-0.477726
F106	F	0.856325	1.005266	-0.599242
H107	H	0.808978	0.418037	0.694067
H108	H	0.841188	0.266960	0.151040
F109	F	0.819710	0.604470	0.522338
H110	H	0.653555	0.418064	0.480407
H111	H	0.841193	0.441372	0.151097
H112	H	0.294722	1.005284	-0.151092
F113	F	0.383842	1.604529	0.121477
H114	H	1.236148	0.418060	0.480403
H115	H	0.167849	1.005269	0.151063
F116	F	1.239413	0.306764	0.698517
F117	F	0.223215	1.703832	-0.000083
H118	H	0.621393	1.005269	-0.412788
H119	H	0.653561	0.592509	0.305949
F120	F	0.303491	1.005269	0.171884
F121	F	0.934384	0.604518	-0.121532
H122	H	0.841176	1.005292	-0.412806
F123	F	1.078819	0.405976	0.720852
H124	H	0.621399	1.005261	-0.587228
H125	H	1.080700	0.418080	-0.106819
H126	H	1.221873	0.330817	0.000003
H127	H	1.236164	0.418004	0.106840
H128	H	0.621381	0.743591	-0.151067
F129	F	1.111257	0.604453	0.121590
H130	H	0.226410	1.592592	-0.106909
F131	F	0.223160	1.703855	-0.698548
F132	F	0.528189	1.406052	0.121488
H133	H	1.109257	0.592476	0.305982
F134	F	0.934415	0.604455	0.522373
H135	H	0.353316	1.418079	-0.306012
H136	H	0.381795	1.592599	-0.694135
F137	F	0.528159	1.406100	-0.522404
H138	H	0.353286	1.418121	-0.106899
