data_functionalizedCrystal
_audit_creation_method	'MofGen! by Chris Wilmer'
_symmetry_space_group_name_H-M	'P1'
_symmetry_Int_Tables_number	1
_symmetry_cell_setting	triclinic
loop_
_symmetry_equiv_pos_as_xyz
  x,y,z
_cell_length_a	10.654550
_cell_length_b	9.198806
_cell_length_c	10.654550
_cell_angle_alpha	89.996717
_cell_angle_beta	95.515069
_cell_angle_gamma	90.000456
loop_
_atom_site_label
_atom_site_type_symbol
_atom_site_fract_x
_atom_site_fract_y
_atom_site_fract_z
O1	O	1.667840	0.120784	-0.176397
O2	O	1.302361	0.120810	-0.193203
O3	O	1.493504	0.120787	-0.002061
O4	O	1.476698	0.120807	-0.367539
O5	O	1.493490	-0.120998	-0.002059
O6	O	1.302347	-0.120975	-0.193201
O7	O	1.667826	-0.121002	-0.176395
Cu8	Cu	1.485085	-0.143065	-0.184798
Cu9	Cu	1.485102	0.142874	-0.184800
O10	O	1.476683	-0.120978	-0.367537
C11	C	1.255556	-0.000079	-0.191968
C12	C	1.116113	-0.000069	-0.188276
C13	C	1.036628	-0.000067	-0.300818
C14	C	0.905607	-0.000093	-0.297341
C15	C	0.933570	-0.000116	-0.068772
C16	C	1.064588	-0.000101	-0.072250
N17	N	1.485083	-0.344179	-0.184796
C18	C	1.404843	-0.416402	-0.265403
C19	C	1.404859	-0.583814	-0.265401
C20	C	1.714631	-0.000109	-0.177630
C21	C	1.854074	-0.000110	-0.181322
C22	C	1.492263	-0.000105	0.044738
C23	C	1.488571	-0.000102	0.184181
N24	N	1.485115	0.343988	-0.184792
C25	C	1.477925	-0.000084	-0.414336
C26	C	1.481616	-0.000077	-0.553779
C27	C	1.601112	-0.000110	0.263667
C28	C	1.597636	-0.000092	0.394688
C29	C	1.369066	-0.000065	0.366725
C30	C	1.372544	-0.000072	0.235706
H31	H	1.078574	-0.000052	-0.395294
H32	H	1.695588	-0.000131	0.221720
H33	H	1.274601	-0.000043	0.408693
H34	H	1.689279	-0.000095	0.459401
C35	C	1.146254	-0.000059	0.221215
C36	C	1.248828	-0.000069	0.148325
H37	H	1.069883	-0.000062	0.167266
H38	H	1.149655	0.084253	0.272888
H39	H	1.149650	-0.084380	0.272908
H40	H	1.245437	0.084257	0.096638
H41	H	1.245426	-0.084390	0.096629
C42	C	0.802449	0.124158	0.067740
C43	C	0.876929	-0.000131	0.058761
H44	H	0.767491	0.124154	0.146479
H45	H	0.736364	0.124147	0.001220
H46	H	0.852990	0.208467	0.061631
H47	H	0.826386	-0.084440	0.064861
H48	H	0.943024	-0.000132	0.125299
C49	C	0.891136	-0.000046	-0.523618
C50	C	0.818236	-0.000080	-0.421051
H51	H	0.837194	-0.000030	-0.599993
H52	H	0.942824	-0.084350	-0.520226
H53	H	0.942815	0.084283	-0.520203
H54	H	0.766563	-0.084415	-0.424461
H55	H	0.766526	0.084232	-0.424444
C56	C	1.277850	-0.000092	0.023906
C57	C	1.151972	-0.000102	0.051465
H58	H	1.331794	-0.000105	0.100280
H59	H	1.293563	0.084225	-0.023610
H60	H	1.293566	-0.084407	-0.023625
H61	H	1.136254	0.084219	0.098988
H62	H	1.136253	-0.084428	0.099001
H63	H	1.336138	-0.354297	-0.334420
H64	H	1.336158	-0.645922	-0.334407
H65	H	1.553796	-0.406285	-0.115789
H66	H	1.553810	-0.593913	-0.115773
