data_functionalizedCrystal
_audit_creation_method	'MofGen! by Chris Wilmer'
_symmetry_space_group_name_H-M	'P1'
_symmetry_Int_Tables_number	1
_symmetry_cell_setting	triclinic
loop_
_symmetry_equiv_pos_as_xyz
  x,y,z
_cell_length_a	15.944551
_cell_length_b	10.654550
_cell_length_c	9.730223
_cell_angle_alpha	90.003749
_cell_angle_beta	89.997716
_cell_angle_gamma	96.008180
loop_
_atom_site_label
_atom_site_type_symbol
_atom_site_fract_x
_atom_site_fract_y
_atom_site_fract_z
O1	O	0.117973	-1.666308	-0.114406
O2	O	0.129213	-1.300684	-0.114384
O3	O	0.001376	-1.493480	-0.114384
O4	O	0.245810	-1.473511	-0.114407
O5	O	0.001379	-1.493478	0.114196
O6	O	0.129216	-1.300681	0.114196
O7	O	0.117976	-1.666305	0.114174
Zn8	Zn	0.123597	-1.483493	0.150477
Zn9	Zn	0.123592	-1.483496	-0.150687
O10	O	0.245813	-1.473509	0.114173
C11	C	0.128389	-1.253895	-0.000092
C12	C	0.125920	-1.114484	-0.000083
C13	C	-0.029921	-1.492650	-0.000093
C14	C	-0.123182	-1.490165	-0.000092
C15	C	0.118800	-1.713094	-0.000122
C16	C	0.121269	-1.852505	-0.000140
C17	C	-0.338765	-1.364720	-0.000104
C18	C	-0.399443	-1.422971	0.112596
C19	C	-0.293934	-1.485668	-0.000103
C20	C	-0.399430	-1.423002	-0.112765
C21	C	-0.458872	-1.481317	-0.000119
C22	C	-0.353384	-1.543953	0.112691
C23	C	-0.353364	-1.543967	-0.112772
C24	C	-0.414024	-1.602306	-0.000045
C25	C	-0.198917	-1.488172	-0.000092
C26	C	-0.553887	-1.478822	-0.000119
C27	C	0.277110	-1.474339	-0.000120
C28	C	0.370371	-1.476824	-0.000130
N29	N	0.123599	-1.483500	0.356013
C30	C	0.201188	-1.034024	-0.000110
C31	C	0.198863	-0.903034	-0.000134
C32	C	0.045995	-0.932975	-0.000108
C33	C	0.048321	-1.063963	-0.000075
C34	C	0.289446	-1.016737	-0.000131
C35	C	0.287121	-0.885746	-0.000154
N36	N	0.123583	-1.483499	-0.356224
C37	C	0.067012	-1.568892	0.427939
C38	C	0.067002	-1.568889	0.571822
C39	C	0.180173	-1.398098	0.571840
C40	C	0.180178	-1.398096	0.427959
C41	C	0.001676	-1.667501	0.427931
C42	C	0.001666	-1.667498	0.571814
H43	H	-0.306038	-1.264327	0.000015
Cl44	Cl	-0.430945	-1.343992	0.259710
H45	H	-0.062885	-1.646893	0.388884
Cl46	Cl	-0.046306	-1.165109	-0.000009
H47	H	-0.059344	-1.637774	0.616437
H48	H	-0.446602	-1.702787	0.000013
Cl49	Cl	-0.321826	-1.622883	-0.259894
Cl50	Cl	0.328304	-0.814687	0.152194
Cl51	Cl	-0.430908	-1.343989	-0.259857
H52	H	0.320374	-0.843584	-0.095825
Cl53	Cl	0.251306	-1.290727	0.337536
H54	H	-0.017184	-0.891824	-0.000123
Cl55	Cl	0.251297	-1.290738	0.662295
H56	H	0.016057	-1.763823	0.610857
H57	H	0.022134	-1.758420	0.383297
H58	H	-0.333096	-1.595065	0.208074
H59	H	0.323965	-1.045621	0.095532
H60	H	0.317547	-1.052030	-0.098821
