data_functionalizedCrystal
_audit_creation_method	'MofGen! by Chris Wilmer'
_symmetry_space_group_name_H-M	'P1'
_symmetry_Int_Tables_number	1
_symmetry_cell_setting	triclinic
loop_
_symmetry_equiv_pos_as_xyz
  x,y,z
_cell_length_a	12.759395
_cell_length_b	12.759394
_cell_length_c	12.759393
_cell_angle_alpha	89.969400
_cell_angle_beta	89.981779
_cell_angle_gamma	90.013701
loop_
_atom_site_label
_atom_site_type_symbol
_atom_site_fract_x
_atom_site_fract_y
_atom_site_fract_z
Zn1	Zn	1.606262	-0.418209	-0.593981
Zn2	Zn	1.606159	-0.593928	-0.418304
Zn3	Zn	1.430564	-0.418263	-0.418321
Zn4	Zn	1.430555	-0.593846	-0.593946
O5	O	1.518385	-0.506061	-0.506138
O6	O	1.753270	-0.441530	-0.570684
O7	O	1.582827	-0.570682	-0.271285
O8	O	1.453918	-0.271235	-0.441644
O9	O	1.753194	-0.570630	-0.441615
O10	O	1.583002	-0.271195	-0.570701
O11	O	1.453818	-0.441622	-0.271298
O12	O	1.283542	-0.441543	-0.441611
O13	O	1.453903	-0.570490	-0.740972
O14	O	1.283535	-0.570543	-0.570642
O15	O	1.582994	-0.441451	-0.740997
O16	O	1.582818	-0.740938	-0.441581
O17	O	1.453803	-0.740878	-0.570625
C18	C	1.245418	-0.506041	-0.506125
C19	C	1.128641	-0.506057	-0.506144
C20	C	1.128701	-0.371842	-0.640761
C21	C	1.073870	-0.304748	-0.708078
C22	C	0.964148	-0.304767	-0.708091
C23	C	0.909255	-0.371885	-0.640778
C24	C	0.964086	-0.438979	-0.573461
C25	C	1.073810	-0.438955	-0.573457
C26	C	0.964026	-0.573187	-0.438840
C27	C	1.073748	-0.573175	-0.438831
C28	C	0.909133	-0.640305	-0.371527
C29	C	0.963964	-0.707406	-0.304214
C30	C	1.073693	-0.707386	-0.304205
C31	C	1.128579	-0.640270	-0.371514
C32	C	1.518327	-0.779029	-0.506121
C33	C	1.518398	-0.895806	-0.506148
C34	C	1.652713	-0.895606	-0.640636
C35	C	1.719904	-0.950367	-0.707887
C36	C	1.719966	-1.060089	-0.707910
C37	C	1.652829	-1.115052	-0.640676
C38	C	1.585638	-1.060291	-0.573424
C39	C	1.585585	-0.950567	-0.573407
C40	C	1.451319	-1.060490	-0.438944
C41	C	1.451260	-0.950769	-0.438914
C42	C	1.384181	-1.115453	-0.371710
C43	C	1.316994	-1.060692	-0.304452
C44	C	1.316935	-0.950964	-0.304431
C45	C	1.384070	-0.896008	-0.371663
C46	C	1.792419	-0.506083	-0.506151
C47	C	1.909195	-0.506092	-0.506157
C48	C	1.518459	-0.505955	-0.780171
C49	C	1.518490	-0.505910	-0.896948
C50	C	1.518473	-0.232028	-0.506178
C51	C	1.518510	-0.115251	-0.506195
C52	C	1.585717	-0.438713	-0.951825
C53	C	1.585742	-0.438675	-1.061549
C54	C	1.451310	-0.573041	-1.061510
C55	C	1.451281	-0.573073	-0.951788
C56	C	1.663334	-0.361141	-0.951849
C57	C	1.663359	-0.361103	-1.061573
C58	C	1.518372	-0.506091	-0.233170
C59	C	1.518545	-0.505840	-0.116394
H60	H	1.118329	-0.762019	-0.249383
O61	O	1.652565	-0.789023	-0.640777
C62	C	1.625520	-0.631508	-0.741459
C63	C	1.625623	-0.752212	-0.741437
H64	H	1.603761	-0.601709	-0.822839
H65	H	1.565931	-0.601752	-0.681906
H66	H	1.706875	-0.601702	-0.719657
H67	H	1.544312	-0.782107	-0.763265
H68	H	1.685267	-0.781897	-0.800968
H69	H	1.217920	-0.640241	-0.371508
H70	H	1.262217	-0.906383	-0.249671
O71	O	1.785003	-0.897019	-0.773346
C72	C	1.835938	-0.863323	-0.952091
C73	C	1.762138	-0.923782	-0.878076
H74	H	1.817492	-0.884954	-1.036778
H75	H	1.824349	-0.775483	-0.940615
H76	H	1.920669	-0.884828	-0.933659
H77	H	1.677379	-0.902365	-0.896461
H78	H	1.773818	-1.011606	-0.889565
O79	O	1.385858	-0.638187	-0.898428
C80	C	1.244018	-0.652315	-0.774484
C81	C	1.318030	-0.578454	-0.834870
H82	H	1.189175	-0.604052	-0.723067
H83	H	1.195910	-0.700295	-0.832477
H84	H	1.292237	-0.707294	-0.723148
H85	H	1.269893	-0.523411	-0.886208
H86	H	1.366142	-0.530548	-0.776821
O87	O	1.785079	-1.113341	-0.773348
C88	C	1.799197	-1.237175	-0.915171
C89	C	1.725342	-1.176911	-0.841146
H90	H	1.750931	-1.288602	-0.969989
H91	H	1.847154	-1.179103	-0.963305
H92	H	1.854199	-1.288490	-0.866961
H93	H	1.670278	-1.125594	-0.889275
H94	H	1.677459	-1.235039	-0.793008
O95	O	1.251882	-1.114244	-0.239183
C96	C	1.192393	-1.283371	-0.179675
C97	C	1.266203	-1.222850	-0.253629
H98	H	1.203930	-1.371189	-0.191345
H99	H	1.210872	-1.261933	-0.094944
H100	H	1.107668	-1.261782	-0.198040
H101	H	1.350952	-1.244406	-0.235359
H102	H	1.247633	-1.244293	-0.338339
H103	H	1.384033	-0.806667	-0.371648
O104	O	1.628659	-0.268790	-1.102027
C105	C	1.563282	-0.095418	-1.065647
C106	C	1.602583	-0.199893	-1.019692
H107	H	1.542168	-0.039694	-0.999102
H108	H	1.627501	-0.058842	-1.115911
H109	H	1.491005	-0.110407	-1.115964
H110	H	1.674841	-0.184993	-0.969328
H111	H	1.538301	-0.236437	-0.969487
H112	H	1.652877	-1.204393	-0.640709
H113	H	1.384233	-1.204794	-0.371737
H114	H	0.919262	-0.762044	-0.249409
H115	H	1.740606	-0.390310	-0.917813
H116	H	1.396588	-0.627720	-1.106173
H117	H	1.641564	-0.279776	-0.922092
H118	H	1.218042	-0.371816	-0.640753
H119	H	1.744730	-0.382896	-1.091351
H120	H	1.118576	-0.250100	-0.762881
H121	H	0.819914	-0.371885	-0.640786
H122	H	0.919505	-0.250126	-0.762900
H123	H	0.819792	-0.640313	-0.371540
