data_functionalizedCrystal
_audit_creation_method	'MofGen! by Chris Wilmer'
_symmetry_space_group_name_H-M	'P1'
_symmetry_Int_Tables_number	1
_symmetry_cell_setting	triclinic
loop_
_symmetry_equiv_pos_as_xyz
  x,y,z
_cell_length_a	12.594517
_cell_length_b	21.295417
_cell_length_c	12.594510
_cell_angle_alpha	90.040904
_cell_angle_beta	90.015766
_cell_angle_gamma	90.029660
loop_
_atom_site_label
_atom_site_type_symbol
_atom_site_fract_x
_atom_site_fract_y
_atom_site_fract_z
Zn1	Zn	1.627181	-0.250556	0.601609
Zn2	Zn	1.627025	-0.355845	0.423609
Zn3	Zn	1.449181	-0.250593	0.423660
Zn4	Zn	1.449125	-0.355791	0.601561
O5	O	1.538128	-0.303196	0.512610
O6	O	1.776106	-0.264529	0.577996
O7	O	1.603392	-0.341921	0.274670
O8	O	1.472881	-0.162499	0.447307
O9	O	1.775992	-0.341885	0.447220
O10	O	1.603658	-0.162471	0.578045
O11	O	1.472730	-0.264593	0.274707
O12	O	1.300227	-0.264541	0.447260
O13	O	1.472787	-0.341793	0.750513
O14	O	1.300187	-0.341829	0.577963
O15	O	1.603604	-0.264477	0.750549
O16	O	1.603338	-0.443927	0.447173
O17	O	1.472635	-0.443887	0.577914
C18	C	1.261587	-0.303184	0.512612
C19	C	1.143282	-0.303194	0.512639
C20	C	1.537992	-0.466748	0.512556
C21	C	1.538032	-0.536716	0.512568
C22	C	1.003274	-0.345307	0.583596
C23	C	1.074035	-0.360635	0.486451
C24	C	1.074091	-0.287894	0.609772
C25	C	1.003258	-0.318572	0.415411
C26	C	1.003308	-0.245804	0.538797
C27	C	1.074038	-0.261110	0.441586
C28	C	1.606088	-0.569511	0.580693
C29	C	1.606126	-0.635253	0.580719
C30	C	1.538118	-0.668198	0.512602
C31	C	1.470049	-0.635395	0.444473
C32	C	1.470005	-0.569654	0.444456
N33	N	1.530074	-0.771470	0.419452
N34	N	1.530121	-0.833922	0.419471
C35	C	1.538242	-0.866273	0.512650
N36	N	1.546335	-0.833814	0.605811
N37	N	1.546294	-0.771357	0.605791
C38	C	1.538157	-0.739484	0.512613
C39	C	1.606343	-0.970354	0.580808
C40	C	1.606373	-1.036097	0.580836
C41	C	1.470302	-1.036238	0.444581
C42	C	1.470266	-0.970495	0.444562
C43	C	1.538292	-0.937557	0.512675
C44	C	1.815749	-0.303209	0.512608
C45	C	1.934054	-0.303214	0.512607
C46	C	1.538206	-0.303125	0.790231
C47	C	1.538240	-0.303094	0.908536
C48	C	1.538293	-0.139006	0.512687
C49	C	1.538364	-0.069038	0.512720
C50	C	1.538111	-0.303222	0.236069
C51	C	1.538284	-0.303075	0.117764
C52	C	1.609417	-0.261029	1.048572
C53	C	1.635381	-0.318469	0.977737
C54	C	1.512323	-0.245662	0.977800
C55	C	1.564299	-0.360544	1.048486
C56	C	1.441196	-0.287699	1.048556
C57	C	1.467123	-0.345177	0.977752
H58	H	0.972203	-0.380940	0.643541
H59	H	1.414674	-0.662223	0.389014
C60	C	0.850269	-0.336020	0.305472
C61	C	0.961442	-0.336139	0.304469
H62	H	0.824454	-0.346872	0.236985
H63	H	0.825470	-0.295376	0.324166
H64	H	0.825487	-0.365740	0.355935
H65	H	0.986224	-0.306416	0.254012
H66	H	0.986251	-0.376789	0.285762
H67	H	1.105103	-0.409177	0.464305
C68	C	1.284568	-0.377633	0.973372
C69	C	1.385891	-0.393241	0.936032
H70	H	1.234426	-0.407309	0.947619
H71	H	1.265986	-0.336888	0.949032
H72	H	1.284574	-0.378127	1.048792
H73	H	1.385887	-0.392743	0.860611
H74	H	1.404478	-0.433996	0.960366
H75	H	1.586357	-0.409116	1.079407
C76	C	1.390108	-0.184310	0.874708
C77	C	1.482694	-0.180107	0.935882
H78	H	1.371829	-0.143839	0.848828
H79	H	1.333841	-0.200071	0.917252
H80	H	1.401871	-0.211865	0.816545
H81	H	1.470929	-0.152556	0.994049
H82	H	1.538974	-0.164338	0.893336
H83	H	1.661476	-0.542694	0.636156
H84	H	1.104912	-0.225505	0.381496
H85	H	1.414585	-0.542952	0.388980
H86	H	1.661536	-0.661960	0.636206
C87	C	1.740826	-0.976815	0.715512
C88	C	1.681095	-0.934143	0.655695
H89	H	1.786966	-0.954460	0.761751
H90	H	1.781588	-1.002456	0.669184
H91	H	1.694429	-1.002463	0.756184
H92	H	1.727492	-0.908498	0.615017
H93	H	1.640330	-0.908491	0.702029
C94	C	1.409942	-1.137073	0.384114
C95	C	1.395538	-1.072444	0.369711
H96	H	1.363784	-1.159426	0.337890
H97	H	1.394338	-1.147812	0.455613
H98	H	1.481473	-1.147814	0.368589
H99	H	1.324009	-1.061702	0.385244
H100	H	1.411135	-1.061700	0.298196
C101	C	1.749575	-1.109951	0.595746
C102	C	1.681184	-1.072152	0.655723
H103	H	1.795755	-1.132213	0.641980
H104	H	1.790293	-1.084308	0.549405
H105	H	1.709056	-1.138974	0.555190
H106	H	1.721703	-1.043126	0.696273
H107	H	1.640462	-1.097797	0.702083
C108	C	0.997011	-0.164355	0.670550
C109	C	0.961319	-0.180296	0.568731
H110	H	0.971081	-0.123914	0.689039
H111	H	1.072420	-0.163963	0.671414
H112	H	0.971723	-0.194373	0.720252
H113	H	0.986614	-0.150280	0.519027
H114	H	0.885895	-0.180683	0.567859
H115	H	1.414853	-0.943792	0.389085
H116	H	1.105205	-0.274944	0.691931
C117	C	1.792302	-0.229349	1.054810
C118	C	1.690704	-0.213080	1.090563
H119	H	1.842485	-0.199750	1.080741
H120	H	1.793288	-0.229288	0.979402
H121	H	1.810041	-0.270038	1.080057
H122	H	1.672962	-0.172392	1.065309
H123	H	1.689715	-0.213134	1.165987
H124	H	1.717467	-0.331485	0.946626
H125	H	1.359133	-0.274663	1.079688
