data_functionalizedCrystal
_audit_creation_method	'MofGen! by Chris Wilmer'
_symmetry_space_group_name_H-M	'P1'
_symmetry_Int_Tables_number	1
_symmetry_cell_setting	triclinic
loop_
_symmetry_equiv_pos_as_xyz
  x,y,z
_cell_length_a	16.120484
_cell_length_b	16.120530
_cell_length_c	12.759393
_cell_angle_alpha	92.920001
_cell_angle_beta	87.135992
_cell_angle_gamma	90.167327
loop_
_atom_site_label
_atom_site_type_symbol
_atom_site_fract_x
_atom_site_fract_y
_atom_site_fract_z
Zn1	Zn	-0.395558	1.254505	0.699367
Zn2	Zn	-0.534629	1.247340	0.532099
Zn3	Zn	-0.388538	1.115436	0.514373
Zn4	Zn	-0.527511	1.108357	0.698406
O5	O	-0.461559	1.181409	0.611061
O6	O	-0.419923	1.369920	0.685000
O7	O	-0.515291	1.229807	0.382727
O8	O	-0.273106	1.139845	0.531897
O9	O	-0.522098	1.364657	0.562108
O10	O	-0.278264	1.242018	0.667811
O11	O	-0.407958	1.132898	0.369704
O12	O	-0.401056	0.998131	0.530965
O13	O	-0.509966	1.127779	0.845554
O14	O	-0.503159	0.992930	0.666173
O15	O	-0.413021	1.235153	0.846261
O16	O	-0.650048	1.222943	0.561176
O17	O	-0.644818	1.120832	0.683361
C18	C	-0.450574	0.965358	0.596542
C19	C	-0.445895	0.872929	0.590356
C20	C	-0.677606	1.170365	0.624112
C21	C	-0.770035	1.165716	0.629736
C22	C	-0.939265	1.157233	0.640025
C23	C	-0.983020	1.205735	0.582125
C24	C	-1.077185	1.201015	0.587850
C25	C	-0.845091	1.161952	0.634301
C26	C	-0.437332	0.703702	0.579071
C27	C	-0.485848	0.659954	0.643132
C28	C	-0.481083	0.565790	0.636853
C29	C	-0.442095	0.797874	0.585349
C30	C	-0.244670	1.192520	0.597984
C31	C	-0.152245	1.197255	0.592411
C32	C	-0.461482	1.181476	0.885094
C33	C	-0.461450	1.181504	1.001871
C34	C	-0.472588	1.398304	0.625638
C35	C	-0.477287	1.490732	0.631850
C36	C	-0.461578	1.181394	0.338094
C37	C	-0.461384	1.181539	0.221315
C38	C	-0.410962	1.237418	1.057102
C39	C	-0.410927	1.237434	1.166825
C40	C	-0.511874	1.125619	1.166076
C41	C	-0.511904	1.125600	1.056354
C42	C	-0.314330	1.272197	1.312863
C43	C	-0.263850	1.328124	1.368099
C44	C	-0.255220	1.409911	1.337180
C45	C	-0.297083	1.435787	1.251029
C46	C	-0.347569	1.379864	1.195800
C47	C	-0.356183	1.298066	1.226715
C48	C	-0.608503	1.090845	0.910315
C49	C	-0.658994	1.034926	0.855084
C50	C	-0.667633	0.953137	0.886001
C51	C	-0.625784	0.927263	0.972156
C52	C	-0.575293	0.983182	1.027387
C53	C	-0.566653	1.064971	0.996463
H54	H	-0.949759	1.250803	0.528255
C55	C	-0.546801	0.704894	0.723590
N56	N	-0.592712	0.738745	0.784184
H57	H	-0.392222	0.670437	0.519514
C58	C	-0.529254	0.954716	1.122158
N59	N	-0.494577	0.933275	1.193536
H60	H	-0.369876	1.282937	1.012744
H61	H	-0.632820	0.860665	0.997332
C62	C	-0.984197	1.096342	0.712784
N63	N	-1.018049	1.050476	0.767579
C64	C	-0.393613	1.408322	1.101034
N65	N	-0.428287	1.429757	1.029650
H66	H	-0.214117	1.455447	1.382161
H67	H	-0.290059	1.502389	1.225869
C68	C	-0.217794	1.299654	1.462855
N69	N	-0.183105	1.278214	1.534225
C70	C	-0.323808	1.182223	1.346872
N71	N	-0.330948	1.114454	1.372494
H72	H	-0.708755	0.907611	0.841027
H73	H	-0.693078	1.056003	0.784940
H74	H	-0.601468	1.157443	0.885129
H75	H	-0.552955	1.080105	1.210450
