data_functionalizedCrystal
_audit_creation_method	'MofGen! by Chris Wilmer'
_symmetry_space_group_name_H-M	'P1'
_symmetry_Int_Tables_number	1
_symmetry_cell_setting	triclinic
loop_
_symmetry_equiv_pos_as_xyz
  x,y,z
_cell_length_a	12.759401
_cell_length_b	17.640280
_cell_length_c	17.637464
_cell_angle_alpha	92.150542
_cell_angle_beta	101.199732
_cell_angle_gamma	78.801088
loop_
_atom_site_label
_atom_site_type_symbol
_atom_site_fract_x
_atom_site_fract_y
_atom_site_fract_z
Zn1	Zn	1.611777	-0.389118	-0.368275
Zn2	Zn	1.679959	-0.490439	-0.215642
Zn3	Zn	1.463341	-0.363474	-0.241300
Zn4	Zn	1.477091	-0.516062	-0.342606
O5	O	1.558042	-0.439773	-0.291956
O6	O	1.767844	-0.402568	-0.348032
O7	O	1.674005	-0.452142	-0.112771
O8	O	1.448743	-0.260614	-0.279624
O9	O	1.817937	-0.477008	-0.235893
O10	O	1.557798	-0.279455	-0.372912
O11	O	1.514856	-0.358861	-0.131622
O12	O	1.318143	-0.383706	-0.254735
O13	O	1.472177	-0.520678	-0.452286
O14	O	1.328245	-0.495812	-0.329164
O15	O	1.571131	-0.427413	-0.471145
O16	O	1.687337	-0.600100	-0.211003
O17	O	1.538290	-0.618925	-0.304284
C18	C	1.285073	-0.439757	-0.291948
C19	C	1.168297	-0.439772	-0.291960
C20	C	1.118765	-0.498207	-0.330619
C21	C	1.009042	-0.498218	-0.330625
C22	C	0.998394	-0.381357	-0.253307
C23	C	1.108113	-0.381343	-0.253306
C24	C	1.178949	-0.556637	-0.369273
C25	C	1.129417	-0.615077	-0.407934
C26	C	1.019695	-0.615088	-0.407941
C27	C	0.959503	-0.556659	-0.369285
C28	C	1.621729	-0.637068	-0.252090
C29	C	1.649066	-0.721477	-0.235061
C30	C	1.350743	-1.048172	-0.421602
C31	C	1.376437	-1.127481	-0.405576
C32	C	1.531702	-1.107834	-0.308541
C33	C	1.506024	-1.028521	-0.324562
C34	C	1.415542	-0.998697	-0.381092
C35	C	1.570823	-0.979046	-0.284052
C36	C	1.545144	-0.899740	-0.300068
C37	C	1.454665	-0.869909	-0.356594
C38	C	1.389863	-0.919390	-0.397108
C39	C	1.661300	-1.008871	-0.227518
C40	C	1.726099	-0.959396	-0.187008
C41	C	1.700425	-0.880089	-0.203028
C42	C	1.609946	-0.850258	-0.259554
C43	C	1.765226	-0.830607	-0.162514
C44	C	1.739547	-0.751301	-0.178531
C45	C	1.584266	-0.770952	-0.275571
C46	C	1.832078	-0.439790	-0.291964
C47	C	1.948856	-0.439797	-0.291967
C48	C	1.515582	-0.479764	-0.490041
C49	C	1.497488	-0.496806	-0.574454
C50	C	1.494131	-0.241712	-0.331994
C51	C	1.466896	-0.157310	-0.349056
C52	C	1.420471	-0.569380	-0.683612
C53	C	1.437479	-0.553360	-0.604295
C54	C	1.540518	-0.456251	-0.623924
C55	C	1.523524	-0.472264	-0.703243
C56	C	1.463498	-0.528829	-0.733081
C57	C	1.566551	-0.431714	-0.752712
C58	C	1.549552	-0.447724	-0.832026
C59	C	1.489527	-0.504284	-0.861870
C60	C	1.446500	-0.544839	-0.812395
C61	C	1.626569	-0.375146	-0.722874
C62	C	1.669596	-0.334595	-0.772343
C63	C	1.652605	-0.350608	-0.851657
C64	C	1.592580	-0.407169	-0.881501
C65	C	1.695632	-0.310053	-0.901132
C66	C	1.678634	-0.326063	-0.980446
C67	C	1.575581	-0.423178	-0.960814
C68	C	1.600380	-0.399883	-0.094652
C69	C	1.618608	-0.382628	-0.010283
H70	H	1.510594	-0.746669	-0.321609
C71	C	1.354446	-0.631608	-0.716437
N72	N	1.304717	-0.678475	-0.741162
H73	H	1.178429	-0.662643	-0.439412
H74	H	1.475679	-0.517313	-0.926454
C75	C	1.380475	-0.607067	-0.845219
N76	N	1.330745	-0.653934	-0.869944
H77	H	1.713664	-0.293039	-1.020725
H78	H	1.316190	-0.895108	-0.443147
C79	C	1.390150	-0.597980	-0.549880
N80	N	1.354504	-0.631587	-0.508894
H81	H	1.589388	-0.410194	-0.599619
C82	C	0.838804	-0.556675	-0.369295
N83	N	0.747897	-0.556690	-0.369299
C84	C	1.645271	-0.357538	-0.635625
N85	N	1.659359	-0.344279	-0.569909
H86	H	1.718466	-0.288538	-0.748038
H87	H	0.979366	-0.662668	-0.439427
C88	C	1.761649	-0.247829	-0.868300
N89	N	1.811373	-0.200960	-0.843571
H90	H	1.838890	-0.854902	-0.116482
C91	C	1.631225	-1.140649	-0.246356
N92	N	1.706188	-1.165366	-0.199518
C93	C	0.932182	-0.317093	-0.210784
N94	N	0.882313	-0.268691	-0.178752
C95	C	1.426417	-0.782669	-0.374213
N96	N	1.405143	-0.716960	-0.387485
C97	C	1.162603	-0.317063	-0.210775
N98	N	1.203644	-0.268646	-0.178742
C99	C	1.299656	-0.556644	-0.369247
N100	N	1.390577	-0.556655	-0.369218
C101	C	1.509556	-0.485406	-0.993639
N102	N	1.459827	-0.532273	-1.018364
H103	H	1.799766	-0.983690	-0.140979
C104	C	1.251197	-1.015359	-0.483778
N105	N	1.176215	-0.990642	-0.530601
H106	H	1.682207	-1.073448	-0.214481
C107	C	1.305149	-1.181904	-0.450149
N108	N	1.251456	-1.222894	-0.483720
C109	C	1.810837	-0.696876	-0.133974
N110	N	1.864535	-0.655884	-0.100413
