data_functionalizedCrystal
_audit_creation_method	'MofGen! by Chris Wilmer'
_symmetry_space_group_name_H-M	'P1'
_symmetry_Int_Tables_number	1
_symmetry_cell_setting	triclinic
loop_
_symmetry_equiv_pos_as_xyz
  x,y,z
_cell_length_a	10.686220
_cell_length_b	16.959454
_cell_length_c	10.685986
_cell_angle_alpha	85.591276
_cell_angle_beta	99.031303
_cell_angle_gamma	94.401635
loop_
_atom_site_label
_atom_site_type_symbol
_atom_site_fract_x
_atom_site_fract_y
_atom_site_fract_z
Zn1	Zn	1.885494	-0.196556	-0.569034
Zn2	Zn	1.901606	-0.338187	-0.356803
Zn3	Zn	1.689491	-0.215450	-0.373065
Zn4	Zn	1.673203	-0.338131	-0.585247
O5	O	1.787449	-0.272081	-0.471037
O6	O	2.065247	-0.207460	-0.527290
O7	O	1.887028	-0.329837	-0.181341
O8	O	1.715565	-0.102328	-0.399081
O9	O	2.077084	-0.311516	-0.371365
O10	O	1.859568	-0.088447	-0.543059
O11	O	1.731188	-0.239662	-0.193289
O12	O	1.509715	-0.239608	-0.414802
O13	O	1.687804	-0.311420	-0.760715
O14	O	1.497748	-0.329741	-0.570691
O15	O	1.843774	-0.207405	-0.748803
O16	O	1.871234	-0.448795	-0.387085
O17	O	1.703427	-0.448754	-0.554922
C18	C	1.457678	-0.286719	-0.496271
C19	C	1.316599	-0.292999	-0.507097
C20	C	1.787344	-0.477453	-0.471024
C21	C	1.787412	-0.565305	-0.471051
C22	C	1.700190	-0.936783	-0.558412
C23	C	1.875051	-0.936754	-0.383764
C24	C	1.875007	-0.854211	-0.383756
C25	C	1.787553	-0.812950	-0.471076
C26	C	1.700141	-0.854232	-0.558404
C27	C	1.962408	-0.812923	-0.296421
C28	C	1.962367	-0.730375	-0.296408
C29	C	1.874918	-0.689112	-0.383735
C30	C	1.787504	-0.730399	-0.471068
C31	C	1.700049	-0.689138	-0.558388
C32	C	1.612641	-0.730423	-0.645727
C33	C	1.612692	-0.812969	-0.645731
C34	C	1.874867	-0.606566	-0.383732
C35	C	1.700001	-0.606587	-0.558380
C36	C	2.118507	-0.257386	-0.445705
C37	C	2.259584	-0.251124	-0.434910
C38	C	1.762175	-0.257299	-0.802101
C39	C	1.751405	-0.250999	-0.943181
C40	C	1.787586	-0.065904	-0.471076
C41	C	1.787645	0.021956	-0.471092
C42	C	1.812697	-0.286746	-0.141255
C43	C	1.823713	-0.292811	-0.000157
H44	H	1.318701	-0.210470	-0.364825
H45	H	1.629027	-0.970401	-0.629525
H46	H	1.541429	-0.696820	-0.716818
H47	H	1.541527	-0.846591	-0.716837
H48	H	1.893862	-0.333420	-0.941007
O49	O	1.246268	-0.341568	-0.590741
C50	C	1.327600	-0.379221	-0.655709
H51	H	1.426085	-0.380071	-0.596544
H52	H	1.334316	-0.345436	-0.751115
C53	C	1.153373	-0.463796	-0.750387
C54	C	1.274331	-0.464846	-0.677715
H55	H	1.120513	-0.516613	-0.763968
H56	H	1.098577	-0.438427	-0.706621
H57	H	1.158986	-0.435638	-0.829884
H58	H	1.268714	-0.492995	-0.598215
H59	H	1.329126	-0.490222	-0.721469
O60	O	1.959904	-0.976955	-0.299025
C61	C	1.941155	-1.058670	-0.317709
H62	H	1.892095	-1.067432	-0.418835
H63	H	1.879324	-1.088474	-0.247575
C64	C	2.130724	-1.085071	-0.172050
C65	C	2.070478	-1.095833	-0.296258
H66	H	2.210495	-1.107997	-0.158813
H67	H	2.143355	-1.030019	-0.159457
H68	H	2.079185	-1.109908	-0.113619
H69	H	2.122009	-1.070989	-0.354686
H70	H	2.057859	-1.150883	-0.308860
H71	H	1.681261	-0.210381	-1.002338
O72	O	1.615097	-0.566584	-0.643378
C73	C	1.633115	-0.579827	-0.767790
H74	H	1.681739	-0.637451	-0.766733
H75	H	1.695042	-0.528522	-0.805592
C76	C	1.443741	-0.514983	-0.855354
C77	C	1.503452	-0.585761	-0.854057
H78	H	1.363760	-0.518640	-0.908570
H79	H	1.431603	-0.506058	-0.771535
H80	H	1.495360	-0.472236	-0.886852
H81	H	1.451840	-0.628505	-0.822544
H82	H	1.515578	-0.594693	-0.937873
O83	O	2.047374	-0.853067	-0.211724
C84	C	2.123794	-0.893966	-0.277699
H85	H	2.124078	-0.864251	-0.377047
H86	H	2.084142	-0.958068	-0.285123
C87	C	2.260099	-0.928687	-0.083513
C88	C	2.260457	-0.892186	-0.205531
H89	H	2.344399	-0.927593	-0.038995
H90	H	2.208611	-0.901135	-0.039063
H91	H	2.227050	-0.982102	-0.089717
H92	H	2.293491	-0.838770	-0.199325
H93	H	2.311954	-0.919729	-0.249978
O94	O	2.047402	-0.690392	-0.211530
C95	C	2.124578	-0.744515	-0.134441
H96	H	2.124986	-0.800834	-0.186103
H97	H	2.085548	-0.759691	-0.041552
C98	C	2.260551	-0.637881	-0.042474
C99	C	2.261061	-0.707052	-0.105930
H100	H	2.344739	-0.614772	-0.024881
H101	H	2.208554	-0.601418	-0.094406
H102	H	2.228020	-0.650538	0.034926
H103	H	2.293576	-0.694393	-0.183335
H104	H	2.313067	-0.743513	-0.054010
H105	H	1.946028	-0.572956	-0.312616
