data_functionalizedCrystal
_audit_creation_method	'MofGen! by Chris Wilmer'
_symmetry_space_group_name_H-M	'P1'
_symmetry_Int_Tables_number	1
_symmetry_cell_setting	triclinic
loop_
_symmetry_equiv_pos_as_xyz
  x,y,z
_cell_length_a	19.077105
_cell_length_b	12.759400
_cell_length_c	19.076919
_cell_angle_alpha	87.725144
_cell_angle_beta	89.923776
_cell_angle_gamma	87.711168
loop_
_atom_site_label
_atom_site_type_symbol
_atom_site_fract_x
_atom_site_fract_y
_atom_site_fract_z
Zn1	Zn	1.058328	-0.508276	0.440436
Zn2	Zn	1.062987	-0.677203	0.322935
Zn3	Zn	0.945544	-0.494202	0.318229
Zn4	Zn	0.940808	-0.676569	0.435688
O5	O	1.001917	-0.589062	0.379322
O6	O	1.157278	-0.536840	0.428806
O7	O	1.051339	-0.647302	0.223980
O8	O	0.960537	-0.349051	0.334457
O9	O	1.160701	-0.660950	0.342479
O10	O	1.043399	-0.359391	0.424243
O11	O	0.965055	-0.512852	0.220522
O12	O	0.846583	-0.512238	0.329853
O13	O	0.952466	-0.659870	0.534649
O14	O	0.843104	-0.646223	0.416150
O15	O	1.038807	-0.536225	0.538138
O16	O	1.046747	-0.824137	0.337875
O17	O	0.956983	-0.823671	0.420714
C18	C	0.819347	-0.577635	0.371976
C19	C	0.741242	-0.572772	0.368850
C20	C	0.702758	-0.640344	0.412241
C21	C	0.629371	-0.635761	0.409307
C22	C	0.594468	-0.563612	0.362979
C23	C	0.632957	-0.496033	0.319586
C24	C	0.706344	-0.500611	0.322524
C25	C	0.375179	-0.542424	0.349385
C26	C	0.301787	-0.537853	0.346449
C27	C	0.298205	-0.677581	0.436172
C28	C	0.371593	-0.682157	0.439102
C29	C	0.410076	-0.614574	0.395712
N30	N	0.519454	-0.558928	0.359977
N31	N	0.485088	-0.619253	0.398718
C32	C	1.001876	-0.862026	0.379306
C33	C	1.001921	-0.978807	0.379325
C34	C	1.048709	-1.033882	0.336242
C35	C	1.048751	-1.143610	0.336266
C36	C	0.955212	-1.143177	0.422456
C37	C	0.955173	-1.033452	0.422436
C38	C	1.095457	-0.979237	0.293132
C39	C	1.142248	-1.034313	0.250045
C40	C	1.142290	-1.144041	0.250068
C41	C	1.095542	-1.198693	0.293178
C42	C	1.185199	-0.600535	0.386697
C43	C	1.263303	-0.605424	0.389840
C44	C	0.994588	-0.599547	0.562603
C45	C	0.991465	-0.604015	0.640706
C46	C	1.001976	-0.315035	0.379355
C47	C	1.002002	-0.198260	0.379368
C48	C	1.009257	-0.578545	0.196756
C49	C	1.012516	-0.573790	0.118659
C50	C	1.034949	-0.541742	0.679216
C51	C	1.032006	-0.545935	0.752602
C52	C	0.985583	-0.612408	0.787477
C53	C	0.942094	-0.674683	0.748961
C54	C	0.945034	-0.670484	0.675576
C55	C	0.971967	-0.631866	1.006758
C56	C	0.969032	-0.636063	1.080148
C57	C	1.058943	-0.507313	1.083785
C58	C	1.061882	-0.503124	1.010398
C59	C	1.018391	-0.565395	0.971889
N60	N	0.982575	-0.616698	0.862489
N61	N	1.021396	-0.561099	0.896878
H62	H	0.731171	-0.699099	0.449965
H63	H	1.072754	-0.487616	0.650827
O64	O	0.909661	-0.980105	0.464309
C65	C	0.868419	-1.051863	0.502376
H66	H	0.867176	-1.128301	0.473508
H67	H	0.891987	-1.068135	0.556795
C68	C	0.794738	-0.911131	0.544896
C69	C	0.793206	-1.005010	0.509438
H70	H	0.748344	-0.882229	0.549256
H71	H	0.822525	-0.862785	0.519253
H72	H	0.814382	-0.924704	0.590242
H73	H	0.773571	-0.991433	0.464090
H74	H	0.765414	-1.053352	0.535074
O75	O	0.405384	-0.752273	0.484169
C76	C	0.355680	-0.810952	0.521825
H77	H	0.303274	-0.764804	0.522218
H78	H	0.348890	-0.888718	0.495686
C79	C	0.445713	-0.889020	0.597257
C80	C	0.381350	-0.832336	0.597745
H81	H	0.461548	-0.902215	0.644087
H82	H	0.479201	-0.849490	0.571886
H83	H	0.440047	-0.953818	0.575471
H84	H	0.387019	-0.767534	0.619523
H85	H	0.347864	-0.871856	0.623122
H86	H	0.406503	-0.487401	0.314049
O87	O	1.187666	-1.197686	0.208221
C88	C	1.149568	-1.256167	0.161198
H89	H	1.095295	-1.270709	0.183764
H90	H	1.143998	-1.210521	0.108776
C91	C	1.255450	-1.344207	0.122446
C92	C	1.188793	-1.362075	0.150165
H93	H	1.279647	-1.409534	0.115637
H94	H	1.281118	-1.304804	0.154124
H95	H	1.250799	-1.306165	0.078764
H96	H	1.193446	-1.400104	0.193849
H97	H	1.163127	-1.401487	0.118494
H98	H	0.598040	-0.690786	0.444640
H99	H	1.095585	-1.288042	0.293200
H100	H	0.737676	-0.445582	0.287194
O101	O	0.909825	-1.196423	0.464261
C102	C	0.919903	-1.305081	0.455052
H103	H	0.945134	-1.318411	0.401773
H104	H	0.955633	-1.340873	0.498272
C105	C	0.817575	-1.341047	0.524019
C106	C	0.848559	-1.357419	0.458578
H107	H	0.773568	-1.373334	0.526198
H108	H	0.810787	-1.267843	0.530226
H109	H	0.847357	-1.370874	0.560029
H110	H	0.818782	-1.327581	0.422571
H111	H	0.855341	-1.430620	0.452366
O112	O	0.923870	-0.700660	1.113915
C113	C	0.886126	-0.754742	1.064191
H114	H	0.885793	-0.708564	1.011787
H115	H	0.912150	-0.835699	1.057411
C116	C	0.810600	-0.823553	1.154187
C117	C	0.810186	-0.766832	1.089825
H118	H	0.763757	-0.831015	1.169999
H119	H	0.836030	-0.787120	1.187688
H120	H	0.832290	-0.891011	1.148528
H121	H	0.788504	-0.699371	1.095486
H122	H	0.784750	-0.803253	1.056325
O123	O	1.074143	-0.485317	0.790033
C124	C	1.032448	-0.417395	0.830882
H125	H	0.977991	-0.406190	0.806537
H126	H	1.027796	-0.452894	0.886402
C127	C	1.133636	-0.324149	0.863293
C128	C	1.066753	-0.310379	0.833389
H129	H	1.154797	-0.258138	0.864843
H130	H	1.161727	-0.369912	0.835775
H131	H	1.129749	-0.353735	0.909557
H132	H	1.070641	-0.280807	0.787123
H133	H	1.038663	-0.264609	0.860900
H134	H	0.273372	-0.479088	0.308727
O135	O	1.107027	-0.438677	0.976480
C136	C	1.154089	-0.498867	0.935819
H137	H	1.157567	-0.583146	0.958101
H138	H	1.134564	-0.497964	0.879336
C139	C	1.222906	-0.348473	0.910238
C140	C	1.227182	-0.451984	0.937608
H141	H	1.267993	-0.319552	0.911338
H142	H	1.191198	-0.307920	0.937629
H143	H	1.206632	-0.347734	0.863170
H144	H	1.243447	-0.452720	0.984677
H145	H	1.258895	-0.492536	0.910225
H146	H	0.904293	-0.728803	0.777361
O147	O	0.260715	-0.743112	0.478295
C148	C	0.188458	-0.723623	0.465759
H149	H	0.179356	-0.640555	0.442436
H150	H	0.169115	-0.782412	0.427435
C151	C	0.159135	-0.837155	0.563985
C152	C	0.147954	-0.735127	0.535345
H153	H	0.134148	-0.844256	0.606908
H154	H	0.207815	-0.850289	0.572430
H155	H	0.143016	-0.886135	0.532042
H156	H	0.164081	-0.686150	0.567283
H157	H	0.099275	-0.721985	0.526907
H158	H	0.604534	-0.437283	0.281867
H159	H	0.936564	-0.682588	0.975413
H160	H	1.095426	-0.889891	0.293106
O161	O	1.187756	-0.981287	0.208250
C162	C	1.257173	-1.013277	0.226471
H163	H	1.258445	-1.046825	0.282758
H164	H	1.277098	-1.075968	0.189567
C165	C	1.302801	-0.877012	0.151061
C166	C	1.304365	-0.918208	0.220196
H167	H	1.331913	-0.818372	0.147187
H168	H	1.256034	-0.855462	0.138782
H169	H	1.319405	-0.929265	0.120315
H170	H	1.287754	-0.865960	0.250939
H171	H	1.351131	-0.939747	0.232479
H172	H	1.094350	-0.456614	1.115147
H173	H	0.909618	-0.721182	0.644221
