data_functionalizedCrystal
_audit_creation_method	'MofGen! by Chris Wilmer'
_symmetry_space_group_name_H-M	'P1'
_symmetry_Int_Tables_number	1
_symmetry_cell_setting	triclinic
loop_
_symmetry_equiv_pos_as_xyz
  x,y,z
_cell_length_a	18.215407
_cell_length_b	19.076808
_cell_length_c	18.215399
_cell_angle_alpha	92.328322
_cell_angle_beta	90.017368
_cell_angle_gamma	92.320961
loop_
_atom_site_label
_atom_site_type_symbol
_atom_site_fract_x
_atom_site_fract_y
_atom_site_fract_z
Zn1	Zn	1.113296	-0.280271	0.404282
Zn2	Zn	1.613296	0.219729	0.904282
Zn3	Zn	1.108258	-0.397979	0.276266
Zn4	Zn	1.608258	0.102021	0.776266
Zn5	Zn	0.990227	-0.280288	0.281234
Zn6	Zn	1.490227	0.219712	0.781234
Zn7	Zn	0.985250	-0.397934	0.399298
Zn8	Zn	1.485250	0.102066	0.899298
O9	O	1.049258	-0.339118	0.340270
O10	O	1.549258	0.160882	0.840270
O11	O	1.215611	-0.295898	0.387307
O12	O	1.715611	0.204102	0.887307
O13	O	1.092576	-0.382393	0.173940
O14	O	1.592576	0.117607	0.673940
O15	O	1.010744	-0.181790	0.301721
O16	O	1.510744	0.318210	0.801721
O17	O	1.211910	-0.382377	0.293255
O18	O	1.711910	0.117623	0.793255
O19	O	1.101161	-0.181777	0.392124
O20	O	1.601161	0.318223	0.892124
O21	O	1.005859	-0.295926	0.177590
O22	O	1.505859	0.204074	0.677590
O23	O	0.886583	-0.295882	0.296889
O24	O	1.386583	0.204118	0.796889
O25	O	1.002261	-0.382300	0.502945
O26	O	1.502261	0.117700	1.002945
O27	O	0.882927	-0.382316	0.383630
O28	O	1.382927	0.117684	0.883630
O29	O	1.096335	-0.295854	0.506606
O30	O	1.596335	0.204146	1.006606
O31	O	1.087750	-0.496470	0.288422
O32	O	1.587750	0.003530	0.788422
O33	O	0.997376	-0.496436	0.378813
O34	O	1.497376	0.003564	0.878813
C35	C	0.858052	-0.339097	0.340258
C36	C	1.358052	0.160903	0.840258
C37	C	0.776253	-0.339104	0.340270
C38	C	1.276253	0.160896	0.840270
C39	C	0.589981	-0.294167	0.389314
C40	C	1.089981	0.205833	0.889314
C41	C	0.513122	-0.294173	0.389316
C42	C	1.013122	0.205827	0.889316
C43	C	0.509285	-0.384089	0.291239
C44	C	1.009285	0.115911	0.791239
C45	C	0.586143	-0.384079	0.291234
C46	C	1.086143	0.115921	0.791234
C47	C	0.626489	-0.339119	0.340275
C48	C	1.126489	0.160881	0.840275
C49	C	0.472772	-0.339135	0.340283
C50	C	0.972772	0.160865	0.840283
C51	C	0.389438	-0.339142	0.340285
C52	C	0.889438	0.160858	0.840285
C53	C	0.709828	-0.339111	0.340272
C54	C	1.209828	0.160889	0.840272
C55	C	1.041496	-0.521992	0.332554
C56	C	1.541496	-0.021992	0.832554
C57	C	1.038243	-0.600226	0.329277
C58	C	1.538243	-0.100226	0.829277
C59	C	1.083755	-0.636914	0.374844
C60	C	1.583755	-0.136914	0.874844
C61	C	1.080695	-0.710423	0.371767
C62	C	1.580695	-0.210423	0.871767
C63	C	1.032127	-0.747243	0.323118
C64	C	1.532127	-0.247243	0.823118
C65	C	0.986610	-0.710551	0.277550
C66	C	1.486610	-0.210551	0.777550
C67	C	0.989666	-0.637043	0.280631
C68	C	1.489666	-0.137043	0.780631
C69	C	1.017938	-0.967096	0.308854
C70	C	1.517938	-0.467096	0.808854
C71	C	1.014887	-1.040609	0.305774
C72	C	1.514887	-0.540609	0.805774
C73	C	1.108972	-1.040476	0.399992
C74	C	1.608972	-0.540476	0.899992
C75	C	1.112027	-0.966967	0.403067
C76	C	1.612027	-0.466967	0.903067
C77	C	1.066507	-0.930280	0.357501
C78	C	1.566507	-0.430280	0.857501
N79	N	1.029000	-0.822382	0.319970
N80	N	1.529000	-0.322382	0.819970
N81	N	1.069631	-0.855143	0.360653
N82	N	1.569631	-0.355143	0.860653
C83	C	1.241210	-0.339141	0.340283
C84	C	1.741210	0.160859	0.840283
C85	C	1.323008	-0.339150	0.340288
C86	C	1.823008	0.160850	0.840288
C87	C	1.049305	-0.339070	0.532225
C88	C	1.549305	0.160930	1.032225
C89	C	1.049325	-0.339049	0.614025
C90	C	1.549325	0.160951	1.114025
C91	C	1.057070	-0.155531	0.348033
C92	C	1.557070	0.344469	0.848033
C93	C	1.060399	-0.077296	0.351341
C94	C	1.560399	0.422704	0.851341
C95	C	1.049256	-0.339116	0.149064
C96	C	1.549256	0.160884	0.649064
C97	C	1.049387	-0.338938	0.067273
C98	C	1.549387	0.161062	0.567273
C99	C	1.098328	-0.293994	0.804129
C100	C	1.598328	0.206006	1.304129
C101	C	1.098338	-0.293974	0.880988
C102	C	1.598338	0.206026	1.380988
C103	C	1.000378	-0.383995	0.877164
C104	C	1.500378	0.116005	1.377164
C105	C	1.000365	-0.384011	0.800306
C106	C	1.500365	0.115989	1.300306
C107	C	1.049344	-0.339012	0.763790
C108	C	1.549344	0.160988	1.263790
C109	C	1.049367	-0.338975	0.917508
C110	C	1.549367	0.161025	1.417508
C111	C	1.049377	-0.338953	1.000843
C112	C	1.549377	0.161047	1.500843
C113	C	1.049334	-0.339033	0.680450
C114	C	1.549334	0.160967	1.180450
H115	H	1.123308	-0.606939	0.414455
H116	H	1.623308	-0.106939	0.914455
H117	H	1.138208	-0.257351	0.774400
H118	H	1.638208	0.242649	1.274400
C119	C	1.164848	-0.926951	0.455766
C120	C	1.664848	-0.426951	0.955766
C121	C	1.213805	-0.884751	0.415903
C122	C	1.713805	-0.384751	0.915903
C123	C	1.262481	-0.847884	0.464421
C124	C	1.762481	-0.347884	0.964421
H125	H	1.137955	-0.898220	0.489023
H126	H	1.637955	-0.398220	0.989023
H127	H	1.191562	-0.959304	0.482455
H128	H	1.691562	-0.459304	0.982455
H129	H	1.187094	-0.852402	0.389226
H130	H	1.687094	-0.352402	0.889226
H131	H	1.240714	-0.913465	0.382648
H132	H	1.740714	-0.413465	0.882648
H133	H	1.289195	-0.880237	0.491110
H134	H	1.789195	-0.380237	0.991110
H135	H	1.235582	-0.819158	0.497676
H136	H	1.735582	-0.319158	0.997676
H137	H	1.295708	-0.819253	0.437381
H138	H	1.795708	-0.319253	0.937381
C139	C	0.633821	-0.245468	0.442637
C140	C	1.133821	0.254532	0.942637
C141	C	0.676261	-0.285371	0.488068
C142	C	1.176261	0.214629	0.988068
C143	C	0.716646	-0.240532	0.537205
C144	C	1.216646	0.259468	1.037205
H145	H	0.665153	-0.214749	0.415916
H146	H	1.165153	0.285251	0.915916
H147	H	0.601091	-0.218709	0.471885
H148	H	1.101091	0.281291	0.971885
H149	H	0.708987	-0.312119	0.458824
H150	H	1.208987	0.187881	0.958824
H151	H	0.644948	-0.316088	0.514806
H152	H	1.144948	0.183912	1.014806
H153	H	0.683916	-0.213773	0.566453
H154	H	1.183916	0.286227	1.066453
H155	H	0.747973	-0.209816	0.510478
H156	H	1.247973	0.290184	1.010478
H157	H	0.745440	-0.267600	0.568040
H158	H	1.245440	0.232400	1.068040
C159	C	1.151485	-0.244983	0.924693
C160	C	1.651485	0.255017	1.424693
C161	C	1.138432	-0.175347	0.908921
C162	C	1.638432	0.324653	1.408921
C163	C	1.187385	-0.130194	0.949159
C164	C	1.687385	0.369806	1.449159
H165	H	1.144531	-0.251316	0.975713
H166	H	1.644531	0.248684	1.475713
H167	H	1.200505	-0.255251	0.911654
H168	H	1.700505	0.244749	1.411654
H169	H	1.089423	-0.165082	0.921965
H170	H	1.589423	0.334918	1.421965
H171	H	1.145391	-0.168991	0.857909
H172	H	1.645391	0.331009	1.357909
H173	H	1.236405	-0.140462	0.936120
H174	H	1.736405	0.359538	1.436120
H175	H	1.180427	-0.136534	1.000177
H176	H	1.680427	0.363466	1.500177
H177	H	1.178539	-0.082942	0.938459
H178	H	1.678539	0.417058	1.438459
H179	H	1.146030	-1.070354	0.437090
H180	H	1.646030	-0.570354	0.937090
C181	C	0.465610	-0.432935	0.237922
C182	C	0.965610	0.067065	0.737922
C183	C	0.514036	-0.472287	0.194962
C184	C	1.014036	0.027713	0.694962
C185	C	0.473832	-0.517287	0.145833
C186	C	0.973832	-0.017287	0.645833
H187	H	0.434337	-0.463702	0.264647
H188	H	0.934337	0.036298	0.764647
H189	H	0.436769	-0.405994	0.207000
H190	H	0.936769	0.094006	0.707000
H191	H	0.542865	-0.499226	0.225880
H192	H	1.042865	0.000774	0.725880
H193	H	0.545310	-0.441538	0.168221
H194	H	1.045310	0.058462	0.668221
H195	H	0.444990	-0.490346	0.114911
H196	H	0.944990	0.009654	0.614911
H197	H	0.442560	-0.548050	0.172564
H198	H	0.942560	-0.048050	0.672564
H199	H	0.506683	-0.543988	0.116674
H200	H	1.006683	-0.043988	0.616674
C201	C	0.947288	-0.432826	0.916945
C202	C	1.447288	0.067174	1.416945
C203	C	0.957796	-0.423192	0.992888
C204	C	1.457796	0.076808	1.492888
C205	C	0.908910	-0.468172	1.029556
C206	C	1.408910	0.031828	1.529556
H207	H	0.898246	-0.422569	0.904866
H208	H	1.398246	0.077431	1.404866
H209	H	0.956053	-0.480137	0.902390
H210	H	1.456053	0.019863	1.402390
H211	H	0.949026	-0.375892	1.007438
H212	H	1.449026	0.124108	1.507438
H213	H	1.006829	-0.433455	1.004989
H214	H	1.506829	0.066545	1.504989
H215	H	0.917675	-0.515483	1.015000
H216	H	1.417675	-0.015483	1.515000
H217	H	0.859870	-0.457910	1.017470
H218	H	1.359870	0.042090	1.517470
H219	H	0.916038	-0.461646	1.081086
H220	H	1.416038	0.038354	1.581086
H221	H	0.947061	-0.740536	0.237942
H222	H	1.447061	-0.240536	0.737942
C223	C	0.473521	-0.245457	0.442680
C224	C	0.973521	0.254543	0.942680
C225	C	0.491577	-0.260885	0.514816
C226	C	0.991577	0.239115	1.014816
C227	C	0.455103	-0.216025	0.563996
C228	C	0.955103	0.283975	1.063996
H229	H	0.488085	-0.198125	0.434085
H230	H	0.988085	0.301875	0.934085
H231	H	0.421962	-0.251904	0.435710
H232	H	0.921962	0.248096	0.935710
H233	H	0.543125	-0.254431	0.521783
H234	H	1.043125	0.245569	1.021783
H235	H	0.477011	-0.308208	0.523434
H236	H	0.977011	0.191792	1.023434
H237	H	0.403544	-0.222473	0.557027
H238	H	0.903544	0.277527	1.057027
H239	H	0.469670	-0.168697	0.555395
H240	H	0.969670	0.331303	1.055395
H241	H	0.467343	-0.226491	0.612946
H242	H	0.967343	0.273509	1.112946
H243	H	0.960472	-0.420670	0.767461
H244	H	1.460472	0.079330	1.267461
H245	H	0.615868	-0.420685	0.251297
H246	H	1.115868	0.079315	0.751297
H247	H	0.975333	-1.070586	0.266158
H248	H	1.475333	-0.570586	0.766158
C249	C	1.130209	-0.750128	0.421259
C250	C	1.630209	-0.250128	0.921259
C251	C	1.173420	-0.702149	0.464499
C252	C	1.673420	-0.202149	0.964499
C253	C	1.219055	-0.738699	0.510090
C254	C	1.719055	-0.238699	1.010090
H255	H	1.100942	-0.778814	0.452170
H256	H	1.600942	-0.278814	0.952170
H257	H	1.161133	-0.778775	0.391937
H258	H	1.661133	-0.278775	0.891937
H259	H	1.142500	-0.673514	0.493818
H260	H	1.642500	-0.173514	0.993818
H261	H	1.202702	-0.673462	0.433608
H262	H	1.702702	-0.173462	0.933608
H263	H	1.249979	-0.767346	0.480769
H264	H	1.749979	-0.267346	0.980769
H265	H	1.189782	-0.767384	0.540996
H266	H	1.689782	-0.267384	1.040996
H267	H	1.248383	-0.706152	0.539429
H268	H	1.748383	-0.206152	1.039429
H269	H	0.980876	-0.937231	0.271751
H270	H	1.480876	-0.437231	0.771751
C271	C	0.940218	-0.597334	0.231074
C272	C	1.440218	-0.097334	0.731074
C273	C	0.897042	-0.645311	0.187797
C274	C	1.397042	-0.145311	0.687797
C275	C	0.851483	-0.608759	0.142132
C276	C	1.351483	-0.108759	0.642132
H277	H	0.909264	-0.568667	0.260322
H278	H	1.409264	-0.068667	0.760322
H279	H	0.969560	-0.568669	0.200194
H280	H	1.469560	-0.068669	0.700194
H281	H	0.867702	-0.673965	0.218673
H282	H	1.367702	-0.173965	0.718673
H283	H	0.927976	-0.673980	0.158535
H284	H	1.427976	-0.173980	0.658535
H285	H	0.880825	-0.580093	0.111253
H286	H	1.380825	-0.080093	0.611253
H287	H	0.820534	-0.580093	0.171386
H288	H	1.320534	-0.080093	0.671386
H289	H	0.822187	-0.641306	0.112759
H290	H	1.322187	-0.141306	0.612759
