data_functionalizedCrystal
_audit_creation_method	'MofGen! by Chris Wilmer'
_symmetry_space_group_name_H-M	'P1'
_symmetry_Int_Tables_number	1
_symmetry_cell_setting	triclinic
loop_
_symmetry_equiv_pos_as_xyz
  x,y,z
_cell_length_a	18.050590
_cell_length_b	18.050590
_cell_length_c	12.827885
_cell_angle_alpha	90.034683
_cell_angle_beta	90.005579
_cell_angle_gamma	90.007719
loop_
_atom_site_label
_atom_site_type_symbol
_atom_site_fract_x
_atom_site_fract_y
_atom_site_fract_z
Zn1	Zn	1.135389	-0.295838	0.590431
Zn2	Zn	1.135307	-0.420046	0.415677
Zn3	Zn	1.011194	-0.295851	0.415747
Zn4	Zn	1.011177	-0.419967	0.590418
O5	O	1.073267	-0.357926	0.503068
O6	O	1.239303	-0.312342	0.567226
O7	O	1.118816	-0.403610	0.269450
O8	O	1.027711	-0.191925	0.438954
O9	O	1.239242	-0.403597	0.438834
O10	O	1.118956	-0.191915	0.567294
O11	O	1.027631	-0.312364	0.269501
O12	O	0.907267	-0.312288	0.438941
O13	O	1.027681	-0.403463	0.736656
O14	O	0.907255	-0.403476	0.567272
O15	O	1.118939	-0.312266	0.736666
O16	O	1.118799	-0.523960	0.438822
O17	O	1.027601	-0.523903	0.567204
C18	C	0.880315	-0.357875	0.503113
C19	C	0.797769	-0.357871	0.503157
C20	C	1.073210	-0.550878	0.503026
C21	C	1.073253	-0.633424	0.503044
C22	C	0.598333	-0.407601	0.572778
C23	C	0.548930	-0.339883	0.598494
C24	C	0.646638	-0.357913	0.503106
C25	C	0.548959	-0.425670	0.477388
C26	C	0.500653	-0.357959	0.503059
C27	C	0.598323	-0.290158	0.528873
C28	C	0.598357	-0.375991	0.407722
C29	C	0.548976	-0.308226	0.433403
C30	C	0.730737	-0.357887	0.503136
C31	C	0.416557	-0.357977	0.503029
C32	C	1.122950	-0.832879	0.433327
C33	C	1.141093	-0.882207	0.528696
C34	C	1.073295	-0.784554	0.503085
C35	C	1.055228	-0.882307	0.407759
C36	C	1.073337	-0.930539	0.503117
C37	C	1.091473	-0.832795	0.598504
C38	C	1.005577	-0.832891	0.477503
C39	C	1.023694	-0.882197	0.572938
C40	C	1.073273	-0.700456	0.503066
C41	C	1.073360	-1.014636	0.503148
C42	C	1.266972	-0.357977	0.503024
C43	C	1.349518	-0.357999	0.503005
C44	C	1.073317	-0.357854	0.775638
C45	C	1.073339	-0.357824	0.891792
C46	C	1.073344	-0.164220	0.503133
C47	C	1.073377	-0.081674	0.503160
C48	C	1.073259	-0.357943	0.231558
C49	C	1.073381	-0.357764	0.115406
C50	C	1.118501	-0.312688	0.943581
C51	C	1.118524	-0.312656	1.063631
H52	H	0.527220	-0.324606	0.679139
H53	H	0.527272	-0.482952	0.455658
H54	H	1.034686	-0.396438	0.936330
H55	H	0.527442	-0.266177	0.374464
H56	H	0.620006	-0.449547	0.631762
N57	N	1.175648	-0.805717	0.359400
N58	N	1.242713	-0.821532	0.369070
H59	H	1.279933	-0.802349	0.316864
N60	N	1.212952	-0.909418	0.555822
N61	N	1.267672	-0.893637	0.500404
H62	H	1.318422	-0.912867	0.519541
N63	N	1.167030	-0.264164	1.119478
N64	N	1.209467	-0.221752	1.070854
H65	H	1.243726	-0.187501	1.110297
N66	N	0.625417	-0.218279	0.556247
N67	N	0.693612	-0.206666	0.560719
H68	H	0.712750	-0.155903	0.580054
N69	N	1.024870	-0.406235	1.059534
N70	N	0.977586	-0.380067	0.998627
H71	H	0.943323	-0.414298	0.959160
H72	H	0.620083	-0.391288	0.327101
H73	H	1.106715	-0.811140	0.679203
N74	N	0.971041	-0.909187	0.647051
N75	N	0.977799	-0.893148	0.741380
H76	H	0.940615	-0.912210	0.793726
H77	H	0.948307	-0.811210	0.455817
N78	N	1.036042	-0.909586	0.306608
N79	N	1.075479	-0.893790	0.229674
H80	H	1.061935	-0.913054	0.158233
H81	H	1.157146	-0.274067	0.899043
