data_functionalizedCrystal
_audit_creation_method	'MofGen! by Chris Wilmer'
_symmetry_space_group_name_H-M	'P1'
_symmetry_Int_Tables_number	1
_symmetry_cell_setting	triclinic
loop_
_symmetry_equiv_pos_as_xyz
  x,y,z
_cell_length_a	15.297327
_cell_length_b	12.759401
_cell_length_c	12.759393
_cell_angle_alpha	89.978843
_cell_angle_beta	80.357027
_cell_angle_gamma	80.297673
loop_
_atom_site_label
_atom_site_type_symbol
_atom_site_fract_x
_atom_site_fract_y
_atom_site_fract_z
Zn1	Zn	-0.359218	-1.533788	0.666363
Zn2	Zn	-0.510101	-1.503236	0.521066
Zn3	Zn	-0.359250	-1.358080	0.490704
Zn4	Zn	-0.510022	-1.327651	0.696687
O5	O	-0.434648	-1.430689	0.593705
O6	O	-0.379252	-1.676752	0.647105
O7	O	-0.490137	-1.483929	0.370027
O8	O	-0.233002	-1.406909	0.488607
O9	O	-0.490105	-1.654306	0.540356
O10	O	-0.232979	-1.536001	0.617663
O11	O	-0.379307	-1.377284	0.347720
O12	O	-0.379231	-1.207027	0.518012
O13	O	-0.489971	-1.355047	0.839676
O14	O	-0.490003	-1.184671	0.669347
O15	O	-0.379176	-1.506495	0.817397
O16	O	-0.636334	-1.454423	0.569761
O17	O	-0.636276	-1.325422	0.698788
C18	C	-0.434613	-1.157729	0.593676
C19	C	-0.434619	-1.040951	0.593693
C20	C	-0.377015	-0.888016	0.649407
C21	C	-0.377003	-0.997743	0.649401
C22	C	-0.492258	-0.974424	0.537997
C23	C	-0.492274	-0.864699	0.538011
C24	C	-0.669039	-1.383334	0.640883
C25	C	-0.769312	-1.363171	0.661101
C26	C	-1.051961	-1.575226	0.449562
C27	C	-0.957749	-1.594169	0.430561
C28	C	-0.910635	-1.536422	0.488194
C29	C	-0.957743	-1.459727	0.564832
C30	C	-1.051964	-1.440776	0.583829
C31	C	-0.910638	-1.401972	0.622462
C32	C	-0.957745	-1.325278	0.699099
C33	C	-1.051957	-1.306331	0.718093
C34	C	-1.099071	-1.364078	0.660460
C35	C	-0.816417	-1.420923	0.603464
C36	C	-0.816419	-1.286473	0.737732
C37	C	-0.910631	-1.267530	0.756733
C38	C	-0.199342	-1.478257	0.546366
C39	C	-0.099068	-1.498528	0.526193
C40	C	-0.434561	-1.430785	0.867721
C41	C	-0.434524	-1.430826	0.984490
C42	C	-0.434671	-0.704717	0.593726
C43	C	-0.434647	-0.821499	0.593713
C44	C	-0.434669	-1.430667	0.320742
C45	C	-0.434452	-1.430880	0.203922
C46	C	-0.376824	-1.509692	1.027751
C47	C	-0.376785	-1.509717	1.137468
C48	C	-0.492155	-1.352007	1.160654
C49	C	-0.492188	-1.351978	1.050938
H50	H	-0.539210	-0.810536	0.492658
O51	O	-0.321171	-0.845908	0.703600
C52	C	-0.309206	-0.724560	0.843118
C53	C	-0.372548	-0.772139	0.781810
H54	H	-0.350720	-0.664926	0.906379
H55	H	-0.262004	-0.682622	0.785539
H56	H	-0.267994	-0.790978	0.882873
H57	H	-0.413818	-0.705785	0.742051
H58	H	-0.419691	-0.814105	0.839437
H59	H	-0.833924	-1.551849	0.472718
O60	O	-0.320708	-1.586434	1.179323
C61	C	-0.206246	-1.742824	1.144733
C62	C	-0.269726	-1.656017	1.097197
H63	H	-0.164997	-1.799091	1.078354
H64	H	-0.247614	-1.789474	1.204407
H65	H	-0.159087	-1.704118	1.186632
H66	H	-0.316899	-1.694636	1.055243
H67	H	-0.228303	-1.609375	1.037577
O68	O	-0.548267	-1.275554	1.225272
C69	C	-0.669991	-1.236835	1.373684
C70	C	-0.606512	-1.323522	1.300568
H71	H	-0.717085	-1.275586	1.434592
H72	H	-0.711302	-1.180464	1.323976
H73	H	-0.628529	-1.190274	1.416658
H74	H	-0.647904	-1.370161	1.257578
H75	H	-0.565197	-1.379820	1.350331
O76	O	-0.548329	-1.275314	1.009088
C77	C	-0.662719	-1.118854	1.043647
C78	C	-0.599209	-1.205623	1.091187
H79	H	-0.703859	-1.062473	1.109998
H80	H	-0.709973	-1.157476	1.001820
H81	H	-0.621291	-1.072331	0.983907
H82	H	-0.640564	-1.252175	1.150969
H83	H	-0.551953	-1.166936	1.132947
O84	O	-0.770762	-1.495350	0.528902
C85	C	-0.741983	-1.552183	0.344426
C86	C	-0.793758	-1.467825	0.428769
H87	H	-0.760541	-1.529948	0.263445
H88	H	-0.760462	-1.633191	0.366588
H89	H	-0.666556	-1.555828	0.340799
H90	H	-0.869196	-1.464084	0.432439
H91	H	-0.775204	-1.386860	0.406573
H92	H	-0.919398	-1.656612	0.368162
O93	O	-1.097866	-1.631220	0.393679
C94	C	-1.243017	-1.661479	0.363323
C95	C	-1.191142	-1.598024	0.426732
H96	H	-1.318439	-1.634649	0.390007
H97	H	-1.224521	-1.749947	0.378073
H98	H	-1.224484	-1.646767	0.274881
H99	H	-1.209647	-1.612647	0.515193
H100	H	-1.209642	-1.509577	0.411893
H101	H	-0.330073	-1.051898	0.694753
H102	H	-0.539174	-1.009611	0.492644
H103	H	-0.329868	-1.573892	0.973651
O104	O	-1.190591	-1.345777	0.679089
C105	C	-1.325704	-1.345506	0.807104
C106	C	-1.222059	-1.366285	0.786148
H107	H	-1.351178	-1.362056	0.893664
H108	H	-1.351326	-1.399989	0.752823
H109	H	-1.351341	-1.259007	0.790347
H110	H	-1.196345	-1.452755	0.802916
H111	H	-1.196498	-1.311734	0.840419
H112	H	-1.090309	-1.243869	0.780485
H113	H	-0.948999	-1.205084	0.819132
H114	H	-0.778060	-1.239448	0.784660
