data_functionalizedCrystal
_audit_creation_method	'MofGen! by Chris Wilmer'
_symmetry_space_group_name_H-M	'P1'
_symmetry_Int_Tables_number	1
_symmetry_cell_setting	triclinic
loop_
_symmetry_equiv_pos_as_xyz
  x,y,z
_cell_length_a	6.817900
_cell_length_b	11.168129
_cell_length_c	16.015572
_cell_angle_alpha	76.766063
_cell_angle_beta	104.485554
_cell_angle_gamma	108.508637
loop_
_atom_site_label
_atom_site_type_symbol
_atom_site_fract_x
_atom_site_fract_y
_atom_site_fract_z
V1	V	-3.999072	-0.050929	-0.269395
O2	O	-3.960768	0.129811	-0.264259
O3	O	-3.976116	-0.223478	-0.267560
O4	O	-3.927036	0.005739	-0.386884
O5	O	-4.010188	-0.100993	-0.144109
V6	V	-4.482466	-0.035914	-0.254409
O7	O	-4.260614	-0.083867	-0.302268
O8	O	-4.671122	-0.002977	-0.221536
O9	O	-4.282216	0.136634	-0.256244
O10	O	-4.638167	-0.216654	-0.259545
O11	O	-4.588747	0.014149	-0.379695
O12	O	-4.331296	-0.092582	-0.136920
C13	C	-3.828071	-0.267288	-0.263312
C14	C	-3.890431	-0.407989	-0.262595
C15	C	-3.892349	-0.488130	-0.187081
C16	C	-3.956800	-0.633552	-0.186338
C17	C	-3.765464	0.025102	-0.415521
C18	C	-3.788018	0.070293	-0.511569
C19	C	-4.135799	-0.330821	-0.889219
C20	C	-4.156991	-0.288316	-0.979467
C21	C	-4.047576	-0.068411	-0.954750
C22	C	-4.026365	-0.110897	-0.864499
C23	C	-4.070483	-0.242103	-0.831741
C24	C	-3.961048	-0.022180	-0.807020
C25	C	-3.939850	-0.064663	-0.716777
C26	C	-3.983968	-0.195864	-0.684012
C27	C	-4.049284	-0.284587	-0.741497
C28	C	-3.916946	0.109026	-0.839780
C29	C	-3.851629	0.197743	-0.782302
C30	C	-3.830415	0.155261	-0.692056
C31	C	-3.874533	0.024060	-0.659291
C32	C	-3.765099	0.243983	-0.634570
C33	C	-3.743900	0.201500	-0.544327
C34	C	-3.853335	-0.018424	-0.569047
C35	C	-4.093604	0.180437	-0.260490
C36	C	-4.010482	0.321139	-0.261212
C37	C	-4.156212	-0.111952	-0.108279
C38	C	-4.112895	-0.157137	-0.012230
H39	H	-3.966710	-0.230452	-0.610529
C40	C	-4.022581	-0.852562	-0.115214
C41	C	-3.959178	-0.726492	-0.099056
H42	H	-4.024066	-0.909939	-0.061327
H43	H	-3.926786	-0.863788	-0.144863
H44	H	-4.159912	-0.869463	-0.150401
H45	H	-3.821840	-0.709588	-0.063875
H46	H	-4.054976	-0.715260	-0.069394
H47	H	-4.008728	-0.610016	-0.325867
H48	H	-3.934179	0.143613	-0.913262
H49	H	-4.210172	-0.360570	-1.026264
C50	C	-3.637833	0.423150	-0.528948
C51	C	-3.672093	0.299016	-0.481139
H52	H	-3.593496	0.483351	-0.489937
H53	H	-3.764904	0.432412	-0.567469
H54	H	-3.531835	0.437879	-0.561853
H55	H	-3.778102	0.284284	-0.448240
H56	H	-3.545006	0.289750	-0.442604
H57	H	-4.085182	-0.391427	-0.714824
C58	C	-4.159785	-0.539806	-0.357573
C59	C	-3.952626	-0.460691	-0.349133
H60	H	-4.198172	-0.572344	-0.410998
H61	H	-4.252346	-0.491819	-0.357356
H62	H	-4.169315	-0.608923	-0.310095
H63	H	-3.943099	-0.391568	-0.396608
H64	H	-3.860039	-0.508680	-0.349357
H65	H	-4.171697	-0.437661	-0.862546
H66	H	-4.011669	0.038418	-0.981435
H67	H	-3.889233	-0.125265	-0.542374
C68	C	-3.835522	0.360520	-0.909663
C69	C	-3.803126	0.341963	-0.818315
H70	H	-3.805558	0.449558	-0.931891
H71	H	-3.978006	0.319577	-0.932334
H72	H	-3.744942	0.325029	-0.926713
H73	H	-3.893718	0.377446	-0.801264
H74	H	-3.660619	0.382923	-0.795635
H75	H	-3.846287	-0.449082	-0.122981
H76	H	-3.729204	0.350811	-0.661257
