data_functionalizedCrystal
_audit_creation_method	'MofGen! by Chris Wilmer'
_symmetry_space_group_name_H-M	'P1'
_symmetry_Int_Tables_number	1
_symmetry_cell_setting	triclinic
loop_
_symmetry_equiv_pos_as_xyz
  x,y,z
_cell_length_a	19.077105
_cell_length_b	17.640280
_cell_length_c	19.076929
_cell_angle_alpha	98.511233
_cell_angle_beta	89.921700
_cell_angle_gamma	76.093206
loop_
_atom_site_label
_atom_site_type_symbol
_atom_site_fract_x
_atom_site_fract_y
_atom_site_fract_z
Zn1	Zn	1.129857	-0.382612	0.374498
Zn2	Zn	1.463191	-0.049279	0.707831
Zn3	Zn	1.796524	0.284055	1.041164
Zn4	Zn	1.158302	-0.509790	0.235080
Zn5	Zn	1.491636	-0.176456	0.568414
Zn6	Zn	1.824969	0.156877	0.901747
Zn7	Zn	1.015098	-0.372024	0.254116
Zn8	Zn	1.348432	-0.038690	0.587449
Zn9	Zn	1.681765	0.294643	0.920782
Zn10	Zn	1.036029	-0.509306	0.347916
Zn11	Zn	1.369363	-0.175973	0.681249
Zn12	Zn	1.702696	0.157361	1.014583
O13	O	1.084822	-0.443433	0.302902
O14	O	1.418155	-0.110100	0.636236
O15	O	1.751489	0.223234	0.969569
O16	O	1.232829	-0.404116	0.359162
O17	O	1.566163	-0.070783	0.692495
O18	O	1.899496	0.262551	1.025829
O19	O	1.142451	-0.487286	0.140003
O20	O	1.475784	-0.153953	0.473336
O21	O	1.809117	0.179381	0.806670
O22	O	1.009657	-0.262751	0.289176
O23	O	1.342991	0.070582	0.622509
O24	O	1.676324	0.403916	0.955842
O25	O	1.253728	-0.497553	0.256733
O26	O	1.587061	-0.164220	0.590066
O27	O	1.920395	0.169114	0.923399
O28	O	1.093970	-0.270530	0.377620
O29	O	1.427304	0.062803	0.710953
O30	O	1.760637	0.396136	1.044286
O31	O	1.037239	-0.386070	0.153988
O32	O	1.370573	-0.052737	0.487322
O33	O	1.703906	0.280597	0.820655
O34	O	0.918676	-0.385601	0.263400
O35	O	1.252009	-0.052268	0.596734
O36	O	1.585343	0.281066	0.930067
O37	O	1.045331	-0.496729	0.449045
O38	O	1.378664	-0.163395	0.782378
O39	O	1.711998	0.169938	1.115711
O40	O	0.934054	-0.486462	0.332315
O41	O	1.267387	-0.153128	0.665648
O42	O	1.600721	0.180205	0.998982
O43	O	1.114266	-0.403647	0.468574
O44	O	1.447600	-0.070314	0.801907
O45	O	1.780933	0.263019	1.135241
O46	O	1.162747	-0.620403	0.230957
O47	O	1.496080	-0.287070	0.564291
O48	O	1.829413	0.046264	0.897624
O49	O	1.072913	-0.620048	0.313857
O50	O	1.406246	-0.286714	0.647190
O51	O	1.739580	0.046619	0.980524
C52	C	0.900644	-0.434831	0.297039
C53	C	1.233977	-0.101497	0.630372
C54	C	1.567311	0.231836	0.963706
C55	C	0.821855	-0.431170	0.294544
C56	C	1.155188	-0.097837	0.627877
C57	C	1.488522	0.235496	0.961211
C58	C	0.792881	-0.482037	0.329169
C59	C	1.126214	-0.148703	0.662502
C60	C	1.459548	0.184630	0.995835
C61	C	0.718848	-0.478587	0.326829
C62	C	1.052182	-0.145254	0.660163
C63	C	1.385515	0.188080	0.993496
C64	C	0.673792	-0.424274	0.289861
C65	C	1.007125	-0.090941	0.623194
C66	C	1.340458	0.242392	0.956527
C67	C	0.702770	-0.373403	0.255235
C68	C	1.036103	-0.040069	0.588568
C69	C	1.369436	0.293264	0.921902
C70	C	0.776800	-0.376849	0.257579
C71	C	1.110134	-0.043515	0.590912
C72	C	1.443467	0.289818	0.924246
C73	C	0.451520	-0.408324	0.279016
C74	C	0.784853	-0.074991	0.612349
C75	C	1.118186	0.258342	0.945683
C76	C	0.377485	-0.404884	0.276673
C77	C	0.710818	-0.071550	0.610006
C78	C	1.044152	0.261783	0.943340
C79	C	0.393569	-0.510067	0.348268
C80	C	0.726902	-0.176734	0.681602
C81	C	1.060235	0.156599	1.014935
C82	C	0.467601	-0.513512	0.350606
C83	C	0.800934	-0.180179	0.683939
C84	C	1.134267	0.153155	1.017272
C85	C	0.496572	-0.462638	0.315983
C86	C	0.829905	-0.129304	0.649316
C87	C	1.163238	0.204029	0.982650
N88	N	0.598118	-0.420749	0.287467
N89	N	0.931452	-0.087415	0.620800
N90	N	1.264785	0.245918	0.954133
N91	N	0.572243	-0.466160	0.318382
N92	N	0.905576	-0.132827	0.651715
N93	N	1.238909	0.200507	0.985048
C94	C	1.123207	-0.648924	0.267473
C95	C	1.456540	-0.315591	0.600806
C96	C	1.789873	0.017742	0.934140
C97	C	1.139692	-0.736838	0.252341
C98	C	1.473025	-0.403505	0.585675
C99	C	1.806358	-0.070172	0.919008
C100	C	0.959868	-1.025169	0.418118
C101	C	1.293201	-0.691836	0.751451
C102	C	1.626534	-0.358502	1.084784
C103	C	0.975360	-1.107777	0.403877
C104	C	1.308694	-0.774444	0.737211
C105	C	1.642027	-0.441110	1.070544
C106	C	1.068957	-1.108088	0.317646
C107	C	1.402291	-0.774755	0.650979
C108	C	1.735624	-0.441421	0.984312
C109	C	1.053475	-1.025479	0.331881
C110	C	1.386808	-0.692145	0.665215
C111	C	1.720142	-0.358812	0.998548
C112	C	0.998929	-0.984026	0.382118
C113	C	1.332262	-0.650692	0.715451
C114	C	1.665596	-0.317359	1.048784
C115	C	1.092536	-0.984335	0.295881
C116	C	1.425869	-0.651002	0.629215
C117	C	1.759203	-0.317669	0.962548
C118	C	1.077052	-0.901733	0.310113
C119	C	1.410386	-0.568400	0.643447
C120	C	1.743719	-0.235066	0.976780
C121	C	1.022507	-0.860274	0.360346
C122	C	1.355841	-0.526941	0.693679
C123	C	1.689174	-0.193608	1.027012
C124	C	0.983445	-0.901424	0.396350
C125	C	1.316778	-0.568090	0.729683
C126	C	1.650112	-0.234757	1.063016
C127	C	1.147078	-1.025790	0.245642
C128	C	1.480412	-0.692456	0.578975
C129	C	1.813745	-0.359123	0.912308
C130	C	1.186140	-0.984646	0.209641
C131	C	1.519473	-0.651313	0.542975
C132	C	1.852806	-0.317979	0.876308
C133	C	1.170660	-0.902043	0.223877
C134	C	1.503993	-0.568709	0.557210
C135	C	1.837326	-0.235376	0.890544
C136	C	1.116115	-0.860584	0.274109
C137	C	1.449448	-0.527251	0.607443
C138	C	1.782781	-0.193917	0.940776
C139	C	1.209722	-0.860893	0.187873
C140	C	1.543055	-0.527560	0.521206
C141	C	1.876388	-0.194227	0.854540
C142	C	1.194238	-0.778291	0.202105
C143	C	1.527571	-0.444958	0.535439
C144	C	1.860905	-0.111625	0.868772
C145	C	1.100631	-0.777982	0.288342
C146	C	1.433964	-0.444648	0.621675
C147	C	1.767297	-0.111315	0.955008
C148	C	1.269719	-0.452070	0.308789
C149	C	1.603052	-0.118736	0.642122
C150	C	1.936386	0.214597	0.975456
C151	C	1.348511	-0.455750	0.311298
C152	C	1.681844	-0.122417	0.644631
C153	C	2.015178	0.210917	0.977964
C154	C	1.078960	-0.451315	0.484824
C155	C	1.412294	-0.117982	0.818158
C156	C	1.745627	0.215351	1.151491
C157	C	1.076463	-0.454674	0.562348
C158	C	1.409796	-0.121341	0.895682
C159	C	1.743129	0.211993	1.229015
C160	C	1.046306	-0.237141	0.338486
C161	C	1.379639	0.096193	0.671820
C162	C	1.712973	0.429526	1.005153
C163	C	1.029893	-0.149231	0.353650
C164	C	1.363226	0.184102	0.686983
C165	C	1.696560	0.517435	1.020317
C166	C	1.090690	-0.435526	0.121700
C167	C	1.424024	-0.102193	0.455033
C168	C	1.757357	0.231140	0.788366
C169	C	1.093284	-0.431951	0.044219
C170	C	1.426617	-0.098618	0.377552
C171	C	1.759951	0.234716	0.710885
C172	C	1.058564	-0.478829	0.997628
C173	C	1.391898	-0.145495	1.330962
C174	C	1.725231	0.187838	1.664295
C175	C	1.060907	-0.475661	0.924788
C176	C	1.394240	-0.142327	1.258122
C177	C	1.727573	0.191006	1.591455
C178	C	1.097973	-0.425619	0.898539
C179	C	1.431306	-0.092286	1.231872
C180	C	1.764639	0.241048	1.565206
C181	C	1.132693	-0.378736	0.945135
C182	C	1.466026	-0.045403	1.278468
C183	C	1.799360	0.287931	1.611802
C184	C	1.130346	-0.381900	1.017974
C185	C	1.463679	-0.048567	1.351308
C186	C	1.797013	0.284767	1.684641
C187	C	1.108836	-0.410955	0.681784
C188	C	1.442170	-0.077622	1.015117
C189	C	1.775503	0.255711	1.348451
C190	C	1.111182	-0.407796	0.608938
C191	C	1.444515	-0.074463	0.942272
C192	C	1.777849	0.258870	1.275605
C193	C	1.039394	-0.504721	0.588597
C194	C	1.372728	-0.171387	0.921930
C195	C	1.706061	0.161946	1.255263
C196	C	1.037055	-0.507884	0.661438
C197	C	1.370388	-0.174550	0.994771
C198	C	1.703721	0.158783	1.328105
C199	C	1.071771	-0.460998	0.708028
C200	C	1.405105	-0.127665	1.041362
C201	C	1.738438	0.205669	1.374695
N202	N	1.100369	-0.422381	0.824084
N203	N	1.433703	-0.089048	1.157418
N204	N	1.767036	0.244285	1.490751
N205	N	1.069370	-0.464232	0.782482
N206	N	1.402703	-0.130898	1.115815
N207	N	1.736037	0.202435	1.449148
H208	H	0.504282	-0.557741	0.380707
H209	H	0.837615	-0.224408	0.714041
H210	H	1.170949	0.108926	1.047374
H211	H	1.028385	-0.519581	1.018994
H212	H	1.361718	-0.186248	1.352327
H213	H	1.695051	0.147085	1.685660
H214	H	1.011129	-0.542891	0.550656
H215	H	1.344462	-0.209558	0.883989
H216	H	1.677795	0.123775	1.217322
C217	C	1.173464	-0.323687	0.916259
C218	C	1.506797	0.009646	1.249592
C219	C	1.840131	0.342980	1.582925
N220	N	1.204175	-0.282225	0.894510
N221	N	1.537509	0.051109	1.227843
N222	N	1.870842	0.384442	1.561176
C223	C	1.168542	-0.330333	1.069224
C224	C	1.501875	0.003001	1.402557
C225	C	1.835209	0.336334	1.735890
N226	N	1.197311	-0.291489	1.107824
N227	N	1.530645	0.041844	1.441158
N228	N	1.863978	0.375178	1.774491
C229	C	1.151958	-0.352743	0.580067
C230	C	1.485292	-0.019410	0.913400
C231	C	1.818625	0.313924	1.246734
N232	N	1.182670	-0.311280	0.558321
N233	N	1.516004	0.022054	0.891654
N234	N	1.849337	0.355387	1.224987
C235	C	1.246136	-1.030253	0.154380
C236	C	1.579469	-0.696920	0.487714
C237	C	1.912803	-0.363587	0.821047
N238	N	1.291327	-1.064604	0.112757
N239	N	1.624660	-0.731271	0.446090
N240	N	1.957993	-0.397938	0.779424
C241	C	0.361693	-0.566020	0.386357
C242	C	0.695026	-0.232687	0.719690
C243	C	1.028359	0.100647	1.053023
N244	N	0.337683	-0.608163	0.415049
N245	N	0.671017	-0.274830	0.748382
N246	N	1.004350	0.058504	1.081716
H247	H	1.159685	-1.093050	0.234057
H248	H	1.493019	-0.759716	0.567391
H249	H	1.826352	-0.426383	0.900724
H250	H	0.666078	-0.329177	0.225138
H251	H	0.999411	0.004157	0.558471
H252	H	1.332744	0.337490	0.891805
H253	H	0.800388	-0.335424	0.229388
H254	H	1.133721	-0.002091	0.562722
H255	H	1.467055	0.331243	0.896055
H256	H	0.829562	-0.526266	0.359270
H257	H	1.162896	-0.192933	0.692603
H258	H	1.496229	0.140400	1.025936
C259	C	1.005475	-0.769409	0.376002
C260	C	1.338808	-0.436075	0.709335
C261	C	1.672142	-0.102742	1.042669
N262	N	0.992648	-0.700969	0.387795
N263	N	1.325981	-0.367635	0.721128
N264	N	1.659314	-0.034302	1.054462
C265	C	0.686984	-0.534559	0.364903
C266	C	1.020318	-0.201226	0.698237
C267	C	1.353651	0.132108	1.031570
N268	N	0.662986	-0.576724	0.393577
N269	N	0.996320	-0.243391	0.726911
N270	N	1.329653	0.089942	1.060244
C271	C	0.996274	-0.562929	0.690307
C272	C	1.329607	-0.229595	1.023640
C273	C	1.662940	0.103738	1.356973
N274	N	0.965557	-0.604390	0.712050
N275	N	1.298890	-0.271056	1.045384
N276	N	1.632224	0.062277	1.378717
C277	C	1.128954	-1.153695	0.262384
C278	C	1.462287	-0.820362	0.595718
C279	C	1.795620	-0.487029	0.929051
N280	N	1.174144	-1.188046	0.220761
N281	N	1.507478	-0.854713	0.554095
N282	N	1.840811	-0.521379	0.887428
C283	C	1.147031	-0.359384	0.733023
C284	C	1.480365	-0.026050	1.066357
C285	C	1.813698	0.307283	1.399690
N286	N	1.175803	-0.320539	0.771620
N287	N	1.509136	0.012795	1.104953
N288	N	1.842470	0.346128	1.438286
H289	H	1.226045	-0.744792	0.172789
H290	H	1.559378	-0.411459	0.506123
H291	H	1.892712	-0.078125	0.839456
H292	H	1.254128	-0.894656	0.146966
H293	H	1.587461	-0.561323	0.480299
H294	H	1.920795	-0.227990	0.813633
H295	H	0.475100	-0.366905	0.250818
H296	H	0.808433	-0.033571	0.584151
H297	H	1.141767	0.299762	0.917484
C298	C	0.923432	-0.855820	0.451603
C299	C	1.256766	-0.522486	0.784936
C300	C	1.590099	-0.189153	1.118270
N301	N	0.878227	-0.821470	0.493212
N302	N	1.211561	-0.488137	0.826545
N303	N	1.544894	-0.154804	1.159879
C304	C	0.327923	-0.345132	0.236004
C305	C	0.661256	-0.011799	0.569337
C306	C	0.994589	0.321535	0.902671
N307	N	0.290593	-0.300130	0.205373
N308	N	0.623926	0.033203	0.538706
N309	N	0.957260	0.366537	0.872039
H310	H	1.032644	-0.513842	0.886855
H311	H	1.365977	-0.180509	1.220189
H312	H	1.699310	0.152824	1.553522
H313	H	1.056219	-0.744230	0.329254
H314	H	1.389552	-0.410896	0.662588
H315	H	1.722885	-0.077563	0.995921
H316	H	0.915456	-0.991417	0.459031
H317	H	1.248789	-0.658084	0.792364
H318	H	1.582123	-0.324750	1.125697
C319	C	0.932389	-1.153032	0.443488
C320	C	1.265722	-0.819699	0.776822
C321	C	1.599055	-0.486365	1.110155
N322	N	0.900023	-1.187118	0.473323
N323	N	1.233357	-0.853785	0.806656
N324	N	1.566690	-0.520451	1.139990
