data_functionalizedCrystal
_audit_creation_method	'MofGen! by Chris Wilmer'
_symmetry_space_group_name_H-M	'P1'
_symmetry_Int_Tables_number	1
_symmetry_cell_setting	triclinic
loop_
_symmetry_equiv_pos_as_xyz
  x,y,z
_cell_length_a	17.699083
_cell_length_b	11.892095
_cell_length_c	17.699083
_cell_angle_alpha	86.119663
_cell_angle_beta	83.283015
_cell_angle_gamma	93.885077
loop_
_atom_site_label
_atom_site_type_symbol
_atom_site_fract_x
_atom_site_fract_y
_atom_site_fract_z
O1	O	1.008916	0.093846	0.090872
O2	O	1.342249	0.427180	0.424205
O3	O	1.675583	0.760513	0.757538
O4	O	0.788539	0.093884	0.103322
O5	O	1.121873	0.427217	0.436656
O6	O	1.455206	0.760550	0.769989
O7	O	0.904953	0.093854	-0.013092
O8	O	1.238287	0.427187	0.320242
O9	O	1.571620	0.760521	0.653575
O10	O	0.892502	0.093876	0.207286
O11	O	1.225835	0.427209	0.540619
O12	O	1.559169	0.760543	0.873952
O13	O	0.895247	-0.094151	-0.003400
O14	O	1.228580	0.239182	0.329933
O15	O	1.561914	0.572516	0.663267
O16	O	0.778833	-0.094121	0.113014
O17	O	1.112166	0.239212	0.446347
O18	O	1.445500	0.572545	0.779680
O19	O	0.999210	-0.094159	0.100563
O20	O	1.332543	0.239175	0.433897
O21	O	1.665876	0.572508	0.767230
Zn22	Zn	0.887480	-0.123990	0.108327
Zn23	Zn	1.220814	0.209343	0.441661
Zn24	Zn	1.554147	0.542677	0.774994
Zn25	Zn	0.900269	0.123715	0.095558
Zn26	Zn	1.233602	0.457048	0.428892
Zn27	Zn	1.566935	0.790381	0.762225
O28	O	0.882796	-0.094129	0.216977
O29	O	1.216129	0.239204	0.550310
O30	O	1.549462	0.572538	0.883644
C31	C	0.755490	-0.000114	0.107722
C32	C	1.088823	0.333219	0.441055
C33	C	1.422156	0.666552	0.774388
C34	C	0.671472	-0.000100	0.106382
C35	C	1.004805	0.333233	0.439716
C36	C	1.338139	0.666566	0.773049
N37	N	0.878758	-0.293042	0.117041
N38	N	1.212091	0.040291	0.450375
N39	N	1.545425	0.373625	0.783708
C40	C	0.622852	-0.000094	0.174715
C41	C	0.956185	0.333239	0.508049
C42	C	1.289518	0.666573	0.841382
C43	C	0.543907	-0.000109	0.173454
C44	C	0.877241	0.333225	0.506787
C45	C	1.210574	0.666558	0.840120
C46	C	0.513586	-0.000122	0.103858
C47	C	0.846919	0.333212	0.437191
C48	C	1.180253	0.666545	0.770525
C49	C	0.562213	-0.000132	0.035520
C50	C	0.895546	0.333202	0.368853
C51	C	1.228879	0.666535	0.702187
C52	C	0.641155	-0.000125	0.036783
C53	C	0.974488	0.333208	0.370116
C54	C	1.307821	0.666542	0.703449
C55	C	0.243848	-0.000160	0.030426
C56	C	0.577181	0.333173	0.363759
C57	C	0.910515	0.666507	0.697093
C58	C	0.164900	-0.000163	0.029168
C59	C	0.498233	0.333170	0.362502
C60	C	0.831567	0.666503	0.695835
C61	C	0.146601	-0.000144	0.167097
C62	C	0.479934	0.333190	0.500431
C63	C	0.813267	0.666523	0.833764
C64	C	0.225543	-0.000137	0.168360
C65	C	0.558876	0.333196	0.501693
C66	C	0.892210	0.666530	0.835027
C67	C	0.274162	-0.000153	0.100023
C68	C	0.607496	0.333180	0.433356
C69	C	0.940829	0.666514	0.766689
C70	C	0.359762	-0.000139	0.101391
C71	C	0.693096	0.333194	0.434725
C72	C	1.026429	0.666528	0.768058
C73	C	0.427988	-0.000128	0.102488
C74	C	0.761321	0.333206	0.435821
C75	C	1.094655	0.666539	0.769155
C76	C	0.969691	-0.529713	0.026159
C77	C	1.303024	-0.196380	0.359493
C78	C	1.636358	0.136954	0.692826
C79	C	0.963600	-0.648053	0.032256
C80	C	1.296933	-0.314720	0.365589
C81	C	1.630266	0.018613	0.698922
C82	C	0.860481	-0.648065	0.135327
C83	C	1.193814	-0.314732	0.468660
C84	C	1.527147	0.018602	0.801993
C85	C	0.866572	-0.529725	0.129230
C86	C	1.199905	-0.196391	0.462563
C87	C	1.533239	0.136942	0.795897
C88	C	0.921180	-0.470553	0.074645
C89	C	1.254513	-0.137219	0.407979
C90	C	1.587846	0.196114	0.741312
C91	C	0.927274	-0.352210	0.068553
C92	C	1.260608	-0.018877	0.401886
C93	C	1.593941	0.314456	0.735220
C94	C	0.824152	-0.352224	0.171620
C95	C	1.157486	-0.018891	0.504953
C96	C	1.490819	0.314442	0.838286
C97	C	0.818061	-0.470565	0.177716
C98	C	1.151394	-0.137231	0.511050
C99	C	1.484728	0.196102	0.844383
C100	C	1.032260	-0.000158	0.096164
C101	C	1.365593	0.333175	0.429497
C102	C	1.698926	0.666508	0.762830
C103	C	1.116277	-0.000165	0.097503
C104	C	1.449611	0.333168	0.430836
C105	C	1.782944	0.666502	0.764169
C106	C	0.899654	-0.000149	-0.036443
C107	C	1.232987	0.333185	0.296890
C108	C	1.566321	0.666518	0.630224
C109	C	0.898315	-0.000149	-0.120461
C110	C	1.231649	0.333184	0.212872
C111	C	1.564982	0.666518	0.546206
N112	N	0.908997	0.292767	0.086838
N113	N	1.242330	0.626100	0.420172
N114	N	1.575664	0.959433	0.753505
C115	C	0.966648	-0.000162	-0.169081
C116	C	1.299981	0.333171	0.164252
C117	C	1.633315	0.666505	0.497585
C118	C	0.965386	-0.000152	-0.248025
C119	C	1.298720	0.333181	0.085308
C120	C	1.632053	0.666515	0.418642
C121	C	0.895791	-0.000137	-0.278347
C122	C	1.229124	0.333197	0.054987
C123	C	1.562457	0.666530	0.388320
C124	C	0.827453	-0.000120	-0.229720
C125	C	1.160786	0.333213	0.103613
C126	C	1.494120	0.666547	0.436946
C127	C	0.828716	-0.000122	-0.150778
C128	C	1.162049	0.333211	0.182555
C129	C	1.495382	0.666544	0.515888
C130	C	0.822358	-0.000110	-0.548084
C131	C	1.155691	0.333223	-0.214751
C132	C	1.489025	0.666557	0.118583
C133	C	0.821100	-0.000111	-0.627032
C134	C	1.154434	0.333222	-0.293698
C135	C	1.487767	0.666555	0.039635
C136	C	0.959029	-0.000140	-0.645331
C137	C	1.292362	0.333194	-0.311997
C138	C	1.625695	0.666527	0.021336
C139	C	0.960292	-0.000142	-0.566389
C140	C	1.293625	0.333191	-0.233055
C141	C	1.626958	0.666525	0.100278
C142	C	0.891955	-0.000119	-0.517770
C143	C	1.225288	0.333214	-0.184436
C144	C	1.558621	0.666547	0.148897
C145	C	0.893324	-0.000128	-0.432170
C146	C	1.226657	0.333205	-0.098837
C147	C	1.559990	0.666538	0.234497
C148	C	0.894420	-0.000136	-0.363944
C149	C	1.227754	0.333198	-0.030611
C150	C	1.561087	0.666531	0.302722
C151	C	0.888095	-0.000124	0.240328
C152	C	1.221428	0.333209	0.573662
C153	C	1.554762	0.666543	0.906995
C154	C	0.889434	-0.000116	0.324346
C155	C	1.222767	0.333217	0.657679
C156	C	1.556101	0.666550	0.991013
H157	H	0.647533	-0.000082	0.231388
H158	H	0.980866	0.333251	0.564722
H159	H	1.314199	0.666584	0.898055
Br160	Br	1.043809	-0.449405	-0.047908
Br161	Br	1.377143	-0.116072	0.285426
Br162	Br	1.710476	0.217261	0.618759
H163	H	1.021030	-0.000165	-0.287609
H164	H	1.354363	0.333168	0.045724
H165	H	1.687696	0.666502	0.379058
Br166	Br	1.029435	-0.728340	-0.033553
Br167	Br	1.362769	-0.395007	0.299780
Br168	Br	1.696102	-0.061673	0.633113
Br169	Br	0.266690	-0.000109	0.262814
Br170	Br	0.600023	0.333225	0.596147
Br171	Br	0.933357	0.666558	0.929481
Br172	Br	0.477925	-0.000096	0.266196
Br173	Br	0.811258	0.333237	0.599529
Br174	Br	1.144591	0.666571	0.932862
H175	H	0.107005	-0.000137	0.222741
H176	H	0.440338	0.333196	0.556075
H177	H	0.773671	0.666530	0.889408
H178	H	1.016963	-0.000160	-0.541705
H179	H	1.350296	0.333173	-0.208372
H180	H	1.683630	0.666507	0.124961
Br181	Br	0.733001	-0.000080	-0.270871
Br182	Br	1.066334	0.333253	0.062462
Br183	Br	1.399668	0.666586	0.395796
Br184	Br	1.051774	-0.000170	-0.711318
Br185	Br	1.385107	0.333164	-0.377985
Br186	Br	1.718441	0.666497	-0.044651
H187	H	0.537518	-0.000159	-0.021145
H188	H	0.870851	0.333175	0.312188
H189	H	1.204185	0.666508	0.645521
H190	H	0.766714	-0.000092	-0.508507
H191	H	1.100047	0.333241	-0.175174
H192	H	1.433380	0.666575	0.158160
Br193	Br	0.786364	-0.728380	0.209392
Br194	Br	1.119698	-0.395047	0.542725
Br195	Br	1.453031	-0.061714	0.876058
Br196	Br	0.309822	-0.000184	-0.062318
Br197	Br	0.643155	0.333149	0.271016
Br198	Br	0.976488	0.666482	0.604349
Br199	Br	0.123750	-0.000178	-0.065290
Br200	Br	0.457084	0.333155	0.268044
Br201	Br	0.790417	0.666489	0.601377
Br202	Br	0.707141	-0.000144	-0.055958
Br203	Br	1.040474	0.333190	0.277375
Br204	Br	1.373808	0.666523	0.610708
Br205	Br	0.726642	-0.000092	-0.668182
Br206	Br	1.059976	0.333241	-0.334848
Br207	Br	1.393309	0.666575	-0.001515
Br208	Br	1.001387	-0.271907	-0.005522
Br209	Br	1.334720	0.061427	0.327812
Br210	Br	1.668053	0.394760	0.661145
H211	H	0.773072	-0.000111	-0.111192
H212	H	1.106406	0.333222	0.222141
H213	H	1.439739	0.666555	0.555475
H214	H	0.773598	-0.518756	0.222156
H215	H	1.106932	-0.185423	0.555490
H216	H	1.440265	0.147911	0.888823
Br217	Br	1.061104	-0.000199	-0.127938
Br218	Br	1.394437	0.333134	0.205395
Br219	Br	1.727770	0.666467	0.538729
Br220	Br	0.758320	-0.271925	0.237432
Br221	Br	1.091653	0.061408	0.570765
Br222	Br	1.424987	0.394742	0.904099
