data_functionalizedCrystal
_audit_creation_method	'MofGen! by Chris Wilmer'
_symmetry_space_group_name_H-M	'P1'
_symmetry_Int_Tables_number	1
_symmetry_cell_setting	triclinic
loop_
_symmetry_equiv_pos_as_xyz
  x,y,z
_cell_length_a	14.908783
_cell_length_b	16.959454
_cell_length_c	14.908308
_cell_angle_alpha	86.730321
_cell_angle_beta	90.211273
_cell_angle_gamma	93.311155
loop_
_atom_site_label
_atom_site_type_symbol
_atom_site_fract_x
_atom_site_fract_y
_atom_site_fract_z
Zn1	Zn	1.345315	-0.276463	0.587848
Zn2	Zn	1.845315	0.223537	1.087848
Zn3	Zn	1.353896	-0.400620	0.437496
Zn4	Zn	1.853896	0.099380	0.937496
Zn5	Zn	1.203629	-0.275608	0.428819
Zn6	Zn	1.703629	0.224392	0.928819
Zn7	Zn	1.194922	-0.415756	0.579118
Zn8	Zn	1.694922	0.084244	1.079118
O9	O	1.274441	-0.342112	0.508320
O10	O	1.774441	0.157888	1.008320
O11	O	1.472282	-0.286957	0.575188
O12	O	1.972282	0.213043	1.075188
O13	O	1.341198	-0.377345	0.310521
O14	O	1.841198	0.122655	0.810521
O15	O	1.222476	-0.165109	0.449936
O16	O	1.722476	0.334891	0.949936
O17	O	1.478586	-0.378174	0.464725
O18	O	1.978586	0.121826	0.964725
O19	O	1.326573	-0.165738	0.566774
O20	O	1.826573	0.334262	1.066774
O21	O	1.230797	-0.285499	0.304146
O22	O	1.730797	0.214501	0.804146
O23	O	1.076646	-0.300175	0.441472
O24	O	1.576646	0.199825	0.941472
O25	O	1.207637	-0.403971	0.706100
O26	O	1.707637	0.096029	1.206100
O27	O	1.070249	-0.403141	0.551896
O28	O	1.570249	0.096859	1.051896
O29	O	1.318131	-0.301633	0.712513
O30	O	1.818131	0.198367	1.212513
O31	O	1.332756	-0.513240	0.456260
O32	O	1.832756	-0.013240	0.956260
O33	O	1.215958	-0.524361	0.560310
O34	O	1.715958	-0.024361	1.060310
C35	C	1.040822	-0.353209	0.494796
C36	C	1.540822	0.146791	0.994796
C37	C	0.940878	-0.357976	0.489031
C38	C	1.440878	0.142024	0.989031
C39	C	0.746495	-0.272097	0.593400
C40	C	1.246495	0.227903	1.093400
C41	C	0.652588	-0.276574	0.587987
C42	C	1.152588	0.223426	1.087987
C43	C	0.659156	-0.371402	0.472788
C44	C	1.159156	0.128598	0.972788
C45	C	0.753062	-0.366925	0.478201
C46	C	1.253062	0.133075	0.978201
C47	C	0.796728	-0.317272	0.538510
C48	C	1.296728	0.182728	1.038510
C49	C	0.890637	-0.312800	0.543927
C50	C	1.390637	0.187200	1.043927
C51	C	0.897203	-0.407623	0.428724
C52	C	1.397203	0.092377	0.928724
C53	C	0.803296	-0.412099	0.423311
C54	C	1.303296	0.087901	0.923311
C55	C	1.274366	-0.547481	0.508301
C56	C	1.774366	-0.047481	1.008301
C57	C	1.274415	-0.635336	0.508327
C58	C	1.774415	-0.135336	1.008327
C59	C	1.213708	-1.012626	0.562497
C60	C	1.713708	-0.512626	1.062497
C61	C	1.335419	-1.000987	0.454249
C62	C	1.835419	-0.500987	0.954249
C63	C	1.335388	-0.918443	0.454239
C64	C	1.835388	-0.418443	0.954239
C65	C	1.274515	-0.882986	0.508358
C66	C	1.774515	-0.382986	1.008358
C67	C	1.213673	-0.930074	0.562487
C68	C	1.713673	-0.430074	1.062487
C69	C	1.396222	-0.871348	0.400104
C70	C	1.896222	-0.371348	0.900104
C71	C	1.396193	-0.788798	0.400091
C72	C	1.896193	-0.288798	0.900091
C73	C	1.335324	-0.753340	0.454215
C74	C	1.835324	-0.253340	0.954215
C75	C	1.274480	-0.800434	0.508347
C76	C	1.774480	-0.300434	1.008347
C77	C	1.213608	-0.764977	0.562466
C78	C	1.713608	-0.264977	1.062466
C79	C	1.152768	-0.812069	0.616604
C80	C	1.652768	-0.312069	1.116604
C81	C	1.152804	-0.894616	0.616611
C82	C	1.652804	-0.394616	1.116611
C83	C	1.335288	-0.670793	0.454208
C84	C	1.835288	-0.170793	0.954208
C85	C	1.213573	-0.682425	0.562456
C86	C	1.713573	-0.182425	1.062456
C87	C	1.508972	-0.330973	0.521898
C88	C	2.008972	0.169027	1.021898
C89	C	1.608915	-0.326226	0.527684
C90	C	2.108915	0.173774	1.027684
C91	C	1.260955	-0.354586	0.742844
C92	C	1.760955	0.145414	1.242844
C93	C	1.255209	-0.359902	0.842783
C94	C	1.755209	0.140098	1.342783
C95	C	1.274539	-0.135941	0.508361
C96	C	1.774539	0.364059	1.008361
C97	C	1.274581	-0.048083	0.508378
C98	C	1.774581	0.451917	1.008378
C99	C	1.287925	-0.329627	0.274712
C100	C	1.787925	0.170373	0.774712
C101	C	1.293846	-0.324080	0.174783
C102	C	1.793846	0.175920	0.674783
C103	C	1.359464	-0.263308	1.037261
C104	C	1.859464	0.236692	1.537261
C105	C	1.354068	-0.268299	1.131163
C106	C	1.854068	0.231701	1.631163
C107	C	1.239015	-0.374872	1.124493
C108	C	1.739015	0.125128	1.624493
C109	C	1.244412	-0.369880	1.030590
C110	C	1.744412	0.130120	1.530590
C111	C	1.304639	-0.314097	0.986978
C112	C	1.804639	0.185903	1.486978
C113	C	1.310040	-0.309110	0.893074
C114	C	1.810040	0.190890	1.393074
C115	C	1.194983	-0.415678	0.886404
C116	C	1.694983	0.084322	1.386404
C117	C	1.189586	-0.420670	0.980307
C118	C	1.689586	0.079330	1.480307
H119	H	0.938113	-0.444414	0.384036
H120	H	1.438113	0.055586	0.884036
H121	H	1.150343	-0.457037	0.845454
H122	H	1.650343	0.042963	1.345454
Cl123	Cl	1.385756	-0.238985	0.838248
Cl124	Cl	1.885756	0.261015	1.338248
H125	H	1.164006	-0.653561	0.606530
H126	H	1.664006	-0.153561	1.106530
Cl127	Cl	0.589439	-0.219779	0.656993
Cl128	Cl	1.089439	0.280221	1.156993
H129	H	0.782048	-0.231672	0.642510
H130	H	1.282048	0.268328	1.142510
H131	H	1.140549	-0.466086	1.015829
H132	H	1.640549	0.033914	1.515829
Cl133	Cl	1.435187	-0.193191	0.982431
Cl134	Cl	1.935187	0.306809	1.482431
Cl135	Cl	1.422993	-0.204446	1.194374
Cl136	Cl	1.922993	0.295554	1.694374
H137	H	1.103201	-0.783191	0.660664
H138	H	1.603201	-0.283191	1.160664
Cl139	Cl	1.411941	-1.045563	0.386218
Cl140	Cl	1.911941	-0.545563	0.886218
H141	H	1.164176	-1.050972	0.606577
H142	H	1.664176	-0.550972	1.106577
Cl143	Cl	0.945530	-0.250382	0.619745
Cl144	Cl	1.445530	0.249618	1.119745
H145	H	0.767731	-0.452523	0.374206
H146	H	1.267731	0.047477	0.874206
Cl147	Cl	0.604246	-0.433807	0.396967
Cl148	Cl	1.104246	0.066193	0.896967
Cl149	Cl	1.076325	-0.953821	0.684661
Cl150	Cl	1.576325	-0.453821	1.184661
H151	H	1.445775	-0.900223	0.356036
H152	H	1.945775	-0.400223	0.856036
H153	H	1.445733	-0.750461	0.356011
H154	H	1.945733	-0.250461	0.856011
H155	H	1.384819	-0.632455	0.410126
H156	H	1.884819	-0.132455	0.910126
H157	H	1.189980	-0.420288	1.160018
H158	H	1.689980	0.079712	1.660018
