data_functionalizedCrystal
_audit_creation_method	'MofGen! by Chris Wilmer'
_symmetry_space_group_name_H-M	'P1'
_symmetry_Int_Tables_number	1
_symmetry_cell_setting	triclinic
loop_
_symmetry_equiv_pos_as_xyz
  x,y,z
_cell_length_a	18.215407
_cell_length_b	18.215405
_cell_length_c	18.215407
_cell_angle_alpha	90.015953
_cell_angle_beta	90.009037
_cell_angle_gamma	90.025333
loop_
_atom_site_label
_atom_site_type_symbol
_atom_site_fract_x
_atom_site_fract_y
_atom_site_fract_z
Zn1	Zn	1.124994	-0.293089	0.416102
Zn2	Zn	1.124925	-0.416129	0.293031
Zn3	Zn	1.001949	-0.293082	0.293050
Zn4	Zn	1.001892	-0.416119	0.416055
O5	O	1.063440	-0.354605	0.354559
O6	O	1.227969	-0.309418	0.399788
O7	O	1.108607	-0.399807	0.190049
O8	O	1.018324	-0.190098	0.309401
O9	O	1.227918	-0.399815	0.309368
O10	O	1.108724	-0.190104	0.399807
O11	O	1.018258	-0.309405	0.190063
O12	O	0.898957	-0.309396	0.309355
O13	O	1.018226	-0.399798	0.519046
O14	O	0.898915	-0.399791	0.399727
O15	O	1.108668	-0.309408	0.519080
O16	O	1.108552	-0.519112	0.309322
O17	O	1.018160	-0.519105	0.399708
C18	C	0.872234	-0.354592	0.354538
C19	C	0.790435	-0.354605	0.354547
C20	C	0.602238	-0.401747	0.401544
C21	C	0.525379	-0.401750	0.401553
C22	C	0.525394	-0.307476	0.307591
C23	C	0.602251	-0.307470	0.307586
C24	C	0.640671	-0.354610	0.354562
C25	C	0.486955	-0.354618	0.354576
C26	C	0.403622	-0.354620	0.354585
C27	C	0.724010	-0.354607	0.354553
C28	C	1.063362	-0.545811	0.354524
C29	C	1.063396	-0.627610	0.354534
C30	C	1.110574	-0.815783	0.307556
C31	C	1.110607	-0.892642	0.307574
C32	C	1.016400	-0.892674	0.401616
C33	C	1.016372	-0.815817	0.401601
C34	C	1.063457	-0.777373	0.354567
C35	C	1.063519	-0.931090	0.354600
C36	C	1.063554	-1.014423	0.354619
C37	C	1.063423	-0.694035	0.354548
C38	C	1.255393	-0.354618	0.354581
C39	C	1.337192	-0.354624	0.354590
C40	C	1.063449	-0.354603	0.546512
C41	C	1.063452	-0.354602	0.628311
C42	C	1.063538	-0.162652	0.354611
C43	C	1.063580	-0.080853	0.354633
C44	C	1.110525	-0.307542	0.893388
C45	C	1.110530	-0.307542	0.816529
C46	C	1.016358	-0.401674	0.816483
C47	C	1.016357	-0.401678	0.893340
C48	C	1.063439	-0.354608	0.931791
C49	C	1.063445	-0.354604	0.778075
C50	C	1.063451	-0.354604	0.694741
C51	C	1.063435	-0.354608	1.015130
C52	C	1.063428	-0.354619	1.163353
C53	C	1.063433	-0.354609	1.081554
H54	H	1.148915	-0.784484	0.269260
H55	H	0.978003	-0.784542	0.439886
N56	N	1.161302	-0.256775	0.934861
H57	H	1.191131	-0.226960	0.898868
H58	H	1.195347	-0.286730	0.966749
H59	H	0.633544	-0.269081	0.269327
H60	H	0.978013	-0.440008	0.924609
H61	H	1.148975	-0.923912	0.269294
H62	H	1.148873	-0.269217	0.785265
H63	H	0.978024	-0.439996	0.785167
N64	N	0.643679	-0.452588	0.452209
H65	H	0.607666	-0.482448	0.481974
H66	H	0.675587	-0.422681	0.486317
N67	N	0.483926	-0.452593	0.452224
H68	H	0.519930	-0.482454	0.481979
H69	H	0.452018	-0.486604	0.422204
H70	H	0.978064	-0.923985	0.439908
H71	H	0.494103	-0.269097	0.269344
