data_functionalizedCrystal
_audit_creation_method	'MofGen! by Chris Wilmer'
_symmetry_space_group_name_H-M	'P1'
_symmetry_Int_Tables_number	1
_symmetry_cell_setting	triclinic
loop_
_symmetry_equiv_pos_as_xyz
  x,y,z
_cell_length_a	16.956984
_cell_length_b	19.188924
_cell_length_c	16.053802
_cell_angle_alpha	92.554672
_cell_angle_beta	87.610701
_cell_angle_gamma	79.597691
loop_
_atom_site_label
_atom_site_type_symbol
_atom_site_fract_x
_atom_site_fract_y
_atom_site_fract_z
O1	O	1.061313	0.025799	-0.069434
O2	O	1.394646	0.359133	0.263899
O3	O	1.727980	0.692466	0.597232
O4	O	0.829069	0.050317	-0.069436
O5	O	1.162402	0.383651	0.263897
O6	O	1.495736	0.716984	0.597231
O7	O	0.951895	-0.063966	-0.069425
O8	O	1.285229	0.269367	0.263908
O9	O	1.618562	0.602700	0.597241
O10	O	0.938487	0.140083	-0.069445
O11	O	1.271820	0.473416	0.263888
O12	O	1.605153	0.806750	0.597222
O13	O	0.945135	-0.057700	0.069433
O14	O	1.278468	0.275633	0.402766
O15	O	1.611802	0.608967	0.736100
O16	O	0.822309	0.056584	0.069422
O17	O	1.155642	0.389917	0.402756
O18	O	1.488975	0.723250	0.736089
O19	O	1.054552	0.032066	0.069424
O20	O	1.387886	0.365399	0.402757
O21	O	1.721219	0.698732	0.736091
Zn22	Zn	0.937357	0.045319	0.091470
Zn23	Zn	1.270690	0.378653	0.424803
Zn24	Zn	1.604024	0.711986	0.758137
Zn25	Zn	0.946264	0.037064	-0.091482
Zn26	Zn	1.279598	0.370397	0.241851
Zn27	Zn	1.612931	0.703730	0.575185
O28	O	0.931726	0.146349	0.069413
O29	O	1.265059	0.479683	0.402747
O30	O	1.598393	0.813016	0.736080
C31	C	0.795976	0.054706	-0.000007
C32	C	1.129310	0.388039	0.333326
C33	C	1.462643	0.721373	0.666660
C34	C	0.707443	0.058439	-0.000007
C35	C	1.040776	0.391772	0.333326
C36	C	1.374109	0.725105	0.666659
C37	C	0.675577	-0.003971	0.000000
C38	C	1.008911	0.329363	0.333333
C39	C	1.342244	0.662696	0.666667
C40	C	0.592390	-0.000459	-0.000006
C41	C	0.925723	0.332874	0.333327
C42	C	1.259057	0.666207	0.666660
C43	C	0.541069	0.065462	-0.000014
C44	C	0.874403	0.398795	0.333319
C45	C	1.207736	0.732128	0.666653
C46	C	0.572940	0.127876	-0.000024
C47	C	0.906273	0.461209	0.333309
C48	C	1.239606	0.794542	0.666642
C49	C	0.656126	0.124364	-0.000024
C50	C	0.989459	0.457697	0.333310
C51	C	1.322792	0.791030	0.666643
C52	C	0.291236	0.082846	-0.000022
C53	C	0.624569	0.416179	0.333312
C54	C	0.957902	0.749513	0.666645
C55	C	0.208044	0.086353	-0.000019
C56	C	0.541378	0.419687	0.333314
C57	C	0.874711	0.753020	0.666647
C58	C	0.227501	-0.041982	-0.000003
C59	C	0.560834	0.291351	0.333330
C60	C	0.894168	0.624684	0.666664
C61	C	0.310687	-0.045488	0.000002
C62	C	0.644021	0.287845	0.333336
C63	C	0.977354	0.621178	0.666669
C64	C	0.342551	0.016925	-0.000012
C65	C	0.675884	0.350258	0.333321
C66	C	1.009218	0.683592	0.666655
N67	N	0.456038	0.069052	-0.000018
N68	N	0.789371	0.402386	0.333315
N69	N	1.122705	0.735719	0.666649
N70	N	0.427581	0.013334	-0.000014
N71	N	0.760914	0.346667	0.333319
N72	N	1.094247	0.680000	0.666652
C73	C	0.948082	-0.086820	0.000005
C74	C	1.281415	0.246513	0.333338
C75	C	1.614748	0.579846	0.666671
C76	C	0.946781	-0.164253	0.000007
C77	C	1.280114	0.169080	0.333340
C78	C	1.613448	0.502413	0.666674
C79	C	0.949859	-0.204035	-0.075685
C80	C	1.283192	0.129299	0.257648
C81	C	1.616526	0.462632	0.590982
C82	C	0.948626	-0.276790	-0.075691
C83	C	1.281959	0.056544	0.257642
C84	C	1.615292	0.389877	0.590975
C85	C	0.944330	-0.309763	-0.000001
C86	C	1.277663	0.023570	0.333332
C87	C	1.610997	0.356903	0.666665
C88	C	0.941247	-0.269972	0.075700
C89	C	1.274580	0.063361	0.409034
C90	C	1.607914	0.396695	0.742367
C91	C	0.942473	-0.197217	0.075705
C92	C	1.275806	0.136116	0.409038
C93	C	1.609139	0.469449	0.742371
N94	N	0.985050	-0.429277	0.056333
N95	N	1.318383	-0.095943	0.389666
N96	N	1.651716	0.237390	0.723000
N97	N	0.983888	-0.498391	0.056324
N98	N	1.317221	-0.165058	0.389657
N99	N	1.650554	0.168275	0.722991
C100	C	0.940636	-0.528969	-0.000010
C101	C	1.273970	-0.195636	0.333324
C102	C	1.607303	0.137697	0.666657
N103	N	0.898602	-0.487824	-0.056346
N104	N	1.231935	-0.154491	0.276987
N105	N	1.565268	0.178843	0.610320
N106	N	0.899768	-0.418704	-0.056340
N107	N	1.233101	-0.085370	0.276994
N108	N	1.566434	0.247963	0.610327
C109	C	0.943001	-0.388653	0.000002
C110	C	1.276334	-0.055320	0.333336
C111	C	1.609667	0.278013	0.666669
C112	C	0.942376	-0.647640	-0.075714
C113	C	1.275710	-0.314307	0.257620
C114	C	1.609043	0.019027	0.590953
C115	C	0.941138	-0.720396	-0.075717
C116	C	1.274471	-0.387062	0.257617
C117	C	1.607804	-0.053729	0.590950
C118	C	0.933767	-0.713578	0.075677
C119	C	1.267101	-0.380245	0.409010
C120	C	1.600434	-0.046911	0.742344
C121	C	0.934998	-0.640823	0.075678
C122	C	1.268331	-0.307489	0.409011
C123	C	1.601664	0.025844	0.742345
C124	C	0.939306	-0.607859	-0.000020
C125	C	1.272639	-0.274525	0.333314
C126	C	1.605973	0.058808	0.666647
C127	C	1.087645	0.027677	-0.000007
C128	C	1.420979	0.361010	0.333327
C129	C	1.754312	0.694344	0.666660
C130	C	1.176179	0.023944	-0.000012
C131	C	1.509513	0.357277	0.333321
C132	C	1.842846	0.690611	0.666655
C133	C	0.935540	0.169203	-0.000018
C134	C	1.268873	0.502537	0.333315
C135	C	1.602206	0.835870	0.666648
C136	C	0.936841	0.246636	-0.000026
C137	C	1.270174	0.579969	0.333307
C138	C	1.603508	0.913303	0.666641
N139	N	0.931284	0.050953	0.216330
N140	N	1.264617	0.384287	0.549663
N141	N	1.597950	0.717620	0.882996
N142	N	0.952344	0.031424	-0.216342
N143	N	1.285677	0.364757	0.116992
N144	N	1.619011	0.698091	0.450325
C145	C	0.983566	0.002340	0.260028
C146	C	1.316899	0.335674	0.593362
C147	C	1.650232	0.669007	0.926695
C148	C	0.979325	0.006288	0.347435
C149	C	1.312658	0.339621	0.680768
C150	C	1.645991	0.672954	1.014101
C151	C	0.922805	0.058851	0.391141
C152	C	1.256139	0.392184	0.724474
C153	C	1.589472	0.725518	1.057808
C154	C	0.870518	0.107466	0.347436
C155	C	1.203851	0.440799	0.680770
C156	C	1.537185	0.774133	1.014103
C157	C	0.874756	0.103515	0.260031
C158	C	1.208089	0.436849	0.593365
C159	C	1.541422	0.770182	0.926698
C160	C	0.904294	0.076088	0.652549
C161	C	1.237628	0.409422	0.985882
C162	C	1.570961	0.742755	1.319216
C163	C	0.900062	0.080037	0.739960
C164	C	1.233396	0.413370	1.073293
C165	C	1.566729	0.746703	1.406626
C166	C	1.008868	-0.021143	0.739952
C167	C	1.342202	0.312190	1.073286
C168	C	1.675535	0.645524	1.406619
C169	C	1.013104	-0.025087	0.652546
C170	C	1.346438	0.308247	0.985879
C171	C	1.679771	0.641580	1.319212
C172	C	0.960814	0.023526	0.608849
C173	C	1.294148	0.356860	0.942182
C174	C	1.627481	0.690193	1.275515
N175	N	0.918471	0.062888	0.480484
N176	N	1.251804	0.396221	0.813818
N177	N	1.585137	0.729555	1.147151
N178	N	0.965146	0.019485	0.519507
N179	N	1.298479	0.352819	0.852840
N180	N	1.631812	0.686152	1.186174
H181	H	0.317169	0.133667	-0.000039
H182	H	0.650502	0.467000	0.333294
H183	H	0.983835	0.800334	0.666628
O184	O	0.944449	-0.763311	-0.157357
O185	O	1.277783	-0.429978	0.175977
O186	O	1.611116	-0.096644	0.509310
H187	H	0.889711	-0.787247	-0.160974
H188	H	1.223044	-0.453914	0.172359
H189	H	1.556378	-0.120581	0.505692
H190	H	0.939962	-0.164827	0.137344
H191	H	1.273296	0.168507	0.470677
H192	H	1.606629	0.501840	0.804011
H193	H	0.937747	-0.296824	0.137328
H194	H	1.271081	0.036510	0.470661
H195	H	1.604414	0.369843	0.803994
H196	H	0.531148	0.181550	-0.000036
H197	H	0.864481	0.514883	0.333297
H198	H	1.197814	0.848217	0.666631
H199	H	0.824495	0.150262	0.383027
H200	H	1.157828	0.483596	0.716360
H201	H	1.491161	0.816929	1.049694
H202	H	1.051440	-0.060722	0.775538
H203	H	1.384773	0.272611	1.108872
H204	H	1.718106	0.605945	1.442205
O205	O	1.074064	-0.081787	0.605416
O206	O	1.407397	0.251546	0.938750
O207	O	1.740731	0.584879	1.272083
H208	H	1.135388	-0.075689	0.622186
H209	H	1.468721	0.257645	0.955520
H210	H	1.802055	0.590978	1.288853
O211	O	0.947007	-0.612075	-0.157353
O212	O	1.280341	-0.278741	0.175981
O213	O	1.613674	0.054592	0.509314
H214	H	0.948925	-0.651961	-0.209989
H215	H	1.282259	-0.318628	0.123344
H216	H	1.615592	0.014706	0.456677
H217	H	0.166259	0.140037	-0.000022
H218	H	0.499593	0.473371	0.333311
H219	H	0.832926	0.806704	0.666645
H220	H	0.930264	-0.740423	0.137305
H221	H	1.263597	-0.407090	0.470639
H222	H	1.596930	-0.073757	0.803972
O223	O	1.044512	-0.054369	0.212896
O224	O	1.377846	0.278964	0.546229
O225	O	1.711179	0.612298	0.879562
H226	H	1.038677	-0.048952	0.144775
H227	H	1.372010	0.284381	0.478108
H228	H	1.705344	0.617714	0.811442
O229	O	0.931698	-0.597912	0.157317
O230	O	1.265031	-0.264578	0.490651
O231	O	1.598365	0.068755	0.823984
H232	H	0.928513	-0.633062	0.209950
H233	H	1.261847	-0.299729	0.543283
H234	H	1.595180	0.033604	0.876617
O235	O	0.818371	0.155950	0.212893
O236	O	1.151704	0.489283	0.546226
O237	O	1.485038	0.822616	0.879559
H238	H	0.778362	0.193169	0.257967
H239	H	1.111696	0.526502	0.591300
H240	H	1.445029	0.859836	0.924633
O241	O	1.035728	-0.046132	0.394570
O242	O	1.369061	0.287201	0.727903
O243	O	1.702394	0.620534	1.061237
H244	H	1.075752	-0.083337	0.349494
H245	H	1.409086	0.249997	0.682828
H246	H	1.742419	0.583330	1.016161
O247	O	0.690501	0.191676	-0.000022
O248	O	1.023834	0.525009	0.333311
O249	O	1.357167	0.858342	0.666645
H250	H	0.640840	0.238106	-0.000017
H251	H	0.974173	0.571439	0.333316
H252	H	1.307506	0.904773	0.666649
H253	H	0.953365	-0.177200	-0.137324
H254	H	1.286698	0.156134	0.196009
H255	H	1.620031	0.489467	0.529343
H256	H	0.854035	0.122843	0.775541
H257	H	1.187368	0.456177	1.108875
H258	H	1.520702	0.789510	1.442208
H259	H	0.951127	-0.309185	-0.137331
H260	H	1.284461	0.024148	0.196003
H261	H	1.617794	0.357482	0.529336
H262	H	0.861719	0.115672	0.616978
H263	H	1.195052	0.449005	0.950311
H264	H	1.528386	0.782339	1.283644
H265	H	0.566450	-0.051280	-0.000001
H266	H	0.899783	0.282054	0.333333
H267	H	1.233117	0.615387	0.666666
O268	O	0.730930	-0.075072	0.000009
O269	O	1.064263	0.258262	0.333342
O270	O	1.397597	0.591595	0.666676
H271	H	0.694793	-0.117879	0.000005
H272	H	1.028127	0.215455	0.333339
H273	H	1.361460	0.548788	0.666672
O274	O	0.366041	-0.116589	0.000017
O275	O	0.699375	0.216745	0.333350
O276	O	1.032708	0.550078	0.666683
H277	H	0.329907	-0.159397	0.000018
H278	H	0.663241	0.173936	0.333351
H279	H	0.996574	0.507269	0.666684
H280	H	0.201549	-0.092796	-0.000001
H281	H	0.534882	0.240537	0.333333
H282	H	0.868215	0.573870	0.666666
