data_functionalizedCrystal
_audit_creation_method	'MofGen! by Chris Wilmer'
_symmetry_space_group_name_H-M	'P1'
_symmetry_Int_Tables_number	1
_symmetry_cell_setting	triclinic
loop_
_symmetry_equiv_pos_as_xyz
  x,y,z
_cell_length_a	19.902436
_cell_length_b	14.560438
_cell_length_c	14.560438
_cell_angle_alpha	60.000905
_cell_angle_beta	90.002252
_cell_angle_gamma	59.996626
loop_
_atom_site_label
_atom_site_type_symbol
_atom_site_fract_x
_atom_site_fract_y
_atom_site_fract_z
Zr1	Zr	0.647320	1.005173	-0.120435
O2	O	0.540025	1.196793	-0.267092
O3	O	0.680211	0.813566	-0.075480
O4	O	0.680208	1.005170	-0.267080
O5	O	0.540031	1.005187	0.075649
O6	O	0.790787	1.005152	-0.267068
O7	O	0.540028	1.005189	-0.075492
O8	O	0.790792	0.662407	0.075671
O9	O	0.540025	1.347931	-0.267089
O10	O	0.776763	0.892358	-0.056294
O11	O	0.694241	0.892369	0.056491
O12	O	0.694237	1.117958	-0.169094
O13	O	0.611716	1.117970	-0.056308
Zr14	Zr	0.823685	1.005140	0.120636
Zr15	Zr	0.823680	1.005144	-0.120416
Zr16	Zr	0.647324	1.005168	0.120617
Zr17	Zr	0.647320	1.246220	-0.120431
Zr18	Zr	0.823684	0.764092	0.120632
O19	O	0.790793	1.196747	0.075681
O20	O	0.790787	1.196753	-0.267064
O21	O	0.540031	1.196787	0.075653
O22	O	0.930979	0.813520	0.267293
O23	O	0.930973	0.813525	-0.075452
O24	O	0.680217	0.813560	0.267266
O25	O	0.930973	1.005126	-0.075448
O26	O	0.790797	1.005143	0.267281
O27	O	0.680218	1.005161	0.267269
O28	O	0.930976	1.005124	0.075693
O29	O	0.680208	1.347908	-0.267074
O30	O	0.790796	0.662404	0.267275
O31	O	0.930979	0.662382	0.267291
O32	O	0.930975	0.662385	0.075686
O33	O	0.540029	1.347928	-0.075485
O34	O	0.680212	1.347905	-0.075470
O35	O	0.776767	0.892354	0.169295
O36	O	0.859289	0.892343	0.056510
O37	O	0.776763	1.117943	-0.056290
O38	O	0.694242	1.117955	0.056495
C39	C	0.735502	0.703643	0.000095
C40	C	0.735502	0.601311	0.000093
C41	C	0.778575	0.553229	-0.058780
C42	C	0.778579	0.457070	-0.058770
C43	C	0.692428	0.457087	0.058988
C44	C	0.692430	0.553238	0.058984
C45	C	0.514902	1.005192	0.000076
C46	C	0.440033	1.005204	0.000068
C47	C	0.168031	1.005140	0.000111
C48	C	0.144462	1.147453	-0.070704
C49	C	0.222300	1.147542	-0.071097
C50	C	0.302974	1.005173	0.000090
C51	C	0.300561	0.934499	-0.051799
C52	C	0.222334	0.935408	-0.052323
C53	C	0.223324	0.932483	0.122848
C54	C	0.300245	0.935157	0.122659
C55	C	0.379240	1.005183	0.000078
C56	C	0.091765	1.005125	0.000119
C57	C	0.956102	1.005121	0.000125
C58	C	1.030972	1.005109	0.000133
C59	C	0.735497	1.005161	-0.301419
C60	C	0.735495	1.005163	-0.403752
C61	C	0.735503	1.306670	0.000106
C62	C	0.735503	1.409001	0.000108
C63	C	0.692418	1.122922	-0.510708
C64	C	0.692428	1.122916	-0.606857
C65	C	0.778592	0.887382	-0.489079
C66	C	0.778586	0.887389	-0.392933
C67	C	0.735508	1.005151	0.301620
C68	C	0.735510	1.005150	0.403953
C69	C	0.956102	0.703607	0.000119
C70	C	1.030971	0.601264	0.000126
C71	C	0.735507	0.703637	0.301614
C72	C	0.735509	0.601305	0.403945
C73	C	0.956107	0.703602	0.301639
C74	C	1.030979	0.601257	0.403978
C75	C	0.514897	1.306711	-0.301438
C76	C	0.440026	1.409056	-0.403777
C77	C	0.514903	1.306706	0.000082
C78	C	0.440033	1.409049	0.000075
C79	C	0.735497	1.306675	-0.301413
C80	C	0.735495	1.409008	-0.403744
C81	C	1.023053	0.553210	-0.058764
C82	C	1.093394	0.457062	-0.058780
C83	C	1.171653	0.408961	0.000100
C84	C	1.179569	0.457024	0.058991
C85	C	1.109229	0.553178	0.059001
C86	C	1.109222	0.553189	0.393165
C87	C	1.179578	0.457039	0.489314
C88	C	1.171690	0.408951	0.596276
C89	C	1.093438	0.457029	0.607087
C90	C	1.023084	0.553184	0.510939
C91	C	0.361782	1.457135	-0.392964
C92	C	0.291426	1.553316	-0.489113
C93	C	0.299315	1.601408	-0.596075
C94	C	0.377566	1.553324	-0.606886
C95	C	0.447921	1.457152	-0.510738
C96	C	0.447951	1.457112	0.058955
C97	C	0.377610	1.553288	0.058945
C98	C	0.299352	1.601391	0.000061
C99	C	0.291435	1.553324	-0.058826
C100	C	0.361775	1.457157	-0.058822
C101	C	0.778587	0.553219	0.510903
C102	C	0.778579	0.457075	0.607050
C103	C	0.692415	0.457108	0.489268
C104	C	0.692418	0.553257	0.393123
H105	H	0.657353	0.592385	0.106930
H106	H	1.115661	0.592327	0.306080
H107	H	0.104549	1.203036	-0.160696
H108	H	0.221023	1.203275	-0.036562
H109	H	0.813671	0.592341	0.519721
H110	H	0.302111	0.983584	-0.141257
C111	C	0.825973	0.757845	-0.275269
C112	C	0.825970	0.757856	-0.169513
C113	C	0.873358	0.628320	-0.051852
C114	C	0.920749	0.498772	-0.039947
C115	C	0.920754	0.498757	-0.145706
C116	C	0.873366	0.628293	-0.263367
H117	H	0.790887	0.853759	-0.178323
H118	H	0.873354	0.628332	0.026438
H119	H	0.955829	0.402882	0.047153
H120	H	0.955838	0.402854	-0.136897
H121	H	0.873370	0.628281	-0.341657
C122	C	1.265657	0.404090	0.123772
C123	C	1.343022	0.298309	0.123768
C124	C	1.429112	0.245361	0.188560
C125	C	1.437837	0.298194	0.253355
C126	C	1.360470	0.403981	0.253361
C127	C	1.274380	0.456929	0.188570
H128	H	1.336565	0.259193	0.075801
H129	H	1.486384	0.167050	0.188555
H130	H	1.501566	0.258999	0.301317
H131	H	1.366927	0.443097	0.301329
H132	H	1.217108	0.535240	0.188575
H133	H	0.355317	1.418026	-0.106765
C134	C	0.205357	1.606182	-0.477204
C135	C	0.196687	1.553255	-0.359545
C136	C	0.110621	1.606116	-0.347633
C137	C	0.033224	1.711904	-0.453379
C138	C	0.041891	1.764838	-0.571046
C139	C	0.127957	1.711977	-0.582958
H140	H	0.253984	1.474939	-0.281258
H141	H	0.104206	1.566931	-0.260527
H142	H	-0.030487	1.751035	-0.444561
H143	H	-0.015405	1.843154	-0.649333
H144	H	0.134372	1.751162	-0.670064
H145	H	0.813656	0.417930	0.694137
H146	H	0.243242	0.827648	0.175860
H147	H	0.657333	0.417974	0.480470
C148	C	0.645031	0.606157	0.275458
C149	C	0.645032	0.711921	0.169704
C150	C	0.597645	0.764826	0.052041
C151	C	0.550255	0.711967	0.040133
C152	C	0.550251	0.606198	0.145890
C153	C	0.597639	0.553293	0.263553
H154	H	0.680115	0.751055	0.178516
H155	H	0.597648	0.843123	-0.026247
H156	H	0.515176	0.751131	-0.046968
H157	H	0.515169	0.567064	0.137078
H158	H	0.597636	0.474995	0.341841
H159	H	0.813648	0.592367	-0.106731
C160	C	0.172955	1.003269	-0.174333
C161	C	0.204840	1.056256	-0.270613
C162	C	0.155464	1.124122	-0.392627
C163	C	0.074201	1.139002	-0.418361
C164	C	0.042312	1.086014	-0.322078
C165	C	0.091688	1.018147	-0.200065
H166	H	0.264999	1.045243	-0.251566
H167	H	0.179071	1.163348	-0.463902
H168	H	0.037650	1.189241	-0.508683
H169	H	-0.017847	1.097027	-0.341126
H170	H	0.068081	0.978922	-0.128790
C171	C	0.174279	0.994011	0.181403
C172	C	0.083380	1.111027	0.118510
C173	C	0.034329	1.172572	0.177051
C174	C	0.076176	1.117101	0.298485
C175	C	0.167080	1.000079	0.361385
C176	C	0.216131	0.938534	0.302844
H177	H	0.052398	1.152096	0.028611
H178	H	-0.032964	1.259200	0.130487
H179	H	0.039866	1.162661	0.341820
H180	H	0.198062	0.959010	0.451284
H181	H	0.283425	0.851906	0.349408
C182	C	0.299734	1.004774	0.175026
C183	C	0.371678	1.015515	0.188942
C184	C	0.371167	1.085140	0.241301
C185	C	0.298711	1.144025	0.279744
C186	C	0.226761	1.133286	0.265829
C187	C	0.227273	1.063660	0.213470
H188	H	0.425319	0.971923	0.160483
H189	H	0.424430	1.093090	0.251601
H190	H	0.298333	1.195566	0.318503
H191	H	0.173120	1.176878	0.294288
H192	H	0.174010	1.055711	0.203170
C193	C	0.377874	0.794822	0.199814
C194	C	0.434772	0.752354	0.305238
C195	C	0.512405	0.612007	0.382326
C196	C	0.533141	0.514128	0.353990
C197	C	0.476242	0.556594	0.248562
C198	C	0.398608	0.696941	0.171474
H199	H	0.419423	0.824811	0.326218
H200	H	0.554526	0.580571	0.460371
H201	H	0.590610	0.410235	0.411055
H202	H	0.491590	0.484137	0.227581
H203	H	0.356487	0.728377	0.093428
H204	H	0.813654	0.417923	-0.106708
H205	H	1.087027	0.417862	0.694188
H206	H	0.657359	0.417935	0.106934
H207	H	0.105297	1.203310	-0.036077
H208	H	1.243288	0.417903	0.480492
H209	H	1.115687	0.592291	0.106962
H210	H	0.383980	1.592493	-0.693986
H211	H	0.220524	1.203329	-0.161633
H212	H	0.357376	0.829819	-0.002701
H213	H	0.241682	0.830995	-0.004079
H214	H	0.657330	1.218821	-0.519524
H215	H	0.657352	1.218807	-0.693943
H216	H	0.813674	0.791494	-0.480284
H217	H	0.959337	0.592373	-0.106725
H218	H	1.086932	0.417940	-0.106736
H219	H	0.959377	0.592309	0.519759
H220	H	1.228921	0.330666	0.000084
H221	H	1.228984	0.330655	0.674557
H222	H	0.242083	1.679697	0.000067
H223	H	0.355343	1.417984	-0.305879
H224	H	0.511628	1.418006	-0.519555
H225	H	0.242021	1.679717	-0.674356
H226	H	0.511667	1.417954	0.106912
H227	H	0.384072	1.592408	0.106902
H228	H	0.227708	1.592505	-0.106767
