data_functionalizedCrystal
_audit_creation_method	'MofGen! by Chris Wilmer'
_symmetry_space_group_name_H-M	'P1'
_symmetry_Int_Tables_number	1
_symmetry_cell_setting	triclinic
loop_
_symmetry_equiv_pos_as_xyz
  x,y,z
_cell_length_a	12.759401
_cell_length_b	12.594516
_cell_length_c	12.759393
_cell_angle_alpha	89.970274
_cell_angle_beta	89.980324
_cell_angle_gamma	90.012242
loop_
_atom_site_label
_atom_site_type_symbol
_atom_site_fract_x
_atom_site_fract_y
_atom_site_fract_z
Zn1	Zn	1.606287	-0.423678	-0.593990
Zn2	Zn	1.606187	-0.601694	-0.418313
Zn3	Zn	1.430586	-0.423732	-0.418329
Zn4	Zn	1.430587	-0.601617	-0.593954
O5	O	1.518412	-0.512680	-0.506147
O6	O	1.753295	-0.447303	-0.570695
O7	O	1.582851	-0.578142	-0.271294
O8	O	1.453935	-0.274779	-0.441653
O9	O	1.753222	-0.578091	-0.441625
O10	O	1.583022	-0.274740	-0.570711
O11	O	1.453838	-0.447394	-0.271306
O12	O	1.283565	-0.447318	-0.441618
O13	O	1.453936	-0.577958	-0.740980
O14	O	1.283566	-0.578010	-0.570649
O15	O	1.583023	-0.447228	-0.741007
O16	O	1.582852	-0.750630	-0.441590
O17	O	1.453839	-0.750573	-0.570633
C18	C	1.245445	-0.512662	-0.506132
C19	C	1.128668	-0.512680	-0.506150
C20	C	1.073845	-0.444702	-0.573460
C21	C	0.964121	-0.444713	-0.573467
C22	C	0.964053	-0.580689	-0.438851
C23	C	1.073775	-0.580672	-0.438840
C24	C	0.814195	-0.319254	-0.611234
C25	C	0.759368	-0.251285	-0.678561
C26	C	0.795026	-0.235063	-0.781099
C27	C	0.885509	-0.286825	-0.816332
C28	C	0.940330	-0.354801	-0.749011
C29	C	0.904674	-0.371004	-0.646458
C30	C	1.223702	-0.706132	-0.401084
C31	C	1.278525	-0.774115	-0.333767
C32	C	1.242870	-0.790348	-0.231227
C33	C	1.152384	-0.738605	-0.195998
C34	C	1.097561	-0.670622	-0.263315
C35	C	1.133224	-0.654387	-0.365854
C36	C	1.518363	-0.789221	-0.506128
C37	C	1.518439	-0.907527	-0.506156
C38	C	1.588690	-0.976772	-0.436044
C39	C	1.614368	-1.047465	-0.531937
C40	C	1.492893	-1.047632	-0.410324
C41	C	1.544165	-0.976662	-0.602098
C42	C	1.422645	-0.976822	-0.480421
C43	C	1.448286	-1.047484	-0.576380
C44	C	1.792445	-0.512700	-0.506162
C45	C	1.909222	-0.512708	-0.506169
C46	C	1.518491	-0.512578	-0.780180
C47	C	1.518524	-0.512535	-0.896957
C48	C	1.518489	-0.235059	-0.506188
C49	C	1.518522	-0.116754	-0.506206
C50	C	1.585744	-0.444452	-0.951834
C51	C	1.585762	-0.444407	-1.061559
C52	C	1.451336	-0.580534	-1.061518
C53	C	1.451314	-0.580574	-0.951796
C54	C	1.623368	-0.318828	-1.211534
C55	C	1.690605	-0.250755	-1.266415
C56	C	1.793117	-0.234436	-1.230822
C57	C	1.828413	-0.286204	-1.140348
C58	C	1.761182	-0.354285	-1.085473
C59	C	1.658655	-0.370585	-1.121065
C60	C	1.413719	-0.706154	-0.801818
C61	C	1.346492	-0.774241	-0.746940
C62	C	1.243979	-0.790571	-0.782532
C63	C	1.208686	-0.738821	-0.873009
C64	C	1.275913	-0.670734	-0.927887
C65	C	1.378426	-0.654402	-0.892287
C66	C	1.518394	-0.512705	-0.233179
C67	C	1.518564	-0.512449	-0.116403
H68	H	0.785161	-0.332444	-0.527736
H69	H	1.471251	-1.078805	-0.329260
C70	C	1.113152	-0.756455	-0.083207
H71	H	1.051405	-0.715909	-0.071871
H72	H	1.165746	-0.734856	-0.035043
H73	H	1.098082	-0.829624	-0.073128
H74	H	0.685697	-0.209141	-0.649865
C75	C	1.526486	-0.688191	-0.762664
H76	H	1.537881	-0.728777	-0.700929
H77	H	1.536471	-0.615027	-0.747614
H78	H	1.574679	-0.709715	-0.815292
C79	C	0.903667	-0.655483	-0.364825
H80	H	0.830468	-0.645767	-0.374479
H81	H	0.921615	-0.639821	-0.294258
H82	H	0.921654	-0.727016	-0.380088
C83	C	1.659658	-0.369599	-0.891515
H84	H	1.699686	-0.329038	-0.939917
H85	H	1.705418	-0.410326	-0.848709
H86	H	1.619461	-0.323233	-0.848719
H87	H	1.023881	-0.628490	-0.234623
H88	H	1.352215	-0.816232	-0.362454
C89	C	1.134224	-0.369906	-0.647490
H90	H	1.085855	-0.329416	-0.687571
H91	H	1.177046	-0.410667	-0.693195
H92	H	1.177010	-0.323471	-0.607367
C93	C	1.313191	-0.934862	-0.450950
H94	H	1.286259	-0.893347	-0.506988
H95	H	1.318211	-0.892334	-0.389692
H96	H	1.267566	-0.993029	-0.437998
H97	H	1.014003	-0.396940	-0.777694
C98	C	0.924724	-0.268985	-0.929129
H99	H	0.879120	-0.221081	-0.964174
H100	H	0.925787	-0.334806	-0.965433
H101	H	0.993460	-0.240037	-0.927365
C102	C	1.303172	-0.865134	-0.157183
H103	H	1.362169	-0.893630	-0.192845
H104	H	1.258442	-0.921330	-0.135548
H105	H	1.326121	-0.826566	-0.097478
H106	H	1.565726	-0.945620	-0.683232
C107	C	1.368082	-1.089175	-0.656592
H108	H	1.386431	-1.064740	-0.724624
H109	H	1.300208	-1.063916	-0.638875
H110	H	1.368145	-1.164600	-0.655777
C111	C	1.237091	-0.613804	-1.027407
H112	H	1.166406	-0.633274	-1.040745
H113	H	1.279559	-0.633848	-1.085268
H114	H	1.241342	-0.539161	-1.017594
H115	H	1.847861	-0.179008	-1.275514
C116	C	0.734722	-0.160294	-0.855153
H117	H	0.675734	-0.131788	-0.819484
H118	H	0.711778	-0.198857	-0.914856
H119	H	0.779453	-0.104091	-0.876786
C120	C	1.262925	-0.688270	-0.513880
H121	H	1.217322	-0.640362	-0.548921
H122	H	1.263989	-0.754087	-0.550191
H123	H	1.331661	-0.659323	-0.512111
C124	C	1.668954	-0.934815	-0.356024
H125	H	1.737014	-0.959002	-0.374502
H126	H	1.651446	-0.960155	-0.288102
H127	H	1.667930	-0.859393	-0.356120
H128	H	1.695414	-1.078499	-0.553731
C129	C	1.799993	-0.411221	-0.985957
H130	H	1.870677	-0.391751	-0.972614
H131	H	1.795724	-0.485860	-0.995756
H132	H	1.757527	-0.391155	-0.928095
H133	H	1.189247	-0.846023	-0.737846
H134	H	1.661857	-0.208605	-1.340079
H135	H	1.911892	-0.272919	-1.111380
H136	H	1.539892	-0.332101	-1.240518
C137	C	1.377418	-0.655381	-1.121839
H138	H	1.337374	-0.695928	-1.073438
H139	H	1.417603	-0.701746	-1.164639
H140	H	1.331658	-0.614641	-1.164641
H141	H	1.125213	-0.752122	-0.901992
H142	H	1.375241	-0.816388	-0.673276
