data_functionalizedCrystal
_audit_creation_method	'MofGen! by Chris Wilmer'
_symmetry_space_group_name_H-M	'P1'
_symmetry_Int_Tables_number	1
_symmetry_cell_setting	triclinic
loop_
_symmetry_equiv_pos_as_xyz
  x,y,z
_cell_length_a	10.723023
_cell_length_b	10.654550
_cell_length_c	9.130313
_cell_angle_alpha	90.000110
_cell_angle_beta	90.000114
_cell_angle_gamma	84.476225
loop_
_atom_site_label
_atom_site_type_symbol
_atom_site_fract_x
_atom_site_fract_y
_atom_site_fract_z
O1	O	-1.657208	-0.176139	-0.121791
O2	O	-1.294058	-0.193001	-0.121795
O3	O	-1.483983	-0.001830	-0.121787
O4	O	-1.467284	-0.367311	-0.121799
O5	O	-1.483980	-0.001835	0.121811
O6	O	-1.294056	-0.193006	0.121804
O7	O	-1.657206	-0.176144	0.121808
Cu8	Cu	-1.475631	-0.184576	0.144048
Cu9	Cu	-1.475633	-0.184570	-0.144036
O10	O	-1.467281	-0.367316	0.121800
C11	C	-1.247557	-0.191777	0.000004
C12	C	-1.109002	-0.188106	0.000003
C13	C	-1.482755	0.044966	0.000010
C14	C	-1.479087	0.184408	0.000005
C15	C	-1.703707	-0.177369	0.000005
C16	C	-1.842262	-0.181039	-0.000003
C17	C	-0.904032	-0.182679	0.126189
C18	C	-1.047236	-0.186472	0.126193
C19	C	-1.468508	-0.414111	-0.000001
C20	C	-1.472177	-0.553554	-0.000005
N21	N	-1.475638	-0.184579	0.346671
C22	C	-1.590911	0.263911	0.000010
C23	C	-1.587457	0.394931	0.000000
C24	C	-1.360344	0.366933	-0.000015
C25	C	-1.363800	0.235915	-0.000015
C26	C	-1.722034	0.280077	0.000026
C27	C	-1.718579	0.411097	0.000015
N28	N	-1.475636	-0.184556	-0.346658
C29	C	-1.559758	-0.099958	0.423326
C30	C	-1.559755	-0.099943	0.576663
C31	C	-1.391507	-0.269182	0.576676
C32	C	-1.391505	-0.269190	0.423342
C33	C	-1.656899	-0.002252	0.423320
C34	C	-1.656895	-0.002237	0.576657
H35	H	-0.850898	-0.181280	0.234223
H36	H	-1.626577	0.088981	0.624206
O37	O	-1.765738	0.465404	-0.125598
C38	C	-1.694992	0.415706	-0.246045
H39	H	-1.646204	0.319379	-0.215867
H40	H	-1.759788	0.405452	-0.343412
H41	H	-1.621779	0.482098	-0.276255
H42	H	-1.635592	0.094277	0.381702
H43	H	-1.322997	-0.338084	0.360931
H44	H	-0.895394	-0.182452	-0.108037
H45	H	-1.767983	0.452863	0.101959
H46	H	-1.323007	-0.338069	0.639118
H47	H	-1.747501	-0.032827	0.375761
O48	O	-1.045763	-0.186599	-0.128991
C49	C	-1.064270	-0.296036	-0.209805
H50	H	-1.154435	-0.334741	-0.172188
H51	H	-1.071561	-0.271731	-0.331292
H52	H	-0.981783	-0.370127	-0.191287
O53	O	-1.771395	-0.027732	0.626149
C54	C	-1.863463	0.065163	0.574572
H55	H	-1.827645	0.111032	0.471999
H56	H	-1.952567	0.019644	0.547242
H57	H	-1.884626	0.139930	0.662767
H58	H	-1.100358	-0.187876	0.234231
H59	H	-1.272741	0.171188	-0.000040
H60	H	-1.763787	0.244454	0.105207
H61	H	-1.266480	0.408887	-0.000032
O62	O	-1.783040	0.244882	-0.121631
C63	C	-1.701803	0.161384	-0.205534
H64	H	-1.624962	0.114495	-0.132037
H65	H	-1.757025	0.086117	-0.256255
H66	H	-1.657733	0.216017	-0.296155
