data_functionalizedCrystal
_audit_creation_method	'MofGen! by Chris Wilmer'
_symmetry_space_group_name_H-M	'P1'
_symmetry_Int_Tables_number	1
_symmetry_cell_setting	triclinic
loop_
_symmetry_equiv_pos_as_xyz
  x,y,z
_cell_length_a	11.792241
_cell_length_b	8.559649
_cell_length_c	7.088929
_cell_angle_alpha	95.344185
_cell_angle_beta	83.749367
_cell_angle_gamma	76.986040
loop_
_atom_site_label
_atom_site_type_symbol
_atom_site_fract_x
_atom_site_fract_y
_atom_site_fract_z
O1	O	-1.473819	-0.235133	-0.158796
O2	O	-0.973819	0.264867	0.341204
O3	O	-1.141410	-0.257691	-0.158840
O4	O	-0.641410	0.242309	0.341160
O5	O	-1.336900	-0.014063	-0.158812
O6	O	-0.836900	0.485937	0.341188
O7	O	-1.278329	-0.478761	-0.158824
O8	O	-0.778329	0.021239	0.341176
O9	O	-1.363032	0.018570	0.159167
O10	O	-0.863032	0.518570	0.659167
O11	O	-1.167542	-0.225058	0.159139
O12	O	-0.667542	0.274942	0.659139
O13	O	-1.499951	-0.202500	0.159183
O14	O	-0.999951	0.297500	0.659183
Cu15	Cu	-1.336133	-0.210800	0.188195
Cu16	Cu	-0.836133	0.289200	0.688195
Cu17	Cu	-1.305229	-0.249391	-0.187852
Cu18	Cu	-0.805229	0.250609	0.312148
O19	O	-1.304461	-0.446128	0.159155
O20	O	-0.804461	0.053872	0.659155
C21	C	-1.354405	0.061745	0.000174
C22	C	-0.854405	0.561745	0.500174
C23	C	-1.367616	0.239009	0.000165
C24	C	-0.867616	0.739009	0.500165
C25	C	-1.112314	-0.239958	0.000144
C26	C	-0.612314	0.260042	0.500144
C27	C	-0.986687	-0.235720	0.000127
C28	C	-0.486687	0.264280	0.500127
C29	C	-1.529047	-0.220233	0.000195
C30	C	-1.029047	0.279767	0.500195
C31	C	-1.654673	-0.224473	0.000199
C32	C	-1.154673	0.275527	0.500199
C33	C	-0.756693	-0.227917	0.000182
C34	C	-0.256693	0.272083	0.500182
C35	C	-0.884680	-0.232252	0.000152
C36	C	-0.384680	0.267748	0.500152
C37	C	-1.286956	-0.521936	0.000164
C38	C	-0.786956	-0.021936	0.500164
C39	C	-1.273744	-0.699202	0.000161
C40	C	-0.773744	-0.199202	0.500161
N41	N	-1.357877	-0.183655	0.452686
N42	N	-0.857877	0.316345	0.952686
N43	N	-1.283494	-0.276523	-0.452343
N44	N	-0.783494	0.223477	0.047657
H45	H	-1.183268	0.218085	0.000155
H46	H	-0.683268	0.718085	0.500155
H47	H	-1.458100	0.321734	0.000192
H48	H	-0.958100	0.821734	0.500192
H49	H	-1.434978	-0.087423	0.534353
H50	H	-0.934978	0.412577	1.034353
H51	H	-1.206406	-0.372761	0.466000
H52	H	-0.706406	0.127239	0.966000
