data_functionalizedCrystal
_audit_creation_method	'MofGen! by Chris Wilmer'
_symmetry_space_group_name_H-M	'P1'
_symmetry_Int_Tables_number	1
_symmetry_cell_setting	triclinic
loop_
_symmetry_equiv_pos_as_xyz
  x,y,z
_cell_length_a	10.967926
_cell_length_b	15.711784
_cell_length_c	9.482900
_cell_angle_alpha	102.141198
_cell_angle_beta	92.549900
_cell_angle_gamma	101.755888
loop_
_atom_site_label
_atom_site_type_symbol
_atom_site_fract_x
_atom_site_fract_y
_atom_site_fract_z
O1	O	1.678171	0.154895	0.299551
O2	O	1.329802	0.156819	0.212270
O3	O	1.457629	0.028450	0.244298
O4	O	1.550344	0.283263	0.267523
O5	O	1.431712	0.054634	0.479597
O6	O	1.303885	0.183003	0.447569
O7	O	1.652255	0.181079	0.534850
Cu8	Cu	1.475704	0.184432	0.512694
Cu9	Cu	1.506353	0.153466	0.234426
O10	O	1.524428	0.309447	0.502822
C11	C	1.271227	0.167792	0.318491
C12	C	1.135299	0.161469	0.284435
C13	C	1.061273	0.172215	0.391144
C14	C	0.920784	0.165680	0.355948
C15	C	1.429525	0.008823	0.358151
C16	C	1.384382	-0.088669	0.346833
C17	C	1.214433	-0.219392	0.304245
C18	C	1.256864	-0.127783	0.314882
C19	C	1.469520	-0.141155	0.368167
C20	C	1.427105	-0.232766	0.357541
C21	C	1.299561	-0.271877	0.325578
C22	C	1.512234	-0.285251	0.378875
C23	C	1.469823	-0.376854	0.368243
C24	C	1.342285	-0.415972	0.336277
C25	C	1.257151	-0.363480	0.314946
C26	C	1.639779	-0.246139	0.410828
C27	C	1.724907	-0.298624	0.432161
C28	C	1.682496	-0.390228	0.421539
C29	C	1.554957	-0.429346	0.389573
C30	C	1.767630	-0.442720	0.442870
C31	C	1.725220	-0.534324	0.432237
C32	C	1.512547	-0.520950	0.378941
C33	C	1.710830	0.170105	0.428626
C34	C	1.846759	0.176427	0.462672
C35	C	1.552531	0.329074	0.388966
C36	C	1.597675	0.426565	0.400274
N37	N	1.454155	0.206211	0.708415
N38	N	1.527908	0.131680	0.038706
C39	C	1.499986	0.159885	0.792098
C40	C	1.482070	0.178013	0.955026
H41	H	1.408684	-0.552792	0.352945
H42	H	1.401648	0.259291	0.757389
H43	H	0.887382	0.190462	0.580094
H44	H	1.307757	-0.490563	0.327613
H45	H	1.828754	-0.266766	0.458191
H46	H	1.094667	0.147430	0.167022
H47	H	1.552483	0.106799	0.743123
H48	H	1.429559	0.231096	1.003993
H49	H	1.794541	-0.577059	0.449602
H50	H	1.153288	-0.395323	0.288950
H51	H	1.110570	-0.251234	0.278249
H52	H	1.187532	-0.085052	0.297510
H53	H	1.573366	-0.109297	0.394197
H54	H	1.871478	-0.410863	0.468884
H55	H	1.101902	0.186247	0.508557
H56	H	1.674305	-0.171549	0.419487
H57	H	0.880158	0.151639	0.238527
H58	H	1.580407	0.078590	0.989736
