data_functionalizedCrystal
_audit_creation_method	'MofGen! by Chris Wilmer'
_symmetry_space_group_name_H-M	'P1'
_symmetry_Int_Tables_number	1
_symmetry_cell_setting	triclinic
loop_
_symmetry_equiv_pos_as_xyz
  x,y,z
_cell_length_a	16.109302
_cell_length_b	17.038272
_cell_length_c	14.586319
_cell_angle_alpha	89.995924
_cell_angle_beta	89.994552
_cell_angle_gamma	87.286668
loop_
_atom_site_label
_atom_site_type_symbol
_atom_site_fract_x
_atom_site_fract_y
_atom_site_fract_z
O1	O	1.110268	0.100498	-0.076283
O2	O	1.610268	0.600498	0.423717
O3	O	0.869094	0.113004	-0.076276
O4	O	1.369094	0.613004	0.423724
O5	O	0.988247	-0.007065	-0.076272
O6	O	1.488247	0.492935	0.423728
O7	O	0.991114	0.220566	-0.076287
O8	O	1.491114	0.720566	0.423713
O9	O	0.988238	-0.007067	0.076209
O10	O	1.488238	0.492933	0.576209
O11	O	0.869085	0.113002	0.076205
O12	O	1.369085	0.613002	0.576205
O13	O	1.110259	0.100496	0.076198
O14	O	1.610259	0.600496	0.576198
Cu15	Cu	0.989671	0.106749	0.090124
Cu16	Cu	1.489671	0.606749	0.590124
Cu17	Cu	0.989682	0.106751	-0.090202
Cu18	Cu	1.489682	0.606751	0.409798
O19	O	0.991105	0.220564	0.076194
O20	O	1.491105	0.720564	0.576194
C21	C	0.838079	0.112496	-0.000034
C22	C	1.338079	0.612496	0.499966
C23	C	0.745675	0.110977	-0.000032
C24	C	1.245675	0.610977	0.499968
C25	C	0.533080	0.107463	0.083077
C26	C	1.033080	0.607463	0.583077
C27	C	0.446258	0.106028	0.083074
C28	C	0.946258	0.606028	0.583074
C29	C	0.446279	0.106034	-0.083169
C30	C	0.946279	0.606034	0.416831
C31	C	0.533099	0.107464	-0.083165
C32	C	1.033099	0.607464	0.416835
C33	C	0.576498	0.108183	-0.000039
C34	C	1.076498	0.608183	0.499961
C35	C	0.402855	0.105317	-0.000046
C36	C	0.902855	0.605317	0.499954
C37	C	0.308719	0.103760	-0.000050
C38	C	0.808719	0.603760	0.499950
C39	C	0.670640	0.109738	-0.000035
C40	C	1.170640	0.609738	0.499965
C41	C	0.985636	-0.036194	-0.000032
C42	C	1.485636	0.463806	0.499968
C43	C	0.977856	-0.122987	-0.000032
C44	C	1.477856	0.377013	0.499968
C45	C	1.049277	-0.173101	-0.000033
C46	C	1.549277	0.326899	0.499967
C47	C	1.041963	-0.254652	-0.000041
C48	C	1.541963	0.245348	0.499959
C49	C	0.963227	-0.286086	-0.000042
C50	C	1.463227	0.213914	0.499958
C51	C	0.891801	-0.235965	-0.000044
C52	C	1.391801	0.264035	0.499956
C53	C	0.899116	-0.154416	-0.000042
C54	C	1.399116	0.345584	0.499958
C55	C	0.937385	-0.531844	-0.000054
C56	C	1.437385	-0.031844	0.499946
C57	C	0.930075	-0.613399	-0.000053
C58	C	1.430075	-0.113399	0.499947
C59	C	1.080238	-0.632080	-0.000052
C60	C	1.580238	-0.132080	0.499948
C61	C	1.087546	-0.550529	-0.000045
C62	C	1.587546	-0.050529	0.499955
C63	C	1.016120	-0.500415	-0.000051
C64	C	1.516120	-0.000415	0.499949
C65	C	0.955749	-0.369444	-0.000048
C66	C	1.455749	0.130556	0.499952
C67	C	1.023599	-0.417059	-0.000052
C68	C	1.523599	0.082941	0.499948
C69	C	1.141274	0.101003	-0.000045
C70	C	1.641274	0.601003	0.499955
C71	C	1.233677	0.102523	-0.000054
C72	C	1.733677	0.602523	0.499946
C73	C	0.993717	0.249693	-0.000048
C74	C	1.493717	0.749693	0.499952
C75	C	1.001496	0.336486	-0.000054
C76	C	1.501496	0.836486	0.499946
N77	N	0.989670	0.106747	0.216956
N78	N	1.489670	0.606747	0.716956
N79	N	0.989689	0.106747	-0.217034
N80	N	1.489689	0.606747	0.282966
C81	C	1.042451	0.053598	0.451964
C82	C	1.542451	0.553598	0.951964
C83	C	1.042453	0.053596	0.547945
C84	C	1.542453	0.553596	1.047945
C85	C	0.936902	0.159898	0.547951
C86	C	1.436902	0.659898	1.047951
C87	C	0.936896	0.159895	0.451972
C88	C	1.436896	0.659895	0.951972
C89	C	0.989675	0.106746	0.403981
C90	C	1.489675	0.606746	0.903981
C91	C	0.989683	0.106747	0.595942
C92	C	1.489683	0.606747	1.095942
C93	C	0.989686	0.106745	0.700009
C94	C	1.489686	0.606745	1.200009
C95	C	0.989672	0.106747	0.299907
C96	C	1.489672	0.606747	0.799907
H97	H	0.568451	0.108047	-0.150852
H98	H	1.068451	0.608047	0.349148
O99	O	1.108521	-0.383163	-0.000055
O100	O	1.608521	0.116837	0.499945
H101	H	1.115439	-0.346464	0.062097
H102	H	1.615439	0.153536	0.562097
O103	O	0.399425	0.105259	0.172720
O104	O	0.899425	0.605259	0.672720
H105	H	0.444191	0.106006	0.230518
H106	H	0.944191	0.606006	0.730518
H107	H	0.879224	-0.491050	-0.000059
H108	H	1.379224	0.008950	0.499941
O109	O	0.879975	0.217224	0.400207
O110	O	1.379975	0.717224	0.900207
H111	H	0.843285	0.254191	0.449702
H112	H	1.343285	0.754191	0.949702
H113	H	0.827693	-0.261565	-0.000050
H114	H	1.327693	0.238435	0.499950
H115	H	0.865956	-0.638989	-0.000039
H116	H	1.365956	-0.138989	0.499961
O117	O	1.134203	-0.139205	-0.000031
O118	O	1.634203	0.360795	0.499969
H119	H	1.127294	-0.074079	-0.000021
H120	H	1.627294	0.425921	0.499979
H121	H	0.840958	-0.113613	-0.000041
H122	H	1.340958	0.386387	0.499959
H123	H	0.568412	0.108049	0.150763
H124	H	1.068412	0.608049	0.650763
H125	H	1.138389	-0.672891	-0.000049
H126	H	1.638389	-0.172891	0.499951
O127	O	0.870830	-0.403353	-0.000029
O128	O	1.370830	0.096647	0.499971
H129	H	0.863910	-0.440062	-0.062173
H130	H	1.363910	0.059938	0.437827
O131	O	1.099363	-0.003732	0.400197
O132	O	1.599363	0.496268	0.900197
H133	H	1.136054	-0.040695	0.449692
H134	H	1.636054	0.459305	0.949692
H135	H	1.085426	0.010318	0.587011
H136	H	1.585426	0.510318	1.087011
H137	H	1.100122	-0.295452	-0.000040
H138	H	1.600122	0.204548	0.499960
O139	O	1.172468	-0.516624	-0.000066
O140	O	1.672468	-0.016624	0.499934
H141	H	1.220904	-0.565173	-0.000082
H142	H	1.720904	-0.065173	0.499918
H143	H	0.893932	0.203171	0.587035
H144	H	1.393932	0.703171	1.087035
H145	H	0.410933	0.105449	-0.150847
H146	H	0.910933	0.605449	0.349153
