data_functionalizedCrystal
_audit_creation_method	'MofGen! by Chris Wilmer'
_symmetry_space_group_name_H-M	'P1'
_symmetry_Int_Tables_number	1
_symmetry_cell_setting	triclinic
loop_
_symmetry_equiv_pos_as_xyz
  x,y,z
_cell_length_a	19.805407
_cell_length_b	15.296598
_cell_length_c	19.805399
_cell_angle_alpha	99.708991
_cell_angle_beta	89.982197
_cell_angle_gamma	80.299152
loop_
_atom_site_label
_atom_site_type_symbol
_atom_site_fract_x
_atom_site_fract_y
_atom_site_fract_z
Zn1	Zn	0.988068	0.359337	-0.335999
Zn2	Zn	0.968384	0.510241	-0.203203
Zn3	Zn	0.874880	0.359355	-0.222825
Zn4	Zn	0.855255	0.510186	-0.316361
O5	O	0.921646	0.434779	-0.269597
O6	O	1.080171	0.379370	-0.318390
O7	O	0.955956	0.490256	-0.111086
O8	O	0.906345	0.233075	-0.254267
O9	O	1.065710	0.490239	-0.220826
O10	O	0.989504	0.233062	-0.337416
O11	O	0.887259	0.379400	-0.125501
O12	O	0.777562	0.379347	-0.235225
O13	O	0.872897	0.490145	-0.413686
O14	O	0.763143	0.490162	-0.303946
O15	O	0.970474	0.379317	-0.428114
O16	O	0.936926	0.636511	-0.201784
O17	O	0.853810	0.636470	-0.284920
C18	C	0.745794	0.434751	-0.269584
C19	C	0.670561	0.434761	-0.269592
C20	C	0.642734	0.377134	-0.320446
C21	C	0.572045	0.377138	-0.320448
C22	C	0.529183	0.434776	-0.269598
C23	C	0.557015	0.492405	-0.218739
C24	C	0.627703	0.492395	-0.218735
C25	C	0.271936	0.492446	-0.218754
C26	C	0.201243	0.492453	-0.218764
C27	C	0.216278	0.377189	-0.320468
C28	C	0.286967	0.377179	-0.320464
C29	C	0.314792	0.434805	-0.269603
C30	C	0.391442	0.434798	-0.269600
C31	C	0.452535	0.434788	-0.269603
C32	C	0.891121	0.669233	-0.239107
C33	C	0.878124	0.769533	-0.226086
C34	C	0.828745	0.816741	-0.176635
C35	C	0.816536	0.910978	-0.164405
C36	C	0.853702	0.958016	-0.201627
C37	C	0.903079	0.910807	-0.251081
C38	C	0.915293	0.816561	-0.263310
C39	C	0.940250	0.957836	-0.288301
C40	C	0.989628	0.910628	-0.337756
C41	C	1.001839	0.816391	-0.349982
C42	C	0.964673	0.769353	-0.312760
C43	C	0.928037	1.052082	-0.276073
C44	C	1.014585	1.051903	-0.362747
C45	C	1.026794	0.957666	-0.374978
C46	C	1.098185	0.434808	-0.269610
C47	C	1.173416	0.434821	-0.269616
C48	C	0.921692	0.434723	-0.446147
C49	C	0.921711	0.434698	-0.521382
C50	C	0.952267	1.199411	-0.300227
C51	C	0.965206	1.099111	-0.313297
C52	C	0.972521	0.376987	-0.564240
C53	C	0.972531	0.376961	-0.634932
C54	C	0.921734	0.434651	-0.662764
C55	C	0.870919	0.492365	-0.619901
C56	C	0.870907	0.492386	-0.549211
C57	C	0.870968	0.492281	-0.904985
C58	C	0.870986	0.492257	-0.975680
C59	C	0.972593	0.376856	-0.990707
C60	C	0.972580	0.376877	-0.920017
C61	C	0.921764	0.434587	-0.877160
C62	C	0.921752	0.434613	-0.800508
C63	C	0.921748	0.434630	-0.739414
C64	C	0.921649	0.434771	-0.093742
C65	C	0.921794	0.434541	-0.018540
H66	H	0.166346	0.539391	-0.177353
Cl67	Cl	0.306910	0.564871	-0.154803
H68	H	1.013907	0.329969	-0.669825
Cl69	Cl	0.340846	0.304722	-0.384394
Cl70	Cl	0.503132	0.564859	-0.154810
H71	H	1.066998	0.919217	-0.415244
H72	H	1.044850	1.090200	-0.393055
H73	H	1.013947	0.329903	-0.897360
H74	H	0.974606	0.692618	-0.322720
H75	H	0.549392	0.330214	-0.361860
Cl76	Cl	1.036476	0.304302	-1.044589
H77	H	0.650358	0.539321	-0.177323
Cl78	Cl	0.807057	0.564887	-0.654889
Cl79	Cl	0.181293	0.304741	-0.384407
Cl80	Cl	1.063920	0.757045	-0.412147
H81	H	0.829526	0.539371	-0.514317
Cl82	Cl	0.807121	0.564787	-1.010667
Cl83	Cl	0.696611	0.304675	-0.384378
Cl84	Cl	0.807085	0.564831	-0.851117
H85	H	0.798492	0.778437	-0.146330
Cl86	Cl	1.036387	0.304463	-0.529259
H87	H	0.887833	1.090510	-0.235807
H88	H	0.843759	1.034748	-0.191666
H89	H	0.776334	0.949408	-0.124137
