data_functionalizedCrystal
_audit_creation_method	'MofGen! by Chris Wilmer'
_symmetry_space_group_name_H-M	'P1'
_symmetry_Int_Tables_number	1
_symmetry_cell_setting	triclinic
loop_
_symmetry_equiv_pos_as_xyz
  x,y,z
_cell_length_a	10.723023
_cell_length_b	12.811442
_cell_length_c	9.798715
_cell_angle_alpha	84.566557
_cell_angle_beta	89.996770
_cell_angle_gamma	84.256339
loop_
_atom_site_label
_atom_site_type_symbol
_atom_site_fract_x
_atom_site_fract_y
_atom_site_fract_z
O1	O	1.656460	0.147211	-0.131692
O2	O	1.293238	0.161303	-0.133441
O3	O	1.483981	0.001531	-0.113660
O4	O	1.465717	0.306983	-0.151473
O5	O	1.483966	0.001531	0.113322
O6	O	1.293224	0.161303	0.093541
O7	O	1.656446	0.147210	0.095290
Zn8	Zn	1.474832	0.154257	0.130454
Zn9	Zn	1.474851	0.154257	-0.168605
O10	O	1.465703	0.306982	0.075510
C11	C	1.246736	0.160278	-0.019824
C12	C	1.108197	0.157210	-0.019446
C13	C	1.046424	0.155842	0.098305
C14	C	0.903237	0.152671	0.098698
C15	C	1.482948	-0.037580	0.004669
C16	C	1.479876	-0.154119	0.019087
C17	C	1.475545	-0.318380	0.163134
C18	C	1.478426	-0.208880	0.149590
C19	C	1.478441	-0.208865	-0.097880
C20	C	1.475560	-0.318365	-0.084337
C21	C	1.474114	-0.373119	0.046175
C22	C	1.471242	-0.482621	0.059718
C23	C	1.471248	-0.482603	-0.187752
C24	C	1.474129	-0.373103	-0.201295
C25	C	1.702947	0.148236	-0.018330
C26	C	1.841487	0.151304	-0.018716
C27	C	1.466736	0.346094	-0.042823
C28	C	1.469807	0.462633	-0.057250
N29	N	1.474829	0.154256	0.334554
N30	N	1.474865	0.154250	-0.372704
C31	C	1.554918	0.086876	0.410673
C32	C	1.554938	0.086873	0.567836
H33	H	1.099545	0.157012	0.198827
H34	H	1.474376	-0.362962	0.269401
F35	F	0.833805	0.151141	0.230472
F36	F	0.910908	0.152849	-0.150497
F37	F	1.475693	-0.314822	-0.340187
F38	F	1.385216	0.229649	0.401449
F39	F	1.038773	0.155665	-0.150838
H40	H	1.479580	-0.164315	0.244830
H41	H	1.470067	-0.527200	0.165987
F42	F	1.644570	0.011475	0.653350
F43	F	1.480042	-0.150581	-0.236768
F44	F	1.469726	-0.540867	-0.312236
H45	H	1.406298	0.211943	0.561877
F46	F	1.644301	0.011290	0.343802
