data_functionalizedCrystal
_audit_creation_method	'MofGen! by Chris Wilmer'
_symmetry_space_group_name_H-M	'P1'
_symmetry_Int_Tables_number	1
_symmetry_cell_setting	triclinic
loop_
_symmetry_equiv_pos_as_xyz
  x,y,z
_cell_length_a	16.120490
_cell_length_b	18.050589
_cell_length_c	16.120297
_cell_angle_alpha	92.875657
_cell_angle_beta	90.129683
_cell_angle_gamma	87.120764
loop_
_atom_site_label
_atom_site_type_symbol
_atom_site_fract_x
_atom_site_fract_y
_atom_site_fract_z
Zn1	Zn	1.247411	-0.376308	-0.534557
Zn2	Zn	1.497411	-0.126308	-0.284557
Zn3	Zn	1.747411	0.123692	-0.034557
Zn4	Zn	1.997411	0.373692	0.215443
Zn5	Zn	1.254350	-0.494533	-0.395506
Zn6	Zn	1.504350	-0.244533	-0.145506
Zn7	Zn	1.754350	0.005467	0.104494
Zn8	Zn	2.004350	0.255467	0.354494
Zn9	Zn	1.115402	-0.363752	-0.388477
Zn10	Zn	1.365402	-0.113752	-0.138477
Zn11	Zn	1.615402	0.136248	0.111523
Zn12	Zn	1.865402	0.386248	0.361523
Zn13	Zn	1.108306	-0.493842	-0.527479
Zn14	Zn	1.358306	-0.243842	-0.277479
Zn15	Zn	1.608306	0.006158	-0.027479
Zn16	Zn	1.858306	0.256158	0.222521
O17	O	1.181367	-0.432109	-0.461505
O18	O	1.431367	-0.182109	-0.211505
O19	O	1.681367	0.067891	0.038495
O20	O	1.931367	0.317891	0.288495
O21	O	1.364698	-0.397535	-0.522015
O22	O	1.614698	-0.147535	-0.272015
O23	O	1.864698	0.102465	-0.022015
O24	O	2.114698	0.352465	0.227985
O25	O	1.241792	-0.472219	-0.278208
O26	O	1.491792	-0.222219	-0.028208
O27	O	1.741792	0.027781	0.221792
O28	O	1.991792	0.277781	0.471792
O29	O	1.132978	-0.261497	-0.407876
O30	O	1.382978	-0.011497	-0.157876
O31	O	1.632978	0.238503	0.092124
O32	O	1.882978	0.488503	0.342124
O33	O	1.369796	-0.484394	-0.419855
O34	O	1.619796	-0.234394	-0.169855
O35	O	1.869796	0.015606	0.080145
O36	O	2.119796	0.265606	0.330145
O37	O	1.229965	-0.270722	-0.515200
O38	O	1.479965	-0.020722	-0.265200
O39	O	1.729965	0.229278	-0.015200
O40	O	1.979965	0.479278	0.234800
O41	O	1.139707	-0.376135	-0.273044
O42	O	1.389707	-0.126135	-0.023044
O43	O	1.639707	0.123865	0.226956
O44	O	1.889707	0.373865	0.476956
O45	O	0.998094	-0.375465	-0.401013
O46	O	1.248094	-0.125465	-0.151013
O47	O	1.498094	0.124535	0.098987
O48	O	1.748094	0.374535	0.348987
O49	O	1.120885	-0.483217	-0.644784
O50	O	1.370885	-0.233217	-0.394784
O51	O	1.620885	0.016783	-0.144784
O52	O	1.870885	0.266783	0.105216
O53	O	0.992881	-0.471042	-0.503136
O54	O	1.242881	-0.221042	-0.253136
O55	O	1.492881	0.028958	-0.003136
O56	O	1.742881	0.278958	0.246864
O57	O	1.223085	-0.396865	-0.649984
O58	O	1.473085	-0.146865	-0.399984
O59	O	1.723085	0.103135	-0.149984
O60	O	1.973085	0.353135	0.100016
O61	O	1.234912	-0.598362	-0.412992
O62	O	1.484912	-0.348362	-0.162992
O63	O	1.734912	-0.098362	0.087008
O64	O	1.984912	0.151638	0.337008
O65	O	1.127614	-0.597855	-0.509952
O66	O	1.377614	-0.347855	-0.259952
O67	O	1.627614	-0.097855	-0.009952
O68	O	1.877614	0.152145	0.240048
C69	C	0.965315	-0.421817	-0.450544
C70	C	1.215315	-0.171817	-0.200544
C71	C	1.465315	0.078183	0.049456
C72	C	1.715315	0.328183	0.299456
C73	C	0.872886	-0.417432	-0.445875
C74	C	1.122886	-0.167432	-0.195875
C75	C	1.372886	0.082568	0.054125
C76	C	1.622886	0.332568	0.304125
C77	C	1.181268	-0.625056	-0.461486
C78	C	1.431268	-0.375056	-0.211486
C79	C	1.681268	-0.125056	0.038514
C80	C	1.931268	0.124944	0.288514
C81	C	1.181300	-0.707604	-0.461510
C82	C	1.431300	-0.457604	-0.211510
C83	C	1.681300	-0.207604	0.038490
C84	C	1.931300	0.042396	0.288490
C85	C	0.659921	-0.454846	-0.485727
C86	C	0.909921	-0.204846	-0.235727
C87	C	1.159921	0.045154	0.014273
C88	C	1.409921	0.295154	0.264273
C89	C	0.703662	-0.409434	-0.437349
C90	C	0.953662	-0.159434	-0.187349
C91	C	1.203662	0.090566	0.062651
C92	C	1.453662	0.340566	0.312651
C93	C	0.797827	-0.413886	-0.442094
C94	C	1.047827	-0.163886	-0.192094
C95	C	1.297827	0.086114	0.057906
C96	C	1.547827	0.336114	0.307906
C97	C	0.565747	-0.450396	-0.480982
C98	C	0.815747	-0.200396	-0.230982
C99	C	1.065747	0.049604	0.019018
C100	C	1.315747	0.299604	0.269018
C101	C	1.123007	-0.906807	-0.514220
C102	C	1.373007	-0.656807	-0.264220
C103	C	1.623007	-0.406807	-0.014220
C104	C	1.873007	-0.156807	0.235780
C105	C	1.106583	-0.952029	-0.437314
C106	C	1.356583	-0.702029	-0.187314
C107	C	1.606583	-0.452029	0.062686
C108	C	1.856583	-0.202029	0.312686
C109	C	1.181381	-0.858739	-0.461525
C110	C	1.431381	-0.608739	-0.211525
C111	C	1.681381	-0.358739	0.038475
C112	C	1.931381	-0.108739	0.288475
C113	C	1.197844	-0.960602	-0.538441
C114	C	1.447844	-0.710602	-0.288441
C115	C	1.697844	-0.460602	-0.038441
C116	C	1.947844	-0.210602	0.211559
C117	C	1.181457	-1.004728	-0.461546
C118	C	1.431457	-0.754728	-0.211546
C119	C	1.681457	-0.504728	0.038454
C120	C	1.931457	-0.254728	0.288454
C121	C	1.164920	-0.902869	-0.384577
C122	C	1.414920	-0.652869	-0.134577
C123	C	1.664920	-0.402869	0.115423
C124	C	1.914920	-0.152869	0.365423
C125	C	1.256213	-0.911442	-0.485756
C126	C	1.506213	-0.661442	-0.235756
C127	C	1.756213	-0.411442	0.014244
C128	C	2.006213	-0.161442	0.264244
C129	C	1.239822	-0.956640	-0.408800
C130	C	1.489822	-0.706640	-0.158800
C131	C	1.739822	-0.456640	0.091200
C132	C	1.989822	-0.206640	0.341200
C133	C	1.181335	-0.774638	-0.461513
C134	C	1.431335	-0.524638	-0.211513
C135	C	1.681335	-0.274638	0.038487
C136	C	1.931335	-0.024638	0.288487
C137	C	1.181504	-1.088827	-0.461548
C138	C	1.431504	-0.838827	-0.211548
C139	C	1.681504	-0.588827	0.038452
C140	C	1.931504	-0.338827	0.288452
C141	C	1.398263	-0.442442	-0.472509
C142	C	1.648263	-0.192442	-0.222509
C143	C	1.898263	0.057558	0.027491
C144	C	2.148263	0.307558	0.277491
C145	C	1.490691	-0.446846	-0.477198
C146	C	1.740691	-0.196846	-0.227198
C147	C	1.990691	0.053154	0.022802
C148	C	2.240691	0.303154	0.272802
C149	C	1.170419	-0.441364	-0.678400
C150	C	1.420419	-0.191364	-0.428400
C151	C	1.670419	0.058636	-0.178400
C152	C	1.920419	0.308636	0.071600
C153	C	1.165754	-0.445308	-0.770828
C154	C	1.415754	-0.195308	-0.520828
C155	C	1.665754	0.054692	-0.270828
C156	C	1.915754	0.304692	-0.020828
C157	C	1.181489	-0.238411	-0.461543
C158	C	1.431489	0.011589	-0.211543
C159	C	1.681489	0.261589	0.038457
C160	C	1.931489	0.511589	0.288457
C161	C	1.181541	-0.155868	-0.461560
C162	C	1.431541	0.094132	-0.211560
C163	C	1.681541	0.344132	0.038440
C164	C	1.931541	0.594132	0.288440
C165	C	1.157205	-0.452491	-0.940053
C166	C	1.407205	-0.202491	-0.690053
C167	C	1.657205	0.047509	-0.440053
C168	C	1.907205	0.297509	-0.190053
C169	C	1.205693	-0.411512	-0.983817
C170	C	1.455693	-0.161512	-0.733817
C171	C	1.705693	0.088488	-0.483817
C172	C	1.955693	0.338488	-0.233817
C173	C	1.200937	-0.415509	-1.077980
C174	C	1.450937	-0.165509	-0.827980
C175	C	1.700937	0.084491	-0.577980
C176	C	1.950937	0.334491	-0.327980
C177	C	1.161961	-0.448495	-0.845882
C178	C	1.411961	-0.198495	-0.595882
C179	C	1.661961	0.051505	-0.345882
C180	C	1.911961	0.301505	-0.095882
C181	C	1.192321	-0.422839	-0.245456
C182	C	1.442321	-0.172839	0.004544
C183	C	1.692321	0.077161	0.254544
C184	C	1.942321	0.327161	0.504544
C185	C	1.197147	-0.418693	-0.153037
C186	C	1.447147	-0.168693	0.096963
C187	C	1.697147	0.081307	0.346963
C188	C	1.947147	0.331307	0.596963
H189	H	0.670390	-0.367213	-0.392367
H190	H	0.920390	-0.117213	-0.142367
H191	H	1.170390	0.132787	0.107633
H192	H	1.420390	0.382787	0.357633
N193	N	0.703984	-0.510781	-0.545297
N194	N	0.953984	-0.260781	-0.295297
N195	N	1.203984	-0.010781	-0.045297
N196	N	1.453984	0.239219	0.204703
H197	H	0.685946	-0.501178	-0.603995
H198	H	0.935946	-0.251178	-0.353995
H199	H	1.185946	-0.001178	-0.103995
H200	H	1.435946	0.248822	0.146005
H201	H	0.765969	-0.506045	-0.540206
H202	H	1.015969	-0.256045	-0.290206
H203	H	1.265969	-0.006045	-0.040206
H204	H	1.515969	0.243955	0.209794
H205	H	1.250776	-0.373427	-0.950566
H206	H	1.500776	-0.123427	-0.700566
H207	H	1.750776	0.126573	-0.450566
H208	H	2.000776	0.376573	-0.200566
N209	N	1.097486	-0.502926	-0.984101
N210	N	1.347486	-0.252926	-0.734101
N211	N	1.597486	-0.002926	-0.484101
N212	N	1.847486	0.247074	-0.234101
H213	H	1.129475	-0.540445	-1.021861
H214	H	1.379475	-0.290445	-0.771861
H215	H	1.629475	-0.040445	-0.521861
H216	H	1.879475	0.209555	-0.271861
H217	H	1.065793	-0.529672	-0.941733
H218	H	1.315793	-0.279672	-0.691733
H219	H	1.565793	-0.029672	-0.441733
H220	H	1.815793	0.220328	-0.191733
H221	H	1.319445	-0.893452	-0.506269
H222	H	1.569445	-0.643452	-0.256269
H223	H	1.819445	-0.393452	-0.006269
H224	H	2.069445	-0.143452	0.243731
N225	N	1.057543	-0.877816	-0.573160
N226	N	1.307543	-0.627816	-0.323160
N227	N	1.557543	-0.377816	-0.073160
N228	N	1.807543	-0.127816	0.176840
H229	H	1.027510	-0.920781	-0.599516
H230	H	1.277510	-0.670781	-0.349516
H231	H	1.527510	-0.420781	-0.099516
H232	H	1.777510	-0.170781	0.150484
H233	H	1.016528	-0.843001	-0.541509
H234	H	1.266528	-0.593001	-0.291509
H235	H	1.516528	-0.343001	-0.041509
H236	H	1.766528	-0.093001	0.208491
N237	N	1.022799	-0.975831	-0.410170
N238	N	1.272799	-0.725831	-0.160170
N239	N	1.522799	-0.475831	0.089830
N240	N	1.772799	-0.225831	0.339830
H241	H	0.998235	-1.008356	-0.455749
H242	H	1.248235	-0.758356	-0.205749
H243	H	1.498235	-0.508356	0.044251
H244	H	1.748235	-0.258356	0.294251
H245	H	1.029524	-1.004559	-0.358201
H246	H	1.279524	-0.754559	-0.108201
H247	H	1.529524	-0.504559	0.141799
H248	H	1.779524	-0.254559	0.391799
N249	N	1.146421	-0.869586	-0.298394
N250	N	1.396421	-0.619586	-0.048394
N251	N	1.646421	-0.369586	0.201606
N252	N	1.896421	-0.119586	0.451606
H253	H	1.146482	-0.813661	-0.298923
H254	H	1.396482	-0.563661	-0.048923
H255	H	1.646482	-0.313661	0.201077
H256	H	1.896482	-0.063661	0.451077
H257	H	1.090128	-0.884724	-0.280034
H258	H	1.340128	-0.634724	-0.030034
H259	H	1.590128	-0.384724	0.219966
H260	H	1.840128	-0.134724	0.469966
H261	H	1.289223	-0.978374	-0.364192
H262	H	1.539223	-0.728374	-0.114192
H263	H	1.789223	-0.478374	0.135808
H264	H	2.039223	-0.228374	0.385808
H265	H	1.211739	-0.985821	-0.603479
H266	H	1.461739	-0.735821	-0.353479
H267	H	1.711739	-0.485821	-0.103479
H268	H	1.961739	-0.235821	0.146521
