data_functionalizedCrystal
_audit_creation_method	'MofGen! by Chris Wilmer'
_symmetry_space_group_name_H-M	'P1'
_symmetry_Int_Tables_number	1
_symmetry_cell_setting	triclinic
loop_
_symmetry_equiv_pos_as_xyz
  x,y,z
_cell_length_a	15.021413
_cell_length_b	17.699083
_cell_length_c	17.699083
_cell_angle_alpha	96.716985
_cell_angle_beta	90.009441
_cell_angle_gamma	90.001011
loop_
_atom_site_label
_atom_site_type_symbol
_atom_site_fract_x
_atom_site_fract_y
_atom_site_fract_z
O1	O	0.073909	-1.004076	0.095715
O2	O	0.073938	-0.783697	0.108168
O3	O	0.073915	-0.900113	-0.008248
O4	O	0.073932	-0.887660	0.212131
O5	O	-0.074149	-0.900103	-0.008260
O6	O	-0.074126	-0.783687	0.108156
O7	O	-0.074155	-1.004066	0.095703
Zn8	Zn	-0.097649	-0.893875	0.101928
Zn9	Zn	0.097432	-0.893888	0.101943
O10	O	-0.074132	-0.887650	0.212119
C11	C	-0.000090	-0.755495	0.107716
C12	C	-0.000079	-0.671477	0.106377
N13	N	-0.230786	-0.893871	0.101917
C14	C	-0.000117	-0.899662	-0.036451
C15	C	-0.000117	-0.898323	-0.120469
C16	C	-0.529789	-0.947300	0.047660
C17	C	-0.470419	-0.962477	0.115815
C18	C	-0.587823	-0.893889	0.101940
C19	C	-0.470451	-0.878739	0.033775
C20	C	-0.412399	-0.893882	0.101924
C21	C	-0.529760	-0.909101	0.170129
C22	C	-0.529798	-0.825332	0.088044
C23	C	-0.470455	-0.840480	0.156249
C24	C	-0.688881	-0.893895	0.101947
C25	C	-0.311344	-0.893876	0.101925
N26	N	0.230570	-0.893898	0.101949
C27	C	-0.000125	-1.032268	0.096156
C28	C	-0.000130	-1.116286	0.097494
C29	C	-0.000074	-0.622856	0.174710
C30	C	-0.000086	-0.543913	0.173448
C31	C	-0.000096	-0.513592	0.103852
C32	C	-0.000104	-0.562219	0.035513
C33	C	-0.000098	-0.641161	0.036776
C34	C	-0.000126	-0.243856	0.030418
C35	C	-0.000129	-0.164908	0.029160
C36	C	-0.000113	-0.146608	0.167090
C37	C	-0.000108	-0.225550	0.168353
C38	C	-0.000120	-0.274170	0.100015
C39	C	-0.000110	-0.359769	0.101384
C40	C	-0.000100	-0.427995	0.102481
C41	C	-0.000128	-0.966656	-0.169090
C42	C	-0.000120	-0.965394	-0.248033
C43	C	-0.000108	-0.895798	-0.278354
C44	C	-0.000095	-0.827459	-0.229727
C45	C	-0.000096	-0.828722	-0.150785
C46	C	-0.000087	-0.822364	-0.548090
C47	C	-0.000088	-0.821106	-0.627038
C48	C	-0.000110	-0.959036	-0.645338
C49	C	-0.000112	-0.960299	-0.566396
C50	C	-0.000094	-0.891961	-0.517776
C51	C	-0.000101	-0.893330	-0.432177
C52	C	-0.000107	-0.894427	-0.363951
C53	C	-0.000098	-0.888102	0.240322
C54	C	-0.000092	-0.889440	0.324340
H55	H	-0.555839	-0.992501	0.001815
H56	H	-0.444398	-0.865927	-0.023865
H57	H	-0.000079	-0.770792	-0.254420
H58	H	-0.000130	-1.021038	-0.287618
H59	H	-0.444336	-1.020452	0.127568
H60	H	-0.555703	-0.921975	0.227782
H61	H	-0.000080	-0.764429	-0.651721
H62	H	-0.000102	-0.680748	-0.018868
H63	H	-0.000143	-1.023330	-0.144409
H64	H	-0.000080	-0.504328	0.229092
H65	H	-0.000065	-0.647537	0.231384
H66	H	-0.000095	-0.250232	0.225025
H67	H	-0.555900	-0.767376	0.076270
H68	H	-0.000120	-1.014680	-0.684934
H69	H	-0.000072	-0.766718	-0.508512
H70	H	-0.000137	-0.283434	-0.025228
H71	H	-0.000126	-1.016971	-0.541714
H72	H	-0.000088	-0.773078	-0.111198
H73	H	-0.444568	-0.795307	0.202194
H74	H	-0.000108	-0.107012	0.222734
H75	H	-0.000138	-0.140225	-0.027517
H76	H	-0.000125	-0.537526	-0.021154
