data_functionalizedCrystal
_audit_creation_method	'MofGen! by Chris Wilmer'
_symmetry_space_group_name_H-M	'P1'
_symmetry_Int_Tables_number	1
_symmetry_cell_setting	triclinic
loop_
_symmetry_equiv_pos_as_xyz
  x,y,z
_cell_length_a	6.394989
_cell_length_b	10.654545
_cell_length_c	9.730223
_cell_angle_alpha	89.997167
_cell_angle_beta	89.998669
_cell_angle_gamma	85.490395
loop_
_atom_site_label
_atom_site_type_symbol
_atom_site_fract_x
_atom_site_fract_y
_atom_site_fract_z
O1	O	0.293396	1.670950	-0.114266
O2	O	0.321363	1.305767	-0.114271
O3	O	0.003391	1.493542	-0.114270
O4	O	0.611369	1.483175	-0.114267
O5	O	0.003382	1.493529	0.114310
O6	O	0.321355	1.305754	0.114309
O7	O	0.293388	1.670937	0.114314
Zn8	Zn	0.307370	1.488344	0.150603
Zn9	Zn	0.307381	1.488360	-0.150561
O10	O	0.611360	1.483162	0.114313
C11	C	0.319307	1.258941	0.000018
C12	C	0.313170	1.119432	0.000016
C13	C	0.310276	1.053890	0.124616
C14	C	0.304474	0.922809	0.124616
C15	C	0.304469	0.922823	-0.124595
C16	C	0.310256	1.053903	-0.124593
C17	C	0.689216	1.485218	0.000017
C18	C	0.925541	1.491483	0.000013
C19	C	0.295443	1.717763	0.000022
C20	C	0.301581	1.857272	0.000015
N21	N	0.307361	1.488342	0.356140
N22	N	0.307374	1.488372	-0.356097
C23	C	0.166622	1.571518	0.428066
C24	C	0.166623	1.571531	0.571949
C25	C	0.448119	1.405186	0.571967
C26	C	0.448106	1.405169	0.428086
H27	H	0.312607	1.107269	-0.226063
H28	H	0.052019	1.639259	0.630508
F29	F	0.313368	1.123628	0.257236
F30	F	0.301327	0.853074	-0.257205
H31	H	0.302118	0.869451	0.226077
F32	F	0.597909	1.316675	0.648546
H33	H	0.562713	1.337430	0.369520
F34	F	0.016822	1.660035	0.351501
