data_functionalizedCrystal
_audit_creation_method	'MofGen! by Chris Wilmer'
_symmetry_space_group_name_H-M	'P1'
_symmetry_Int_Tables_number	1
_symmetry_cell_setting	triclinic
loop_
_symmetry_equiv_pos_as_xyz
  x,y,z
_cell_length_a	8.559649
_cell_length_b	23.532407
_cell_length_c	7.681481
_cell_angle_alpha	95.711884
_cell_angle_beta	94.913240
_cell_angle_gamma	103.686333
loop_
_atom_site_label
_atom_site_type_symbol
_atom_site_fract_x
_atom_site_fract_y
_atom_site_fract_z
O1	O	2.105234	0.013278	-0.146396
O2	O	1.639561	-0.016155	-0.146415
O3	O	1.886444	0.082081	-0.146367
O4	O	1.858351	-0.084957	-0.146444
O5	O	1.916832	0.094196	0.146497
O6	O	1.669949	-0.004039	0.146448
O7	O	2.135622	0.025394	0.146468
Zn8	Zn	1.907610	0.012601	0.192957
Zn9	Zn	1.867573	-0.003362	-0.192904
O10	O	1.888739	-0.072842	0.146419
C11	C	1.595189	-0.012327	0.000015
C12	C	1.417703	-0.018967	0.000009
C13	C	1.900923	0.109325	0.000071
C14	C	1.898775	0.172453	0.000089
C15	C	2.031379	0.577087	0.000027
C16	C	2.029381	0.636403	0.000018
O17	O	2.152306	0.678274	-0.000039
N18	N	1.882612	0.652906	0.000015
C19	C	1.737830	0.610087	0.000003
O20	O	1.612808	0.629570	-0.000002
C21	C	1.739829	0.550771	-0.000000
C22	C	1.886609	0.534273	0.000021
C23	C	2.178148	0.560587	0.000046
C24	C	2.180146	0.501275	0.000058
C25	C	2.035375	0.458462	0.000052
C26	C	1.888607	0.474961	0.000033
C27	C	1.595047	0.507953	-0.000025
C28	C	1.597058	0.448635	-0.000030
C29	C	1.743839	0.432137	-0.000009
C30	C	1.745835	0.372835	0.000039
N31	N	1.892604	0.356333	0.000042
C32	C	2.037374	0.399146	0.000048
C33	C	1.733643	0.734655	0.000007
C34	C	1.731644	0.793970	0.000023
C35	C	2.023195	0.820282	0.000035
C36	C	2.025194	0.760966	0.000031
C37	C	1.880412	0.718152	0.000010
C38	C	2.041559	0.274585	0.000076
C39	C	2.043545	0.215266	0.000096
C40	C	1.751994	0.188959	0.000075
C41	C	1.750008	0.248273	0.000065
C42	C	1.894803	0.291085	0.000059
O43	O	1.622973	0.330932	0.000089
O44	O	2.162373	0.379653	0.000030
C45	C	2.179993	0.021566	0.000034
C46	C	2.357478	0.028205	0.000028
C47	C	1.874261	0.899915	-0.000004
C48	C	1.876414	0.836788	0.000021
N49	N	1.934946	0.023496	0.456296
N50	N	1.840250	-0.014252	-0.456244
H51	H	1.441698	0.073670	0.000041
Br52	Br	2.379353	0.478893	0.000037
Br53	Br	1.555530	0.130845	0.000067
Br54	Br	1.277325	-0.094753	-0.000051
Br55	Br	2.096097	0.087712	0.581664
H56	H	1.615738	0.699798	0.000005
Br57	Br	2.242761	0.192881	0.000126
Br58	Br	2.238069	0.332678	0.000067
Br59	Br	2.374649	0.618682	0.000053
H60	H	2.144715	0.747539	0.000047
H61	H	2.141074	0.855152	0.000033
H62	H	1.475522	0.521374	-0.000052
H63	H	1.612124	0.807398	0.000037
Br64	Br	1.400556	0.390532	-0.000066
Br65	Br	1.679132	-0.078473	0.418395
H66	H	1.630492	0.261708	0.000096
