data_functionalizedCrystal
_audit_creation_method	'MofGen! by Chris Wilmer'
_symmetry_space_group_name_H-M	'P1'
_symmetry_Int_Tables_number	1
_symmetry_cell_setting	triclinic
loop_
_symmetry_equiv_pos_as_xyz
  x,y,z
_cell_length_a	10.540510
_cell_length_b	27.732048
_cell_length_c	9.016244
_cell_angle_alpha	89.989095
_cell_angle_beta	89.996739
_cell_angle_gamma	83.577983
loop_
_atom_site_label
_atom_site_type_symbol
_atom_site_fract_x
_atom_site_fract_y
_atom_site_fract_z
O1	O	1.682951	0.068046	-0.123368
O2	O	1.313254	0.074479	-0.123370
O3	O	1.509585	0.000938	-0.123341
O4	O	1.486621	0.141588	-0.123397
O5	O	1.509574	0.000934	0.123340
O6	O	1.313243	0.074475	0.123311
O7	O	1.682941	0.068042	0.123313
Cu8	Cu	1.498091	0.071258	0.145836
Cu9	Cu	1.498104	0.071263	-0.145893
O10	O	1.486610	0.141583	0.123284
C11	C	1.265966	0.073998	-0.000030
C12	C	1.125078	0.072563	-0.000030
C13	C	0.905404	0.123652	-0.000617
C14	C	1.051933	0.125182	-0.000053
C15	C	1.081482	0.045625	0.140845
C16	C	0.934771	0.044468	0.140954
C17	C	0.935025	0.043377	-0.139568
C18	C	1.081258	0.045873	-0.141421
C19	C	1.509097	-0.017074	0.000004
C20	C	1.507646	-0.070738	0.000016
C21	C	1.614526	-0.408885	-0.000059
C22	C	1.609141	-0.610578	-0.000080
O23	O	1.706875	-0.641222	-0.000144
N24	N	1.492725	-0.630430	-0.000079
C25	C	1.377647	-0.599855	-0.000083
O26	O	1.278505	-0.621369	-0.000099
C27	C	1.383034	-0.398163	-0.000073
C28	C	1.499457	-0.378314	-0.000059
C29	C	1.730940	-0.389035	-0.000046
C30	C	1.732285	-0.338615	-0.000033
C31	C	1.617216	-0.308044	-0.000033
C32	C	1.500802	-0.327893	-0.000046
C33	C	1.267958	-0.367589	-0.000088
C34	C	1.269315	-0.317163	-0.000089
C35	C	1.385738	-0.297314	-0.000075
C36	C	1.387079	-0.246902	-0.000032
N37	N	1.503495	-0.227050	-0.000032
C38	C	1.618564	-0.257621	-0.000033
C39	C	1.374827	-0.705747	-0.000086
C40	C	1.373480	-0.756170	-0.000086
C41	C	1.604974	-0.766889	-0.000085
C42	C	1.606320	-0.716465	-0.000075
C43	C	1.491243	-0.685895	-0.000086
C44	C	1.621380	-0.151734	-0.000004
C45	C	1.622715	-0.101309	0.000016
C46	C	1.391221	-0.090594	0.000007
C47	C	1.389885	-0.141015	-0.000004
C48	C	1.504975	-0.171584	-0.000015
O49	O	1.289397	-0.216229	0.000016
O50	O	1.717692	-0.236098	-0.000051
C51	C	1.613181	-0.459305	-0.000073
C52	C	1.496767	-0.479155	-0.000085
C53	C	1.381698	-0.448584	-0.000085
C54	C	1.495420	-0.529577	-0.000085
C55	C	1.610489	-0.560148	-0.000086
C56	C	1.726905	-0.540296	-0.000086
C57	C	1.728250	-0.489876	-0.000073
C58	C	1.265282	-0.468436	-0.000084
C59	C	1.263947	-0.518857	-0.000096
C60	C	1.379015	-0.549427	-0.000096
C61	C	1.730229	0.068524	-0.000031
C62	C	1.871116	0.069958	-0.000041
C63	C	1.487097	0.159595	-0.000064
C64	C	1.488549	0.213259	-0.000086
N65	N	1.498091	0.071254	0.351022
N66	N	1.498113	0.071263	-0.351079
C67	C	1.603172	0.031919	0.413962
C68	C	1.603553	0.032028	0.585853
C69	C	1.525495	0.121853	0.586471
C70	C	1.526236	0.121618	0.414526
C71	C	1.365308	0.060454	0.414415
C72	C	1.366235	0.059316	0.586371
H73	H	1.080369	0.146256	-0.101041
H74	H	1.623027	0.131037	0.374407
N75	N	1.329959	0.012581	0.357028
H76	H	1.319433	-0.009898	0.443219
H77	H	1.247128	0.018194	0.300052
H78	H	1.295084	-0.157177	0.000025
N79	N	1.855061	-0.422004	-0.000045
H80	H	1.929001	-0.401770	-0.000036
H81	H	1.859543	-0.443161	0.091407
H82	H	1.702125	0.038998	0.626974
H83	H	1.171577	-0.443549	-0.000087
N84	N	1.338651	0.010017	0.640436
H85	H	1.411267	-0.004522	0.705180
H86	H	1.256809	0.013504	0.699666
N87	N	1.247907	-0.777574	-0.000097
H88	H	1.264501	-0.814156	-0.000098
H89	H	1.197593	-0.766423	0.091348
H90	H	1.452324	0.151729	0.372886
N91	N	1.146487	-0.005685	0.147834
H92	H	1.123934	-0.024056	0.056595
H93	H	1.242013	-0.005021	0.152385
H94	H	1.079412	0.146381	0.101085
H95	H	1.297535	-0.065694	0.000013
N96	N	1.257958	0.094747	0.643209
H97	H	1.174540	0.086169	0.601191
H98	H	1.255205	0.093095	0.755048
N99	N	1.426737	0.161602	0.640566
H100	H	1.363146	0.147163	0.706235
H101	H	1.470206	0.186167	0.698834
H102	H	0.914587	0.003871	-0.140504
H103	H	1.823054	-0.473720	-0.000062
H104	H	1.173153	-0.383741	-0.000109
H105	H	1.820598	-0.565196	-0.000080
H106	H	1.715097	-0.176618	-0.000018
N107	N	1.261736	0.098434	0.360501
H108	H	1.280539	0.131522	0.395232
H109	H	1.258681	0.097879	0.248562
H110	H	0.893751	0.062874	0.246244
H111	H	1.587393	-0.005790	0.372612
N112	N	1.148452	-0.005014	-0.152676
H113	H	1.198611	-0.008550	-0.248250
H114	H	1.208451	-0.011483	-0.065821
H115	H	1.827089	-0.322459	-0.000028
N116	N	0.848662	0.150814	-0.134436
H117	H	0.800174	0.128579	-0.195988
H118	H	0.788580	0.179656	-0.100719
H119	H	1.621175	0.131488	0.629520
N120	N	1.582315	-0.017761	0.641802
H121	H	1.572614	-0.039977	0.554769
H122	H	1.657827	-0.031260	0.703857
N123	N	0.906582	-0.007662	0.149483
H124	H	0.855212	-0.012462	0.241823
H125	H	0.856271	-0.015631	0.059132
H126	H	0.861008	0.144032	0.099823
H127	H	1.701122	-0.700308	-0.000064
N128	N	1.121245	0.070411	0.279688
H129	H	1.043046	0.082006	0.340087
H130	H	1.179863	0.046735	0.340235
N131	N	0.877860	0.065405	-0.281012
H132	H	0.809945	0.092840	-0.256072
H133	H	0.946974	0.078279	-0.342141
H134	H	1.109029	0.065473	-0.245639
N135	N	1.748294	-0.079904	0.000037
H136	H	1.798665	-0.091015	-0.091409
H137	H	1.731591	-0.043326	0.000107
N138	N	1.729084	-0.799868	-0.000104
H139	H	1.803048	-0.779646	-0.000110
H140	H	1.733566	-0.821030	0.091341
N141	N	1.250701	-0.672778	-0.000095
H142	H	1.176758	-0.693010	-0.000091
H143	H	1.246208	-0.651629	0.091353
H144	H	1.169134	-0.535012	-0.000095
N145	N	1.145193	-0.284191	-0.000109
H146	H	1.071244	-0.304420	-0.000119
H147	H	1.140695	-0.263044	0.091342
H148	H	1.701184	0.038786	0.370720
