data_functionalizedCrystal
_audit_creation_method	'MofGen! by Chris Wilmer'
_symmetry_space_group_name_H-M	'P1'
_symmetry_Int_Tables_number	1
_symmetry_cell_setting	triclinic
loop_
_symmetry_equiv_pos_as_xyz
  x,y,z
_cell_length_a	11.169417
_cell_length_b	11.169416
_cell_length_c	12.759393
_cell_angle_alpha	89.971356
_cell_angle_beta	89.981660
_cell_angle_gamma	90.011219
loop_
_atom_site_label
_atom_site_type_symbol
_atom_site_fract_x
_atom_site_fract_y
_atom_site_fract_z
Zn1	Zn	1.834945	-0.477708	-0.593998
Zn2	Zn	2.334945	0.022292	-0.093998
Zn3	Zn	1.834839	-0.678441	-0.418327
Zn4	Zn	2.334839	-0.178441	0.081673
Zn5	Zn	1.634236	-0.477774	-0.418338
Zn6	Zn	2.134236	0.022226	0.081662
Zn7	Zn	1.634238	-0.678351	-0.593969
Zn8	Zn	2.134238	-0.178351	-0.093969
O9	O	1.734564	-0.578068	-0.506158
O10	O	2.234564	-0.078068	-0.006158
O11	O	2.002880	-0.504346	-0.570703
O12	O	2.502880	-0.004346	-0.070703
O13	O	1.808184	-0.651887	-0.271308
O14	O	2.308184	-0.151887	0.228692
O15	O	1.660903	-0.309815	-0.441657
O16	O	2.160903	0.190185	0.058343
O17	O	2.002803	-0.651824	-0.441638
O18	O	2.502803	-0.151824	0.058362
O19	O	1.808363	-0.309767	-0.570713
O20	O	2.308363	0.190233	-0.070713
O21	O	1.660801	-0.504457	-0.271316
O22	O	2.160801	-0.004457	0.228684
O23	O	1.466286	-0.504370	-0.441628
O24	O	1.966286	-0.004370	0.058372
O25	O	1.660907	-0.651670	-0.740994
O26	O	2.160907	-0.151670	-0.240994
O27	O	1.466288	-0.651734	-0.570664
O28	O	1.966288	-0.151734	-0.070664
O29	O	1.808366	-0.504259	-0.741016
O30	O	2.308366	-0.004259	-0.241016
O31	O	1.808186	-0.846379	-0.441610
O32	O	2.308186	-0.346379	0.058390
O33	O	1.660805	-0.846313	-0.570653
O34	O	2.160805	-0.346313	-0.070653
C35	C	1.734517	-0.889893	-0.506150
C36	C	2.234517	-0.389893	-0.006150
C37	C	1.734606	-1.023293	-0.506182
C38	C	2.234606	-0.523293	-0.006182
C39	C	1.422740	-0.578050	-0.506145
C40	C	1.922740	-0.078050	-0.006145
C41	C	1.289340	-0.578071	-0.506164
C42	C	1.789340	-0.078071	-0.006164
C43	C	2.047607	-0.578088	-0.506172
C44	C	2.547607	-0.078088	-0.006172
C45	C	2.181007	-0.578096	-0.506179
C46	C	2.681007	-0.078096	-0.006179
C47	C	1.734649	-0.577947	-0.780192
C48	C	2.234649	-0.077947	-0.280192
C49	C	1.734684	-0.577896	-0.896968
C50	C	2.234684	-0.077896	-0.396968
C51	C	1.734645	-0.265026	-0.506189
C52	C	2.234645	0.234974	-0.006189
C53	C	1.734679	-0.131626	-0.506203
C54	C	2.234679	0.368374	-0.006203
C55	C	1.811476	-0.501131	-0.951843
C56	C	2.311476	-0.001131	-0.451843
C57	C	1.811505	-0.501088	-1.061567
C58	C	2.311505	-0.001088	-0.561567
C59	C	1.657946	-0.654584	-1.061532
C60	C	2.157946	-0.154584	-0.561532
C61	C	1.657912	-0.654620	-0.951810
C62	C	2.157912	-0.154620	-0.451810
C63	C	1.900136	-0.412515	-0.951865
C64	C	2.400136	0.087485	-0.451865
C65	C	1.900165	-0.412472	-1.061589
C66	C	2.400165	0.087528	-0.561589
C67	C	1.734550	-0.578102	-0.233191
C68	C	2.234550	-0.078102	0.266809
C69	C	1.734747	-0.577816	-0.116415
C70	C	2.234747	-0.077816	0.383585
H71	H	1.595376	-0.717125	-0.907135
H72	H	2.095376	-0.217125	-0.407135
H73	H	1.875262	-0.319569	-0.922104
H74	H	2.375262	0.180431	-0.422104
H75	H	1.866900	-0.324158	-1.095633
H76	H	2.366900	0.175842	-0.595633
H77	H	1.988410	-0.445835	-0.917830
H78	H	2.488410	0.054165	-0.417830
H79	H	1.993121	-0.437365	-1.091368
H80	H	2.493121	0.062635	-0.591368
H81	H	1.595438	-0.717047	-1.106198
H82	H	2.095438	-0.217047	-0.606198
