data_functionalizedCrystal
_audit_creation_method	'MofGen! by Chris Wilmer'
_symmetry_space_group_name_H-M	'P1'
_symmetry_Int_Tables_number	1
_symmetry_cell_setting	triclinic
loop_
_symmetry_equiv_pos_as_xyz
  x,y,z
_cell_length_a	21.295420
_cell_length_b	21.295417
_cell_length_c	12.645324
_cell_angle_alpha	89.959112
_cell_angle_beta	89.977076
_cell_angle_gamma	90.028757
loop_
_atom_site_label
_atom_site_type_symbol
_atom_site_fract_x
_atom_site_fract_y
_atom_site_fract_z
Zn1	Zn	0.962344	-0.250591	-0.599378
Zn2	Zn	1.462344	0.249409	-0.099378
Zn3	Zn	0.962250	-0.355878	-0.422090
Zn4	Zn	1.462250	0.144122	0.077910
Zn5	Zn	0.857071	-0.250623	-0.422122
Zn6	Zn	1.357071	0.249377	0.077878
Zn7	Zn	0.857037	-0.355823	-0.599305
Zn8	Zn	1.357037	0.144177	-0.099305
O9	O	0.909676	-0.303229	-0.510724
O10	O	1.409676	0.196771	-0.010724
O11	O	1.050421	-0.264567	-0.575877
O12	O	1.550421	0.235433	-0.075877
O13	O	0.948272	-0.341952	-0.273747
O14	O	1.448272	0.158048	0.226253
O15	O	0.871089	-0.162530	-0.445680
O16	O	1.371089	0.337470	0.054320
O17	O	1.050352	-0.341921	-0.445624
O18	O	1.550352	0.158079	0.054376
O19	O	0.948433	-0.162506	-0.575909
O20	O	1.448433	0.337494	-0.075909
O21	O	0.870998	-0.264622	-0.273771
O22	O	1.370998	0.235378	0.226229
O23	O	0.768977	-0.264569	-0.445609
O24	O	1.268977	0.235431	0.054391
O25	O	0.871032	-0.341827	-0.747662
O26	O	1.371032	0.158173	-0.247662
O27	O	0.768952	-0.341858	-0.575785
O28	O	1.268952	0.158142	-0.075785
O29	O	0.948400	-0.264513	-0.747716
O30	O	1.448400	0.235487	-0.247716
O31	O	0.948240	-0.443960	-0.445554
O32	O	1.448240	0.056040	0.054446
O33	O	0.870940	-0.443920	-0.575753
O34	O	1.370940	0.056080	-0.075753
C35	C	0.746124	-0.303212	-0.510693
C36	C	1.246124	0.196788	-0.010693
C37	C	0.676156	-0.303220	-0.510706
C38	C	1.176156	0.196780	-0.010706
C39	C	0.176701	-0.343548	-0.578440
C40	C	0.676701	0.156452	-0.078440
C41	C	0.242444	-0.343548	-0.578429
C42	C	0.742444	0.156452	-0.078429
C43	C	0.275316	-0.303243	-0.510757
C44	C	0.775316	0.196757	-0.010757
C45	C	0.242441	-0.262946	-0.443072
C46	C	0.742441	0.237054	0.056928
C47	C	0.176700	-0.262952	-0.443077
C48	C	0.676700	0.237048	0.056923
N49	N	0.378557	-0.248127	-0.502787
N50	N	0.878557	0.251873	-0.002787
N51	N	0.441009	-0.248124	-0.502788
N52	N	0.941009	0.251876	-0.002788
C53	C	0.473391	-0.303225	-0.510735
C54	C	0.973391	0.196775	-0.010735
N55	N	0.440963	-0.358331	-0.518701
N56	N	0.940963	0.141669	-0.018701
N57	N	0.378506	-0.358334	-0.518706
N58	N	0.878506	0.141666	-0.018706
C59	C	0.346602	-0.303233	-0.510743
C60	C	0.846602	0.196767	-0.010743
C61	C	0.577544	-0.343523	-0.578398
C62	C	1.077544	0.156477	-0.078398
C63	C	0.643288	-0.343524	-0.578380
C64	C	1.143288	0.156476	-0.078380
C65	C	0.643284	-0.262917	-0.443028
C66	C	1.143284	0.237083	0.056972
C67	C	0.577541	-0.262921	-0.443041
C68	C	1.077541	0.237079	0.056959
C69	C	0.544675	-0.303223	-0.510732
C70	C	1.044675	0.196777	-0.010732
C71	C	0.909593	-0.466780	-0.510665
C72	C	1.409593	0.033220	-0.010665
C73	C	0.909615	-0.536748	-0.510676
C74	C	1.409615	-0.036748	-0.010676
C75	C	0.949901	-0.569615	-0.442950
C76	C	1.449901	-0.069615	0.057050
C77	C	0.949930	-0.635358	-0.442974
C78	C	1.449930	-0.135358	0.057026
C79	C	0.909663	-0.668231	-0.510712
C80	C	1.409663	-0.168231	-0.010712
C81	C	0.869375	-0.635356	-0.578451
C82	C	1.369375	-0.135356	-0.078451
C83	C	0.869351	-0.569615	-0.578432
C84	C	1.369351	-0.069615	-0.078432
N85	N	0.854596	-0.771494	-0.518783
N86	N	1.354596	-0.271494	-0.018783
N87	N	0.854620	-0.833946	-0.518795
N88	N	1.354620	-0.333946	-0.018795
C89	C	0.909734	-0.866306	-0.510773
C90	C	1.409734	-0.366306	-0.010773
N91	N	0.964823	-0.833855	-0.502719
N92	N	1.464823	-0.333855	-0.002719
N93	N	0.964797	-0.771398	-0.502702
N94	N	1.464797	-0.271398	-0.002702
C95	C	0.909685	-0.739516	-0.510740
C96	C	1.409685	-0.239516	-0.010740
C97	C	0.950055	-0.970458	-0.443070
C98	C	1.450055	-0.470458	0.056930
C99	C	0.950085	-1.036202	-0.443101
C100	C	1.450085	-0.536202	0.056899
C101	C	0.869524	-1.036199	-0.578572
C102	C	1.369524	-0.536199	-0.078572
C103	C	0.869499	-0.970456	-0.578546
C104	C	1.369499	-0.470456	-0.078546
C105	C	0.909763	-0.937590	-0.510790
C106	C	1.409763	-0.437590	-0.010790
C107	C	1.073866	-0.303246	-0.510755
C108	C	1.573866	0.196754	-0.010755
C109	C	1.143834	-0.303254	-0.510768
C110	C	1.643834	0.196746	-0.010768
C111	C	0.909723	-0.303160	-0.787229
C112	C	1.409723	0.196840	-0.287229
C113	C	0.909743	-0.303131	-0.905059
C114	C	1.409743	0.196869	-0.405059
C115	C	0.909776	-0.139038	-0.510806
C116	C	1.409776	0.360962	-0.010806
C117	C	0.909818	-0.069070	-0.510841
C118	C	1.409818	0.430930	-0.010841
C119	C	0.958605	-0.254634	-1.072657
C120	C	1.458605	0.245366	-0.572657
C121	C	0.958449	-0.254459	-0.950097
C122	C	1.458449	0.245541	-0.450097
C123	C	0.843430	-0.285102	-0.949542
C124	C	1.343430	0.214898	-0.449542
C125	C	0.843726	-0.284734	-1.072141
C126	C	1.343726	0.215266	-0.572141
C127	C	0.926656	-0.369728	-1.072240
C128	C	1.426656	0.130272	-0.572240
C129	C	0.928107	-0.369393	-0.949634
C130	C	1.428107	0.130607	-0.449634
C131	C	0.909665	-0.303251	-0.235294
C132	C	1.409665	0.196749	0.264706
C133	C	0.909767	-0.303103	-0.117465
C134	C	1.409767	0.196897	0.382535
H135	H	0.149939	-0.230138	-0.387970
H136	H	0.649939	0.269862	0.112030
F137	F	0.794541	-0.328862	-1.110884
F138	F	1.294541	0.171138	-0.610884
F139	F	1.023092	-0.269203	-1.111206
F140	F	1.523092	0.230797	-0.611206
F141	F	0.992809	-0.670344	-0.370887
F142	F	1.492809	-0.170344	0.129113
F143	F	0.992761	-0.534640	-0.370849
F144	F	1.492761	-0.034640	0.129151
H145	H	0.836590	-0.662126	-0.633605
H146	H	1.336590	-0.162126	-0.133605
F147	F	0.277427	-0.220053	-0.371047
F148	F	0.777427	0.279947	0.128953
F149	F	0.141727	-0.386444	-0.650479
F150	F	0.641727	0.113556	-0.150479
H151	H	0.670048	-0.230102	-0.387924
H152	H	1.170048	0.269898	0.112076
F153	F	0.277431	-0.386435	-0.650459
F154	F	0.777431	0.113565	-0.150459
F155	F	0.542564	-0.386417	-0.650436
F156	F	1.042564	0.113583	-0.150436
H157	H	0.670048	-0.376340	-0.633484
H158	H	1.170048	0.123660	-0.133484
H159	H	0.806051	-0.319320	-0.920367
H160	H	1.306051	0.180680	-0.420367
H161	H	0.550780	-0.230108	-0.387938
H162	H	1.050780	0.269892	0.112062
F163	F	0.826471	-0.534635	-0.650518
F164	F	1.326471	-0.034635	-0.150518
F165	F	0.992907	-0.935477	-0.370957
F166	F	1.492907	-0.435477	0.129043
H167	H	0.982895	-1.062961	-0.387953
H168	H	1.482895	-0.562961	0.112047
H169	H	0.836740	-1.062963	-0.633731
H170	H	1.336740	-0.562963	-0.133731
H171	H	0.976908	-0.382988	-0.920559
H172	H	1.476908	0.117012	-0.420559
F173	F	0.826618	-0.935476	-0.650626
F174	F	1.326618	-0.435476	-0.150626
H175	H	1.007622	-0.265750	-0.920023
H176	H	1.507622	0.234250	-0.420023
H177	H	0.947567	-0.205553	-1.103494
H178	H	1.447567	0.294447	-0.603494
H179	H	0.947267	-0.205105	-0.920797
H180	H	1.447267	0.294895	-0.420797
F181	F	0.824988	-0.221085	-1.109556
F182	F	1.324988	0.278915	-0.609556
H183	H	0.828849	-0.236944	-0.918860
H184	H	1.328849	0.263056	-0.418860
H185	H	0.974166	-0.386141	-1.103221
H186	H	1.474166	0.113859	-0.603221
F187	F	0.884987	-0.419137	-0.909565
F188	F	1.384987	0.080863	-0.409565
H189	H	0.891087	-0.405843	-1.101223
H190	H	1.391087	0.094157	-0.601223
