data_functionalizedCrystal
_audit_creation_method	'MofGen! by Chris Wilmer'
_symmetry_space_group_name_H-M	'P1'
_symmetry_Int_Tables_number	1
_symmetry_cell_setting	triclinic
loop_
_symmetry_equiv_pos_as_xyz
  x,y,z
_cell_length_a	16.120530
_cell_length_b	18.050589
_cell_length_c	18.050571
_cell_angle_alpha	89.916021
_cell_angle_beta	87.037076
_cell_angle_gamma	87.123928
loop_
_atom_site_label
_atom_site_type_symbol
_atom_site_fract_x
_atom_site_fract_y
_atom_site_fract_z
Zn1	Zn	1.274919	-0.352830	-0.477457
Zn2	Zn	1.608252	-0.019496	-0.144124
Zn3	Zn	1.941585	0.313837	0.189209
Zn4	Zn	1.274701	-0.477146	-0.353267
Zn5	Zn	1.608035	-0.143812	-0.019933
Zn6	Zn	1.941368	0.189521	0.313400
Zn7	Zn	1.135392	-0.346679	-0.346986
Zn8	Zn	1.468725	-0.013346	-0.013653
Zn9	Zn	1.802058	0.319987	0.319681
Zn10	Zn	1.135450	-0.470681	-0.471133
Zn11	Zn	1.468783	-0.137347	-0.137799
Zn12	Zn	1.802117	0.195986	0.195534
O13	O	1.205115	-0.411834	-0.412211
O14	O	1.538449	-0.078501	-0.078877
O15	O	1.871782	0.254833	0.254456
O16	O	1.391560	-0.374600	-0.466259
O17	O	1.724893	-0.041267	-0.132925
O18	O	2.058226	0.292067	0.200408
O19	O	1.256106	-0.459971	-0.248504
O20	O	1.589440	-0.126638	0.084830
O21	O	1.922773	0.206696	0.418163
O22	O	1.153967	-0.243574	-0.364312
O23	O	1.487300	0.089760	-0.030978
O24	O	1.820633	0.423093	0.302355
O25	O	1.391400	-0.465934	-0.375016
O26	O	1.724733	-0.132601	-0.041683
O27	O	2.058067	0.200732	0.291650
O28	O	1.256477	-0.248092	-0.460168
O29	O	1.589810	0.085241	-0.126835
O30	O	1.923143	0.418575	0.206498
O31	O	1.153756	-0.364118	-0.243889
O32	O	1.487089	-0.030785	0.089444
O33	O	1.820423	0.302549	0.422778
O34	O	1.018730	-0.357849	-0.358179
O35	O	1.352063	-0.024516	-0.024846
O36	O	1.685396	0.308818	0.308488
O37	O	1.154066	-0.454916	-0.575902
O38	O	1.487400	-0.121582	-0.242569
O39	O	1.820733	0.211751	0.090765
O40	O	1.018773	-0.448952	-0.449389
O41	O	1.352106	-0.115619	-0.116056
O42	O	1.685439	0.217715	0.217278
O43	O	1.256533	-0.368331	-0.580548
O44	O	1.589867	-0.034998	-0.247215
O45	O	1.923200	0.298336	0.086118
O46	O	1.256163	-0.580210	-0.368884
O47	O	1.589496	-0.246876	-0.035550
O48	O	1.922830	0.086457	0.297783
O49	O	1.153856	-0.575460	-0.455479
O50	O	1.487189	-0.242127	-0.122146
O51	O	1.820522	0.091207	0.211187
C52	C	0.988500	-0.402032	-0.402417
C53	C	1.321833	-0.068699	-0.069083
C54	C	1.655167	0.264634	0.264250
C55	C	0.895831	-0.397857	-0.398244
C56	C	1.229164	-0.064524	-0.064911
C57	C	1.562498	0.268810	0.268422
C58	C	0.726163	-0.390217	-0.390633
C59	C	1.059497	-0.056883	-0.057300
C60	C	1.392830	0.276450	0.276033
C61	C	0.684908	-0.433506	-0.433842
C62	C	1.018241	-0.100172	-0.100509
C63	C	1.351575	0.233161	0.232824
C64	C	0.590499	-0.429255	-0.429608
C65	C	0.923833	-0.095921	-0.096274
C66	C	1.257166	0.237412	0.237059
C67	C	0.820581	-0.394467	-0.394867
C68	C	1.153914	-0.061133	-0.061534
C69	C	1.487247	0.272200	0.271800
C70	C	1.205015	-0.604781	-0.412194
C71	C	1.538348	-0.271448	-0.078861
C72	C	1.871681	0.061885	0.254473
C73	C	1.205048	-0.687329	-0.412215
C74	C	1.538381	-0.353995	-0.078882
C75	C	1.871715	-0.020662	0.254452
C76	C	1.149468	-0.884226	-0.459291
C77	C	1.482801	-0.550893	-0.125957
C78	C	1.816135	-0.217559	0.207376
C79	C	1.129087	-0.932817	-0.390604
C80	C	1.462420	-0.599483	-0.057270
C81	C	1.795753	-0.266150	0.276063
C82	C	1.205130	-0.838463	-0.412228
C83	C	1.538463	-0.505129	-0.078895
C84	C	1.871797	-0.171796	0.254438
C85	C	1.225552	-0.936955	-0.480925
C86	C	1.558885	-0.603622	-0.147592
C87	C	1.892219	-0.270289	0.185742
C88	C	1.205208	-0.984451	-0.412247
C89	C	1.538541	-0.651118	-0.078914
C90	C	1.871874	-0.317785	0.254420
C91	C	1.184709	-0.885965	-0.343504
C92	C	1.518042	-0.552631	-0.010170
C93	C	1.851375	-0.219298	0.323163
C94	C	1.281209	-0.890100	-0.433872
C95	C	1.614543	-0.556767	-0.100539
C96	C	1.947876	-0.223434	0.232795
C97	C	1.260857	-0.938670	-0.365140
C98	C	1.594190	-0.605337	-0.031806
C99	C	1.927524	-0.272004	0.301527
C100	C	1.205083	-0.754362	-0.412218
C101	C	1.538416	-0.421029	-0.078885
C102	C	1.871750	-0.087696	0.254448
C103	C	1.205254	-1.068550	-0.412249
C104	C	1.538588	-0.735217	-0.078916
C105	C	1.871921	-0.401883	0.254417
C106	C	1.422577	-0.421674	-0.422043
C107	C	1.755910	-0.088341	-0.088710
C108	C	2.089243	0.244992	0.244623
C109	C	1.515246	-0.425868	-0.426234
C110	C	1.848579	-0.092534	-0.092900
C111	C	2.181913	0.240799	0.240433
C112	C	1.205331	-0.411588	-0.605927
C113	C	1.538664	-0.078255	-0.272593
C114	C	1.871997	0.255079	0.060740
C115	C	1.205422	-0.411483	-0.688477
C116	C	1.538756	-0.078150	-0.355143
C117	C	1.872089	0.255183	-0.021810
C118	C	1.205239	-0.218134	-0.412245
C119	C	1.538573	0.115200	-0.078912
C120	C	1.871906	0.448533	0.254422
C121	C	1.205292	-0.135590	-0.412260
C122	C	1.538625	0.197743	-0.078926
C123	C	1.871959	0.531076	0.254407
C124	C	1.204949	-0.412027	-0.219251
C125	C	1.538282	-0.078694	0.114083
C126	C	1.871616	0.254640	0.447416
C127	C	1.205019	-0.411930	-0.136708
C128	C	1.538352	-0.078597	0.196625
C129	C	1.871686	0.254737	0.529958
C130	C	1.149174	-0.359891	0.114597
C131	C	1.482508	-0.026558	0.447930
C132	C	1.815841	0.306776	0.781263
C133	C	1.129243	-0.426924	0.066310
C134	C	1.462576	-0.093591	0.399643
C135	C	1.795910	0.239742	0.732977
C136	C	1.205286	-0.411636	0.160399
C137	C	1.538619	-0.078302	0.493733
C138	C	1.871953	0.255031	0.827066
C139	C	1.225046	-0.344751	0.061613
C140	C	1.558379	-0.011417	0.394946
C141	C	1.891713	0.321916	0.728279
C142	C	1.205153	-0.411777	0.014421
C143	C	1.538486	-0.078443	0.347754
C144	C	1.871819	0.254890	0.681087
C145	C	1.185316	-0.478702	0.113202
C146	C	1.518650	-0.145369	0.446535
C147	C	1.851983	0.187965	0.779868
C148	C	1.281155	-0.396484	0.108507
C149	C	1.614488	-0.063151	0.441840
C150	C	1.947821	0.270183	0.775174
C151	C	1.261252	-0.463565	0.060241
C152	C	1.594586	-0.130232	0.393575
C153	C	1.927919	0.203102	0.726908
C154	C	1.205361	-0.411553	0.244494
C155	C	1.538694	-0.078220	0.577827
C156	C	1.872027	0.255113	0.911161
C157	C	1.205078	-0.411866	-0.069672
C158	C	1.538412	-0.078533	0.263661
C159	C	1.871745	0.254800	0.596994
H160	H	0.720491	-0.473759	-0.474017
H161	H	1.053825	-0.140425	-0.140683
H162	H	1.387158	0.192908	0.192650
C163	C	1.085784	-0.852032	-0.512970
C164	C	1.419117	-0.518698	-0.179637
C165	C	1.752451	-0.185365	0.153697
N166	N	1.037815	-0.827780	-0.553396
N167	N	1.371149	-0.494447	-0.220063
N168	N	1.704482	-0.161113	0.113270
H169	H	1.345354	-0.383583	0.127179
H170	H	1.678687	-0.050250	0.460512
H171	H	2.012020	0.283083	0.793846
C172	C	1.042214	-0.958318	-0.365878
C173	C	1.375547	-0.624984	-0.032545
C174	C	1.708881	-0.291651	0.300789
N175	N	0.976779	-0.977523	-0.347259
N176	N	1.310113	-0.644189	-0.013926
N177	N	1.643446	-0.310856	0.319407
C178	C	1.161310	-0.855864	-0.265003
C179	C	1.494644	-0.522530	0.068331
C180	C	1.827977	-0.189197	0.401664
N181	N	1.143683	-0.833190	-0.205878
N182	N	1.477016	-0.499856	0.127455
N183	N	1.810350	-0.166523	0.460789
C184	C	1.324491	-0.970676	-0.311319
C185	C	1.657824	-0.637343	0.022014
C186	C	1.991157	-0.304009	0.355348
N187	N	1.372415	-0.994785	-0.270779
N188	N	1.705749	-0.661452	0.062554
N189	N	2.039082	-0.328118	0.395888
C190	C	1.247703	-0.268256	0.031052
C191	C	1.581037	0.065077	0.364385
C192	C	1.914370	0.398411	0.697719
N193	N	1.264763	-0.210638	0.008037
N194	N	1.598097	0.122695	0.341371
N195	N	1.931430	0.456029	0.674704
H196	H	1.065025	-0.439806	0.047656
H197	H	1.398358	-0.106473	0.380990
H198	H	1.731692	0.226861	0.714323
C199	C	1.368051	-0.864563	-0.458631
C200	C	1.701385	-0.531230	-0.125298
C201	C	2.034718	-0.197897	0.208036
N202	N	1.433459	-0.845323	-0.477290
N203	N	1.766792	-0.511990	-0.143956
N204	N	2.100126	-0.178656	0.189377
C205	C	1.248847	-0.967175	-0.559400
C206	C	1.582180	-0.633842	-0.226066
C207	C	1.915513	-0.300508	0.107267
N208	N	1.266386	-0.989933	-0.618508
N209	N	1.599720	-0.656599	-0.285175
N210	N	1.933053	-0.323266	0.048158
C211	C	1.162556	-0.555214	0.143645
C212	C	1.495889	-0.221881	0.476978
C213	C	1.829222	0.111453	0.810311
N214	N	1.145409	-0.612841	0.166576
N215	N	1.478742	-0.279507	0.499909
N216	N	1.812075	0.053826	0.833243
H217	H	1.101744	-0.316123	0.138384
H218	H	1.435077	0.017210	0.471717
H219	H	1.768411	0.350544	0.805051
H220	H	1.308648	-0.507432	0.036593
H221	H	1.641981	-0.174099	0.369926
H222	H	1.975314	0.159234	0.703259
H223	H	0.690582	-0.349967	-0.350463
H224	H	1.023916	-0.016633	-0.017130
H225	H	1.357249	0.316700	0.316204
