data_functionalizedCrystal
_audit_creation_method	'MofGen! by Chris Wilmer'
_symmetry_space_group_name_H-M	'P1'
_symmetry_Int_Tables_number	1
_symmetry_cell_setting	triclinic
loop_
_symmetry_equiv_pos_as_xyz
  x,y,z
_cell_length_a	17.699083
_cell_length_b	10.489741
_cell_length_c	16.176319
_cell_angle_alpha	89.993511
_cell_angle_beta	89.998611
_cell_angle_gamma	83.911094
loop_
_atom_site_label
_atom_site_type_symbol
_atom_site_fract_x
_atom_site_fract_y
_atom_site_fract_z
O1	O	1.005134	0.161296	-0.068630
O2	O	1.505134	0.661296	0.431370
O3	O	0.784893	0.182281	-0.068657
O4	O	1.284893	0.682281	0.431343
O5	O	0.900025	-0.013903	-0.068638
O6	O	1.400025	0.486097	0.431362
O7	O	0.890002	0.357479	-0.068649
O8	O	1.390002	0.857479	0.431351
O9	O	0.900009	-0.013915	0.068855
O10	O	1.400009	0.486085	0.568855
O11	O	0.784877	0.182268	0.068836
O12	O	1.284877	0.682268	0.568836
O13	O	1.005118	0.161283	0.068863
O14	O	1.505118	0.661283	0.568863
Cu15	Cu	0.894996	0.171775	0.081404
Cu16	Cu	1.394996	0.671775	0.581404
Cu17	Cu	0.895015	0.171789	-0.081198
Cu18	Cu	1.395015	0.671789	0.418802
O19	O	0.889986	0.357467	0.068844
O20	O	1.389986	0.857467	0.568844
C21	C	0.756683	0.181523	0.000086
C22	C	1.256683	0.681523	0.500086
C23	C	0.672650	0.179267	0.000076
C24	C	1.172650	0.679267	0.500076
C25	C	0.899260	-0.061427	0.000108
C26	C	1.399260	0.438573	0.500108
C27	C	0.896995	-0.203014	0.000106
C28	C	1.396995	0.296986	0.500106
C29	C	0.624782	0.294422	0.000073
C30	C	1.124782	0.794422	0.500073
C31	C	0.545825	0.292295	0.000083
C32	C	1.045825	0.792295	0.500083
C33	C	0.514737	0.175011	0.000091
C34	C	1.014737	0.675011	0.500091
C35	C	0.562611	0.059847	0.000097
C36	C	1.062611	0.559847	0.500097
C37	C	0.641567	0.061975	0.000092
C38	C	1.141567	0.561975	0.500092
C39	C	0.244192	0.051260	0.000118
C40	C	0.744192	0.551260	0.500118
C41	C	0.165230	0.049140	0.000120
C42	C	0.665230	0.549140	0.500120
C43	C	0.148450	0.281580	0.000109
C44	C	0.648450	0.781580	0.500109
C45	C	0.227406	0.283709	0.000104
C46	C	0.727406	0.783709	0.500104
C47	C	0.275273	0.168545	0.000114
C48	C	0.775273	0.668545	0.500114
C49	C	0.360887	0.170853	0.000104
C50	C	0.860887	0.670853	0.500104
C51	C	0.429124	0.172702	0.000096
C52	C	0.929124	0.672702	0.500096
C53	C	0.823740	-0.269793	0.000091
C54	C	1.323740	0.230207	0.500091
C55	C	0.858337	-0.362565	0.067887
C56	C	1.358337	0.137435	0.567887
C57	C	0.858370	-0.362527	-0.067671
C58	C	1.358370	0.137473	0.432329
C59	C	0.931622	-0.293921	0.067958
C60	C	1.431622	0.206079	0.567958
C61	C	0.931645	-0.293874	-0.067661
C62	C	1.431645	0.206126	0.432339
C63	C	0.966296	-0.386619	0.000151
C64	C	1.466296	0.113381	0.500151
C65	C	1.033328	0.162042	0.000118
C66	C	1.533328	0.662042	0.500118
C67	C	1.117361	0.164297	0.000123
C68	C	1.617361	0.664297	0.500123
C69	C	0.890751	0.404991	0.000096
C70	C	1.390751	0.904991	0.500096
C71	C	0.893016	0.546578	0.000093
C72	C	1.393016	1.046578	0.500093
N73	N	0.894988	0.171764	0.195769
N74	N	1.394988	0.671764	0.695769
N75	N	0.895029	0.171790	-0.195563
N76	N	1.395029	0.671790	0.304437
C77	C	0.945984	0.084929	0.239042
C78	C	1.445984	0.584929	0.739042
C79	C	0.945988	0.084928	0.325589
C80	C	1.445988	0.584928	0.825589
C81	C	0.894999	0.171768	0.368862
C82	C	1.394999	0.671768	0.868862
C83	C	0.843997	0.258607	0.325583
C84	C	1.343997	0.758607	0.825583
C85	C	0.843990	0.258601	0.239037
C86	C	1.343990	0.758601	0.739037
C87	C	0.844023	0.258631	0.674611
C88	C	1.344023	0.758631	1.174611
C89	C	0.844036	0.258632	0.761163
C90	C	1.344036	0.758632	1.261163
C91	C	0.946021	0.084957	0.761162
C92	C	1.446021	0.584957	1.261162
C93	C	0.946014	0.084951	0.674617
C94	C	1.446014	0.584951	1.174617
C95	C	0.895010	0.171785	0.631346
C96	C	1.395010	0.671785	1.131346
C97	C	0.895006	0.171784	0.537502
C98	C	1.395006	0.671784	1.037502
C99	C	0.895006	0.171776	0.462704
C100	C	1.395006	0.671776	0.962704
H101	H	0.506854	0.386067	0.000080
H102	H	1.006854	0.886067	0.500080
H103	H	0.537293	-0.035648	0.000115
H104	H	1.037293	0.464352	0.500115
N105	N	0.260929	0.410214	0.000088
N106	N	0.760929	0.910214	0.500088
H107	H	0.243521	0.460651	0.051055
H108	H	0.743521	0.960651	0.551055
H109	H	0.318205	0.393989	0.000051
H110	H	0.818205	0.893989	0.500051
N111	N	0.693199	-0.062227	0.000102
N112	N	1.193199	0.437773	0.500102
H113	H	0.661526	-0.136850	0.000107
H114	H	1.161526	0.363150	0.500107
H115	H	0.726325	-0.066408	-0.050868
H116	H	1.226325	0.433592	0.449132
H117	H	0.802477	0.329310	0.360821
H118	H	1.302477	0.829310	0.860821
N119	N	1.000999	-0.008719	0.372259
N120	N	1.500999	0.491281	0.872259
H121	H	0.993266	0.004455	0.433652
H122	H	1.493266	0.504455	0.933652
H123	H	0.991771	-0.099188	0.357140
H124	H	1.491771	0.400812	0.857140
H125	H	0.109467	0.375352	0.000105
H126	H	0.609467	0.875352	0.500105
H127	H	0.802463	0.329309	0.203806
H128	H	1.302463	0.829309	0.703806
N129	N	0.295813	-0.072946	0.000134
N130	N	0.795813	0.427054	0.500134
H131	H	0.264136	-0.147564	0.000138
H132	H	0.764136	0.352436	0.500138
H133	H	0.328942	-0.077133	-0.050834
H134	H	0.828942	0.422867	0.449166
N135	N	0.972672	-0.253497	-0.143578
N136	N	1.472672	0.246503	0.356422
H137	H	0.974327	-0.157558	-0.142720
H138	H	1.474327	0.342442	0.357280
H139	H	1.026194	-0.297802	-0.144074
H140	H	1.526194	0.202198	0.355926
N141	N	0.658310	0.420923	0.000054
N142	N	1.158310	0.920923	0.500054
H143	H	0.616002	0.493550	0.000055
H144	H	1.116002	0.993550	0.500055
H145	H	0.690707	0.426869	0.051021
H146	H	1.190707	0.926869	0.551021
H147	H	0.827334	-0.393005	0.125195
H148	H	1.327334	0.106995	0.625195
N149	N	0.743963	-0.202530	0.000164
N150	N	1.243963	0.297470	0.500164
H151	H	0.715999	-0.228524	-0.050515
H152	H	1.215999	0.271476	0.449485
H153	H	0.716449	-0.227342	0.051452
H154	H	1.216449	0.272658	0.551452
H155	H	0.139922	-0.046372	0.000128
H156	H	0.639922	0.453628	0.500128
H157	H	0.827372	-0.392910	-0.124992
H158	H	1.327372	0.107090	0.375008
H159	H	0.962584	-0.263669	0.125338
H160	H	1.462584	0.236331	0.625338
H161	H	0.802495	0.329336	0.639387
H162	H	1.302495	0.829336	1.139387
N163	N	1.046146	-0.453578	0.000203
N164	N	1.546146	0.046422	0.500203
H165	H	1.073701	-0.428656	0.051433
H166	H	1.573701	0.071344	0.551433
H167	H	1.044120	-0.549432	-0.000316
H168	H	1.544120	-0.049432	0.499684
N169	N	1.000985	-0.008728	0.192372
N170	N	1.500985	0.491272	0.692372
H171	H	1.033290	-0.063738	0.232921
H172	H	1.533290	0.436262	0.732921
H173	H	0.971704	-0.065058	0.156472
H174	H	1.471704	0.434942	0.656472
H175	H	0.987537	0.014242	0.639387
H176	H	1.487537	0.514242	1.139387
N177	N	1.001034	-0.008705	0.807833
N178	N	1.501034	0.491295	1.307833
H179	H	0.993302	0.004467	0.869226
H180	H	1.493302	0.504467	1.369226
H181	H	0.991804	-0.099173	0.792713
H182	H	1.491804	0.400827	1.292713
N183	N	0.789033	0.352292	0.807839
N184	N	1.289033	0.852292	1.307839
H185	H	0.756718	0.407296	0.767295
H186	H	1.256718	0.907296	1.267295
H187	H	0.755322	0.303518	0.843757
H188	H	1.255322	0.803518	1.343757
