data_functionalizedCrystal
_audit_creation_method	'MofGen! by Chris Wilmer'
_symmetry_space_group_name_H-M	'P1'
_symmetry_Int_Tables_number	1
_symmetry_cell_setting	triclinic
loop_
_symmetry_equiv_pos_as_xyz
  x,y,z
_cell_length_a	17.038272
_cell_length_b	16.098538
_cell_length_c	14.519709
_cell_angle_alpha	87.273050
_cell_angle_beta	87.395851
_cell_angle_gamma	92.930266
loop_
_atom_site_label
_atom_site_type_symbol
_atom_site_fract_x
_atom_site_fract_y
_atom_site_fract_z
O1	O	1.041182	0.069155	0.196445
O2	O	0.813547	0.069179	0.193264
O3	O	0.933399	0.069159	0.061078
O4	O	0.921329	0.069175	0.328631
O5	O	0.926398	-0.069353	0.068768
O6	O	0.806546	-0.069332	0.200953
O7	O	1.034180	-0.069357	0.204135
Zn8	Zn	0.919252	-0.091336	0.203765
Zn9	Zn	0.928476	0.091159	0.193634
O10	O	0.914328	-0.069336	0.336320
C11	C	0.780914	-0.000073	0.194216
C12	C	0.694107	-0.000064	0.185585
N13	N	0.912962	-0.215884	0.210678
C14	C	0.644122	-0.000060	0.264818
C15	C	0.562557	-0.000072	0.256704
C16	C	0.530981	-0.000082	0.169357
C17	C	0.580972	-0.000089	0.090119
C18	C	0.662535	-0.000083	0.098233
C19	C	0.285175	-0.000106	0.140689
C20	C	0.203606	-0.000110	0.132580
C21	C	0.185197	-0.000095	0.299167
C22	C	0.266762	-0.000084	0.307273
C23	C	0.316746	-0.000095	0.228035
C24	C	0.447609	-0.000092	0.161061
C25	C	0.400116	-0.000091	0.236332
C26	C	0.963851	-0.259478	0.154596
C27	C	0.959458	-0.346666	0.159442
C28	C	0.904180	-0.390259	0.220376
C29	C	0.853285	-0.346660	0.276460
C30	C	0.857675	-0.259473	0.271609
C31	C	0.888267	-0.653507	0.237946
C32	C	0.883883	-0.740699	0.242795
C33	C	0.990055	-0.740700	0.125776
C34	C	0.994443	-0.653512	0.120934
C35	C	0.943546	-0.609920	0.177015
C36	C	0.899690	-0.479380	0.225332
C37	C	0.948032	-0.520801	0.172052
C38	C	1.066814	-0.000102	0.203183
C39	C	1.153621	-0.000106	0.211813
C40	C	0.929336	-0.000097	0.030520
C41	C	0.927650	-0.000097	-0.071990
N42	N	0.934772	0.215707	0.186713
C43	C	0.921446	-0.000075	-0.447362
C44	C	0.923169	-0.000081	-0.342922
C45	C	0.924548	-0.000087	-0.259679
C46	C	0.926271	-0.000092	-0.155233
C47	C	0.918391	-0.000079	0.366878
C48	C	0.920077	-0.000073	0.469388
H49	H	0.669825	-0.000051	0.335945
O50	O	0.430742	-0.000226	0.321206
C51	C	0.436322	-0.071933	0.470079
C52	C	0.401586	-0.071899	0.373987
H53	H	0.412751	-0.129865	0.512786
H54	H	0.503204	-0.071984	0.462317
H55	H	0.418687	-0.013934	0.506295
H56	H	0.419162	-0.129888	0.337718
H57	H	0.334710	-0.071805	0.381812
H58	H	0.846826	-0.618021	0.283611
O59	O	0.136567	0.000020	0.376060
C60	C	0.037445	0.071800	0.459626
C61	C	0.092465	0.071769	0.372486
H62	H	0.001786	0.129812	0.456775
H63	H	-0.004173	0.013870	0.463216
H64	H	0.074039	0.071767	0.523437
H65	H	0.055935	0.071832	0.308627
H66	H	0.134086	0.129694	0.368978
O67	O	0.173060	-0.000156	0.047658
C68	C	0.199924	-0.000118	-0.116720
C69	C	0.234622	-0.000091	-0.020609
H70	H	0.249681	-0.000048	-0.171941
H71	H	0.159300	-0.058098	-0.121522
H72	H	0.165097	0.057836	-0.127850
H73	H	0.269486	-0.058006	-0.009416
H74	H	0.275203	0.057927	-0.015853
O75	O	0.417030	0.000018	0.076158
C76	C	0.411371	0.071804	-0.072659
C77	C	0.446078	0.071773	0.023449
H78	H	0.434829	0.129820	-0.115296
H79	H	0.429048	0.013878	-0.108993
H80	H	0.344490	0.071758	-0.064813
H81	H	0.512961	0.071848	0.015685
H82	H	0.428339	0.129694	0.059749
H83	H	0.808273	-0.382158	0.326070
H84	H	0.816235	-0.223980	0.317275
O85	O	1.001752	-0.478588	0.112785
C86	C	1.106636	-0.487779	-0.002723
C87	C	1.045822	-0.535698	0.064337
H88	H	1.142294	-0.533932	-0.041897
H89	H	1.074911	-0.446996	-0.053802
H90	H	1.147765	-0.446925	0.037941
H91	H	1.004676	-0.576598	0.023750
H92	H	1.077598	-0.576429	0.115416
H93	H	0.838867	-0.776189	0.292418
H94	H	1.008867	-0.223991	0.104982
O95	O	0.550398	0.000013	0.005213
C96	C	0.544761	0.071790	-0.143612
C97	C	0.579456	0.071764	-0.047498
H98	H	0.568227	0.129803	-0.186250
H99	H	0.562438	0.013861	-0.179938
H100	H	0.477880	0.071749	-0.135777
H101	H	0.646340	0.071833	-0.055250
H102	H	0.561717	0.129688	-0.011206
H103	H	0.854683	-0.514880	0.274947
H104	H	0.521862	-0.000068	0.321224
H105	H	1.000895	-0.382160	0.113775
H106	H	0.703233	-0.000086	0.033714
H107	H	0.325863	-0.000116	0.076168
H108	H	1.039455	-0.618020	0.071317
O109	O	1.039566	-0.782917	0.071255
C110	C	1.145288	-0.773715	-0.045385
C111	C	1.089280	-0.725802	0.016333
H112	H	1.185485	-0.727559	-0.089818
H113	H	1.182408	-0.814503	-0.000257
H114	H	1.109388	-0.814564	-0.091817
H115	H	1.125118	-0.684908	0.062776
H116	H	1.052158	-0.685067	-0.028849
O117	O	0.297301	-0.000115	0.392196
C118	C	0.270433	-0.000055	0.556567
C119	C	0.235742	-0.000042	0.460451
H120	H	0.220681	0.000022	0.611777
H121	H	0.305209	-0.058033	0.567810
H122	H	0.311106	0.057901	0.561263
H123	H	0.195036	-0.057959	0.455687
H124	H	0.201014	0.057974	0.449250
