data_functionalizedCrystal
_audit_creation_method	'MofGen! by Chris Wilmer'
_symmetry_space_group_name_H-M	'P1'
_symmetry_Int_Tables_number	1
_symmetry_cell_setting	triclinic
loop_
_symmetry_equiv_pos_as_xyz
  x,y,z
_cell_length_a	12.827892
_cell_length_b	10.685980
_cell_length_c	10.685880
_cell_angle_alpha	80.918858
_cell_angle_beta	94.339956
_cell_angle_gamma	94.382205
loop_
_atom_site_label
_atom_site_type_symbol
_atom_site_fract_x
_atom_site_fract_y
_atom_site_fract_z
Zn1	Zn	-0.344322	1.995735	-0.866679
Zn2	Zn	-0.506673	1.979324	-0.654425
Zn3	Zn	-0.344377	1.767176	-0.638151
Zn4	Zn	-0.531457	1.783436	-0.850329
O5	O	-0.431707	1.881418	-0.752396
O6	O	-0.355463	2.171191	-0.852176
O7	O	-0.474795	1.937508	-0.474641
O8	O	-0.198132	1.797558	-0.668498
O9	O	-0.474741	2.159134	-0.696234
O10	O	-0.198091	1.965480	-0.836396
O11	O	-0.355557	1.781644	-0.462684
O12	O	-0.379589	1.591700	-0.652644
O13	O	-0.516982	1.825271	-1.030124
O14	O	-0.517036	1.603646	-0.808530
O15	O	-0.379495	1.981247	-1.042136
O16	O	-0.656199	1.953275	-0.680381
O17	O	-0.674407	1.809357	-0.824310
C18	C	-0.451009	1.551615	-0.727048
C19	C	-0.459293	1.410526	-0.716234
C20	C	-0.703220	1.881337	-0.752368
C21	C	-0.819371	1.881421	-0.752407
C22	C	-0.862110	1.952734	-0.681279
C23	C	-0.982157	1.952824	-0.681317
C24	C	-0.159133	1.881536	-0.752455
C25	C	-0.042979	1.881586	-0.752480
C26	C	-0.450997	1.906904	-1.083474
C27	C	-0.459217	1.917764	-1.224560
C28	C	-0.412331	2.212508	-0.777844
C29	C	-0.404074	2.353600	-0.788689
C30	C	-0.412413	1.856104	-0.422612
C31	C	-0.403884	1.845489	-0.281546
H32	H	-0.512908	1.351319	-0.645918
O33	O	-0.994253	1.800702	-0.833141
H34	H	-1.019778	1.699407	-0.803647
O35	O	-0.530317	2.010736	-1.302908
H36	H	-0.569563	2.061955	-1.238974
O37	O	-0.792870	2.033556	-0.600599
H38	H	-0.709445	2.020812	-0.613238
H39	H	-0.350455	1.412799	-0.858992
O40	O	-0.888623	1.800629	-0.833105
H41	H	-0.872236	1.829954	-0.934429
O42	O	-1.030874	2.033728	-0.600671
H43	H	-1.117518	2.021121	-0.613375
O44	O	-0.332792	1.752511	-1.203213
H45	H	-0.337266	1.758285	-1.100975
