data_functionalizedCrystal
_audit_creation_method	'MofGen! by Chris Wilmer'
_symmetry_space_group_name_H-M	'P1'
_symmetry_Int_Tables_number	1
_symmetry_cell_setting	triclinic
loop_
_symmetry_equiv_pos_as_xyz
  x,y,z
_cell_length_a	13.033291
_cell_length_b	12.759400
_cell_length_c	13.032268
_cell_angle_alpha	82.847146
_cell_angle_beta	90.920764
_cell_angle_gamma	97.184637
loop_
_atom_site_label
_atom_site_type_symbol
_atom_site_fract_x
_atom_site_fract_y
_atom_site_fract_z
Zn1	Zn	1.498478	-0.326863	0.781506
Zn2	Zn	1.520229	-0.477844	0.609544
Zn3	Zn	1.348338	-0.321315	0.587681
Zn4	Zn	1.326481	-0.521642	0.759588
O5	O	1.423382	-0.411916	0.684580
O6	O	1.645282	-0.330883	0.777017
O7	O	1.515677	-0.436429	0.462734
O8	O	1.368300	-0.175027	0.613415
O9	O	1.661261	-0.441809	0.650678
O10	O	1.478607	-0.179103	0.755817
O11	O	1.389390	-0.321428	0.446671
O12	O	1.201521	-0.363896	0.592162
O13	O	1.331047	-0.516455	0.906405
O14	O	1.185463	-0.511076	0.718461
O15	O	1.457413	-0.373352	0.922508
O16	O	1.494483	-0.630678	0.629425
O17	O	1.352138	-0.662856	0.739661
C18	C	1.156175	-0.441638	0.650562
C19	C	1.041860	-0.454381	0.636033
C20	C	0.864827	-0.418454	0.677155
C21	C	0.982978	-0.405285	0.692170
C22	C	1.423324	-0.684889	0.684563
C23	C	1.423389	-0.801662	0.684602
C24	C	1.349262	-0.873311	0.741948
C25	C	1.349315	-0.983031	0.741965
C26	C	1.497631	-0.949440	0.627287
C27	C	1.497572	-0.839723	0.627266
C28	C	1.275078	-0.835250	0.799285
C29	C	1.200946	-0.906901	0.856637
C30	C	1.201000	-1.016621	0.856654
C31	C	1.275185	-1.054689	0.799318
C32	C	1.691631	-0.382079	0.718731
C33	C	1.805943	-0.369365	0.733284
C34	C	1.389366	-0.450408	0.952814
C35	C	1.374870	-0.466811	1.067120
C36	C	1.423465	-0.137878	0.684622
C37	C	1.423501	-0.021099	0.684641
C38	C	1.457324	-0.373491	0.417396
C39	C	1.472019	-0.356770	0.303116
C40	C	1.430931	-0.403319	1.126048
C41	C	1.415951	-0.420271	1.244189
H42	H	0.843001	-0.317583	0.792450
H43	H	1.275220	-1.144031	0.799334
O44	O	1.128985	-0.869748	0.912305
C45	C	1.063129	-0.715609	0.963054
C46	C	1.144700	-0.757538	0.899984
H47	H	1.075792	-0.624883	0.953096
H48	H	1.070615	-0.746974	1.048309
H49	H	0.982534	-0.743942	0.934389
H50	H	1.225331	-0.729221	0.928559
H51	H	1.137123	-0.726181	0.814739
H52	H	1.531104	-0.289853	1.266109
H53	H	1.315778	-0.533712	1.104131
O54	O	1.129037	-1.086367	0.912268
C55	C	1.063432	-1.270280	0.963181
C56	C	1.144970	-1.191411	0.900125
H57	H	1.076299	-1.355225	0.953403
H58	H	0.982780	-1.255488	0.934499
H59	H	1.070897	-1.258505	1.048392
H60	H	1.137601	-1.203139	0.814902
H61	H	1.225589	-1.206223	0.928892
O62	O	0.820457	-0.480223	0.606638
C63	C	0.662254	-0.549578	0.527301
C64	C	0.712362	-0.479613	0.607217
H65	H	0.574854	-0.549090	0.527727
H66	H	0.680958	-0.634597	0.547870
H67	H	0.693874	-0.516779	0.447083
H68	H	0.680770	-0.512317	0.687463
H69	H	0.693664	-0.394604	0.586559
H70	H	1.004809	-0.506162	0.576858
H71	H	1.275028	-0.745913	0.799280
H72	H	1.020032	-0.353499	0.751341
O73	O	1.569661	-0.986599	0.571711
C74	C	1.635475	-1.140740	0.520916
C75	C	1.553845	-1.098805	0.583908
H76	H	1.622702	-1.231463	0.530738
H77	H	1.716091	-1.112535	0.549616
H78	H	1.628018	-1.109253	0.435690
H79	H	1.561206	-1.130274	0.669146
H80	H	1.473261	-1.127000	0.555122
O81	O	1.569677	-0.770263	0.571538
C82	C	1.716746	-0.748513	0.457735
C83	C	1.635167	-0.827294	0.520829
H84	H	1.769702	-0.794591	0.416702
H85	H	1.764541	-0.697898	0.511777
H86	H	1.676334	-0.694714	0.397954
H87	H	1.675494	-0.881162	0.580613
H88	H	1.587378	-0.877835	0.466722
H89	H	1.490013	-0.336409	1.089036
H90	H	1.356854	-0.487177	1.281196
