data_functionalizedCrystal
_audit_creation_method	'MofGen! by Chris Wilmer'
_symmetry_space_group_name_H-M	'P1'
_symmetry_Int_Tables_number	1
_symmetry_cell_setting	triclinic
loop_
_symmetry_equiv_pos_as_xyz
  x,y,z
_cell_length_a	10.908937
_cell_length_b	10.967829
_cell_length_c	16.176319
_cell_angle_alpha	77.865348
_cell_angle_beta	89.990360
_cell_angle_gamma	72.684843
loop_
_atom_site_label
_atom_site_type_symbol
_atom_site_fract_x
_atom_site_fract_y
_atom_site_fract_z
O1	O	1.702145	-0.192360	-0.041368
O2	O	1.329143	-0.095097	-0.055220
O3	O	1.524243	-0.327164	-0.022159
O4	O	1.507045	0.039708	-0.074430
O5	O	1.524216	-0.327171	0.115335
O6	O	1.329116	-0.095103	0.082274
O7	O	1.702118	-0.192366	0.096126
Cu8	Cu	1.515614	-0.143735	0.101754
Cu9	Cu	1.515647	-0.143728	-0.060849
O10	O	1.507018	0.039701	0.063064
C11	C	1.281369	-0.086010	0.012233
C12	C	1.139057	-0.058941	0.008378
C13	C	0.942089	-0.129748	0.018452
C14	C	1.089177	-0.157728	0.022449
C15	C	1.522976	-0.373398	0.053173
C16	C	1.519226	-0.511146	0.072794
C17	C	1.517569	-0.572548	0.010315
C18	C	1.513693	-0.714918	0.030592
C19	C	1.749892	-0.201453	0.028671
C20	C	1.892204	-0.228522	0.032520
C21	C	1.508285	0.085935	-0.012269
C22	C	1.512035	0.223683	-0.031896
N23	N	1.515601	-0.143744	0.216121
N24	N	1.515670	-0.143731	-0.175213
C25	C	1.602018	-0.246474	0.274020
C26	C	1.602025	-0.246477	0.360568
C27	C	1.515619	-0.143743	0.389213
C28	C	1.429193	-0.041007	0.331307
C29	C	1.429182	-0.041010	0.244762
C30	C	1.429237	-0.040992	0.680333
C31	C	1.429258	-0.040995	0.766885
C32	C	1.602080	-0.246459	0.796139
C33	C	1.602069	-0.246462	0.709594
C34	C	1.515639	-0.143730	0.651696
C35	C	1.515631	-0.143730	0.557851
C36	C	1.515632	-0.143738	0.483055
H37	H	1.519013	-0.519715	-0.058188
Br38	Br	1.511260	-0.802950	0.144777
H39	H	1.513470	-0.723488	-0.100404
Br40	Br	1.199473	-0.333213	0.047447
Br41	Br	1.719301	-0.385902	0.439149
Br42	Br	1.719343	-0.385885	0.670720
Br43	Br	1.311916	0.098414	0.370180
H44	H	1.517768	-0.563974	0.141297
Br45	Br	1.719299	-0.385900	0.235153
Br46	Br	1.311888	0.098410	0.166184
Br47	Br	1.719380	-0.385886	0.874720
H48	H	1.072877	0.046344	-0.006628
Br49	Br	1.311988	0.098439	0.805760
H50	H	0.875905	-0.024471	0.003444
Br51	Br	1.002504	-0.403999	0.057518
H52	H	1.358865	0.042657	0.633198
