data_functionalizedCrystal
_audit_creation_method	'MofGen! by Chris Wilmer'
_symmetry_space_group_name_H-M	'P1'
_symmetry_Int_Tables_number	1
_symmetry_cell_setting	triclinic
loop_
_symmetry_equiv_pos_as_xyz
  x,y,z
_cell_length_a	15.995300
_cell_length_b	19.188930
_cell_length_c	18.266242
_cell_angle_alpha	90.006796
_cell_angle_beta	90.007942
_cell_angle_gamma	83.308294
loop_
_atom_site_label
_atom_site_type_symbol
_atom_site_fract_x
_atom_site_fract_y
_atom_site_fract_z
O1	O	1.110686	0.089825	0.060916
O2	O	1.444019	0.423159	0.394250
O3	O	1.777352	0.756492	0.727583
O4	O	0.866864	0.100975	0.060913
O5	O	1.200197	0.434309	0.394246
O6	O	1.533530	0.767642	0.727579
O7	O	0.995811	-0.006238	0.060900
O8	O	1.329144	0.327095	0.394234
O9	O	1.662477	0.660428	0.727567
O10	O	0.981738	0.197039	0.060929
O11	O	1.315072	0.530373	0.394262
O12	O	1.648405	0.863706	0.727595
O13	O	0.995794	-0.006235	-0.060862
O14	O	1.329128	0.327098	0.272472
O15	O	1.662461	0.660432	0.605805
O16	O	0.866847	0.100979	-0.060849
O17	O	1.200180	0.434312	0.272484
O18	O	1.533514	0.767646	0.605817
O19	O	1.110669	0.089829	-0.060846
O20	O	1.444002	0.423162	0.272488
O21	O	1.777336	0.756496	0.605821
Zn22	Zn	0.988755	0.095404	-0.080180
Zn23	Zn	1.322089	0.428738	0.253154
Zn24	Zn	1.655422	0.762071	0.586487
Zn25	Zn	0.988777	0.095400	0.080247
Zn26	Zn	1.322111	0.428733	0.413580
Zn27	Zn	1.655444	0.762067	0.746913
O28	O	0.981722	0.197043	-0.060833
O29	O	1.315055	0.530376	0.272500
O30	O	1.648389	0.863709	0.605833
C31	C	0.835662	0.100522	0.000031
C32	C	1.168995	0.433856	0.333365
C33	C	1.502328	0.767189	0.666698
C34	C	0.742714	0.099159	0.000029
C35	C	1.076047	0.432492	0.333363
C36	C	1.409381	0.765826	0.666696
C37	C	0.572540	0.096641	0.000035
C38	C	0.905873	0.429975	0.333368
C39	C	1.239207	0.763308	0.666701
C40	C	0.524795	0.172980	0.000044
C41	C	0.858128	0.506313	0.333377
C42	C	1.191461	0.839646	0.666710
C43	C	0.428112	0.171587	0.000322
C44	C	0.761445	0.504920	0.333655
C45	C	1.094779	0.838254	0.666988
C46	C	0.404992	0.094163	0.000039
C47	C	0.738326	0.427496	0.333372
C48	C	1.071659	0.760830	0.666706
C49	C	0.446273	0.056287	0.069429
C50	C	0.779607	0.389620	0.402762
C51	C	1.112940	0.722954	0.736095
C52	C	0.542900	0.058219	0.069485
C53	C	0.876233	0.391552	0.402818
C54	C	1.209566	0.724885	0.736152
C55	C	0.543164	0.057092	-0.068986
C56	C	0.876497	0.390426	0.264347
C57	C	1.209831	0.723759	0.597681
C58	C	0.446220	0.057099	-0.069896
C59	C	0.779553	0.390433	0.263437
C60	C	1.112886	0.723766	0.596771
C61	C	0.310302	0.092759	0.000044
C62	C	0.643636	0.426092	0.333377
C63	C	0.976969	0.759425	0.666710
C64	C	0.667231	0.098044	0.000035
C65	C	1.000564	0.431377	0.333368
C66	C	1.333897	0.764710	0.666701
C67	C	0.995347	-0.032249	0.000017
C68	C	1.328680	0.301085	0.333351
C69	C	1.662013	0.634418	0.666684
C70	C	0.993979	-0.109757	0.000011
C71	C	1.327312	0.223577	0.333344
C72	C	1.660645	0.556910	0.666678
C73	C	1.069641	-0.154499	0.000008
C74	C	1.402974	0.178834	0.333342
C75	C	1.736307	0.512168	0.666675
C76	C	1.068356	-0.227326	0.000020
C77	C	1.401689	0.106007	0.333353
C78	C	1.735022	0.439341	0.666687
C79	C	0.991404	-0.255407	0.000020
C80	C	1.324737	0.077926	0.333353
C81	C	1.658071	0.411260	0.666686
C82	C	0.915732	-0.210655	0.000026
C83	C	1.249066	0.122679	0.333360
C84	C	1.582399	0.456012	0.666693
C85	C	0.917020	-0.137829	0.000022
C86	C	1.250353	0.195504	0.333355
C87	C	1.583686	0.528837	0.666688
N88	N	0.932578	-0.363552	-0.041419
N89	N	1.265912	-0.030218	0.291914
N90	N	1.599245	0.303115	0.625248
N91	N	0.931361	-0.432733	-0.041417
N92	N	1.264694	-0.099400	0.291917
N93	N	1.598027	0.233933	0.625250
C94	C	0.987521	-0.474825	0.000034
C95	C	1.320854	-0.141492	0.333368
C96	C	1.654187	0.191842	0.666701
N97	N	1.044958	-0.445123	0.041473
N98	N	1.378291	-0.111790	0.374807
N99	N	1.711624	0.221544	0.708140
N100	N	1.046178	-0.375935	0.041468
N101	N	1.379511	-0.042602	0.374801
N102	N	1.712844	0.290731	0.708134
C103	C	0.990000	-0.334373	0.000025
C104	C	1.323333	-0.001040	0.333358
C105	C	1.656666	0.332294	0.666691
C106	C	1.061794	-0.598535	0.000046
C107	C	1.395128	-0.265202	0.333379
C108	C	1.728461	0.068131	0.666712
C109	C	1.060506	-0.671363	0.000062
C110	C	1.393839	-0.338030	0.333395
C111	C	1.727173	-0.004697	0.666729
C112	C	0.907880	-0.654690	0.000061
C113	C	1.241214	-0.321357	0.333394
C114	C	1.574547	0.011977	0.666727
C115	C	0.909171	-0.581864	0.000052
C116	C	1.242504	-0.248531	0.333385
C117	C	1.575838	0.084803	0.666718
C118	C	0.986130	-0.553791	0.000041
C119	C	1.319464	-0.220458	0.333374
C120	C	1.652797	0.112876	0.666707
C121	C	1.141871	0.090282	0.000037
C122	C	1.475204	0.423615	0.333371
C123	C	1.808538	0.756949	0.666704
C124	C	1.234819	0.091645	0.000044
C125	C	1.568152	0.424979	0.333377
C126	C	1.901485	0.758312	0.666711
C127	C	0.982186	0.223053	0.000051
C128	C	1.315519	0.556386	0.333385
C129	C	1.648853	0.889720	0.666718
C130	C	0.983554	0.300561	0.000063
C131	C	1.316887	0.633894	0.333396
C132	C	1.650221	0.967228	0.666729
N133	N	0.988747	0.095407	-0.189667
N134	N	1.322080	0.428740	0.143667
N135	N	1.655413	0.762074	0.477000
C136	C	1.039418	0.137749	-0.771936
C137	C	1.372751	0.471082	-0.438603
C138	C	1.706085	0.804415	-0.105270
C139	C	1.039409	0.137756	-0.695291
C140	C	1.372743	0.471089	-0.361958
C141	C	1.706076	0.804422	-0.028625
C142	C	0.988785	0.095393	-0.656979
C143	C	1.322118	0.428726	-0.323646
C144	C	1.655452	0.762059	0.009687
C145	C	0.938149	0.053033	-0.695319
C146	C	1.271483	0.386367	-0.361985
C147	C	1.604816	0.719700	-0.028652
C148	C	0.938153	0.053033	-0.771962
C149	C	1.271486	0.386366	-0.438629
C150	C	1.604820	0.719699	-0.105295
N151	N	0.986757	0.034228	-0.536650
N152	N	1.320090	0.367561	-0.203317
N153	N	1.653424	0.700894	0.130017
N154	N	0.986758	0.034230	-0.463842
N155	N	1.320091	0.367563	-0.130508
N156	N	1.653425	0.700896	0.202825
C157	C	0.988769	0.095393	-0.426057
C158	C	1.322102	0.428726	-0.092724
C159	C	1.655436	0.762060	0.240610
N160	N	0.990795	0.156554	-0.463831
N161	N	1.324128	0.489888	-0.130497
N162	N	1.657462	0.823221	0.202836
N163	N	0.990798	0.156551	-0.536645
N164	N	1.324132	0.489884	-0.203312
N165	N	1.657465	0.823218	0.130021
C166	C	0.988775	0.095389	-0.573872
C167	C	1.322108	0.428722	-0.240539
C168	C	1.655441	0.762056	0.092794
C169	C	1.039387	0.137761	-0.304620
C170	C	1.372721	0.471094	0.028714
C171	C	1.706054	0.804428	0.362047
C172	C	1.039373	0.137770	-0.227973
C173	C	1.372706	0.471103	0.105360
C174	C	1.706039	0.804436	0.438693
C175	C	0.938117	0.053041	-0.228002
C176	C	1.271451	0.386374	0.105331
C177	C	1.604784	0.719707	0.438664
C178	C	0.938127	0.053039	-0.304647
C179	C	1.271461	0.386372	0.028686
C180	C	1.604794	0.719705	0.362020
C181	C	0.988767	0.095398	-0.342951
C182	C	1.322100	0.428731	-0.009618
C183	C	1.655434	0.762064	0.323715
N184	N	0.988793	0.095392	0.189734
N185	N	1.322126	0.428725	0.523067
N186	N	1.655459	0.762058	0.856400
H187	H	0.417800	0.082251	0.121270
H188	H	0.751133	0.415584	0.454604
H189	H	1.084467	0.748918	0.787937
F190	F	1.093243	0.182867	-0.187180
F191	F	1.426576	0.516201	0.146153
F192	F	1.759909	0.849534	0.479487
H193	H	0.853078	-0.233523	0.000027
H194	H	1.186411	0.099811	0.333361
H195	H	1.519744	0.433144	0.666694
H196	H	1.129971	-0.263762	0.000021
H197	H	1.463304	0.069571	0.333354
H198	H	1.796637	0.402904	0.666688
F199	F	0.836486	-0.090209	0.000025
F200	F	1.169819	0.243125	0.333358
F201	F	1.503153	0.576458	0.666691
F202	F	1.093304	0.182831	-0.654489
F203	F	1.426638	0.516164	-0.321156
F204	F	1.759971	0.849498	0.012177
H205	H	0.896929	0.018543	-0.664120
H206	H	1.230262	0.351876	-0.330787
H207	H	1.563595	0.685209	0.002547
F208	F	0.884268	0.007949	-0.812757
F209	F	1.217601	0.341282	-0.479423
F210	F	1.550935	0.674615	-0.146090
H211	H	0.563565	0.082227	-0.121597
H212	H	0.896898	0.415560	0.211737
H213	H	1.230232	0.748893	0.545070
H214	H	0.432382	-0.000602	0.071806
H215	H	0.765716	0.332731	0.405140
H216	H	1.099049	0.666064	0.738473
F217	F	0.585354	-0.015049	0.073346
F218	F	0.918688	0.318284	0.406680
F219	F	1.252021	0.651617	0.740013
F220	F	1.093279	0.182845	-0.345389
F221	F	1.426612	0.516178	-0.012055
F222	F	1.759946	0.849511	0.321278
H223	H	0.896893	0.018552	-0.196809
H224	H	1.230226	0.351885	0.136524
H225	H	1.563560	0.685219	0.469857
H226	H	0.896906	0.018544	-0.335856
H227	H	1.230240	0.351877	-0.002522
H228	H	1.563573	0.685210	0.330811
H229	H	0.418772	0.084759	-0.121232
H230	H	0.752105	0.418092	0.212102
H231	H	1.085438	0.751425	0.545435
F232	F	1.143700	-0.568656	0.000030
F233	F	1.477033	-0.235322	0.333364
F234	F	1.810366	0.098011	0.666697
F235	F	1.141040	-0.718983	0.000064
F236	F	1.474374	-0.385649	0.333397
F237	F	1.807707	-0.052316	0.666731
F238	F	0.549219	0.213231	-0.064732
F239	F	0.882553	0.546564	0.268601
F240	F	1.215886	0.879897	0.601934
F241	F	0.390754	0.210492	-0.064676
F242	F	0.724087	0.543825	0.268658
F243	F	1.057421	0.877158	0.601991
H244	H	0.847559	-0.545433	0.000050
H245	H	1.180892	-0.212100	0.333383
H246	H	1.514225	0.121234	0.666716
H247	H	1.132307	-0.131647	0.000002
H248	H	1.465640	0.201686	0.333335
H249	H	1.798974	0.535019	0.666669
F250	F	0.550285	0.212481	0.064996
F251	F	0.883618	0.545814	0.398330
F252	F	1.216952	0.879148	0.731663
H253	H	0.845225	-0.677553	0.000064
H254	H	1.178558	-0.344219	0.333397
H255	H	1.511892	-0.010886	0.666730
H256	H	0.400162	0.201217	0.050361
H257	H	0.733496	0.534551	0.383694
H258	H	1.066829	0.867884	0.717028
H259	H	0.561126	0.085513	0.121559
H260	H	0.894459	0.418846	0.454893
H261	H	1.227793	0.752180	0.788226
F262	F	0.426437	-0.016681	-0.075657
F263	F	0.759770	0.316652	0.257677
F264	F	1.093103	0.649986	0.591010
H265	H	1.080651	0.172242	-0.803119
H266	H	1.413985	0.505575	-0.469785
H267	H	1.747318	0.838909	-0.136452
H268	H	0.575151	0.000809	-0.069661
H269	H	0.908485	0.334142	0.263672
H270	H	1.241818	0.667476	0.597005
