data_functionalizedCrystal
_audit_creation_method	'MofGen! by Chris Wilmer'
_symmetry_space_group_name_H-M	'P1'
_symmetry_Int_Tables_number	1
_symmetry_cell_setting	triclinic
loop_
_symmetry_equiv_pos_as_xyz
  x,y,z
_cell_length_a	6.817900
_cell_length_b	11.168129
_cell_length_c	16.305550
_cell_angle_alpha	93.901275
_cell_angle_beta	103.455250
_cell_angle_gamma	108.508637
loop_
_atom_site_label
_atom_site_type_symbol
_atom_site_fract_x
_atom_site_fract_y
_atom_site_fract_z
V1	V	-4.052076	-0.175770	-0.263039
O2	O	-4.012761	0.007350	-0.258024
O3	O	-4.028758	-0.347468	-0.261247
O4	O	-4.003155	-0.173548	-0.377756
O5	O	-4.038541	-0.167775	-0.140709
V6	V	-4.532521	-0.153810	-0.248406
O7	O	-4.320085	-0.223942	-0.295136
O8	O	-4.714708	-0.105639	-0.216309
O9	O	-4.332632	0.017888	-0.250198
O10	O	-4.689232	-0.336931	-0.253421
O11	O	-4.663452	-0.161806	-0.370736
O12	O	-4.358235	-0.156033	-0.133689
C13	C	-3.879877	-0.389310	-0.257099
C14	C	-3.942096	-0.529678	-0.256399
C15	C	-3.929157	-0.574825	-0.182667
C16	C	-3.993462	-0.719903	-0.181941
C17	C	-3.847217	-0.167455	-0.405717
C18	C	-3.888669	-0.166774	-0.499498
C19	C	-4.039368	-0.164135	-0.840244
C20	C	-3.802168	-0.156300	-0.799315
C21	C	-3.759156	-0.157531	-0.701820
C22	C	-3.964602	-0.165443	-0.671196
C23	C	-4.149962	-0.290149	-0.721828
C24	C	-4.191721	-0.289444	-0.819377
C25	C	-4.077095	-0.048261	-0.794396
C26	C	-4.029020	-0.047274	-0.696553
C27	C	-3.922362	-0.166188	-0.575658
C28	C	-4.081619	-0.163400	-0.935783
C29	C	-4.144855	0.059723	-0.254343
C30	C	-4.061875	0.200090	-0.255049
C31	C	-4.177515	-0.162130	-0.105724
C32	C	-4.115301	-0.162804	-0.011941
H33	H	-3.982477	-0.758795	-0.118815
H34	H	-3.870484	-0.506073	-0.120080
O35	O	-4.075302	-0.753485	-0.330353
C36	C	-4.217885	-0.684367	-0.339280
H37	H	-4.332821	-0.718071	-0.298067
H38	H	-4.313408	-0.701026	-0.408960
H39	H	-4.122726	-0.578116	-0.318034
H40	H	-3.894419	0.044966	-0.662171
H41	H	-3.619482	-0.067868	-0.666793
H42	H	-3.682791	-0.066213	-0.811675
O43	O	-4.011806	-0.611554	-0.331119
C44	C	-3.849680	-0.584482	-0.374300
H45	H	-3.737102	-0.481443	-0.351560
H46	H	-3.926019	-0.598266	-0.445903
H47	H	-3.754824	-0.651846	-0.360354
H48	H	-3.769312	-0.239551	-0.830830
O49	O	-3.695053	-0.258144	-0.682444
C50	C	-3.857545	-0.372904	-0.726420
H51	H	-4.018602	-0.357281	-0.743381
H52	H	-3.865514	-0.450504	-0.684081
H53	H	-3.819917	-0.403724	-0.787357
H54	H	-3.971808	0.046228	-0.807759
H55	H	-4.176080	-0.045722	-0.675205
O56	O	-4.163748	-0.393950	-0.855714
C57	C	-3.998758	-0.354610	-0.896919
H58	H	-3.980601	-0.254526	-0.912916
H59	H	-4.040929	-0.423849	-0.958220
H60	H	-3.841333	-0.353645	-0.852945
O61	O	-4.401130	-0.302734	-0.852771
C62	C	-4.534041	-0.419153	-0.836766
H63	H	-4.440707	-0.487798	-0.825985
H64	H	-4.680619	-0.462934	-0.893873
H65	H	-4.588273	-0.400868	-0.777498
O66	O	-4.334283	-0.302285	-0.699142
C67	C	-4.298311	-0.197876	-0.637022
H68	H	-4.119715	-0.155057	-0.602923
H69	H	-4.392595	-0.231841	-0.588696
H70	H	-4.353536	-0.122304	-0.669214
O71	O	-4.099111	-0.394742	-0.701629
C72	C	-4.069762	-0.397411	-0.613362
H73	H	-4.028047	-0.296714	-0.578781
H74	H	-3.933461	-0.434865	-0.588197
H75	H	-4.224038	-0.462811	-0.601733
O76	O	-4.283213	-0.053932	-0.826507
C77	C	-4.392946	-0.162089	-0.890067
H78	H	-4.272044	-0.191626	-0.916850
H79	H	-4.508344	-0.138001	-0.943582
H80	H	-4.487184	-0.244096	-0.861168
