data_functionalizedCrystal
_audit_creation_method	'MofGen! by Chris Wilmer'
_symmetry_space_group_name_H-M	'P1'
_symmetry_Int_Tables_number	1
_symmetry_cell_setting	triclinic
loop_
_symmetry_equiv_pos_as_xyz
  x,y,z
_cell_length_a	16.992694
_cell_length_b	11.295483
_cell_length_c	16.992695
_cell_angle_alpha	85.625069
_cell_angle_beta	90.668223
_cell_angle_gamma	94.379711
loop_
_atom_site_label
_atom_site_type_symbol
_atom_site_fract_x
_atom_site_fract_y
_atom_site_fract_z
O1	O	1.055813	0.098876	0.161955
O2	O	0.827415	0.098911	0.160122
O3	O	0.940698	0.098884	0.046839
O4	O	0.942530	0.098903	0.275238
O5	O	0.930747	-0.099164	0.056773
O6	O	0.817464	-0.099137	0.170056
O7	O	1.045862	-0.099172	0.171889
Cu8	Cu	0.930755	-0.117238	0.171879
Cu9	Cu	0.942523	0.116977	0.160132
O10	O	0.932579	-0.099146	0.285172
C11	C	0.793080	-0.000109	0.162733
C12	C	0.705596	-0.000096	0.155703
N13	N	0.922483	-0.281973	0.180142
C14	C	0.659605	-0.000091	0.223521
C15	C	0.577403	-0.000108	0.216913
C16	C	0.541194	-0.000121	0.142486
C17	C	0.587191	-0.000129	0.074664
C18	C	0.669391	-0.000121	0.081273
C19	C	0.295878	-0.000155	0.115093
C20	C	0.213673	-0.000160	0.108489
C21	C	0.203891	-0.000141	0.250739
C22	C	0.286093	-0.000125	0.257342
C23	C	0.332082	-0.000140	0.189519
N24	N	0.457172	-0.000135	0.135730
N25	N	0.416103	-0.000135	0.196277
C26	C	1.010339	-0.531283	0.092341
C27	C	1.004094	-0.655945	0.098591
C28	C	0.903745	-0.655961	0.198887
C29	C	0.909990	-0.531299	0.192637
C30	C	0.963290	-0.468964	0.139363
C31	C	0.969538	-0.344300	0.133118
C32	C	0.869186	-0.344319	0.233409
C33	C	0.862941	-0.468981	0.239659
C34	C	1.080198	-0.000150	0.169278
C35	C	1.167682	-0.000155	0.176307
C36	C	0.933367	-0.000139	0.022446
C37	C	0.926338	-0.000138	-0.065039
N38	N	0.950800	0.281711	0.151863
C39	C	0.994156	-0.000150	-0.111029
C40	C	0.987547	-0.000137	-0.193231
C41	C	0.913120	-0.000122	-0.229440
C42	C	0.845298	-0.000107	-0.183444
C43	C	0.851908	-0.000111	-0.101244
C44	C	0.885727	-0.000101	-0.474755
C45	C	0.879122	-0.000101	-0.556960
C46	C	1.021372	-0.000130	-0.566742
C47	C	1.027975	-0.000141	-0.484540
C48	C	0.960153	-0.000119	-0.438552
N49	N	0.906364	-0.000113	-0.313462
N50	N	0.966911	-0.000119	-0.354531
C51	C	0.939911	-0.000119	0.309565
C52	C	0.946940	-0.000113	0.397049
H53	H	0.539961	-0.000103	0.272138
N54	N	0.812579	-0.000083	-0.425159
H55	H	0.764429	-0.000079	-0.460572
H56	H	0.808533	-0.073502	-0.387161
N57	N	0.846270	-0.723223	0.256342
H58	H	0.859926	-0.701534	0.311698
H59	H	0.790938	-0.701523	0.242597
H60	H	0.689080	-0.000079	0.284128
H61	H	0.784698	-0.000087	-0.212932
H62	H	0.830877	-0.293565	0.271700
H63	H	0.796683	-0.000101	-0.063799
N64	N	1.094519	-0.000155	-0.616343
H65	H	1.079042	-0.000151	-0.673910
H66	H	1.130423	0.073258	-0.607790
N67	N	0.325147	-0.000089	0.337615
H68	H	0.283538	-0.000083	0.379576
H69	H	0.355364	-0.073497	0.347148
H70	H	1.012939	-0.293548	0.089742
H71	H	1.054762	-0.000170	-0.081554
H72	H	1.088581	-0.000153	-0.455065
N73	N	0.805452	-0.536216	0.297112
H74	H	0.808633	-0.624646	0.293936
H75	H	0.819139	-0.514424	0.352438
N76	N	0.548148	-0.000137	-0.005616
H77	H	0.560911	-0.073557	-0.031875
H78	H	0.489107	-0.000092	0.000545
H79	H	1.042771	-0.000150	-0.230673
H80	H	0.818511	-0.000108	-0.586438
H81	H	0.184195	-0.000169	0.047879
N82	N	0.154298	-0.000140	0.323894
H83	H	0.123653	0.073271	0.320648
H84	H	0.116342	-0.073611	0.327968
N85	N	1.054846	-0.723163	0.047882
H86	H	1.089559	-0.664753	0.013190
H87	H	1.088942	-0.774870	0.082819
H88	H	0.333313	-0.000168	0.059867
N89	N	0.718999	-0.000135	0.008128
H90	H	0.683589	-0.000143	-0.040025
H91	H	0.757001	0.073284	0.004085
H92	H	1.053743	-0.480529	0.048969
