data_functionalizedCrystal
_audit_creation_method	'MofGen! by Chris Wilmer'
_symmetry_space_group_name_H-M	'P1'
_symmetry_Int_Tables_number	1
_symmetry_cell_setting	triclinic
loop_
_symmetry_equiv_pos_as_xyz
  x,y,z
_cell_length_a	12.759395
_cell_length_b	12.759394
_cell_length_c	12.759387
_cell_angle_alpha	89.968595
_cell_angle_beta	89.982252
_cell_angle_gamma	90.015598
loop_
_atom_site_label
_atom_site_type_symbol
_atom_site_fract_x
_atom_site_fract_y
_atom_site_fract_z
Zn1	Zn	1.606234	-0.418192	-0.594013
Zn2	Zn	1.606134	-0.593909	-0.418331
Zn3	Zn	1.430542	-0.418247	-0.418349
Zn4	Zn	1.430524	-0.593832	-0.593969
O5	O	1.518358	-0.506045	-0.506165
O6	O	1.753242	-0.441511	-0.570720
O7	O	1.582807	-0.570661	-0.271312
O8	O	1.453897	-0.271218	-0.441677
O9	O	1.753168	-0.570609	-0.441647
O10	O	1.582977	-0.271178	-0.570737
O11	O	1.453800	-0.441603	-0.271325
O12	O	1.283518	-0.441529	-0.441634
O13	O	1.453866	-0.570479	-0.740996
O14	O	1.283505	-0.570531	-0.570661
O15	O	1.582960	-0.441437	-0.741029
O16	O	1.582790	-0.740920	-0.441604
O17	O	1.453770	-0.740864	-0.570644
C18	C	1.245391	-0.506028	-0.506145
C19	C	1.128614	-0.506047	-0.506161
C20	C	0.909256	-0.371857	-0.640817
C21	C	0.964160	-0.304740	-0.708115
C22	C	1.073882	-0.304722	-0.708096
C23	C	1.128701	-0.371831	-0.640775
C24	C	1.073797	-0.438948	-0.573477
C25	C	0.964073	-0.438956	-0.573501
C26	C	1.073710	-0.573164	-0.438863
C27	C	0.963988	-0.573178	-0.438874
C28	C	1.128530	-0.640272	-0.371542
C29	C	1.073625	-0.707386	-0.304237
C30	C	0.963897	-0.707400	-0.304257
C31	C	0.909084	-0.640295	-0.371577
C32	C	1.518295	-0.779012	-0.506140
C33	C	1.518364	-0.895789	-0.506164
C34	C	1.652814	-0.895794	-0.371895
C35	C	1.720066	-0.950657	-0.304773
C36	C	1.720127	-1.060379	-0.304802
C37	C	1.652932	-1.115240	-0.371962
C38	C	1.585680	-1.060377	-0.439084
C39	C	1.585623	-0.950652	-0.439046
C40	C	1.451237	-1.060372	-0.573357
C41	C	1.451169	-0.950650	-0.573324
C42	C	1.384042	-1.115232	-0.640517
C43	C	1.316783	-1.060369	-0.707635
C44	C	1.316723	-0.950641	-0.707603
C45	C	1.383917	-0.895787	-0.640446
C46	C	1.792392	-0.506062	-0.506187
C47	C	1.909168	-0.506070	-0.506196
C48	C	1.518422	-0.505943	-0.780199
C49	C	1.518449	-0.505900	-0.896976
C50	C	1.518450	-0.232012	-0.506214
C51	C	1.518489	-0.115235	-0.506235
C52	C	1.652858	-0.640215	-1.116388
C53	C	1.720005	-0.707431	-1.061510
C54	C	1.719970	-0.707471	-0.951788
C55	C	1.652779	-0.640290	-0.896942
C56	C	1.585631	-0.573075	-0.951820
C57	C	1.585675	-0.573040	-1.061544
C58	C	1.451302	-0.438685	-0.951854
C59	C	1.451340	-0.438638	-1.061575
C60	C	1.384110	-0.371504	-0.897007
C61	C	1.316966	-0.304282	-0.951885
C62	C	1.317005	-0.304244	-1.061614
C63	C	1.384193	-0.371422	-1.116453
C64	C	1.518355	-0.506071	-0.233198
C65	C	1.518532	-0.505818	-0.116422
H66	H	1.118585	-0.250071	-0.762898
O67	O	0.905036	-0.232361	-0.780725
H68	H	0.926109	-0.149882	-0.762849
H69	H	0.819914	-0.371842	-0.640815
H70	H	1.652757	-0.806453	-0.371852
H71	H	1.218042	-0.371820	-0.640776
O72	O	1.384073	-0.371534	-0.778665
H73	H	1.442061	-0.429548	-0.749716
O74	O	0.904678	-0.779786	-0.231665
H75	H	0.961235	-0.826436	-0.184849
O76	O	1.792543	-0.891474	-0.232354
H77	H	1.774591	-0.912612	-0.149884
H78	H	1.261963	-0.905977	-0.762266
H79	H	1.774708	-0.762131	-1.106178
O80	O	1.792677	-1.119571	-0.232432
H81	H	1.745715	-1.169659	-0.178964
O82	O	1.244307	-1.119544	-0.780053
H83	H	1.291330	-1.169455	-0.833554
O84	O	1.653004	-1.233583	-0.372006
H85	H	1.573787	-1.262599	-0.350725
O86	O	1.384094	-1.233575	-0.640546
H87	H	1.442135	-1.262511	-0.582580
H88	H	1.383868	-0.806446	-0.640407
H89	H	1.652902	-0.640180	-1.205729
H90	H	1.774653	-0.762198	-0.907107
O91	O	1.652736	-0.640330	-0.778599
H92	H	1.710717	-0.698352	-0.749653
H93	H	1.217871	-0.640259	-0.371538
O94	O	1.132746	-0.779756	-0.231627
H95	H	1.218266	-0.768466	-0.242919
H96	H	1.262260	-0.249594	-0.907221
O97	O	0.790741	-0.640311	-0.371591
H98	H	0.761847	-0.661649	-0.450801
H99	H	1.384235	-0.371393	-1.205795
H100	H	1.262323	-0.249511	-1.106289
