data_functionalizedCrystal
_audit_creation_method	'MofGen! by Chris Wilmer'
_symmetry_space_group_name_H-M	'P1'
_symmetry_Int_Tables_number	1
_symmetry_cell_setting	triclinic
loop_
_symmetry_equiv_pos_as_xyz
  x,y,z
_cell_length_a	17.019311
_cell_length_b	17.038272
_cell_length_c	12.996460
_cell_angle_alpha	89.993697
_cell_angle_beta	86.114693
_cell_angle_gamma	87.245400
loop_
_atom_site_label
_atom_site_type_symbol
_atom_site_fract_x
_atom_site_fract_y
_atom_site_fract_z
O1	O	1.053367	0.099635	-0.178902
O2	O	1.553367	0.599635	0.321098
O3	O	0.824554	0.112328	-0.158630
O4	O	1.324554	0.612328	0.341370
O5	O	0.937601	-0.007833	-0.168638
O6	O	1.437601	0.492167	0.331362
O7	O	0.940320	0.219796	-0.168895
O8	O	1.440320	0.719796	0.331105
O9	O	0.937588	-0.007839	0.002497
O10	O	1.437588	0.492161	0.502497
O11	O	0.824541	0.112322	0.012505
O12	O	1.324541	0.612322	0.512505
O13	O	1.053354	0.099628	-0.007767
O14	O	1.553354	0.599628	0.492233
Cu15	Cu	0.938946	0.105974	0.017995
Cu16	Cu	1.438946	0.605974	0.517995
Cu17	Cu	0.938962	0.105982	-0.184392
Cu18	Cu	1.438962	0.605982	0.315608
O19	O	0.940307	0.219789	0.002240
O20	O	1.440307	0.719789	0.502240
C21	C	0.795126	0.111843	-0.070456
C22	C	1.295126	0.611843	0.429544
C23	C	0.707458	0.110396	-0.062689
C24	C	1.207458	0.610396	0.437311
C25	C	0.211627	0.102237	-0.014081
C26	C	0.711627	0.602237	0.485919
C27	C	0.294000	0.103597	-0.021382
C28	C	0.794000	0.603597	0.478618
C29	C	0.335194	0.104274	-0.118319
C30	C	0.835194	0.604274	0.381681
C31	C	0.294010	0.103600	-0.207962
C32	C	0.794010	0.603600	0.292038
C33	C	0.211639	0.102246	-0.200661
C34	C	0.711639	0.602246	0.299339
C35	C	0.583903	0.108367	-0.145031
C36	C	1.083903	0.608367	0.354969
C37	C	0.666281	0.109719	-0.152325
C38	C	1.166281	0.609719	0.347675
C39	C	0.666265	0.109717	0.034256
C40	C	1.166265	0.609717	0.534256
C41	C	0.583892	0.108358	0.041549
C42	C	1.083892	0.608358	0.541549
C43	C	0.542715	0.107689	-0.048094
C44	C	1.042715	0.607689	0.451906
C45	C	0.419392	0.105661	-0.125783
C46	C	0.919392	0.605661	0.374217
C47	C	0.458518	0.106307	-0.040629
C48	C	0.958518	0.606307	0.459371
C49	C	0.935120	-0.036962	-0.082851
C50	C	1.435120	0.463038	0.417149
C51	C	0.927740	-0.123749	-0.082198
C52	C	1.427740	0.376251	0.417802
C53	C	0.995500	-0.173919	-0.088200
C54	C	1.495500	0.326081	0.411800
C55	C	0.988561	-0.255464	-0.087595
C56	C	1.488561	0.244536	0.412405
C57	C	0.913861	-0.286837	-0.080980
C58	C	1.413861	0.213163	0.419020
C59	C	0.846095	-0.236660	-0.074981
C60	C	1.346095	0.263340	0.425019
C61	C	0.853035	-0.155117	-0.075593
C62	C	1.353035	0.344883	0.424407
C63	C	0.889343	-0.532575	-0.078822
C64	C	1.389343	-0.032575	0.421178
C65	C	0.882408	-0.614124	-0.078207
C66	C	1.382408	-0.114124	0.421793
C67	C	1.024874	-0.632923	-0.090823
C68	C	1.524874	-0.132923	0.409177
C69	C	1.031808	-0.551377	-0.091429
C70	C	1.531808	-0.051377	0.408571
C71	C	0.964042	-0.501207	-0.085435
C72	C	1.464042	-0.001207	0.414565
C73	C	0.906766	-0.370189	-0.080358
C74	C	1.406766	0.129811	0.419642
C75	C	0.971138	-0.417857	-0.086064
C76	C	1.471138	0.082143	0.413936
C77	C	1.082782	0.100114	-0.095944
C78	C	1.582782	0.600114	0.404056
C79	C	1.170449	0.101561	-0.103718
C80	C	1.670449	0.601561	0.396282
C81	C	0.942788	0.248919	-0.083549
C82	C	1.442788	0.748919	0.416451
C83	C	0.950168	0.335705	-0.084209
C84	C	1.450168	0.835705	0.415791
N85	N	0.938941	0.105968	0.160342
N86	N	1.438941	0.605968	0.660342
N87	N	0.938973	0.105982	-0.326740
N88	N	1.438973	0.605982	0.173260
C89	C	0.938961	0.105983	0.580155
C90	C	1.438961	0.605983	1.080155
C91	C	0.938953	0.105981	0.463350
C92	C	1.438953	0.605981	0.963350
C93	C	0.938951	0.105976	0.370252
C94	C	1.438951	0.605976	0.870252
C95	C	0.938943	0.105974	0.253440
C96	C	1.438943	0.605974	0.753440
H97	H	0.424974	0.105760	0.038297
H98	H	0.924974	0.605760	0.538297
Cl99	Cl	0.532149	0.107520	-0.257726
Cl100	Cl	1.032149	0.607520	0.242274
H101	H	0.178093	0.101689	0.064855
H102	H	0.678093	0.601689	0.564855
Cl103	Cl	0.345762	0.104452	0.091310
Cl104	Cl	0.845762	0.604452	0.591310
Cl105	Cl	0.345797	0.104452	-0.329827
Cl106	Cl	0.845797	0.604452	0.170173
Cl107	Cl	0.718067	0.110571	-0.274199
Cl108	Cl	1.218067	0.610571	0.225801
Cl109	Cl	0.532110	0.107525	0.163418
Cl110	Cl	1.032110	0.607525	0.663418
Cl111	Cl	0.718034	0.110566	0.146942
Cl112	Cl	1.218034	0.610566	0.646942
Cl113	Cl	0.804151	-0.469515	-0.071289
Cl114	Cl	1.304151	0.030485	0.428711
H115	H	0.452942	0.106211	-0.204710
H116	H	0.952942	0.606211	0.295290
Cl117	Cl	1.065043	-0.378415	-0.094385
Cl118	Cl	1.565043	0.121585	0.405615
H119	H	1.043739	-0.296310	-0.092480
H120	H	1.543739	0.203690	0.407520
H121	H	0.178113	0.101697	-0.273653
H122	H	0.678113	0.601697	0.226347
Cl123	Cl	1.089414	-0.134488	-0.096505
Cl124	Cl	1.589414	0.365512	0.403495
Cl125	Cl	1.125720	-0.511943	-0.099778
Cl126	Cl	1.625720	-0.011943	0.400222
Cl127	Cl	0.752186	-0.276101	-0.066678
Cl128	Cl	1.252186	0.223899	0.433322
H129	H	1.080044	-0.673779	-0.095705
H130	H	1.580044	-0.173779	0.404295
Cl131	Cl	0.788492	-0.653563	-0.069885
Cl132	Cl	1.288492	-0.153563	0.430115
Cl133	Cl	0.767847	-0.092045	-0.068051
Cl134	Cl	1.267847	0.407955	0.431949
H135	H	0.845944	-0.395742	-0.074970
H136	H	1.345944	0.104258	0.425030
