data_functionalizedCrystal
_audit_creation_method	'MofGen! by Chris Wilmer'
_symmetry_space_group_name_H-M	'P1'
_symmetry_Int_Tables_number	1
_symmetry_cell_setting	triclinic
loop_
_symmetry_equiv_pos_as_xyz
  x,y,z
_cell_length_a	25.639242
_cell_length_b	16.994747
_cell_length_c	25.639233
_cell_angle_alpha	89.993240
_cell_angle_beta	90.022166
_cell_angle_gamma	90.006589
loop_
_atom_site_label
_atom_site_type_symbol
_atom_site_fract_x
_atom_site_fract_y
_atom_site_fract_z
Zn1	Zn	0.799326	-0.314218	0.295835
Zn2	Zn	0.799291	-0.446103	0.208438
Zn3	Zn	0.711902	-0.314207	0.208399
Zn4	Zn	0.711889	-0.446074	0.295828
O5	O	0.755602	-0.380150	0.252125
O6	O	0.872486	-0.331730	0.284261
O7	O	0.787690	-0.428614	0.135268
O8	O	0.723518	-0.203827	0.219984
O9	O	0.872461	-0.428625	0.220051
O10	O	0.787748	-0.203835	0.284223
O11	O	0.723485	-0.331710	0.135239
O12	O	0.638735	-0.331682	0.219977
O13	O	0.723497	-0.428575	0.368994
O14	O	0.638726	-0.428564	0.284211
O15	O	0.787736	-0.331702	0.368999
O16	O	0.787677	-0.556480	0.220044
O17	O	0.723463	-0.556459	0.284249
C18	C	0.619759	-0.380119	0.252090
C19	C	0.561645	-0.380125	0.252087
C20	C	0.755572	-0.585090	0.252149
C21	C	0.755575	-0.674412	0.252147
Zn22	Zn	0.711917	-0.945293	0.208384
Zn23	Zn	0.799349	-0.945283	0.295812
Zn24	Zn	0.711907	-0.813466	0.295819
Zn25	Zn	0.799301	-0.813358	0.208421
O26	O	0.755618	-0.879350	0.252109
O27	O	0.723539	-1.055673	0.219963
O28	O	0.787765	-0.927838	0.368978
O29	O	0.638743	-0.831003	0.284209
O30	O	0.787775	-1.055666	0.284196
O31	O	0.638750	-0.927855	0.219971
O32	O	0.723522	-0.830993	0.368984
O33	O	0.723476	-0.703071	0.284244
O34	O	0.787693	-0.830819	0.135251
O35	O	0.787683	-0.702991	0.220033
O36	O	0.723492	-0.927751	0.135224
O37	O	0.872508	-0.927734	0.284232
O38	O	0.872472	-0.830809	0.220026
C39	C	0.201286	-0.430681	0.285540
C40	C	0.146682	-0.430686	0.285548
O41	O	0.118449	-0.473632	0.313961
N42	N	0.119363	-0.380172	0.252159
C43	C	0.146651	-0.329644	0.218764
O44	O	0.118400	-0.286678	0.190365
C45	C	0.201254	-0.329636	0.218758
C46	C	0.228570	-0.380159	0.252146
C47	C	0.228603	-0.481199	0.318925
C48	C	0.283203	-0.481195	0.318916
C49	C	0.310487	-0.430673	0.285522
C50	C	0.283171	-0.380155	0.252137
C51	C	0.228541	-0.279105	0.185366
C52	C	0.283148	-0.279101	0.185364
C53	C	0.310464	-0.329624	0.218751
C54	C	0.365056	-0.329629	0.218733
N55	N	0.392375	-0.380143	0.252122
C56	C	0.365091	-0.430665	0.285517
C57	C	0.031980	-0.329664	0.218778
C58	C	-0.022622	-0.329676	0.218780
C59	C	-0.022587	-0.430717	0.285565
C60	C	0.032016	-0.430709	0.285560
C61	C	0.059299	-0.380178	0.252167
C62	C	0.479756	-0.430653	0.285495
C63	C	0.534361	-0.430647	0.285481
C64	C	0.534321	-0.329604	0.218698
C65	C	0.479721	-0.329612	0.218709
C66	C	0.452439	-0.380140	0.252112
O67	O	0.393324	-0.286702	0.190336
O68	O	0.393348	-0.473617	0.313916
C69	C	0.891975	-0.380182	0.252161
C70	C	0.950089	-0.380196	0.252176
C71	C	0.755619	-0.380137	0.388498
C72	C	0.755626	-0.380131	0.446612
C73	C	0.755635	-0.174410	0.252098
C74	C	0.755651	-0.085088	0.252087
C75	C	0.755615	-0.380107	0.116283
C76	C	0.755709	-0.379891	0.058169
C77	C	0.789118	-0.329539	0.806984
C78	C	0.789124	-0.329517	0.861588
O79	O	0.817558	-0.286595	0.889832
N80	N	0.755684	-0.379946	0.888895
C81	C	0.722231	-0.430394	0.861595
O82	O	0.693787	-0.473285	0.889835
C83	C	0.722222	-0.430411	0.806991
C84	C	0.755668	-0.379985	0.779687
C85	C	0.822561	-0.279115	0.779680
C86	C	0.822555	-0.279139	0.725079
C87	C	0.789106	-0.329585	0.697783
C88	C	0.755662	-0.380008	0.725087
C89	C	0.688767	-0.480855	0.779692
C90	C	0.688761	-0.480868	0.725085
C91	C	0.722207	-0.430441	0.697781
C92	C	0.722207	-0.430477	0.643190
N93	N	0.755648	-0.380048	0.615883
C94	C	0.789097	-0.329602	0.643179
C95	C	0.722251	-0.430353	0.976265
C96	C	0.722262	-0.430340	1.030868
C97	C	0.789155	-0.329462	1.030857
C98	C	0.789146	-0.329479	0.976254
C99	C	0.755691	-0.379924	0.948958
C100	C	0.789083	-0.329655	0.528514
C101	C	0.789075	-0.329684	0.473909
C102	C	0.722181	-0.430560	0.473924
C103	C	0.722190	-0.430533	0.528524
C104	C	0.755642	-0.380074	0.555818
O105	O	0.693787	-0.473375	0.614911
O106	O	0.817531	-0.286711	0.614932
C107	C	0.891461	-0.879261	0.252133
C108	C	0.949575	-0.879245	0.252159
C109	C	0.755588	-0.879274	0.115736
C110	C	0.755576	-0.879241	0.057622
C111	C	0.619245	-0.879442	0.252086
C112	C	0.561131	-0.879481	0.252077
C113	C	0.755611	-0.879471	0.387952
C114	C	0.755477	-0.879654	0.446065
C115	C	0.976869	-0.929749	0.285572
C116	C	1.031473	-0.929750	0.285597
C117	C	1.058783	-0.879243	0.252210
C118	C	1.031485	-0.828737	0.218793
C119	C	0.976881	-0.828741	0.218766
C120	C	0.722140	-0.929694	0.030314
C121	C	0.722118	-0.929663	-0.024290
C122	C	0.755534	-0.879184	-0.051586
C123	C	0.788971	-0.828726	-0.024274
C124	C	0.788991	-0.828753	0.030330
C125	C	0.533834	-0.829068	0.285518
C126	C	0.479229	-0.829089	0.285509
C127	C	0.451924	-0.879529	0.252061
C128	C	0.479225	-0.929944	0.218616
C129	C	0.533828	-0.929919	0.218623
C130	C	0.722207	-0.828952	0.473337
C131	C	0.722071	-0.829124	0.527941
C132	C	0.755210	-0.879994	0.555273
C133	C	0.788482	-0.930701	0.527998
C134	C	0.788615	-0.930533	0.473394
H135	H	0.457550	-0.471796	0.312696
O136	O	0.689824	-0.779826	0.554488
C137	C	0.683131	-0.673416	0.616228
C138	C	0.719709	-0.729207	0.586207
H139	H	0.707278	-0.632465	0.641872
H140	H	0.655569	-0.709380	0.641702
H141	H	0.659462	-0.637061	0.587302
H142	H	0.743412	-0.765573	0.615095
H143	H	0.747237	-0.693197	0.560725
H144	H	0.815462	-0.972120	0.550259
O145	O	0.689626	-0.978756	0.056742
C146	C	0.623329	-1.078889	0.050946
C147	C	0.660121	-1.023355	0.020957
H148	H	0.599472	-1.114974	0.022027
H149	H	0.595956	-1.042743	0.076498
H150	H	0.647353	-1.120105	0.076520
H151	H	0.636139	-0.982128	-0.004645
H152	H	0.687496	-1.059550	-0.004562
H153	H	0.661511	-0.521939	0.702864
H154	H	0.755514	-0.879171	-0.096047
O155	O	0.755178	-0.880143	0.608314
C156	C	0.805196	-0.860558	0.686836
C157	C	0.805309	-0.860389	0.626767
H158	H	0.845720	-0.844573	0.701773
H159	H	0.794066	-0.921573	0.701590
H160	H	0.775703	-0.815598	0.701614
H161	H	0.834803	-0.905311	0.611945
H162	H	0.816416	-0.799346	0.612048
O163	O	0.821419	-0.779775	-0.050873
C164	C	0.851001	-0.735005	-0.134993
C165	C	0.814232	-0.790485	-0.104932
H166	H	0.845196	-0.743633	-0.178705
H167	H	0.893177	-0.748848	-0.124295
H168	H	0.841826	-0.671415	-0.124226
H169	H	0.823360	-0.854095	-0.115683
H170	H	0.772068	-0.776575	-0.115632
O171	O	0.689583	-0.978574	-0.050837
C172	C	0.618989	-0.989234	-0.112504
C173	C	0.655792	-0.933751	-0.082467
H174	H	0.591667	-0.953018	-0.138093
H175	H	0.595078	-1.025307	-0.083635
H176	H	0.643007	-1.030463	-0.138050
H177	H	0.631815	-0.892474	-0.056921
H178	H	0.679704	-0.897733	-0.111364
H179	H	1.103244	-0.879248	0.252237
O180	O	0.689675	-0.479409	0.555106
C181	C	0.619057	-0.489963	0.616701
C182	C	0.655862	-0.434531	0.586646
H183	H	0.591703	-0.453701	0.642200
H184	H	0.643021	-0.531193	0.642323
H185	H	0.595176	-0.526039	0.587798
H186	H	0.679751	-0.398405	0.615512
H187	H	0.631868	-0.393353	0.561017
O188	O	0.820989	-0.979807	0.446987
C189	C	0.886830	-1.080598	0.452822
C190	C	0.850199	-1.024819	0.482789
H191	H	0.910447	-1.117016	0.481754
H192	H	0.914432	-1.044623	0.427398
H193	H	0.862697	-1.121488	0.427121
H194	H	0.874289	-0.983917	0.508517
H195	H	0.822595	-1.060843	0.508179
H196	H	0.457008	-0.788034	0.312745
O197	O	1.058097	-0.779698	0.186414
C198	C	1.142229	-0.734960	0.156846
C199	C	1.112154	-0.790528	0.193545
H200	H	1.185939	-0.743708	0.162590
H201	H	1.131535	-0.671358	0.166073
H202	H	1.131472	-0.748718	0.114674
H203	H	1.122894	-0.776841	0.235729
H204	H	1.122850	-0.854114	0.184273
H205	H	0.556059	-0.787991	0.312755
H206	H	0.816221	-0.787670	0.052560
O207	O	0.202083	-0.230061	0.152854
C208	C	0.185356	-0.191598	0.063945
C209	C	0.215353	-0.247182	0.100713
H210	H	0.196066	-0.205432	0.021781
H211	H	0.196121	-0.128007	0.073144
H212	H	0.141641	-0.200242	0.069693
H213	H	0.259075	-0.238609	0.094985
H214	H	0.204545	-0.310753	0.091505
O215	O	0.452616	-0.978917	0.186178
C216	C	0.368487	-1.023617	0.156518
C217	C	0.398559	-0.968126	0.193285
H218	H	0.324777	-1.014901	0.162243
H219	H	0.379193	-1.087238	0.165694
H220	H	0.379235	-1.009755	0.114365
H221	H	0.387827	-0.981917	0.235450
H222	H	0.387850	-0.904522	0.184063
O223	O	0.560815	-0.479751	0.317966
C224	C	0.555076	-0.580002	0.384187
C225	C	0.525056	-0.524424	0.347434
H226	H	0.526178	-0.616147	0.408013
H227	H	0.580642	-0.543886	0.411590
H228	H	0.580640	-0.621160	0.360134
H229	H	0.499464	-0.483255	0.371444
H230	H	0.499523	-0.560589	0.320029
H231	H	0.661531	-0.521918	0.801914
H232	H	0.816321	-0.288564	0.550730
O233	O	0.398882	-0.879479	0.252142
C234	C	0.320533	-0.824140	0.288827
C235	C	0.380602	-0.824131	0.288792
H236	H	0.305736	-0.779385	0.318448
H237	H	0.305692	-0.885213	0.299698
H238	H	0.305702	-0.807792	0.248328
H239	H	0.395478	-0.840446	0.329278
H240	H	0.395407	-0.763051	0.277892
O241	O	0.950292	-0.978856	0.317934
C242	C	0.888676	-1.085419	0.324863
C243	C	0.918726	-1.029834	0.288155
H244	H	0.863156	-1.126660	0.300801
H245	H	0.863075	-1.049310	0.352213
H246	H	0.917582	-1.121474	0.348754
H247	H	0.889857	-0.993767	0.264230
H248	H	0.944334	-1.065989	0.260839
H249	H	0.695221	-0.787524	0.451090
O250	O	0.560400	-0.978940	0.186214
C251	C	0.622023	-1.085453	0.179178
C252	C	0.591978	-1.029969	0.215941
H253	H	0.647553	-1.126735	0.203198
H254	H	0.647613	-1.049267	0.151851
H255	H	0.593113	-1.121469	0.155264
H256	H	0.620850	-0.993941	0.239889
H257	H	0.566380	-1.066201	0.243233
O258	O	0.309654	-0.530293	0.351402
C259	C	0.303905	-0.630539	0.417625
C260	C	0.273890	-0.574963	0.380867
H261	H	0.275003	-0.666681	0.441449
H262	H	0.329467	-0.594422	0.445031
H263	H	0.329470	-0.671700	0.393578
H264	H	0.248296	-0.533791	0.404872
H265	H	0.248360	-0.611129	0.353459
H266	H	0.694949	-0.471634	0.451689
O267	O	0.202081	-0.530170	0.351422
C268	C	0.140453	-0.540981	0.421994
C269	C	0.170460	-0.485422	0.385234
H270	H	0.114871	-0.504825	0.449333
H271	H	0.169341	-0.577067	0.445889
H272	H	0.114902	-0.582196	0.397944
H273	H	0.196011	-0.444160	0.409244
H274	H	0.141543	-0.449392	0.361337
H275	H	1.053692	-0.970877	0.312811
H276	H	-0.044812	-0.471852	0.312759
O277	O	0.058468	-0.479807	0.318045
C278	C	0.052725	-0.580059	0.384264
C279	C	0.022707	-0.524483	0.347508
H280	H	0.023825	-0.616206	0.408087
H281	H	0.078285	-0.543941	0.411671
H282	H	0.078292	-0.621214	0.360215
H283	H	-0.002889	-0.483316	0.371515
H284	H	-0.002821	-0.560650	0.320099
O285	O	-0.049073	-0.280530	0.186326
C286	C	-0.043330	-0.180345	0.120062
C287	C	-0.013312	-0.235955	0.156796
H288	H	-0.014430	-0.144304	0.096169
H289	H	-0.068864	-0.139099	0.144080
H290	H	-0.068924	-0.216510	0.092715
H291	H	0.012311	-0.199854	0.184150
H292	H	0.012190	-0.277203	0.132745
O293	O	0.689852	-0.479420	1.057409
C294	C	0.682805	-0.585873	1.119095
C295	C	0.719571	-0.530352	1.089064
H296	H	0.706817	-0.627055	1.144703
H297	H	0.658911	-0.621987	1.090222
H298	H	0.655461	-0.549635	1.144620
H299	H	0.746947	-0.566529	1.063538
H300	H	0.743429	-0.494236	1.117965
H301	H	0.954663	-0.787610	0.191558
H302	H	0.305359	-0.237947	0.158173
O303	O	0.058539	-0.280695	0.186305
C304	C	0.120119	-0.269920	0.115689
C305	C	0.090087	-0.325465	0.152438
H306	H	0.145625	-0.306096	0.088290
H307	H	0.145732	-0.228732	0.139693
H308	H	0.091200	-0.233806	0.091852
H309	H	0.118969	-0.361631	0.176283
H310	H	0.064467	-0.366602	0.128403
H311	H	0.457479	-0.288474	0.191521
H312	H	0.816313	-0.288620	0.451680
O313	O	0.560890	-0.280639	0.186236
C314	C	0.622491	-0.269866	0.115636
C315	C	0.592441	-0.325411	0.152371
H316	H	0.647998	-0.306044	0.088240
H317	H	0.648103	-0.228694	0.139653
H318	H	0.593583	-0.233735	0.091796
H319	H	0.621310	-0.361594	0.176219
H320	H	0.566820	-0.366532	0.128325
O321	O	0.855058	-0.230073	0.698641
C322	C	0.921424	-0.130041	0.704414
C323	C	0.884633	-0.185560	0.734415
H324	H	0.945352	-0.094050	0.733324
H325	H	0.897448	-0.088744	0.678851
H326	H	0.948734	-0.166274	0.678850
H327	H	0.857315	-0.149391	0.760008
H328	H	0.908641	-0.226860	0.759945
H329	H	0.849800	-0.238032	0.801899
O330	O	0.821577	-0.280376	0.949758
C331	C	0.846998	-0.146210	0.933067
C332	C	0.810230	-0.201734	0.963092
H333	H	0.837845	-0.082617	0.943845
H334	H	0.841249	-0.154808	0.889344
H335	H	0.889153	-0.160110	0.943811
H336	H	0.768061	-0.187868	0.952392
H337	H	0.816024	-0.193125	1.006808
O338	O	0.821593	-0.280472	1.057459
C339	C	0.851254	-0.235763	1.141581
C340	C	0.814488	-0.291268	1.111518
H341	H	0.845530	-0.244484	1.185293
H342	H	0.842076	-0.172146	1.130867
H343	H	0.893407	-0.249608	1.130834
H344	H	0.772323	-0.277495	1.122249
H345	H	0.823711	-0.354869	1.122235
O346	O	0.689741	-0.479445	0.949833
C347	C	0.623380	-0.579478	0.955618
C348	C	0.660177	-0.523935	0.985613
H349	H	0.599460	-0.615451	0.984532
H350	H	0.647350	-0.620790	0.930086
H351	H	0.596062	-0.543264	0.930023
H352	H	0.687503	-0.560085	1.011236
H353	H	0.636174	-0.482620	1.011112
