data_functionalizedCrystal
_audit_creation_method	'MofGen! by Chris Wilmer'
_symmetry_space_group_name_H-M	'P1'
_symmetry_Int_Tables_number	1
_symmetry_cell_setting	triclinic
loop_
_symmetry_equiv_pos_as_xyz
  x,y,z
_cell_length_a	10.654550
_cell_length_b	10.868271
_cell_length_c	10.654551
_cell_angle_alpha	89.998579
_cell_angle_beta	84.485132
_cell_angle_gamma	90.007891
loop_
_atom_site_label
_atom_site_type_symbol
_atom_site_fract_x
_atom_site_fract_y
_atom_site_fract_z
O1	O	1.667842	0.102415	0.176392
O2	O	1.302364	0.102395	0.193199
O3	O	1.493505	0.102406	0.002056
O4	O	1.476701	0.102404	0.367535
O5	O	1.493488	-0.102239	0.002062
O6	O	1.302346	-0.102250	0.193205
O7	O	1.667825	-0.102230	0.176399
Zn8	Zn	1.485083	-0.134732	0.184803
Zn9	Zn	1.485106	0.134897	0.184795
O10	O	1.476683	-0.102241	0.367541
C11	C	1.255557	0.000070	0.191968
C12	C	1.116114	0.000062	0.188276
N13	N	1.485076	-0.318746	0.184807
C14	C	1.036629	0.000079	0.300817
C15	C	0.905608	0.000101	0.297341
C16	C	0.933570	0.000093	0.068771
C17	C	1.064589	0.000063	0.072249
C18	C	1.088154	0.000079	0.416844
C19	C	1.008667	0.000098	0.529395
C20	C	0.877647	0.000119	0.525918
C21	C	0.826112	0.000122	0.409891
C22	C	1.485086	-0.430083	0.184808
C23	C	1.485103	-0.569761	0.184796
C24	C	1.714632	0.000098	0.177629
C25	C	1.854075	0.000114	0.181321
C26	C	1.492263	0.000086	-0.044739
C27	C	1.488570	0.000094	-0.184182
N28	N	1.485122	0.318911	0.184780
C29	C	1.486847	0.111644	-0.249697
C30	C	1.483367	0.111638	-0.380717
C31	C	1.483338	-0.111477	-0.380696
C32	C	1.486809	-0.111470	-0.249677
C33	C	1.488608	0.223208	-0.184202
C34	C	1.486887	0.334767	-0.249717
C35	C	1.483407	0.334761	-0.380738
C36	C	1.481648	0.223196	-0.446242
C37	C	1.477926	0.000081	0.414336
C38	C	1.481619	0.000081	0.553779
H39	H	1.050636	0.000085	0.623860
H40	H	1.478796	0.223201	-0.552926
H41	H	1.491446	0.223225	-0.077519
O42	O	0.800379	-0.000083	0.635207
C43	C	0.636136	-0.106021	0.763914
C44	C	0.723586	-0.105970	0.640107
H45	H	0.574008	-0.191608	0.767904
H46	H	0.695409	-0.106104	0.847483
H47	H	0.574187	-0.020325	0.767972
H48	H	0.785552	-0.191651	0.635926
H49	H	0.664238	-0.105822	0.556597
H50	H	1.481992	0.425597	-0.434075
O51	O	0.883452	0.000325	-0.043898
C52	C	0.751734	0.106350	-0.180439
C53	C	0.808430	0.106248	-0.052810
H54	H	0.691045	0.191967	-0.187675
H55	H	0.831001	0.106413	-0.260334
H56	H	0.691111	0.020684	-0.187760
H57	H	0.869040	0.191900	-0.045365
H58	H	0.729103	0.106122	0.027023
O59	O	1.141759	0.000273	-0.037103
C60	C	1.205752	0.106250	-0.231428
C61	C	1.118302	0.106184	-0.107620
H62	H	1.186799	0.191857	-0.288488
H63	H	1.308266	0.106305	-0.209078
H64	H	1.186868	0.020574	-0.288416
H65	H	1.137073	0.191845	-0.050572
H66	H	1.015817	0.106065	-0.130058
O67	O	1.488361	0.443171	-0.186128
C68	C	1.380858	0.633896	-0.132858
C69	C	1.379022	0.511155	-0.204898
H70	H	1.292481	0.688907	-0.148029
H71	H	1.383560	0.614828	-0.027934
H72	H	1.467955	0.688859	-0.169353
H73	H	1.291937	0.456131	-0.168510
H74	H	1.376386	0.530310	-0.309812
O75	O	1.215398	0.000002	0.420448
C76	C	1.388076	0.000061	0.550849
C77	C	1.243953	0.000115	0.546952
H78	H	1.411208	0.000178	0.653117
H79	H	1.429875	-0.085613	0.501231
H80	H	1.429845	0.085674	0.501066
H81	H	1.202075	-0.085440	0.596748
H82	H	1.202245	0.085846	0.596529
O83	O	1.481465	-0.219766	-0.444440
C84	C	1.368883	-0.349296	-0.579009
C85	C	1.370855	-0.226600	-0.506906
H86	H	1.279451	-0.354873	-0.629509
H87	H	1.454933	-0.354893	-0.651154
H88	H	1.370771	-0.429002	-0.509658
H89	H	1.368925	-0.146824	-0.576161
H90	H	1.284813	-0.221111	-0.434743
O91	O	1.488652	-0.219755	-0.185920
C92	C	1.601185	-0.349285	-0.051332
C93	C	1.599255	-0.226591	-0.123448
H94	H	1.690612	-0.354864	-0.000827
H95	H	1.515130	-0.354879	0.020809
H96	H	1.599275	-0.428993	-0.120676
H97	H	1.601207	-0.146814	-0.054200
H98	H	1.685302	-0.221105	-0.195608
H99	H	0.719425	0.000120	0.407069
