data_functionalizedCrystal
_audit_creation_method	'MofGen! by Chris Wilmer'
_symmetry_space_group_name_H-M	'P1'
_symmetry_Int_Tables_number	1
_symmetry_cell_setting	triclinic
loop_
_symmetry_equiv_pos_as_xyz
  x,y,z
_cell_length_a	21.295419
_cell_length_b	25.639240
_cell_length_c	25.639234
_cell_angle_alpha	90.032088
_cell_angle_beta	90.020581
_cell_angle_gamma	90.047559
loop_
_atom_site_label
_atom_site_type_symbol
_atom_site_fract_x
_atom_site_fract_y
_atom_site_fract_z
Zn1	Zn	0.962321	-0.207976	0.295594
Zn2	Zn	1.462321	0.292024	0.795594
Zn3	Zn	0.962227	-0.295404	0.208147
Zn4	Zn	1.462227	0.204596	0.708147
Zn5	Zn	0.857052	-0.208007	0.208171
Zn6	Zn	1.357052	0.291993	0.708171
Zn7	Zn	0.857010	-0.295405	0.295551
Zn8	Zn	1.357010	0.204595	0.795551
O9	O	0.909652	-0.251698	0.251866
O10	O	1.409652	0.248302	0.751866
O11	O	1.050398	-0.219560	0.284002
O12	O	1.550398	0.280440	0.784002
O13	O	0.948253	-0.283824	0.134985
O14	O	1.448253	0.216176	0.634985
O15	O	0.871073	-0.134838	0.219796
O16	O	1.371073	0.365162	0.719796
O17	O	1.050329	-0.283794	0.219755
O18	O	1.550329	0.216206	0.719755
O19	O	0.948414	-0.134815	0.284025
O20	O	1.448414	0.365185	0.784025
O21	O	0.870981	-0.219614	0.135003
O22	O	1.370981	0.280386	0.635003
O23	O	0.768957	-0.219614	0.219754
O24	O	1.268957	0.280386	0.719754
O25	O	0.871001	-0.283795	0.368722
O26	O	1.371001	0.216205	0.868722
O27	O	0.768926	-0.283825	0.283952
O28	O	1.268926	0.216175	0.783952
O29	O	0.948373	-0.219561	0.368753
O30	O	1.448373	0.280439	0.868753
O31	O	0.948212	-0.368570	0.219713
O32	O	1.448212	0.131430	0.719713
O33	O	0.870910	-0.368570	0.283928
O34	O	1.370910	0.131430	0.783928
C35	C	0.746101	-0.251723	0.251851
C36	C	1.246101	0.248277	0.751851
C37	C	0.676132	-0.251747	0.251857
C38	C	1.176132	0.248253	0.751857
C39	C	0.643324	-0.218355	0.285362
C40	C	1.143324	0.281645	0.785362
C41	C	0.577582	-0.218341	0.285364
C42	C	1.077582	0.281659	0.785364
C43	C	0.544650	-0.251728	0.251867
C44	C	1.044650	0.248272	0.751867
C45	C	0.577466	-0.285122	0.218355
C46	C	1.077466	0.214878	0.718355
C47	C	0.643207	-0.285131	0.218351
C48	C	1.143207	0.214869	0.718351
N49	N	0.441373	-0.297474	0.247777
N50	N	0.941373	0.202526	0.747777
N51	N	0.378921	-0.297464	0.247784
N52	N	0.878921	0.202536	0.747784
C53	C	0.346575	-0.251701	0.251878
C54	C	0.846575	0.248299	0.751878
N55	N	0.379040	-0.205948	0.255975
N56	N	0.879040	0.294052	0.755975
N57	N	0.441497	-0.205958	0.255970
N58	N	0.941497	0.294042	0.755970
C59	C	0.473365	-0.251721	0.251868
C60	C	0.973365	0.248279	0.751868
C61	C	0.242482	-0.218291	0.285387
C62	C	0.742482	0.281709	0.785387
C63	C	0.176738	-0.218276	0.285386
C64	C	0.676738	0.281724	0.785386
C65	C	0.176623	-0.285062	0.218380
C66	C	0.676623	0.214938	0.718380
C67	C	0.242366	-0.285072	0.218378
C68	C	0.742366	0.214928	0.718378
C69	C	0.275291	-0.251687	0.251885
C70	C	0.775291	0.248313	0.751885
C71	C	0.909563	-0.387541	0.251825
C72	C	1.409563	0.112459	0.751825
C73	C	0.909583	-0.445655	0.251825
C74	C	1.409583	0.054345	0.751825
C75	C	0.949944	-0.805967	0.285370
C76	C	1.449944	-0.305967	0.785370
C77	C	0.949962	-0.860572	0.285381
C78	C	1.449962	-0.360572	0.785381
O79	O	0.984173	-0.888766	0.313860
O80	O	1.484173	-0.388766	0.813860
N81	N	0.909740	-0.887937	0.251916
N82	N	1.409740	-0.387937	0.751916
C83	C	0.869491	-0.860696	0.218443
C84	C	1.369491	-0.360696	0.718443
O85	O	0.835280	-0.888986	0.189980
O86	O	1.335280	-0.388986	0.689980
C87	C	0.869470	-0.806092	0.218435
C88	C	1.369470	-0.306092	0.718435
C89	C	0.909700	-0.778730	0.251898
C90	C	1.409700	-0.278730	0.751898
C91	C	0.990170	-0.778605	0.318831
C92	C	1.490170	-0.278605	0.818831
C93	C	0.990152	-0.724004	0.318819
C94	C	1.490152	-0.224004	0.818819
C95	C	0.949908	-0.696766	0.285347
C96	C	1.449908	-0.196766	0.785347
C97	C	0.909682	-0.724129	0.251887
C98	C	1.409682	-0.224129	0.751887
C99	C	0.829219	-0.778852	0.184965
C100	C	1.329219	-0.278852	0.684965
C101	C	0.829201	-0.724245	0.184960
C102	C	1.329201	-0.224245	0.684960
C103	C	0.869430	-0.696882	0.218423
C104	C	1.369430	-0.196882	0.718423
C105	C	0.869420	-0.642291	0.218403
C106	C	1.369420	-0.142291	0.718403
N107	N	0.909643	-0.614925	0.251868
N108	N	1.409643	-0.114925	0.751868
C109	C	0.949887	-0.642163	0.285340
C110	C	1.449887	-0.142163	0.785340
C111	C	0.869538	-0.975366	0.218462
C112	C	1.369538	-0.475366	0.718462
C113	C	0.869562	-1.029968	0.218467
C114	C	1.369562	-0.529968	0.718467
C115	C	0.950033	-1.029841	0.285405
C116	C	1.450033	-0.529841	0.785405
C117	C	0.950011	-0.975238	0.285398
C118	C	1.450011	-0.475238	0.785398
C119	C	0.909761	-0.948001	0.251926
C120	C	1.409761	-0.448001	0.751926
C121	C	0.949846	-0.527498	0.285313
C122	C	1.449846	-0.027498	0.785313
C123	C	0.949827	-0.472893	0.285297
C124	C	1.449827	0.027107	0.785297
C125	C	0.869354	-0.473025	0.218360
C126	C	1.369354	0.026975	0.718360
C127	C	0.869376	-0.527626	0.218374
C128	C	1.369376	-0.027626	0.718374
C129	C	0.909624	-0.554861	0.251855
C130	C	1.409624	-0.054861	0.751855
O131	O	0.835225	-0.614062	0.189940
O132	O	1.335225	-0.114062	0.689940
O133	O	0.984086	-0.613866	0.313803
O134	O	1.484086	-0.113866	0.813803
C135	C	1.073842	-0.251673	0.251881
C136	C	1.573842	0.248327	0.751881
C137	C	1.143811	-0.251663	0.251887
C138	C	1.643811	0.248337	0.751887
C139	C	0.909693	-0.251674	0.388239
C140	C	1.409693	0.248326	0.888239
C141	C	0.909711	-0.251664	0.446353
C142	C	1.409711	0.248336	0.946353
C143	C	0.909759	-0.115325	0.251918
C144	C	1.409759	0.384675	0.751918
C145	C	0.909804	-0.057211	0.251941
C146	C	1.409804	0.442789	0.751941
C147	C	0.909648	-0.251684	0.116023
C148	C	1.409648	0.248316	0.616023
C149	C	0.909752	-0.251547	0.057910
C150	C	1.409752	0.248453	0.557910
C151	C	0.869493	-0.218168	0.806731
C152	C	1.369493	0.281832	1.306731
C153	C	0.869496	-0.218158	0.861335
C154	C	1.369496	0.281842	1.361335
O155	O	0.835270	-0.189736	0.889584
O156	O	1.335270	0.310264	1.389584
N157	N	0.909732	-0.251582	0.888636
N158	N	1.409732	0.248418	1.388636
C159	C	0.949961	-0.285022	0.861329
C160	C	1.449961	0.214978	1.361329
O161	O	0.984184	-0.313451	0.889564
O162	O	1.484184	0.186549	1.389564
C163	C	0.949954	-0.285033	0.806726
C164	C	1.449954	0.214967	1.306726
C165	C	0.909721	-0.251603	0.779428
C166	C	1.409721	0.248397	1.279428
C167	C	0.829262	-0.184741	0.779433
C168	C	1.329262	0.315259	1.279433
C169	C	0.829260	-0.184750	0.724833
C170	C	1.329260	0.315250	1.224833
C171	C	0.869488	-0.218185	0.697530
C172	C	1.369488	0.281815	1.197530
C173	C	0.909719	-0.251612	0.724827
C174	C	1.409719	0.248388	1.224827
C175	C	0.990181	-0.318475	0.779420
C176	C	1.490181	0.181525	1.279420
C177	C	0.990170	-0.318484	0.724813
C178	C	1.490170	0.181516	1.224813
C179	C	0.949936	-0.285054	0.697515
C180	C	1.449936	0.214946	1.197515
C181	C	0.949944	-0.285057	0.642924
C182	C	1.449944	0.214943	1.142924
N183	N	0.909709	-0.251633	0.615623
N184	N	1.409709	0.248367	1.115623
C185	C	0.869481	-0.218197	0.642926
C186	C	1.369481	0.281803	1.142926
C187	C	0.949972	-0.284995	0.976000
C188	C	1.449972	0.215005	1.476000
C189	C	0.949983	-0.284981	1.030602
C190	C	1.449983	0.215019	1.530602
C191	C	0.869517	-0.218118	1.030604
C192	C	1.369517	0.281882	1.530604
C193	C	0.869510	-0.218130	0.976001
C194	C	1.369510	0.281870	1.476001
C195	C	0.909737	-0.251571	0.948699
C196	C	1.409737	0.248429	1.448699
C197	C	0.869479	-0.218218	0.528261
C198	C	1.369479	0.281782	1.028261
C199	C	0.869482	-0.218228	0.473656
C200	C	1.369482	0.281772	0.973656
C201	C	0.949946	-0.285093	0.473658
C202	C	1.449946	0.214907	0.973658
C203	C	0.949946	-0.285081	0.528259
C204	C	1.449946	0.214919	1.028259
C205	C	0.909707	-0.251642	0.555559
C206	C	1.409707	0.248358	1.055559
O207	O	0.984151	-0.313466	0.614640
O208	O	1.484151	0.186534	1.114640
O209	O	0.835258	-0.189778	0.614685
O210	O	1.335258	0.310222	1.114685
H211	H	0.269291	-0.191104	0.312667
H212	H	0.769291	0.308896	0.812667
H213	H	1.022941	-0.800776	0.346091
H214	H	1.522941	-0.300776	0.846091
H215	H	0.150027	-0.191082	0.312669
H216	H	0.650027	0.308918	0.812669
O217	O	0.993403	-0.945725	0.321487
O218	O	1.493403	-0.445725	0.821487
H219	H	1.021389	-0.973845	0.344761
H220	H	1.521389	-0.473845	0.844761
O221	O	0.993345	-0.321132	0.557705
O222	O	1.493345	0.178868	1.057705
H223	H	0.965149	-0.347732	0.582564
H224	H	1.465149	0.152268	1.082564
H225	H	0.669919	-0.312323	0.191066
H226	H	1.169919	0.187677	0.691066
H227	H	0.982589	-0.450616	0.312546
H228	H	1.482589	0.049384	0.812546
H229	H	0.550864	-0.191147	0.312647
H230	H	1.050864	0.308853	0.812647
O231	O	0.277754	-0.321090	0.182241
O232	O	0.777754	0.178910	0.682241
H233	H	0.307691	-0.347725	0.205586
H234	H	0.807691	0.152275	0.705586
H235	H	1.022942	-0.345698	0.801636
H236	H	1.522942	0.154302	1.301636
H237	H	0.982752	-0.312197	1.052823
H238	H	1.482752	0.187803	1.552823
O239	O	0.141115	-0.321074	0.182248
O240	O	0.641115	0.178926	0.682248
H241	H	0.089888	-0.315460	0.187882
H242	H	0.589888	0.184540	0.687882
O243	O	0.826090	-0.182166	0.444214
O244	O	1.326090	0.317834	0.944214
H245	H	0.776677	-0.191139	0.454674
H246	H	1.276677	0.308861	0.954674
O247	O	0.541952	-0.321133	0.182225
O248	O	1.041952	0.178867	0.682225
H249	H	0.490726	-0.315521	0.187860
H250	H	0.990726	0.184479	0.687860
O251	O	0.993377	-0.321054	0.946553
O252	O	1.493377	0.178946	1.446553
H253	H	1.021359	-0.344286	0.974714
H254	H	1.521359	0.155714	1.474714
O255	O	1.033552	-0.694494	0.354904
O256	O	1.533552	-0.194494	0.854904
H257	H	1.061536	-0.722615	0.378177
H258	H	1.561536	-0.222615	0.878177
H259	H	0.836623	-0.549905	0.191122
H260	H	1.336623	-0.049905	0.691122
O261	O	0.785824	-0.808352	0.148872
O262	O	1.285824	-0.308352	0.648872
H263	H	0.792593	-0.850900	0.154492
H264	H	1.292593	-0.350900	0.654492
O265	O	0.825952	-0.443638	0.182260
O266	O	1.325952	0.056362	0.682260
H267	H	0.797983	-0.471836	0.158988
H268	H	1.297983	0.028164	0.658988
H269	H	0.982616	-0.549666	0.312579
H270	H	1.482616	-0.049666	0.812579
O271	O	0.993434	-1.059223	0.321516
O272	O	1.493434	-0.559223	0.821516
H273	H	0.986680	-1.101788	0.315902
H274	H	1.486680	-0.601788	0.815902
H275	H	0.836761	-0.190893	1.052844
H276	H	1.336761	0.309107	1.552844
O277	O	0.785787	-0.694868	0.148857
O278	O	1.285787	-0.194868	0.648857
H279	H	0.813970	-0.669982	0.122274
H280	H	1.313970	-0.169982	0.622274
O281	O	0.826176	-1.059480	0.182372
O282	O	1.326176	-0.559480	0.682372
H283	H	0.798188	-1.031360	0.159099
H284	H	1.298188	-0.531360	0.659099
O285	O	0.785862	-0.148691	0.695399
O286	O	1.285862	0.351309	1.195399
H287	H	0.753812	-0.172096	0.670503
H288	H	1.253812	0.327904	1.170503
H289	H	0.836763	-0.953193	0.191201
H290	H	1.336763	-0.453193	0.691201
O291	O	0.826087	-0.182148	0.557703
O292	O	1.326087	0.317852	1.057703
H293	H	0.798120	-0.158905	0.529541
H294	H	1.298120	0.341095	1.029541
H295	H	0.796501	-0.157513	0.801657
H296	H	1.296501	0.342487	1.301657
O297	O	1.033565	-0.354548	0.695364
O298	O	1.533565	0.145452	1.195364
H299	H	1.061545	-0.377785	0.723523
H300	H	1.561545	0.122215	1.223523
H301	H	0.836749	-0.190908	0.953779
H302	H	1.336749	0.309092	1.453779
O303	O	0.993335	-0.321155	0.444206
O304	O	1.493335	0.178845	0.944206
H305	H	0.965132	-0.347764	0.419316
H306	H	1.465132	0.152236	0.919316
O307	O	0.678838	-0.182340	0.321490
O308	O	1.178838	0.317660	0.821490
H309	H	0.644975	-0.159113	0.344784
H310	H	1.144975	0.340887	0.844784
