data_functionalizedCrystal
_audit_creation_method	'MofGen! by Chris Wilmer'
_symmetry_space_group_name_H-M	'P1'
_symmetry_Int_Tables_number	1
_symmetry_cell_setting	triclinic
loop_
_symmetry_equiv_pos_as_xyz
  x,y,z
_cell_length_a	16.992694
_cell_length_b	13.101039
_cell_length_c	16.992695
_cell_angle_alpha	86.408978
_cell_angle_beta	90.668223
_cell_angle_gamma	93.581737
loop_
_atom_site_label
_atom_site_type_symbol
_atom_site_fract_x
_atom_site_fract_y
_atom_site_fract_z
O1	O	1.054903	0.085087	0.162849
O2	O	0.826504	0.085117	0.161017
O3	O	0.939787	0.085094	0.047733
O4	O	0.941619	0.085110	0.276133
O5	O	0.931660	-0.085335	0.055876
O6	O	0.818377	-0.085311	0.169159
O7	O	1.046776	-0.085342	0.170992
Zn8	Zn	0.931286	-0.112386	0.171368
Zn9	Zn	0.941994	0.112161	0.160640
O10	O	0.933492	-0.085319	0.284275
C11	C	0.793081	-0.000094	0.162732
C12	C	0.705597	-0.000082	0.155703
N13	N	0.923984	-0.265633	0.178689
C14	C	0.659606	-0.000078	0.223520
C15	C	0.577404	-0.000093	0.216912
C16	C	0.541196	-0.000104	0.142485
C17	C	0.587192	-0.000111	0.074662
C18	C	0.669392	-0.000104	0.081272
C19	C	0.295880	-0.000133	0.115092
C20	C	0.213674	-0.000138	0.108488
C21	C	0.203892	-0.000121	0.250738
C22	C	0.286094	-0.000108	0.257341
C23	C	0.332083	-0.000120	0.189518
N24	N	0.457173	-0.000116	0.135728
N25	N	0.416104	-0.000116	0.196276
C26	C	0.914050	-0.474673	0.188658
C27	C	0.959233	-0.525558	0.143347
C28	C	0.953706	-0.641876	0.148894
C29	C	0.919576	-0.358345	0.183112
C30	C	1.080199	-0.000129	0.169276
C31	C	1.167684	-0.000134	0.176305
C32	C	0.933368	-0.000120	0.022444
C33	C	0.926339	-0.000119	-0.065040
N34	N	0.949302	0.265408	0.153313
C35	C	0.994157	-0.000129	-0.111031
C36	C	0.987549	-0.000118	-0.193232
C37	C	0.913122	-0.000105	-0.229441
C38	C	0.845299	-0.000092	-0.183445
C39	C	0.851909	-0.000095	-0.101245
C40	C	0.885728	-0.000087	-0.474756
C41	C	0.879123	-0.000087	-0.556961
C42	C	1.021373	-0.000112	-0.566743
C43	C	1.027976	-0.000121	-0.484542
C44	C	0.960154	-0.000102	-0.438553
N45	N	0.906365	-0.000097	-0.313464
N46	N	0.966912	-0.000103	-0.354532
C47	C	0.939912	-0.000103	0.309564
C48	C	0.946941	-0.000097	0.397048
H49	H	0.689081	-0.000068	0.284127
H50	H	0.818512	-0.000093	-0.586439
H51	H	1.002068	-0.481765	0.100391
C52	C	0.856890	-0.533191	0.245816
C53	C	0.803134	-0.594814	0.203816
C54	C	0.750478	-0.648760	0.256445
H55	H	0.829185	-0.486092	0.273544
H56	H	0.885344	-0.575102	0.282273
H57	H	0.774683	-0.552908	0.167373
H58	H	0.830817	-0.641932	0.176090
H59	H	0.778932	-0.690670	0.292902
H60	H	0.722778	-0.601653	0.284171
H61	H	0.714003	-0.690584	0.227957
C62	C	0.527610	-0.000035	0.290635
C63	C	0.576916	0.000009	0.357227
C64	C	0.531074	0.000074	0.425157
H65	H	0.492507	-0.059455	0.293967
H66	H	0.498180	0.059416	0.288215
H67	H	0.606332	-0.059436	0.359648
H68	H	0.612019	0.059426	0.353921
H69	H	0.501644	0.059525	0.422737
H70	H	0.495972	-0.059348	0.428481
H71	H	0.564521	0.000114	0.470347
C72	C	0.811997	-0.000135	-0.424965
C73	C	0.745404	-0.000158	-0.474271
C74	C	0.677466	-0.000220	-0.428427
H75	H	0.814334	0.059279	-0.395519
H76	H	0.808741	-0.059593	-0.389874
H77	H	0.748660	0.059294	-0.509348
H78	H	0.743042	-0.059568	-0.503717
H79	H	0.674210	-0.059678	-0.393336
H80	H	0.679811	0.059195	-0.398983
H81	H	0.632275	-0.000245	-0.461873
H82	H	1.054763	-0.000146	-0.081556
C83	C	0.325254	-0.000154	0.338222
C84	C	0.267381	-0.000181	0.396203
C85	C	0.303424	-0.000235	0.470721
H86	H	0.359938	0.059264	0.341029
H87	H	0.354268	-0.059608	0.346638
H88	H	0.238379	0.059266	0.387790
H89	H	0.232693	-0.059596	0.393421
H90	H	0.332439	-0.059688	0.479136
H91	H	0.338108	0.059185	0.473520
H92	H	0.264163	-0.000263	0.510070
H93	H	1.042773	-0.000129	-0.230674
C94	C	0.174505	-0.000201	0.027608
C95	C	0.232372	-0.000235	-0.030374
C96	C	0.196318	-0.000302	-0.104883
H97	H	0.145477	0.059216	0.019124
H98	H	0.139830	-0.059656	0.024876
H99	H	0.267033	0.059214	-0.027644
H100	H	0.261404	-0.059648	-0.021916
H101	H	0.161643	-0.059757	-0.107616
H102	H	0.167291	0.059116	-0.113359
H103	H	0.235574	-0.000335	-0.144232
C104	C	1.108744	0.000031	-0.445139
C105	C	1.120870	0.087697	-0.402403
C106	C	1.195261	0.087862	-0.366089
H107	H	1.148261	0.000081	-0.484223
H108	H	1.111459	-0.059372	-0.410398
H109	H	1.118162	0.147085	-0.437141
H110	H	1.081371	0.087666	-0.363306
H111	H	1.197976	0.028459	-0.331347
H112	H	1.234772	0.087909	-0.405178
H113	H	1.203495	0.147337	-0.337082
H114	H	1.076590	-0.000125	-0.604196
H115	H	0.784699	-0.000075	-0.212933
C116	C	0.345905	0.000027	0.041513
C117	C	0.397566	0.087699	0.036970
C118	C	0.443671	0.087878	-0.030799
H119	H	0.312660	0.000078	-0.003816
H120	H	0.375396	-0.059372	0.043962
H121	H	0.368078	0.147083	0.034514
H122	H	0.430828	0.087667	0.082283
H123	H	0.473161	0.028479	-0.028349
H124	H	0.410420	0.087926	-0.076123
H125	H	0.478733	0.147357	-0.033886
C126	C	0.719194	-0.000050	0.007544
C127	C	0.669894	-0.000032	-0.059053
C128	C	0.715744	0.000028	-0.126987
H129	H	0.748649	-0.059463	0.009893
H130	H	0.754277	0.059409	0.004281
H131	H	0.634825	-0.059484	-0.055791
H132	H	0.640440	0.059377	-0.061428
H133	H	0.750827	0.059487	-0.130250
H134	H	0.745196	-0.059386	-0.124630
H135	H	0.682301	0.000050	-0.172181
H136	H	0.557704	-0.000135	0.014063
H137	H	0.166439	-0.000113	0.305955
H138	H	0.796684	-0.000087	-0.063800
