data_functionalizedCrystal
_audit_creation_method	'MofGen! by Chris Wilmer'
_symmetry_space_group_name_H-M	'P1'
_symmetry_Int_Tables_number	1
_symmetry_cell_setting	triclinic
loop_
_symmetry_equiv_pos_as_xyz
  x,y,z
_cell_length_a	29.839134
_cell_length_b	29.839131
_cell_length_c	16.625539
_cell_angle_alpha	90.032094
_cell_angle_beta	90.030315
_cell_angle_gamma	90.036281
loop_
_atom_site_label
_atom_site_type_symbol
_atom_site_fract_x
_atom_site_fract_y
_atom_site_fract_z
Zn1	Zn	0.686757	-0.178914	0.456098
Zn2	Zn	0.686678	-0.254045	0.321256
Zn3	Zn	0.611628	-0.178923	0.321255
Zn4	Zn	0.611587	-0.254011	0.456023
O5	O	0.649163	-0.216473	0.388658
O6	O	0.749613	-0.188891	0.438242
O7	O	0.676707	-0.244098	0.208423
O8	O	0.621645	-0.116055	0.339173
O9	O	0.749555	-0.244089	0.339175
O10	O	0.676841	-0.116048	0.438242
O11	O	0.621568	-0.188906	0.208423
O12	O	0.548756	-0.188873	0.339101
O13	O	0.621574	-0.244031	0.568865
O14	O	0.548726	-0.244040	0.438114
O15	O	0.676801	-0.188858	0.568920
O16	O	0.676667	-0.316908	0.339102
O17	O	0.621498	-0.316883	0.438115
C18	C	0.532440	-0.216454	0.388600
C19	C	0.482506	-0.216457	0.388594
C20	C	0.649081	-0.333196	0.388618
C21	C	0.649088	-0.383130	0.388628
C22	C	0.172856	-0.245241	0.440151
C23	C	-0.014817	-0.245254	0.440187
O24	O	-0.039087	-0.269706	0.483988
N25	N	-0.038280	-0.216490	0.388719
C26	C	-0.014821	-0.187718	0.337242
O27	O	-0.039083	-0.163250	0.293472
C28	C	0.172851	-0.187704	0.337210
C29	C	0.196311	-0.216473	0.388676
C30	C	0.196316	-0.274008	0.491613
C31	C	0.243231	-0.274006	0.491600
C32	C	0.266687	-0.245238	0.440126
C33	C	0.243227	-0.216471	0.388664
C34	C	0.196309	-0.158931	0.285738
C35	C	0.243230	-0.158929	0.285736
C36	C	0.266690	-0.187698	0.337202
C37	C	0.313598	-0.187701	0.337176
N38	N	0.337060	-0.216465	0.388644
C39	C	0.313605	-0.245234	0.440119
C40	C	-0.113351	-0.187729	0.337261
C41	C	-0.160269	-0.187733	0.337267
C42	C	-0.160263	-0.245268	0.440214
C43	C	-0.113344	-0.245266	0.440202
C44	C	-0.089889	-0.216493	0.388729
C45	C	0.412130	-0.245228	0.440088
C46	C	0.459050	-0.245225	0.440069
C47	C	0.459039	-0.187689	0.337126
C48	C	0.412124	-0.187693	0.337142
C49	C	0.388670	-0.216464	0.388630
O50	O	0.337897	-0.163258	0.293405
O51	O	0.337875	-0.269691	0.483895
C52	C	0.125940	-0.245243	0.440164
C53	C	0.102480	-0.216476	0.388701
C54	C	0.125936	-0.187708	0.337227
C55	C	0.055563	-0.216481	0.388708
C56	C	0.032107	-0.245249	0.440183
C57	C	0.055569	-0.274013	0.491651
C58	C	0.102485	-0.274011	0.491638
C59	C	0.102474	-0.158944	0.285759
C60	C	0.055558	-0.158949	0.285775
C61	C	0.032103	-0.187717	0.337249
C62	C	0.677941	-0.692774	0.337177
C63	C	0.677997	-0.880447	0.337209
O64	O	0.702464	-0.904712	0.293433
N65	N	0.649256	-0.903915	0.388719
C66	C	0.620501	-0.880462	0.440228
O67	O	0.596060	-0.904730	0.484047
C68	C	0.620448	-0.692790	0.440201
C69	C	0.649188	-0.669324	0.388681
C70	C	0.706679	-0.669308	0.285663
C71	C	0.706663	-0.622393	0.285653
C72	C	0.677909	-0.598943	0.337157
C73	C	0.649172	-0.622409	0.388671
C74	C	0.591696	-0.669338	0.491714
C75	C	0.591686	-0.622417	0.491704
C76	C	0.620426	-0.598951	0.440184
C77	C	0.620402	-0.552044	0.440165
N78	N	0.649143	-0.528576	0.388654
C79	C	0.677897	-0.552025	0.337151
C80	C	0.620530	-0.978993	0.440238
C81	C	0.620543	-1.025911	0.440244
C82	C	0.678039	-1.025892	0.337226
C83	C	0.678024	-0.978974	0.337216
C84	C	0.649271	-0.955525	0.388728
C85	C	0.677861	-0.453499	0.337132
C86	C	0.677841	-0.406580	0.337124
C87	C	0.620347	-0.406603	0.440145
C88	C	0.620365	-0.453518	0.440151
C89	C	0.649125	-0.476965	0.388642
O90	O	0.595951	-0.527750	0.483924
O91	O	0.702342	-0.527750	0.293351
C92	C	0.677957	-0.739689	0.337188
C93	C	0.649219	-0.763155	0.388702
C94	C	0.620466	-0.739706	0.440206
C95	C	0.649232	-0.810073	0.388708
C96	C	0.677985	-0.833523	0.337204
C97	C	0.706726	-0.810054	0.285694
C98	C	0.706711	-0.763139	0.285684
C99	C	0.591725	-0.763174	0.491716
C100	C	0.591743	-0.810090	0.491722
C101	C	0.620496	-0.833539	0.440218
C102	C	0.766341	-0.216493	0.388717
C103	C	0.816275	-0.216501	0.388742
C104	C	0.649192	-0.216440	0.598967
C105	C	0.649204	-0.216426	0.688588
C106	C	0.649256	-0.099295	0.388716
C107	C	0.649296	-0.049360	0.388740
C108	C	0.649159	-0.216474	0.179167
C109	C	0.649234	-0.216362	0.089546
C110	C	0.649225	-0.216375	1.016764
C111	C	0.649218	-0.216391	0.925455
C112	C	0.649215	-0.216401	0.852679
C113	C	0.649207	-0.216415	0.761365
H114	H	0.478149	-0.268654	0.481979
H115	H	0.701244	-0.387475	0.295168
Cl116	Cl	0.584406	-1.055405	0.505005
H117	H	-0.094246	-0.268691	0.482111
Cl118	Cl	0.584225	-0.483019	0.504902
Cl119	Cl	0.382654	-0.281399	0.504816
H120	H	0.568311	-0.744085	0.533658
H121	H	0.701451	-1.044993	0.295289
Cl122	Cl	0.382630	-0.151533	0.272429
Cl123	Cl	0.272713	-0.122754	0.221023
H124	H	0.036461	-0.135522	0.243858
H125	H	0.730113	-0.744036	0.243732
H126	H	0.262328	-0.297432	0.533511
H127	H	-0.179368	-0.268692	0.482126
Cl128	Cl	0.166837	-0.310179	0.556333
Cl129	Cl	-0.189756	-0.151570	0.272554
H130	H	0.478145	-0.164268	0.295214
Cl131	Cl	0.131970	-0.310179	0.556343
H132	H	0.036464	-0.297438	0.533561
Cl133	Cl	0.584379	-0.949521	0.505002
H134	H	0.121566	-0.135517	0.243841
Cl135	Cl	0.714017	-0.482969	0.272375
Cl136	Cl	0.742802	-0.592900	0.220894
H137	H	-0.094259	-0.164298	0.295341
H138	H	0.730096	-0.688396	0.243722
Cl139	Cl	0.166829	-0.122758	0.221040
H140	H	0.701426	-0.959870	0.295265
H141	H	0.568291	-0.688436	0.533662
Cl142	Cl	0.555538	-0.592942	0.556467
H143	H	0.596935	-0.387503	0.482077
Cl144	Cl	0.742872	-0.839543	0.220946
H145	H	0.568336	-0.829191	0.533674
