data_functionalizedCrystal
_audit_creation_method	'MofGen! by Chris Wilmer'
_symmetry_space_group_name_H-M	'P1'
_symmetry_Int_Tables_number	1
_symmetry_cell_setting	triclinic
loop_
_symmetry_equiv_pos_as_xyz
  x,y,z
_cell_length_a	18.215407
_cell_length_b	18.215405
_cell_length_c	18.215399
_cell_angle_alpha	89.969449
_cell_angle_beta	90.019833
_cell_angle_gamma	89.974667
loop_
_atom_site_label
_atom_site_type_symbol
_atom_site_fract_x
_atom_site_fract_y
_atom_site_fract_z
Zn1	Zn	1.125072	0.292983	0.416103
Zn2	Zn	1.458405	0.626316	0.749436
Zn3	Zn	1.791739	0.959650	1.082769
Zn4	Zn	1.124980	0.416054	0.293031
Zn5	Zn	1.458314	0.749388	0.626364
Zn6	Zn	1.791647	1.082721	0.959697
Zn7	Zn	1.002005	0.293007	0.293050
Zn8	Zn	1.335338	0.626340	0.626383
Zn9	Zn	1.668671	0.959674	0.959717
Zn10	Zn	1.001970	0.416013	0.416056
Zn11	Zn	1.335304	0.749347	0.749389
Zn12	Zn	1.668637	1.082680	1.082722
O13	O	1.063507	0.354514	0.354560
O14	O	1.396840	0.687848	0.687893
O15	O	1.730173	1.021181	1.021226
O16	O	1.228044	0.309316	0.399788
O17	O	1.561377	0.642649	0.733122
O18	O	1.894711	0.975982	1.066455
O19	O	1.108643	0.399759	0.190049
O20	O	1.441977	0.733092	0.523382
O21	O	1.775310	1.066426	0.856716
O22	O	1.018382	0.190020	0.309401
O23	O	1.351716	0.523353	0.642734
O24	O	1.685049	0.856686	0.976067
O25	O	1.227977	0.399736	0.309368
O26	O	1.561310	0.733069	0.642701
O27	O	1.894643	1.066402	0.976035
O28	O	1.108799	0.190002	0.399807
O29	O	1.442133	0.523335	0.733140
O30	O	1.775466	0.856669	1.066474
O31	O	1.018293	0.309357	0.190063
O32	O	1.351627	0.642690	0.523396
O33	O	1.684960	0.976023	0.856730
O34	O	0.899016	0.309317	0.309355
O35	O	1.232349	0.642650	0.642689
O36	O	1.565682	0.975984	0.976022
O37	O	1.018324	0.399666	0.519046
O38	O	1.351657	0.732999	0.852379
O39	O	1.684991	1.066333	1.185713
O40	O	0.898991	0.399689	0.399727
O41	O	1.232324	0.733023	0.733060
O42	O	1.565657	1.066356	1.066394
O43	O	1.108766	0.309276	0.519081
O44	O	1.442100	0.642609	0.852414
O45	O	1.775433	0.975943	1.185747
O46	O	1.108610	0.519033	0.309322
O47	O	1.441944	0.852366	0.642656
O48	O	1.775277	1.185700	0.975989
O49	O	1.018235	0.519003	0.399708
O50	O	1.351569	0.852336	0.733042
O51	O	1.684902	1.185670	1.066375
C52	C	0.872301	0.354502	0.354539
C53	C	1.205634	0.687835	0.687872
C54	C	1.538967	1.021169	1.021205
C55	C	0.790502	0.354514	0.354547
C56	C	1.123835	0.687848	0.687880
C57	C	1.457168	1.021181	1.021214
C58	C	1.063429	0.545721	0.354524
C59	C	1.396762	0.879054	0.687858
C60	C	1.730096	1.212387	1.021191
C61	C	1.063463	0.627520	0.354534
C62	C	1.396797	0.960853	0.687867
C63	C	1.730130	1.294186	1.021200
C64	C	1.063552	0.354464	0.546513
C65	C	1.396885	0.687797	0.879846
C66	C	1.730218	1.021130	1.213179
C67	C	1.063571	0.354442	0.628312
C68	C	1.396904	0.687775	0.961645
C69	C	1.730237	1.021109	1.294978
C70	C	0.602314	0.401645	0.401544
C71	C	0.935647	0.734978	0.734878
C72	C	1.268981	1.068312	1.068211
C73	C	0.525455	0.401647	0.401554
C74	C	0.858789	0.734981	0.734887
C75	C	1.192122	1.068314	1.068220
C76	C	0.525452	0.307397	0.307591
C77	C	0.858785	0.640731	0.640924
C78	C	1.192118	0.974064	0.974258
C79	C	0.602309	0.307392	0.307586
C80	C	0.935642	0.640725	0.640919
C81	C	1.268976	0.974058	0.974253
C82	C	0.640738	0.354520	0.354562
C83	C	0.974071	0.687853	0.687895
C84	C	1.307405	1.021186	1.021228
C85	C	0.487022	0.354528	0.354576
C86	C	0.820355	0.687861	0.687909
C87	C	1.153689	1.021194	1.021242
C88	C	0.403688	0.354530	0.354585
C89	C	0.737022	0.687863	0.687919
C90	C	1.070355	1.021196	1.021252
C91	C	0.724077	0.354517	0.354553
C92	C	1.057410	0.687850	0.687887
C93	C	1.390744	1.021184	1.021220
C94	C	1.255460	0.354528	0.354581
C95	C	1.588793	0.687861	0.687915
C96	C	1.922126	1.021194	1.021248
C97	C	1.337259	0.354533	0.354591
C98	C	1.670592	0.687867	0.687924
C99	C	2.003925	1.021200	1.021257
C100	C	1.063605	0.162561	0.354611
C101	C	1.396938	0.495895	0.687945
C102	C	1.730272	0.829228	1.021278
C103	C	1.063647	0.080763	0.354633
C104	C	1.396980	0.414096	0.687967
C105	C	1.730313	0.747429	1.021300
C106	C	1.110632	0.815705	0.307556
C107	C	1.443965	1.149038	0.640890
C108	C	1.777299	1.482371	0.974223
C109	C	1.110665	0.892563	0.307574
C110	C	1.443998	1.225897	0.640908
C111	C	1.777331	1.559230	0.974241
C112	C	1.016476	0.892572	0.401616
C113	C	1.349809	1.225905	0.734949
C114	C	1.683143	1.559239	1.068283
C115	C	1.016447	0.815715	0.401601
C116	C	1.349781	1.149048	0.734935
C117	C	1.683114	1.482381	1.068268
C118	C	1.063524	0.777283	0.354567
C119	C	1.396857	1.110616	0.687901
C120	C	1.730191	1.443950	1.021234
C121	C	1.063586	0.930999	0.354600
C122	C	1.396919	1.264332	0.687933
C123	C	1.730252	1.597666	1.021266
C124	C	1.063621	1.014333	0.354619
C125	C	1.396954	1.347666	0.687953
C126	C	1.730288	1.680999	1.021286
C127	C	1.063490	0.693944	0.354548
C128	C	1.396823	1.027277	0.687882
C129	C	1.730157	1.360611	1.021215
C130	C	1.063504	0.354512	0.163353
C131	C	1.396838	0.687845	0.496687
C132	C	1.730171	1.021179	0.830020
C133	C	1.063628	0.354326	0.081555
C134	C	1.396961	0.687660	0.414888
C135	C	1.730295	1.020993	0.748222
C136	C	1.110681	0.307332	0.816525
C137	C	1.444014	0.640665	1.149858
C138	C	1.777348	0.973999	1.483191
C139	C	1.110690	0.307311	0.893384
C140	C	1.444023	0.640644	1.226717
C141	C	1.777356	0.973977	1.560050
C142	C	1.016513	0.401438	0.893336
C143	C	1.349846	0.734772	1.226670
C144	C	1.683179	1.068105	1.560003
C145	C	1.016501	0.401455	0.816479
C146	C	1.349834	0.734789	1.149812
C147	C	1.683167	1.068122	1.483146
C148	C	1.063589	0.354403	0.778075
C149	C	1.396922	0.687737	1.111409
C150	C	1.730256	1.021070	1.444742
C151	C	1.063610	0.354365	0.931791
C152	C	1.396943	0.687698	1.265125
C153	C	1.730276	1.021031	1.598458
C154	C	1.063619	0.354342	1.015125
C155	C	1.396952	0.687675	1.348458
C156	C	1.730286	1.021009	1.681792
C157	C	1.063579	0.354425	0.694736
C158	C	1.396912	0.687759	1.028070
C159	C	1.730246	1.021092	1.361403
H160	H	0.633601	0.440018	0.439797
H161	H	0.966934	0.773351	0.773130
H162	H	1.300267	1.106684	1.106464
H163	H	0.978146	0.923873	0.439908
H164	H	1.311480	1.257206	0.773241
H165	H	1.644813	1.590539	1.106575
H166	H	1.148966	0.784415	0.269260
H167	H	1.482299	1.117749	0.602593
H168	H	1.815632	1.451082	0.935926
Br169	Br	0.473310	0.465602	0.465322
Br170	Br	0.806644	0.798936	0.798656
Br171	Br	1.139977	1.132269	1.131989
Br172	Br	1.174585	0.243475	0.764407
Br173	Br	1.507918	0.576808	1.097741
Br174	Br	1.841251	0.910141	1.431074
H175	H	1.149035	0.268979	0.924686
H176	H	1.482369	0.602313	1.258019
H177	H	1.815702	0.935646	1.591353
H178	H	0.978148	0.439786	0.785173
H179	H	1.311481	0.773119	1.118506
H180	H	1.644814	1.106453	1.451839
Br181	Br	0.473293	0.243441	0.243841
Br182	Br	0.806627	0.576775	0.577175
Br183	Br	1.139960	0.910108	0.910508
Br184	Br	0.654461	0.243424	0.243826
Br185	Br	0.987795	0.576758	0.577159
Br186	Br	1.321128	0.910091	0.910493
H187	H	1.149026	0.923843	0.269294
H188	H	1.482359	1.257176	0.602628
H189	H	1.815692	1.590510	0.935961
H190	H	0.978086	0.784430	0.439887
H191	H	1.311420	1.117763	0.773220
H192	H	1.644753	1.451096	1.106553
H193	H	0.978177	0.439748	0.924614
H194	H	1.311510	0.773081	1.257947
H195	H	1.644843	1.106415	1.591281
