data_functionalizedCrystal
_audit_creation_method	'MofGen! by Chris Wilmer'
_symmetry_space_group_name_H-M	'P1'
_symmetry_Int_Tables_number	1
_symmetry_cell_setting	triclinic
loop_
_symmetry_equiv_pos_as_xyz
  x,y,z
_cell_length_a	16.992694
_cell_length_b	10.723024
_cell_length_c	16.053802
_cell_angle_alpha	92.591250
_cell_angle_beta	87.249047
_cell_angle_gamma	87.568046
loop_
_atom_site_label
_atom_site_type_symbol
_atom_site_fract_x
_atom_site_fract_y
_atom_site_fract_z
O1	O	1.045092	0.259813	-0.069321
O2	O	0.816792	0.256907	-0.069346
O3	O	0.936208	0.077238	-0.069330
O4	O	0.925676	0.439483	-0.069337
O5	O	0.929634	0.087084	0.069528
O6	O	0.810219	0.266753	0.069512
O7	O	1.038518	0.269659	0.069537
Zn8	Zn	0.923325	0.269769	0.091572
Zn9	Zn	0.931985	0.256797	-0.091380
O10	O	0.919103	0.449329	0.069521
C11	C	0.784273	0.258094	0.000080
C12	C	0.697169	0.246945	0.000071
C13	C	0.647507	0.354505	0.000069
C14	C	0.565664	0.344024	0.000081
C15	C	0.533484	0.225982	0.000088
C16	C	0.583152	0.118414	0.000092
C17	C	0.664994	0.128896	0.000087
C18	C	0.289651	0.182535	0.000112
C19	C	0.207803	0.172060	0.000115
C20	C	0.190321	0.397672	0.000105
C21	C	0.272165	0.408144	0.000094
C22	C	0.321826	0.300577	0.000103
N23	N	0.449827	0.215265	0.000098
N24	N	0.405481	0.311294	0.000099
C25	C	0.932155	0.035595	0.000098
C26	C	0.929862	-0.103157	0.000095
C27	C	0.996681	-0.172386	0.000101
C28	C	0.994312	-0.315793	0.000098
C29	C	1.071038	0.268472	0.000109
C30	C	1.158141	0.279620	0.000113
C31	C	0.923156	0.490971	0.000091
C32	C	0.925449	0.629723	0.000089
N33	N	0.917420	0.278623	0.216431
N34	N	0.937896	0.247934	-0.216239
C35	C	0.968250	0.202204	0.260132
C36	C	0.964127	0.208409	0.347538
C37	C	0.909177	0.291041	0.391242
C38	C	0.858341	0.367463	0.347535
C39	C	0.862461	0.361250	0.260130
C40	C	0.891180	0.318143	0.652649
C41	C	0.887066	0.324353	0.740060
C42	C	0.992852	0.165297	0.740057
C43	C	0.996970	0.159097	0.652650
C44	C	0.946131	0.235514	0.608951
N45	N	0.904963	0.297389	0.480585
N46	N	0.950342	0.229159	0.519610
H47	H	0.298360	0.504266	0.000079
C48	C	0.547760	-0.011434	0.000100
H49	H	0.589061	-0.073991	0.000107
H50	H	0.518483	-0.023648	-0.048322
H51	H	0.513912	-0.016777	0.048530
C52	C	1.028701	0.111320	0.212061
H53	H	1.023883	0.118573	0.153747
H54	H	1.019067	0.028153	0.226392
H55	H	1.080455	0.131185	0.226382
C56	C	0.682902	0.484350	0.000059
H57	H	0.738757	0.475192	0.000047
H58	H	0.663612	0.532418	0.048480
H59	H	0.668180	0.525541	-0.048371
H60	H	0.705428	0.041309	0.000087
H61	H	0.842316	0.391646	0.775640
C62	C	0.797898	0.458358	0.395607
H63	H	0.802730	0.451124	0.453921
H64	H	0.746144	0.438515	0.381293
H65	H	0.807545	0.541525	0.381270
H66	H	1.041715	0.091812	0.617068
H67	H	0.868243	-0.310778	0.000090
H68	H	0.330076	0.094945	0.000119
H69	H	1.005517	0.146182	0.383119
C70	C	1.076333	-0.109041	0.000113
H71	H	1.067475	-0.020964	0.000120
H72	H	1.107625	-0.136964	-0.048305
H73	H	1.103034	-0.130103	0.048546
H74	H	0.870902	-0.150057	0.000083
C75	C	0.511039	0.462341	0.000077
H76	H	0.541926	0.534142	0.000061
H77	H	0.476465	0.466383	0.048502
H78	H	0.481034	0.459501	-0.048349
C79	C	1.071591	-0.396173	0.000100
H80	H	1.059862	-0.482014	0.000090
H81	H	1.099005	-0.374626	0.048524
H82	H	1.103580	-0.381482	-0.048328
C83	C	0.172407	0.042208	0.000125
H84	H	0.213704	-0.020355	0.000135
H85	H	0.143131	0.029995	-0.048298
H86	H	0.138556	0.036873	0.048554
C87	C	1.048761	0.081235	0.788127
H88	H	1.038435	0.096758	0.846442
H89	H	1.101866	0.099038	0.773795
H90	H	1.040462	-0.003968	0.773810
H91	H	0.849787	0.380368	0.617076
C92	C	0.806551	0.445316	0.212060
H93	H	0.773239	0.495427	0.250605
H94	H	0.775262	0.394695	0.177971
H95	H	0.836661	0.497709	0.177955
H96	H	0.149878	0.485247	0.000100
