data_functionalizedCrystal
_audit_creation_method	'MofGen! by Chris Wilmer'
_symmetry_space_group_name_H-M	'P1'
_symmetry_Int_Tables_number	1
_symmetry_cell_setting	triclinic
loop_
_symmetry_equiv_pos_as_xyz
  x,y,z
_cell_length_a	9.065215
_cell_length_b	9.065218
_cell_length_c	7.540329
_cell_angle_alpha	90.001372
_cell_angle_beta	90.001076
_cell_angle_gamma	85.015291
loop_
_atom_site_label
_atom_site_type_symbol
_atom_site_fract_x
_atom_site_fract_y
_atom_site_fract_z
O1	O	1.960398	0.216334	0.147454
O2	O	2.293731	0.549667	0.480787
O3	O	2.627065	0.883000	0.814121
O4	O	1.531113	0.234085	0.147461
O5	O	1.864446	0.567418	0.480795
O6	O	2.197779	0.900751	0.814128
O7	O	1.754629	0.010567	0.147454
O8	O	2.087962	0.343900	0.480787
O9	O	2.421295	0.677233	0.814120
O10	O	1.736882	0.439852	0.147461
O11	O	2.070215	0.773185	0.480795
O12	O	2.403549	1.106518	0.814128
O13	O	1.754621	0.010565	-0.147511
O14	O	2.087954	0.343898	0.185822
O15	O	2.421287	0.677232	0.519155
O16	O	1.531105	0.234083	-0.147504
O17	O	1.864438	0.567416	0.185830
O18	O	2.197772	0.900750	0.519163
O19	O	1.960390	0.216332	-0.147511
O20	O	2.293724	0.549665	0.185822
O21	O	2.627057	0.882999	0.519156
Cu22	Cu	1.745747	0.225207	-0.174440
Cu23	Cu	2.079080	0.558541	0.158893
Cu24	Cu	2.412413	0.891874	0.492227
Cu25	Cu	1.745756	0.225209	0.174390
Cu26	Cu	2.079089	0.558543	0.507724
Cu27	Cu	2.412423	0.891876	0.841057
O28	O	1.736874	0.439850	-0.147504
O29	O	2.070208	0.773183	0.185830
O30	O	2.403541	1.106517	0.519163
C31	C	1.476122	0.232379	-0.000020
C32	C	1.809455	0.565712	0.333313
C33	C	2.142789	0.899045	0.666646
C34	C	1.312279	0.227281	-0.000017
C35	C	1.645612	0.560614	0.333316
C36	C	1.978946	0.893947	0.666649
C37	C	1.752919	-0.044421	-0.000026
C38	C	2.086252	0.288913	0.333308
C39	C	2.419586	0.622246	0.666641
C40	C	1.747819	-0.208264	-0.000017
C41	C	2.081153	0.125070	0.333316
C42	C	2.414486	0.458403	0.666649
C43	C	2.015381	0.218038	-0.000026
C44	C	2.348714	0.551371	0.333308
C45	C	2.682047	0.884704	0.666641
C46	C	2.179224	0.223136	-0.000017
C47	C	2.512557	0.556469	0.333316
C48	C	2.845891	0.889802	0.666650
C49	C	1.738584	0.494837	-0.000020
C50	C	2.071917	0.828171	0.333313
C51	C	2.405250	1.161504	0.666646
C52	C	1.743683	0.658680	-0.000017
C53	C	2.077017	0.992014	0.333316
C54	C	2.410350	1.325347	0.666650
N55	N	1.745751	0.225205	-0.419789
N56	N	2.079084	0.558538	-0.086455
N57	N	2.412418	0.891872	0.246878
N58	N	1.745763	0.225200	0.419739
N59	N	2.079097	0.558533	0.753072
N60	N	2.412430	0.891867	1.086405
