data_functionalizedCrystal
_audit_creation_method	'MofGen! by Chris Wilmer'
_symmetry_space_group_name_H-M	'P1'
_symmetry_Int_Tables_number	1
_symmetry_cell_setting	triclinic
loop_
_symmetry_equiv_pos_as_xyz
  x,y,z
_cell_length_a	8.597275
_cell_length_b	8.559649
_cell_length_c	13.330367
_cell_angle_alpha	89.998834
_cell_angle_beta	97.709051
_cell_angle_gamma	102.375343
loop_
_atom_site_label
_atom_site_type_symbol
_atom_site_fract_x
_atom_site_fract_y
_atom_site_fract_z
O1	O	2.053791	-0.238025	0.260924
O2	O	1.594648	-0.256288	0.221242
O3	O	1.864670	-0.015186	0.244578
O4	O	1.783769	-0.479127	0.237588
O5	O	1.864633	-0.015191	0.077727
O6	O	1.594611	-0.256293	0.054392
O7	O	2.053754	-0.238029	0.094073
Cu8	Cu	1.824179	-0.247161	0.058998
Cu9	Cu	1.824223	-0.247156	0.256318
O10	O	1.783731	-0.479131	0.070738
C11	C	1.536393	-0.254330	0.132784
C12	C	1.362870	-0.248468	0.117788
C13	C	1.870783	0.044246	0.161684
C14	C	1.889032	0.221341	0.163267
C15	C	2.112008	-0.239988	0.182534
C16	C	2.285532	-0.245850	0.197537
N17	N	1.824159	-0.247164	-0.079785
C18	C	1.777619	-0.538563	0.153633
C19	C	1.759369	-0.715658	0.152057
C20	C	1.740827	-0.148896	-0.139513
C21	C	1.907512	-0.345426	-0.125084
C22	C	1.907530	-0.345425	-0.230101
C23	C	1.824198	-0.247156	-0.289828
C24	C	1.740847	-0.148888	-0.244539
C25	C	1.990893	-0.443679	-0.275397
C26	C	1.990917	-0.443681	-0.380420
C27	C	1.907574	-0.345420	-0.440150
C28	C	1.824218	-0.247149	-0.394855
C29	C	1.740885	-0.148880	-0.454582
C30	C	1.657519	-0.050617	-0.409290
C31	C	1.657504	-0.050626	-0.304270
C32	C	1.907589	-0.345410	-0.545170
C33	C	1.740905	-0.148873	-0.559609
N34	N	1.824256	-0.247141	0.395102
H35	H	2.352066	-0.248106	0.277287
Cl36	Cl	2.081995	0.347243	0.179931
Cl37	Cl	1.552772	0.072925	-0.484387
H38	H	1.589634	0.029377	-0.267383
Cl39	Cl	2.260138	-0.245011	-0.005352
Cl40	Cl	2.012278	-0.468946	-0.049997
H41	H	1.672947	-0.068897	-0.102632
H42	H	1.673037	-0.068856	-0.608233
Cl43	Cl	2.095658	-0.567199	-0.200307
H44	H	1.634398	0.202796	0.141253
H45	H	2.058797	-0.523695	-0.417288
Cl46	Cl	2.012397	-0.468918	-0.602104
