data_functionalizedCrystal
_audit_creation_method	'MofGen! by Chris Wilmer'
_symmetry_space_group_name_H-M	'P1'
_symmetry_Int_Tables_number	1
_symmetry_cell_setting	triclinic
loop_
_symmetry_equiv_pos_as_xyz
  x,y,z
_cell_length_a	21.295417
_cell_length_b	21.295420
_cell_length_c	21.295412
_cell_angle_alpha	89.983421
_cell_angle_beta	89.968813
_cell_angle_gamma	90.028757
loop_
_atom_site_label
_atom_site_type_symbol
_atom_site_fract_x
_atom_site_fract_y
_atom_site_fract_z
Zn1	Zn	-0.250651	0.962305	-0.355914
Zn2	Zn	0.082682	1.295638	-0.022580
Zn3	Zn	0.416016	1.628972	0.310753
Zn4	Zn	-0.355920	0.962222	-0.250639
Zn5	Zn	-0.022587	1.295556	0.082694
Zn6	Zn	0.310746	1.628889	0.416028
Zn7	Zn	-0.250666	0.857043	-0.250658
Zn8	Zn	0.082668	1.190376	0.082675
Zn9	Zn	0.416001	1.523710	0.416008
Zn10	Zn	-0.355883	0.856998	-0.355870
Zn11	Zn	-0.022550	1.190331	-0.022537
Zn12	Zn	0.310784	1.523664	0.310796
O13	O	-0.303280	0.909642	-0.303270
O14	O	0.030053	1.242975	0.030063
O15	O	0.363387	1.576309	0.363396
O16	O	-0.264625	1.050383	-0.341959
O17	O	0.068709	1.383717	-0.008625
O18	O	0.402042	1.717050	0.324708
O19	O	-0.341980	0.948254	-0.162552
O20	O	-0.008647	1.281588	0.170781
O21	O	0.324687	1.614921	0.504114
O22	O	-0.162574	0.871060	-0.264647
O23	O	0.170759	1.204393	0.068686
O24	O	0.504092	1.537727	0.402020
O25	O	-0.341966	1.050323	-0.264614
O26	O	-0.008632	1.383656	0.068719
O27	O	0.324701	1.716989	0.402053
O28	O	-0.162564	0.948395	-0.341977
O29	O	0.170770	1.281729	-0.008644
O30	O	0.504103	1.615062	0.324689
O31	O	-0.264650	0.870980	-0.162566
O32	O	0.068683	1.204313	0.170767
O33	O	0.402017	1.537646	0.504100
O34	O	-0.264614	0.768948	-0.264605
O35	O	0.068720	1.102281	0.068728
O36	O	0.402053	1.435614	0.402062
O37	O	-0.341902	0.870982	-0.443966
O38	O	-0.008569	1.204316	-0.110632
O39	O	0.324765	1.537649	0.222701
O40	O	-0.341916	0.768914	-0.341904
O41	O	-0.008583	1.102248	-0.008571
O42	O	0.324750	1.435581	0.324763
O43	O	-0.264589	0.948351	-0.443997
O44	O	0.068745	1.281685	-0.110664
O45	O	0.402078	1.615018	0.222669
O46	O	-0.444005	0.948210	-0.264572
O47	O	-0.110672	1.281544	0.068761
O48	O	0.222662	1.614877	0.402095
O49	O	-0.443977	0.870902	-0.341885
O50	O	-0.110644	1.204236	-0.008552
O51	O	0.222689	1.537569	0.324782
C52	C	-0.303263	0.746090	-0.303252
C53	C	0.030070	1.079424	0.030081
C54	C	0.363404	1.412757	0.363414
C55	C	-0.303271	0.676122	-0.303260
C56	C	0.030062	1.009456	0.030074
C57	C	0.363396	1.342789	0.363407
C58	C	-0.343606	0.176663	-0.343481
C59	C	-0.010272	0.509997	-0.010148
C60	C	0.323061	0.843330	0.323186
C61	C	-0.343606	0.242406	-0.343474
C62	C	-0.010273	0.575739	-0.010141
C63	C	0.323061	0.909073	0.323192
C64	C	-0.303294	0.275283	-0.303290
C65	C	0.030039	0.608616	0.030043
C66	C	0.363372	0.941949	0.363377
C67	C	-0.262991	0.242412	-0.263098
C68	C	0.070342	0.575745	0.070235
C69	C	0.403676	0.909078	0.403568
C70	C	-0.262996	0.176671	-0.263102
C71	C	0.070337	0.510004	0.070232
C72	C	0.403670	0.843337	0.403565
N73	N	-0.248178	0.378524	-0.298558
N74	N	0.085156	0.711858	0.034776
N75	N	0.418489	1.045191	0.368109
N76	N	-0.248174	0.440976	-0.298558
N77	N	0.085159	0.774309	0.034775
N78	N	0.418492	1.107642	0.368109
C79	C	-0.303277	0.473358	-0.303277
C80	C	0.030057	0.806691	0.030057
C81	C	0.363390	1.140024	0.363390
N82	N	-0.358384	0.440929	-0.308007
N83	N	-0.025050	0.774262	0.025326
N84	N	0.308283	1.107595	0.358659
N85	N	-0.358386	0.378471	-0.308010
N86	N	-0.025053	0.711805	0.025323
N87	N	0.308280	1.045138	0.358657
C88	C	-0.303284	0.346568	-0.303282
C89	C	0.030049	0.679902	0.030052
C90	C	0.363382	1.013235	0.363385
C91	C	-0.343581	0.577506	-0.343456
C92	C	-0.010248	0.910839	-0.010122
C93	C	0.323086	1.244173	0.323211
C94	C	-0.343582	0.643250	-0.343445
C95	C	-0.010249	0.976583	-0.010111
C96	C	0.323085	1.309917	0.323222
C97	C	-0.262962	0.643255	-0.263072
C98	C	0.070372	0.976588	0.070261
C99	C	0.403705	1.309921	0.403595
C100	C	-0.262966	0.577512	-0.263080
C101	C	0.070367	0.910845	0.070253
C102	C	0.403701	1.244179	0.403587
C103	C	-0.303275	0.544642	-0.303275
C104	C	0.030059	0.877975	0.030058
C105	C	0.363392	1.211308	0.363392
C106	C	-0.466832	0.909559	-0.303236
C107	C	-0.133498	1.242893	0.030098
C108	C	0.199835	1.576226	0.363431
C109	C	-0.536800	0.909582	-0.303242
C110	C	-0.203467	1.242915	0.030092
C111	C	0.129867	1.576248	0.363425
C112	C	-0.569660	0.949872	-0.263026
C113	C	-0.236327	1.283205	0.070307
C114	C	0.097007	1.616538	0.403641
C115	C	-0.635402	0.949901	-0.263040
C116	C	-0.302069	1.283235	0.070293
C117	C	0.031264	1.616568	0.403627
C118	C	-0.668282	0.909629	-0.303263
C119	C	-0.334949	1.242963	0.030070
C120	C	-0.001616	1.576296	0.363403
C121	C	-0.635414	0.869337	-0.343487
C122	C	-0.302081	1.202670	-0.010154
C123	C	0.031252	1.536003	0.323180
C124	C	-0.569673	0.869313	-0.343476
C125	C	-0.236340	1.202646	-0.010143
C126	C	0.096994	1.535979	0.323191
N127	N	-0.771546	0.854562	-0.308056
N128	N	-0.438213	1.187895	0.025277
N129	N	-0.104880	1.521228	0.358610
N130	N	-0.833998	0.854586	-0.308063
N131	N	-0.500665	1.187920	0.025271
N132	N	-0.167331	1.521253	0.358604
C133	C	-0.866357	0.909700	-0.303299
C134	C	-0.533024	1.243033	0.030034
C135	C	-0.199690	1.576367	0.363367
N136	N	-0.833905	0.964790	-0.298517
N137	N	-0.500572	1.298123	0.034816
N138	N	-0.167239	1.631456	0.368150
N139	N	-0.771448	0.964764	-0.298507
N140	N	-0.438115	1.298098	0.034826
N141	N	-0.104782	1.631431	0.368160
C142	C	-0.739568	0.909651	-0.303280
C143	C	-0.406234	1.242985	0.030053
C144	C	-0.072901	1.576318	0.363387
C145	C	-0.970503	0.950025	-0.263097
C146	C	-0.637169	1.283359	0.070236
C147	C	-0.303836	1.616692	0.403570
C148	C	-1.036246	0.950056	-0.263116
C149	C	-0.702913	1.283389	0.070218
C150	C	-0.369580	1.616723	0.403551
C151	C	-1.036257	0.869486	-0.343559
C152	C	-0.702924	1.202819	-0.010226
C153	C	-0.369590	1.536152	0.323108
C154	C	-0.970515	0.869461	-0.343544
C155	C	-0.637181	1.202794	-0.010210
C156	C	-0.303848	1.536127	0.323123
C157	C	-0.937641	0.909730	-0.303309
C158	C	-0.604308	1.243063	0.030024
C159	C	-0.270975	1.576396	0.363357
C160	C	-0.139090	0.909742	-0.303319
C161	C	0.194244	1.243075	0.030014
C162	C	0.527577	1.576409	0.363348
C163	C	-0.069122	0.909785	-0.303340
C164	C	0.264212	1.243118	0.029993
C165	C	0.597545	1.576451	0.363327
C166	C	-0.303239	0.909671	-0.467461
C167	C	0.030094	1.243004	-0.134127
C168	C	0.363427	1.576338	0.199206
C169	C	-0.303222	0.909683	-0.537429
C170	C	0.030111	1.243017	-0.204096
C171	C	0.363444	1.576350	0.129238
C172	C	-0.303298	1.073832	-0.303289
C173	C	0.030036	1.407166	0.030044
C174	C	0.363369	1.740499	0.363378
C175	C	-0.303305	1.143800	-0.303297
C176	C	0.030028	1.477134	0.030037
C177	C	0.363362	1.810467	0.363370
C178	C	-0.262865	0.950029	-1.036905
C179	C	0.070468	1.283362	-0.703571
C180	C	0.403801	1.616696	-0.370238
C181	C	-0.262881	0.950024	-0.971162
C182	C	0.070453	1.283357	-0.637829
C183	C	0.403786	1.616691	-0.304495
C184	C	-0.303139	0.909738	-0.938269
C185	C	0.030194	1.243071	-0.604935
C186	C	0.363528	1.576405	-0.271602
C187	C	-0.343397	0.869465	-0.971123
C188	C	-0.010063	1.202798	-0.637790
C189	C	0.323270	1.536132	-0.304456
C190	C	-0.343385	0.869476	-1.036864
C191	C	-0.010051	1.202809	-0.703531
C192	C	0.323282	1.536142	-0.370198
N193	N	-0.307981	0.854617	-0.835040
N194	N	0.025352	1.187950	-0.501706
N195	N	0.358686	1.521283	-0.168373
N196	N	-0.307989	0.854608	-0.772588
N197	N	0.025345	1.187942	-0.439255
N198	N	0.358678	1.521275	-0.105922
C199	C	-0.303178	0.909705	-0.740194
C200	C	0.030155	1.243038	-0.406860
C201	C	0.363488	1.576371	-0.073527
N202	N	-0.298348	0.964811	-0.772610
N203	N	0.034986	1.298144	-0.439277
N204	N	0.368319	1.631478	-0.105943
N205	N	-0.298337	0.964818	-0.835067
N206	N	0.034996	1.298152	-0.501734
N207	N	0.368330	1.631485	-0.168400
C208	C	-0.303157	0.909722	-0.866983
C209	C	0.030177	1.243056	-0.533650
C210	C	0.363510	1.576389	-0.200316
C211	C	-0.262943	0.949973	-0.636062
C212	C	0.070390	1.283306	-0.302728
C213	C	0.403724	1.616640	0.030605
C214	C	-0.262963	0.949969	-0.570318
C215	C	0.070371	1.283303	-0.236984
C216	C	0.403704	1.616636	0.096349
C217	C	-0.343475	0.869404	-0.570280
C218	C	-0.010142	1.202738	-0.236947
C219	C	0.323191	1.536071	0.096387
C220	C	-0.343459	0.869414	-0.636023
C221	C	-0.010126	1.202747	-0.302689
C222	C	0.323208	1.536081	0.030644
C223	C	-0.303189	0.909697	-0.668909
C224	C	0.030144	1.243031	-0.335576
C225	C	0.363477	1.576364	-0.002243
C226	C	-0.303275	0.909649	-0.139719
C227	C	0.030058	1.242983	0.193615
C228	C	0.363392	1.576316	0.526948
C229	C	-0.303115	0.909759	-0.069751
C230	C	0.030218	1.243092	0.263582
C231	C	0.363552	1.576426	0.596916
H232	H	-0.376404	0.670006	-0.376166
H233	H	-0.043071	1.003339	-0.042832
H234	H	0.290263	1.336673	0.290501
H235	H	-1.063027	0.836698	-0.376312
H236	H	-0.729694	1.170032	-0.042979
H237	H	-0.396361	1.503365	0.290354
H238	H	-0.376431	0.149904	-0.376209
H239	H	-0.043097	0.483238	-0.042875
H240	H	0.290236	0.816571	0.290458
H241	H	-0.230147	0.550755	-0.230360
H242	H	0.103187	0.884088	0.102974
H243	H	0.436520	1.217421	0.436307
H244	H	-0.230077	0.982834	-1.063677
H245	H	0.103256	1.316167	-0.730344
H246	H	0.436589	1.649500	-0.397010
H247	H	-0.230153	0.982774	-0.662839
H248	H	0.103181	1.316107	-0.329506
H249	H	0.436514	1.649440	0.003827
H250	H	-0.230170	0.269184	-0.230379
H251	H	0.103163	0.602518	0.102954
H252	H	0.436497	0.935851	0.436287
H253	H	-0.943736	0.982817	-0.230338
H254	H	-0.610403	1.316150	0.102996
H255	H	-0.277069	1.649484	0.436329
H256	H	-0.230188	0.982766	-0.543575
H257	H	0.103145	1.316100	-0.210242
H258	H	0.436479	1.649433	0.123091
H259	H	-0.376176	0.836665	-0.944337
H260	H	-0.042843	1.169998	-0.611004
H261	H	0.290490	1.503331	-0.277670
H262	H	-0.230141	0.670022	-0.230351
H263	H	0.103192	1.003356	0.102982
H264	H	0.436525	1.336689	0.436315
H265	H	-0.230177	0.149914	-0.230379
H266	H	0.103156	0.483247	0.102955
H267	H	0.436490	0.816580	0.436288
H268	H	-0.662162	0.982713	-0.230292
H269	H	-0.328829	1.316046	0.103041
H270	H	0.004504	1.649379	0.436375
H271	H	-0.230102	0.982817	-0.944413
H272	H	0.103231	1.316150	-0.611080
H273	H	0.436565	1.649483	-0.277746
H274	H	-0.376162	0.836682	-1.063608
H275	H	-0.042829	1.170015	-0.730274
H276	H	0.290505	1.503348	-0.396941
H277	H	-0.376257	0.836605	-0.543499
H278	H	-0.042924	1.169938	-0.210165
H279	H	0.290410	1.503272	0.123168
H280	H	-0.662189	0.836548	-0.376238
H281	H	-0.328856	1.169881	-0.042905
H282	H	0.004477	1.503215	0.290429
H283	H	-0.376232	0.836619	-0.662766
H284	H	-0.042899	1.169952	-0.329433
H285	H	0.290434	1.503286	0.003900
H286	H	-0.376403	0.550742	-0.376184
H287	H	-0.043070	0.884075	-0.042851
H288	H	0.290263	1.217408	0.290482
H289	H	-0.943758	0.836650	-0.376288
H290	H	-0.610425	1.169983	-0.042955
H291	H	-0.277091	1.503317	0.290378
H292	H	-0.376423	0.269168	-0.376199
H293	H	-0.043090	0.602502	-0.042866
H294	H	0.290243	0.935835	0.290468
H295	H	-0.542896	0.982663	-0.230266
H296	H	-0.209563	1.315996	0.103067
H297	H	0.123770	1.649329	0.436400
H298	H	-0.542918	0.836503	-0.376225
H299	H	-0.209585	1.169836	-0.042892
H300	H	0.123749	1.503170	0.290441
H301	H	-1.063000	0.982869	-0.230368
H302	H	-0.729666	1.316202	0.102965
H303	H	-0.396333	1.649536	0.436298
