data_functionalizedCrystal
_audit_creation_method	'MofGen! by Chris Wilmer'
_symmetry_space_group_name_H-M	'P1'
_symmetry_Int_Tables_number	1
_symmetry_cell_setting	triclinic
loop_
_symmetry_equiv_pos_as_xyz
  x,y,z
_cell_length_a	15.944551
_cell_length_b	22.610064
_cell_length_c	15.944551
_cell_angle_alpha	89.996881
_cell_angle_beta	83.498738
_cell_angle_gamma	90.003741
loop_
_atom_site_label
_atom_site_type_symbol
_atom_site_fract_x
_atom_site_fract_y
_atom_site_fract_z
O1	O	1.114530	0.049124	0.108321
O2	O	0.869980	0.049139	0.121677
O3	O	0.998933	0.049126	-0.007276
O4	O	0.985577	0.049137	0.237274
O5	O	0.998910	-0.049243	-0.007257
O6	O	0.869958	-0.049230	0.121696
O7	O	1.114507	-0.049245	0.108339
Zn8	Zn	0.992229	-0.064856	0.115021
Zn9	Zn	0.992259	0.064750	0.114996
O10	O	0.985554	-0.049232	0.237292
C11	C	0.838675	-0.000044	0.121132
C12	C	0.745429	-0.000038	0.119470
N13	N	0.992214	-0.153308	0.115037
C14	C	0.530572	-0.000054	0.035565
C15	C	0.469563	0.048449	0.074518
C16	C	0.574703	-0.000045	0.116462
C17	C	0.469563	-0.048535	0.074556
C18	C	0.409790	-0.000055	0.113551
C19	C	0.514922	0.048498	0.155438
C20	C	0.514929	-0.048530	0.155464
C21	C	0.453937	-0.000015	0.194476
C22	C	0.669705	-0.000039	0.118137
C23	C	0.314789	-0.000057	0.111883
C24	C	1.049362	-0.561956	0.057904
C25	C	1.049366	-0.623875	0.057898
O26	O	1.097919	-0.655899	0.009334
N27	N	0.992258	-0.654845	0.114978
C28	C	0.935136	-0.623892	0.172063
O29	O	0.886562	-0.655920	0.220613
C30	C	0.935129	-0.561974	0.172064
C31	C	0.992246	-0.531007	0.114986
C32	C	1.106474	-0.530989	0.000830
C33	C	1.106470	-0.469073	0.000837
C34	C	1.049355	-0.438124	0.057919
C35	C	0.992243	-0.469091	0.114993
C36	C	0.878004	-0.531022	0.229144
C37	C	0.878001	-0.469099	0.229140
C38	C	0.935118	-0.438132	0.172062
C39	C	0.935124	-0.376227	0.172082
N40	N	0.992232	-0.345257	0.115002
C41	C	1.049347	-0.376205	0.057920
C42	C	0.935156	-0.753926	0.172054
C43	C	0.935167	-0.815844	0.172058
C44	C	1.049396	-0.815822	0.057892
C45	C	1.049388	-0.753904	0.057893
C46	C	0.992264	-0.722956	0.114974
C47	C	1.049336	-0.246178	0.057941
C48	C	1.049330	-0.184257	0.057955
C49	C	0.935099	-0.184284	0.172118
C50	C	0.935107	-0.246199	0.172106
C51	C	0.992229	-0.277145	0.115011
O52	O	0.886593	-0.344164	0.220619
O53	O	1.097906	-0.344170	0.009371
C54	C	1.145813	-0.000061	0.108885
C55	C	1.239059	-0.000063	0.110547
C56	C	0.998367	-0.000059	-0.038561
C57	C	0.996705	-0.000059	-0.131807
N58	N	0.992280	0.153202	0.114973
C59	C	0.912801	-0.000046	-0.346663
C60	C	0.951752	-0.048550	-0.407671
C61	C	0.993698	-0.000054	-0.302533
C62	C	0.951793	0.048434	-0.407673
C63	C	0.990787	-0.000047	-0.467445
C64	C	1.032671	-0.048599	-0.362312
C65	C	1.032701	0.048429	-0.362308
C66	C	1.071711	-0.000087	-0.423298
C67	C	0.995372	-0.000059	-0.207530
C68	C	0.989119	-0.000047	-0.562446
C69	C	0.986120	-0.000046	0.268577
C70	C	0.987782	-0.000042	0.361823
H71	H	0.563905	0.000003	-0.031573
O72	O	0.414410	0.000123	0.274665
C73	C	0.437550	0.051321	0.316986
H74	H	0.459460	0.086899	0.268757
H75	H	0.380863	0.068250	0.360325
H76	H	0.491036	0.040215	0.356098
O77	O	0.911098	0.097417	-0.431622
C78	C	0.953041	0.148470	-0.407359
H79	H	1.021410	0.137079	-0.399727
H80	H	0.951407	0.183994	-0.457888
H81	H	0.920224	0.165621	-0.344843
H82	H	1.095897	-0.728694	0.011415
H83	H	1.152984	-0.556182	-0.045657
H84	H	0.917526	-0.089553	-0.427772
H85	H	0.845652	-0.000090	-0.313356
O86	O	1.073389	-0.097557	-0.338314
C87	C	1.074448	-0.096974	-0.250017
H88	H	1.020535	-0.068226	-0.219826
H89	H	1.066495	-0.143999	-0.224558
H90	H	1.137170	-0.078227	-0.234267
H91	H	0.449463	0.089452	0.040294
H92	H	0.534920	0.089548	0.189620
O93	O	0.822436	-0.561001	0.284620
C94	C	0.772042	-0.520395	0.335005
H95	H	0.771104	-0.476258	0.300559
H96	H	0.704963	-0.538284	0.347772
H97	H	0.799309	-0.513809	0.397424
H98	H	0.535050	-0.089535	0.189660
H99	H	0.449467	-0.089539	0.040333
O100	O	1.104731	-0.154240	0.002343
C101	C	1.091028	-0.169431	-0.080781
H102	H	1.023761	-0.186431	-0.081171
H103	H	1.100702	-0.128741	-0.122994
H104	H	1.137538	-0.205403	-0.105395
O105	O	1.104861	-0.276297	0.002595
C106	C	1.156701	-0.312101	0.047605
H107	H	1.123248	-0.321395	0.113308
H108	H	1.170004	-0.355633	0.012540
H109	H	1.218768	-0.288227	0.053363
H110	H	1.152978	-0.443863	-0.045643
O111	O	1.151900	-0.000227	-0.462827
C112	C	1.194219	-0.051425	-0.439686
H113	H	1.145988	-0.087002	-0.417774
H114	H	1.237557	-0.068356	-0.496373
H115	H	1.233332	-0.040319	-0.386201
H116	H	1.095901	-0.841032	0.011412
O117	O	0.879608	-0.845829	0.227541
C118	C	0.829215	-0.805228	0.277935
H119	H	0.828270	-0.761089	0.243495
H120	H	0.762137	-0.823119	0.290706
H121	H	0.856488	-0.798644	0.340352
O122	O	0.879786	-0.723801	0.227553
C123	C	0.924764	-0.687997	0.279421
H124	H	0.990484	-0.678705	0.246005
H125	H	0.889697	-0.644463	0.292702
H126	H	0.930483	-0.711869	0.341498
O127	O	0.822626	-0.438972	0.284628
C128	C	0.867600	-0.403169	0.336500
H129	H	0.933324	-0.393882	0.303092
H130	H	0.832536	-0.359632	0.349773
H131	H	0.873307	-0.427039	0.398580
H132	H	0.888605	-0.271413	0.218593
O133	O	0.879648	-0.154122	0.227481
C134	C	0.891910	-0.092832	0.215250
H135	H	0.923312	-0.084375	0.148491
H136	H	0.828303	-0.069302	0.224542
H137	H	0.934029	-0.075258	0.262827
H138	H	1.066898	0.089434	-0.342185
