data_functionalizedCrystal
_audit_creation_method	'MofGen! by Chris Wilmer'
_symmetry_space_group_name_H-M	'P1'
_symmetry_Int_Tables_number	1
_symmetry_cell_setting	triclinic
loop_
_symmetry_equiv_pos_as_xyz
  x,y,z
_cell_length_a	16.992694
_cell_length_b	19.188924
_cell_length_c	15.455313
_cell_angle_alpha	92.653849
_cell_angle_beta	87.142206
_cell_angle_gamma	86.905094
loop_
_atom_site_label
_atom_site_type_symbol
_atom_site_fract_x
_atom_site_fract_y
_atom_site_fract_z
O1	O	1.043321	0.145161	-0.072029
O2	O	0.815043	0.143536	-0.072054
O3	O	0.935772	0.043078	-0.072030
O4	O	0.922592	0.245618	-0.072052
O5	O	0.928868	0.048798	0.072230
O6	O	0.808139	0.149255	0.072207
O7	O	1.036418	0.150880	0.072232
Cu8	Cu	0.921648	0.150590	0.085392
Cu9	Cu	0.929813	0.143826	-0.085213
O10	O	0.915688	0.251338	0.072209
C11	C	0.782386	0.144306	0.000073
C12	C	0.695364	0.138073	0.000064
C13	C	0.931894	0.019902	0.000101
C14	C	0.930616	-0.057677	0.000103
C15	C	0.644916	0.198212	0.000058
C16	C	0.563149	0.192352	0.000071
C17	C	0.531832	0.126352	0.000083
C18	C	0.582286	0.066208	0.000091
C19	C	0.664051	0.072069	0.000085
C20	C	0.288317	0.102060	0.000109
C21	C	0.206545	0.096203	0.000113
C22	C	0.187413	0.222348	0.000093
C23	C	0.269181	0.228203	0.000082
C24	C	0.319628	0.168060	0.000095
N25	N	0.448253	0.120360	0.000093
N26	N	0.403205	0.174052	0.000091
C27	C	0.933782	-0.097229	-0.078534
C28	C	0.932570	-0.170123	-0.078541
C29	C	0.928207	-0.203463	0.000094
C30	C	0.925035	-0.163902	0.078741
C31	C	0.926240	-0.091009	0.078746
N32	N	0.968126	-0.318306	0.058625
N33	N	0.966984	-0.387552	0.058615
C34	C	0.924576	-0.423085	0.000085
N35	N	0.883364	-0.386758	-0.058448
N36	N	0.884510	-0.317507	-0.058441
C37	C	0.926900	-0.282503	0.000098
C38	C	0.926427	-0.541677	-0.078564
C39	C	0.925210	-0.614572	-0.078568
C40	C	0.917683	-0.608350	0.078716
C41	C	0.918893	-0.535456	0.078717
C42	C	0.923268	-0.502124	0.000075
C43	C	1.069075	0.150109	0.000103
C44	C	1.156097	0.156343	0.000107
C45	C	0.919566	0.274514	0.000075
C46	C	0.920845	0.352093	0.000068
N47	N	0.915911	0.155347	0.205386
N48	N	0.935555	0.139064	-0.205208
C49	C	0.967219	0.112687	0.250790
C50	C	0.962888	0.116291	0.341597
C51	C	0.907252	0.162560	0.386998
C52	C	0.855939	0.205222	0.341588
C53	C	0.860267	0.201613	0.250783
C54	C	0.888570	0.178117	0.658576
C55	C	0.884248	0.181724	0.749388
C56	C	0.991196	0.092792	0.749391
C57	C	0.995523	0.089191	0.658584
C58	C	0.944207	0.131850	0.613181
N59	N	0.902825	0.166247	0.479818
N60	N	0.948630	0.128159	0.520364
H61	H	0.670407	0.251957	0.000047
H62	H	0.818486	0.236351	0.213815
H63	H	0.181051	0.042455	0.000122
H64	H	1.012527	0.075013	0.213831
H65	H	0.846788	0.212853	0.621617
H66	H	0.916321	-0.503253	0.142752
H67	H	0.935144	-0.202332	-0.142578
H68	H	0.522076	0.241324	0.000065
H69	H	0.927785	-0.646773	-0.142606
H70	H	0.923658	-0.058806	0.142783
H71	H	0.810635	0.242892	0.378559
H72	H	0.838940	0.219404	0.786349
H73	H	0.929986	-0.514536	-0.142600
H74	H	0.329381	0.053086	0.000120
H75	H	0.294673	0.281947	0.000062
H76	H	0.705126	0.023097	0.000089
H77	H	0.146331	0.271314	0.000085
H78	H	0.556781	0.012469	0.000114
H79	H	1.040826	0.051515	0.621620
H80	H	0.937343	-0.070095	-0.142571
H81	H	1.032974	0.058060	0.786366
H82	H	0.914125	-0.635495	0.142742
H83	H	0.921481	-0.191053	0.142766
H84	H	1.004666	0.081554	0.378565
