data_functionalizedCrystal
_audit_creation_method	'MofGen! by Chris Wilmer'
_symmetry_space_group_name_H-M	'P1'
_symmetry_Int_Tables_number	1
_symmetry_cell_setting	triclinic
loop_
_symmetry_equiv_pos_as_xyz
  x,y,z
_cell_length_a	18.215407
_cell_length_b	12.759394
_cell_length_c	18.215399
_cell_angle_alpha	90.023582
_cell_angle_beta	90.017368
_cell_angle_gamma	90.011299
loop_
_atom_site_label
_atom_site_type_symbol
_atom_site_fract_x
_atom_site_fract_y
_atom_site_fract_z
Zn1	Zn	1.125128	-0.418349	0.416090
Zn2	Zn	1.125060	-0.594046	0.293033
Zn3	Zn	1.002061	-0.418374	0.293042
Zn4	Zn	1.002050	-0.593979	0.416063
O5	O	1.063575	-0.506187	0.354557
O6	O	1.228104	-0.441673	0.399773
O7	O	1.108720	-0.570782	0.190050
O8	O	1.018419	-0.271350	0.309380
O9	O	1.228054	-0.570758	0.309364
O10	O	1.108836	-0.271331	0.399782
O11	O	1.018353	-0.441716	0.190057
O12	O	0.899075	-0.441651	0.309354
O13	O	1.018401	-0.570642	0.519051
O14	O	0.899068	-0.570667	0.399737
O15	O	1.108826	-0.441608	0.519071
O16	O	1.108710	-0.741058	0.309338
O17	O	1.018335	-0.741009	0.399728
C18	C	0.872369	-0.506155	0.354544
C19	C	0.790570	-0.506166	0.354556
C20	C	0.602401	-0.439090	0.401707
C21	C	0.525542	-0.439099	0.401709
C22	C	0.525501	-0.573313	0.307420
C23	C	0.602358	-0.573298	0.307415
C24	C	0.640806	-0.506188	0.354562
C25	C	0.487090	-0.506212	0.354570
C26	C	0.403757	-0.506223	0.354573
C27	C	0.724145	-0.506176	0.354559
C28	C	1.063534	-0.779155	0.354545
C29	C	1.063584	-0.895931	0.354564
C30	C	1.157665	-0.895754	0.448771
C31	C	1.204728	-0.950526	0.495880
C32	C	1.204772	-1.060247	0.495896
C33	C	1.157746	-1.115199	0.448799
C34	C	1.110682	-1.060427	0.401690
C35	C	1.110645	-0.950703	0.401678
C36	C	1.016599	-1.060605	0.307489
C37	C	1.016557	-0.950883	0.307468
C38	C	0.969572	-1.115557	0.260392
C39	C	0.922511	-1.060785	0.213278
C40	C	0.922470	-0.951057	0.213264
C41	C	0.969494	-0.896111	0.260359
C42	C	1.255528	-0.506220	0.354570
C43	C	1.337327	-0.506234	0.354576
C44	C	1.063620	-0.506115	0.546510
C45	C	1.063639	-0.506084	0.628309
C46	C	1.063636	-0.232154	0.354585
C47	C	1.063662	-0.115377	0.354597
C48	C	1.063573	-0.506183	0.163351
C49	C	1.063696	-0.505918	0.081552
C50	C	1.110740	-0.438833	0.816514
C51	C	1.110749	-0.438802	0.893373
C52	C	1.016590	-0.573172	0.893342
C53	C	1.016578	-0.573197	0.816484
C54	C	1.063657	-0.506029	0.778073
C55	C	1.063678	-0.505973	0.931789
C56	C	1.063687	-0.505941	1.015122
C57	C	1.063647	-0.506060	0.694734
H58	H	0.494188	-0.627952	0.269036
H59	H	0.633629	-0.627938	0.269020
H60	H	1.149087	-0.384083	0.924669
O61	O	0.970932	-0.638387	0.930770
C62	C	0.929189	-0.697859	1.049158
C63	C	0.980945	-0.623964	1.006865
H64	H	0.937256	-0.686207	1.110689
H65	H	0.942094	-0.782604	1.034092
H66	H	0.869857	-0.679417	1.033997
H67	H	1.040295	-0.642311	1.022004
H68	H	0.967978	-0.539240	1.021935
O69	O	0.970817	-0.638576	0.779251
C70	C	0.877395	-0.771808	0.787323
C71	C	0.929192	-0.697845	0.829581
H72	H	0.843717	-0.819730	0.827997
H73	H	0.911132	-0.826827	0.751358
H74	H	0.838951	-0.723559	0.751321
H75	H	0.967646	-0.746009	0.865623
H76	H	0.895409	-0.642824	0.865501
O77	O	0.876903	-1.114325	0.167559
C78	C	0.835234	-1.283443	0.125874
C79	C	0.886934	-1.222934	0.177678
H80	H	0.843315	-1.371263	0.134049
H81	H	0.848181	-1.261995	0.066522
H82	H	0.775887	-1.261853	0.138737
H83	H	0.946299	-1.244492	0.164881
H84	H	0.873925	-1.244387	0.237015
O85	O	0.876725	-0.898017	0.167434
C86	C	0.783369	-0.909787	0.074037
C87	C	0.835152	-0.969979	0.125889
H88	H	0.749732	-0.967941	0.040446
H89	H	0.817116	-0.858445	0.035522
H90	H	0.744887	-0.858400	0.107802
H91	H	0.873645	-1.021422	0.092183
H92	H	0.801359	-1.021254	0.164406
O93	O	1.250305	-0.897027	0.541662
C94	C	1.260108	-0.773096	0.641040
C95	C	1.208413	-0.833596	0.589226
H96	H	1.226257	-0.721814	0.679519
H97	H	1.298572	-0.721644	0.607315
H98	H	1.293769	-0.831107	0.674680
H99	H	1.174704	-0.775660	0.555575
H100	H	1.169996	-0.885063	0.622993
H101	H	0.969468	-0.806770	0.260349
H102	H	1.157641	-0.806413	0.448756
H103	H	0.494276	-0.384460	0.440098
O104	O	0.639636	-0.373800	0.447524
C105	C	0.631561	-0.240724	0.541076
C106	C	0.589304	-0.314598	0.489214
H107	H	0.590886	-0.192855	0.574807
H108	H	0.667515	-0.185651	0.507387
H109	H	0.667575	-0.289038	0.579468
H110	H	0.553251	-0.266368	0.450812
H111	H	0.553397	-0.369674	0.522948
O112	O	1.250551	-1.113296	0.541687
C113	C	1.343819	-1.101553	0.635173
C114	C	1.292030	-1.041346	0.583337
H115	H	1.377357	-1.043408	0.668871
H116	H	1.382387	-1.152888	0.601465
H117	H	1.310008	-1.152949	0.673595
H118	H	1.325781	-0.989894	0.544904
H119	H	1.253460	-0.990077	0.617090
H120	H	1.157779	-1.204541	0.448823
H121	H	0.969608	-1.204898	0.260411
O122	O	1.156489	-0.373482	0.779315
C123	C	1.249909	-0.240241	0.787462
C124	C	1.198125	-0.314184	0.829679
H125	H	1.283596	-0.192294	0.828163
H126	H	1.216162	-0.185243	0.751501
H127	H	1.288346	-0.288506	0.751459
H128	H	1.159678	-0.266003	0.865722
H129	H	1.231918	-0.369184	0.865593
