data_functionalizedCrystal
_audit_creation_method	'MofGen! by Chris Wilmer'
_symmetry_space_group_name_H-M	'P1'
_symmetry_Int_Tables_number	1
_symmetry_cell_setting	triclinic
loop_
_symmetry_equiv_pos_as_xyz
  x,y,z
_cell_length_a	12.594517
_cell_length_b	19.121063
_cell_length_c	12.594509
_cell_angle_alpha	92.407369
_cell_angle_beta	89.978379
_cell_angle_gamma	92.468805
loop_
_atom_site_label
_atom_site_type_symbol
_atom_site_fract_x
_atom_site_fract_y
_atom_site_fract_z
Zn1	Zn	1.609109	-0.279607	-0.619881
Zn2	Zn	1.942442	0.053727	-0.286548
Zn3	Zn	2.275775	0.387060	0.046785
Zn4	Zn	1.601369	-0.397067	-0.449473
Zn5	Zn	1.934702	-0.063733	-0.116140
Zn6	Zn	2.268036	0.269600	0.217193
Zn7	Zn	1.431110	-0.279634	-0.441912
Zn8	Zn	1.764443	0.053700	-0.108579
Zn9	Zn	2.097776	0.387033	0.224755
Zn10	Zn	1.423468	-0.397021	-0.627400
Zn11	Zn	1.756801	-0.063688	-0.294067
Zn12	Zn	2.090135	0.269646	0.039266
O13	O	1.516264	-0.338332	-0.534667
O14	O	1.849597	-0.004999	-0.201333
O15	O	2.182931	0.328335	0.132000
O16	O	1.757027	-0.295196	-0.597294
O17	O	2.090360	0.038137	-0.263961
O18	O	2.423694	0.371471	0.069373
O19	O	1.578743	-0.381519	-0.299526
O20	O	1.912076	-0.048186	0.033807
O21	O	2.245409	0.285147	0.367140
O22	O	1.461159	-0.181346	-0.459209
O23	O	1.794492	0.151988	-0.125875
O24	O	2.127825	0.485321	0.207458
O25	O	1.751341	-0.381493	-0.472096
O26	O	2.084674	-0.048160	-0.138763
O27	O	2.418008	0.285173	0.194571
O28	O	1.591934	-0.181326	-0.589962
O29	O	1.925267	0.152007	-0.256629
O30	O	2.258600	0.485341	0.076705
O31	O	1.453654	-0.295242	-0.293971
O32	O	1.786987	0.038092	0.039362
O33	O	2.120321	0.371425	0.372696
O34	O	1.281151	-0.295198	-0.466500
O35	O	1.614484	0.038136	-0.133166
O36	O	1.947817	0.371469	0.200167
O37	O	1.448135	-0.381416	-0.775347
O38	O	1.781468	-0.048082	-0.442014
O39	O	2.114801	0.285251	-0.108680
O40	O	1.275537	-0.381442	-0.602777
O41	O	1.608870	-0.048108	-0.269444
O42	O	1.942203	0.285225	0.063889
O43	O	1.584524	-0.295152	-0.769823
O44	O	1.917857	0.038182	-0.436489
O45	O	2.251191	0.371515	-0.103156
O46	O	1.571333	-0.495345	-0.479387
O47	O	1.904666	-0.162012	-0.146054
O48	O	2.238000	0.171321	0.187280
O49	O	1.440630	-0.495312	-0.610109
O50	O	1.773963	-0.161978	-0.276776
O51	O	2.107297	0.171355	0.056557
C52	C	1.239724	-0.338318	-0.534635
C53	C	1.573057	-0.004985	-0.201301
C54	C	1.906390	0.328349	0.132032
C55	C	1.121418	-0.338329	-0.534647
C56	C	1.454751	-0.004996	-0.201314
C57	C	1.788084	0.328338	0.132020
C58	C	1.055191	-0.291357	-0.460657
C59	C	1.388525	0.041977	-0.127324
C60	C	1.721858	0.375310	0.206010
C61	C	0.980219	-0.355422	-0.438606
C62	C	1.313552	-0.022089	-0.105273
C63	C	1.646886	0.311245	0.228060
C64	C	0.985589	-0.274295	-0.556718
C65	C	1.318922	0.059038	-0.223385
C66	C	1.652256	0.392372	0.109949
C67	C	1.048001	-0.402428	-0.512548
C68	C	1.381335	-0.069094	-0.179214
C69	C	1.714668	0.264239	0.154119
C70	C	1.053380	-0.321258	-0.630702
C71	C	1.386714	0.012076	-0.297368
C72	C	1.720047	0.345409	0.035965
C73	C	0.978437	-0.385367	-0.608691
C74	C	1.311770	-0.052034	-0.275357
C75	C	1.645104	0.281299	0.057976
C76	C	1.504341	-0.520812	-0.546408
C77	C	1.837675	-0.187479	-0.213074
C78	C	2.171008	0.145854	0.120259
C79	C	1.499338	-0.598878	-0.551466
C80	C	1.832672	-0.265545	-0.218133
C81	C	2.166005	0.067788	0.115200
C82	C	1.565091	-0.635548	-0.485839
C83	C	1.898424	-0.302215	-0.152506
C84	C	2.231757	0.031119	0.180828
C85	C	1.560392	-0.708899	-0.490603
C86	C	1.893725	-0.375566	-0.157269
C87	C	2.227058	-0.042232	0.176064
C88	C	1.489934	-0.745579	-0.560989
C89	C	1.823267	-0.412246	-0.227656
C90	C	2.156600	-0.078913	0.105678
C91	C	1.424179	-0.708905	-0.626623
C92	C	1.757512	-0.375571	-0.293290
C93	C	2.090845	-0.042238	0.040043
C94	C	1.428884	-0.635555	-0.621864
C95	C	1.762217	-0.302221	-0.288531
C96	C	2.095551	0.031112	0.044802
C97	C	1.472325	-0.967049	-0.578766
C98	C	1.805658	-0.633715	-0.245432
C99	C	2.138992	-0.300382	0.087901
C100	C	1.467622	-1.040404	-0.583517
C101	C	1.800956	-0.707070	-0.250184
C102	C	2.134289	-0.373737	0.083149
C103	C	1.603837	-1.040393	-0.447498
C104	C	1.937171	-0.707060	-0.114164
C105	C	2.270504	-0.373727	0.219169
C106	C	1.608532	-0.967042	-0.442740
C107	C	1.941865	-0.633709	-0.109407
C108	C	2.275198	-0.300375	0.223926
C109	C	1.542781	-0.930374	-0.508378
C110	C	1.876114	-0.597040	-0.175045
C111	C	2.209447	-0.263707	0.158288
C112	C	1.485127	-0.820556	-0.565858
C113	C	1.818460	-0.487223	-0.232524
C114	C	2.151793	-0.153889	0.100809
C115	C	1.547594	-0.855398	-0.503515
C116	C	1.880927	-0.522065	-0.170181
C117	C	2.214261	-0.188732	0.163152
C118	C	1.793884	-0.338347	-0.534700
C119	C	2.127217	-0.005013	-0.201366
C120	C	2.460550	0.328320	0.131967
C121	C	1.912189	-0.338353	-0.534714
C122	C	2.245522	-0.005020	-0.201381
C123	C	2.578855	0.328314	0.131953
C124	C	1.516340	-0.338276	-0.812284
C125	C	1.849674	-0.004942	-0.478951
C126	C	2.183007	0.328391	-0.145617
C127	C	1.516373	-0.338251	-0.930588
C128	C	1.849706	-0.004918	-0.597255
C129	C	2.183039	0.328415	-0.263921
C130	C	1.528262	-0.155139	-0.522903
C131	C	1.861595	0.178194	-0.189570
C132	C	2.194929	0.511527	0.143763
C133	C	1.533375	-0.077073	-0.517890
C134	C	1.866708	0.256260	-0.184557
C135	C	2.200041	0.589593	0.148776
C136	C	1.442239	-0.385112	-1.073606
C137	C	1.775573	-0.051778	-0.740272
C138	C	2.108906	0.281555	-0.406939
C139	C	1.420377	-0.321062	-0.998676
C140	C	1.753710	0.012272	-0.665343
C141	C	2.087043	0.345605	-0.332009
C142	C	1.538188	-0.402295	-1.003946
C143	C	1.871521	-0.068962	-0.670613
C144	C	2.204855	0.264372	-0.337279
C145	C	1.494529	-0.274079	-1.066436
C146	C	1.827862	0.059254	-0.733103
C147	C	2.161195	0.392587	-0.399769
C148	C	1.612382	-0.355356	-1.071715
C149	C	1.945716	-0.022023	-0.738382
C150	C	2.279049	0.311311	-0.405049
C151	C	1.590559	-0.291262	-0.996814
C152	C	1.923893	0.042071	-0.663481
C153	C	2.257226	0.375405	-0.330148
C154	C	1.516252	-0.338338	-0.258126
C155	C	1.849586	-0.005004	0.075207
C156	C	2.182919	0.328329	0.408541
C157	C	1.516439	-0.338164	-0.139810
C158	C	1.849772	-0.004831	0.193523
C159	C	2.183105	0.328503	0.526857
H160	H	1.622460	-0.605688	-0.428518
H161	H	1.955793	-0.272354	-0.095185
H162	H	2.289127	0.060979	0.238148
H163	H	0.957980	-0.220140	-0.575322
H164	H	1.291313	0.113194	-0.241989
H165	H	1.624647	0.446527	0.091344
H166	H	1.476013	-0.219866	-1.093891
H167	H	1.809346	0.113468	-0.760558
H168	H	2.142679	0.446801	-0.427225
F169	F	1.099110	-0.239486	-0.378783
F170	F	1.432443	0.093847	-0.045449
F171	F	1.765777	0.427180	0.287884
F172	F	0.938262	-0.374315	-0.332470
F173	F	1.271595	-0.040982	0.000863
F174	F	1.604928	0.292351	0.334196
H175	H	0.945028	-0.425146	-0.671293
H176	H	1.278361	-0.091813	-0.337960
H177	H	1.611695	0.241521	-0.004626
F178	F	1.718439	-0.374344	-1.113639
F179	F	2.051772	-0.041011	-0.780305
F180	F	2.385105	0.292322	-0.446972
H181	H	1.665904	-0.937178	-0.385426
H182	H	1.999237	-0.603845	-0.052093
H183	H	2.332571	-0.270512	0.281241
F184	F	1.358904	-0.596528	-0.691717
F185	F	1.692237	-0.263195	-0.358384
F186	F	2.025570	0.070138	-0.025050
F187	F	1.402345	-0.928033	-0.648623
F188	F	1.735678	-0.594699	-0.315290
F189	F	2.069011	-0.261366	0.018043
F190	F	1.083840	-0.473243	-0.488060
F191	F	1.417173	-0.139910	-0.154727
F192	F	1.750506	0.193424	0.178606
H193	H	1.085505	-0.306784	-0.711878
H194	H	1.418839	0.026549	-0.378545
H195	H	1.752172	0.359883	-0.045212
F196	F	1.630378	-0.747923	-0.420756
F197	F	1.963711	-0.414589	-0.087423
F198	F	2.297045	-0.081256	0.245911
F199	F	1.673814	-1.079423	-0.377650
F200	F	2.007147	-0.746090	-0.044317
F201	F	2.340481	-0.412757	0.289016
H202	H	1.366815	-0.738775	-0.683938
H203	H	1.700148	-0.405442	-0.350605
H204	H	2.033482	-0.072109	-0.017271
H205	H	1.653283	-0.251551	-0.963390
H206	H	1.986616	0.081782	-0.630057
H207	H	2.319949	0.415115	-0.296724
H208	H	1.604965	-0.825531	-0.446210
H209	H	1.938298	-0.492198	-0.112877
H210	H	2.271631	-0.158864	0.220457
F211	F	1.562264	-0.473134	-0.967877
F212	F	1.895597	-0.139800	-0.634543
F213	F	2.228931	0.193533	-0.301210
F214	F	1.410141	-0.859600	-0.640765
F215	F	1.743475	-0.526267	-0.307432
F216	F	2.076808	-0.192933	0.025901
F217	F	1.360207	-0.436891	-1.117548
F218	F	1.693540	-0.103557	-0.784215
F219	F	2.026874	0.229776	-0.450881
H220	H	1.410260	-1.070267	-0.640853
H221	H	1.743593	-0.736933	-0.307520
H222	H	2.076927	-0.403600	0.025814
F223	F	1.314289	-0.302096	-0.956789
F224	F	1.647622	0.031238	-0.623456
F225	F	1.980955	0.364571	-0.290123
