data_functionalizedCrystal
_audit_creation_method	'MofGen! by Chris Wilmer'
_symmetry_space_group_name_H-M	'P1'
_symmetry_Int_Tables_number	1
_symmetry_cell_setting	triclinic
loop_
_symmetry_equiv_pos_as_xyz
  x,y,z
_cell_length_a	21.606444
_cell_length_b	21.606444
_cell_length_c	21.606444
_cell_angle_alpha	59.999490
_cell_angle_beta	90.002531
_cell_angle_gamma	60.011302
loop_
_atom_site_label
_atom_site_type_symbol
_atom_site_fract_x
_atom_site_fract_y
_atom_site_fract_z
Zr1	Zr	0.596396	0.677347	-0.081159
O2	O	0.497598	0.806450	-0.179977
O3	O	0.626661	0.548247	-0.050873
O4	O	0.626686	0.677352	-0.179985
O5	O	0.497578	0.677342	0.050989
O6	O	0.728538	0.677352	-0.179984
O7	O	0.497573	0.677346	-0.050865
O8	O	0.728493	0.446408	0.050974
O9	O	0.497623	0.908286	-0.179969
O10	O	0.715606	0.601347	-0.037947
O11	O	0.639599	0.601344	0.038065
O12	O	0.639629	0.753347	-0.113948
O13	O	0.563622	0.753344	-0.037937
Zr14	Zr	0.758847	0.677340	0.081289
Zr15	Zr	0.758839	0.677347	-0.081156
Zr16	Zr	0.596405	0.677340	0.081287
Zr17	Zr	0.596436	0.839763	-0.081146
Zr18	Zr	0.758807	0.514925	0.081276
O19	O	0.728582	0.806440	0.051003
O20	O	0.728570	0.806450	-0.179973
O21	O	0.497610	0.806441	0.051000
O22	O	0.857645	0.548237	0.180107
O23	O	0.857633	0.548247	-0.050870
O24	O	0.626673	0.548237	0.180104
O25	O	0.857665	0.677346	-0.050859
O26	O	0.728557	0.677336	0.180115
O27	O	0.626705	0.677336	0.180114
O28	O	0.857670	0.677341	0.050995
O29	O	0.626743	0.908286	-0.179967
O30	O	0.728500	0.446402	0.180097
O31	O	0.857620	0.446402	0.180099
O32	O	0.857613	0.446407	0.050976
O33	O	0.497630	0.908280	-0.050846
O34	O	0.626750	0.908280	-0.050844
O35	O	0.715614	0.601340	0.114078
O36	O	0.791621	0.601344	0.038067
O37	O	0.715644	0.753344	-0.037934
O38	O	0.639637	0.753341	0.038077
C39	C	0.677572	0.474187	0.000049
C40	C	0.677555	0.405237	0.000043
C41	C	0.733779	-0.074233	0.056195
C42	C	0.733763	-0.009425	0.056187
C43	C	0.677652	0.079066	0.000074
C44	C	0.621558	0.102750	-0.056040
C45	C	0.621578	0.037943	-0.056034
C46	C	0.621477	0.364113	-0.056063
C47	C	0.621460	0.428921	-0.056062
C48	C	0.733662	0.316745	0.056159
C49	C	0.733682	0.251937	0.056164
C50	C	0.677591	0.275626	0.000049
C51	C	0.677610	0.205354	0.000057
C52	C	0.677629	0.149339	0.000068
C53	C	0.474431	0.677344	0.000062
C54	C	0.405470	0.677344	0.000061
C55	C	0.373069	0.677349	-0.056053
C56	C	0.308275	0.677345	-0.056051
C57	C	0.275881	0.677342	0.000064
C58	C	0.308288	0.677334	0.056184
C59	C	0.373083	0.677332	0.056184
C60	C	0.046974	0.677340	0.056187
C61	C	-0.017828	0.677345	0.056181
C62	C	-0.017834	0.677353	-0.056048
C63	C	0.046961	0.677351	-0.056048
C64	C	0.079365	0.677339	0.000074
C65	C	0.149623	0.677342	0.000071
C66	C	0.205621	0.677345	0.000064
C67	C	0.880812	0.677344	0.000068
C68	C	0.949773	0.677344	0.000069
C69	C	0.677611	0.677353	-0.203129
C70	C	0.677608	0.677356	-0.272092
C71	C	0.677671	0.880501	0.000082
C72	C	0.677688	0.949451	0.000087
C73	C	0.637948	0.756698	-0.344163
C74	C	0.637954	0.756695	-0.408957
C75	C	0.677617	0.677350	-0.401680
C76	C	0.717282	0.598002	-0.329602
C77	C	0.717279	0.598005	-0.264809
C78	C	0.717294	0.597986	-0.590905
C79	C	0.717291	0.597989	-0.655706
C80	C	0.637969	0.756677	-0.735054
C81	C	0.637966	0.756680	-0.670260
C82	C	0.677634	0.677332	-0.598188
C83	C	0.677628	0.677336	-0.527931
C84	C	0.677619	0.677345	-0.471936
C85	C	0.677632	0.677335	0.203260
C86	C	0.677635	0.677332	0.272222
C87	C	0.880762	0.474186	0.000052
C88	C	0.949706	0.405237	0.000047
C89	C	0.677582	0.474178	0.203243
C90	C	0.677569	0.405225	0.272200
C91	C	0.880772	0.474178	0.203246
C92	C	0.949720	0.405225	0.272204
C93	C	0.474471	0.880510	-0.203116
C94	C	0.405523	0.949463	-0.272074
C95	C	0.474481	0.880501	0.000078
C96	C	0.405537	0.949451	0.000083
C97	C	0.677661	0.880510	-0.203113
C98	C	0.677675	0.949462	-0.272070
C99	C	0.942404	0.372859	-0.039640
C100	C	1.007178	0.308082	-0.039659
C101	C	1.079253	0.275680	0.000013
C102	C	1.086554	0.308064	0.039702
C103	C	1.021781	0.372844	0.039716
C104	C	0.717241	0.372843	0.344268
C105	C	0.717226	0.308063	0.409067
C106	C	0.677542	0.275664	0.401795
C107	C	0.637864	0.308053	0.329720
C108	C	0.637876	0.372835	0.264923
C109	C	1.021780	0.372846	0.264911
C110	C	1.086570	0.308066	0.329698
C111	C	1.079298	0.275663	0.401778
C112	C	1.007230	0.308049	0.409070
C113	C	0.942442	0.372831	0.344284
C114	C	0.333463	0.981850	-0.264780
C115	C	0.268673	1.046649	-0.329567
C116	C	0.275945	1.079056	-0.401648
C117	C	0.348013	1.046666	-0.408940
C118	C	0.412801	0.981872	-0.344154
C119	C	0.412839	0.981835	0.039763
C120	C	0.348065	1.046630	0.039765
C121	C	0.275990	1.079034	0.000090
C122	C	0.268689	1.046647	-0.039596
C123	C	0.333462	0.981858	-0.039601
C124	C	0.717366	0.981842	-0.264774
C125	C	0.717394	1.046621	-0.329560
C126	C	0.677725	1.079025	-0.401641
C127	C	0.638031	1.046639	-0.408935
C128	C	0.638009	0.981856	-0.344150
H129	H	0.779371	0.179885	0.101860
Br130	Br	0.545304	0.549022	-0.132221
H131	H	1.132059	0.222913	0.454525
Br132	Br	0.545410	0.222846	-0.132198
H133	H	0.327527	0.955468	-0.206095
H134	H	0.575905	0.057233	-0.101725
Br135	Br	0.844595	0.416821	-0.093491
H136	H	0.399465	0.677327	0.101878
Br137	Br	1.184377	0.264078	0.093543
H138	H	0.209999	1.073010	-0.323615
Br139	Br	1.031671	0.416812	0.167096
H140	H	0.605645	0.821310	-0.350097
Br141	Br	0.170866	1.090632	-0.093435
H142	H	0.779468	-0.146285	0.101892
Br143	Br	0.677533	0.187744	0.489743
Br144	Br	1.031705	0.416773	0.093588
Br145	Br	0.510595	0.937922	-0.354066
Br146	Br	0.264302	0.677347	-0.132204
H147	H	0.223253	1.131790	0.000101
Br148	Br	0.090920	0.677362	-0.132209
Br149	Br	0.323539	0.937912	-0.093455
Br150	Br	0.771109	0.416795	0.354157
H151	H	0.749580	0.533397	-0.323681
H152	H	0.605661	0.821303	-0.467639
Br153	Br	0.771117	0.490322	-0.166995
H154	H	0.605684	0.955500	-0.350101
Br155	Br	0.997373	0.264064	0.506899
H156	H	0.749715	1.072983	-0.323607
Br157	Br	0.584191	1.090632	-0.506766
Br158	Br	1.184366	0.264126	0.319783
Br159	Br	0.584123	0.864367	-0.680142
Br160	Br	0.584011	0.264071	0.319865
H161	H	0.749539	0.281700	0.467747
Br162	Br	0.188010	1.166992	-0.489566
H163	H	0.354024	1.072989	0.072084
H164	H	0.749670	0.955469	-0.206088
H165	H	0.883770	0.399186	0.350233
H166	H	0.605672	0.821285	-0.793745
H167	H	1.001219	0.281723	-0.071978
Br168	Br	0.809888	-0.041574	0.132339
H169	H	0.353925	1.073060	-0.467635
Br170	Br	0.584032	0.416772	0.167119
Br171	Br	0.510648	0.937875	0.093612
Br172	Br	0.809788	0.284597	0.132317
Br173	Br	0.417022	0.677363	-0.132218
Br174	Br	0.545349	0.396271	-0.132215
Br175	Br	-0.061813	0.677368	-0.132214
Br176	Br	0.771122	0.490299	-0.645825
Br177	Br	0.771094	0.490300	-0.493100
H178	H	0.073351	0.677333	0.101882
Br179	Br	-0.061793	0.677342	0.132341
Br180	Br	0.264331	0.677320	0.132346
H181	H	1.131990	0.222932	-0.000004
H182	H	0.677749	1.131776	-0.454388
