data_functionalizedCrystal
_audit_creation_method	'MofGen! by Chris Wilmer'
_symmetry_space_group_name_H-M	'P1'
_symmetry_Int_Tables_number	1
_symmetry_cell_setting	triclinic
loop_
_symmetry_equiv_pos_as_xyz
  x,y,z
_cell_length_a	29.839131
_cell_length_b	16.959455
_cell_length_c	16.959447
_cell_angle_alpha	90.014322
_cell_angle_beta	89.966085
_cell_angle_gamma	89.961633
loop_
_atom_site_label
_atom_site_type_symbol
_atom_site_fract_x
_atom_site_fract_y
_atom_site_fract_z
Zn1	Zn	-0.178881	-1.208267	-0.446889
Zn2	Zn	-0.254014	-1.208140	-0.314702
Zn3	Zn	-0.178895	-1.076095	-0.314726
Zn4	Zn	-0.253981	-1.076010	-0.446841
O5	O	-0.216443	-1.142128	-0.380790
O6	O	-0.188856	-1.318861	-0.429364
O7	O	-0.244070	-1.190606	-0.204094
O8	O	-0.116026	-1.093716	-0.332288
O9	O	-0.244056	-1.318767	-0.332247
O10	O	-0.116016	-1.190822	-0.429388
O11	O	-0.188880	-1.093593	-0.204112
O12	O	-0.188847	-0.965473	-0.332242
O13	O	-0.243999	-1.093572	-0.557458
O14	O	-0.244012	-0.965411	-0.429305
O15	O	-0.188823	-1.190740	-0.557493
O16	O	-0.316877	-1.190524	-0.332200
O17	O	-0.316852	-1.093449	-0.429282
C18	C	-0.216428	-0.936762	-0.380771
C19	C	-0.216433	-0.848905	-0.380782
C20	C	-0.333165	-1.141985	-0.380750
C21	C	-0.383100	-1.141996	-0.380760
C22	C	-0.216406	-1.142161	-0.586958
C23	C	-0.216390	-1.142175	-0.674814
C24	C	-0.692743	-1.192767	-0.330313
C25	C	-0.880416	-1.192864	-0.330344
O26	O	-0.904681	-1.235918	-0.287422
N27	N	-0.903885	-1.142292	-0.380849
C28	C	-0.880432	-1.091695	-0.431354
O29	O	-0.904700	-1.048688	-0.474319
C30	C	-0.692760	-1.091602	-0.431327
C31	C	-0.669294	-1.142172	-0.380812
C32	C	-0.669277	-1.243333	-0.279803
C33	C	-0.622362	-1.243305	-0.279793
C34	C	-0.598913	-1.192711	-0.330293
C35	C	-0.622379	-1.142144	-0.380802
C36	C	-0.669308	-1.041010	-0.481835
C37	C	-0.622387	-1.040992	-0.481826
C38	C	-0.598921	-1.091563	-0.431311
C39	C	-0.552014	-1.091522	-0.431292
N40	N	-0.528545	-1.142094	-0.380786
C41	C	-0.551995	-1.192689	-0.330287
C42	C	-0.978963	-1.091746	-0.431364
C43	C	-1.025881	-1.091768	-0.431370
C44	C	-1.025862	-1.192939	-0.330360
C45	C	-0.978943	-1.192912	-0.330351
C46	C	-0.955494	-1.142319	-0.380858
C47	C	-0.453469	-1.192626	-0.330268
C48	C	-0.406549	-1.192591	-0.330260
C49	C	-0.406572	-1.091424	-0.431273
C50	C	-0.453488	-1.091455	-0.431278
C51	C	-0.476935	-1.142063	-0.380773
O52	O	-0.527720	-1.048497	-0.474197
O53	O	-0.527719	-1.235702	-0.287341
C54	C	-0.739659	-1.192795	-0.330323
C55	C	-0.763125	-1.142228	-0.380833
C56	C	-0.739675	-1.091633	-0.431332
C57	C	-0.810043	-1.142250	-0.380839
C58	C	-0.833492	-1.192845	-0.330339
C59	C	-0.810024	-1.243417	-0.279834
C60	C	-0.763108	-1.243389	-0.279824
C61	C	-0.763144	-1.041061	-0.481838
C62	C	-0.810059	-1.041092	-0.481843
C63	C	-0.833509	-1.091687	-0.431344
C64	C	-0.099264	-1.142293	-0.380846
C65	C	-0.049330	-1.142363	-0.380870
C66	C	-0.216458	-1.348296	-0.380808
C67	C	-0.216465	-1.436153	-0.380816
C68	C	-0.187695	-0.477437	-0.330354
C69	C	-0.245228	-0.477421	-0.431270
C70	C	-0.245221	-0.559967	-0.431265
C71	C	-0.216452	-0.601252	-0.380803
C72	C	-0.187688	-0.559991	-0.330346
C73	C	-0.273987	-0.601235	-0.481716
C74	C	-0.273982	-0.683786	-0.481713
C75	C	-0.245210	-0.725072	-0.431254
C76	C	-0.216445	-0.683806	-0.380795
C77	C	-0.187676	-0.725090	-0.330333
C78	C	-0.158908	-0.683826	-0.279878
C79	C	-0.158916	-0.601277	-0.279887
C80	C	-0.245202	-0.807620	-0.431245
C81	C	-0.187669	-0.807644	-0.330325
C82	C	-0.245070	-1.091678	-1.046274
C83	C	-0.187615	-1.192860	-1.046306
C84	C	-0.187625	-1.192839	-0.963760
C85	C	-0.216358	-1.142238	-0.922468
C86	C	-0.245081	-1.091657	-0.963721
C87	C	-0.158905	-1.243424	-0.922501
C88	C	-0.158914	-1.243406	-0.839950
C89	C	-0.187645	-1.192800	-0.798656
C90	C	-0.216369	-1.142217	-0.839914
C91	C	-0.245102	-1.091615	-0.798621
C92	C	-0.273824	-1.041028	-0.839878
C93	C	-0.273812	-1.041051	-0.922426
C94	C	-0.187657	-1.192776	-0.716107
C95	C	-0.245113	-1.091594	-0.716068
C96	C	-0.216447	-1.142141	-0.175423
C97	C	-0.216337	-1.142280	-0.087567
H98	H	-0.472554	-1.233837	-0.289144
H99	H	-0.297221	-0.999832	-0.806247
H100	H	-0.268625	-0.841214	-0.472322
H101	H	-0.387473	-1.050228	-0.472387
O102	O	-0.273091	-1.042528	-0.675991
C103	C	-0.349511	-1.004022	-0.650725
C104	C	-0.317877	-1.059647	-0.696147
H105	H	-0.385726	-1.017832	-0.667017
H106	H	-0.344626	-1.012703	-0.584629
H107	H	-0.341593	-0.940304	-0.666944
H108	H	-0.325775	-1.123387	-0.679994
H109	H	-0.322767	-1.050898	-0.762232
O110	O	-0.476216	-1.042305	-0.480418
C111	C	-0.471277	-0.941930	-0.580579
C112	C	-0.445487	-0.997557	-0.524972
H113	H	-0.446444	-0.905724	-0.616603
H114	H	-0.493189	-0.978173	-0.622002
H115	H	-0.493297	-0.900670	-0.544251
H116	H	-0.423442	-1.038828	-0.561236
H117	H	-0.423603	-0.961265	-0.483547
H118	H	-0.829161	-0.999905	-0.522978
O119	O	-0.273132	-0.437199	-0.480260
C120	C	-0.298660	-0.310017	-0.524957
C121	C	-0.267028	-0.355474	-0.469446
H122	H	-0.293743	-0.243935	-0.516222
H123	H	-0.290813	-0.326214	-0.588735
H124	H	-0.334869	-0.326258	-0.510969
H125	H	-0.230808	-0.339257	-0.483363
H126	H	-0.274914	-0.339274	-0.405685
O127	O	-0.131014	-0.561071	-0.230909
C128	C	-0.105501	-0.433905	-0.186247
C129	C	-0.137132	-0.479343	-0.241737
H130	H	-0.110430	-0.367820	-0.194995
H131	H	-0.113339	-0.450041	-0.122463
H132	H	-0.069291	-0.450223	-0.200244
H133	H	-0.173353	-0.463049	-0.227812
H134	H	-0.129256	-0.463202	-0.305505
H135	H	-0.744055	-0.999862	-0.522962
O136	O	-0.301891	-0.561010	-0.530705
C137	C	-0.327414	-0.433827	-0.575405
C138	C	-0.295782	-0.479287	-0.519896
H139	H	-0.322493	-0.367745	-0.566674
H140	H	-0.319570	-0.450028	-0.639183
H141	H	-0.363623	-0.450061	-0.561412
H142	H	-0.259562	-0.463077	-0.533818
H143	H	-0.303665	-0.463081	-0.456134
H144	H	-0.297198	-0.999868	-0.956025
O145	O	-1.048638	-1.242008	-0.281215
C146	C	-1.063059	-1.280554	-0.146833
C147	C	-1.037234	-1.224920	-0.202375
H148	H	-1.053841	-1.266769	-0.083080
H149	H	-1.100624	-1.271855	-0.155482
H150	H	-1.053808	-1.344271	-0.160828
H151	H	-1.046448	-1.161182	-0.188414
H152	H	-0.999675	-1.233687	-0.193716
H153	H	-0.688365	-1.284538	-0.238680
O154	O	-0.740386	-1.292591	-0.230732
C155	C	-0.745337	-1.392907	-0.130513
C156	C	-0.771121	-1.337234	-0.186084
H157	H	-0.770175	-1.429003	-0.094389
H158	H	-0.723347	-1.434260	-0.166795
H159	H	-0.723395	-1.356626	-0.089175
H160	H	-0.793087	-1.373452	-0.227433
H161	H	-0.793082	-1.295879	-0.149753
H162	H	-0.829124	-1.284611	-0.238713
O163	O	-0.301937	-0.723744	-0.530801
C164	C	-0.359021	-0.715009	-0.630867
C165	C	-0.327380	-0.669657	-0.575326
H166	H	-0.379606	-0.671300	-0.666868
H167	H	-0.338442	-0.753665	-0.672315
H168	H	-0.382464	-0.753648	-0.594489
H169	H	-0.303931	-0.630976	-0.611641
H170	H	-0.347987	-0.631052	-0.533876
O171	O	-0.272955	-1.042614	-1.086468
C172	C	-0.298381	-0.997757	-1.213620
C173	C	-0.266786	-1.053375	-1.168199
H174	H	-0.293398	-1.006426	-1.279708
H175	H	-0.334620	-1.011584	-1.197427
H176	H	-0.290494	-0.934039	-1.197341
H177	H	-0.274633	-1.117113	-1.184453
H178	H	-0.230557	-1.039481	-1.184396
O179	O	-0.956138	-1.042553	-0.480316
C180	C	-0.903248	-0.935759	-0.490844
C181	C	-0.929059	-0.991436	-0.435323
H182	H	-0.881356	-0.894406	-0.454489
H183	H	-0.881217	-0.971960	-0.532199
H184	H	-0.928093	-0.899657	-0.526955
H185	H	-0.904246	-1.027550	-0.399161
H186	H	-0.951097	-0.955189	-0.394020
O187	O	-0.159754	-1.242126	-1.086378
C188	C	-0.137932	-1.376615	-1.111607
C189	C	-0.169522	-1.320910	-1.066190
H190	H	-0.145812	-1.440322	-1.095290
H191	H	-0.142859	-1.368014	-1.177704
H192	H	-0.101711	-1.362737	-1.095411
H193	H	-0.205756	-1.334753	-1.082320
H194	H	-0.164556	-1.329521	-1.000104
O195	O	-0.383705	-1.241757	-0.281299
C196	C	-0.330701	-1.348487	-0.270748
C197	C	-0.356533	-1.292846	-0.326281
H198	H	-0.308733	-1.389817	-0.307094
H199	H	-0.308743	-1.312257	-0.229390
H200	H	-0.355532	-1.384617	-0.234642
H201	H	-0.331735	-1.256704	-0.362438
H202	H	-0.378498	-1.329121	-0.367587
H203	H	-0.603259	-1.284486	-0.238662
H204	H	-0.135515	-1.284626	-0.956128
O205	O	-1.048603	-1.042613	-0.480508
C206	C	-1.043657	-0.942235	-0.580664
C207	C	-1.017871	-0.997873	-0.525063
H208	H	-1.018821	-0.906036	-0.616690
H209	H	-1.065575	-0.978468	-0.622087
H210	H	-1.065672	-0.900969	-0.544332
H211	H	-0.995832	-1.039150	-0.561332
H212	H	-0.995982	-0.961591	-0.483638
H213	H	-0.135526	-1.284597	-0.806366
O214	O	-0.159718	-1.241936	-0.676153
C215	C	-0.102753	-1.342341	-0.684901
C216	C	-0.134366	-1.286692	-0.730246
H217	H	-0.082254	-1.378552	-0.728615
H218	H	-0.079232	-1.306114	-0.646292
H219	H	-0.123395	-1.383594	-0.646217
H220	H	-0.113759	-1.245427	-0.768973
H221	H	-0.157887	-1.322967	-0.768805
O222	O	-0.599562	-0.991804	-0.530781
C223	C	-0.546672	-0.885010	-0.541320
C224	C	-0.572484	-0.940679	-0.485793
H225	H	-0.524781	-0.843651	-0.504969
H226	H	-0.524640	-0.921217	-0.582668
H227	H	-0.571516	-0.848913	-0.577438
H228	H	-0.547672	-0.976788	-0.449624
H229	H	-0.594523	-0.904427	-0.444497
H230	H	-0.959840	-1.234091	-0.289218
H231	H	-0.688406	-0.999826	-0.522966
O232	O	-0.159770	-0.847710	-0.281190
C233	C	-0.137849	-0.872901	-0.146805
C234	C	-0.169478	-0.827491	-0.202359
H235	H	-0.145680	-0.856558	-0.083060
H236	H	-0.142788	-0.938999	-0.155393
H237	H	-0.101637	-0.856723	-0.160846
H238	H	-0.205702	-0.843603	-0.188353
H239	H	-0.164500	-0.761405	-0.193761
O240	O	-0.131012	-0.723899	-0.230744
C241	C	-0.109095	-0.749107	-0.096360
C242	C	-0.140719	-0.703684	-0.151912
H243	H	-0.116926	-0.732768	-0.032614
H244	H	-0.114039	-0.815203	-0.104955
H245	H	-0.072882	-0.732937	-0.110397
H246	H	-0.176945	-0.719788	-0.137909
H247	H	-0.135736	-0.637600	-0.143308
H248	H	-0.164272	-0.443836	-0.289277
