data_functionalizedCrystal
_audit_creation_method	'MofGen! by Chris Wilmer'
_symmetry_space_group_name_H-M	'P1'
_symmetry_Int_Tables_number	1
_symmetry_cell_setting	triclinic
loop_
_symmetry_equiv_pos_as_xyz
  x,y,z
_cell_length_a	6.394989
_cell_length_b	19.288864
_cell_length_c	17.766277
_cell_angle_alpha	90.023209
_cell_angle_beta	90.003244
_cell_angle_gamma	84.816979
loop_
_atom_site_label
_atom_site_type_symbol
_atom_site_fract_x
_atom_site_fract_y
_atom_site_fract_z
O1	O	-0.260546	-0.923905	-0.062832
O2	O	-0.295693	-0.721989	-0.062780
O3	O	0.025971	-0.825813	-0.062807
O4	O	-0.582211	-0.820081	-0.062804
O5	O	0.025988	-0.825794	0.062382
O6	O	-0.295677	-0.721970	0.062409
O7	O	-0.260530	-0.923886	0.062357
Cu8	Cu	-0.278102	-0.822926	0.073814
Cu9	Cu	-0.278121	-0.822948	-0.074236
O10	O	-0.582195	-0.820062	0.062384
C11	C	-0.294554	-0.696092	-0.000179
C12	C	-0.291159	-0.618955	-0.000159
C13	C	-0.261669	-0.949783	-0.000246
C14	C	-0.265064	-1.026920	-0.000270
N15	N	-0.278087	-0.822915	0.177944
C16	C	0.103790	-0.824670	-0.000215
C17	C	0.339993	-0.821206	-0.000215
N18	N	-0.278120	-0.822964	-0.178367
C19	C	-0.479898	-0.576107	-0.000170
C20	C	-0.476708	-0.503629	-0.000178
C21	C	-0.284770	-0.474001	-0.000191
C22	C	-0.096007	-0.516859	-0.000175
C23	C	-0.099202	-0.589335	-0.000160
C24	C	-0.133891	-0.364268	-0.044076
C25	C	-0.130704	-0.291792	-0.044096
C26	C	-0.274908	-0.250459	-0.000236
C27	C	-0.422335	-0.281609	0.043634
C28	C	-0.425530	-0.354086	0.043650
C29	C	-0.281284	-0.395413	-0.000207
C30	C	-0.460201	-0.129022	-0.000255
C31	C	-0.457004	-0.056542	-0.000259
C32	C	-0.076297	-0.069774	-0.000264
C33	C	-0.079500	-0.142252	-0.000252
C34	C	-0.271458	-0.171871	-0.000252
C35	C	-0.135724	-0.868905	0.217319
C36	C	-0.135714	-0.868909	0.296121
C37	C	-0.278104	-0.822930	0.335545
C38	C	-0.420478	-0.776932	0.296160
C39	C	-0.420470	-0.776925	0.217360
C40	C	-0.468405	-0.815495	0.460385
C41	C	-0.468416	-0.815508	0.539184
C42	C	-0.278129	-0.822949	0.578591
C43	C	-0.087822	-0.830393	0.539190
C44	C	-0.087814	-0.830386	0.460389
C45	C	-0.278128	-0.822933	0.420990
C46	C	-0.135743	-0.868945	0.703412
C47	C	-0.135731	-0.868944	0.782215
C48	C	-0.420513	-0.776971	0.782253
C49	C	-0.420507	-0.776969	0.703451
C50	C	-0.278125	-0.822959	0.664035
H51	H	-0.636205	-0.600218	-0.000171
Cl52	Cl	-0.610848	-0.393244	0.098803
H53	H	0.067128	-0.836452	0.571273
Cl54	Cl	-0.707655	-0.806155	0.588709
H55	H	-0.536441	-0.739532	0.814351
H56	H	-0.019780	-0.906360	0.328186
Cl57	Cl	0.043262	-0.926758	0.653859
Cl58	Cl	-0.599458	-0.719106	0.167857
Cl59	Cl	0.043268	-0.926760	0.831718
Cl60	Cl	-0.701514	-0.166261	-0.000247
Cl61	Cl	-0.599475	-0.719127	0.345720
H62	H	-0.016458	-0.397916	-0.079796
Cl63	Cl	-0.599498	-0.719155	0.653947
H64	H	-0.019783	-0.906351	0.185229
H65	H	-0.630407	-0.468735	-0.000185
Cl66	Cl	0.165000	-0.032535	-0.000270
H67	H	0.054497	-0.624223	-0.000151
Cl68	Cl	0.054611	-0.252639	-0.099255
Cl69	Cl	0.157786	-0.196120	-0.000243
Cl70	Cl	-0.603635	-0.229655	0.098776
H71	H	-0.610704	-0.021656	-0.000264
Cl72	Cl	-0.707653	-0.806205	0.410853
Cl73	Cl	0.151416	-0.839735	0.410859
Cl74	Cl	0.145287	-0.479614	-0.000187
