data_functionalizedCrystal
_audit_creation_method	'MofGen! by Chris Wilmer'
_symmetry_space_group_name_H-M	'P1'
_symmetry_Int_Tables_number	1
_symmetry_cell_setting	triclinic
loop_
_symmetry_equiv_pos_as_xyz
  x,y,z
_cell_length_a	21.395364
_cell_length_b	18.215405
_cell_length_c	21.395355
_cell_angle_alpha	90.018720
_cell_angle_beta	90.024727
_cell_angle_gamma	90.022153
loop_
_atom_site_label
_atom_site_type_symbol
_atom_site_fract_x
_atom_site_fract_y
_atom_site_fract_z
Zn1	Zn	0.957889	-0.293102	0.354263
Zn2	Zn	1.291222	0.040231	0.687597
Zn3	Zn	1.624556	0.373564	1.020930
Zn4	Zn	0.957804	-0.416151	0.249486
Zn5	Zn	1.291137	-0.082817	0.582819
Zn6	Zn	1.624471	0.250516	0.916152
Zn7	Zn	0.853104	-0.293099	0.249500
Zn8	Zn	1.186437	0.040235	0.582833
Zn9	Zn	1.519771	0.373568	0.916167
Zn10	Zn	0.853086	-0.416128	0.354225
Zn11	Zn	1.186419	-0.082795	0.687559
Zn12	Zn	1.519752	0.250539	1.020892
O13	O	0.905471	-0.354620	0.301869
O14	O	1.238804	-0.021287	0.635202
O15	O	1.572137	0.312047	0.968535
O16	O	1.045556	-0.309436	0.340374
O17	O	1.378889	0.023898	0.673708
O18	O	1.712222	0.357231	1.007041
O19	O	0.943888	-0.399835	0.161810
O20	O	1.277221	-0.066502	0.495143
O21	O	1.610554	0.266831	0.828476
O22	O	0.867047	-0.190115	0.263419
O23	O	1.200380	0.143218	0.596752
O24	O	1.533714	0.476552	0.930085
O25	O	1.045493	-0.399839	0.263395
O26	O	1.378827	-0.066505	0.596728
O27	O	1.712160	0.266828	0.930061
O28	O	0.944032	-0.190118	0.340388
O29	O	1.277366	0.143216	0.673722
O30	O	1.610699	0.476549	1.007055
O31	O	0.866965	-0.309430	0.161820
O32	O	1.200298	0.023903	0.495153
O33	O	1.533631	0.357237	0.828487
O34	O	0.765424	-0.309408	0.263382
O35	O	1.098757	0.023925	0.596715
O36	O	1.432090	0.357259	0.930049
O37	O	0.867016	-0.399800	0.441908
O38	O	1.200349	-0.066467	0.775242
O39	O	1.533683	0.266866	1.108575
O40	O	0.765410	-0.399797	0.340323
O41	O	1.098744	-0.066464	0.673657
O42	O	1.432077	0.266870	1.006990
O43	O	0.944015	-0.309414	0.441936
O44	O	1.277348	0.023919	0.775270
O45	O	1.610681	0.357253	1.108603
O46	O	0.943870	-0.519132	0.263358
O47	O	1.277203	-0.185798	0.596691
O48	O	1.610536	0.147535	0.930024
O49	O	0.866934	-0.519115	0.340310
O50	O	1.200267	-0.185782	0.673643
O51	O	1.533600	0.147551	1.006976
C52	C	0.742683	-0.354600	0.301851
C53	C	1.076016	-0.021267	0.635184
C54	C	1.409350	0.312066	0.968517
C55	C	0.673042	-0.354610	0.301858
C56	C	1.006375	-0.021276	0.635191
C57	C	1.339709	0.312057	0.968524
C58	C	0.171255	-0.401772	0.341893
C59	C	0.504588	-0.068438	0.675227
C60	C	0.837922	0.264895	1.008560
C61	C	0.236691	-0.401772	0.341887
C62	C	0.570024	-0.068438	0.675220
C63	C	0.903357	0.264895	1.008553
C64	C	0.269404	-0.354636	0.301888
C65	C	0.602737	-0.021303	0.635222
C66	C	0.936070	0.312031	0.968555
C67	C	0.236676	-0.307510	0.261882
C68	C	0.570009	0.025824	0.595216
C69	C	0.903342	0.359157	0.928549
C70	C	0.171242	-0.307516	0.261886
C71	C	0.504575	0.025817	0.595219
C72	C	0.837908	0.359150	0.928552
C73	C	0.373086	-0.288313	0.297037
C74	C	0.706419	0.045020	0.630371
C75	C	1.039752	0.378353	0.963704
C76	C	0.438519	-0.288306	0.297038
C77	C	0.771852	0.045028	0.630372
C78	C	1.105185	0.378361	0.963705
C79	C	0.471224	-0.354617	0.301875
C80	C	0.804558	-0.021283	0.635208
C81	C	1.137891	0.312050	0.968541
C82	C	0.438489	-0.420937	0.306723
C83	C	0.771822	-0.087604	0.640056
C84	C	1.105156	0.245729	0.973390
C85	C	0.373055	-0.420944	0.306726
C86	C	0.706388	-0.087610	0.640060
C87	C	1.039722	0.245723	0.973393
C88	C	0.340356	-0.354624	0.301880
C89	C	0.673689	-0.021291	0.635213
C90	C	1.007023	0.312043	0.968547
C91	C	0.574897	-0.401744	0.341868
C92	C	0.908230	-0.068410	0.675201
C93	C	1.241563	0.264923	1.008535
C94	C	0.640333	-0.401745	0.341857
C95	C	0.973667	-0.068412	0.675190
C96	C	1.307000	0.264922	1.008524
C97	C	0.640317	-0.307476	0.261856
C98	C	0.973651	0.025857	0.595189
C99	C	1.306984	0.359190	0.928523
C100	C	0.574882	-0.307482	0.261864
C101	C	0.908215	0.025852	0.595197
C102	C	1.241549	0.359185	0.928530
C103	C	0.542176	-0.354614	0.301873
C104	C	0.875509	-0.021281	0.635206
C105	C	1.208842	0.312052	0.968540
C106	C	0.905408	-0.545826	0.301842
C107	C	1.238741	-0.212493	0.635175
C108	C	1.572074	0.120840	0.968508
C109	C	0.905438	-0.627625	0.301851
C110	C	1.238771	-0.294292	0.635184
C111	C	1.572105	0.039042	0.968518
C112	C	0.945616	-0.892667	0.261867
C113	C	1.278949	-0.559333	0.595200
C114	C	1.612283	-0.226000	0.928533
C115	C	0.945590	-0.815808	0.261852
C116	C	1.278923	-0.482475	0.595186
C117	C	1.612257	-0.149141	0.928519
C118	C	0.865403	-0.815832	0.341913
C119	C	1.198736	-0.482498	0.675246
C120	C	1.532070	-0.149165	1.008579
C121	C	0.865426	-0.892689	0.341923
C122	C	1.198760	-0.559356	0.675257
C123	C	1.532093	-0.226022	1.008590
C124	C	0.905536	-0.931105	0.301901
C125	C	1.238869	-0.597771	0.635235
C126	C	1.572203	-0.264438	0.968568
C127	C	0.905487	-0.777389	0.301876
C128	C	1.238821	-0.444055	0.635210
C129	C	1.572154	-0.110722	0.968543
C130	C	0.905459	-0.694055	0.301861
C131	C	1.238792	-0.360722	0.635194
C132	C	1.572126	-0.027388	0.968528
C133	C	0.905564	-1.014444	0.301916
C134	C	1.238897	-0.681110	0.635249
C135	C	1.572230	-0.347777	0.968582
C136	C	1.068894	-0.354640	0.301887
C137	C	1.402227	-0.021307	0.635220
C138	C	1.735561	0.312027	0.968554
C139	C	1.138535	-0.354649	0.301895
C140	C	1.471869	-0.021315	0.635228
C141	C	1.805202	0.312018	0.968562
C142	C	0.905523	-0.354605	0.465292
C143	C	1.238856	-0.021272	0.798625
C144	C	1.572189	0.312062	1.131959
C145	C	0.905545	-0.354599	0.534933
C146	C	1.238878	-0.021265	0.868267
C147	C	1.572212	0.312068	1.201600
C148	C	0.905551	-0.162667	0.301909
C149	C	1.238885	0.170666	0.635243
C150	C	1.572218	0.504000	0.968576
C151	C	0.905585	-0.080868	0.301927
C152	C	1.238919	0.252465	0.635260
C153	C	1.572252	0.585799	0.968593
C154	C	0.905455	-0.354582	0.139081
C155	C	1.238788	-0.021248	0.472414
C156	C	1.572122	0.312085	0.805748
C157	C	0.905554	-0.354381	0.069440
C158	C	1.238888	-0.021047	0.402773
C159	C	1.572221	0.312286	0.736107
C160	C	0.945636	-0.307532	0.567662
C161	C	1.278970	0.025801	0.900995
C162	C	1.612303	0.359134	1.234329
C163	C	0.945635	-0.307501	0.633097
C164	C	1.278969	0.025833	0.966431
C165	C	1.612302	0.359166	1.299764
C166	C	0.905550	-0.354549	0.665802
C167	C	1.238883	-0.021215	0.999135
C168	C	1.572216	0.312118	1.332468
C169	C	0.865451	-0.401618	0.633065
C170	C	1.198784	-0.068285	0.966398
C171	C	1.532117	0.265049	1.299732
C172	C	0.865448	-0.401643	0.567631
C173	C	1.198782	-0.068310	0.900964
C174	C	1.532115	0.265024	1.234298
C175	C	0.900581	-0.420812	0.769467
C176	C	1.233914	-0.087479	1.102800
C177	C	1.567247	0.245854	1.436134
C178	C	0.900587	-0.420789	0.834900
C179	C	1.233921	-0.087455	1.168233
C180	C	1.567254	0.245878	1.501567
C181	C	0.905554	-0.354471	0.867622
C182	C	1.238887	-0.021137	1.200956
C183	C	1.572220	0.312196	1.534289
C184	C	0.910526	-0.288175	0.834904
C185	C	1.243860	0.045159	1.168237
C186	C	1.577193	0.378492	1.501571
C187	C	0.910524	-0.288200	0.769470
C188	C	1.243857	0.045133	1.102803
C189	C	1.577190	0.378467	1.436136
C190	C	0.905548	-0.354526	0.736754
C191	C	1.238881	-0.021193	1.070087
C192	C	1.572214	0.312140	1.403421
C193	C	0.945646	-0.307366	0.971304
C194	C	1.278980	0.025967	1.304637
C195	C	1.612313	0.359300	1.637970
C196	C	0.945641	-0.307333	1.036740
C197	C	1.278974	0.026000	1.370074
C198	C	1.612308	0.359333	1.703407
C199	C	0.865459	-0.401457	1.036707
C200	C	1.198793	-0.068124	1.370040
C201	C	1.532126	0.265210	1.703373
C202	C	0.865461	-0.401483	0.971271
C203	C	1.198795	-0.068150	1.304605
C204	C	1.532128	0.265183	1.637938
C205	C	0.905558	-0.354439	0.938574
C206	C	1.238891	-0.021106	1.271907
C207	C	1.572225	0.312228	1.605240
H208	H	0.548241	-0.269107	0.229295
H209	H	0.881574	0.064227	0.562628
H210	H	1.214908	0.397560	0.895962
H211	H	0.978292	-0.269056	0.944680
H212	H	1.311625	0.064278	1.278013
H213	H	1.644959	0.397611	1.611347
H214	H	0.978285	-0.269224	0.541043
H215	H	1.311619	0.064109	0.874377
H216	H	1.644952	0.397442	1.207710
H217	H	0.832786	-0.923986	0.374526
H218	H	1.166119	-0.590653	0.707859
H219	H	1.499452	-0.257319	1.041192
H220	H	0.978276	-0.923942	0.229278
H221	H	1.311609	-0.590609	0.562611
H222	H	1.644942	-0.257276	0.895945
H223	H	0.896542	-0.474771	0.861534
H224	H	1.229876	-0.141437	1.194868
H225	H	1.563209	0.191896	1.528201
Cl226	Cl	0.815044	-0.460818	0.526484
Cl227	Cl	1.148377	-0.127484	0.859817
Cl228	Cl	1.481710	0.205849	1.193151
Cl229	Cl	0.814988	-0.767533	0.392229
Cl230	Cl	1.148321	-0.434199	0.725562
Cl231	Cl	1.481654	-0.100866	1.058896
Cl232	Cl	0.533777	-0.460998	0.392161
Cl233	Cl	0.867111	-0.127665	0.725494
Cl234	Cl	1.200444	0.205668	1.058828
Cl235	Cl	0.479665	-0.204932	0.290953
Cl236	Cl	0.812998	0.128402	0.624286
Cl237	Cl	1.146331	0.461735	0.957619
H238	H	0.666973	-0.440123	0.374427
H239	H	1.000306	-0.106790	0.707760
H240	H	1.333640	0.226543	1.041093
Cl241	Cl	0.996056	-0.248170	1.077886
Cl242	Cl	1.329390	0.085163	1.411219
Cl243	Cl	1.662723	0.418496	1.744552
H244	H	0.978226	-0.784514	0.229252
H245	H	1.311559	-0.451181	0.562585
H246	H	1.644892	-0.117847	0.895919
Cl247	Cl	0.815055	-0.460761	0.674178
Cl248	Cl	1.148388	-0.127428	1.007511
Cl249	Cl	1.481721	0.205906	1.340845
H250	H	0.978281	-0.269170	0.659750
H251	H	1.311615	0.064164	0.993084
H252	H	1.644948	0.397497	1.326417
H253	H	0.666952	-0.269100	0.229287
H254	H	1.000285	0.064233	0.562620
H255	H	1.333618	0.397567	0.895953
Cl256	Cl	0.894356	-0.504194	0.728337
Cl257	Cl	1.227689	-0.170860	1.061670
Cl258	Cl	1.561022	0.162473	1.395004
H259	H	0.346462	-0.234312	0.293089
H260	H	0.679795	0.099021	0.626422
H261	H	1.013129	0.432354	0.959755
H262	H	0.914571	-0.234219	0.742833
H263	H	1.247904	0.099114	1.076166
H264	H	1.581238	0.432447	1.409500
H265	H	0.144630	-0.440153	0.374470
H266	H	0.477963	-0.106820	0.707803
H267	H	0.811296	0.226513	1.041136
Cl268	Cl	0.277833	-0.461015	0.392175
Cl269	Cl	0.611166	-0.127682	0.725508
Cl270	Cl	0.944500	0.205651	1.058842
H271	H	0.465117	-0.474934	0.310666
H272	H	0.798450	-0.141600	0.643999
H273	H	1.131783	0.191733	0.977332
Cl274	Cl	0.916772	-0.204798	0.876033
Cl275	Cl	1.250106	0.128535	1.209367
Cl276	Cl	1.583439	0.461869	1.542700
Cl277	Cl	0.815060	-0.460597	1.077815
Cl278	Cl	1.148393	-0.127264	1.411148
Cl279	Cl	1.481726	0.206070	1.744481
H280	H	0.832818	-0.439814	0.944623
H281	H	1.166152	-0.106481	1.277957
H282	H	1.499485	0.226852	1.611290
H283	H	0.346405	-0.474944	0.310672
H284	H	0.679738	-0.141611	0.644006
H285	H	1.013071	0.191723	0.977339
H286	H	0.263315	-0.269133	0.229315
H287	H	0.596648	0.064201	0.562648
H288	H	0.929982	0.397534	0.895981
H289	H	0.144601	-0.269141	0.229314
H290	H	0.477935	0.064192	0.562647
H291	H	0.811268	0.397526	0.895981
