data_functionalizedCrystal
_audit_creation_method	'MofGen! by Chris Wilmer'
_symmetry_space_group_name_H-M	'P1'
_symmetry_Int_Tables_number	1
_symmetry_cell_setting	triclinic
loop_
_symmetry_equiv_pos_as_xyz
  x,y,z
_cell_length_a	15.944551
_cell_length_b	15.944551
_cell_length_c	12.503572
_cell_angle_alpha	93.522593
_cell_angle_beta	86.485927
_cell_angle_gamma	83.498738
loop_
_atom_site_label
_atom_site_type_symbol
_atom_site_fract_x
_atom_site_fract_y
_atom_site_fract_z
O1	O	1.119362	0.103479	-0.089210
O2	O	0.874813	0.116834	-0.089237
O3	O	1.003765	-0.012118	-0.089213
O4	O	0.990410	0.232431	-0.089234
O5	O	0.994067	-0.002404	0.089427
O6	O	0.865115	0.126548	0.089403
O7	O	1.109664	0.113193	0.089430
Cu8	Cu	0.986504	0.120757	0.105728
Cu9	Cu	0.997973	0.109269	-0.105535
O10	O	0.980712	0.242145	0.089406
C11	C	0.838671	0.121136	0.000079
C12	C	0.745425	0.119473	0.000069
C13	C	0.530567	0.035570	0.000097
C14	C	0.474329	0.069743	-0.087985
C15	C	0.574699	0.116467	0.000082
C16	C	0.464789	0.079340	0.088140
C17	C	0.409785	0.113557	0.000100
C18	C	0.519692	0.150658	-0.088073
C19	C	0.510155	0.160247	0.088132
C20	C	0.453936	0.194477	0.000028
C21	C	0.669702	0.118141	0.000071
C22	C	0.314784	0.111889	0.000103
C23	C	0.998362	-0.038555	0.000107
C24	C	0.996699	-0.131801	0.000107
C25	C	0.912796	-0.346659	0.000083
C26	C	0.946977	-0.402886	0.088168
C27	C	0.993693	-0.302527	0.000099
C28	C	0.956557	-0.412447	-0.087957
C29	C	0.990782	-0.467441	0.000086
C30	C	1.027891	-0.357522	0.088256
C31	C	1.037465	-0.367081	-0.087948
C32	C	1.071703	-0.423290	0.000158
C33	C	0.995367	-0.207524	0.000107
C34	C	0.989114	-0.562442	0.000085
C35	C	1.145807	0.108891	0.000111
C36	C	1.239052	0.110553	0.000114
C37	C	0.986116	0.268581	0.000083
C38	C	0.987778	0.361827	0.000076
N39	N	0.978444	0.128837	0.254318
N40	N	1.006040	0.101183	-0.254126
C41	C	0.966586	0.140729	0.473431
C42	C	1.017895	0.089294	0.526768
C43	C	1.011297	0.095911	0.648690
C44	C	0.973183	0.134113	0.351498
H45	H	0.526244	0.198484	0.162597
H46	H	1.075694	-0.351000	-0.162413
H47	H	1.066777	0.040290	0.480864
C48	C	0.822082	-0.301650	0.000185
C49	C	0.746400	-0.353704	0.001226
C50	C	0.655688	-0.308693	0.001335
C51	C	0.640658	-0.211628	0.000402
C52	C	0.716342	-0.159568	-0.000639
C53	C	0.807054	-0.204579	-0.000747
H54	H	0.757524	-0.425562	0.001917
H55	H	0.599662	-0.347232	0.002105
H56	H	0.573508	-0.178308	0.000482
H57	H	0.705217	-0.087710	-0.001330
H58	H	0.863080	-0.166040	-0.001518
H59	H	0.440661	0.049158	0.162604
C60	C	0.900558	0.206935	0.535433
C61	C	0.893418	0.212997	0.659114
C62	C	0.827393	0.279205	0.721129
C63	C	0.768509	0.339351	0.659464
C64	C	0.775648	0.333291	0.535775
C65	C	0.841672	0.267083	0.473760
H66	H	0.937009	0.168472	0.704769
H67	H	0.822109	0.283691	0.812692
H68	H	0.719634	0.388362	0.705371
H69	H	0.732057	0.377816	0.490120
H70	H	0.846957	0.262597	0.382198
C71	C	0.895296	-0.424591	0.188757
C72	C	0.801239	-0.389346	0.208097
C73	C	0.749552	-0.411048	0.308681
C74	C	0.791924	-0.467995	0.389925
C75	C	0.885986	-0.503244	0.370588
C76	C	0.937672	-0.481542	0.270004
H77	H	0.769868	-0.347187	0.147952
H78	H	0.679921	-0.384954	0.322995
H79	H	0.753662	-0.484060	0.464383
H80	H	0.917356	-0.545402	0.430732
H81	H	1.007304	-0.507636	0.255690
H82	H	0.563905	-0.031573	-0.000006
H83	H	0.458261	0.031478	-0.162447
C84	C	1.162488	-0.468089	0.000233
C85	C	1.177839	-0.565242	-0.000635
C86	C	1.268622	-0.610042	-0.000553
C87	C	1.344053	-0.557688	0.000396
C88	C	1.328704	-0.460529	0.001263
C89	C	1.237922	-0.415729	0.001182
H90	H	1.121998	-0.604003	-0.001338
H91	H	1.279983	-0.681966	-0.001196
H92	H	1.411256	-0.590852	0.000456
H93	H	1.384545	-0.421769	0.001966
H94	H	1.226560	-0.343806	0.001824
C95	C	1.068606	-0.325048	0.188975
C96	C	1.077662	-0.230224	0.207617
C97	C	1.118372	-0.197747	0.308335
C98	C	1.150025	-0.260094	0.390411
C99	C	1.140970	-0.354925	0.371771
C100	C	1.100260	-0.387402	0.271053
H101	H	1.054230	-0.184065	0.146857
H102	H	1.125075	-0.127547	0.322133
H103	H	1.180161	-0.236053	0.464969
H104	H	1.164402	-0.401084	0.432531
H105	H	1.093556	-0.457602	0.257255
C106	C	0.552157	0.191363	-0.188790
C107	C	0.518369	0.283033	-0.208691
C108	C	0.550837	0.323733	-0.309408
C109	C	0.617093	0.272763	-0.390224
C110	C	0.650884	0.181086	-0.370325
C111	C	0.618416	0.140386	-0.269608
H112	H	0.469319	0.320770	-0.148865
H113	H	0.525822	0.391599	-0.324139
H114	H	0.641127	0.302891	-0.464781
H115	H	0.699934	0.143350	-0.430152
H116	H	0.643431	0.072521	-0.254878
C117	C	0.915782	-0.445055	-0.188559
C118	C	0.823825	-0.411895	-0.207893
C119	C	0.783043	-0.444499	-0.308488
C120	C	0.834218	-0.510264	-0.389749
C121	C	0.926180	-0.543428	-0.370418
C122	C	0.966962	-0.510824	-0.269822
H123	H	0.785937	-0.363209	-0.147736
H124	H	0.714966	-0.419949	-0.322798
H125	H	0.804028	-0.534399	-0.464216
H126	H	0.964068	-0.592114	-0.430574
H127	H	1.035039	-0.535374	-0.255512
H128	H	0.420780	0.261682	-0.000027
