data_functionalizedCrystal
_audit_creation_method	'MofGen! by Chris Wilmer'
_symmetry_space_group_name_H-M	'P1'
_symmetry_Int_Tables_number	1
_symmetry_cell_setting	triclinic
loop_
_symmetry_equiv_pos_as_xyz
  x,y,z
_cell_length_a	16.109302
_cell_length_b	10.654550
_cell_length_c	14.586319
_cell_angle_alpha	89.998997
_cell_angle_beta	90.007794
_cell_angle_gamma	83.973342
loop_
_atom_site_label
_atom_site_type_symbol
_atom_site_fract_x
_atom_site_fract_y
_atom_site_fract_z
O1	O	1.104093	0.161416	0.076279
O2	O	0.862151	0.181504	0.076272
O3	O	0.988685	-0.011355	0.076272
O4	O	0.977560	0.354275	0.076279
O5	O	0.988669	-0.011343	-0.076209
O6	O	0.862135	0.181515	-0.076209
O7	O	1.104078	0.161428	-0.076202
Cu8	Cu	0.983105	0.171472	-0.090128
Cu9	Cu	0.983124	0.171459	0.090198
O10	O	0.977544	0.354286	-0.076202
C11	C	0.831164	0.180695	0.000030
C12	C	0.738854	0.178255	0.000028
C13	C	0.526471	0.172620	-0.083081
C14	C	0.439737	0.170314	-0.083078
C15	C	0.439765	0.170308	0.083165
C16	C	0.526497	0.172605	0.083161
C17	C	0.569848	0.173767	0.000035
C18	C	0.396381	0.169164	0.000043
C19	C	0.302341	0.166664	0.000047
C20	C	0.663895	0.176265	0.000031
C21	C	0.987860	-0.058136	0.000033
C22	C	0.985416	-0.197546	0.000036
C23	C	1.059918	-0.278042	0.000036
C24	C	1.057616	-0.409032	0.000042
C25	C	0.906306	-0.379016	0.000045
C26	C	0.908608	-0.248029	0.000046
C27	C	1.136726	-0.227559	0.000026
C28	C	1.211233	-0.308057	0.000025
C29	C	1.208932	-0.439046	0.000031
C30	C	1.132123	-0.489538	0.000039
C31	C	1.135065	0.162236	0.000042
C32	C	1.227375	0.164676	0.000051
C33	C	0.978369	0.401067	0.000039
C34	C	0.980813	0.540477	0.000042
N35	N	0.983098	0.171481	-0.216960
C36	C	1.033974	0.247653	-0.451963
C37	C	1.033983	0.247644	-0.547944
C38	C	0.932259	0.095260	-0.547960
C39	C	0.932256	0.095263	-0.451981
C40	C	0.983112	0.171466	-0.403985
C41	C	0.983124	0.171455	-0.595945
C42	C	0.983133	0.171445	-0.700012
C43	C	0.983104	0.171475	-0.299911
N44	N	0.983137	0.171440	0.217030
H45	H	1.138608	-0.120902	0.000018
H46	H	0.561816	0.173536	0.150849
H47	H	0.890837	0.033216	-0.412915
O48	O	0.877399	0.013085	-0.599726
H49	H	0.885938	0.025892	-0.674527
O50	O	1.294074	-0.253605	0.000030
H51	H	1.329908	-0.285953	-0.062111
O52	O	0.573231	0.173876	-0.172733
H53	H	0.528494	0.172684	-0.230527
H54	H	1.269599	-0.504584	0.000039
O55	O	0.393015	0.169335	-0.172779
H56	H	0.346647	0.253920	-0.176672
H57	H	0.404458	0.169363	0.150843
O58	O	1.129635	-0.630820	0.000044
H59	H	1.194345	-0.678316	0.000038
O60	O	0.823465	-0.433467	0.000036
H61	H	0.834381	-0.538074	0.000023
O62	O	0.828253	-0.161202	0.000035
H63	H	0.825686	-0.100815	0.062187
O64	O	1.088829	0.329829	-0.400191
H65	H	1.124204	0.382795	-0.449683
H66	H	1.075401	0.309681	-0.587004
