data_functionalizedCrystal
_audit_creation_method	'MofGen! by Chris Wilmer'
_symmetry_space_group_name_H-M	'P1'
_symmetry_Int_Tables_number	1
_symmetry_cell_setting	triclinic
loop_
_symmetry_equiv_pos_as_xyz
  x,y,z
_cell_length_a	16.120297
_cell_length_b	11.169417
_cell_length_c	16.120484
_cell_angle_alpha	87.073731
_cell_angle_beta	95.614431
_cell_angle_gamma	87.118439
loop_
_atom_site_label
_atom_site_type_symbol
_atom_site_fract_x
_atom_site_fract_y
_atom_site_fract_z
Zn1	Zn	-0.489383	-1.773031	-0.356726
Zn2	Zn	0.010617	-1.273031	0.143274
Zn3	Zn	-0.356693	-1.772879	-0.489415
Zn4	Zn	0.143307	-1.272879	0.010585
Zn5	Zn	-0.349636	-1.583045	-0.349664
Zn6	Zn	0.150364	-1.083045	0.150336
Zn7	Zn	-0.496424	-1.561557	-0.496459
Zn8	Zn	0.003576	-1.061557	0.003541
O9	O	-0.423034	-1.672628	-0.423066
O10	O	0.076966	-1.172628	0.076934
O11	O	-0.471788	-1.940959	-0.374335
O12	O	0.028212	-1.440959	0.125665
O13	O	-0.238795	-1.756627	-0.464974
O14	O	0.261205	-1.256627	0.035026
O15	O	-0.362274	-1.617304	-0.233635
O16	O	0.137726	-1.117304	0.266365
O17	O	-0.374301	-1.940848	-0.471821
O18	O	0.125699	-1.440848	0.028179
O19	O	-0.464945	-1.756885	-0.238823
O20	O	0.035055	-1.256885	0.261177
O21	O	-0.233610	-1.617157	-0.362299
O22	O	0.266390	-1.117157	0.137701
O23	O	-0.369102	-1.412246	-0.369129
O24	O	0.130898	-0.912246	0.130871
O25	O	-0.612452	-1.580679	-0.483826
O26	O	-0.112452	-1.080679	0.016174
O27	O	-0.476946	-1.396459	-0.476979
O28	O	0.023054	-0.896459	0.023021
O29	O	-0.607279	-1.736048	-0.381165
O30	O	-0.107279	-1.236048	0.118835
O31	O	-0.381129	-1.735791	-0.607315
O32	O	0.118871	-1.235791	-0.107315
O33	O	-0.483789	-1.580533	-0.612490
O34	O	0.016211	-1.080533	-0.112490
C35	C	-0.423023	-1.360805	-0.423053
C36	C	0.076977	-0.860805	0.076947
C37	C	-0.423039	-1.227403	-0.423068
C38	C	0.076961	-0.727403	0.076932
C39	C	-0.641041	-1.655984	-0.434069
C40	C	-0.141041	-1.155984	0.065931
C41	C	-0.733942	-1.648891	-0.438758
C42	C	-0.233942	-1.148891	0.061242
C43	C	-0.434007	-1.655845	-0.640231
C44	C	0.065993	-1.155845	-0.140231
C45	C	-0.438729	-1.648772	-0.733137
C46	C	0.061271	-1.148772	-0.233137
C47	C	-0.904033	-1.635899	-0.447300
C48	C	-0.404033	-1.135899	0.052700
C49	C	-0.942875	-1.709613	-0.398582
C50	C	-0.442875	-1.209613	0.101418
C51	C	-1.037519	-1.702384	-0.403335
C52	C	-0.537519	-1.202384	0.096665
C53	C	-0.809380	-1.643126	-0.442548
C54	C	-0.309380	-1.143126	0.057452
C55	C	-0.205873	-1.689281	-0.412046
C56	C	0.294127	-1.189281	0.087954
C57	C	-0.112960	-1.696625	-0.407121
C58	C	0.387040	-1.196625	0.092879
C59	C	-0.423046	-1.985668	-0.423080
C60	C	0.076954	-1.485668	0.076920
C61	C	-0.423051	-2.119068	-0.423086
C62	C	0.076949	-1.619068	0.076914
C63	C	-0.447368	-1.635866	-0.903237
C64	C	0.052632	-1.135866	-0.403237
C65	C	-0.398714	-1.709604	-0.942055
C66	C	0.101286	-1.209604	-0.442055
C67	C	-0.403521	-1.702423	-1.036705
C68	C	0.096479	-1.202423	-0.536705
C69	C	-0.442562	-1.643045	-0.808579
C70	C	0.057438	-1.143045	-0.308579
C71	C	-0.412037	-1.689508	-0.205054
C72	C	0.087963	-1.189508	0.294946
C73	C	-0.407350	-1.696702	-0.112150
C74	C	0.092650	-1.196702	0.387850
H75	H	-0.941857	-1.567367	-0.492575
H76	H	-0.441857	-1.067367	0.007425
H77	H	-0.353450	-1.778126	-0.904204
H78	H	0.146550	-1.278126	-0.404204
O79	O	-0.507310	-1.545094	-0.953375
O80	O	-0.007310	-1.045094	-0.453375
H81	H	-0.572094	-1.561826	-0.939963
H82	H	-0.072094	-1.061826	-0.439963
O83	O	-0.892774	-1.800417	-0.338616
O84	O	-0.392774	-1.300417	0.161384
H85	H	-0.906138	-1.783675	-0.273831
H86	H	-0.406138	-1.283675	0.226169
