data_functionalizedCrystal
_audit_creation_method	'MofGen! by Chris Wilmer'
_symmetry_space_group_name_H-M	'P1'
_symmetry_Int_Tables_number	1
_symmetry_cell_setting	triclinic
loop_
_symmetry_equiv_pos_as_xyz
  x,y,z
_cell_length_a	13.032721
_cell_length_b	19.805407
_cell_length_c	19.805399
_cell_angle_alpha	89.980427
_cell_angle_beta	82.844098
_cell_angle_gamma	82.795335
loop_
_atom_site_label
_atom_site_type_symbol
_atom_site_fract_x
_atom_site_fract_y
_atom_site_fract_z
Zn1	Zn	-0.416068	-1.000535	0.416943
Zn2	Zn	-0.082734	-0.667201	0.750277
Zn3	Zn	0.250599	-0.333868	1.083610
Zn4	Zn	-0.590828	-0.986084	0.318130
Zn5	Zn	-0.257494	-0.652751	0.651463
Zn6	Zn	0.075839	-0.319417	0.984797
Zn7	Zn	-0.416097	-0.887347	0.303770
Zn8	Zn	-0.082763	-0.554014	0.637104
Zn9	Zn	0.250570	-0.220680	0.970437
Zn10	Zn	-0.590772	-0.872952	0.431272
Zn11	Zn	-0.257439	-0.539619	0.764606
Zn12	Zn	0.075895	-0.206285	1.097939
O13	O	-0.503441	-0.936729	0.367529
O14	O	-0.170108	-0.603396	0.700862
O15	O	0.163226	-0.270063	1.034196
O16	O	-0.439261	-1.093333	0.403849
O17	O	-0.105928	-0.760000	0.737182
O18	O	0.227405	-0.426667	1.070515
O19	O	-0.567684	-0.972963	0.221512
O20	O	-0.234351	-0.639630	0.554845
O21	O	0.098982	-0.306296	0.888178
O22	O	-0.269853	-0.914433	0.306777
O23	O	0.063480	-0.581100	0.640110
O24	O	0.396814	-0.247767	0.973443
O25	O	-0.567656	-1.082717	0.331251
O26	O	-0.234323	-0.749383	0.664584
O27	O	0.099010	-0.416050	0.997917
O28	O	-0.269832	-0.997592	0.389925
O29	O	0.063501	-0.664259	0.723258
O30	O	0.396835	-0.330925	1.056591
O31	O	-0.439310	-0.900421	0.210962
O32	O	-0.105977	-0.567088	0.544295
O33	O	0.227356	-0.233755	0.877628
O34	O	-0.439257	-0.790722	0.320671
O35	O	-0.105923	-0.457388	0.654004
O36	O	0.227410	-0.124055	0.987338
O37	O	-0.567562	-0.889899	0.524085
O38	O	-0.234228	-0.556566	0.857419
O39	O	0.099105	-0.223233	1.190752
O40	O	-0.567590	-0.780146	0.414346
O41	O	-0.234256	-0.446813	0.747679
O42	O	0.099077	-0.113479	1.081013
O43	O	-0.439207	-0.983634	0.513558
O44	O	-0.105874	-0.650300	0.846891
O45	O	0.227459	-0.316967	1.180225
O46	O	-0.737060	-0.959005	0.345145
O47	O	-0.403727	-0.625672	0.678478
O48	O	-0.070393	-0.292338	1.011812
O49	O	-0.737019	-0.875887	0.428270
O50	O	-0.403686	-0.542554	0.761603
O51	O	-0.070352	-0.209221	1.094937
C52	C	-0.503421	-0.760875	0.367506
C53	C	-0.170088	-0.427542	0.700839
C54	C	0.163246	-0.094208	1.034172
C55	C	-0.503438	-0.685642	0.367514
C56	C	-0.170104	-0.352308	0.700847
C57	C	0.163229	-0.018975	1.034180
C58	C	-0.774958	-0.914334	0.389835
C59	C	-0.441624	-0.581001	0.723169
C60	C	-0.108291	-0.247668	1.056502
C61	C	-0.891114	-0.904816	0.399401
C62	C	-0.557781	-0.571482	0.732734
C63	C	-0.224447	-0.238149	1.066067
C64	C	-0.503375	-0.936773	0.544066
C65	C	-0.170042	-0.603439	0.877400
C66	C	0.163291	-0.270106	1.210733
C67	C	-0.503347	-0.936791	0.619296
C68	C	-0.170014	-0.603458	0.952629
C69	C	0.163320	-0.270125	1.285963
C70	C	-0.942886	-0.941733	0.362567
C71	C	-0.609552	-0.608400	0.695901
C72	C	-0.276219	-0.275067	1.029234
C73	C	-1.062939	-0.931896	0.372453
C74	C	-0.729606	-0.598563	0.705786
C75	C	-0.396272	-0.265229	1.039119
C76	C	-0.230864	-0.959230	0.345151
C77	C	0.102469	-0.625897	0.678484
C78	C	0.435803	-0.292564	1.011817
C79	C	-0.114708	-0.968819	0.335614
C80	C	0.218626	-0.635486	0.668947
C81	C	0.551959	-0.302152	1.002281
C82	C	-0.503462	-1.113270	0.367553
C83	C	-0.170128	-0.779937	0.700886
C84	C	0.163205	-0.446604	1.034220
C85	C	-0.503471	-1.188502	0.367563
C86	C	-0.170137	-0.855168	0.700897
C87	C	0.163196	-0.521835	1.034230
C88	C	-0.570361	-0.644800	0.416228
C89	C	-0.237028	-0.311467	0.749562
C90	C	0.096305	0.021867	1.082895
C91	C	-0.570363	-0.574112	0.416238
C92	C	-0.237030	-0.240778	0.749571
C93	C	0.096304	0.092555	1.082905
C94	C	-0.503446	-0.544265	0.367529
C95	C	-0.170112	-0.210932	0.700863
C96	C	0.163221	0.122401	1.034196
C97	C	-0.436515	-0.585113	0.318812
C98	C	-0.103181	-0.251779	0.652145
C99	C	0.230152	0.081554	0.985479
C100	C	-0.436508	-0.655800	0.318806
C101	C	-0.103175	-0.322467	0.652139
C102	C	0.230158	0.010866	0.985473
C103	C	-0.436538	-0.300037	0.318836
C104	C	-0.103204	0.033296	0.652170
C105	C	0.230129	0.366629	0.985503
C106	C	-0.436551	-0.229344	0.318845
C107	C	-0.103218	0.103989	0.652178
C108	C	0.230115	0.437323	0.985512
C109	C	-0.570393	-0.218349	0.416269
C110	C	-0.237059	0.114985	0.749602
C111	C	0.096274	0.448318	1.082935
C112	C	-0.570386	-0.289036	0.416262
C113	C	-0.237053	0.044297	0.749596
C114	C	0.096280	0.377630	1.082929
C115	C	-0.503452	-0.329878	0.367548
C116	C	-0.170118	0.003456	0.700881
C117	C	0.163215	0.336789	1.034214
C118	C	-0.503449	-0.406526	0.367538
C119	C	-0.170116	-0.073193	0.700872
C120	C	0.163217	0.260140	1.034205
C121	C	-0.503453	-0.467618	0.367535
C122	C	-0.170120	-0.134284	0.700868
C123	C	0.163214	0.199049	1.034202
C124	C	-0.503431	-0.936731	0.191672
C125	C	-0.170098	-0.603398	0.525006
C126	C	0.163236	-0.270065	0.858339
C127	C	-0.503165	-0.936868	0.116419
C128	C	-0.169831	-0.603535	0.449752
C129	C	0.163502	-0.270202	0.783085
C130	C	-0.436510	-0.985600	0.649160
C131	C	-0.103176	-0.652267	0.982493
C132	C	0.230157	-0.318933	1.315826
C133	C	-0.436479	-0.985609	0.719846
C134	C	-0.103146	-0.652276	1.053179
C135	C	0.230187	-0.318943	1.386512
C136	C	-0.503293	-0.936813	0.760667
C137	C	-0.169959	-0.603479	1.094001
C138	C	0.163374	-0.270146	1.427334
C139	C	-0.570133	-0.887999	0.730799
C140	C	-0.236800	-0.554665	1.064133
C141	C	0.096534	-0.221332	1.397466
C142	C	-0.570157	-0.887987	0.660114
C143	C	-0.236824	-0.554654	0.993447
C144	C	0.096509	-0.221320	1.326781
C145	C	-0.570036	-0.888045	1.015865
C146	C	-0.236702	-0.554712	1.349198
C147	C	0.096631	-0.221378	1.682531
C148	C	-0.570008	-0.888062	1.086555
C149	C	-0.236675	-0.554729	1.419888
C150	C	0.096658	-0.221395	1.753221
C151	C	-0.436358	-0.985668	1.075596
C152	C	-0.103024	-0.652334	1.408930
C153	C	0.230309	-0.319001	1.742263
C154	C	-0.436382	-0.985656	1.004911
C155	C	-0.103049	-0.652322	1.338244
C156	C	0.230285	-0.318989	1.671578
C157	C	-0.503218	-0.936840	0.975049
C158	C	-0.169885	-0.603507	1.308382
C159	C	0.163449	-0.270173	1.641715
C160	C	-0.503249	-0.936830	0.898403
C161	C	-0.169915	-0.603496	1.231736
C162	C	0.163418	-0.270163	1.565069
C163	C	-0.503268	-0.936825	0.837312
C164	C	-0.169935	-0.603492	1.170646
C165	C	0.163399	-0.270159	1.503979
H166	H	-0.898333	-0.980626	0.323717
H167	H	-0.564999	-0.647292	0.657050
H168	H	-0.231666	-0.313959	0.990383
H169	H	-1.107490	-0.893007	0.411311
H170	H	-0.774157	-0.559673	0.744644
H171	H	-0.440824	-0.226340	1.077977
H172	H	-0.624881	-0.313333	0.455924
H173	H	-0.291547	0.020001	0.789257
H174	H	0.041786	0.353334	1.122591
H175	H	-0.381979	-1.025393	0.971677
H176	H	-0.048646	-0.692060	1.305010
H177	H	0.284687	-0.358726	1.638344
H178	H	-1.070157	-1.007714	0.296761
H179	H	-0.736824	-0.674380	0.630094
H180	H	-0.403491	-0.341047	0.963428
H181	H	-0.624890	-0.185087	0.455937
H182	H	-0.291557	0.148246	0.789270
H183	H	0.041777	0.481579	1.122603
O184	O	-0.642741	-0.530112	0.468725
O185	O	-0.309408	-0.196779	0.802058
O186	O	0.023925	0.136554	1.135392
H187	H	-0.625081	-0.545150	0.520438
H188	H	-0.291748	-0.211816	0.853771
H189	H	0.041585	0.121517	1.187105
H190	H	-0.624418	-0.848322	1.119791
H191	H	-0.291084	-0.514989	1.453124
H192	H	0.042249	-0.181656	1.786457
O193	O	-0.364381	-0.197154	0.266298
O194	O	-0.031048	0.136180	0.599632
O195	O	0.302286	0.469513	0.932965
H196	H	-0.375648	-0.141138	0.274481
H197	H	-0.042315	0.192196	0.607814
H198	H	0.291018	0.525529	0.941148
O199	O	-0.364235	-1.038305	1.107800
O200	O	-0.030902	-0.704972	1.441134
O201	O	0.302431	-0.371639	1.774467
H202	H	-0.375422	-1.030110	1.163809
H203	H	-0.042089	-0.696777	1.497142
H204	H	0.291244	-0.363443	1.830476
H205	H	-0.624473	-0.848305	0.991561
H206	H	-0.291140	-0.514972	1.324894
H207	H	0.042194	-0.181638	1.658228
H208	H	-0.935669	-0.865929	0.438256
H209	H	-0.602336	-0.532596	0.771589
H210	H	-0.269003	-0.199262	1.104923
O211	O	-0.364336	-0.552921	0.266278
O212	O	-0.031003	-0.219588	0.599612
O213	O	0.302330	0.113745	0.932945
H214	H	-0.317791	-0.593200	0.232407
H215	H	0.015542	-0.259866	0.565740
H216	H	0.348876	0.073467	0.899074
H217	H	-0.382044	-0.333282	0.279165
H218	H	-0.048710	0.000052	0.612499
H219	H	0.284623	0.333385	0.945832
O220	O	-0.364339	-0.699855	0.266257
O221	O	-0.031006	-0.366522	0.599591
O222	O	0.302327	-0.033189	0.932924
H223	H	-0.317818	-0.667226	0.232382
H224	H	0.015515	-0.333893	0.565715
H225	H	0.348849	-0.000560	0.899048
H226	H	-0.624857	-0.669095	0.455891
H227	H	-0.291523	-0.335761	0.789224
H228	H	0.041810	-0.002428	1.122557
H229	H	-0.382056	-1.025356	0.744157
H230	H	-0.048723	-0.692023	1.077490
H231	H	0.284611	-0.358689	1.410824
O232	O	-0.364447	-1.038231	0.605131
O233	O	-0.031113	-0.704898	0.938464
O234	O	0.302220	-0.371565	1.271797
H235	H	-0.317959	-1.072168	0.637775
H236	H	0.015375	-0.738835	0.971108
H237	H	0.348708	-0.405502	1.304441
H238	H	-0.624573	-0.848236	0.635800
H239	H	-0.291239	-0.514903	0.969133
H240	H	0.042094	-0.181569	1.302467
H241	H	-0.624530	-0.848265	0.764042
H242	H	-0.291196	-0.514932	1.097375
H243	H	0.042137	-0.181599	1.430708
