data_functionalizedCrystal
_audit_creation_method	'MofGen! by Chris Wilmer'
_symmetry_space_group_name_H-M	'P1'
_symmetry_Int_Tables_number	1
_symmetry_cell_setting	triclinic
loop_
_symmetry_equiv_pos_as_xyz
  x,y,z
_cell_length_a	10.723023
_cell_length_b	12.996460
_cell_length_c	10.723023
_cell_angle_alpha	90.005123
_cell_angle_beta	84.467548
_cell_angle_gamma	90.005426
loop_
_atom_site_label
_atom_site_type_symbol
_atom_site_fract_x
_atom_site_fract_y
_atom_site_fract_z
O1	O	1.657190	0.085562	0.175025
O2	O	1.294038	0.085564	0.191779
O3	O	1.483991	0.085559	0.001826
O4	O	1.467237	0.085567	0.364978
O5	O	1.483971	-0.085575	0.001815
O6	O	1.294018	-0.085570	0.191769
O7	O	1.657170	-0.085572	0.175014
Cu8	Cu	1.475592	-0.101197	0.183390
Cu9	Cu	1.475616	0.101189	0.183403
O10	O	1.467217	-0.085567	0.364968
C11	C	1.247528	-0.000003	0.190555
C12	C	1.108974	-0.000002	0.186908
N13	N	1.475585	-0.243544	0.183381
C14	C	1.047213	0.088651	0.185287
C15	C	0.904009	0.088654	0.181517
C16	C	1.475614	-0.663358	0.183404
C17	C	1.475602	-0.546553	0.183402
C18	C	1.475600	-0.453455	0.183394
C19	C	1.475587	-0.336642	0.183389
C20	C	1.703680	-0.000003	0.176239
C21	C	1.842234	0.000002	0.179886
C22	C	1.482762	-0.000007	-0.044679
C23	C	1.479115	-0.000004	-0.183233
N24	N	1.475633	0.243536	0.183403
C25	C	1.477499	0.088650	-0.244994
C26	C	1.473730	0.088655	-0.388197
C27	C	1.468446	0.000001	0.411473
C28	C	1.472093	0.000005	0.550027
H29	H	0.850897	0.164553	0.180120
H30	H	1.473489	-0.075899	-0.396870
H31	H	0.895340	-0.075900	0.181274
H32	H	1.477699	-0.075900	-0.236375
H33	H	1.100353	0.164548	0.186697
C34	C	1.471853	0.191198	-0.459936
C35	C	1.577672	0.216764	-0.562713
C36	C	1.575795	0.319310	-0.634456
C37	C	1.468100	0.396292	-0.603421
C38	C	1.362273	0.370728	-0.500639
C39	C	1.364149	0.268182	-0.428897
H40	H	1.657402	0.159776	-0.585692
H41	H	1.654136	0.338234	-0.710542
H42	H	1.466710	0.472203	-0.656529
H43	H	1.282543	0.427716	-0.477661
H44	H	1.285809	0.249258	-0.352810
H45	H	1.478901	0.164546	-0.191851
C46	C	1.037197	-0.102540	0.185012
C47	C	0.934413	-0.128098	0.290826
C48	C	0.862640	-0.230641	0.288931
C49	C	0.893651	-0.307625	0.181221
C50	C	0.996441	-0.282068	0.075399
C51	C	1.068214	-0.179526	0.077294
H52	H	0.911451	-0.071108	0.370567
H53	H	0.786548	-0.249558	0.367268
H54	H	0.840521	-0.383533	0.179818
H55	H	1.019402	-0.339058	-0.004342
H56	H	1.144306	-0.160608	-0.001043
