data_functionalizedCrystal
_audit_creation_method	'MofGen! by Chris Wilmer'
_symmetry_space_group_name_H-M	'P1'
_symmetry_Int_Tables_number	1
_symmetry_cell_setting	triclinic
loop_
_symmetry_equiv_pos_as_xyz
  x,y,z
_cell_length_a	19.805407
_cell_length_b	16.120484
_cell_length_c	19.805399
_cell_angle_alpha	87.128957
_cell_angle_beta	90.019573
_cell_angle_gamma	92.925608
loop_
_atom_site_label
_atom_site_type_symbol
_atom_site_fract_x
_atom_site_fract_y
_atom_site_fract_z
Zn1	Zn	1.021075	-0.331927	0.396377
Zn2	Zn	1.015252	-0.471346	0.288925
Zn3	Zn	0.907889	-0.331950	0.283203
Zn4	Zn	0.902117	-0.471302	0.402070
O5	O	0.961584	-0.401631	0.342644
O6	O	1.115019	-0.350431	0.382136
O7	O	1.000989	-0.452883	0.193451
O8	O	0.927756	-0.215281	0.293438
O9	O	1.110741	-0.452861	0.303191
O10	O	1.010913	-0.215264	0.376587
O11	O	0.922109	-0.350470	0.189246
O12	O	0.812407	-0.350427	0.298958
O13	O	0.917919	-0.452785	0.496030
O14	O	0.808167	-0.452807	0.386290
O15	O	1.005317	-0.350388	0.491848
O16	O	0.995392	-0.588006	0.308712
O17	O	0.912273	-0.587974	0.391839
C18	C	0.785728	-0.401615	0.342621
C19	C	0.710496	-0.401629	0.342628
C20	C	0.672958	-0.455019	0.388035
C21	C	0.602269	-0.455020	0.388045
C22	C	0.569120	-0.401635	0.342644
C23	C	0.606663	-0.348239	0.297235
C24	C	0.677350	-0.348234	0.297229
C25	C	0.321589	-0.348258	0.297258
C26	C	0.250896	-0.348269	0.297266
C27	C	0.246508	-0.455043	0.388074
C28	C	0.317195	-0.455038	0.388068
C29	C	0.354732	-0.401640	0.342662
C30	C	0.431381	-0.401638	0.342653
C31	C	0.492472	-0.401641	0.342649
C32	C	0.952593	-0.618240	0.351529
C33	C	0.948809	-0.710906	0.355353
C34	C	0.941903	-0.880568	0.362347
C35	C	0.981385	-0.921854	0.322951
C36	C	0.977543	-1.016260	0.326843
C37	C	0.945745	-0.786154	0.358456
C38	C	1.138126	-0.401648	0.342667
C39	C	1.213357	-0.401655	0.342677
C40	C	0.961624	-0.401579	0.519184
C41	C	0.961641	-0.401556	0.594416
C42	C	0.970628	-0.184177	0.333739
C43	C	0.974482	-0.091511	0.329944
C44	C	0.961585	-0.401623	0.166787
C45	C	0.961709	-0.401411	0.091547
C46	C	1.007150	-0.348235	0.627583
C47	C	1.007158	-0.348211	0.698270
C48	C	0.961659	-0.401513	0.735789
C49	C	0.916145	-0.454836	0.702617
C50	C	0.916135	-0.454856	0.631931
C51	C	0.916187	-0.454759	0.987688
C52	C	0.916202	-0.454737	1.058379
C53	C	1.007210	-0.348114	1.054027
C54	C	1.007199	-0.348133	0.983340
C55	C	0.961683	-0.401453	0.950174
C56	C	0.961674	-0.401478	0.873527
C57	C	0.961671	-0.401493	0.812436
H58	H	0.699943	-0.498494	0.425004
H59	H	0.905219	-0.916121	0.398995
F60	F	0.206553	-0.511875	0.436400
H61	H	0.707913	-0.304754	0.260258
F62	F	1.055580	-0.291508	0.587658
H63	H	0.879149	-0.498143	1.088925
F64	F	1.029336	-0.875384	0.275043
F65	F	1.055617	-0.291488	0.733567
F66	F	0.562322	-0.511845	0.436373
H67	H	0.344182	-0.498513	0.425036
H68	H	1.044251	-0.304733	0.952796
H69	H	1.044269	-0.304695	1.081039
H70	H	0.879134	-0.498187	0.960693
F71	F	0.867720	-0.511561	0.742550
H72	H	0.223908	-0.304791	0.260295
F73	F	0.361529	-0.291424	0.248934
H74	H	0.579667	-0.304769	0.260272
F75	F	0.867696	-0.511605	0.596632
