data_functionalizedCrystal
_audit_creation_method	'MofGen! by Chris Wilmer'
_symmetry_space_group_name_H-M	'P1'
_symmetry_Int_Tables_number	1
_symmetry_cell_setting	triclinic
loop_
_symmetry_equiv_pos_as_xyz
  x,y,z
_cell_length_a	15.944556
_cell_length_b	16.992695
_cell_length_c	14.421503
_cell_angle_alpha	90.002994
_cell_angle_beta	89.979576
_cell_angle_gamma	92.915204
loop_
_atom_site_label
_atom_site_type_symbol
_atom_site_fract_x
_atom_site_fract_y
_atom_site_fract_z
O1	O	-0.178112	1.040405	0.077115
O2	O	0.155221	1.373738	0.410448
O3	O	0.488554	1.707071	0.743782
O4	O	-0.176158	0.812119	0.077124
O5	O	0.157175	1.145453	0.410458
O6	O	0.490508	1.478786	0.743791
O7	O	-0.055279	0.932493	0.077086
O8	O	0.278054	1.265827	0.410419
O9	O	0.611388	1.599160	0.743753
O10	O	-0.298992	0.920031	0.077153
O11	O	0.034341	1.253364	0.410487
O12	O	0.367675	1.586697	0.743820
O13	O	-0.055264	0.932482	-0.077137
O14	O	0.278069	1.265816	0.256196
O15	O	0.611402	1.599149	0.589529
O16	O	-0.176144	0.812108	-0.077099
O17	O	0.157189	1.145442	0.256234
O18	O	0.490523	1.478775	0.589568
O19	O	-0.178098	1.040394	-0.077109
O20	O	0.155235	1.373727	0.256225
O21	O	0.488569	1.707060	0.589558
Cu22	Cu	-0.177120	0.926250	-0.091186
Cu23	Cu	0.156214	1.259583	0.242148
Cu24	Cu	0.489547	1.592917	0.575481
Cu25	Cu	-0.177137	0.926263	0.091201
Cu26	Cu	0.156197	1.259596	0.424535
Cu27	Cu	0.489530	1.592930	0.757868
O28	O	-0.298977	0.920020	-0.077070
O29	O	0.034356	1.253353	0.256263
O30	O	0.367689	1.586686	0.589597
C31	C	-0.023943	0.931970	-0.000032
C32	C	0.309390	1.265303	0.333301
C33	C	0.642724	1.598636	0.666634
C34	C	0.069407	0.930416	-0.000052
C35	C	0.402740	1.263749	0.333281
C36	C	0.736074	1.597083	0.666615
C37	C	-0.173637	0.782901	0.000013
C38	C	0.159696	1.116234	0.333347
C39	C	0.493029	1.449568	0.666680
C40	C	-0.166137	0.695856	0.000015
C41	C	0.167196	1.029190	0.333349
C42	C	0.500529	1.362523	0.666682
C43	C	-0.180619	1.069612	0.000005
C44	C	0.152715	1.402945	0.333338
C45	C	0.486048	1.736279	0.666671
C46	C	-0.188119	1.156657	0.000009
C47	C	0.145214	1.489990	0.333342
C48	C	0.478548	1.823323	0.666675
C49	C	0.345354	0.851157	-0.000081
C50	C	0.678687	1.184490	0.333253
C51	C	1.012020	1.517823	0.666586
C52	C	0.292199	0.889371	0.075968
C53	C	0.625532	1.222704	0.409302
C54	C	0.958865	1.556038	0.742635
C55	C	0.405420	0.924875	-0.000087
C56	C	0.738754	1.258208	0.333246
C57	C	1.072087	1.591541	0.666579
C58	C	0.292239	0.889380	-0.076084
C59	C	0.625572	1.222713	0.257249
C60	C	0.958906	1.556047	0.590583
C61	C	0.240326	0.927593	-0.000071
C62	C	0.573659	1.260927	0.333262
C63	C	0.906992	1.594260	0.666595
C64	C	0.353495	0.963069	0.076024
C65	C	0.686828	1.296403	0.409357
C66	C	1.020162	1.629736	0.742691
C67	C	0.353539	0.963067	-0.076096
C68	C	0.686873	1.296401	0.257237
C69	C	1.020206	1.629734	0.590570
C70	C	0.300414	1.001336	-0.000029
C71	C	0.633747	1.334669	0.333304
C72	C	0.967080	1.668003	0.666638
C73	C	0.500527	0.923306	-0.000096
C74	C	0.833861	1.256640	0.333238
C75	C	1.167194	1.589973	0.666571
C76	C	0.145221	0.929167	-0.000057
C77	C	0.478555	1.262501	0.333277
C78	C	0.811888	1.595834	0.666610
C79	C	0.669686	0.920533	0.000004
C80	C	1.003019	1.253866	0.333337
C81	C	1.336353	1.587199	0.666671
C82	C	0.576334	0.922055	-0.000108
C83	C	0.909667	1.255388	0.333226
C84	C	1.243000	1.588721	0.666559
N85	N	-0.177107	0.926247	-0.219467
N86	N	0.156226	1.259580	0.113866
N87	N	0.489559	1.592913	0.447200
C88	C	-0.115754	1.206892	-0.000008
C89	C	0.217579	1.540225	0.333325
C90	C	0.550913	1.873559	0.666658
C91	C	-0.122806	1.288679	-0.000010
C92	C	0.210527	1.622012	0.333324
C93	C	0.543861	1.955346	0.666657
C94	C	-0.202224	1.320229	0.000013
C95	C	0.131110	1.653563	0.333346
C96	C	0.464443	1.986896	0.666679
C97	C	-0.274594	1.269988	0.000027
C98	C	0.058739	1.603321	0.333360
C99	C	0.392073	1.936655	0.666693
C100	C	-0.267541	1.188202	0.000021
C101	C	0.065792	1.521536	0.333355
C102	C	0.399126	1.854869	0.666688
C103	C	-0.231455	1.563829	0.000024
C104	C	0.101878	1.897163	0.333358
C105	C	0.435212	2.230496	0.666691
C106	C	-0.238502	1.645621	0.000032
C107	C	0.094831	1.978955	0.333366
C108	C	0.428164	2.312288	0.666699
C109	C	-0.086714	1.664307	-0.000006
C110	C	0.246620	1.997640	0.333328
C111	C	0.579953	2.330973	0.666661
C112	C	-0.079668	1.582519	-0.000005
C113	C	0.253666	1.915852	0.333328
C114	C	0.586999	2.249185	0.666661
C115	C	-0.152038	1.532284	0.000004
C116	C	0.181295	1.865618	0.333337
C117	C	0.514629	2.198951	0.666670
N118	N	-0.209434	1.403829	0.000014
N119	N	0.123899	1.737162	0.333347
N120	N	0.457233	2.070495	0.666681
N121	N	-0.144827	1.448687	-0.000004
N122	N	0.188506	1.782020	0.333329
N123	N	0.521840	2.115353	0.666662
C124	C	-0.120710	0.981490	-0.530913
C125	C	0.212623	1.314823	-0.197580
C126	C	0.545957	1.648157	0.135753
C127	C	-0.197444	0.997349	-0.469057
C128	C	0.135889	1.330682	-0.135723
C129	C	0.469223	1.664016	0.197610
C130	C	-0.177133	0.926264	-0.591356
C131	C	0.156201	1.259597	-0.258023
C132	C	0.489534	1.592931	0.075311
C133	C	-0.100391	0.910433	-0.469119
C134	C	0.232943	1.243767	-0.135785
C135	C	0.566276	1.577100	0.197548
C136	C	-0.177116	0.926258	-0.408634
C137	C	0.156217	1.259591	-0.075301
C138	C	0.489550	1.592924	0.258032
C139	C	-0.253907	0.942159	-0.530860
C140	C	0.079426	1.275492	-0.197527
C141	C	0.412760	1.608825	0.135807
C142	C	-0.156802	0.855212	-0.530927
C143	C	0.176531	1.188545	-0.197594
C144	C	0.509865	1.521879	0.135739
C145	C	-0.233589	0.871041	-0.469098
C146	C	0.099744	1.204375	-0.135765
C147	C	0.433078	1.537708	0.197568
C148	C	-0.177141	0.926270	-0.696617
C149	C	0.156192	1.259603	-0.363284
C150	C	0.489526	1.592937	-0.029950
C151	C	-0.177116	0.926251	-0.303376
C152	C	0.156217	1.259585	0.029958
C153	C	0.489550	1.592918	0.363291
N154	N	-0.177143	0.926273	0.219483
N155	N	0.156191	1.259606	0.552816
N156	N	0.489524	1.592939	0.886149
H157	H	0.365264	0.787667	-0.000007
H158	H	0.698597	1.121000	0.333326
H159	H	1.031931	1.454333	0.666659
H160	H	-0.326468	1.147301	0.000032
H161	H	0.006865	1.480634	0.333365
H162	H	0.340198	1.813968	0.666699
F163	F	-0.058430	1.042576	-0.566392
F164	F	0.274903	1.375909	-0.233059
F165	F	0.608237	1.709242	0.100275
F166	F	-0.219908	1.075880	-0.433515
F167	F	0.113426	1.409213	-0.100181
F168	F	0.446759	1.742546	0.233152
H169	H	-0.027794	1.705216	-0.000015
H170	H	0.305539	2.038549	0.333319
H171	H	0.638872	2.371883	0.666652
F172	F	0.004859	1.548947	-0.000003
F173	F	0.338193	1.882280	0.333330
F174	F	0.671526	2.215614	0.666664
F175	F	-0.323033	1.679197	0.000055
F176	F	0.010300	2.012530	0.333389
F177	F	0.343633	2.345864	0.666722
F178	F	-0.134299	0.776701	-0.566477
F179	F	0.199034	1.110034	-0.233144
F180	F	0.532368	1.443367	0.100189
F181	F	-0.015571	0.892930	-0.433673
F182	F	0.317762	1.226264	-0.100340
F183	F	0.651096	1.559597	0.232993
H184	H	-0.290384	1.522938	0.000036
H185	H	0.042949	1.856271	0.333370
H186	H	0.376282	2.189604	0.666703
H187	H	-0.339258	1.295683	0.000039
H188	H	-0.005924	1.629016	0.333372
H189	H	0.327409	1.962349	0.666706
F190	F	-0.296016	0.809992	-0.433841
F191	F	0.037317	1.143325	-0.100508
F192	F	0.370650	1.476658	0.232825
F193	F	0.388408	1.003739	0.160137
F194	F	0.721742	1.337072	0.493470
F195	F	1.055075	1.670405	0.826803
F196	F	0.257103	0.848686	0.160006
F197	F	0.590436	1.182020	0.493339
F198	F	0.923769	1.515353	0.826673
F199	F	0.274592	1.084385	0.000027
F200	F	0.607925	1.417718	0.333360
F201	F	0.941258	1.751051	0.666694
H202	H	-0.318820	0.955611	-0.557868
H203	H	0.014514	1.288944	-0.224534
H204	H	0.347847	1.622278	0.108799
H205	H	0.380409	0.994169	-0.140392
H206	H	0.713742	1.327502	0.192941
H207	H	1.047075	1.660835	0.526274
H208	H	0.265420	0.858230	-0.140362
H209	H	0.598753	1.191563	0.192971
H210	H	0.932086	1.524896	0.526304
H211	H	-0.051084	1.181210	-0.000020
H212	H	0.282250	1.514544	0.333313
H213	H	0.615583	1.847877	0.666646
H214	H	-0.063879	1.329578	-0.000027
H215	H	0.269455	1.662911	0.333306
H216	H	0.602788	1.996244	0.666639
