data_functionalizedCrystal
_audit_creation_method	'MofGen! by Chris Wilmer'
_symmetry_space_group_name_H-M	'P1'
_symmetry_Int_Tables_number	1
_symmetry_cell_setting	triclinic
loop_
_symmetry_equiv_pos_as_xyz
  x,y,z
_cell_length_a	16.992694
_cell_length_b	8.597304
_cell_length_c	15.455313
_cell_angle_alpha	85.021039
_cell_angle_beta	87.142206
_cell_angle_gamma	87.974141
loop_
_atom_site_label
_atom_site_type_symbol
_atom_site_fract_x
_atom_site_fract_y
_atom_site_fract_z
O1	O	1.047467	0.324513	-0.096268
O2	O	0.819142	0.320880	-0.096022
O3	O	0.937002	0.096304	-0.079224
O4	O	0.929606	0.549090	-0.113066
O5	O	0.930262	0.109089	0.064082
O6	O	0.812401	0.333666	0.047284
O7	O	1.040726	0.337299	0.047038
Cu8	Cu	0.925948	0.336650	0.060246
Cu9	Cu	0.933920	0.321529	-0.109230
O10	O	0.922866	0.561876	0.030240
C11	C	0.786507	0.322603	-0.024023
C12	C	0.699307	0.308668	-0.022992
C13	C	0.650576	0.443112	-0.033040
C14	C	0.568642	0.430012	-0.032049
C15	C	0.535440	0.282465	-0.021015
C16	C	0.584177	0.148011	-0.010964
C17	C	0.666109	0.161113	-0.011949
C18	C	0.291231	0.228159	-0.016933
C19	C	0.209293	0.215066	-0.015952
C20	C	0.193763	0.497069	-0.037034
C21	C	0.275698	0.510158	-0.038024
C22	C	0.324427	0.375704	-0.027968
N23	N	0.451690	0.269070	-0.020005
N24	N	0.408175	0.389101	-0.028973
C25	C	0.932463	0.044492	-0.003222
C26	C	0.928968	-0.128940	0.009734
C27	C	1.073361	0.335576	-0.024962
C28	C	1.160562	0.349510	-0.026000
C29	C	0.927406	0.613687	-0.045763
C30	C	0.930900	0.787119	-0.058725
N31	N	0.920347	0.347285	0.179446
N32	N	0.939527	0.310883	-0.228429
C33	C	0.970437	0.251916	0.231974
C34	C	0.966209	0.259974	0.322179
C35	C	0.911894	0.363410	0.359854
C36	C	0.861799	0.458782	0.307320
C37	C	0.866024	0.450715	0.217117
C38	C	0.893657	0.398188	0.628834
C39	C	0.889437	0.406251	0.719044
C40	C	0.993846	0.207440	0.733897
C41	C	0.998070	0.199389	0.643691
C42	C	0.947972	0.294756	0.591165
N43	N	0.907572	0.371652	0.452058
N44	N	0.952290	0.286504	0.498964
H45	H	0.677602	0.563261	-0.042025
H46	H	0.825235	0.528372	0.174349
N47	N	0.803210	0.570335	0.347951
H48	H	0.808135	0.560979	0.413065
H49	H	0.814257	0.680773	0.323814
N50	N	0.923231	-0.209486	0.100517
H51	H	0.921462	-0.326119	0.097224
H52	H	0.970705	-0.184628	0.133019
H53	H	0.852867	0.475842	0.586074
H54	H	0.182263	0.094910	-0.006968
H55	H	1.014669	0.167695	0.201305
H56	H	0.302725	0.630305	-0.047018
H57	H	1.006995	0.182317	0.364947
H58	H	0.154079	0.606533	-0.045220
H59	H	0.557137	0.027876	-0.001968
N60	N	0.516077	0.575027	-0.042789
H61	H	0.549541	0.670487	-0.049901
H62	H	0.484189	0.571105	-0.095939
H63	H	1.042297	0.115164	0.613018
H64	H	0.330897	0.118677	-0.008744
N65	N	0.718673	0.016108	-0.001105
H66	H	0.685209	-0.079352	0.006033
H67	H	0.755499	0.010655	-0.054177
N68	N	0.936630	-0.132383	-0.149513
H69	H	0.889161	-0.157146	-0.182054
H70	H	0.938425	-0.015771	-0.146170
H71	H	1.034632	0.129796	0.776671
N72	N	0.830860	0.517835	0.759681
H73	H	0.799765	0.577028	0.712719
H74	H	0.793729	0.457083	0.801914
