data_functionalizedCrystal
_audit_creation_method	'MofGen! by Chris Wilmer'
_symmetry_space_group_name_H-M	'P1'
_symmetry_Int_Tables_number	1
_symmetry_cell_setting	triclinic
loop_
_symmetry_equiv_pos_as_xyz
  x,y,z
_cell_length_a	12.759401
_cell_length_b	21.295417
_cell_length_c	12.759393
_cell_angle_alpha	90.038123
_cell_angle_beta	90.018567
_cell_angle_gamma	90.028746
loop_
_atom_site_label
_atom_site_type_symbol
_atom_site_fract_x
_atom_site_fract_y
_atom_site_fract_z
Zn1	Zn	1.606146	-0.250588	0.593935
Zn2	Zn	2.106146	0.249412	1.093935
Zn3	Zn	1.605994	-0.355872	0.418235
Zn4	Zn	2.105994	0.144128	0.918235
Zn5	Zn	1.430448	-0.250619	0.418275
Zn6	Zn	1.930448	0.249381	0.918275
Zn7	Zn	1.430390	-0.355822	0.593877
Zn8	Zn	1.930390	0.144178	1.093877
O9	O	1.518245	-0.303225	0.506081
O10	O	2.018245	0.196775	1.006081
O11	O	1.753147	-0.264563	0.570637
O12	O	2.253147	0.235437	1.070637
O13	O	1.582668	-0.341944	0.271219
O14	O	2.082668	0.158056	0.771219
O15	O	1.453842	-0.162526	0.441617
O16	O	1.953842	0.337474	0.941617
O17	O	1.753035	-0.341914	0.441551
O18	O	2.253035	0.158086	0.941551
O19	O	1.582927	-0.162503	0.570675
O20	O	2.082927	0.337497	1.070675
O21	O	1.453695	-0.264615	0.271248
O22	O	1.953695	0.235385	0.771248
O23	O	1.283419	-0.264566	0.441560
O24	O	1.783419	0.235434	0.941560
O25	O	1.453744	-0.341828	0.740906
O26	O	1.953744	0.158172	1.240906
O27	O	1.283377	-0.341858	0.570574
O28	O	1.783377	0.158142	1.070574
O29	O	1.582871	-0.264514	0.740949
O30	O	2.082871	0.235486	1.240949
O31	O	1.582612	-0.443955	0.441494
O32	O	2.082612	0.056045	0.941494
O33	O	1.453597	-0.443918	0.570536
O34	O	1.953597	0.056082	1.070536
C35	C	1.245277	-0.303210	0.506066
C36	C	1.745277	0.196790	1.006066
C37	C	1.128501	-0.303219	0.506085
C38	C	1.628501	0.196781	1.006085
C39	C	1.518111	-0.466777	0.506027
C40	C	2.018111	0.033223	1.006027
C41	C	1.518150	-0.536745	0.506040
C42	C	2.018150	-0.036745	1.006040
C43	C	1.073690	-0.263018	0.573404
C44	C	1.573690	0.236982	1.073404
C45	C	0.963966	-0.263030	0.573410
C46	C	1.463966	0.236970	1.073410
C47	C	0.963873	-0.343450	0.438776
C48	C	1.463873	0.156550	0.938776
C49	C	1.073595	-0.343434	0.438765
C50	C	1.573595	0.156566	0.938765
C51	C	1.073742	-0.216591	0.651137
C52	C	1.573742	0.283409	1.151137
C53	C	0.964018	-0.216603	0.651144
C54	C	1.464018	0.283397	1.151144
C55	C	1.585325	-0.569543	0.573288
C56	C	2.085325	-0.069543	1.073288
C57	C	1.585362	-0.635285	0.573314
C58	C	2.085362	-0.135285	1.073314
C59	C	1.518235	-0.668227	0.506073
C60	C	2.018235	-0.168227	1.006073
C61	C	1.451046	-0.635422	0.438820
C62	C	1.951046	-0.135422	0.938820
C63	C	1.451003	-0.569681	0.438803
C64	C	1.951003	-0.069681	0.938803
N65	N	1.510296	-0.771497	0.414126
N66	N	2.010296	-0.271497	0.914126
N67	N	1.510342	-0.833948	0.414145
N68	N	2.010342	-0.333948	0.914145
C69	C	1.518357	-0.866302	0.506120
C70	C	2.018357	-0.366302	1.006120
N71	N	1.526345	-0.833846	0.598078
N72	N	2.026345	-0.333846	1.098078
N73	N	1.526303	-0.771388	0.598058
N74	N	2.026303	-0.271388	1.098058
C75	C	1.518273	-0.739513	0.506084
C76	C	2.018273	-0.239513	1.006084
C77	C	1.585577	-0.970385	0.573402
C78	C	2.085577	-0.470385	1.073402
C79	C	1.585607	-1.036129	0.573430
C80	C	2.085607	-0.536129	1.073430
C81	C	1.451296	-1.036265	0.438927
C82	C	1.951296	-0.536265	0.938927
C83	C	1.451260	-0.970522	0.438908
C84	C	1.951260	-0.470522	0.938908
C85	C	1.518407	-0.937586	0.506145
C86	C	2.018407	-0.437586	1.006145
C87	C	1.792278	-0.303241	0.506096
C88	C	2.292278	0.196759	1.006096
C89	C	1.909054	-0.303247	0.506102
C90	C	2.409054	0.196753	1.006102
C91	C	1.518318	-0.303162	0.780114
C92	C	2.018318	0.196838	1.280114
C93	C	1.518350	-0.303135	0.896891
C94	C	2.018350	0.196865	1.396891
C95	C	1.518408	-0.139035	0.506157
C96	C	2.018408	0.360965	1.006157
C97	C	1.518477	-0.069067	0.506189
C98	C	2.018477	0.430933	1.006189
C99	C	1.518232	-0.303243	0.233113
C100	C	2.018232	0.196757	0.733113
C101	C	1.518404	-0.303093	0.116337
C102	C	2.018404	0.196907	0.616337
C103	C	1.585595	-0.262873	0.951777
C104	C	2.085595	0.237127	1.451777
C105	C	1.585620	-0.262850	1.061501
C106	C	2.085620	0.237150	1.561501
C107	C	1.451151	-0.343356	1.061443
C108	C	1.951151	0.156644	1.561443
C109	C	1.451122	-0.343375	0.951721
C110	C	1.951122	0.156625	1.451721
C111	C	1.663233	-0.216396	0.951811
C112	C	2.163233	0.283604	1.451811
C113	C	1.663258	-0.216373	1.061535
C114	C	2.163258	0.283627	1.561535
H115	H	1.118218	-0.376164	0.383937
H116	H	1.618218	0.123836	0.883937
N117	N	1.765319	-0.232771	1.098893
N118	N	2.265319	0.267229	1.598893
N119	N	1.777207	-0.280253	1.155188
N120	N	2.277207	0.219747	1.655188
H121	H	1.849284	-0.291835	1.181570
H122	H	2.349284	0.208165	1.681570
N123	N	0.907770	-0.384519	0.370015
N124	N	1.407770	0.115481	0.870015
N125	N	0.809805	-0.384525	0.370027
N126	N	1.309805	0.115475	0.870027
H127	H	0.770182	-0.413531	0.321463
H128	H	1.270182	0.086469	0.821463
N129	N	1.626763	-0.158262	1.104253
N130	N	2.126763	0.341738	1.604253
N131	N	1.599415	-0.114763	1.044489
N132	N	2.099415	0.385237	1.544489
H133	H	1.573637	-0.073723	1.074659
H134	H	2.073637	0.426277	1.574659
H135	H	1.396388	-0.662248	0.384074
H136	H	1.896388	-0.162248	0.884074
H137	H	1.641486	-0.167645	0.922065
H138	H	2.141486	0.332355	1.422065
N139	N	1.382405	-0.384488	0.895660
N140	N	1.882405	0.115512	1.395660
N141	N	1.285470	-0.380292	0.907919
N142	N	1.785470	0.119708	1.407919
H143	H	1.236932	-0.409328	0.868327
H144	H	1.736932	0.090672	1.368327
H145	H	1.103530	-0.167817	0.629493
H146	H	1.603530	0.332183	1.129493
N147	N	1.653954	-0.535908	0.641932
N148	N	2.153954	-0.035908	1.141932
N149	N	1.720908	-0.499226	0.604975
N150	N	2.220908	0.000774	1.104975
H151	H	1.769395	-0.475475	0.653445
H152	H	2.269395	0.024525	1.153445
N153	N	0.926684	-0.233078	0.753161
N154	N	1.426684	0.266922	1.253161
N155	N	0.870341	-0.280585	0.764934
N156	N	1.370341	0.219415	1.264934
H157	H	0.843973	-0.292222	0.836980
H158	H	1.343973	0.207778	1.336980
N159	N	1.653990	-0.668787	0.642017
N160	N	2.153990	-0.168787	1.142017
N161	N	1.713932	-0.639372	0.702043
N162	N	2.213932	-0.139372	1.202043
H163	H	1.762403	-0.663031	0.750564
H164	H	2.262403	-0.163031	1.250564
H165	H	1.640309	-1.062832	0.628196
H166	H	2.140309	-0.562832	1.128196
H167	H	1.396299	-0.542976	0.384041
H168	H	1.896299	-0.042976	0.884041
N169	N	1.116471	-0.238573	0.748019
N170	N	1.616471	0.261427	1.248019
N171	N	1.095892	-0.292783	0.779408
N172	N	1.595892	0.207217	1.279408
H173	H	1.126067	-0.308312	0.847830
H174	H	1.626067	0.191688	1.347830
H175	H	1.640249	-0.943568	0.628154
H176	H	2.140249	-0.443568	1.128154
H177	H	0.929997	-0.170271	0.622153
H178	H	1.429997	0.329729	1.122153
H179	H	1.396414	-0.376117	1.106099
H180	H	1.896414	0.123883	1.606099
H181	H	1.396564	-0.943816	0.384144
H182	H	1.896564	-0.443816	0.884144
H183	H	1.740497	-0.233873	0.917772
H184	H	2.240497	0.266127	1.417772
H185	H	1.396632	-1.063086	0.384184
H186	H	1.896632	-0.563086	0.884184
