data_functionalizedCrystal
_audit_creation_method	'MofGen! by Chris Wilmer'
_symmetry_space_group_name_H-M	'P1'
_symmetry_Int_Tables_number	1
_symmetry_cell_setting	triclinic
loop_
_symmetry_equiv_pos_as_xyz
  x,y,z
_cell_length_a	13.262533
_cell_length_b	13.339070
_cell_length_c	12.376457
_cell_angle_alpha	104.398083
_cell_angle_beta	85.820148
_cell_angle_gamma	80.568647
loop_
_atom_site_label
_atom_site_type_symbol
_atom_site_fract_x
_atom_site_fract_y
_atom_site_fract_z
O1	O	1.381346	-0.204438	-0.330700
O2	O	1.093732	-0.201086	-0.242270
O3	O	1.204530	-0.053267	-0.276340
O4	O	1.270548	-0.352258	-0.296631
O5	O	1.176829	-0.090168	-0.455834
O6	O	1.066031	-0.237988	-0.421765
O7	O	1.353645	-0.241340	-0.510195
Zn8	Zn	1.205440	-0.245523	-0.494478
Zn9	Zn	1.241937	-0.196903	-0.257987
O10	O	1.242848	-0.389160	-0.476125
C11	C	1.042318	-0.216331	-0.320468
C12	C	0.930388	-0.206764	-0.286054
C13	C	0.554471	-0.260273	-0.580417
C14	C	0.659635	-0.269267	-0.612757
C15	C	0.727328	-0.253642	-0.531084
C16	C	0.689847	-0.229021	-0.417066
C17	C	0.584674	-0.220034	-0.384723
C18	C	0.757531	-0.213403	-0.335390
C19	C	0.720050	-0.188783	-0.221372
C20	C	0.614887	-0.179796	-0.189035
C21	C	0.547194	-0.195421	-0.270708
C22	C	0.862705	-0.222390	-0.367732
C23	C	0.892908	-0.182151	-0.172038
C24	C	0.787743	-0.173157	-0.139699
C25	C	1.179528	-0.033274	-0.362657
C26	C	1.146288	0.081277	-0.352432
C27	C	1.405059	-0.226095	-0.431995
C28	C	1.516991	-0.235660	-0.466402
C29	C	1.267850	-0.409152	-0.389806
C30	C	1.301091	-0.523702	-0.400023
N31	N	1.180540	-0.278705	-0.655880
C32	C	1.404748	0.428588	-0.431899
C33	C	1.435981	0.320961	-0.441513
C34	C	1.363560	0.261035	-0.419243
C35	C	1.259902	0.308746	-0.387359
C36	C	1.228665	0.416383	-0.377753
C37	C	1.187477	0.248829	-0.365097
C38	C	1.083818	0.296541	-0.333213
C39	C	1.052587	0.404167	-0.323607
C40	C	1.125007	0.464093	-0.345877
C41	C	1.218714	0.141193	-0.374703
C42	C	1.042631	0.128988	-0.320556
C43	C	1.011398	0.236615	-0.310943
C44	C	1.324640	-0.086668	-1.055175
C45	C	1.342063	-0.063444	-0.942192
C46	C	1.301683	-0.117257	-0.870609
C47	C	1.243879	-0.194299	-0.912019
C48	C	1.226461	-0.217531	-1.025014
C49	C	1.203504	-0.248120	-0.840448
C50	C	1.145700	-0.325162	-0.881858
C51	C	1.128285	-0.348390	-0.994843
C52	C	1.168664	-0.294577	-1.066427
C53	C	1.220922	-0.224887	-0.727452
C54	C	1.122743	-0.355750	-0.697292
C55	C	1.105320	-0.378975	-0.810275
N56	N	1.266843	-0.163714	-0.096587
H57	H	0.948025	-0.169432	-0.105533
Br58	Br	1.082645	0.610196	-0.332685
Br59	Br	1.379451	-0.013656	-1.152326
Br60	Br	0.870054	-0.265849	-0.574975
H61	H	1.303113	0.102357	-0.400663
H62	H	1.154476	-0.313483	-1.158426
Br63	Br	1.026871	-0.483528	-0.866485
H64	H	0.584376	-0.159760	-0.096195
H65	H	0.893211	-0.242438	-0.460566
Br66	Br	0.944337	0.047666	-0.290343
H67	H	0.690144	-0.289312	-0.705590
Br68	Br	0.736860	-0.139722	0.015037
Br69	Br	1.049855	-0.452962	-1.051052
H70	H	0.499349	-0.273000	-0.646903
Br71	Br	0.404468	-0.183240	-0.226823
Br72	Br	1.405949	0.114967	-0.432287
Br73	Br	0.870723	0.301381	-0.267667
Br74	Br	1.576657	0.256220	-0.484759
H75	H	1.463700	0.477387	-0.450037
H76	H	0.968180	0.443009	-0.297654
Br77	Br	1.067947	-0.428794	-0.600153
H78	H	1.267986	-0.162160	-0.693747
Br79	Br	1.420510	0.041104	-0.885994
Br80	Br	1.325327	-0.085737	-0.717272
