data_functionalizedCrystal
_audit_creation_method	'MofGen! by Chris Wilmer'
_symmetry_space_group_name_H-M	'P1'
_symmetry_Int_Tables_number	1
_symmetry_cell_setting	triclinic
loop_
_symmetry_equiv_pos_as_xyz
  x,y,z
_cell_length_a	14.908571
_cell_length_b	17.640280
_cell_length_c	14.908694
_cell_angle_alpha	81.377015
_cell_angle_beta	83.592472
_cell_angle_gamma	74.921313
loop_
_atom_site_label
_atom_site_type_symbol
_atom_site_fract_x
_atom_site_fract_y
_atom_site_fract_z
Zn1	Zn	1.504199	-0.416132	-0.500831
Zn2	Zn	1.522460	-0.540223	-0.322426
Zn3	Zn	1.340571	-0.399965	-0.344289
Zn4	Zn	1.379879	-0.540161	-0.465038
O5	O	1.436777	-0.474120	-0.408146
O6	O	1.634771	-0.439384	-0.482995
O7	O	1.489524	-0.514877	-0.200130
O8	O	1.338183	-0.291504	-0.389184
O9	O	1.648188	-0.530554	-0.351922
O10	O	1.458400	-0.303382	-0.504195
O11	O	1.355891	-0.411830	-0.216192
O12	O	1.217635	-0.411770	-0.354477
O13	O	1.405178	-0.530449	-0.594983
O14	O	1.246515	-0.514772	-0.443190
O15	O	1.496515	-0.439325	-0.621280
O16	O	1.527640	-0.650820	-0.317215
O17	O	1.422886	-0.650775	-0.421991
C18	C	1.198847	-0.461511	-0.397322
C19	C	1.097065	-0.456137	-0.392709
C20	C	0.935951	-0.553443	-0.476230
C21	C	0.840319	-0.548396	-0.471898
C22	C	0.810166	-0.440993	-0.379719
C23	C	0.905799	-0.446040	-0.384051
C24	C	0.968688	-0.502267	-0.432307
C25	C	1.064323	-0.507317	-0.436633
C26	C	1.034169	-0.399911	-0.344460
C27	C	0.938536	-0.394865	-0.340128
C28	C	1.481536	-0.679479	-0.363367
C29	C	1.500770	-0.767338	-0.344244
C30	C	1.291057	-1.056285	-0.553764
C31	C	1.309130	-1.138841	-0.535766
C32	C	1.418291	-1.138833	-0.426782
C33	C	1.400231	-1.056275	-0.444773
C34	C	1.336612	-1.015008	-0.508264
C35	C	1.445786	-1.014998	-0.399274
C36	C	1.427723	-0.932448	-0.417261
C37	C	1.364105	-0.891175	-0.480747
C38	C	1.318549	-0.932458	-0.526251
C39	C	1.509399	-1.056267	-0.335778
C40	C	1.554954	-1.014990	-0.290279
C41	C	1.536896	-0.932438	-0.308270
C42	C	1.473278	-0.891165	-0.371756
C43	C	1.582452	-0.891156	-0.262766
C44	C	1.564389	-0.808605	-0.280753
C45	C	1.455215	-0.808615	-0.389743
C46	C	1.675636	-0.486779	-0.419012
C47	C	1.777424	-0.492174	-0.423643
C48	C	1.453194	-0.486684	-0.641501
C49	C	1.460190	-0.492037	-0.740943
C50	C	1.391870	-0.267962	-0.453121
C51	C	1.372733	-0.180110	-0.472286
C52	C	1.334163	-0.394796	-0.944531
C53	C	1.340733	-0.399823	-1.037966
C54	C	1.479895	-0.507123	-1.021249
C55	C	1.473325	-0.502096	-0.927814
C56	C	1.400458	-0.445929	-0.889459
C57	C	1.393892	-0.440898	-0.796023
C58	C	1.533050	-0.548202	-0.779306
C59	C	1.539620	-0.553229	-0.872741
C60	C	1.420464	-0.461551	-0.175714
C61	C	1.413597	-0.455984	-0.076329
H62	H	1.403418	-0.775014	-0.441451
H63	H	1.349392	-0.823957	-0.495384
H64	H	1.266751	-0.898857	-0.577959
Br65	Br	1.533951	-1.168304	-0.311403
Br66	Br	1.578765	-0.583356	-1.073314
H67	H	1.598944	-0.598961	-0.903982
H68	H	1.274838	-0.349056	-0.913304
Br69	Br	0.795891	-0.617847	-0.531515
Br70	Br	1.641292	-1.071002	-0.204116
H71	H	0.758946	-0.395211	-0.340438
Br72	Br	0.853179	-0.318555	-0.274648
H73	H	1.587035	-0.589836	-0.734457
Br74	Br	1.204728	-1.000273	-0.639943
Br75	Br	1.668779	-0.947170	-0.176595
Br76	Br	1.247283	-1.194857	-0.597508
H77	H	1.470087	-1.172443	-0.375085
H78	H	1.115527	-0.553102	-0.475924
Br79	Br	1.250753	-0.330429	-1.112705
H80	H	1.060832	-0.358242	-0.308692
Br81	Br	1.021306	-0.629759	-0.541703
H82	H	1.601484	-0.774997	-0.243702
Br83	Br	1.295006	-0.364670	-0.743971
