data_functionalizedCrystal
_audit_creation_method	'MofGen! by Chris Wilmer'
_symmetry_space_group_name_H-M	'P1'
_symmetry_Int_Tables_number	1
_symmetry_cell_setting	triclinic
loop_
_symmetry_equiv_pos_as_xyz
  x,y,z
_cell_length_a	10.654549
_cell_length_b	10.654560
_cell_length_c	9.130313
_cell_angle_alpha	89.997273
_cell_angle_beta	89.997498
_cell_angle_gamma	84.487032
loop_
_atom_site_label
_atom_site_type_symbol
_atom_site_fract_x
_atom_site_fract_y
_atom_site_fract_z
O1	O	1.667846	0.176396	-0.121759
O2	O	1.302369	0.193202	-0.121769
O3	O	1.493504	0.002061	-0.121761
O4	O	1.476711	0.367537	-0.121767
O5	O	1.493490	0.002055	0.121838
O6	O	1.302355	0.193197	0.121830
O7	O	1.667833	0.176390	0.121840
Cu8	Cu	1.485093	0.184793	0.144077
Cu9	Cu	1.485109	0.184799	-0.144007
O10	O	1.476698	0.367532	0.121831
C11	C	1.255564	0.191965	0.000029
C12	C	1.116121	0.188274	0.000025
C13	C	0.905610	0.297337	0.000029
C14	C	1.036631	0.300815	0.000020
C15	C	1.064584	0.072247	0.000024
C16	C	0.933565	0.068770	0.000022
C17	C	1.492261	-0.044740	0.000036
C18	C	1.488564	-0.184183	0.000029
C19	C	1.483366	-0.380724	0.132816
C20	C	1.486824	-0.249701	0.132817
C21	C	1.486832	-0.249692	-0.132768
C22	C	1.483364	-0.380712	-0.132768
C23	C	1.481639	-0.446238	0.265612
C24	C	1.483369	-0.380737	0.398410
C25	C	1.486827	-0.249714	0.398411
C26	C	1.488556	-0.184192	0.265614
C27	C	1.714638	0.177627	0.000038
C28	C	1.854081	0.181319	0.000032
C29	C	1.477941	0.414332	0.000031
C30	C	1.481638	0.553775	0.000028
N31	N	1.485091	0.184787	0.346700
N32	N	1.485120	0.184795	-0.346629
C33	C	1.569755	0.100186	0.423355
C34	C	1.569767	0.100186	0.576692
C35	C	1.400448	0.269401	0.576704
C36	C	1.400431	0.269393	0.423370
H37	H	0.891612	-0.025712	0.000020
C38	C	1.661513	0.008089	0.340228
C39	C	1.640020	-0.115495	0.377567
C40	C	1.724511	-0.200386	0.301027
H41	H	1.745503	0.022329	0.365288
H42	H	1.649396	0.020084	0.237906
H43	H	1.652147	-0.127485	0.479866
H44	H	1.556046	-0.129775	0.352503
H45	H	1.712394	-0.188392	0.198705
H46	H	1.808496	-0.186135	0.326093
H47	H	1.709932	-0.284248	0.326340
H48	H	1.638706	0.031294	0.639101
H49	H	1.488220	-0.196385	0.506541
H50	H	1.478826	-0.552924	0.265626
H51	H	1.331521	0.338287	0.639145
H52	H	1.129315	-0.019386	0.000019
H53	H	1.481949	-0.434093	0.506528
H54	H	1.488240	-0.196333	-0.240885
C55	C	1.481669	-0.451995	-0.276844
C56	C	1.587511	-0.540427	-0.284625
C57	C	1.585970	-0.606115	-0.417327
H58	H	1.483259	-0.394347	-0.356036
H59	H	1.407238	-0.494238	-0.282378
H60	H	1.661924	-0.498186	-0.279105
H61	H	1.585943	-0.598100	-0.205464
H62	H	1.511538	-0.648358	-0.422861
H63	H	1.587557	-0.548458	-0.496508
H64	H	1.657776	-0.666131	-0.422618
C65	C	0.819251	0.419489	0.000323
C66	C	0.743232	0.424193	0.125666
C67	C	0.663679	0.536711	0.125991
H68	H	0.767447	0.423002	-0.084527
H69	H	0.868666	0.489118	0.000395
H70	H	0.693822	0.354583	0.125581
H71	H	0.795003	0.420701	0.210536
H72	H	0.713094	0.606339	0.126063
H73	H	0.611883	0.540214	0.041135
H74	H	0.612099	0.539922	0.211040
H75	H	1.491350	-0.077501	0.265626
C76	C	1.308451	0.361394	0.340397
C77	C	1.234342	0.435519	0.440357
C78	C	1.149609	0.520286	0.363976
H79	H	1.255659	0.315866	0.280594
H80	H	1.354044	0.414161	0.280595
H81	H	1.188752	0.382759	0.500134
H82	H	1.287099	0.481074	0.500163
H83	H	1.195202	0.573053	0.304174
H84	H	1.096826	0.474748	0.304176
H85	H	1.099324	0.570598	0.431787
H86	H	1.078578	0.395288	0.000017
