data_functionalizedCrystal
_audit_creation_method	'MofGen! by Chris Wilmer'
_symmetry_space_group_name_H-M	'P1'
_symmetry_Int_Tables_number	1
_symmetry_cell_setting	triclinic
loop_
_symmetry_equiv_pos_as_xyz
  x,y,z
_cell_length_a	15.538191
_cell_length_b	17.699083
_cell_length_c	16.776229
_cell_angle_alpha	89.999799
_cell_angle_beta	89.990959
_cell_angle_gamma	65.277554
loop_
_atom_site_label
_atom_site_type_symbol
_atom_site_fract_x
_atom_site_fract_y
_atom_site_fract_z
O1	O	1.250478	-0.245973	-0.066326
O2	O	1.750478	0.254027	0.433674
O3	O	0.976019	-0.158526	-0.066315
O4	O	1.476019	0.341474	0.433685
O5	O	1.121003	-0.314557	-0.066329
O6	O	1.621003	0.185443	0.433671
O7	O	1.105495	-0.089941	-0.066313
O8	O	1.605495	0.410059	0.433687
O9	O	1.120984	-0.314559	0.066248
O10	O	1.620984	0.185441	0.566248
O11	O	0.976000	-0.158528	0.066261
O12	O	1.476000	0.341472	0.566261
O13	O	1.250459	-0.245975	0.066251
O14	O	1.750459	0.254025	0.566251
Zn15	Zn	1.113227	-0.202252	0.087305
Zn16	Zn	1.613227	0.297748	0.587305
Zn17	Zn	1.113252	-0.202249	-0.087370
Zn18	Zn	1.613252	0.297751	0.412630
O19	O	1.105475	-0.089943	0.066264
O20	O	1.605475	0.410057	0.566264
C21	C	0.940893	-0.149378	-0.000026
C22	C	1.440893	0.350622	0.499974
C23	C	0.836257	-0.122125	-0.000022
C24	C	1.336257	0.377875	0.499978
C25	C	1.120438	-0.342603	-0.000044
C26	C	1.620438	0.157397	0.499956
C27	C	1.118771	-0.426166	-0.000055
C28	C	1.618771	0.073834	0.499945
N29	N	1.113216	-0.202256	0.206516
N30	N	1.613216	0.297744	0.706516
C31	C	0.549086	-0.392872	-0.000054
C32	C	1.049086	0.107128	0.499946
C33	C	0.450762	-0.367245	-0.000053
C34	C	0.950762	0.132755	0.499947
C35	C	0.427989	-0.223099	-0.000043
C36	C	0.927989	0.276901	0.499957
C37	C	0.526313	-0.248714	-0.000040
C38	C	1.026313	0.251286	0.499960
C39	C	0.586855	-0.333602	-0.000047
C40	C	1.086855	0.166398	0.499953
C41	C	0.564082	-0.189444	-0.000032
C42	C	1.064082	0.310556	0.499968
C43	C	0.662398	-0.215057	-0.000034
C44	C	1.162398	0.284943	0.499966
C45	C	0.722945	-0.299940	-0.000043
C46	C	1.222945	0.200060	0.499957
C47	C	0.685171	-0.359215	-0.000048
C48	C	1.185171	0.140785	0.499952
C49	C	0.503539	-0.104556	-0.000031
C50	C	1.003539	0.395444	0.499969
C51	C	0.541308	-0.045286	-0.000023
C52	C	1.041308	0.454714	0.499977
C53	C	0.639625	-0.070899	-0.000019
C54	C	1.139625	0.429101	0.499981
C55	C	0.700173	-0.155782	-0.000029
C56	C	1.200173	0.344218	0.499971
C57	C	0.677400	-0.011624	-0.000014
C58	C	1.177400	0.488376	0.499986
C59	C	0.775716	-0.037238	-0.000016
C60	C	1.275716	0.462762	0.499984
C61	C	0.798489	-0.181396	-0.000030
C62	C	1.298489	0.318604	0.499970
C63	C	1.285585	-0.255123	-0.000041
C64	C	1.785585	0.244877	0.499959
C65	C	1.390221	-0.282375	-0.000049
C66	C	1.890221	0.217625	0.499951
C67	C	1.106041	-0.061897	-0.000022
C68	C	1.606041	0.438103	0.499978
C69	C	1.107708	0.021665	-0.000017
C70	C	1.607708	0.521665	0.499983
C71	C	1.022605	0.093540	-0.000013
C72	C	1.522605	0.593540	0.499987
C73	C	1.024178	0.172054	-0.000023
C74	C	1.524178	0.672054	0.499977
C75	C	1.110853	0.178691	-0.000030
C76	C	1.610853	0.678691	0.499970
C77	C	1.195962	0.106808	-0.000035
C78	C	1.695962	0.606808	0.499965
C79	C	1.194389	0.028296	-0.000032
C80	C	1.694389	0.528296	0.499968
C81	C	1.202307	0.423438	-0.000051
C82	C	1.702307	0.923438	0.499949
C83	C	1.203874	0.501958	-0.000053
C84	C	1.703874	1.001958	0.499947
C85	C	1.032096	0.567195	-0.000042
C86	C	1.532096	1.067195	0.499958
C87	C	1.030523	0.488683	-0.000039
C88	C	1.530523	0.988683	0.499961
C89	C	1.115632	0.416807	-0.000049
C90	C	1.615632	0.916807	0.499951
C91	C	1.113926	0.331674	-0.000040
C92	C	1.613926	0.831674	0.499960
C93	C	1.112559	0.263822	-0.000033
C94	C	1.612559	0.763822	0.499967
N95	N	1.113270	-0.202253	-0.206581
N96	N	1.613270	0.297747	0.293419
C97	C	1.177434	-0.271331	0.248228
C98	C	1.677434	0.228669	0.748228
C99	C	1.177440	-0.271333	0.331680
C100	C	1.677440	0.228667	0.831680
C101	C	1.113230	-0.202257	0.373419
C102	C	1.613230	0.297743	0.873419
C103	C	1.049005	-0.133177	0.331702
C104	C	1.549005	0.366823	0.831702
C105	C	1.048996	-0.133178	0.248252
C106	C	1.548996	0.366822	0.748252
C107	C	1.049039	-0.133172	0.668250
C108	C	1.549039	0.366828	1.168250
C109	C	1.049055	-0.133175	0.751706
C110	C	1.549055	0.366825	1.251706
C111	C	1.177483	-0.271326	0.751678
C112	C	1.677483	0.228674	1.251678
C113	C	1.177474	-0.271327	0.668227
C114	C	1.677474	0.228673	1.168227
C115	C	1.113246	-0.202250	0.626517
C116	C	1.613246	0.297750	1.126517
C117	C	1.113240	-0.202249	0.536029
C118	C	1.613240	0.297751	1.036029
C119	C	1.113240	-0.202254	0.463906
C120	C	1.613240	0.297746	0.963906
H121	H	0.847785	-0.250520	-0.000031
H122	H	1.347785	0.249480	0.499969
H123	H	1.263688	-0.030226	-0.000038
H124	H	1.763688	0.469774	0.499962
H125	H	1.229778	-0.327574	0.785647
H126	H	1.729778	0.172426	1.285647
Cl127	Cl	0.761288	-0.465933	-0.000047
Cl128	Cl	1.261288	0.034067	0.499953
H129	H	0.962797	0.625727	-0.000037
H130	H	1.462797	1.125727	0.499963
Cl131	Cl	0.968327	-0.046330	0.804178
Cl132	Cl	1.468327	0.453670	1.304178
Cl133	Cl	0.465190	0.061426	-0.000020
Cl134	Cl	0.965190	0.561426	0.499980
Cl135	Cl	0.968302	-0.046333	0.615820
Cl136	Cl	1.468302	0.453667	1.115820
Cl137	Cl	0.968257	-0.046339	0.195816
Cl138	Cl	1.468257	0.453661	0.695816
H139	H	0.996720	-0.076935	0.365692
H140	H	1.496720	0.423065	0.865692
H141	H	1.229762	-0.327573	0.634245
H142	H	1.729762	0.172427	1.134245
Cl143	Cl	0.846545	-0.332142	-0.000050
Cl144	Cl	1.346545	0.167858	0.499950
H145	H	0.806467	0.011026	-0.000002
H146	H	1.306467	0.511026	0.499998
Cl147	Cl	0.625203	-0.499590	-0.000053
Cl148	Cl	1.125203	0.000410	0.499947
H149	H	0.420016	-0.415517	-0.000061
H150	H	0.920016	0.084483	0.499939
H151	H	1.229725	-0.327578	0.214249
H152	H	1.729725	0.172422	0.714249
H153	H	0.378683	-0.153983	-0.000040
H154	H	0.878683	0.346017	0.499960
Cl155	Cl	0.913636	0.085206	0.000002
Cl156	Cl	1.413636	0.585206	0.500002
H157	H	1.229730	-0.327579	0.365641
H158	H	1.729730	0.172421	0.865641
Cl159	Cl	0.379940	-0.072357	-0.000029
Cl160	Cl	0.879940	0.427643	0.499971
H161	H	0.628093	0.057491	-0.000016
H162	H	1.128093	0.557491	0.499984
Cl163	Cl	0.921556	0.480345	-0.000027
Cl164	Cl	1.421556	0.980345	0.499973
Cl165	Cl	1.312846	0.510297	-0.000064
Cl166	Cl	1.812846	1.010297	0.499936
Cl167	Cl	0.917186	0.262409	-0.000026
Cl168	Cl	1.417186	0.762409	0.499974
H169	H	1.271608	0.364924	-0.000055
H170	H	1.771608	0.864924	0.499945
H171	H	1.266534	0.112218	-0.000040
H172	H	1.766534	0.612218	0.499960
