data_functionalizedCrystal
_audit_creation_method	'MofGen! by Chris Wilmer'
_symmetry_space_group_name_H-M	'P1'
_symmetry_Int_Tables_number	1
_symmetry_cell_setting	triclinic
loop_
_symmetry_equiv_pos_as_xyz
  x,y,z
_cell_length_a	12.970454
_cell_length_b	14.446369
_cell_length_c	12.970454
_cell_angle_alpha	90.000289
_cell_angle_beta	59.999776
_cell_angle_gamma	59.998589
loop_
_atom_site_label
_atom_site_type_symbol
_atom_site_fract_x
_atom_site_fract_y
_atom_site_fract_z
Zr1	Zr	1.128466	0.891772	-0.135268
O2	O	1.343565	0.743963	-0.299899
O3	O	0.913372	0.937083	-0.084800
O4	O	1.128462	0.937084	-0.299890
O5	O	1.128476	0.743961	0.084858
O6	O	1.128453	1.089421	-0.299884
O7	O	1.128475	0.743962	-0.084809
O8	O	0.743697	1.089419	0.084874
O9	O	1.513232	0.743963	-0.299900
O10	O	1.001834	1.070095	-0.063271
O11	O	1.001842	0.956407	0.063344
O12	O	1.255082	0.956408	-0.189898
O13	O	1.255090	0.842720	-0.063282
Zr14	Zr	1.128452	1.134730	0.135340
Zr15	Zr	1.128451	1.134732	-0.135259
Zr16	Zr	1.128467	0.891770	0.135330
Zr17	Zr	1.399066	0.891772	-0.135270
Zr18	Zr	0.857852	1.134730	0.135341
O19	O	1.343546	1.089419	0.084871
O20	O	1.343544	1.089421	-0.299885
O21	O	1.343567	0.743961	0.084857
O22	O	0.913353	1.282539	0.299971
O23	O	0.913351	1.282541	-0.084785
O24	O	0.913374	0.937081	0.299957
O25	O	1.128442	1.282541	-0.084786
O26	O	1.128456	1.089418	0.299962
O27	O	1.128465	0.937081	0.299956
O28	O	1.128443	1.282540	0.084880
O29	O	1.513220	0.937084	-0.299892
O30	O	0.743698	1.089418	0.299964
O31	O	0.743686	1.282539	0.299972
O32	O	0.743685	1.282540	0.084882
O33	O	1.513233	0.743962	-0.084811
O34	O	1.513221	0.937083	-0.084803
O35	O	1.001836	1.070094	0.189969
O36	O	1.001828	1.183782	0.063353
O37	O	1.255076	1.070095	-0.063273
O38	O	1.255084	0.956407	0.063343
C39	C	0.789980	1.013251	0.000037
C40	C	0.675103	1.013251	0.000038
C41	C	1.128478	0.709345	0.000023
C42	C	1.128484	0.606202	0.000019
C43	C	1.288191	0.387834	-0.079442
C44	C	1.288298	0.495066	-0.079888
C45	C	1.049148	0.602879	-0.058231
C46	C	1.050161	0.495110	-0.058814
C47	C	1.046873	0.496472	0.137831
C48	C	1.049883	0.602441	0.137614
C49	C	1.466938	1.013251	0.000034
C50	C	1.581815	1.013251	0.000033
C51	C	1.128457	1.013253	-0.338442
C52	C	1.128457	1.013254	-0.453318
C53	C	1.128440	1.317157	0.000048
C54	C	1.128434	1.420300	0.000052
C55	C	1.128461	1.013249	0.338513
C56	C	1.128461	1.013248	0.453389
C57	C	0.789961	1.317157	0.000050
C58	C	0.675078	1.420300	0.000055
C59	C	0.789982	1.013249	0.338515
C60	C	0.675105	1.013248	0.453392
C61	C	0.789963	1.317155	0.338527
C62	C	0.675081	1.420297	0.453408
C63	C	1.466955	0.709347	-0.338456
C64	C	1.581837	0.606205	-0.453337
C65	C	1.466957	0.709345	0.000022
C66	C	1.581840	0.606202	0.000017
C67	C	1.466936	1.013253	-0.338443
C68	C	1.581813	1.013254	-0.453320
C69	C	0.527643	1.468737	0.093533
C70	C	0.419683	1.565641	0.093542
C71	C	0.459161	1.614111	0.000076
C72	C	0.606612	1.565665	-0.093412
C73	C	0.714569	1.468758	-0.093424
C74	C	0.527645	1.468741	0.507357
C75	C	0.419684	1.565665	0.615288
C76	C	0.459162	1.614139	0.669273
C77	C	0.606611	1.565689	0.615315
C78	C	0.714569	1.468772	0.507381
C79	C	1.729273	0.557769	-0.507296
C80	C	1.837233	0.460866	-0.615250
C81	C	1.797756	0.412397	-0.669239
C82	C	1.650306	0.460842	-0.615275
C83	C	1.542348	0.557747	-0.507328
C84	C	1.542316	0.557763	0.093499
C85	C	1.650246	0.460859	0.093520
C86	C	1.797699	0.412391	0.000053
C87	C	1.837223	0.460839	-0.093434
C88	C	1.729294	0.557746	-0.093449
H89	H	1.350862	0.493305	-0.041120
Br90	Br	1.342210	0.623519	0.220362
Br91	Br	2.037346	0.395044	-0.220277
H92	H	1.618182	0.421363	-0.659249
Br93	Br	1.944157	0.280873	0.000092
H94	H	0.299632	1.605095	0.659211
H95	H	1.957286	0.421434	-0.659170
H96	H	0.495470	1.429286	0.169648
H97	H	0.638734	1.605171	0.659285
H98	H	0.371241	1.693016	0.000099
H99	H	0.371241	1.693054	0.757161
Br100	Br	1.944290	0.280881	-0.815741
H101	H	0.932951	0.521763	-0.004658
H102	H	0.834616	1.429332	0.463468
Br103	Br	1.782889	0.623527	-0.434050
H104	H	0.834616	1.429331	-0.169544
Br105	Br	1.342257	0.623465	-0.434106
Br106	Br	1.596574	0.395129	0.220404
Br107	Br	1.782961	0.623467	-0.220337
Br108	Br	1.144144	0.411190	-0.227798
Br109	Br	1.392706	0.297898	-0.014654
Br110	Br	0.850715	0.542230	0.237011
Br111	Br	1.392709	0.490985	-0.249289
Br112	Br	1.392194	0.296191	-0.247822
H113	H	0.931641	0.681146	-0.003119
Br114	Br	1.146271	0.601606	0.210163
H115	H	1.104252	0.605015	-0.158656
Br116	Br	0.219586	1.631371	0.220430
H117	H	0.495474	1.429287	0.463417
H118	H	1.097990	0.446448	0.186493
H119	H	0.933289	0.681600	0.201827
H120	H	0.638736	1.605143	-0.169509
