data_functionalizedCrystal
_audit_creation_method	'MofGen! by Chris Wilmer'
_symmetry_space_group_name_H-M	'P1'
_symmetry_Int_Tables_number	1
_symmetry_cell_setting	triclinic
loop_
_symmetry_equiv_pos_as_xyz
  x,y,z
_cell_length_a	23.532407
_cell_length_b	23.532407
_cell_length_c	22.010155
_cell_angle_alpha	89.991245
_cell_angle_beta	89.989184
_cell_angle_gamma	82.848678
loop_
_atom_site_label
_atom_site_type_symbol
_atom_site_fract_x
_atom_site_fract_y
_atom_site_fract_z
O1	O	0.755269	0.069133	-0.050455
O2	O	1.255269	0.569133	0.449545
O3	O	0.589406	0.079136	-0.050474
O4	O	1.089406	0.579136	0.449526
O5	O	0.677339	-0.008797	-0.050453
O6	O	1.177339	0.491203	0.449547
O7	O	0.667336	0.157066	-0.050476
O8	O	1.167336	0.657066	0.449524
O9	O	0.677312	-0.008796	0.050597
O10	O	1.177312	0.491204	0.550597
O11	O	0.589379	0.079137	0.050576
O12	O	1.089379	0.579137	0.550576
O13	O	0.755242	0.069134	0.050595
O14	O	1.255242	0.569134	0.550595
Cu15	Cu	0.672308	0.074136	0.059812
Cu16	Cu	1.172308	0.574136	0.559812
Cu17	Cu	0.672340	0.074135	-0.059691
Cu18	Cu	1.172340	0.574135	0.440309
O19	O	0.667309	0.157067	0.050574
O20	O	1.167309	0.657067	0.550574
C21	C	0.568176	0.078882	0.000049
C22	C	1.068176	0.578882	0.500049
C23	C	0.504959	0.078116	0.000042
C24	C	1.004959	0.578116	0.500042
C25	C	0.677071	-0.030013	0.000074
C26	C	1.177071	0.469987	0.500074
C27	C	0.676305	-0.093230	0.000078
C28	C	1.176305	0.406770	0.500078
C29	C	0.105856	0.125350	0.000063
C30	C	0.605856	0.625350	0.500063
C31	C	0.046456	0.124638	0.000067
C32	C	0.546456	0.624638	0.500067
O33	O	0.009711	0.168424	0.000083
O34	O	0.509711	0.668424	0.500083
N35	N	0.023830	0.072362	0.000073
N36	N	0.523830	0.572362	0.500073
C37	C	0.060607	0.020794	0.000082
C38	C	0.560607	0.520794	0.500082
O39	O	0.035908	-0.023737	0.000088
O40	O	0.535908	0.476263	0.500088
C41	C	0.120006	0.021506	0.000082
C42	C	0.620006	0.521506	0.500082
C43	C	0.142629	0.073785	0.000070
C44	C	0.642629	0.573785	0.500070
C45	C	0.128479	0.177625	0.000051
C46	C	0.628479	0.677625	0.500051
C47	C	0.187876	0.178336	0.000046
C48	C	0.687876	0.678336	0.500046
C49	C	0.224649	0.126772	0.000053
C50	C	0.724649	0.626772	0.500053
C51	C	0.202025	0.074497	0.000065
C52	C	0.702025	0.574497	0.500065
C53	C	0.156783	-0.030062	0.000096
C54	C	0.656783	0.469938	0.500096
C55	C	0.216185	-0.029345	0.000097
C56	C	0.716185	0.470655	0.500097
C57	C	0.238808	0.022934	0.000084
C58	C	0.738808	0.522934	0.500084
C59	C	0.298194	0.023643	0.000067
C60	C	0.798194	0.523643	0.500067
N61	N	0.320820	0.075920	0.000061
N62	N	0.820820	0.575920	0.500061
C63	C	0.284048	0.127484	0.000054
C64	C	0.784048	0.627484	0.500054
C65	C	-0.064135	0.019302	0.000082
C66	C	0.435865	0.519302	0.500082
C67	C	-0.123533	0.018589	0.000077
C68	C	0.376467	0.518589	0.500077
C69	C	-0.137680	0.122434	0.000063
C70	C	0.362320	0.622434	0.500063
C71	C	-0.078281	0.123146	0.000064
C72	C	0.421719	0.623146	0.500064
C73	C	-0.041509	0.071578	0.000076
C74	C	0.458491	0.571578	0.500076
C75	C	0.408784	0.128974	0.000043
C76	C	0.908784	0.628974	0.500043
C77	C	0.468186	0.129680	0.000035
C78	C	0.968186	0.629680	0.500035
C79	C	0.482329	0.025836	0.000052
C80	C	0.982329	0.525836	0.500052
C81	C	0.422932	0.025129	0.000057
C82	C	0.922932	0.525129	0.500057
C83	C	0.386160	0.076702	0.000054
C84	C	0.886160	0.576702	0.500054
O85	O	0.334974	-0.020119	0.000054
O86	O	0.834974	0.479881	0.500054
O87	O	0.308755	0.172007	0.000055
O88	O	0.808755	0.672007	0.500055
C89	C	0.723539	-0.492333	0.000050
C90	C	1.223539	0.007667	0.500050
C91	C	0.722827	-0.551733	0.000046
C92	C	1.222827	-0.051733	0.500046
O93	O	0.766613	-0.588478	0.000028
O94	O	1.266613	-0.088478	0.500028
N95	N	0.670551	-0.574359	0.000040
N96	N	1.170551	-0.074359	0.500040
C97	C	0.618983	-0.537582	0.000033
C98	C	1.118983	-0.037582	0.500033
O99	O	0.574452	-0.562281	0.000027
O100	O	1.074452	-0.062281	0.500027
C101	C	0.619695	-0.478182	0.000033
C102	C	1.119695	0.021818	0.500033
C103	C	0.671974	-0.455560	0.000045
C104	C	1.171974	0.044440	0.500045
C105	C	0.775814	-0.469710	0.000061
C106	C	1.275814	0.030290	0.500061
C107	C	0.776525	-0.410313	0.000067
C108	C	1.276525	0.089687	0.500067
C109	C	0.724961	-0.373540	0.000062
C110	C	1.224961	0.126460	0.500062
C111	C	0.672685	-0.396164	0.000051
C112	C	1.172685	0.103836	0.500051
C113	C	0.568127	-0.441406	0.000022
C114	C	1.068127	0.058594	0.500022
C115	C	0.568844	-0.382004	0.000022
C116	C	1.068844	0.117996	0.500022
C117	C	0.621123	-0.359381	0.000034
C118	C	1.121123	0.140619	0.500034
C119	C	0.621832	-0.299995	0.000052
C120	C	1.121832	0.200005	0.500052
N121	N	0.674109	-0.277368	0.000057
N122	N	1.174109	0.222632	0.500057
C123	C	0.725673	-0.314141	0.000062
C124	C	1.225673	0.185859	0.500062
C125	C	0.617491	-0.662324	0.000031
C126	C	1.117491	-0.162324	0.500031
C127	C	0.616778	-0.721722	0.000035
C128	C	1.116778	-0.221722	0.500035
C129	C	0.720623	-0.735869	0.000047
C130	C	1.220623	-0.235869	0.500047
C131	C	0.721335	-0.676470	0.000047
C132	C	1.221335	-0.176470	0.500047
C133	C	0.669767	-0.639698	0.000037
C134	C	1.169767	-0.139698	0.500037
C135	C	0.727163	-0.189405	0.000075
C136	C	1.227163	0.310595	0.500075
C137	C	0.727869	-0.130003	0.000083
C138	C	1.227869	0.369997	0.500083
C139	C	0.624025	-0.115860	0.000069
C140	C	1.124025	0.384140	0.500069
C141	C	0.623318	-0.175257	0.000064
C142	C	1.123318	0.324743	0.500064
C143	C	0.674891	-0.212029	0.000065
C144	C	1.174891	0.287971	0.500065
O145	O	0.578070	-0.263215	0.000067
O146	O	1.078070	0.236785	0.500067
O147	O	0.770196	-0.289433	0.000060
O148	O	1.270196	0.210567	0.500060
C149	C	0.776472	0.069388	0.000071
C150	C	1.276472	0.569388	0.500071
C151	C	0.839689	0.070154	0.000073
C152	C	1.339689	0.570154	0.500073
C153	C	0.667577	0.178283	0.000046
C154	C	1.167577	0.678283	0.500046
C155	C	0.668343	0.241500	0.000037
C156	C	1.168343	0.741500	0.500037
N157	N	0.672289	0.074136	0.143865
N158	N	1.172289	0.574136	0.643865
C159	C	0.706680	0.108500	0.563643
C160	C	1.206680	0.608500	1.063643
C161	C	0.706687	0.108499	0.627251
C162	C	1.206687	0.608499	1.127251
O163	O	0.735909	0.137711	0.660141
O164	O	1.235909	0.637711	1.160141
N165	N	0.672345	0.074134	0.659072
N166	N	1.172345	0.574134	1.159072
C167	C	0.638000	0.039763	0.627282
C168	C	1.138000	0.539763	1.127282
O169	O	0.608791	0.010532	0.660189
O170	O	1.108791	0.510532	1.160189
C171	C	0.637997	0.039761	0.563676
C172	C	1.137997	0.539761	1.063676
C173	C	0.672336	0.074133	0.531858
C174	C	1.172336	0.574133	1.031858
C175	C	0.741017	0.142869	0.531825
C176	C	1.241017	0.642869	1.031825
C177	C	0.741010	0.142870	0.468222
C178	C	1.241010	0.642870	0.968222
C179	C	0.706666	0.108503	0.436437
C180	C	1.206666	0.608503	0.936437
C181	C	0.672329	0.074135	0.468255
C182	C	1.172329	0.574135	0.968255
C183	C	0.603655	0.005388	0.531887
C184	C	1.103655	0.505388	1.031887
C185	C	0.603656	0.005388	0.468276
C186	C	1.103656	0.505388	0.968276
C187	C	0.637995	0.039760	0.436458
C188	C	1.137995	0.539760	0.936458
C189	C	0.637978	0.039769	0.372866
C190	C	1.137978	0.539769	0.872866
N191	N	0.672319	0.074135	0.341045
N192	N	1.172319	0.574135	0.841045
C193	C	0.706663	0.108502	0.372830
C194	C	1.206663	0.608502	0.872830
C195	C	0.638009	0.039769	0.760860
C196	C	1.138009	0.539769	1.260860
C197	C	0.638008	0.039773	0.824465
C198	C	1.138008	0.539773	1.324465
C199	C	0.706696	0.108509	0.824429
C200	C	1.206696	0.608509	1.324429
C201	C	0.706693	0.108507	0.760823
C202	C	1.206693	0.608507	1.260823
C203	C	0.672350	0.074134	0.729039
C204	C	1.172350	0.574134	1.229039
C205	C	0.706645	0.108503	0.239259
C206	C	1.206645	0.608503	0.739259
C207	C	0.706634	0.108503	0.175650
C208	C	1.206634	0.608503	0.675650
C209	C	0.637948	0.039765	0.175691
C210	C	1.137948	0.539765	0.675691
C211	C	0.637958	0.039767	0.239295
C212	C	1.137958	0.539767	0.739295
C213	C	0.672311	0.074137	0.271077
C214	C	1.172311	0.574137	0.771077
O215	O	0.608772	0.010571	0.339935
O216	O	1.108772	0.510571	0.839935
O217	O	0.735873	0.137722	0.339916
O218	O	1.235873	0.637722	0.839916
N219	N	0.672355	0.074138	0.856256
N220	N	1.172355	0.574138	1.356256
H221	H	0.486602	0.172255	0.000025
H222	H	0.986602	0.672255	0.500025
H223	H	0.582043	-0.085909	0.000067
H224	H	1.082043	0.414091	0.500067
H225	H	0.734596	0.136495	0.149747
H226	H	1.234596	0.636495	0.649747
H227	H	0.206289	0.220908	0.000036
H228	H	0.706289	0.720908	0.500036
H229	H	0.609985	0.011786	0.149800
H230	H	1.109985	0.511786	0.649800
H231	H	-0.059867	0.165717	0.000057
H232	H	0.440133	0.665717	0.500057
H233	H	0.404512	-0.017441	0.000058
H234	H	0.904512	0.482559	0.500058
H235	H	0.512280	-0.016146	0.000056
H236	H	1.012280	0.483854	0.500056
H237	H	0.770443	-0.111587	0.000094
H238	H	1.270443	0.388413	0.500094
H239	H	0.610037	0.011780	0.734985
H240	H	1.110037	0.511780	1.234985
H241	H	0.734619	0.136490	0.265129
H242	H	1.234619	0.636490	0.765129
H243	H	0.769159	-0.219337	0.000073
H244	H	1.269159	0.280663	0.500073
H245	H	0.768987	0.170855	0.557698
H246	H	1.268987	0.670855	1.057698
H247	H	0.138375	-0.072634	0.000106
H248	H	0.638375	0.427366	0.500106
H249	H	0.819097	-0.391900	0.000074
H250	H	1.319097	0.108100	0.500074
H251	H	0.817806	-0.499645	0.000063
H252	H	1.317806	0.000355	0.500063
H253	H	0.246123	-0.071339	0.000107
H254	H	0.746123	0.428661	0.500107
H255	H	0.768975	0.170857	0.442322
H256	H	1.268975	0.670857	0.942322
H257	H	0.575689	-0.022603	0.442401
H258	H	1.075689	0.477397	0.942401
H259	H	0.378851	0.170970	0.000042
H260	H	0.878851	0.670970	0.500042
H261	H	0.580748	-0.193677	0.000071
H262	H	1.080748	0.306323	0.500071
H263	H	0.763906	-0.658056	0.000056
H264	H	1.263906	-0.158056	0.500056
H265	H	0.098544	0.219617	0.000048
H266	H	0.598544	0.719617	0.500048
H267	H	0.762610	-0.765821	0.000048
H268	H	1.262610	-0.265821	0.500048
H269	H	-0.167632	0.164421	0.000060
H270	H	0.332368	0.664421	0.500060
H271	H	0.575693	-0.022603	0.557782
H272	H	1.075693	0.477397	1.057782
H273	H	0.574207	-0.740136	0.000036
H274	H	1.074207	-0.240136	0.500036
H275	H	0.610039	0.011791	0.850366
H276	H	1.110039	0.511791	1.350366
H277	H	-0.141947	-0.023982	0.000078
H278	H	0.358053	0.476018	0.500078
H279	H	0.609989	0.011786	0.265202
H280	H	1.109989	0.511786	0.765202
H281	H	0.734660	0.136493	0.850321
H282	H	1.234660	0.636493	1.350321
H283	H	0.575496	-0.632386	0.000028
H284	H	1.075496	-0.132386	0.500028
H285	H	-0.034198	-0.022693	0.000086
H286	H	0.465802	0.477307	0.500086
H287	H	0.525555	-0.459814	0.000009
H288	H	1.025555	0.040186	0.500009
H289	H	0.526850	-0.352066	0.000013
H290	H	1.026850	0.147934	0.500013
H291	H	0.734655	0.136496	0.734921
H292	H	1.234655	0.636496	1.234921
