data_functionalizedCrystal
_audit_creation_method	'MofGen! by Chris Wilmer'
_symmetry_space_group_name_H-M	'P1'
_symmetry_Int_Tables_number	1
_symmetry_cell_setting	triclinic
loop_
_symmetry_equiv_pos_as_xyz
  x,y,z
_cell_length_a	12.784905
_cell_length_b	12.837942
_cell_length_c	7.088929
_cell_angle_alpha	96.883014
_cell_angle_beta	84.455072
_cell_angle_gamma	83.968130
loop_
_atom_site_label
_atom_site_type_symbol
_atom_site_fract_x
_atom_site_fract_y
_atom_site_fract_z
O1	O	1.401223	0.017971	0.158999
O2	O	1.901223	0.517971	0.658999
O3	O	1.096224	0.061964	0.159001
O4	O	1.596224	0.561964	0.659001
O5	O	1.241961	-0.110327	0.158988
O6	O	1.741961	0.389673	0.658988
O7	O	1.255486	0.190261	0.159012
O8	O	1.755486	0.690261	0.659012
O9	O	1.261433	-0.133399	-0.158989
O10	O	1.761433	0.366601	0.341011
O11	O	1.115695	0.038891	-0.158976
O12	O	1.615695	0.538891	0.341024
O13	O	1.420695	-0.005101	-0.158977
O14	O	1.920695	0.494899	0.341023
Cu15	Cu	1.269973	0.014788	-0.188011
Cu16	Cu	1.769973	0.514788	0.311989
Cu17	Cu	1.246946	0.042074	0.188034
Cu18	Cu	1.746946	0.542074	0.688034
O19	O	1.274957	0.167189	-0.158965
O20	O	1.774957	0.667189	0.341035
C21	C	1.066650	0.053288	0.000012
C22	C	1.566650	0.553288	0.500012
C23	C	0.949518	0.061802	0.000012
C24	C	1.449518	0.561802	0.500012
C25	C	0.735566	-0.111640	0.000033
C26	C	1.235566	0.388360	0.500033
C27	C	0.625511	-0.103646	0.000033
C28	C	1.125511	0.396354	0.500033
C29	C	0.619350	0.085783	0.000027
C30	C	1.119350	0.585783	0.500027
C31	C	0.729405	0.077789	0.000027
C32	C	1.229405	0.577789	0.500027
C33	C	0.787510	-0.020926	0.000027
C34	C	1.287510	0.479074	0.500027
C35	C	0.897568	-0.028920	0.000013
C36	C	1.397568	0.471080	0.500013
C37	C	0.891404	0.160509	0.000020
C38	C	1.391404	0.660509	0.500020
C39	C	0.781348	0.168503	0.000021
C40	C	1.281348	0.668503	0.500021
C41	C	1.247128	-0.160072	0.000001
C42	C	1.747128	0.339928	0.500001
C43	C	1.233499	-0.273920	0.000004
C44	C	1.733499	0.226080	0.500004
C45	C	1.397329	-0.529643	0.000043
C46	C	1.897329	-0.029643	0.500043
C47	C	1.384529	-0.636615	0.000047
C48	C	1.884529	-0.136615	0.500047
C49	C	1.195100	-0.594837	0.000027
C50	C	1.695100	-0.094837	0.500027
C51	C	1.207900	-0.487865	0.000024
C52	C	1.707900	0.012135	0.500024
C53	C	1.309018	-0.455273	0.000029
C54	C	1.809018	0.044727	0.500029
C55	C	1.321817	-0.348300	0.000012
C56	C	1.821817	0.151700	0.500012
C57	C	1.132389	-0.306523	0.000007
C58	C	1.632389	0.193477	0.500007
C59	C	1.119589	-0.413495	0.000010
C60	C	1.619589	0.086505	0.500010
C61	C	1.450268	0.003574	0.000015
C62	C	1.950268	0.503574	0.500015
C63	C	1.567399	-0.004938	0.000027
C64	C	2.067399	0.495062	0.500027
C65	C	1.269791	0.216934	0.000026
C66	C	1.769791	0.716934	0.500026
C67	C	1.283418	0.330783	0.000036
C68	C	1.783418	0.830783	0.500036
N69	N	1.286177	-0.004405	-0.452500
N70	N	1.786177	0.495595	0.047500
N71	N	1.230749	0.061258	0.452523
N72	N	1.730749	0.561258	0.952523
H73	H	0.944875	-0.109299	0.000010
H74	H	1.444875	0.390701	0.500010
Br75	Br	1.381946	-0.117815	-0.588593
Br76	Br	1.881946	0.382185	-0.088593
Br77	Br	1.504384	-0.737544	0.000079
Br78	Br	2.004384	-0.237544	0.500079
Br79	Br	1.012532	-0.205587	-0.000046
Br80	Br	1.512532	0.294413	0.499954
H81	H	1.112773	-0.621392	0.000044
H82	H	1.612773	-0.121392	0.500044
Br83	Br	1.135003	0.174678	-0.411390
Br84	Br	1.635003	0.674678	0.088610
H85	H	0.782877	-0.192018	0.000020
H86	H	1.282877	0.307982	0.500020
H87	H	0.583223	-0.177514	0.000042
H88	H	1.083223	0.322486	0.500042
H89	H	1.037261	-0.440046	0.000013
H90	H	1.537261	0.059954	0.500013
H91	H	0.572020	0.166154	0.000052
H92	H	1.072020	0.666154	0.500052
H93	H	0.933708	0.234375	0.000005
H94	H	1.433708	0.734375	0.500005
Br95	Br	0.702482	0.302468	0.000039
Br96	Br	1.202482	0.802468	0.500039
Br97	Br	1.459047	-0.304069	-0.000001
Br98	Br	1.959047	0.195931	0.499999
H99	H	1.479664	-0.503108	0.000029
H100	H	1.979664	-0.003108	0.500029
