data_functionalizedCrystal
_audit_creation_method	'MofGen! by Chris Wilmer'
_symmetry_space_group_name_H-M	'P1'
_symmetry_Int_Tables_number	1
_symmetry_cell_setting	triclinic
loop_
_symmetry_equiv_pos_as_xyz
  x,y,z
_cell_length_a	16.992694
_cell_length_b	23.532407
_cell_length_c	15.455313
_cell_angle_alpha	92.643560
_cell_angle_beta	87.142206
_cell_angle_gamma	86.758451
loop_
_atom_site_label
_atom_site_type_symbol
_atom_site_fract_x
_atom_site_fract_y
_atom_site_fract_z
O1	O	1.042902	0.118384	-0.072037
O2	O	1.542902	0.618384	0.427963
O3	O	0.814628	0.117059	-0.072062
O4	O	1.314628	0.617059	0.427938
O5	O	0.935648	0.035132	-0.072033
O6	O	1.435648	0.535132	0.427967
O7	O	0.921882	0.200311	-0.072066
O8	O	1.421882	0.700311	0.427934
O9	O	0.928727	0.039796	0.072228
O10	O	1.428727	0.539796	0.572228
O11	O	0.807707	0.121723	0.072198
O12	O	1.307707	0.621723	0.572198
O13	O	1.035981	0.123049	0.072224
O14	O	1.535981	0.623049	0.572224
Cu15	Cu	0.921212	0.122812	0.085383
Cu16	Cu	1.421212	0.622812	0.585383
Cu17	Cu	0.929397	0.117296	-0.085222
Cu18	Cu	1.429397	0.617296	0.414778
O19	O	0.914962	0.204976	0.072194
O20	O	1.414962	0.704976	0.572194
C21	C	0.781968	0.117688	0.000065
C22	C	1.281968	0.617688	0.500065
C23	C	0.694964	0.112604	0.000056
C24	C	1.194964	0.612604	0.500056
C25	C	0.931837	0.016231	0.000100
C26	C	1.431837	0.516231	0.500100
C27	C	0.930782	-0.047038	0.000106
C28	C	1.430782	0.452962	0.500106
C29	C	0.644342	0.161650	0.000047
C30	C	1.144342	0.661650	0.500047
C31	C	0.562592	0.156871	0.000060
C32	C	1.062592	0.656871	0.500060
C33	C	0.531466	0.103045	0.000076
C34	C	1.031466	0.603045	0.500076
C35	C	0.582095	0.053995	0.000088
C36	C	1.082095	0.553995	0.500088
C37	C	0.663843	0.058775	0.000081
C38	C	1.163843	0.558775	0.500081
C39	C	0.288022	0.083234	0.000103
C40	C	0.788022	0.583234	0.500103
C41	C	0.206267	0.078457	0.000107
C42	C	0.706267	0.578457	0.500107
C43	C	0.186770	0.181334	0.000081
C44	C	0.686770	0.681334	0.500081
C45	C	0.268521	0.186109	0.000069
C46	C	0.768521	0.686109	0.500069
C47	C	0.319142	0.137059	0.000085
C48	C	0.819142	0.637059	0.500085
N49	N	0.447905	0.098158	0.000086
N50	N	0.947905	0.598158	0.500086
N51	N	0.402701	0.141946	0.000081
N52	N	0.902701	0.641946	0.500081
C53	C	0.995791	-0.442917	0.000066
C54	C	1.495791	0.057083	0.500066
C55	C	0.994812	-0.502366	0.000059
C56	C	1.494812	-0.002366	0.500059
O57	O	1.055075	-0.536121	0.000034
O58	O	1.555075	-0.036121	0.500034
N59	N	0.922865	-0.528562	0.000052
N60	N	1.422865	-0.028562	0.500052
C61	C	0.851893	-0.495307	0.000042
C62	C	1.351893	0.004693	0.500042
O63	O	0.790607	-0.523048	0.000035
O64	O	1.290607	-0.023048	0.500035
C65	C	0.852873	-0.435859	0.000043
C66	C	1.352873	0.064141	0.500043
C67	C	0.924824	-0.409666	0.000059
C68	C	1.424824	0.090334	0.500059
C69	C	1.067736	-0.416723	0.000081
C70	C	1.567736	0.083277	0.500081
C71	C	1.068714	-0.357278	0.000089
C72	C	1.568714	0.142722	0.500089
C73	C	0.997748	-0.324027	0.000083
C74	C	1.497748	0.175973	0.500083
C75	C	0.925803	-0.350221	0.000067
C76	C	1.425803	0.149779	0.500067
C77	C	0.781902	-0.402605	0.000027
C78	C	1.281902	0.097395	0.500027
C79	C	0.782889	-0.343154	0.000027
C80	C	1.282889	0.156846	0.500027
C81	C	0.854839	-0.316960	0.000043
C82	C	1.354839	0.183040	0.500043
C83	C	0.855814	-0.257525	0.000069
C84	C	1.355814	0.242475	0.500069
N85	N	0.927761	-0.231328	0.000076
N86	N	1.427761	0.268672	0.500076
C87	C	0.998728	-0.264579	0.000083
C88	C	1.498728	0.235421	0.500083
C89	C	0.849841	-0.620151	0.000040
C90	C	1.349841	-0.120151	0.500040
C91	C	0.848860	-0.679598	0.000046
C92	C	1.348860	-0.179598	0.500046
C93	C	0.991779	-0.686653	0.000061
C94	C	1.491779	-0.186653	0.500061
C95	C	0.992759	-0.627205	0.000061
C96	C	1.492759	-0.127205	0.500061
C97	C	0.921788	-0.593955	0.000047
C98	C	1.421788	-0.093955	0.500047
C99	C	1.000777	-0.139740	0.000101
C100	C	1.500777	0.360260	0.500101
C101	C	1.001749	-0.080289	0.000113
C102	C	1.501749	0.419711	0.500113
C103	C	0.858831	-0.073240	0.000093
C104	C	1.358831	0.426760	0.500093
C105	C	0.857858	-0.132685	0.000086
C106	C	1.357858	0.367315	0.500086
C107	C	0.928838	-0.165934	0.000087
C108	C	1.428838	0.334066	0.500087
O109	O	0.795583	-0.223733	0.000090
O110	O	1.295583	0.276267	0.500090
O111	O	1.060004	-0.236831	0.000079
O112	O	1.560004	0.263169	0.500079
C113	C	1.068641	0.122420	0.000095
C114	C	1.568641	0.622420	0.500095
C115	C	1.155645	0.127504	0.000098
C116	C	1.655645	0.627504	0.500098
C117	C	0.918772	0.223877	0.000060
C118	C	1.418772	0.723877	0.500060
C119	C	0.919827	0.287146	0.000048
C120	C	1.419827	0.787146	0.500048
N121	N	0.915462	0.126692	0.205377
N122	N	1.415462	0.626692	0.705377
N123	N	0.935153	0.113412	-0.205216
N124	N	1.435153	0.613412	0.294784
C125	C	0.966893	0.091901	0.250784
C126	C	1.466893	0.591901	0.750784
C127	C	0.962551	0.094840	0.341591
C128	C	1.462551	0.594840	0.841591
C129	C	0.906782	0.132574	0.386989
C130	C	1.406782	0.632574	0.886989
C131	C	0.855345	0.167366	0.341576
C132	C	1.355345	0.667366	0.841576
C133	C	0.859684	0.164424	0.250771
C134	C	1.359684	0.664424	0.750771
C135	C	0.888055	0.145261	0.658566
C136	C	1.388055	0.645261	1.158566
C137	C	0.883722	0.148203	0.749378
C138	C	1.383722	0.648203	1.249378
C139	C	0.990928	0.075676	0.749386
C140	C	1.490928	0.575676	1.249386
C141	C	0.995265	0.072738	0.658579
C142	C	1.495265	0.572738	1.158579
C143	C	0.943825	0.107529	0.613174
C144	C	1.443825	0.607529	1.113174
N145	N	0.902344	0.135581	0.479808
N146	N	1.402344	0.635581	0.979808
N147	N	0.948260	0.104518	0.520356
N148	N	1.448260	0.604518	1.020356
H149	H	0.521379	0.196809	0.000051
H150	H	1.021379	0.696809	0.500051
N151	N	0.807161	0.199972	0.204387
N152	N	1.307161	0.699972	0.704387
N153	N	0.834173	0.234811	0.153700
N154	N	1.334173	0.734811	0.653700
H155	H	0.797077	0.259917	0.120941
H156	H	1.297077	0.759917	0.620941
H157	H	1.058576	-0.166805	0.000099
H158	H	1.558576	0.333195	0.500099
N159	N	0.835530	0.180813	0.612198
N160	N	1.335530	0.680813	1.112198
N161	N	0.862543	0.215655	0.561517
N162	N	1.362543	0.715655	1.061517
H163	H	0.825446	0.240768	0.528768
H164	H	1.325446	0.740768	1.028768
N165	N	1.015080	0.059282	0.387949
N166	N	1.515080	0.559282	0.887949
N167	N	1.014889	0.006285	0.377794
N168	N	1.514889	0.506285	0.877794
H169	H	1.051989	-0.018837	0.410526
H170	H	1.551989	0.481163	0.910526
H171	H	0.838305	0.178933	0.786337
H172	H	1.338305	0.678933	1.286337
N173	N	0.339731	0.033137	0.000122
N174	N	0.839731	0.533137	0.500122
N175	N	0.384611	0.026291	0.060932
N176	N	0.884611	0.526291	0.560932
H177	H	0.421135	-0.009092	0.060946
H178	H	0.921135	0.490908	0.560946
H179	H	0.145546	0.221267	0.000069
H180	H	0.645546	0.721267	0.500069
N181	N	1.052370	0.034294	0.612222
N182	N	1.552370	0.534294	1.112222
N183	N	1.098375	0.003301	0.652775
N184	N	1.598375	0.503301	1.152775
H185	H	1.138758	-0.023811	0.620036
H186	H	1.638758	0.476189	1.120036
H187	H	0.725094	-0.316084	0.000014
H188	H	1.225094	0.183916	0.500014
N189	N	0.708398	-0.429342	0.000009
N190	N	1.208398	0.070658	0.500009
N191	N	0.645048	-0.399636	-0.000007
N192	N	1.145048	0.100364	0.499993
H193	H	0.593131	-0.418517	-0.000023
H194	H	1.093131	0.081483	0.499977
H195	H	1.032806	0.047350	0.786363
H196	H	1.532806	0.547350	1.286363
H197	H	1.012310	0.061176	0.213826
H198	H	1.512310	0.561176	0.713826
N199	N	0.300331	0.241085	0.000052
N200	N	0.800331	0.741085	0.500052
N201	N	0.346684	0.253258	-0.060763
N202	N	0.846684	0.753258	0.439237
H203	H	0.369153	0.292085	-0.060777
H204	H	0.869153	0.792085	0.439223
N205	N	0.550290	-0.000983	0.000113
N206	N	1.050290	0.499017	0.500113
N207	N	0.477300	-0.005244	0.000118
N208	N	0.977300	0.494756	0.500118
H209	H	0.454838	-0.044074	0.000134
H210	H	0.954838	0.455926	0.500134
N211	N	0.784356	-0.159435	0.000096
N212	N	1.284356	0.340565	0.500096
N213	N	0.720998	-0.129736	0.000103
N214	N	1.220998	0.370264	0.500103
H215	H	0.669085	-0.148624	0.000108
H216	H	1.169085	0.351376	0.500108
N217	N	0.798376	0.205903	0.387960
N218	N	1.298376	0.705903	0.887960
N219	N	0.794509	0.208527	0.469035
N220	N	1.294509	0.708527	0.969035
H221	H	0.754274	0.235745	0.501794
H222	H	1.254274	0.735745	1.001794
H223	H	0.801051	-0.046156	0.000091
H224	H	1.301051	0.453844	0.500091
H225	H	0.705059	0.018836	0.000088
H226	H	1.205059	0.518836	0.500088
N227	N	0.676120	0.216637	0.000023
N228	N	1.176120	0.716637	0.500023
N229	N	0.630909	0.260423	0.000016
N230	N	1.130909	0.760423	0.500016
H231	H	0.653349	0.299260	0.000001
H232	H	1.153349	0.799260	0.500001
N233	N	0.777338	-0.586189	0.000057
N234	N	1.277338	-0.086189	0.500057
N235	N	0.759020	-0.550273	0.060871
N236	N	1.259020	-0.050273	0.560871
H237	H	0.707814	-0.526289	0.060884
H238	H	1.207814	-0.026289	0.560884
H239	H	1.060342	-0.058966	0.000129
H240	H	1.560342	0.441034	0.500129
H241	H	0.180928	0.034624	0.000119
H242	H	0.680928	0.534624	0.500119
N243	N	1.142218	-0.330536	0.000103
N244	N	1.642218	0.169464	0.500103
N245	N	1.205570	-0.360241	0.000105
N246	N	1.705570	0.139759	0.500105
H247	H	1.257487	-0.341358	0.000111
H248	H	1.757487	0.158642	0.500111
H249	H	1.125529	-0.443790	0.000084
H250	H	1.625529	0.056210	0.500084
N251	N	1.066261	-0.600461	0.000082
N252	N	1.566261	-0.100461	0.500082
N253	N	1.129614	-0.630163	0.000095
N254	N	1.629614	-0.130163	0.500095
H255	H	1.181529	-0.611278	0.000109
H256	H	1.681529	-0.111278	0.500109
N257	N	1.064280	-0.720615	0.000069
N258	N	1.564280	-0.220615	0.500069
N259	N	1.109323	-0.714382	0.060882
N260	N	1.609323	-0.214382	0.560882
H261	H	1.160525	-0.738368	0.060889
H262	H	1.660525	-0.238368	0.560889
N263	N	0.775363	-0.706350	0.000058
N264	N	1.275363	-0.206350	0.500058
N265	N	0.724713	-0.695386	0.060866
N266	N	1.224713	-0.195386	0.560866
H267	H	0.672803	-0.714277	0.060873
H268	H	1.172803	-0.214277	0.560873
