data_functionalizedCrystal
_audit_creation_method	'MofGen! by Chris Wilmer'
_symmetry_space_group_name_H-M	'P1'
_symmetry_Int_Tables_number	1
_symmetry_cell_setting	triclinic
loop_
_symmetry_equiv_pos_as_xyz
  x,y,z
_cell_length_a	11.169417
_cell_length_b	10.686285
_cell_length_c	11.169409
_cell_angle_alpha	85.599661
_cell_angle_beta	89.979436
_cell_angle_gamma	85.632710
loop_
_atom_site_label
_atom_site_type_symbol
_atom_site_fract_x
_atom_site_fract_y
_atom_site_fract_z
Zn1	Zn	1.871641	-0.502221	-0.641959
Zn2	Zn	2.371641	-0.002221	-0.141959
Zn3	Zn	1.886938	-0.713273	-0.425902
Zn4	Zn	2.386938	-0.213273	0.074098
Zn5	Zn	1.670930	-0.502297	-0.441288
Zn6	Zn	2.170930	-0.002297	0.058712
Zn7	Zn	1.686337	-0.713170	-0.626554
Zn8	Zn	2.186337	-0.213170	-0.126554
O9	O	1.778962	-0.607740	-0.533926
O10	O	2.278962	-0.107740	-0.033926
O11	O	2.041621	-0.530228	-0.613306
O12	O	2.541621	-0.030228	-0.113306
O13	O	1.858238	-0.685361	-0.259988
O14	O	2.358238	-0.185361	0.240012
O15	O	1.684705	-0.325710	-0.480793
O16	O	2.184705	0.174290	0.019207
O17	O	2.052859	-0.685287	-0.454570
O18	O	2.552859	-0.185287	0.045430
O19	O	1.832167	-0.325654	-0.628225
O20	O	2.332167	0.174346	-0.128225
O21	O	1.699538	-0.530359	-0.271291
O22	O	2.199538	-0.030359	0.228709
O23	O	1.505023	-0.530259	-0.465856
O24	O	2.005023	-0.030259	0.034144
O25	O	1.710964	-0.685112	-0.796553
O26	O	2.210964	-0.185112	-0.296553
O27	O	1.516343	-0.685187	-0.601970
O28	O	2.016343	-0.185187	-0.101970
O29	O	1.847106	-0.530128	-0.807871
O30	O	2.347106	-0.030128	-0.307871
O31	O	1.873178	-0.889836	-0.439633
O32	O	2.373178	-0.389836	0.060367
O33	O	1.725797	-0.889761	-0.587051
O34	O	2.225797	-0.389761	-0.087051
C35	C	1.467136	-0.607721	-0.533912
C36	C	1.967136	-0.107721	-0.033912
C37	C	1.333737	-0.607743	-0.533932
C38	C	1.833737	-0.107743	-0.033932
C39	C	1.802852	-0.935583	-0.510027
C40	C	2.302852	-0.435583	-0.010027
C41	C	1.813182	-1.075835	-0.499843
C42	C	2.313182	-0.575835	0.000157
C43	C	2.092005	-0.607760	-0.533940
C44	C	2.592005	-0.107760	-0.033940
C45	C	2.225406	-0.607769	-0.533947
C46	C	2.725406	-0.107769	-0.033947
C47	C	1.779048	-0.607600	-0.846978
C48	C	2.279048	-0.107600	-0.346978
C49	C	1.779084	-0.607541	-0.980383
C50	C	2.279084	-0.107541	-0.480383
C51	C	1.755011	-0.278617	-0.557944
C52	C	2.255011	0.221383	-0.057944
C53	C	1.744804	-0.138365	-0.568179
C54	C	2.244804	0.361635	-0.068179
C55	C	1.778938	-0.607788	-0.222097
C56	C	2.278938	-0.107788	0.277903
C57	C	1.779108	-0.607492	-0.088720
C58	C	2.279108	-0.107492	0.411280
H59	H	1.678362	-1.084602	-0.634477
H60	H	2.178362	-0.584602	-0.134477
N61	N	1.901202	-1.147037	-0.412011
N62	N	2.401202	-0.647037	0.087989
H63	H	1.880946	-1.124246	-0.327881
H64	H	2.380946	-0.624246	0.172119
H65	H	1.896316	-1.240475	-0.417032
H66	H	2.396316	-0.740475	0.082968
