data_functionalizedCrystal
_audit_creation_method	'MofGen! by Chris Wilmer'
_symmetry_space_group_name_H-M	'P1'
_symmetry_Int_Tables_number	1
_symmetry_cell_setting	triclinic
loop_
_symmetry_equiv_pos_as_xyz
  x,y,z
_cell_length_a	16.625545
_cell_length_b	21.295418
_cell_length_c	16.625539
_cell_angle_alpha	89.956100
_cell_angle_beta	90.028107
_cell_angle_gamma	89.956233
loop_
_atom_site_label
_atom_site_type_symbol
_atom_site_fract_x
_atom_site_fract_y
_atom_site_fract_z
Zn1	Zn	-0.320608	-0.962353	0.456413
Zn2	Zn	0.179392	-0.462353	0.956413
Zn3	Zn	-0.455451	-0.962272	0.321580
Zn4	Zn	0.044549	-0.462272	0.821580
Zn5	Zn	-0.320679	-0.857083	0.321538
Zn6	Zn	0.179321	-0.357083	0.821538
Zn7	Zn	-0.455445	-0.857055	0.456315
Zn8	Zn	0.044555	-0.357055	0.956315
O9	O	-0.388046	-0.909691	0.388962
O10	O	0.111954	-0.409691	0.888962
O11	O	-0.338468	-1.050432	0.438585
O12	O	0.161532	-0.550432	0.938585
O13	O	-0.437606	-0.948296	0.208742
O14	O	0.062394	-0.448296	0.708742
O15	O	-0.207837	-0.871094	0.339453
O16	O	0.292163	-0.371094	0.839453
O17	O	-0.437537	-1.050372	0.339524
O18	O	0.062463	-0.550372	0.839524
O19	O	-0.207785	-0.948435	0.438544
O20	O	0.292215	-0.448435	0.938544
O21	O	-0.338589	-0.871015	0.208711
O22	O	0.161411	-0.371015	0.708711
O23	O	-0.338584	-0.768990	0.339358
O24	O	0.161416	-0.268990	0.839358
O25	O	-0.437527	-0.871045	0.569161
O26	O	0.062473	-0.371045	1.069161
O27	O	-0.437596	-0.768969	0.438378
O28	O	0.062404	-0.268969	0.938378
O29	O	-0.338462	-0.948407	0.569232
O30	O	0.161538	-0.448407	1.069232
O31	O	-0.568283	-0.948268	0.339430
O32	O	-0.068283	-0.448268	0.839430
O33	O	-0.568279	-0.870966	0.438419
O34	O	-0.068279	-0.370966	0.938419
C35	C	-0.388097	-0.746139	0.388854
C36	C	0.111903	-0.246139	0.888854
C37	C	-0.388139	-0.676171	0.388827
C38	C	0.111861	-0.176171	0.888827
C39	C	-0.597537	-0.909622	0.388936
C40	C	-0.097537	-0.409622	0.888936
C41	C	-0.687158	-0.909651	0.388952
C42	C	-0.187158	-0.409651	0.888952
C43	C	-0.439764	-0.643310	0.440306
C44	C	0.060236	-0.143310	0.940306
C45	C	-0.439748	-0.577567	0.440336
C46	C	0.060252	-0.077567	0.940336
C47	C	-0.388114	-0.544688	0.388873
C48	C	0.111886	-0.044688	0.888873
C49	C	-0.336479	-0.577557	0.337389
C50	C	0.163521	-0.077557	0.837389
C51	C	-0.336491	-0.643299	0.337366
C52	C	0.163509	-0.143299	0.837366
N53	N	-0.381823	-0.441416	0.318340
N54	N	0.118177	0.058584	0.818340
N55	N	-0.381816	-0.378964	0.318364
N56	N	0.118184	0.121036	0.818364
C57	C	-0.388073	-0.346614	0.388940
C58	C	0.111927	0.153386	0.888940
N59	N	-0.394353	-0.379074	0.459492
N60	N	0.105647	0.120926	0.959492
N61	N	-0.394364	-0.441531	0.459467
N62	N	0.105636	0.058469	0.959467
C63	C	-0.388095	-0.473403	0.388892
C64	C	0.111905	0.026597	0.888892
C65	C	-0.439684	-0.242467	0.440457
C66	C	0.060316	0.257533	0.940457
C67	C	-0.439662	-0.176723	0.440488
C68	C	0.060338	0.323277	0.940488
C69	C	-0.336397	-0.176715	0.337534
C70	C	0.163603	0.323285	0.837534
C71	C	-0.336415	-0.242457	0.337509
C72	C	0.163585	0.257543	0.837509
C73	C	-0.388063	-0.275329	0.388970
C74	C	0.111937	0.224671	0.888970
C75	C	-0.759940	-0.909675	0.388968
C76	C	-0.259940	-0.409675	0.888968
C77	C	-0.851249	-0.909712	0.388986
C78	C	-0.351249	-0.409712	0.888986
C79	C	-0.924025	-0.909744	0.388996
C80	C	-0.424025	-0.409744	0.888996
C81	C	-1.015340	-0.909780	0.389013
C82	C	-0.515340	-0.409780	0.889013
C83	C	-0.177737	-0.909776	0.389005
C84	C	0.322263	-0.409776	0.889005
C85	C	-0.088116	-0.909813	0.389023
C86	C	0.411884	-0.409813	0.889023
C87	C	-0.387986	-0.909732	0.599271
C88	C	0.112014	-0.409732	1.099271
C89	C	-0.387960	-0.909749	0.688892
C90	C	0.112040	-0.409749	1.188892
C91	C	-0.388009	-0.073881	0.389047
C92	C	0.111991	0.426119	0.889047
C93	C	-0.388027	-0.143849	0.389025
C94	C	0.111973	0.356151	0.889025
C95	C	-0.388048	-0.909686	0.179471
C96	C	0.111952	-0.409686	0.679471
C97	C	-0.387846	-0.909791	0.089850
C98	C	0.112154	-0.409791	0.589850
C99	C	-0.387870	-0.909778	1.017068
C100	C	0.112130	-0.409778	1.517068
C101	C	-0.387898	-0.909768	0.925759
C102	C	0.112102	-0.409768	1.425759
C103	C	-0.387916	-0.909764	0.852983
C104	C	0.112084	-0.409764	1.352983
C105	C	-0.387942	-0.909753	0.761668
C106	C	0.112058	-0.409753	1.261668
H107	H	-0.481819	-0.670070	0.482211
H108	H	0.018181	-0.170070	0.982211
O109	O	-0.489733	-0.274474	0.490488
O110	O	0.010267	0.225526	0.990488
C111	C	-0.443898	-0.312568	0.542642
C112	C	0.056102	0.187432	1.042642
H113	H	-0.382761	-0.322436	0.514305
H114	H	0.117239	0.177564	1.014305
H115	H	-0.476764	-0.358782	0.553371
H116	H	0.023236	0.141218	1.053371
H117	H	-0.435108	-0.287289	0.602421
H118	H	0.064892	0.212711	1.102421
O119	O	-0.489699	-0.144773	0.490586
O120	O	0.010301	0.355227	0.990586
C121	C	-0.443858	-0.106812	0.542752
C122	C	0.056142	0.393188	1.042752
H123	H	-0.380365	-0.126673	0.547842
H124	H	0.119635	0.373327	1.047842
H125	H	-0.473106	-0.106098	0.604749
H126	H	0.026894	0.393902	1.104749
H127	H	-0.441036	-0.056968	0.517848
H128	H	0.058964	0.443032	1.017848
O129	O	-0.286258	-0.675251	0.287467
O130	O	0.213742	-0.175251	0.787467
C131	C	-0.234261	-0.713369	0.333448
C132	C	0.265739	-0.213369	0.833448
H133	H	-0.229355	-0.693614	0.396969
H134	H	0.270645	-0.193614	0.896969
H135	H	-0.172173	-0.714138	0.304393
H136	H	0.327827	-0.214138	0.804393
H137	H	-0.259209	-0.763176	0.336162
H138	H	0.240791	-0.263176	0.836162
H139	H	-0.294352	-0.149946	0.295634
H140	H	0.205648	0.350054	0.795634
H141	H	-0.294380	-0.269213	0.295585
H142	H	0.205620	0.230787	0.795585
O143	O	-0.489972	-0.545734	0.490375
O144	O	0.010028	-0.045734	0.990375
C145	C	-0.535539	-0.588845	0.535810
C146	C	-0.035539	-0.088845	1.035810
H147	H	-0.538304	-0.635679	0.502763
H148	H	-0.038304	-0.135679	1.002763
H149	H	-0.599072	-0.569808	0.544308
H150	H	-0.099072	-0.069808	1.044308
H151	H	-0.506089	-0.595909	0.597096
H152	H	-0.006089	-0.095909	1.097096
H153	H	-0.294437	-0.550783	0.295489
H154	H	0.205563	-0.050783	0.795489
