data_functionalizedCrystal
_audit_creation_method	'MofGen! by Chris Wilmer'
_symmetry_space_group_name_H-M	'P1'
_symmetry_Int_Tables_number	1
_symmetry_cell_setting	triclinic
loop_
_symmetry_equiv_pos_as_xyz
  x,y,z
_cell_length_a	12.594516
_cell_length_b	14.908571
_cell_length_c	14.908308
_cell_angle_alpha	90.175053
_cell_angle_beta	86.729491
_cell_angle_gamma	93.285437
loop_
_atom_site_label
_atom_site_type_symbol
_atom_site_fract_x
_atom_site_fract_y
_atom_site_fract_z
Zn1	Zn	-0.555459	-1.345312	0.587609
Zn2	Zn	-0.723814	-1.353898	0.437258
Zn3	Zn	-0.535015	-1.203627	0.428606
Zn4	Zn	-0.722549	-1.194926	0.578910
O5	O	-0.634209	-1.274441	0.508096
O6	O	-0.586876	-1.472278	0.574927
O7	O	-0.690743	-1.341199	0.310285
O8	O	-0.388785	-1.222470	0.449718
O9	O	-0.710566	-1.478585	0.464464
O10	O	-0.403806	-1.326566	0.566537
O11	O	-0.552033	-1.230795	0.303929
O12	O	-0.550806	-1.076647	0.441283
O13	O	-0.708411	-1.207640	0.705889
O14	O	-0.688587	-1.070254	0.551710
O15	O	-0.585650	-1.318129	0.712280
O16	O	-0.872587	-1.332761	0.456028
O17	O	-0.871658	-1.215965	0.560099
C18	C	-0.617342	-1.040825	0.494614
C19	C	-0.610153	-0.940881	0.488868
C20	C	-0.910744	-1.274374	0.508080
C21	C	-1.029055	-1.274426	0.508107
C22	C	-1.168607	-1.210951	0.564684
C23	C	-1.105022	-1.291650	0.591466
C24	C	-1.091072	-1.193732	0.481366
C25	C	-1.176274	-1.355311	0.534976
C26	C	-1.162324	-1.257340	0.424835
C27	C	-1.098773	-1.338098	0.451589
C28	C	-0.649170	-1.260956	0.742622
C29	C	-0.655546	-1.255210	0.842563
C30	C	-0.356597	-1.274531	0.508133
C31	C	-0.238295	-1.274570	0.508149
C32	C	-0.651143	-1.508969	0.521631
C33	C	-0.658359	-1.608911	0.527399
C34	C	-0.740317	-0.746478	0.592903
C35	C	-0.733566	-0.652572	0.587507
C36	C	-0.589896	-0.659162	0.472685
C37	C	-0.596647	-0.753068	0.478081
C38	C	-0.671861	-0.796722	0.538191
C39	C	-0.678616	-0.890630	0.543582
C40	C	-0.534942	-0.897218	0.428765
C41	C	-0.528191	-0.803313	0.423369
C42	C	-0.619233	-1.287925	0.274485
C43	C	-0.612571	-1.293845	0.174555
C44	C	-0.539670	-1.359461	1.037020
C45	C	-0.545657	-1.354064	1.130924
C46	C	-0.673500	-1.239017	1.124275
C47	C	-0.667513	-1.244413	1.030372
C48	C	-0.600597	-1.304638	0.986747
C49	C	-0.594616	-1.310038	0.892842
C50	C	-0.722453	-1.194987	0.886196
C51	C	-0.728440	-1.189590	0.980099
H52	H	-1.199291	-1.157272	0.612554
O53	O	-1.074761	-1.308820	0.675542
C54	C	-1.076025	-1.261300	0.830215
C55	C	-1.110336	-1.241747	0.735039
H56	H	-1.104792	-1.207094	0.878349
H57	H	-0.985478	-1.261677	0.829308
H58	H	-1.112471	-1.329654	0.853460
H59	H	-1.073965	-1.173392	0.711737
H60	H	-1.200889	-1.241428	0.736000
H61	H	-1.053884	-1.125429	0.458732
H62	H	-0.739861	-0.926172	0.592525
O63	O	-0.468589	-0.946126	0.375573
C64	C	-0.453936	-1.059050	0.260239
C65	C	-0.529195	-1.003738	0.320441
H66	H	-0.502905	-1.105629	0.215636
H67	H	-0.404171	-1.100721	0.304073
H68	H	-0.399002	-1.011693	0.216394
H69	H	-0.584194	-1.051029	0.364296
H70	H	-0.578886	-0.962056	0.276555
H71	H	-1.213336	-1.423629	0.557692
H72	H	-0.528654	-0.623602	0.423752
O73	O	-0.454989	-0.760940	0.365078
C74	C	-0.269031	-0.734767	0.319987
C75	C	-0.351817	-0.782785	0.386077
H76	H	-0.185600	-0.752426	0.336930
H77	H	-0.275865	-0.659008	0.325528
H78	H	-0.284354	-0.757370	0.248525
H79	H	-0.336547	-0.760256	0.457568
H80	H	-0.344963	-0.858536	0.380457
H81	H	-0.782918	-1.140555	1.015631
H82	H	-0.540132	-1.359078	0.857325
O83	O	-0.781536	-1.141765	0.837223
C84	C	-0.829034	-1.099137	0.689617
C85	C	-0.762044	-1.159441	0.744967
H86	H	-0.813316	-1.113420	0.615018
H87	H	-0.806286	-1.025560	0.703827
H88	H	-0.917163	-1.113832	0.709040
H89	H	-0.673898	-1.144825	0.725576
H90	H	-0.784882	-1.232999	0.730751
O91	O	-1.062466	-1.402389	0.394644
C92	C	-1.065177	-1.560124	0.358511
C93	C	-1.106360	-1.487407	0.423076
H94	H	-1.100666	-1.628875	0.381463
H95	H	-0.974604	-1.559280	0.358475
H96	H	-1.089831	-1.546035	0.287749
H97	H	-1.081783	-1.501446	0.493869
H98	H	-1.196928	-1.488268	0.423034
O99	O	-1.192596	-1.239834	0.340843
C100	C	-1.183318	-1.134901	0.217645
C101	C	-1.148975	-1.154616	0.312774
H102	H	-1.148047	-1.066011	0.194914
H103	H	-1.273931	-1.135729	0.218331
H104	H	-1.153341	-1.188406	0.169234
H105	H	-1.178879	-1.101132	0.361239
H106	H	-1.058361	-1.153820	0.312016
O107	O	-0.813407	-0.788746	0.651365
C108	C	-0.955248	-0.772305	0.764638
C109	C	-0.872505	-0.724324	0.698484
H110	H	-1.003066	-0.720242	0.802738
H111	H	-0.912685	-0.813551	0.814309
H112	H	-1.011300	-0.818657	0.725789
H113	H	-0.816429	-0.677928	0.737258
H114	H	-0.915138	-0.683135	0.648814
H115	H	-0.789308	-0.611666	0.632061
H116	H	-0.485190	-1.408503	1.001501
H117	H	-0.496041	-1.398704	1.171852
H118	H	-0.727979	-1.189984	1.159811
