data_functionalizedCrystal
_audit_creation_method	'MofGen! by Chris Wilmer'
_symmetry_space_group_name_H-M	'P1'
_symmetry_Int_Tables_number	1
_symmetry_cell_setting	triclinic
loop_
_symmetry_equiv_pos_as_xyz
  x,y,z
_cell_length_a	16.992694
_cell_length_b	10.654541
_cell_length_c	15.455313
_cell_angle_alpha	92.691200
_cell_angle_beta	87.142206
_cell_angle_gamma	87.576076
loop_
_atom_site_label
_atom_site_type_symbol
_atom_site_fract_x
_atom_site_fract_y
_atom_site_fract_z
O1	O	1.045242	0.261289	-0.072021
O2	O	0.816942	0.258364	-0.072047
O3	O	0.936342	0.077541	-0.072028
O4	O	0.925843	0.442112	-0.072040
O5	O	0.929514	0.087836	0.072233
O6	O	0.810114	0.268659	0.072214
O7	O	1.038414	0.271584	0.072240
Cu8	Cu	0.923641	0.271061	0.085399
Cu9	Cu	0.931716	0.258886	-0.085206
O10	O	0.919015	0.452407	0.072221
C11	C	0.784296	0.259751	0.000080
C12	C	0.697191	0.248531	0.000071
C13	C	0.647539	0.356782	0.000068
C14	C	0.565694	0.346233	0.000080
C15	C	0.533504	0.227433	0.000089
C16	C	0.583162	0.119174	0.000095
C17	C	0.665005	0.129724	0.000089
C18	C	0.289667	0.183707	0.000114
C19	C	0.207818	0.173165	0.000117
C20	C	0.190356	0.400226	0.000105
C21	C	0.272201	0.410765	0.000093
C22	C	0.321852	0.302507	0.000103
N23	N	0.449846	0.216648	0.000099
N24	N	0.405508	0.313293	0.000100
C25	C	0.932158	0.035824	0.000102
C26	C	0.929852	-0.103819	0.000100
C27	C	1.072627	-0.119450	0.000127
C28	C	1.142928	-0.192868	0.000142
C29	C	1.140757	-0.324074	0.000139
C30	C	1.068277	-0.381864	0.000119
C31	C	0.997977	-0.308446	0.000103
C32	C	1.000155	-0.177238	0.000109
C33	C	0.855204	-0.292816	0.000070
C34	C	0.857373	-0.161609	0.000079
C35	C	0.782725	-0.350606	0.000050
C36	C	0.712422	-0.277188	0.000041
C37	C	0.714596	-0.145974	0.000045
C38	C	0.787072	-0.088191	0.000064
C39	C	1.071061	0.270197	0.000111
C40	C	1.158166	0.281416	0.000115
C41	C	0.923199	0.494124	0.000089
C42	C	0.925505	0.633766	0.000085
N43	N	0.917967	0.279624	0.205394
N44	N	0.937396	0.250314	-0.205201
C45	C	0.968710	0.202836	0.250796
C46	C	0.964427	0.209324	0.341603
C47	C	0.909403	0.292608	0.387007
C48	C	0.858655	0.369399	0.341598
C49	C	0.862935	0.362903	0.250793
C50	C	0.890928	0.320610	0.658585
C51	C	0.886653	0.327102	0.749397
C52	C	0.992424	0.167025	0.749396
C53	C	0.996703	0.160543	0.658588
C54	C	0.945952	0.237329	0.613188
N55	N	0.905025	0.299244	0.479826
N56	N	0.950326	0.230685	0.520370
H57	H	0.525270	0.434383	0.000077
H58	H	0.653415	-0.324252	0.000018
C59	C	0.789470	0.056138	0.000068
N60	N	0.791280	0.164847	0.000067
C61	C	1.020230	0.124819	0.391541
N62	N	1.062256	0.061152	0.429154
H63	H	0.330084	0.095555	0.000123
H64	H	0.821614	0.425431	0.213827
H65	H	0.298404	0.507504	0.000076
C66	C	0.172412	0.042470	0.000126
N67	N	0.145743	-0.055965	0.000131
C68	C	1.057229	0.068918	0.608651
N69	N	1.102818	-0.000095	0.571039
H70	H	0.657348	-0.086204	0.000029
H71	H	1.066517	-0.488700	0.000105
H72	H	0.813849	0.437205	0.378571
H73	H	0.149921	0.488363	0.000098
C74	C	0.835202	0.405251	0.608657
N75	N	0.793263	0.469070	0.571047
C76	C	1.029241	0.111216	0.200860
N77	N	1.074831	0.042202	0.163251
H78	H	1.201939	-0.145800	0.000167
C79	C	0.682940	0.487473	0.000060
N80	N	0.709601	0.585913	0.000058
H81	H	1.033743	0.104508	0.786369
C82	C	0.547750	-0.011508	0.000106
N83	N	0.521079	-0.109941	0.000111
H84	H	0.705432	0.041574	0.000090
H85	H	1.074401	-0.012615	0.000141
C86	C	0.826118	0.418720	0.799339
N87	N	0.780525	0.487724	0.836956
H88	H	1.198002	-0.383851	0.000145
C89	C	0.780338	-0.494936	0.000052
N90	N	0.778539	-0.603646	0.000060
