data_functionalizedCrystal
_audit_creation_method	'MofGen! by Chris Wilmer'
_symmetry_space_group_name_H-M	'P1'
_symmetry_Int_Tables_number	1
_symmetry_cell_setting	triclinic
loop_
_symmetry_equiv_pos_as_xyz
  x,y,z
_cell_length_a	18.215407
_cell_length_b	18.215405
_cell_length_c	18.215399
_cell_angle_alpha	89.970050
_cell_angle_beta	89.985195
_cell_angle_gamma	90.017245
loop_
_atom_site_label
_atom_site_type_symbol
_atom_site_fract_x
_atom_site_fract_y
_atom_site_fract_z
Zn1	Zn	1.125061	-0.293082	-0.416078
Zn2	Zn	1.458394	0.040251	-0.082745
Zn3	Zn	1.791728	0.373585	0.250588
Zn4	Zn	1.124981	-0.416159	-0.293013
Zn5	Zn	1.458314	-0.082825	0.040320
Zn6	Zn	1.791647	0.250508	0.373654
Zn7	Zn	1.002000	-0.293099	-0.293030
Zn8	Zn	1.335333	0.040235	0.040303
Zn9	Zn	1.668667	0.373568	0.373637
Zn10	Zn	1.001964	-0.416100	-0.416042
Zn11	Zn	1.335297	-0.082766	-0.082709
Zn12	Zn	1.668631	0.250567	0.250625
O13	O	1.063501	-0.354610	-0.354541
O14	O	1.396835	-0.021276	-0.021207
O15	O	1.730168	0.312057	0.312126
O16	O	1.228035	-0.309426	-0.399761
O17	O	1.561368	0.023907	-0.066428
O18	O	1.894701	0.357240	0.266905
O19	O	1.108648	-0.399866	-0.190031
O20	O	1.441982	-0.066533	0.143303
O21	O	1.775315	0.266801	0.476636
O22	O	1.018373	-0.190112	-0.309375
O23	O	1.351706	0.143221	0.023958
O24	O	1.685040	0.476555	0.357292
O25	O	1.227975	-0.399850	-0.309346
O26	O	1.561309	-0.066517	0.023988
O27	O	1.894642	0.266817	0.357321
O28	O	1.108786	-0.190100	-0.399778
O29	O	1.442119	0.143233	-0.066445
O30	O	1.775452	0.476567	0.266889
O31	O	1.018295	-0.309454	-0.190043
O32	O	1.351628	0.023879	0.143290
O33	O	1.684962	0.357212	0.476623
O34	O	0.899011	-0.309397	-0.309340
O35	O	1.232344	0.023936	0.023994
O36	O	1.565678	0.357269	0.357327
O37	O	1.018312	-0.399750	-0.519031
O38	O	1.351645	-0.066416	-0.185698
O39	O	1.684979	0.266917	0.147635
O40	O	0.898985	-0.399766	-0.399716
O41	O	1.232318	-0.066432	-0.066383
O42	O	1.565651	0.266901	0.266950
O43	O	1.108751	-0.309369	-0.519058
O44	O	1.442084	0.023964	-0.185724
O45	O	1.775417	0.357298	0.147609
O46	O	1.108613	-0.519135	-0.309311
O47	O	1.441947	-0.185802	0.024023
O48	O	1.775280	0.147532	0.357356
O49	O	1.018234	-0.519092	-0.399700
O50	O	1.351567	-0.185758	-0.066366
O51	O	1.684900	0.147575	0.266967
C52	C	0.872295	-0.354577	-0.354526
C53	C	1.205629	-0.021244	-0.021193
C54	C	1.538962	0.312089	0.312140
C55	C	0.790496	-0.354581	-0.354538
C56	C	1.123830	-0.021248	-0.021204
C57	C	1.457163	0.312086	0.312129
C58	C	0.525464	-0.307617	-0.401695
C59	C	0.858797	0.025717	-0.068362
C60	C	1.192131	0.359050	0.264971
C61	C	0.602323	-0.307605	-0.401693
C62	C	0.935656	0.025729	-0.068360
C63	C	1.268989	0.359062	0.264974
C64	C	0.602280	-0.401626	-0.307402
C65	C	0.935614	-0.068293	0.025931
C66	C	1.268947	0.265040	0.359264
C67	C	0.525423	-0.401642	-0.307409
C68	C	0.858756	-0.068308	0.025924
C69	C	1.192090	0.265025	0.359258
C70	C	0.487017	-0.354632	-0.354554
C71	C	0.820350	-0.021299	-0.021221
C72	C	1.153683	0.312034	0.312112
C73	C	0.640733	-0.354606	-0.354545
C74	C	0.974066	-0.021272	-0.021212
C75	C	1.307399	0.312061	0.312121
C76	C	0.724066	-0.354593	-0.354543
C77	C	1.057400	-0.021260	-0.021209
C78	C	1.390733	0.312074	0.312124
C79	C	0.403678	-0.354646	-0.354558
C80	C	0.737011	-0.021313	-0.021225
C81	C	1.070344	0.312021	0.312108
C82	C	1.063431	-0.545816	-0.354515
C83	C	1.396764	-0.212483	-0.021182
C84	C	1.730098	0.120851	0.312151
C85	C	1.063468	-0.627615	-0.354529
C86	C	1.396801	-0.294282	-0.021196
C87	C	1.730135	0.039052	0.312137
C88	C	1.110568	-0.815741	-0.401666
C89	C	1.443902	-0.482408	-0.068332
C90	C	1.777235	-0.149075	0.265001
C91	C	1.110595	-0.892600	-0.401680
C92	C	1.443928	-0.559267	-0.068346
C93	C	1.777262	-0.225934	0.264987
C94	C	1.016526	-0.892726	-0.307461
C95	C	1.349859	-0.559393	0.025872
C96	C	1.683192	-0.226059	0.359205
C97	C	1.016496	-0.815869	-0.307452
C98	C	1.349829	-0.482535	0.025881
C99	C	1.683163	-0.149202	0.359215
C100	C	1.063521	-0.777378	-0.354553
C101	C	1.396855	-0.444045	-0.021220
C102	C	1.730188	-0.110712	0.312114
C103	C	1.063578	-0.931094	-0.354576
C104	C	1.396911	-0.597761	-0.021243
C105	C	1.730245	-0.264428	0.312090
C106	C	1.063606	-1.014428	-0.354591
C107	C	1.396940	-0.681095	-0.021258
C108	C	1.730273	-0.347761	0.312076
C109	C	1.063492	-0.694039	-0.354540
C110	C	1.396825	-0.360706	-0.021206
C111	C	1.730159	-0.027373	0.312127
C112	C	1.255454	-0.354643	-0.354556
C113	C	1.588788	-0.021309	-0.021222
C114	C	1.922121	0.312024	0.312111
C115	C	1.337253	-0.354657	-0.354562
C116	C	1.670587	-0.021324	-0.021229
C117	C	2.003920	0.312010	0.312105
C118	C	1.063536	-0.354551	-0.546494
C119	C	1.396870	-0.021218	-0.213160
C120	C	1.730203	0.312116	0.120173
C121	C	1.063551	-0.354526	-0.628293
C122	C	1.396884	-0.021193	-0.294959
C123	C	1.730218	0.312141	0.038374
C124	C	1.063592	-0.162657	-0.354582
C125	C	1.396926	0.170677	-0.021249
C126	C	1.730259	0.504010	0.312084
C127	C	1.063631	-0.080858	-0.354600
C128	C	1.396964	0.252475	-0.021267
C129	C	1.730298	0.585809	0.312067
C130	C	1.016544	-0.307417	-0.816494
C131	C	1.349877	0.025917	-0.483161
C132	C	1.683211	0.359250	-0.149828
C133	C	1.016557	-0.307402	-0.893353
C134	C	1.349890	0.025931	-0.560020
C135	C	1.683223	0.359265	-0.226686
C136	C	1.110646	-0.401547	-0.893329
C137	C	1.443980	-0.068214	-0.559996
C138	C	1.777313	0.265119	-0.226663
C139	C	1.110629	-0.401565	-0.816472
C140	C	1.443962	-0.068232	-0.483138
C141	C	1.777296	0.265101	-0.149805
C142	C	1.063579	-0.354496	-0.778056
C143	C	1.396912	-0.021162	-0.444723
C144	C	1.730246	0.312171	-0.111390
C145	C	1.063609	-0.354463	-0.931772
C146	C	1.396942	-0.021130	-0.598439
C147	C	1.730276	0.312204	-0.265106
C148	C	1.063623	-0.354447	-1.015106
C149	C	1.396956	-0.021114	-0.681773
C150	C	1.730290	0.312219	-0.348440
C151	C	1.063564	-0.354512	-0.694717
C152	C	1.396897	-0.021179	-0.361384
C153	C	1.730230	0.312154	-0.028051
C154	C	1.063509	-0.354615	-0.163335
C155	C	1.396843	-0.021282	0.169999
C156	C	1.730176	0.312051	0.503332
C157	C	1.063637	-0.354433	-0.081536
C158	C	1.396970	-0.021100	0.251797
C159	C	1.730304	0.312234	0.585131
H160	H	0.494118	-0.439932	-0.269021
H161	H	0.827452	-0.106598	0.064313
H162	H	1.160785	0.226735	0.397646
H163	H	1.148858	-0.784404	-0.440019
H164	H	1.482191	-0.451071	-0.106686
H165	H	1.815525	-0.117738	0.226647
F166	F	1.160718	-0.451638	-0.934220
F167	F	1.494052	-0.118304	-0.600887
F168	F	1.827385	0.215029	-0.267553
H169	H	0.494196	-0.269339	-0.440084
H170	H	0.827529	0.063995	-0.106750
H171	H	1.160863	0.397328	0.226583
H172	H	0.978241	-0.924074	-0.269112
H173	H	1.311574	-0.590741	0.064221
H174	H	1.644907	-0.257407	0.397555
H175	H	0.633623	-0.269321	-0.440080
H176	H	0.966956	0.064013	-0.106747
H177	H	1.300290	0.397346	0.226586
F178	F	0.966487	-0.257302	-0.934258
F179	F	1.299821	0.076031	-0.600925
F180	F	1.633154	0.409365	-0.267591
H181	H	0.633560	-0.439898	-0.269017
H182	H	0.966893	-0.106565	0.064316
H183	H	1.300227	0.226769	0.397650
H184	H	1.148904	-0.923832	-0.440045
H185	H	1.482237	-0.590499	-0.106712
H186	H	1.815570	-0.257165	0.226621
H187	H	1.148933	-0.439905	-0.785175
H188	H	1.482266	-0.106572	-0.451841
H189	H	1.815599	0.226761	-0.118508
H190	H	0.978181	-0.784631	-0.269087
H191	H	1.311514	-0.451298	0.064247
H192	H	1.644848	-0.117965	0.397580
H193	H	0.978233	-0.269090	-0.785219
H194	H	1.311566	0.064243	-0.451885
H195	H	1.644899	0.397577	-0.118552
