data_functionalizedCrystal
_audit_creation_method	'MofGen! by Chris Wilmer'
_symmetry_space_group_name_H-M	'P1'
_symmetry_Int_Tables_number	1
_symmetry_cell_setting	triclinic
loop_
_symmetry_equiv_pos_as_xyz
  x,y,z
_cell_length_a	10.654541
_cell_length_b	17.038272
_cell_length_c	9.730217
_cell_angle_alpha	89.996329
_cell_angle_beta	89.999932
_cell_angle_gamma	87.797742
loop_
_atom_site_label
_atom_site_type_symbol
_atom_site_fract_x
_atom_site_fract_y
_atom_site_fract_z
O1	O	1.678040	0.109868	-0.114249
O2	O	1.313533	0.120338	-0.114261
O3	O	1.493620	0.001275	-0.114245
O4	O	1.497953	0.228930	-0.114266
O5	O	1.493614	0.001274	0.114336
O6	O	1.313527	0.120337	0.114319
O7	O	1.678034	0.109867	0.114331
Zn8	Zn	1.495780	0.115102	0.150617
Zn9	Zn	1.495788	0.115103	-0.150547
O10	O	1.497947	0.228929	0.114314
C11	C	1.266661	0.119569	0.000027
C12	C	1.127004	0.117270	0.000023
C13	C	1.112253	0.259642	-0.000008
C14	C	1.039268	0.329744	-0.000029
C15	C	0.908049	0.327580	-0.000030
C16	C	0.849813	0.255304	-0.000006
C17	C	0.922798	0.185202	0.000015
C18	C	1.054019	0.187374	0.000012
C19	C	0.937548	0.042832	0.000055
C20	C	1.068768	0.044995	0.000047
C21	C	0.879312	-0.029443	0.000079
C22	C	0.952297	-0.099548	0.000090
C23	C	1.083524	-0.097380	0.000090
C24	C	1.141753	-0.025108	0.000067
C25	C	1.489677	-0.027875	0.000045
C26	C	1.477920	-0.114734	0.000044
C27	C	1.585864	-0.164246	0.000049
C28	C	1.574809	-0.245858	0.000036
C29	C	1.455809	-0.277957	0.000027
C30	C	1.347857	-0.228439	0.000018
C31	C	1.358913	-0.146828	0.000022
C32	C	1.416751	-0.523933	0.000007
C33	C	1.405704	-0.605550	0.000008
C34	C	1.632657	-0.622963	0.000023
C35	C	1.643703	-0.541350	0.000035
C36	C	1.535750	-0.491839	0.000018
C37	C	1.444507	-0.361377	0.000018
C38	C	1.547054	-0.408420	0.000018
C39	C	1.724907	0.110635	0.000039
C40	C	1.864564	0.112934	0.000034
C41	C	1.501891	0.258080	0.000021
C42	C	1.513648	0.344939	0.000013
N43	N	1.495784	0.115100	0.356153
N44	N	1.495793	0.115098	-0.356084
C45	C	1.655323	0.009701	0.356159
C46	C	1.735102	-0.042996	0.428101
C47	C	1.735115	-0.042997	0.571981
C48	C	1.655338	0.009704	0.643922
C49	C	1.575559	0.062402	0.571979
C50	C	1.575558	0.062398	0.428096
C51	C	1.416015	0.167796	0.571973
C52	C	1.416007	0.167801	0.428094
C53	C	1.336238	0.220496	0.643914
C54	C	1.256464	0.273199	0.571971
C55	C	1.256455	0.273198	0.428083
C56	C	1.336228	0.220498	0.356151
H57	H	0.742967	0.253548	0.000010
O58	O	1.178822	0.324281	0.358140
C59	C	1.096854	0.281933	0.274894
H60	H	1.088161	0.220222	0.318255
H61	H	1.000382	0.313268	0.273267
H62	H	1.135736	0.278067	0.165847
H63	H	0.904870	-0.158388	0.000108
H64	H	1.086699	0.388590	-0.000044
O65	O	1.812452	-0.094186	0.358034
C66	C	1.740063	-0.142862	0.274796
H67	H	1.645027	-0.112312	0.253274
H68	H	1.791195	-0.154878	0.173605
H69	H	1.725432	-0.200757	0.330197
O70	O	1.737553	-0.671026	0.000267
C71	C	1.809304	-0.656374	0.118633
H72	H	1.745948	-0.628851	0.201381
H73	H	1.853511	-0.713997	0.158363
H74	H	1.886472	-0.614429	0.091870
O75	O	1.336335	0.220620	0.216387
C76	C	1.369750	0.295036	0.168297
H77	H	1.425124	0.325916	0.251202
H78	H	1.430034	0.287602	0.072039
H79	H	1.281115	0.331763	0.142764
H80	H	0.772466	-0.031201	0.000086
H81	H	1.219098	0.261412	-0.000037
H82	H	1.347616	-0.387521	0.000014
H83	H	1.328848	-0.483630	-0.000006
O84	O	0.837332	0.395749	-0.000113
C85	C	0.916862	0.460005	-0.000094
H86	H	1.012566	0.440684	-0.043359
H87	H	0.873787	0.509160	-0.066474
H88	H	0.928542	0.482131	0.109561
O89	O	1.154231	-0.165553	0.000047
C90	C	1.074686	-0.229801	0.000105
H91	H	0.978986	-0.210477	-0.043171
H92	H	1.117750	-0.278968	-0.066245
H93	H	1.063000	-0.251913	0.109774
O94	O	1.812720	-0.094219	0.641660
C95	C	1.883099	-0.140752	0.547321
H96	H	1.887946	-0.108673	0.444752
H97	H	1.982172	-0.152107	0.588898
H98	H	1.836094	-0.199104	0.532030
O99	O	1.290075	-0.636697	-0.000256
C100	C	1.223744	-0.611444	-0.118635
H101	H	1.293185	-0.594096	-0.201367
H102	H	1.165019	-0.661168	-0.158381
H103	H	1.159390	-0.558648	-0.091883
H104	H	1.655342	0.009694	0.761076
O105	O	1.232328	-0.259710	-0.000174
C106	C	1.219136	-0.306377	-0.118574
H107	H	1.316004	-0.326162	-0.158038
H108	H	1.163338	-0.360081	-0.091950
H109	H	1.167401	-0.270625	-0.201474
H110	H	1.248597	-0.023336	0.000051
H111	H	1.271013	-0.106516	0.000017
H112	H	1.336246	0.220491	0.761068
H113	H	1.682766	-0.138118	0.000065
H114	H	1.740605	-0.515222	0.000042
O115	O	1.679795	-0.293841	0.000111
C116	C	1.787197	-0.248010	0.000097
H117	H	1.761803	-0.187284	0.043371
H118	H	1.863358	-0.277683	0.066471
H119	H	1.823278	-0.242002	-0.109558
O120	O	1.662578	-0.377150	-0.000157
C121	C	1.675778	-0.330475	-0.118556
H122	H	1.578912	-0.310694	-0.158037
H123	H	1.731562	-0.276768	-0.091924
H124	H	1.727532	-0.366218	-0.201446
O125	O	1.178913	0.324277	0.642005
C126	C	1.096910	0.281922	0.725206
H127	H	1.140430	0.220995	0.746752
H128	H	1.080519	0.314452	0.826387
H129	H	1.003474	0.276069	0.669760
H130	H	1.655332	0.009703	0.239004
