data_functionalizedCrystal
_audit_creation_method	'MofGen! by Chris Wilmer'
_symmetry_space_group_name_H-M	'P1'
_symmetry_Int_Tables_number	1
_symmetry_cell_setting	triclinic
loop_
_symmetry_equiv_pos_as_xyz
  x,y,z
_cell_length_a	16.120530
_cell_length_b	16.120444
_cell_length_c	12.759393
_cell_angle_alpha	92.864751
_cell_angle_beta	87.079999
_cell_angle_gamma	90.168401
loop_
_atom_site_label
_atom_site_type_symbol
_atom_site_fract_x
_atom_site_fract_y
_atom_site_fract_z
Zn1	Zn	1.254497	-0.395559	-0.699373
Zn2	Zn	1.247331	-0.534631	-0.532107
Zn3	Zn	1.115429	-0.388539	-0.514379
Zn4	Zn	1.108347	-0.527513	-0.698414
O5	O	1.181401	-0.461561	-0.611068
O6	O	1.369912	-0.419924	-0.685006
O7	O	1.229798	-0.515293	-0.382735
O8	O	1.139840	-0.273107	-0.531901
O9	O	1.364647	-0.522100	-0.562116
O10	O	1.242013	-0.278265	-0.667815
O11	O	1.132890	-0.407960	-0.369710
O12	O	0.998124	-0.401057	-0.530971
O13	O	1.127770	-0.509968	-0.845562
O14	O	0.992921	-0.503161	-0.666181
O15	O	1.235146	-0.413022	-0.846267
O16	O	1.222931	-0.650050	-0.561186
O17	O	1.120821	-0.644820	-0.683371
C18	C	0.965350	-0.450575	-0.596548
C19	C	0.872921	-0.445896	-0.590363
C20	C	1.170352	-0.677608	-0.624123
C21	C	1.165702	-0.770037	-0.629748
C22	C	1.205730	-0.983014	-0.582129
C23	C	1.157226	-0.939263	-0.640029
C24	C	1.161943	-0.845097	-0.634307
C25	C	1.201014	-1.077189	-0.587850
C26	C	0.703694	-0.437333	-0.579077
C27	C	0.659946	-0.485849	-0.643140
C28	C	0.565782	-0.481085	-0.636860
C29	C	0.797866	-0.442096	-0.585355
C30	C	1.398296	-0.472589	-0.625646
C31	C	1.490723	-0.477289	-0.631858
C32	C	1.181467	-0.461484	-0.885101
C33	C	1.181496	-0.461451	-1.001878
C34	C	1.192516	-0.244671	-0.597988
C35	C	1.197252	-0.152245	-0.592413
C36	C	1.237411	-0.410963	-1.057108
C37	C	1.237427	-0.410928	-1.166831
C38	C	1.125610	-0.511876	-1.166084
C39	C	1.125590	-0.511906	-1.056362
C40	C	1.272191	-0.314331	-1.312867
C41	C	1.328119	-0.263851	-1.368103
C42	C	1.409906	-0.255221	-1.337184
C43	C	1.435782	-0.297084	-1.251034
C44	C	1.379858	-0.347571	-1.195805
C45	C	1.298060	-0.356184	-1.226720
C46	C	1.090834	-0.608505	-0.910325
C47	C	1.034914	-0.658997	-0.855094
C48	C	0.953125	-0.667635	-0.886011
C49	C	0.927252	-0.625786	-0.972166
C50	C	0.983172	-0.575295	-1.027396
C51	C	1.064960	-0.566655	-0.996472
C52	C	1.181386	-0.461579	-0.338101
C53	C	1.181531	-0.461386	-0.221322
H54	H	1.112158	-0.972528	-0.693897
H55	H	0.670430	-0.392223	-0.519520
H56	H	0.693211	-0.530962	-0.702702
C57	C	1.525754	-0.287596	-1.217030
C58	C	1.554214	-0.333640	-1.122273
C59	C	1.644187	-0.324149	-1.088264
C60	C	1.705700	-0.268614	-1.149011
C61	C	1.677242	-0.222567	-1.243773
C62	C	1.587269	-0.232058	-1.277783
H63	H	1.508677	-0.374753	-1.077300
H64	H	1.665254	-0.358236	-1.018115
H65	H	1.772304	-0.261588	-1.123835
H66	H	1.722779	-0.181453	-1.288747
H67	H	1.566202	-0.197970	-1.347932
H68	H	1.080095	-0.552956	-1.210459
H69	H	1.157432	-0.601470	-0.885138
C70	C	0.954714	-0.529258	-1.122168
C71	C	0.864748	-0.538758	-1.156187
C72	C	0.836292	-0.492724	-1.250959
C73	C	0.897801	-0.437190	-1.311713
C74	C	0.987772	-0.427688	-1.277696
C75	C	1.016229	-0.473722	-1.182924
H76	H	0.819210	-0.579870	-1.111212
H77	H	0.769689	-0.499759	-1.276140
H78	H	0.876736	-0.403113	-1.381869
H79	H	1.033310	-0.386576	-1.322671
H80	H	1.082832	-0.466688	-1.157742
C81	C	0.837281	-0.635277	-1.006180
C82	C	0.764323	-0.609193	-0.929085
C83	C	0.674351	-0.618686	-0.963098
C84	C	0.657337	-0.654263	-1.074207
C85	C	0.730297	-0.680350	-1.151309
C86	C	0.820269	-0.670856	-1.117296
H87	H	0.776916	-0.582855	-0.846829
H88	H	0.620342	-0.599376	-0.906021
H89	H	0.590735	-0.661291	-1.099386
H90	H	0.717704	-0.706688	-1.233565
H91	H	0.874278	-0.690167	-1.174373
C92	C	0.891610	-0.723176	-0.825257
C93	C	0.920063	-0.769218	-0.730495
C94	C	0.858547	-0.824755	-0.669744
C95	C	0.768578	-0.834249	-0.703754
C96	C	0.740122	-0.788205	-0.798520
C97	C	0.801638	-0.732669	-0.859272
H98	H	0.986666	-0.762192	-0.705314
H99	H	0.879613	-0.858839	-0.599591
H100	H	0.723041	-0.875360	-0.658782
H101	H	0.673518	-0.795232	-0.823701
H102	H	0.780572	-0.698585	-0.929424
H103	H	1.282930	-0.369877	-1.012750
C104	C	1.408310	-0.393616	-1.101042
C105	C	1.404368	-0.489112	-1.102193
C106	C	1.432821	-0.535151	-1.007424
C107	C	1.465217	-0.485695	-0.911503
C108	C	1.469161	-0.390193	-0.910349
C109	C	1.440707	-0.344154	-1.005118
H110	H	1.380385	-0.525727	-1.173202
H111	H	1.429902	-0.605848	-1.008279
H112	H	1.486280	-0.519776	-0.841350
H113	H	1.493144	-0.353578	-0.839340
H114	H	1.443627	-0.273457	-1.004263
H115	H	1.455443	-0.214118	-1.382165
H116	H	1.250794	-0.949753	-0.528263
H117	H	1.307043	-0.229765	-1.438246
H118	H	1.205592	-0.321345	-1.338043
H119	H	1.055990	-0.693080	-0.784950
