data_functionalizedCrystal
_audit_creation_method	'MofGen! by Chris Wilmer'
_symmetry_space_group_name_H-M	'P1'
_symmetry_Int_Tables_number	1
_symmetry_cell_setting	triclinic
loop_
_symmetry_equiv_pos_as_xyz
  x,y,z
_cell_length_a	11.169417
_cell_length_b	13.032721
_cell_length_c	11.169417
_cell_angle_alpha	82.831859
_cell_angle_beta	90.000863
_cell_angle_gamma	97.204996
loop_
_atom_site_label
_atom_site_type_symbol
_atom_site_fract_x
_atom_site_fract_y
_atom_site_fract_z
Zn1	Zn	1.773924	-0.416203	0.739203
Zn2	Zn	2.273924	0.083797	1.239203
Zn3	Zn	1.748350	-0.590926	0.563986
Zn4	Zn	2.248350	-0.090926	1.063986
Zn5	Zn	1.573278	-0.416192	0.538536
Zn6	Zn	2.073278	0.083808	1.038536
Zn7	Zn	1.547689	-0.590916	0.764629
Zn8	Zn	2.047689	-0.090916	1.264629
O9	O	1.660810	-0.503559	0.651588
O10	O	2.160810	-0.003559	1.151588
O11	O	1.938480	-0.439390	0.715970
O12	O	2.438480	0.060610	1.215970
O13	O	1.725133	-0.567746	0.392660
O14	O	2.225133	-0.067746	0.892660
O15	O	1.621306	-0.269949	0.543863
O16	O	2.121306	0.230051	1.043863
O17	O	1.919691	-0.567757	0.587239
O18	O	2.419691	-0.067757	1.087239
O19	O	1.768720	-0.269957	0.691292
O20	O	2.268720	0.230043	1.191292
O21	O	1.596508	-0.439370	0.373962
O22	O	2.096508	0.060630	0.873962
O23	O	1.401935	-0.439360	0.568518
O24	O	1.901935	0.060640	1.068518
O25	O	1.577693	-0.567741	0.929206
O26	O	2.077693	-0.067741	1.429206
O27	O	1.383135	-0.567730	0.734627
O28	O	1.883135	-0.067730	1.234627
O29	O	1.743907	-0.439380	0.910526
O30	O	2.243907	0.060620	1.410526
O31	O	1.700320	-0.737169	0.611893
O32	O	2.200320	-0.237169	1.111893
O33	O	1.552895	-0.737162	0.759305
O34	O	2.052895	-0.237162	1.259305
C35	C	1.348988	-0.503543	0.651571
C36	C	1.848988	-0.003543	1.151571
C37	C	1.215585	-0.503562	0.651595
C38	C	1.715585	-0.003562	1.151595
C39	C	1.621089	-0.775085	0.691146
C40	C	2.121089	-0.275085	1.191146
C41	C	1.604205	-0.891245	0.708109
C42	C	2.104205	-0.391245	1.208109
C43	C	1.669686	-0.943002	0.642789
C44	C	2.169686	-0.443002	1.142789
C45	C	1.652237	-1.063059	0.660320
C46	C	2.152237	-0.563059	1.160320
C47	C	1.973850	-0.503576	0.651607
C48	C	2.473850	-0.003576	1.151607
C49	C	2.107249	-0.503583	0.651615
C50	C	2.607249	-0.003583	1.151615
C51	C	1.660799	-0.503561	0.964631
C52	C	2.160799	-0.003561	1.464631
C53	C	1.660794	-0.503562	1.098031
C54	C	2.160794	-0.003562	1.598031
C55	C	1.700720	-0.230973	0.611903
C56	C	2.200720	0.269027	1.111903
C57	C	1.717727	-0.114813	0.594991
C58	C	2.217727	0.385187	1.094991
C59	C	1.660805	-0.503577	1.339766
C60	C	2.160805	-0.003577	1.839766
C61	C	1.660797	-0.503563	1.206364
C62	C	2.160797	-0.003563	1.706364
H63	H	1.738668	-0.898433	0.573893
H64	H	2.238668	-0.398433	1.073893
H65	H	1.786714	-1.070247	0.526090
H66	H	2.286714	-0.570247	1.026090
H67	H	1.535233	-0.935816	0.777014
H68	H	2.035233	-0.435816	1.277014
Cl69	Cl	1.545739	-1.131861	0.766712
Cl70	Cl	2.045739	-0.631861	1.266712
