data_functionalizedCrystal
_audit_creation_method	'MofGen! by Chris Wilmer'
_symmetry_space_group_name_H-M	'P1'
_symmetry_Int_Tables_number	1
_symmetry_cell_setting	triclinic
loop_
_symmetry_equiv_pos_as_xyz
  x,y,z
_cell_length_a	16.994747
_cell_length_b	19.805407
_cell_length_c	19.805399
_cell_angle_alpha	90.020409
_cell_angle_beta	89.996778
_cell_angle_gamma	89.987000
loop_
_atom_site_label
_atom_site_type_symbol
_atom_site_fract_x
_atom_site_fract_y
_atom_site_fract_z
Zn1	Zn	0.314005	1.034808	0.382849
Zn2	Zn	0.445913	1.034753	0.269709
Zn3	Zn	0.314032	0.921623	0.269672
Zn4	Zn	0.445876	0.921616	0.382854
O5	O	0.379957	0.978200	0.326271
O6	O	0.331508	1.129517	0.367854
O7	O	0.428446	1.019726	0.174988
O8	O	0.203647	0.936662	0.284668
O9	O	0.428420	1.129477	0.284731
O10	O	0.203628	1.019819	0.367819
O11	O	0.331553	0.936609	0.174961
O12	O	0.331516	0.826905	0.284673
O13	O	0.428356	0.936652	0.477570
O14	O	0.428382	0.826901	0.367827
O15	O	0.331472	1.019813	0.477567
O16	O	0.556290	1.019720	0.284736
O17	O	0.556262	0.936599	0.367863
C18	C	0.379948	0.802344	0.326247
C19	C	0.379964	0.727112	0.326252
C20	C	0.329589	0.265345	0.369646
C21	C	0.329590	0.336034	0.369641
C22	C	0.379969	0.371350	0.326293
C23	C	0.430354	0.335975	0.282952
C24	C	0.430356	0.265287	0.282961
C25	C	0.430348	0.621048	0.282916
C26	C	0.430341	0.691740	0.282909
C27	C	0.329582	0.691794	0.369597
C28	C	0.329584	0.621107	0.369606
C29	C	0.379973	0.585738	0.326267
C30	C	0.379971	0.509089	0.326274
C31	C	0.379966	0.447997	0.326283
C32	C	0.584896	0.978161	0.326302
C33	C	0.674219	0.978166	0.326300
C34	C	0.174216	0.978243	0.326237
C35	C	0.084894	0.978264	0.326222
Zn36	Zn	0.945118	0.921642	0.269653
Zn37	Zn	0.945070	1.034838	0.382820
Zn38	Zn	0.813268	0.921639	0.382843
Zn39	Zn	0.813168	1.034765	0.269687
O40	O	0.879156	0.978221	0.326251
O41	O	1.055493	0.936689	0.284641
O42	O	0.927608	1.019851	0.477539
O43	O	0.830820	0.826923	0.367824
O44	O	1.055458	1.019854	0.367784
O45	O	0.927690	0.826925	0.284664
O46	O	0.830774	0.936685	0.477556
O47	O	0.702874	0.936614	0.367857
O48	O	0.830650	1.019730	0.174966
O49	O	0.702801	1.019728	0.284721
O50	O	0.927593	0.936619	0.174941
O51	O	0.927512	1.129545	0.367817
O52	O	0.830604	1.129492	0.284699
C53	C	0.379907	0.978238	0.502814
C54	C	0.379886	0.978254	0.578046
C55	C	0.379965	1.154743	0.326296
C56	C	0.379969	1.229975	0.326307
C57	C	0.379949	0.978201	0.150415
C58	C	0.379748	0.978316	0.075184
C59	C	0.329435	1.021557	0.613389
C60	C	0.329412	1.021564	0.684078
C61	C	0.379845	0.978271	0.719422
C62	C	0.430297	0.934963	0.684073
C63	C	0.430315	0.934953	0.613386
C64	C	0.430224	0.935001	0.969147
C65	C	0.430203	0.935016	1.039839
C66	C	0.329321	1.021612	1.039839
C67	C	0.329339	1.021602	0.969151
C68	C	0.379788	0.978292	0.933809
C69	C	0.379811	0.978284	0.857161
C70	C	0.379826	0.978282	0.796069
C71	C	0.879044	1.154077	0.326261
C72	C	0.879019	1.229309	0.326285
C73	C	0.879116	0.978167	0.149708
C74	C	0.879099	0.978143	0.074476
C75	C	0.879271	0.801679	0.326243
C76	C	0.879320	0.726447	0.326239
C77	C	0.879241	0.978227	0.502107
C78	C	0.879409	0.978062	0.577338
C79	C	0.929509	1.264647	0.369536
C80	C	0.929501	1.335335	0.369559
C81	C	0.878998	1.370685	0.326333
C82	C	0.828506	1.335342	0.283077
C83	C	0.828518	1.264655	0.283051
C84	C	0.929564	0.934855	0.039130
C85	C	0.929548	0.934820	-0.031559
C86	C	0.879070	0.978076	-0.066900
C87	C	0.828599	1.021366	-0.031548
C88	C	0.828612	1.021398	0.039139
C89	C	0.828902	0.691112	0.369535
C90	C	0.828933	0.620424	0.369532
C91	C	0.879386	0.585071	0.326236
C92	C	0.929806	0.620410	0.282935
C93	C	0.929771	0.691097	0.282936
C94	C	0.828706	0.934994	0.612648
C95	C	0.828863	0.934825	0.683336
C96	C	0.879721	0.977729	0.718713
C97	C	0.930430	1.020798	0.683399
C98	C	0.930276	1.020963	0.612712
H99	H	0.471376	0.364735	0.247660
H100	H	0.787388	1.364134	0.247884
F101	F	0.775269	0.582826	0.415622
F102	F	0.983436	0.728696	0.236852
F103	F	0.984552	1.066456	0.721060
H104	H	0.787518	1.056651	0.067913
F105	F	0.879415	0.509838	0.326244
H106	H	0.970648	0.899567	-0.060332
F107	F	0.879065	0.978035	-0.142132
H108	H	0.970882	0.591615	0.247685
H109	H	0.471383	0.236489	0.247671
H110	H	0.787502	1.056584	-0.060334
F111	F	0.774573	0.889327	0.575009
F112	F	0.483882	0.888935	1.077453
F113	F	0.983242	1.372937	0.415601
F114	F	0.774892	0.888981	0.720907
H115	H	0.288370	1.056814	0.584618
H116	H	0.879837	0.977589	0.776271
H117	H	0.787398	1.235888	0.247833
H118	H	0.787815	0.719887	0.404792
H119	H	0.970634	1.235875	0.404739
F120	F	0.984240	1.066808	0.575141
H121	H	0.288556	0.720601	0.404887
H122	H	0.288333	1.056827	0.712851
F123	F	0.878992	1.445917	0.326368
F124	F	0.483963	0.729325	0.236770
F125	F	0.483958	0.583414	0.236776
F126	F	0.275665	1.067683	0.931540
F127	F	0.983292	0.888812	0.076729
H128	H	0.288560	0.236596	0.404941
H129	H	0.471314	0.899745	0.940380
F130	F	0.275963	0.583525	0.415741
F131	F	0.275972	0.373675	0.415772
F132	F	0.275625	1.067705	1.077458
H133	H	0.471357	0.899711	0.712856
H134	H	0.471389	0.899685	0.584611
