data_functionalizedCrystal
_audit_creation_method	'MofGen! by Chris Wilmer'
_symmetry_space_group_name_H-M	'P1'
_symmetry_Int_Tables_number	1
_symmetry_cell_setting	triclinic
loop_
_symmetry_equiv_pos_as_xyz
  x,y,z
_cell_length_a	8.559649
_cell_length_b	8.559649
_cell_length_c	7.088906
_cell_angle_alpha	84.656454
_cell_angle_beta	95.324376
_cell_angle_gamma	69.778664
loop_
_atom_site_label
_atom_site_type_symbol
_atom_site_fract_x
_atom_site_fract_y
_atom_site_fract_z
O1	O	2.108187	-0.036321	-0.158958
O2	O	1.632702	0.047461	-0.158965
O3	O	1.912335	-0.232172	-0.158959
O4	O	1.828554	0.243313	-0.158964
O5	O	1.949710	-0.269613	0.159017
O6	O	1.670076	0.010020	0.159011
O7	O	2.145562	-0.073762	0.159018
Cu8	Cu	1.911232	-0.035289	0.188048
Cu9	Cu	1.867032	0.008989	-0.187995
O10	O	1.865928	0.205872	0.159012
C11	C	1.591080	0.035090	0.000022
C12	C	1.411380	0.053990	0.000019
C13	C	1.937372	-0.311201	0.000026
C14	C	1.956269	-0.490899	0.000015
C15	C	2.187183	-0.061390	0.000027
C16	C	2.366881	-0.080288	0.000017
C17	C	1.840892	0.284902	0.000023
C18	C	1.821992	0.464601	0.000021
N19	N	1.942332	-0.066435	0.452537
N20	N	1.835932	0.040134	0.547516
H21	H	1.311991	0.183419	0.000007
C22	C	1.686955	0.189324	0.437226
C23	C	1.554799	0.157384	0.299085
C24	C	1.405819	0.306576	0.188781
C25	C	1.388994	0.487708	0.216617
C26	C	1.521154	0.519655	0.354764
C27	C	1.670134	0.370463	0.465068
H28	H	1.567250	0.023293	0.278474
H29	H	1.307986	0.282925	0.086516
H30	H	1.278711	0.598148	0.134963
H31	H	1.508703	0.653747	0.375375
H32	H	1.767967	0.394114	0.567333
H33	H	1.466259	-0.209706	0.000009
H34	H	1.692573	-0.436021	0.000025
H35	H	2.085699	-0.590290	0.000033
H36	H	2.052617	-0.176866	0.534195
