data_functionalizedCrystal
_audit_creation_method	'MofGen! by Chris Wilmer'
_symmetry_space_group_name_H-M	'P1'
_symmetry_Int_Tables_number	1
_symmetry_cell_setting	triclinic
loop_
_symmetry_equiv_pos_as_xyz
  x,y,z
_cell_length_a	8.597187
_cell_length_b	8.634740
_cell_length_c	13.448316
_cell_angle_alpha	89.996078
_cell_angle_beta	82.291484
_cell_angle_gamma	92.880146
loop_
_atom_site_label
_atom_site_type_symbol
_atom_site_fract_x
_atom_site_fract_y
_atom_site_fract_z
O1	O	2.117381	0.230714	-0.264093
O2	O	1.663112	0.248405	-0.225175
O3	O	1.868743	0.014759	-0.242790
O4	O	1.911750	0.464360	-0.246479
O5	O	1.868710	0.014744	-0.077403
O6	O	1.663079	0.248390	-0.059789
O7	O	2.117349	0.230699	-0.098706
Cu8	Cu	1.890211	0.239543	-0.064147
Cu9	Cu	1.890249	0.239561	-0.259735
O10	O	1.911717	0.464345	-0.081092
C11	C	1.604335	0.246496	-0.137448
C12	C	1.429244	0.240812	-0.122448
C13	C	1.858984	-0.042846	-0.159263
C14	C	1.829935	-0.214467	-0.156779
C15	C	2.176125	0.232608	-0.186436
C16	C	2.351216	0.238291	-0.201443
C17	C	1.921476	0.521949	-0.164621
C18	C	1.950525	0.693571	-0.167112
N19	N	1.890195	0.239530	0.073419
N20	N	1.890276	0.239562	-0.397302
C21	C	1.981288	0.136115	0.117657
C22	C	1.981298	0.136114	0.221759
C23	C	1.890222	0.239536	0.281621
C24	C	1.799118	0.342956	0.237378
C25	C	1.799101	0.342948	0.133278
C26	C	1.799163	0.342967	0.454354
C27	C	1.799183	0.342977	0.558461
C28	C	1.981360	0.136132	0.542835
C29	C	1.981343	0.136125	0.438735
C30	C	1.890241	0.239547	0.394498
H31	H	1.418370	0.240483	-0.280548
N32	N	1.700965	0.454517	0.623042
H33	H	1.735652	0.564497	0.601942
H34	H	1.586645	0.434833	0.614730
N35	N	2.116726	-0.236819	-0.181348
H36	H	2.114618	-0.119974	-0.181163
H37	H	2.173345	-0.272045	-0.124886
N38	N	1.663720	-0.284071	-0.142542
H39	H	1.646222	-0.350256	-0.202352
H40	H	1.646304	-0.350199	-0.079703
N41	N	2.079532	0.024575	0.053093
H42	H	2.137238	-0.040939	0.096918
H43	H	2.008973	-0.044701	0.015959
H44	H	1.362099	0.238639	-0.043348
N45	N	2.079610	0.024628	0.269468
H46	H	2.137332	-0.040865	0.215747
H47	H	2.158085	0.084956	0.305903
N48	N	2.079584	0.024590	0.374165
H49	H	2.137297	-0.040928	0.417983
H50	H	2.009021	-0.044682	0.337031
N51	N	2.079627	0.024585	0.590539
H52	H	2.065816	0.040274	0.665570
H53	H	2.044887	-0.085347	0.575328
H54	H	1.724972	0.427179	0.418341
H55	H	1.724954	0.427159	0.286125
H56	H	1.724921	0.427157	0.097262
