data_functionalizedCrystal
_audit_creation_method	'MofGen! by Chris Wilmer'
_symmetry_space_group_name_H-M	'P1'
_symmetry_Int_Tables_number	1
_symmetry_cell_setting	triclinic
loop_
_symmetry_equiv_pos_as_xyz
  x,y,z
_cell_length_a	19.077105
_cell_length_b	12.645330
_cell_length_c	19.076929
_cell_angle_alpha	92.273390
_cell_angle_beta	90.078300
_cell_angle_gamma	87.714233
loop_
_atom_site_label
_atom_site_type_symbol
_atom_site_fract_x
_atom_site_fract_y
_atom_site_fract_z
Zn1	Zn	1.058293	-0.512826	-0.440443
Zn2	Zn	1.062950	-0.683286	-0.322946
Zn3	Zn	0.945514	-0.498634	-0.318236
Zn4	Zn	0.940767	-0.682638	-0.435698
O5	O	1.001881	-0.594346	-0.379331
O6	O	1.157243	-0.541649	-0.428814
O7	O	1.051308	-0.653123	-0.223990
O8	O	0.960512	-0.352173	-0.334462
O9	O	1.160664	-0.666885	-0.342489
O10	O	1.043370	-0.362599	-0.424247
O11	O	0.965028	-0.517461	-0.220530
O12	O	0.846552	-0.516832	-0.329861
O13	O	0.952422	-0.665780	-0.534659
O14	O	0.843065	-0.652019	-0.416159
O15	O	1.038767	-0.541020	-0.538145
O16	O	1.046705	-0.831544	-0.337887
O17	O	0.956938	-0.831068	-0.420726
C18	C	0.819312	-0.582816	-0.371985
C19	C	0.741208	-0.577910	-0.368859
C20	C	0.702720	-0.646088	-0.412250
C21	C	0.629332	-0.641464	-0.409317
C22	C	0.594434	-0.568667	-0.362987
C23	C	0.632927	-0.500482	-0.319593
C24	C	0.706313	-0.505101	-0.322531
C25	C	0.375146	-0.547289	-0.349393
C26	C	0.301755	-0.542677	-0.346457
C27	C	0.298164	-0.683658	-0.436182
C28	C	0.371552	-0.688275	-0.439112
C29	C	0.410039	-0.620087	-0.395721
N30	N	0.519420	-0.563942	-0.359985
N31	N	0.485051	-0.624808	-0.398727
C32	C	1.001830	-0.869772	-0.379319
C33	C	1.001872	-0.987606	-0.379340
C34	C	0.945616	-1.154938	-0.431630
C35	C	0.945347	-1.032351	-0.431444
C36	C	0.984808	-1.026636	-0.304482
C37	C	0.984465	-1.149232	-0.304799
C38	C	1.075545	-1.160491	-0.401320
C39	C	1.075024	-1.037949	-0.402921
C40	C	1.185163	-0.605922	-0.386706
C41	C	1.263266	-0.610855	-0.389849
C42	C	0.994545	-0.604911	-0.562611
C43	C	0.991419	-0.609413	-0.640714
C44	C	1.001951	-0.317847	-0.379359
C45	C	1.001980	-0.200019	-0.379371
C46	C	0.969003	-0.641788	-1.080157
C47	C	0.971938	-0.637542	-1.006771
C48	C	1.018364	-0.570469	-0.971897
C49	C	1.061853	-0.507631	-1.010412
C50	C	1.058915	-0.511872	-1.083797
C51	C	1.031970	-0.550815	-0.752615
C52	C	1.034907	-0.546581	-0.679225
C53	C	0.944990	-0.676492	-0.675588
C54	C	0.942059	-0.680731	-0.748975
C55	C	0.985545	-0.617889	-0.787484
N56	N	1.021366	-0.566130	-0.896884
N57	N	0.982539	-0.622223	-0.862495
C58	C	1.009229	-0.583748	-0.196765
C59	C	1.012491	-0.578956	-0.118668
H60	H	0.604508	-0.441205	-0.281874
O61	O	0.880837	-1.186765	-0.414329
C62	C	0.830848	-1.145728	-0.461620
H63	H	0.857977	-1.127256	-0.512660
H64	H	0.804757	-1.070106	-0.437621
C65	C	0.741520	-1.250692	-0.414060
C66	C	0.774840	-1.228013	-0.476751
H67	H	0.706969	-1.301447	-0.423392
H68	H	0.775197	-1.278338	-0.382197
H69	H	0.719783	-1.187668	-0.394067
H70	H	0.796583	-1.291035	-0.496738
H71	H	0.741165	-1.200381	-0.508618
O72	O	0.412495	-0.481158	-0.307140
C73	C	0.397333	-0.498974	-0.236362
H74	H	0.377300	-0.582179	-0.231909
H75	H	0.355466	-0.438368	-0.216358
C76	C	0.488994	-0.385712	-0.197554
C77	C	0.464394	-0.487910	-0.192085
H78	H	0.530359	-0.378883	-0.170241
H79	H	0.499207	-0.373706	-0.245238
H80	H	0.454099	-0.335219	-0.180885
H81	H	0.499286	-0.538400	-0.208762
H82	H	0.454188	-0.499924	-0.144402
H83	H	1.072712	-0.491957	-0.650832
H84	H	0.399961	-0.747556	-0.476837
O85	O	1.090571	-1.008089	-0.468631
C86	C	1.153285	-0.952704	-0.466856
H87	H	1.185379	-0.975786	-0.418980
H88	H	1.140301	-0.863858	-0.463654
C89	C	1.156560	-0.952690	-0.592715
C90	C	1.195981	-0.981046	-0.533917
H91	H	1.182895	-0.970168	-0.634082
H92	H	1.114306	-0.990000	-0.593912
H93	H	1.145742	-0.878652	-0.590037
H94	H	1.206790	-1.055083	-0.536591
H95	H	1.238237	-0.943748	-0.532722
H96	H	0.731128	-0.705370	-0.449975
H97	H	1.099651	-0.453014	-0.982012
O98	O	1.101230	-0.450803	-1.121103
C99	C	1.142825	-0.390674	-1.074587
H100	H	1.147343	-0.431226	-1.022367
H101	H	1.117426	-0.308086	-1.065758
C102	C	1.210919	-0.331967	-1.170380
C103	C	1.216473	-0.381779	-1.106245
H104	H	1.256348	-0.326475	-1.189909
H105	H	1.182894	-0.372474	-1.201719
H106	H	1.189751	-0.263149	-1.163014
H107	H	1.237633	-0.450599	-1.113613
H108	H	1.244503	-0.341283	-1.074907
O109	O	1.074185	-0.489620	-0.789932
C110	C	1.059563	-0.381962	-0.771401
H111	H	1.034678	-0.374992	-0.717035
H112	H	1.021797	-0.346348	-0.811255
C113	C	1.158785	-0.330447	-0.837537
C114	C	1.128226	-0.321886	-0.770760
H115	H	1.201138	-0.293387	-0.837144
H116	H	1.168635	-0.402978	-0.850024
H117	H	1.127306	-0.300770	-0.870741
H118	H	1.159700	-0.351574	-0.737559
H119	H	1.118382	-0.249358	-0.758267
O120	O	0.896933	-0.745749	-0.782934
C121	C	0.849855	-0.684994	-0.823563
H122	H	0.874209	-0.606848	-0.835558
H123	H	0.798906	-0.668444	-0.793201
C124	C	0.804443	-0.842526	-0.878023
C125	C	0.834357	-0.746550	-0.892761
H126	H	0.794880	-0.880498	-0.920706
H127	H	0.836158	-0.883459	-0.850649
H128	H	0.761988	-0.828721	-0.852720
H129	H	0.876814	-0.760357	-0.918056
H130	H	0.802648	-0.705621	-0.920141
O131	O	0.957660	-1.194810	-0.497963
C132	C	0.899000	-1.250474	-0.521637
H133	H	0.850515	-1.220487	-0.490876
H134	H	0.908683	-1.338642	-0.513341
C135	C	0.946890	-1.269514	-0.638038
C136	C	0.887338	-1.232677	-0.600260
H137	H	0.939698	-1.258541	-0.686537
H138	H	0.986412	-1.232016	-0.622088
H139	H	0.954953	-1.342985	-0.631117
H140	H	0.879282	-1.159205	-0.607174
H141	H	0.847815	-1.270163	-0.616213
O142	O	0.880193	-0.992407	-0.413934
C143	C	0.852992	-0.932176	-0.469110
H144	H	0.880269	-0.959109	-0.520253
H145	H	0.862465	-0.844787	-0.457438
C146	C	0.740131	-0.914969	-0.413247
C147	C	0.773630	-0.948055	-0.476063
H148	H	0.691176	-0.924759	-0.417535
H149	H	0.758457	-0.955544	-0.376073
H150	H	0.748033	-0.842147	-0.403528
H151	H	0.765735	-1.020878	-0.485777
H152	H	0.755300	-0.907492	-0.513240
H153	H	0.909585	-0.727653	-0.644226
H154	H	0.266821	-0.739172	-0.471509
H155	H	0.737650	-0.449579	-0.287201
H156	H	0.930777	-1.173566	-0.286551
H157	H	0.597998	-0.696982	-0.444650
H158	H	0.955677	-1.006177	-0.486857
O159	O	1.031426	-1.184694	-0.256543
C160	C	0.996333	-1.241354	-0.205951
H161	H	0.945459	-1.271542	-0.229216
H162	H	0.983894	-1.186968	-0.158119
C163	C	1.106010	-1.298858	-0.155298
C164	C	1.043529	-1.335943	-0.183874
H165	H	1.135123	-1.357202	-0.141677
H166	H	1.129653	-1.260682	-0.189381
H167	H	1.095635	-1.253536	-0.115442
H168	H	1.053904	-1.381253	-0.223734
H169	H	1.019888	-1.374129	-0.149797
H170	H	0.273343	-0.483385	-0.308734
H171	H	1.024692	-0.997466	-0.264350
O172	O	0.924004	-0.707066	-1.114066
C173	C	0.962289	-0.780503	-1.158126
H174	H	1.018516	-0.789273	-1.138238
H175	H	0.962491	-0.751098	-1.213847
C176	C	0.858823	-0.877828	-1.182275
C177	C	0.927881	-0.888605	-1.157845
H178	H	0.837598	-0.944509	-1.182105
H179	H	0.833029	-0.828350	-1.152593
H180	H	0.859000	-0.853320	-1.228707
H181	H	0.927702	-0.913100	-1.111411
H182	H	0.953675	-0.938090	-1.187519
H183	H	0.931699	-0.991685	-0.285966
O184	O	1.094692	-1.202387	-0.465544
C185	C	1.041867	-1.268178	-0.491624
H186	H	0.989846	-1.243802	-0.465149
H187	H	1.056389	-1.354078	-0.480107
C188	C	1.098709	-1.286873	-0.603949
C189	C	1.034815	-1.256929	-0.571437
H190	H	1.094361	-1.279939	-0.653182
H191	H	1.134300	-1.242552	-0.586378
H192	H	1.110804	-1.358455	-0.594344
H193	H	1.022726	-1.185345	-0.581034
H194	H	0.999221	-1.301238	-0.589011
H195	H	1.118990	-1.007842	-0.367867
H196	H	1.117501	-1.189720	-0.363294
H197	H	0.936533	-0.688718	-0.975419
