data_functionalizedCrystal
_audit_creation_method	'MofGen! by Chris Wilmer'
_symmetry_space_group_name_H-M	'P1'
_symmetry_Int_Tables_number	1
_symmetry_cell_setting	triclinic
loop_
_symmetry_equiv_pos_as_xyz
  x,y,z
_cell_length_a	14.908783
_cell_length_b	12.827892
_cell_length_c	12.827885
_cell_angle_alpha	90.029786
_cell_angle_beta	86.678907
_cell_angle_gamma	86.693529
loop_
_atom_site_label
_atom_site_type_symbol
_atom_site_fract_x
_atom_site_fract_y
_atom_site_fract_z
Zn1	Zn	1.379294	0.323906	-0.683226
Zn2	Zn	1.879294	0.823906	-0.183226
Zn3	Zn	1.379203	0.498689	-0.508480
Zn4	Zn	1.879203	0.998689	-0.008480
Zn5	Zn	1.228422	0.334028	-0.498395
Zn6	Zn	1.728422	0.834028	0.001605
Zn7	Zn	1.228409	0.508678	-0.673081
Zn8	Zn	1.728409	1.008678	-0.173081
O9	O	1.303832	0.416325	-0.590795
O10	O	1.803832	0.916325	-0.090795
O11	O	1.505530	0.338674	-0.668512
O12	O	2.005530	0.838674	-0.168512
O13	O	1.359168	0.476902	-0.360904
O14	O	1.859168	0.976902	0.139096
O15	O	1.248479	0.186446	-0.522938
O16	O	1.748479	0.686446	-0.022938
O17	O	1.505463	0.467087	-0.540127
O18	O	2.005463	0.967087	-0.040127
O19	O	1.359324	0.179009	-0.658733
O20	O	1.859324	0.679009	-0.158733
O21	O	1.248390	0.355927	-0.353494
O22	O	1.748390	0.855927	0.146506
O23	O	1.102172	0.365613	-0.513101
O24	O	1.602172	0.865613	-0.013101
O25	O	1.248457	0.484111	-0.820665
O26	O	1.748457	0.984111	-0.320665
O27	O	1.102163	0.493927	-0.641442
O28	O	1.602163	0.993927	-0.141442
O29	O	1.359312	0.348360	-0.828118
O30	O	1.859312	0.848360	-0.328118
O31	O	1.359156	0.646253	-0.530289
O32	O	1.859156	1.146253	-0.030289
O33	O	1.248369	0.653592	-0.651221
O34	O	1.748369	1.153592	-0.151221
C35	C	1.069433	0.431953	-0.575077
C36	C	1.569433	0.931953	-0.075077
C37	C	0.969156	0.438664	-0.568377
C38	C	1.469156	0.938664	-0.068377
C39	C	0.780793	0.317740	-0.689679
C40	C	1.280793	0.817740	-0.189679
C41	C	0.686574	0.324042	-0.683388
C42	C	1.186574	0.824042	-0.183388
C43	C	0.686497	0.457563	-0.549498
C44	C	1.186497	0.957563	-0.049498
C45	C	0.780716	0.451261	-0.555789
C46	C	1.280716	0.951261	-0.055789
C47	C	0.827861	0.381349	-0.625884
C48	C	1.327861	0.881349	-0.125884
C49	C	0.922082	0.375053	-0.632180
C50	C	1.422082	0.875053	-0.132180
C51	C	0.922003	0.508567	-0.498285
C52	C	1.422003	1.008567	0.001715
C53	C	0.827784	0.514869	-0.491994
C54	C	1.327784	1.014869	0.008006
C55	C	1.303776	0.687839	-0.590773
C56	C	1.803776	1.187839	-0.090773
C57	C	1.303834	0.803988	-0.590804
C58	C	1.803834	1.303988	-0.090804
C59	C	1.303893	0.416221	-0.863370
C60	C	1.803893	0.916221	-0.363370
C61	C	1.303920	0.416176	-0.979525
C62	C	1.803920	0.916176	-0.479525
C63	C	1.539146	0.400637	-0.606576
C64	C	2.039146	0.900637	-0.106576
C65	C	1.639423	0.393952	-0.613301
C66	C	2.139423	0.893952	-0.113301
C67	C	1.303913	0.143750	-0.590842
C68	C	1.803913	0.643750	-0.090842
C69	C	1.303948	0.027594	-0.590862
C70	C	1.803948	0.527594	-0.090862
C71	C	1.358720	0.852102	-0.531038
C72	C	1.858720	1.352102	-0.031038
C73	C	1.358782	0.972149	-0.531069
C74	C	1.858782	1.472149	-0.031069
C75	C	1.358780	0.348989	-1.034998
C76	C	1.858780	0.848989	-0.534998
C77	C	1.358808	0.348942	-1.155050
C78	C	1.858808	0.848942	-0.655050
C79	C	1.303823	0.416350	-0.319285
C80	C	1.803823	0.916350	0.180715
C81	C	1.303971	0.416089	-0.203142
C82	C	1.803971	0.916089	0.296858
H83	H	0.960466	0.318128	-0.689255
H84	H	1.460466	0.818128	-0.189255
H85	H	0.789386	0.571786	-0.434922
H86	H	1.289386	1.071786	0.065078
H87	H	1.256893	0.851669	-0.641999
H88	H	1.756893	1.351669	-0.141999
H89	H	1.405779	0.291424	-1.202742
H90	H	1.905779	0.791424	-0.702742
C91	C	1.066398	0.558203	-0.448478
C92	C	1.566398	1.058203	0.051522
C93	C	0.973742	0.578493	-0.428155
C94	C	1.473742	1.078493	0.071845
H95	H	1.098338	0.601371	-0.405182
H96	H	1.598338	1.101371	0.094818
H97	H	1.081859	0.572541	-0.519693
H98	H	1.581859	1.072541	-0.019693
H99	H	1.081837	0.486939	-0.434326
H100	H	1.581837	0.986939	0.065674
H101	H	0.958302	0.649756	-0.442315
H102	H	1.458302	1.149756	0.057685
H103	H	0.958275	0.564163	-0.356925
H104	H	1.458275	1.064163	0.143075
H105	H	1.405669	0.804423	-0.479851
H106	H	1.905669	1.304423	0.020149
H107	H	1.256967	0.473656	-1.020910
H108	H	1.756967	0.973656	-0.520910
H109	H	1.405769	1.013540	-0.479898
H110	H	1.905769	1.513540	0.020102
C111	C	1.291381	0.905482	-0.730441
C112	C	1.791381	1.405482	-0.230441
C113	C	1.240508	0.971734	-0.659947
C114	C	1.740508	1.471734	-0.159947
H115	H	1.252215	0.870997	-0.773094
H116	H	1.752215	1.370997	-0.273094
H117	H	1.325764	0.855141	-0.692921
H118	H	1.825764	1.355141	-0.192921
H119	H	1.330656	0.945383	-0.773128
H120	H	1.830656	1.445383	-0.273128
H121	H	1.201238	0.931832	-0.617255
H122	H	1.701238	1.431832	-0.117255
H123	H	1.206110	1.022082	-0.697470
H124	H	1.706110	1.522082	-0.197470
H125	H	1.405723	0.291500	-0.993612
H126	H	1.905723	0.791500	-0.493612
C127	C	1.291468	0.557421	-1.079415
C128	C	1.791468	1.057421	-0.579415
C129	C	1.240563	0.493748	-1.138770
C130	C	1.740563	0.993748	-0.638770
H131	H	1.252321	0.605359	-1.039664
H132	H	1.752321	1.105359	-0.539664
H133	H	1.330728	0.594797	-1.124625
H134	H	1.830728	1.094797	-0.624625
H135	H	1.325866	0.515287	-1.033689
H136	H	1.825866	1.015287	-0.533689
H137	H	1.206170	0.535881	-1.184501
H138	H	1.706170	1.035881	-0.684501
H139	H	1.201287	0.456369	-1.093555
H140	H	1.701287	0.956369	-0.593555
C141	C	0.657422	0.636399	-0.496355
C142	C	1.157422	1.136399	0.003645
C143	C	0.634664	0.534402	-0.472453
C144	C	1.134664	1.034402	0.027547
H145	H	0.625424	0.683834	-0.448786
H146	H	1.125424	1.183834	0.051214
H147	H	0.642006	0.652793	-0.565506
H148	H	1.142006	1.152793	-0.065506
H149	H	0.720272	0.641746	-0.490966
H150	H	1.220272	1.141746	0.009034
H151	H	0.571814	0.529052	-0.477851
H152	H	1.071814	1.029052	0.022149
H153	H	0.650074	0.518003	-0.403286
H154	H	1.150074	1.018003	0.096714
C155	C	0.771410	0.186406	-0.821405
C156	C	1.271410	0.686406	-0.321405
C157	C	0.832621	0.240904	-0.766731
C158	C	1.332621	0.740904	-0.266731
H159	H	0.803407	0.138968	-0.868970
H160	H	1.303407	0.638968	-0.368970
H161	H	0.734673	0.234442	-0.858841
H162	H	1.234673	0.734442	-0.358841
H163	H	0.734646	0.148835	-0.773479
H164	H	1.234646	0.648835	-0.273479
H165	H	0.869381	0.278481	-0.814656
H166	H	1.369381	0.778481	-0.314656
H167	H	0.869373	0.192861	-0.729292
H168	H	1.369373	0.692861	-0.229292
H169	H	0.648255	0.272243	-0.735334
H170	H	1.148255	0.772243	-0.235334
