data_functionalizedCrystal
_audit_creation_method	'MofGen! by Chris Wilmer'
_symmetry_space_group_name_H-M	'P1'
_symmetry_Int_Tables_number	1
_symmetry_cell_setting	triclinic
loop_
_symmetry_equiv_pos_as_xyz
  x,y,z
_cell_length_a	13.897449
_cell_length_b	16.120444
_cell_length_c	13.897449
_cell_angle_alpha	87.114069
_cell_angle_beta	90.008641
_cell_angle_gamma	92.927498
loop_
_atom_site_label
_atom_site_type_symbol
_atom_site_fract_x
_atom_site_fract_y
_atom_site_fract_z
Zn1	Zn	1.455019	-0.332036	0.564906
Zn2	Zn	1.788352	0.001297	0.898240
Zn3	Zn	2.121686	0.334630	1.231573
Zn4	Zn	1.446750	-0.471421	0.411776
Zn5	Zn	1.780084	-0.138088	0.745109
Zn6	Zn	2.113417	0.195245	1.078443
Zn7	Zn	1.293750	-0.332025	0.403617
Zn8	Zn	1.627084	0.001308	0.736950
Zn9	Zn	1.960417	0.334641	1.070283
Zn10	Zn	1.285486	-0.471415	0.573021
Zn11	Zn	1.618819	-0.138082	0.906354
Zn12	Zn	1.952153	0.195252	1.239687
O13	O	1.370251	-0.401725	0.488330
O14	O	1.703585	-0.068391	0.821663
O15	O	2.036918	0.264942	1.154997
O16	O	1.588903	-0.350533	0.544612
O17	O	1.922237	-0.017200	0.877946
O18	O	2.255570	0.316133	1.211279
O19	O	1.426453	-0.452928	0.275712
O20	O	1.759786	-0.119595	0.609045
O21	O	2.093119	0.213738	0.942379
O22	O	1.322062	-0.215359	0.418202
O23	O	1.655395	0.117975	0.751535
O24	O	1.988728	0.451308	1.084869
O25	O	1.582828	-0.452939	0.432108
O26	O	1.916162	-0.119606	0.765441
O27	O	2.249495	0.213728	1.098774
O28	O	1.440545	-0.215367	0.536701
O29	O	1.773879	0.117967	0.870034
O30	O	2.107212	0.451300	1.203367
O31	O	1.314044	-0.350515	0.269717
O32	O	1.647377	-0.017181	0.603051
O33	O	1.980711	0.316152	0.936384
O34	O	1.157673	-0.350509	0.426070
O35	O	1.491006	-0.017175	0.759403
O36	O	1.824339	0.316158	1.092736
O37	O	1.307977	-0.452928	0.706926
O38	O	1.641310	-0.119595	1.040259
O39	O	1.974643	0.213739	1.373593
O40	O	1.151601	-0.452917	0.550530
O41	O	1.484934	-0.119584	0.883863
O42	O	1.818268	0.213749	1.217197
O43	O	1.432532	-0.350527	0.700965
O44	O	1.765865	-0.017194	1.034298
O45	O	2.099198	0.316140	1.367631
O46	O	1.418439	-0.588089	0.439976
O47	O	1.751773	-0.254755	0.773309
O48	O	2.085106	0.078578	1.106642
O49	O	1.299959	-0.588084	0.558441
O50	O	1.633292	-0.254751	0.891775
O51	O	1.966626	0.078583	1.225108
C52	C	1.119638	-0.401712	0.488296
C53	C	1.452971	-0.068378	0.821629
C54	C	1.786304	0.264955	1.154962
C55	C	1.012423	-0.401726	0.488305
C56	C	1.345756	-0.068393	0.821638
C57	C	1.679090	0.264940	1.154972
C58	C	0.925353	-0.401729	0.488321
C59	C	1.258686	-0.068396	0.821654
C60	C	1.592020	0.264938	1.154988
C61	C	0.816120	-0.401735	0.488351
C62	C	1.149454	-0.068402	0.821684
C63	C	1.482787	0.264932	1.155017
C64	C	1.357431	-0.618337	0.500995
C65	C	1.690765	-0.285004	0.834329
C66	C	2.024098	0.048330	1.167662
C67	C	1.352035	-0.711005	0.506446
C68	C	1.685369	-0.377672	0.839779
C69	C	2.018702	-0.044338	1.173113
C70	C	1.398480	-0.921933	0.460262
C71	C	1.731814	-0.588600	0.793595
C72	C	2.065147	-0.255267	1.126929
C73	C	1.342201	-0.880665	0.516408
C74	C	1.675534	-0.547331	0.849741
C75	C	2.008868	-0.213998	1.183074
C76	C	1.347674	-0.786257	0.510863
C77	C	1.681008	-0.452924	0.844197
C78	C	2.014341	-0.119590	1.177530
C79	C	1.393008	-1.016349	0.465805
C80	C	1.726342	-0.683016	0.799139
C81	C	2.059675	-0.349683	1.132472
C82	C	1.621844	-0.401738	0.488365
C83	C	1.955177	-0.068405	0.821698
C84	C	2.288510	0.264929	1.155032
C85	C	1.729057	-0.401744	0.488380
C86	C	2.062390	-0.068410	0.821713
C87	C	2.395724	0.264923	1.155047
C88	C	1.370255	-0.401728	0.739923
C89	C	1.703588	-0.068395	1.073256
C90	C	2.036921	0.264939	1.406590
C91	C	1.370256	-0.401730	0.847137
C92	C	1.703590	-0.068396	1.180470
C93	C	2.036923	0.264937	1.513804
C94	C	1.383148	-0.184266	0.475636
C95	C	1.716481	0.149067	0.808969
C96	C	2.049814	0.482400	1.142303
C97	C	1.388643	-0.091598	0.470227
C98	C	1.721977	0.241735	0.803560
C99	C	2.055310	0.575068	1.136893
C100	C	1.370232	-0.401733	1.043432
C101	C	1.703565	-0.068400	1.376766
C102	C	2.036898	0.264933	1.710099
C103	C	1.370242	-0.401734	0.934200
C104	C	1.703576	-0.068400	1.267533
C105	C	2.036909	0.264933	1.600867
C106	C	1.370238	-0.401738	1.237716
C107	C	1.703571	-0.068405	1.571050
C108	C	2.036904	0.264929	1.904383
C109	C	1.370231	-0.401731	1.130502
C110	C	1.703564	-0.068398	1.463835
C111	C	2.036897	0.264935	1.797169
H112	H	1.450769	-0.886366	0.408033
H113	H	1.784103	-0.553033	0.741367
H114	H	2.117436	-0.219700	1.074700
H115	H	1.289908	-0.916235	0.568639
H116	H	1.623241	-0.582902	0.901972
H117	H	1.956574	-0.249569	1.235306
