data_functionalizedCrystal
_audit_creation_method	'MofGen! by Chris Wilmer'
_symmetry_space_group_name_H-M	'P1'
_symmetry_Int_Tables_number	1
_symmetry_cell_setting	triclinic
loop_
_symmetry_equiv_pos_as_xyz
  x,y,z
_cell_length_a	6.817900
_cell_length_b	16.306198
_cell_length_c	17.110486
_cell_angle_alpha	96.315235
_cell_angle_beta	99.060439
_cell_angle_gamma	103.467075
loop_
_atom_site_label
_atom_site_type_symbol
_atom_site_fract_x
_atom_site_fract_y
_atom_site_fract_z
V1	V	-3.976785	-0.116467	-0.246999
O2	O	-3.965379	0.005855	-0.242010
O3	O	-3.928519	-0.231184	-0.245587
O4	O	-3.906645	-0.114562	-0.354598
O5	O	-3.987405	-0.111573	-0.132244
V6	V	-4.463213	-0.101849	-0.233240
O7	O	-4.231672	-0.148533	-0.277182
O8	O	-4.658523	-0.069784	-0.203058
O9	O	-4.288272	0.012867	-0.234652
O10	O	-4.592015	-0.224172	-0.238230
O11	O	-4.569989	-0.106743	-0.347996
O12	O	-4.310146	-0.103754	-0.125641
C13	C	-3.774256	-0.259153	-0.241762
C14	C	-3.815935	-0.352934	-0.241325
C15	C	-3.967209	-0.693687	-0.239725
C16	C	-4.170361	-0.663135	-0.244379
C17	C	-4.127273	-0.565643	-0.245140
C18	C	-3.892162	-0.524635	-0.240518
C19	C	-3.825882	-0.570005	-0.313919
C20	C	-3.870651	-0.667624	-0.313555
C21	C	-3.812810	-0.642647	-0.162219
C22	C	-3.773226	-0.544998	-0.161764
C23	C	-3.849737	-0.429095	-0.240969
C24	C	-4.009629	-0.789228	-0.239279
C25	C	-3.746352	-0.110389	-0.380815
C26	C	-3.770289	-0.109591	-0.468780
C27	C	-3.962826	-0.113426	-0.514147
C28	C	-3.985306	-0.112675	-0.596798
C29	C	-3.815248	-0.108096	-0.634082
C30	C	-3.622694	-0.104257	-0.588708
C31	C	-3.600214	-0.105002	-0.506057
C32	C	-3.874050	-0.105631	-0.883431
C33	C	-3.896546	-0.104889	-0.966088
C34	C	-4.259157	-0.113305	-0.974172
C35	C	-4.236662	-0.114055	-0.891520
C36	C	-4.044109	-0.110212	-0.846153
C37	C	-3.838222	-0.107331	-0.718565
C38	C	-4.021134	-0.110971	-0.761670
C39	C	-4.105877	0.040831	-0.238475
C40	C	-4.043435	0.134612	-0.238918
C41	C	-4.133782	-0.107930	-0.099420
C42	C	-4.089084	-0.108724	-0.011455
H43	H	-3.721605	-0.687999	-0.313400
C44	C	-3.595573	-0.534135	-0.313128
N45	N	-3.422103	-0.507114	-0.312532
H46	H	-3.910551	-0.556692	-0.372200
C47	C	-3.894873	-0.665299	-0.086370
N48	N	-3.956707	-0.682361	-0.029244
C49	C	-4.326506	-0.711074	-0.319917
N50	N	-4.444107	-0.747180	-0.376816
C51	C	-3.608356	-0.668554	-0.156616
N52	N	-3.454373	-0.688073	-0.152401
C53	C	-4.423738	-0.119083	-0.850513
N54	N	-4.564646	-0.122869	-0.819626
H55	H	-4.415926	-0.116433	-1.011118
H56	H	-4.222056	-0.553343	-0.301661
C57	C	-3.709456	-0.099846	-1.007097
N58	N	-3.568548	-0.096048	-1.037986
H59	H	-3.484229	-0.100523	-0.619070
H60	H	-3.978130	-0.701591	-0.371907
C61	C	-4.197106	-0.116885	-0.646697
N62	N	-4.356640	-0.120051	-0.684280
C63	C	-4.149909	-0.118463	-0.473142
N64	N	-4.290825	-0.122254	-0.442260
H65	H	-4.159591	-0.114697	-0.731310
C66	C	-3.839708	-0.503731	-0.088349
N67	N	-3.889778	-0.472640	-0.033054
H68	H	-3.717279	-0.102532	-0.846507
C69	C	-3.540347	-0.505955	-0.151019
N70	N	-3.364933	-0.476560	-0.142938
H71	H	-4.182807	-0.534738	-0.192680
H72	H	-4.247658	-0.679713	-0.191723
H73	H	-3.443422	-0.101858	-0.469117
H74	H	-3.699766	-0.103605	-0.748931
