data_functionalizedCrystal
_audit_creation_method	'MofGen! by Chris Wilmer'
_symmetry_space_group_name_H-M	'P1'
_symmetry_Int_Tables_number	1
_symmetry_cell_setting	triclinic
loop_
_symmetry_equiv_pos_as_xyz
  x,y,z
_cell_length_a	15.995350
_cell_length_b	10.723024
_cell_length_c	9.198806
_cell_angle_alpha	89.997736
_cell_angle_beta	89.999953
_cell_angle_gamma	83.980122
loop_
_atom_site_label
_atom_site_type_symbol
_atom_site_fract_x
_atom_site_fract_y
_atom_site_fract_z
O1	O	-1.111909	-0.160840	0.120765
O2	O	-0.868247	-0.180701	0.120795
O3	O	-0.995698	0.010877	0.120774
O4	O	-0.984458	-0.352418	0.120786
O5	O	-0.995689	0.010879	-0.121011
O6	O	-0.868238	-0.180700	-0.120990
O7	O	-1.111899	-0.160838	-0.121020
Cu8	Cu	-0.990068	-0.170769	-0.143082
Cu9	Cu	-0.990079	-0.170771	0.142857
O10	O	-0.984448	-0.352417	-0.120999
C11	C	-0.837043	-0.179880	-0.000094
C12	C	-0.744079	-0.177418	-0.000083
C13	C	-0.994876	0.057367	-0.000117
C14	C	-0.992428	0.195890	-0.000111
C15	C	-1.143103	-0.161660	-0.000128
C16	C	-1.236068	-0.164122	-0.000129
C17	C	-0.406280	-0.168577	-0.000113
C18	C	-0.452931	-0.032138	-0.000657
C19	C	-0.549635	-0.034601	-0.000102
C20	C	-0.573866	-0.172962	-0.000099
C21	C	-0.533171	-0.240260	0.137969
C22	C	-0.436515	-0.236832	0.138074
C23	C	-0.436182	-0.239649	-0.136881
C24	C	-0.533127	-0.239617	-0.138695
C25	C	-0.668578	-0.175448	-0.000086
C26	C	-0.311568	-0.166096	-0.000116
C27	C	-0.985271	-0.398907	-0.000105
C28	C	-0.987718	-0.537430	-0.000101
N29	N	-0.990066	-0.170767	-0.344196
C30	C	-1.063743	0.271783	-0.000118
C31	C	-1.061215	0.414954	-0.000112
C32	C	-1.043711	-0.090154	-0.583805
C33	C	-1.043700	-0.090155	-0.416393
N34	N	-0.990087	-0.170763	0.343971
H35	H	-0.434091	0.022400	-0.099671
H36	H	-0.944173	-0.239781	-0.593924
H37	H	-1.089607	-0.021138	-0.354284
H38	H	-0.926664	0.397366	-0.000105
N39	N	-1.137808	0.496752	-0.000090
N40	N	-1.189093	0.492270	0.101827
H41	H	-1.243189	0.550043	0.101845
N42	N	-1.142687	0.220335	-0.000164
N43	N	-1.193452	0.244735	-0.102097
H44	H	-1.249209	0.208402	-0.102134
N45	N	-0.913491	0.247358	-0.000115
N46	N	-0.895271	0.316721	-0.102029
H47	H	-0.839520	0.353070	-0.102033
N48	N	-0.410088	-0.183711	-0.268172
N49	N	-0.333653	-0.178520	-0.292547
H50	H	-0.315222	-0.139005	-0.385266
N51	N	-1.101324	-0.003598	-0.661725
N52	N	-1.101258	-0.003730	-0.797609
H53	H	-1.141952	0.057398	-0.852640
H54	H	-0.944151	-0.239779	-0.406295
H55	H	-0.577756	0.018298	-0.099075
H56	H	-0.433029	0.022148	0.097807
H57	H	-0.577191	0.018655	0.099040
H58	H	-0.417929	-0.187757	0.241281
H59	H	-0.404843	-0.337003	0.144342
H60	H	-0.547880	-0.341911	0.143105
H61	H	-0.561281	-0.193519	0.240719
N62	N	-0.567013	-0.177944	-0.266821
N63	N	-0.558616	-0.064710	-0.287412
H64	H	-0.582553	-0.021140	-0.377893
N65	N	-0.553134	-0.366191	-0.149145
N66	N	-0.597940	-0.409529	-0.054186
H67	H	-0.612070	-0.498927	-0.061555
H68	H	-0.404998	-0.340245	-0.137812
