data_functionalizedCrystal
_audit_creation_method	'MofGen! by Chris Wilmer'
_symmetry_space_group_name_H-M	'P1'
_symmetry_Int_Tables_number	1
_symmetry_cell_setting	triclinic
loop_
_symmetry_equiv_pos_as_xyz
  x,y,z
_cell_length_a	18.426585
_cell_length_b	23.196402
_cell_length_c	23.196402
_cell_angle_alpha	90.005244
_cell_angle_beta	60.005504
_cell_angle_gamma	59.998591
loop_
_atom_site_label
_atom_site_type_symbol
_atom_site_fract_x
_atom_site_fract_y
_atom_site_fract_z
Zr1	Zr	0.794338	0.555361	-0.075626
O2	O	0.945737	0.463301	-0.167672
O3	O	0.642938	0.583583	-0.047412
O4	O	0.794335	0.583572	-0.167676
O5	O	0.794342	0.463320	0.047462
O6	O	0.794333	0.678443	-0.167675
O7	O	0.794340	0.463312	-0.047408
O8	O	0.523512	0.678462	0.047455
O9	O	1.065164	0.463300	-0.167669
O10	O	0.705210	0.666420	-0.035375
O11	O	0.705212	0.595624	0.035425
O12	O	0.883463	0.595612	-0.106170
O13	O	0.883466	0.524816	-0.035370
Zr14	Zr	0.794338	0.706683	0.075682
Zr15	Zr	0.794335	0.706670	-0.075625
Zr16	Zr	0.794341	0.555374	0.075681
Zr17	Zr	0.984809	0.555360	-0.075620
Zr18	Zr	0.603866	0.706683	0.075676
O19	O	0.945737	0.678461	0.047468
O20	O	0.945733	0.678443	-0.167671
O21	O	0.945741	0.463319	0.047466
O22	O	0.642938	0.798743	0.167728
O23	O	0.642934	0.798724	-0.047410
O24	O	0.642942	0.583601	0.167727
O25	O	0.794333	0.798724	-0.047406
O26	O	0.794340	0.678472	0.167732
O27	O	0.794342	0.583600	0.167731
O28	O	0.794335	0.798732	0.047464
O29	O	1.065161	0.583571	-0.167668
O30	O	0.523514	0.678473	0.167724
O31	O	0.523512	0.798743	0.167724
O32	O	0.523509	0.798733	0.047456
O33	O	1.065166	0.463310	-0.047400
O34	O	1.065164	0.583581	-0.047399
O35	O	0.705212	0.666432	0.106226
O36	O	0.705210	0.737227	0.035426
O37	O	0.883463	0.666419	-0.035369
O38	O	0.883466	0.595624	0.035430
C39	C	0.556087	0.631023	0.000021
C40	C	0.475227	0.631023	0.000018
C41	C	0.794341	0.631038	0.189289
C42	C	0.794343	0.631043	0.253523
C43	C	0.794334	0.820286	0.000029
C44	C	0.794333	0.884521	0.000030
C45	C	0.179117	0.631019	0.000039
C46	C	0.261504	0.631018	0.000035
C47	C	0.327170	0.631020	0.000028
C48	C	0.409561	0.631021	0.000025
C49	C	1.032588	0.631021	0.000035
C50	C	1.113449	0.631020	0.000037
C51	C	0.794341	0.441757	0.000027
C52	C	0.794343	0.377523	0.000026
C53	C	0.701289	0.951655	0.036988
C54	C	0.701288	1.012010	0.036984
C55	C	0.794335	1.005227	0.000032
C56	C	0.887391	0.938081	-0.036934
C57	C	0.887390	0.877728	-0.036936
C58	C	0.865623	1.072528	0.005313
C59	C	0.865621	1.132882	0.005320
C60	C	0.794343	1.191375	0.000032
C61	C	0.723051	1.189513	-0.005248
C62	C	0.723050	1.129160	-0.005249
C63	C	0.794347	1.070666	0.000029
C64	C	0.701292	1.323955	0.036988
C65	C	0.701294	1.384310	0.036980
C66	C	0.887400	1.310379	-0.036934
C67	C	0.887395	1.250026	-0.036930
C68	C	0.794338	1.256819	0.000035
C69	C	0.794334	0.631006	-0.189234
C70	C	0.794333	0.631000	-0.253467
C71	C	0.887386	0.594085	0.246744
C72	C	0.887388	0.594075	0.307098
C73	C	0.794340	0.631036	0.374231
C74	C	0.701284	0.667996	0.381008
C75	C	0.701285	0.667999	0.320654
C76	C	0.723052	0.692939	0.498167
C77	C	0.723055	0.692938	0.558518
C78	C	0.794332	0.631024	0.560385
C79	C	0.865624	0.569113	0.501886
C80	C	0.865626	0.569117	0.441532
C81	C	0.794328	0.631036	0.439679
C82	C	0.887384	0.594052	0.619046
C83	C	0.887381	0.594039	0.679403
C84	C	0.701275	0.667967	0.753313
C85	C	0.701280	0.667973	0.692957
C86	C	0.794337	0.631017	0.625826
C87	C	0.556083	0.820287	0.000022
C88	C	0.475222	0.884522	0.000020
C89	C	0.556091	0.631039	0.189282
C90	C	0.475232	0.631044	0.253513
C91	C	0.556087	0.820303	0.189284
C92	C	0.475227	0.884543	0.253515
C93	C	1.032588	0.441740	-0.189228
C94	C	1.113449	0.377500	-0.253459
C95	C	1.032592	0.441756	0.000034
C96	C	1.113453	0.377521	0.000036
C97	C	1.032585	0.631005	-0.189227
C98	C	1.113444	0.630999	-0.253458
C99	C	0.437248	0.877727	-0.036944
C100	C	0.361281	0.938076	-0.036960
C101	C	0.323283	1.005221	-0.000007
C102	C	0.361264	1.012015	0.036958
C103	C	0.437235	0.951666	0.036970
C104	C	0.437260	0.668008	0.320641
C105	C	0.361295	0.668011	0.380999
C106	C	0.323298	0.631054	0.374228
C107	C	0.361278	0.594086	0.307093
C108	C	0.437247	0.594079	0.246737
C109	C	0.437253	0.951672	0.246722
C110	C	0.361286	1.012039	0.307069
C111	C	0.323291	1.005275	0.374208
C112	C	0.361272	0.938139	0.380999
C113	C	0.437242	0.877774	0.320653
C114	C	1.151432	0.310371	-0.246667
C115	C	1.227422	0.250005	-0.307013
C116	C	1.265421	0.256769	-0.374152
C117	C	1.227435	0.323905	-0.380944
C118	C	1.151452	0.384269	-0.320598
C119	C	1.151435	0.384317	0.036994
C120	C	1.227423	0.323967	0.036993
C121	C	1.265424	0.256823	0.000038
C122	C	1.227439	0.250029	-0.036925
C123	C	1.151457	0.310378	-0.036928
C124	C	1.151416	0.667963	-0.246664
C125	C	1.227381	0.667972	-0.307010
C126	C	1.265378	0.631011	-0.374150
C127	C	1.227398	0.594046	-0.380942
C128	C	1.151429	0.594042	-0.320596
H129	H	0.625515	0.957192	0.067086
C130	C	0.944036	1.008189	0.011134
N131	N	1.003095	0.959731	0.015519
C132	C	0.944032	0.501012	0.377191
N133	N	1.003084	0.449714	0.328732
C134	C	0.644632	0.761041	0.622862
N135	N	0.585561	0.812338	0.671325
C136	C	0.989752	1.176174	-0.077582
N137	N	1.066852	1.120547	-0.108204
C138	C	0.989747	0.553397	0.545200
N139	N	1.066849	0.522775	0.489580
C140	C	0.239720	0.631075	0.440629
N141	N	0.176764	0.631098	0.490645
C142	C	1.109666	0.458110	-0.328082
N143	N	1.078195	0.513726	-0.333724
H144	H	0.261422	1.054355	-0.000022
H145	H	1.258297	0.698072	-0.301466
C146	C	1.349001	0.190443	0.000052
N147	N	1.411949	0.140449	0.000068
H148	H	1.258391	0.195352	-0.067013
C149	C	1.109675	0.302891	-0.077578
N150	N	1.078206	0.297246	-0.108197
C151	C	0.478997	0.553423	0.172898
N152	N	0.510437	0.522799	0.117283
C153	C	1.109628	0.708630	-0.172816
N154	N	1.078153	0.739267	-0.117196
H155	H	1.327238	0.631020	-0.423281
H156	H	0.468178	0.957193	0.192060
H157	H	1.120497	0.304850	-0.192004
C158	C	0.319511	1.085881	0.299582
N159	N	0.288046	1.141498	0.293941
H160	H	0.625518	1.066681	0.067093
H161	H	0.330315	1.066692	0.067044
H162	H	0.261431	1.054433	0.423340
H163	H	0.468185	0.823060	-0.067045
H164	H	0.923685	1.134386	0.009604
C165	C	1.269191	0.176162	-0.299527
N166	N	1.300650	0.120546	-0.293886
H167	H	1.120520	0.563938	-0.326138
H168	H	0.468151	0.823117	0.326194
C169	C	0.644657	1.127103	-0.011086
N170	N	0.585621	1.125550	-0.015493
C171	C	0.644632	1.253856	-0.011058
N172	N	0.585565	1.302322	-0.015429
H173	H	0.963159	0.823062	-0.067033
H174	H	1.327291	0.207610	-0.423284
H175	H	0.963161	0.563991	0.192086
C176	C	1.269170	0.553421	-0.454802
N177	N	1.300624	0.522831	-0.510435
C178	C	0.478988	0.959153	0.077644
N179	N	0.510431	0.964797	0.108283
C180	C	0.944030	0.501001	0.503935
N181	N	1.003082	0.449701	0.505482
C182	C	0.319465	0.553439	0.299657
N183	N	0.287964	0.522829	0.294058
H184	H	0.625519	1.329487	0.067084
H185	H	0.330366	0.932531	-0.067062
C186	C	1.109654	0.458170	0.077647
N187	N	1.078194	0.513795	0.108265
C188	C	0.989744	0.930620	-0.077581
N189	N	1.066839	0.925000	-0.108200
H190	H	0.625524	1.438976	0.067071
C191	C	1.269236	0.331333	-0.454803
N192	N	1.300717	0.336926	-0.510436
C193	C	0.989747	0.553421	0.299643
N194	N	1.066844	0.522802	0.294026
C195	C	1.269184	0.331456	0.077663
N196	N	1.300633	0.337099	0.108298
C197	C	0.644644	0.761055	0.496120
N198	N	0.585591	0.812360	0.494578
C199	C	0.598932	0.708720	0.454856
N200	N	0.521837	0.739417	0.510480
H201	H	0.963152	0.563939	0.673877
C202	C	0.598924	0.708635	0.700416
N203	N	0.521824	0.739261	0.706037
C204	C	0.598921	0.708603	0.827157
N205	N	0.521825	0.739201	0.882781
H206	H	0.468188	0.698103	0.326167
H207	H	0.963161	1.304855	-0.067025
H208	H	0.625516	0.698096	0.326179
H209	H	0.330381	0.698117	0.435656
H210	H	0.330325	0.932642	0.435672
