data_functionalizedCrystal
_audit_creation_method	'MofGen! by Chris Wilmer'
_symmetry_space_group_name_H-M	'P1'
_symmetry_Int_Tables_number	1
_symmetry_cell_setting	triclinic
loop_
_symmetry_equiv_pos_as_xyz
  x,y,z
_cell_length_a	27.732064
_cell_length_b	27.732048
_cell_length_c	12.996460
_cell_angle_alpha	89.988908
_cell_angle_beta	90.002042
_cell_angle_gamma	82.646040
loop_
_atom_site_label
_atom_site_type_symbol
_atom_site_fract_x
_atom_site_fract_y
_atom_site_fract_z
O1	O	0.640923	0.057556	-0.085394
O2	O	0.500130	0.066293	-0.085438
O3	O	0.574899	-0.008472	-0.085395
O4	O	0.566154	0.132321	-0.085437
O5	O	0.574891	-0.008476	0.085739
O6	O	0.500123	0.066289	0.085696
O7	O	0.640915	0.057552	0.085740
Cu8	Cu	0.570518	0.061920	0.101344
Cu9	Cu	0.570527	0.061925	-0.101042
O10	O	0.566146	0.132317	0.085697
C11	C	0.482120	0.066106	0.000123
C12	C	0.428465	0.065551	0.000108
C13	C	0.051392	0.017583	0.000180
C14	C	0.253053	0.019630	0.000153
O15	O	0.284305	-0.017591	0.000203
N16	N	0.272180	0.063964	0.000135
C17	C	0.240889	0.107790	0.000131
O18	O	0.261785	0.145546	0.000126
C19	C	0.039230	0.105743	0.000166
C20	C	0.020105	0.061406	0.000173
C21	C	0.032267	-0.026750	0.000189
C22	C	-0.018145	-0.027261	0.000190
C23	C	-0.049432	0.016561	0.000183
C24	C	-0.030307	0.060895	0.000174
C25	C	0.007940	0.149568	0.000169
C26	C	-0.042478	0.149053	0.000180
C27	C	-0.061602	0.104716	0.000188
C28	C	-0.112006	0.104206	0.000168
N29	N	-0.131134	0.059872	0.000186
C30	C	-0.099846	0.016049	0.000193
C31	C	0.346763	0.108861	0.000111
C32	C	0.397178	0.109373	0.000100
C33	C	0.409338	0.021213	0.000124
C34	C	0.358923	0.020701	0.000127
C35	C	0.327636	0.064527	0.000129
C36	C	-0.205716	0.014979	0.000195
C37	C	-0.256133	0.014472	0.000192
C38	C	-0.268289	0.102632	0.000174
C39	C	-0.217876	0.103140	0.000171
C40	C	-0.186590	0.059309	0.000185
O41	O	-0.143287	0.141407	0.000131
O42	O	-0.120752	-0.021701	0.000221
C43	C	0.101805	0.018094	0.000179
C44	C	0.120930	0.062428	0.000171
C45	C	0.089642	0.106250	0.000163
C46	C	0.171344	0.062940	0.000160
C47	C	0.202631	0.019117	0.000167
C48	C	0.183504	-0.025217	0.000185
C49	C	0.133092	-0.025728	0.000186
C50	C	0.108770	0.150585	0.000146
C51	C	0.159183	0.151092	0.000143
C52	C	0.190470	0.107270	0.000151
C53	C	0.574712	-0.026481	0.000174
C54	C	0.574159	-0.080136	0.000183
C55	C	0.614862	-0.418948	0.000143
C56	C	0.612811	-0.620608	0.000128
O57	O	0.650032	-0.651862	0.000094
N58	N	0.568476	-0.639735	0.000115
C59	C	0.524651	-0.608442	0.000099
O60	O	0.486895	-0.629338	0.000077
C61	C	0.526703	-0.406784	0.000107
C62	C	0.571040	-0.387660	0.000130
C63	C	0.659196	-0.399824	0.000165
C64	C	0.659709	-0.349412	0.000174
C65	C	0.615887	-0.318124	0.000161
C66	C	0.571553	-0.337248	0.000139
C67	C	0.482878	-0.375493	0.000083
C68	C	0.483395	-0.325075	0.000083
C69	C	0.527733	-0.305952	0.000106
C70	C	0.528243	-0.255548	0.000136
N71	N	0.572578	-0.236422	0.000149
C72	C	0.616400	-0.267710	0.000161
C73	C	0.523577	-0.714317	0.000097
C74	C	0.523064	-0.764731	0.000097
C75	C	0.611225	-0.776893	0.000124
C76	C	0.611737	-0.726478	0.000131
C77	C	0.567912	-0.695190	0.000110
C78	C	0.617472	-0.161841	0.000182
C79	C	0.617981	-0.111424	0.000196
C80	C	0.529821	-0.099266	0.000163
C81	C	0.529312	-0.149679	0.000155
C82	C	0.573142	-0.180965	0.000161
O83	O	0.491043	-0.224267	0.000158
O84	O	0.654151	-0.246805	0.000160
C85	C	0.614350	-0.469360	0.000133
C86	C	0.570016	-0.488484	0.000111
C87	C	0.526194	-0.457196	0.000098
C88	C	0.569503	-0.538899	0.000111
C89	C	0.613325	-0.570187	0.000124
C90	C	0.657660	-0.551060	0.000137
C91	C	0.658172	-0.500648	0.000146
C92	C	0.481859	-0.476323	0.000085
C93	C	0.481351	-0.526735	0.000077
C94	C	0.525172	-0.558023	0.000090
C95	C	0.658925	0.057739	0.000176
C96	C	0.712580	0.058295	0.000185
C97	C	0.566333	0.150326	0.000125
C98	C	0.566886	0.203981	0.000110
N99	N	0.570515	0.061916	0.243691
N100	N	0.570534	0.061925	-0.243389
C101	C	0.570526	0.061925	0.663505
C102	C	0.570522	0.061925	0.546700
C103	C	0.570521	0.061921	0.453601
C104	C	0.570516	0.061920	0.336789
H105	H	0.117526	-0.061832	0.000193
C106	C	0.045024	0.201163	0.088099
C107	C	0.074383	0.198758	0.000128
H108	H	0.023798	0.230907	0.088083
H109	H	0.026416	0.174693	0.088102
H110	H	0.064949	0.199528	0.147772
H111	H	0.054458	0.200390	-0.059546
H112	H	0.092993	0.225236	0.000116
H113	H	0.447706	-0.299603	0.000064
C114	C	0.477598	-0.199308	-0.087844
C115	C	0.480578	-0.170705	0.000139
H116	H	0.447512	-0.212289	-0.087855
H117	H	0.479630	-0.179883	-0.147503
H118	H	0.503626	-0.225156	-0.087831
H119	H	0.454551	-0.144855	0.000123
H120	H	0.478541	-0.190131	0.059813
H121	H	0.208987	-0.060899	0.000185
C122	C	0.096005	-0.077320	-0.087792
C123	C	0.066654	-0.074925	0.000190
H124	H	0.117233	-0.107063	-0.087792
H125	H	0.076079	-0.075680	-0.147452
H126	H	0.114615	-0.050846	-0.087787
H127	H	0.048041	-0.101398	0.000182
H128	H	0.086583	-0.076571	0.059865
H129	H	0.486960	-0.780296	0.000096
C130	C	0.142086	0.238185	0.000139
C131	C	0.180200	0.199833	0.000138
H132	H	0.155061	0.268274	0.000149
H133	H	0.122677	0.236156	-0.059538
H134	H	0.122675	0.236140	0.059819
H135	H	0.199609	0.201876	-0.059545
H136	H	0.199617	0.201863	0.059822
C137	C	0.395791	-0.358386	0.000026
C138	C	0.434140	-0.396504	0.000048
H139	H	0.365700	-0.371357	-0.000003
H140	H	0.397821	-0.338984	0.059705
H141	H	0.397839	-0.338969	-0.059651
H142	H	0.432093	-0.415919	0.059730
H143	H	0.432108	-0.415913	-0.059637
H144	H	0.694883	-0.425295	0.000171
C145	C	0.394258	-0.509636	0.000032
C146	C	0.432610	-0.547751	0.000048
H147	H	0.364169	-0.522611	0.000001
H148	H	0.396287	-0.490237	0.059715
H149	H	0.396304	-0.490217	-0.059642
H150	H	0.430565	-0.567169	0.059727
H151	H	0.430579	-0.567159	-0.059640
H152	H	-0.067950	0.184742	0.000186
C153	C	0.668044	-0.225597	0.088163
C154	C	0.665649	-0.196227	0.000194
H155	H	0.697785	-0.246827	0.088170
H156	H	0.666406	-0.205683	0.147831
H157	H	0.641568	-0.244205	0.088137
H158	H	0.692124	-0.177617	0.000225
H159	H	0.667292	-0.216144	-0.059489
H160	H	0.343355	-0.015402	0.000134
H161	H	0.654087	-0.095857	0.000217
H162	H	0.694276	-0.485083	0.000165
H163	H	0.434821	-0.014469	0.000126
H164	H	0.695813	-0.333847	0.000189
H165	H	0.412744	0.145477	0.000080
C166	C	0.479270	-0.035504	-0.087834
C167	C	0.481653	-0.064868	0.000142
H168	H	0.449531	-0.014269	-0.087854
H169	H	0.505747	-0.016905	-0.087810
H170	H	0.480906	-0.055424	-0.147504
H171	H	0.480021	-0.044947	0.059812
H172	H	0.455168	-0.083468	0.000127
C173	C	-0.328012	-0.025465	0.000192
C174	C	-0.277154	-0.034266	0.000199
H175	H	-0.340987	-0.055554	0.000190
H176	H	-0.338770	-0.007445	0.059863
H177	H	-0.338770	-0.007434	-0.059493
H178	H	-0.266396	-0.052294	0.059889
H179	H	-0.266392	-0.052294	-0.059478
H180	H	0.647841	-0.710911	0.000149
H181	H	0.646906	-0.802377	0.000135
H182	H	0.321293	0.144551	0.000110
H183	H	0.693341	-0.576544	0.000152
H184	H	0.487888	-0.688846	0.000080
H185	H	-0.033711	-0.063365	0.000200
C186	C	-0.198774	-0.072215	0.000197
C187	C	-0.171332	-0.033199	0.000197
H188	H	-0.177546	-0.101958	0.000185
H189	H	-0.218685	-0.070584	0.059875
H190	H	-0.218696	-0.070567	-0.059481
H191	H	-0.151412	-0.034845	0.059879
H192	H	-0.151412	-0.034831	-0.059488
C193	C	-0.234962	0.190231	0.000147
C194	C	-0.196851	0.151875	0.000156
H195	H	-0.221984	0.220318	0.000150
H196	H	-0.254371	0.188200	-0.059531
H197	H	-0.254374	0.188190	0.059826
H198	H	-0.177442	0.153913	-0.059527
H199	H	-0.177435	0.153906	0.059840
H200	H	0.446173	-0.450852	0.000073
H201	H	0.023502	0.185672	0.000158
H202	H	-0.293772	0.138311	0.000163
