data_functionalizedCrystal
_audit_creation_method	'MofGen! by Chris Wilmer'
_symmetry_space_group_name_H-M	'P1'
_symmetry_Int_Tables_number	1
_symmetry_cell_setting	triclinic
loop_
_symmetry_equiv_pos_as_xyz
  x,y,z
_cell_length_a	19.188925
_cell_length_b	19.188930
_cell_length_c	9.730217
_cell_angle_alpha	89.991643
_cell_angle_beta	89.997646
_cell_angle_gamma	83.143665
loop_
_atom_site_label
_atom_site_type_symbol
_atom_site_fract_x
_atom_site_fract_y
_atom_site_fract_z
O1	O	0.926144	0.087148	-0.114335
O2	O	0.722832	0.098887	-0.114333
O3	O	0.830355	-0.008638	-0.114307
O4	O	0.818621	0.194673	-0.114361
O5	O	0.830352	-0.008639	0.114273
O6	O	0.722829	0.098886	0.114247
O7	O	0.926141	0.087147	0.114245
Zn8	Zn	0.824485	0.093016	0.150538
Zn9	Zn	0.824489	0.093018	-0.150626
O10	O	0.818618	0.194672	0.114219
C11	C	0.696820	0.098507	-0.000043
C12	C	0.619315	0.097367	-0.000041
C13	C	0.057545	0.152831	-0.000059
C14	C	0.130368	0.153908	-0.000066
C15	C	0.175302	0.090816	-0.000047
C16	C	0.147408	0.026642	-0.000056
C17	C	0.074586	0.025568	-0.000062
N18	N	0.295978	0.045139	0.077775
N19	N	0.365156	0.046164	0.077784
C20	C	0.394712	0.094050	-0.000032
N21	N	0.352475	0.140882	-0.077839
N22	N	0.283291	0.139859	-0.077842
C23	C	0.254267	0.091974	-0.000041
C24	C	0.501561	0.159386	-0.000041
C25	C	0.574385	0.160460	-0.000058
C26	C	0.591425	0.033193	-0.000033
C27	C	0.518601	0.032121	-0.000031
C28	C	0.473673	0.095220	-0.000028
C29	C	0.829974	-0.034650	-0.000013
C30	C	0.828833	-0.112154	-0.000001
C31	C	0.891924	-0.157079	0.000005
C32	C	0.890852	-0.229903	-0.000017
C33	C	0.826686	-0.257799	-0.000018
C34	C	0.763587	-0.212864	-0.000032
C35	C	0.764660	-0.140041	-0.000023
N36	N	0.777638	-0.365803	0.077773
N37	N	0.776622	-0.434982	0.077768
C38	C	0.823448	-0.477207	-0.000046
N39	N	0.871338	-0.447642	-0.077837
N40	N	0.872356	-0.378458	-0.077826
C41	C	0.825515	-0.336761	-0.000028
C42	C	0.885381	-0.601097	-0.000065
C43	C	0.884307	-0.673922	-0.000096
C44	C	0.757040	-0.656880	-0.000096
C45	C	0.758116	-0.584057	-0.000080
C46	C	0.822289	-0.556170	-0.000058
C47	C	0.952154	0.087527	-0.000049
C48	C	1.029658	0.088666	-0.000059
C49	C	0.819000	0.220684	-0.000078
C50	C	0.820140	0.298188	-0.000099
N51	N	0.824487	0.093015	0.356075
N52	N	0.824492	0.093013	-0.356163
C53	C	0.919737	-0.002171	0.356088
C54	C	0.967366	-0.049762	0.428035
C55	C	0.967374	-0.049763	0.571915
C56	C	0.919744	-0.002168	0.643851
C57	C	0.872115	0.045423	0.571904
C58	C	0.872114	0.045419	0.428021
C59	C	0.776862	0.140604	0.571891
C60	C	0.776858	0.140609	0.428011
C61	C	0.729233	0.188199	0.643827
C62	C	0.681606	0.235794	0.571880
C63	C	0.681601	0.235793	0.427992
C64	C	0.729228	0.188200	0.356064
H65	H	0.051883	-0.026685	-0.000063
O66	O	0.601388	0.222840	-0.000248
C67	C	0.609124	0.331931	-0.118723
C68	C	0.578486	0.261316	-0.118659
H69	H	0.590632	0.363053	-0.214463
H70	H	0.590581	0.363141	-0.023129
H71	H	0.668888	0.321853	-0.118662
H72	H	0.518721	0.271330	-0.118769
H73	H	0.597084	0.230129	-0.214245
O74	O	0.491592	-0.030254	-0.000198
C75	C	0.483847	-0.139336	-0.118638
C76	C	0.514493	-0.068725	-0.118598
H77	H	0.502338	-0.170453	-0.214369
H78	H	0.502385	-0.170553	-0.023035
H79	H	0.424083	-0.129251	-0.118577
H80	H	0.574258	-0.078745	-0.118707
H81	H	0.495900	-0.037530	-0.214193
O82	O	0.919809	-0.002281	0.216324
C83	C	0.972105	-0.054471	0.009854
C84	C	0.972086	-0.054433	0.168136
H85	H	1.014377	-0.096621	-0.029155
H86	H	0.918618	-0.065853	-0.029279
H87	H	0.983364	-0.000923	-0.029183
H88	H	0.960856	-0.107965	0.207290
H89	H	1.025577	-0.043011	0.207175
O90	O	0.457841	0.220630	-0.000238
C91	C	0.365763	0.293294	-0.118717
C92	C	0.415221	0.223903	-0.118648
H93	H	0.331302	0.295969	-0.214455
H94	H	0.331194	0.295980	-0.023121
H95	H	0.398219	0.339330	-0.118664
H96	H	0.382819	0.177827	-0.118749
H97	H	0.449792	0.221278	-0.214235
H98	H	0.628010	-0.018178	-0.000028
O99	O	1.013564	-0.096073	0.358184
C100	C	1.054915	-0.217563	0.314148
C101	C	1.002549	-0.165202	0.393330
H102	H	1.046037	-0.273464	0.342556
H103	H	1.046718	-0.209428	0.198947
H104	H	1.110798	-0.208552	0.342395
H105	H	0.946645	-0.174181	0.365199
H106	H	1.010807	-0.173350	0.508511
H107	H	0.729231	0.188198	0.238910
H108	H	0.020968	0.204211	-0.000063
O109	O	0.694665	-0.683887	0.000084
C110	C	0.585579	-0.691656	0.118536
C111	C	0.656188	-0.661007	0.118495
H112	H	0.554457	-0.673182	0.214276
H113	H	0.554365	-0.673106	0.022942
H114	H	0.595667	-0.751420	0.118460
H115	H	0.646164	-0.601242	0.118620
H116	H	0.687380	-0.679612	0.214081
H117	H	1.006155	-0.088518	0.630494
O118	O	0.701238	-0.239925	-0.000274
C119	C	0.592124	-0.247600	-0.118664
C120	C	0.662718	-0.216922	-0.118567
H121	H	0.560954	-0.229003	-0.214278
H122	H	0.602153	-0.307369	-0.118754
H123	H	0.560982	-0.229102	-0.022962
H124	H	0.693896	-0.235367	-0.214252
H125	H	0.652639	-0.157157	-0.118406
H126	H	0.944179	-0.134379	0.000018
H127	H	0.919748	-0.002177	0.761006
O128	O	0.952206	-0.273455	0.000054
C129	C	1.078549	-0.282677	-0.000002
C130	C	1.009120	-0.233279	-0.000051
H131	H	1.124582	-0.250215	-0.000116
H132	H	1.081268	-0.317192	0.095680
H133	H	1.081193	-0.317203	-0.095641
H134	H	1.006429	-0.198709	0.095524
H135	H	1.006430	-0.198813	-0.095796
O136	O	0.696782	-0.540484	-0.000251
C137	C	0.588357	-0.503599	-0.118707
C138	C	0.657788	-0.552995	-0.118663
H139	H	0.556817	-0.513686	-0.214447
H140	H	0.556718	-0.513734	-0.023113
H141	H	0.600162	-0.446765	-0.118633
H142	H	0.646047	-0.609846	-0.118785
H143	H	0.689406	-0.542799	-0.214248
H144	H	0.729238	0.188193	0.760982
O145	O	0.635274	0.282046	0.641544
C146	C	0.540820	0.376483	0.626361
C147	C	0.593242	0.324130	0.547291
H148	H	0.506833	0.410532	0.550192
H149	H	0.505992	0.346452	0.693690
H150	H	0.570863	0.411257	0.693755
H151	H	0.563256	0.289343	0.479822
H152	H	0.628069	0.354205	0.480049
O153	O	0.157350	0.216302	0.000002
C154	C	0.132770	0.342418	-0.000073
C155	C	0.102122	0.271808	-0.000121
H156	H	0.088134	0.387314	-0.000203
H157	H	0.166407	0.346140	0.095615
H158	H	0.166467	0.346071	-0.095706
H159	H	0.068394	0.268108	0.095446
H160	H	0.068525	0.268117	-0.095873
H161	H	0.642813	0.274545	0.369420
H162	H	0.183999	-0.024728	-0.000044
H163	H	0.937635	-0.578390	-0.000054
H164	H	0.713282	-0.103462	-0.000028
H165	H	0.935686	-0.710500	-0.000099
