data_functionalizedCrystal
_audit_creation_method	'MofGen! by Chris Wilmer'
_symmetry_space_group_name_H-M	'P1'
_symmetry_Int_Tables_number	1
_symmetry_cell_setting	triclinic
loop_
_symmetry_equiv_pos_as_xyz
  x,y,z
_cell_length_a	15.995292
_cell_length_b	15.995300
_cell_length_c	13.596369
_cell_angle_alpha	89.998558
_cell_angle_beta	89.993500
_cell_angle_gamma	83.470212
loop_
_atom_site_label
_atom_site_type_symbol
_atom_site_fract_x
_atom_site_fract_y
_atom_site_fract_z
O1	O	1.110997	0.107699	-0.081808
O2	O	0.867213	0.121077	-0.081803
O3	O	0.995791	-0.007504	-0.081810
O4	O	0.982419	0.236280	-0.081800
O5	O	0.995778	-0.007511	0.081772
O6	O	0.867200	0.121071	0.081780
O7	O	1.110984	0.107692	0.081775
Zn8	Zn	0.989090	0.114380	0.107750
Zn9	Zn	0.989107	0.114389	-0.107778
O10	O	0.982406	0.236273	0.081783
C11	C	0.836011	0.120530	-0.000011
C12	C	0.743058	0.118897	-0.000009
C13	C	0.995239	-0.038703	-0.000022
C14	C	0.993604	-0.131655	-0.000032
C15	C	0.990585	-0.301837	-0.000022
C16	C	1.082135	-0.349322	-0.000026
C17	C	1.080465	-0.446010	0.000349
C18	C	0.987613	-0.469393	-0.000014
C19	C	0.942184	-0.428253	0.093216
C20	C	0.944501	-0.331620	0.093291
C21	C	0.943160	-0.331337	-0.092740
C22	C	0.943168	-0.428281	-0.093962
C23	C	0.985928	-0.564088	-0.000006
C24	C	0.992266	-0.207142	-0.000024
C25	C	0.405321	0.112896	-0.000021
C26	C	0.428617	0.205702	-0.000382
C27	C	0.525292	0.207466	-0.000009
C28	C	0.572876	0.115874	-0.000016
C29	C	0.543776	0.069471	0.093393
C30	C	0.446985	0.068354	0.093467
C31	C	0.447145	0.066466	-0.092558
C32	C	0.543637	0.069905	-0.093788
C33	C	0.667572	0.117552	-0.000010
C34	C	0.310626	0.111215	-0.000020
C35	C	1.142186	0.108240	-0.000019
C36	C	1.235139	0.109872	-0.000027
C37	C	0.982958	0.267472	-0.000008
C38	C	0.984593	0.360424	-0.000004
N39	N	0.989085	0.114374	0.254842
N40	N	0.989119	0.114389	-0.254870
C41	C	0.989106	0.114390	0.656133
C42	C	0.989098	0.114388	0.544481
C43	C	0.989096	0.114382	0.455491
C44	C	0.989087	0.114379	0.343832
H45	H	1.116161	-0.474479	-0.066467
H46	H	0.432447	0.000307	0.097706
H47	H	0.973347	-0.456615	0.162859
Br48	Br	0.828468	-0.451724	0.098566
H49	H	0.977229	-0.313310	0.163245
H50	H	0.877274	-0.299333	0.097271
H51	H	0.875657	-0.299552	-0.093628
Br52	Br	0.399941	0.114826	-0.210562
H53	H	0.576619	0.003053	-0.099434
H54	H	0.973305	-0.310839	-0.163427
H55	H	0.400619	0.241477	-0.067370
H56	H	0.543683	0.244020	0.067067
Br57	Br	0.998457	-0.473858	-0.208926
H58	H	0.575656	0.002071	0.096862
H59	H	0.544317	0.243802	-0.066970
H60	H	0.562206	0.103692	-0.162891
Br61	Br	0.380229	0.264996	0.110641
H62	H	1.118927	-0.330849	-0.066882
H63	H	0.563823	0.101689	0.162912
Br64	Br	0.830374	-0.453922	-0.103884
H65	H	0.420157	0.100485	0.163296
Br66	Br	0.423851	-0.047393	-0.093615
H67	H	1.118398	-0.329664	0.066679
H68	H	1.115996	-0.473867	0.067569
