data_functionalizedCrystal
_audit_creation_method	'MofGen! by Chris Wilmer'
_symmetry_space_group_name_H-M	'P1'
_symmetry_Int_Tables_number	1
_symmetry_cell_setting	triclinic
loop_
_symmetry_equiv_pos_as_xyz
  x,y,z
_cell_length_a	19.288864
_cell_length_b	9.065218
_cell_length_c	17.766277
_cell_angle_alpha	89.995554
_cell_angle_beta	89.976791
_cell_angle_gamma	84.076066
loop_
_atom_site_label
_atom_site_type_symbol
_atom_site_fract_x
_atom_site_fract_y
_atom_site_fract_z
O1	O	0.922782	0.184032	-0.062833
O2	O	0.720714	0.208857	-0.062781
O3	O	0.825925	-0.018344	-0.062807
O4	O	0.817571	0.411233	-0.062808
O5	O	0.825906	-0.018356	0.062382
O6	O	0.720695	0.208846	0.062407
O7	O	0.922763	0.184020	0.062355
Cu8	Cu	0.821727	0.196432	0.073812
Cu9	Cu	0.821750	0.196445	-0.074238
O10	O	0.817552	0.411222	0.062381
C11	C	0.694822	0.208053	-0.000180
C12	C	0.617700	0.205655	-0.000161
C13	C	0.574039	0.338966	-0.000173
C14	C	0.501574	0.336713	-0.000181
C15	C	0.472774	0.201142	-0.000192
C16	C	0.516445	0.067812	-0.000176
C17	C	0.588908	0.070069	-0.000160
C18	C	0.363691	0.094571	-0.044077
C19	C	0.291229	0.092320	-0.044097
C20	C	0.249274	0.194176	-0.000238
C21	C	0.279789	0.298308	0.043632
C22	C	0.352252	0.300565	0.043648
C23	C	0.394201	0.198680	-0.000209
C24	C	0.127038	0.325054	-0.000258
C25	C	0.054572	0.322796	-0.000262
C26	C	0.069445	0.053891	-0.000264
C27	C	0.141909	0.056153	-0.000253
C28	C	0.170701	0.191739	-0.000253
C29	C	0.825112	-0.073309	-0.000213
C30	C	0.822712	-0.237067	-0.000216
C31	C	0.948655	0.184825	-0.000247
C32	C	1.025777	0.187223	-0.000272
C33	C	0.818365	0.466186	-0.000214
C34	C	0.820765	0.629945	-0.000216
N35	N	0.821717	0.196421	0.177942
N36	N	0.821766	0.196444	-0.178368
C37	C	0.868320	0.095866	0.217318
C38	C	0.868324	0.095859	0.296120
C39	C	0.821732	0.196433	0.335543
C40	C	0.775120	0.296996	0.296158
C41	C	0.775113	0.296991	0.217358
C42	C	0.813476	0.330849	0.460382
C43	C	0.813489	0.330856	0.539181
C44	C	0.821750	0.196451	0.578589
C45	C	0.830014	0.062032	0.539189
C46	C	0.830007	0.062026	0.460389
C47	C	0.821734	0.196450	0.420989
C48	C	0.868360	0.095879	0.703411
C49	C	0.868359	0.095871	0.782214
C50	C	0.775159	0.297021	0.782251
C51	C	0.775156	0.297017	0.703449
C52	C	0.821761	0.196448	0.664034
H53	H	0.492991	-0.042571	-0.000196
O54	O	0.239121	0.397576	0.086144
C55	C	0.248941	0.542801	0.063103
H56	H	0.269017	0.540388	0.002711
H57	H	0.197224	0.615758	0.066328
H58	H	0.288521	0.589689	0.101639
H59	H	0.019024	0.431359	-0.000267
H60	H	0.466018	0.445275	-0.000189
H61	H	0.266390	0.007536	-0.079822
O62	O	0.729801	0.394575	0.820502
C63	C	0.660898	0.370986	0.801269
H64	H	0.659818	0.252873	0.779615
H65	H	0.626151	0.388147	0.853108
H66	H	0.641009	0.452862	0.755534
H67	H	0.906306	0.013985	0.671318
H68	H	0.737210	0.378905	0.671387
O69	O	0.381871	0.401559	0.086381
C70	C	0.365183	0.381568	0.162728
H71	H	0.351760	0.263298	0.171769
H72	H	0.411759	0.402195	0.199307
H73	H	0.318537	0.463044	0.178843
O74	O	0.729831	0.394493	0.334534
C75	C	0.686485	0.315718	0.380132
H76	H	0.713426	0.200131	0.391929
H77	H	0.675890	0.377357	0.435547
H78	H	0.635088	0.305966	0.349795
H79	H	0.150482	0.435456	-0.000247
H80	H	0.045997	-0.056494	-0.000320
H81	H	0.836741	-0.047414	0.571274
O82	O	0.184226	-0.073483	-0.000283
C83	C	0.143270	-0.193630	-0.000275
H84	H	0.089449	-0.155822	-0.023987
H85	H	0.169427	-0.287005	-0.036617
H86	H	0.137817	-0.235216	0.059782
H87	H	0.737162	0.378876	0.185297
O88	O	0.404338	-0.004433	-0.086759
C89	C	0.361870	-0.096831	-0.125475
H90	H	0.306888	-0.038236	-0.130776
H91	H	0.384274	-0.122161	-0.183995
H92	H	0.360107	-0.204810	-0.092964
O93	O	0.631224	-0.059572	-0.000187
C94	C	0.590270	-0.179720	-0.000176
H95	H	0.536448	-0.141915	-0.023884
H96	H	0.616426	-0.273095	-0.036519
H97	H	0.584821	-0.221306	0.059882
H98	H	0.906266	0.013973	0.185229
O99	O	0.913659	-0.001888	0.334264
C100	C	0.954775	-0.090686	0.282577
H101	H	0.955938	-0.030213	0.226401
H102	H	1.010099	-0.113493	0.305321
H103	H	0.931535	-0.200155	0.274215
O104	O	0.838005	-0.068672	0.422232
C105	C	0.845317	-0.187309	0.473904
H106	H	0.821145	-0.149202	0.530089
H107	H	0.817722	-0.283293	0.451155
H108	H	0.902996	-0.225365	0.482251
O109	O	0.601917	0.470770	-0.000270
C110	C	0.579730	0.551983	-0.065122
H111	H	0.529248	0.512090	-0.086748
H112	H	0.570428	0.674900	-0.050544
H113	H	0.621570	0.534631	-0.110513
H114	H	0.906307	0.013978	0.814274
O115	O	0.805424	0.461554	0.577334
C116	C	0.798138	0.580183	0.525656
H117	H	0.778795	0.539476	0.469499
H118	H	0.758992	0.672200	0.548442
H119	H	0.850732	0.624800	0.517241
H120	H	0.806737	0.440305	0.428302
