data_functionalizedCrystal
_audit_creation_method	'MofGen! by Chris Wilmer'
_symmetry_space_group_name_H-M	'P1'
_symmetry_Int_Tables_number	1
_symmetry_cell_setting	triclinic
loop_
_symmetry_equiv_pos_as_xyz
  x,y,z
_cell_length_a	14.044220
_cell_length_b	10.723024
_cell_length_c	13.101018
_cell_angle_alpha	86.607993
_cell_angle_beta	86.331207
_cell_angle_gamma	91.171627
loop_
_atom_site_label
_atom_site_type_symbol
_atom_site_fract_x
_atom_site_fract_y
_atom_site_fract_z
O1	O	1.264843	-0.294748	-0.085208
O2	O	1.598177	0.038586	0.248126
O3	O	1.931510	0.371919	0.581459
O4	O	0.988804	-0.283884	-0.085210
O5	O	1.322137	0.049449	0.248123
O6	O	1.655470	0.382783	0.581456
O7	O	1.133190	-0.108377	-0.085205
O8	O	1.466524	0.224956	0.248128
O9	O	1.799857	0.558290	0.581461
O10	O	1.120456	-0.470255	-0.085213
O11	O	1.453790	-0.136921	0.248120
O12	O	1.787123	0.196412	0.581454
O13	O	1.122819	-0.120980	0.085225
O14	O	1.456152	0.212353	0.418558
O15	O	1.789486	0.545687	0.751891
O16	O	0.978432	-0.296487	0.085220
O17	O	1.311765	0.036846	0.418553
O18	O	1.645099	0.370180	0.751886
O19	O	1.254472	-0.307351	0.085222
O20	O	1.587805	0.025982	0.418556
O21	O	1.921138	0.359316	0.751889
Zn22	Zn	1.114805	-0.303920	0.112280
Zn23	Zn	1.448139	0.029413	0.445614
Zn24	Zn	1.781472	0.362747	0.778947
Zn25	Zn	1.128470	-0.287315	-0.112269
Zn26	Zn	1.461803	0.046018	0.221065
Zn27	Zn	1.795137	0.379352	0.554398
O28	O	1.110085	-0.482858	0.085217
O29	O	1.443418	-0.149525	0.418550
O30	O	1.776752	0.183809	0.751884
C31	C	0.948273	-0.285430	0.000004
C32	C	1.281606	0.047903	0.333338
C33	C	1.614939	0.381236	0.666671
C34	C	0.842955	-0.271246	0.000003
C35	C	1.176288	0.062088	0.333336
C36	C	1.509621	0.395421	0.666670
C37	C	1.295003	-0.305805	0.000005
C38	C	1.628336	0.027529	0.333339
C39	C	1.961670	0.360862	0.666672
C40	C	1.400321	-0.319989	-0.000000
C41	C	1.733655	0.013345	0.333333
C42	C	2.066988	0.346678	0.666666
C43	C	1.127078	-0.068086	0.000009
C44	C	1.460411	0.265247	0.333342
C45	C	1.793745	0.598581	0.666675
C46	C	1.124306	0.070746	0.000005
C47	C	1.457639	0.404079	0.333338
C48	C	1.790972	0.737412	0.666672
C49	C	1.593151	-0.345921	0.000000
C50	C	1.926485	-0.012587	0.333334
C51	C	2.259818	0.320746	0.666667
C52	C	1.650130	-0.245319	0.000003
C53	C	1.983464	0.088014	0.333336
C54	C	2.316797	0.421348	0.666669
C55	C	1.757427	-0.259748	0.000003
C56	C	2.090761	0.073585	0.333336
C57	C	2.424094	0.406919	0.666670
C58	C	1.485844	-0.331494	-0.000000
C59	C	1.819177	0.001840	0.333333
C60	C	2.152511	0.335173	0.666667
C61	C	1.116197	-0.523149	0.000001
C62	C	1.449531	-0.189815	0.333334
C63	C	1.782864	0.143518	0.666668
C64	C	1.118970	-0.661980	-0.000002
C65	C	1.452304	-0.328647	0.333331
C66	C	1.785637	0.004687	0.666665
N67	N	1.105486	-0.315253	0.265529
N68	N	1.438819	0.018081	0.598862
N69	N	1.772153	0.351414	0.932196
C70	C	1.205097	0.137646	0.000004
C71	C	1.538430	0.470979	0.333338
C72	C	1.871764	0.804312	0.666671
C73	C	1.202234	0.281136	0.000001
C74	C	1.535567	0.614469	0.333334
C75	C	1.868900	0.947802	0.666667
N76	N	1.137797	-0.275973	-0.265517
N77	N	1.471130	0.057360	0.067816
N78	N	1.804463	0.390693	0.401150
C79	C	1.150471	-0.260549	0.525440
C80	C	1.483804	0.072784	0.858773
C81	C	1.817137	0.406117	1.192107
C82	C	1.092815	-0.330673	0.474565
C83	C	1.426149	0.002661	0.807899
C84	C	1.759482	0.335994	1.141232
C85	C	1.099867	-0.322091	0.358247
C86	C	1.433201	0.011243	0.691580
C87	C	1.766534	0.344576	1.024913
C88	C	1.143420	-0.269130	0.641769
C89	C	1.476753	0.064203	0.975102
C90	C	1.810087	0.397537	1.308436
H91	H	1.624951	-0.442877	-0.000003
H92	H	1.958285	-0.109544	0.333331
H93	H	2.291618	0.223790	0.666664
N94	N	1.027347	0.261855	-0.000010
N95	N	1.360680	0.595189	0.333323
N96	N	1.694013	0.928522	0.666656
H97	H	0.971388	0.319538	-0.000014
H98	H	1.304722	0.652872	0.333320
H99	H	1.638055	0.986205	0.666653
H100	H	1.020873	0.202833	0.063172
H101	H	1.354206	0.536166	0.396505
H102	H	1.687539	0.869500	0.729838
H103	H	1.276385	0.088691	0.000011
H104	H	1.609719	0.422024	0.333345
H105	H	1.943052	0.755357	0.666678
N106	N	1.020415	-0.418736	0.532576
N107	N	1.353748	-0.085403	0.865909
N108	N	1.687081	0.247930	1.199242
H109	H	1.025575	-0.412467	0.608652
H110	H	1.358908	-0.079134	0.941985
H111	H	1.692241	0.254200	1.275318
H112	H	1.033109	-0.507181	0.513884
H113	H	1.366443	-0.173848	0.847218
H114	H	1.699776	0.159485	1.180551
H115	H	1.618333	-0.148349	-0.000070
H116	H	1.951666	0.184984	0.333264
H117	H	2.285000	0.518317	0.666597
H118	H	1.053017	0.119701	-0.000002
H119	H	1.386351	0.453034	0.333331
H120	H	1.719684	0.786367	0.666664
N121	N	1.293855	0.357303	0.000011
N122	N	1.627189	0.690637	0.333345
N123	N	1.960522	1.023970	0.666678
H124	H	1.278822	0.449010	0.000011
H125	H	1.612156	0.782344	0.333344
H126	H	1.945489	1.115677	0.666677
H127	H	1.335872	0.341537	-0.063167
H128	H	1.669205	0.674870	0.270166
H129	H	2.002539	1.008203	0.603499
H130	H	1.205124	-0.194075	0.481642
H131	H	1.538457	0.139258	0.814976
H132	H	1.871791	0.472592	1.148309
