data_functionalizedCrystal
_audit_creation_method	'MofGen! by Chris Wilmer'
_symmetry_space_group_name_H-M	'P1'
_symmetry_Int_Tables_number	1
_symmetry_cell_setting	triclinic
loop_
_symmetry_equiv_pos_as_xyz
  x,y,z
_cell_length_a	6.817900
_cell_length_b	15.301126
_cell_length_c	9.514088
_cell_angle_alpha	90.959771
_cell_angle_beta	118.843545
_cell_angle_gamma	104.177575
loop_
_atom_site_label
_atom_site_type_symbol
_atom_site_fract_x
_atom_site_fract_y
_atom_site_fract_z
V1	V	-4.221186	-0.126359	-0.501237
O2	O	-4.201232	0.004427	-0.491194
O3	O	-4.174995	-0.248966	-0.498292
O4	O	-4.255928	-0.125137	-0.719624
O5	O	-4.119739	-0.120260	-0.268330
V6	V	-4.693754	-0.110630	-0.473321
O7	O	-4.506474	-0.160861	-0.562474
O8	O	-4.858663	-0.076128	-0.412084
O9	O	-4.516738	0.011977	-0.476266
O10	O	-4.831105	-0.241416	-0.483365
O11	O	-4.912598	-0.116730	-0.706229
O12	O	-4.435806	-0.111852	-0.254935
C13	C	-4.017843	-0.278833	-0.490510
C14	C	-4.061918	-0.379071	-0.489558
C15	C	-4.267918	-0.430781	-0.497139
C16	C	-4.309325	-0.524966	-0.496254
C17	C	-4.144721	-0.567437	-0.487775
C18	C	-3.938707	-0.515721	-0.480198
C19	C	-3.897310	-0.421539	-0.481095
C20	C	-4.025001	-0.712026	-0.478325
C21	C	-4.066398	-0.806214	-0.477425
C22	C	-4.437016	-0.815453	-0.493484
C23	C	-4.395619	-0.721271	-0.494381
C24	C	-4.189605	-0.669560	-0.486801
C25	C	-4.121079	-0.120875	-0.772838
C26	C	-4.230782	-0.120687	-0.951373
C27	C	-4.337231	0.041839	-0.484044
C28	C	-4.272398	0.142076	-0.485007
C29	C	-4.233993	-0.116117	-0.201712
C30	C	-4.103528	-0.116300	-0.023175
H31	H	-4.401953	-0.396207	-0.504028
H32	H	-3.910658	-0.112696	-0.948065
O33	O	-4.461006	-0.125161	-1.040958
C34	C	-4.597512	-0.206478	-1.027136
H35	H	-4.494826	-0.258764	-0.991566
H36	H	-4.642463	-0.191655	-0.930002
C37	C	-4.950737	-0.180482	-1.234988
C38	C	-4.824623	-0.244702	-1.191314
H39	H	-5.090835	-0.204059	-1.336256
H40	H	-4.858773	-0.125695	-1.244296
H41	H	-4.988173	-0.168134	-1.154030
H42	H	-4.787164	-0.257040	-1.272260
H43	H	-4.916586	-0.299493	-1.182022
H44	H	-4.477069	-0.567065	-0.502430
O45	O	-3.696972	-0.371316	-0.473434
C46	C	-3.502515	-0.378853	-0.328560
H47	H	-3.558130	-0.398584	-0.235306
H48	H	-3.431760	-0.433506	-0.354635
C49	C	-3.242247	-0.262371	-0.375591
C50	C	-3.310550	-0.286597	-0.261050
H51	H	-3.123827	-0.205465	-0.333950
H52	H	-3.373254	-0.257295	-0.473198
H53	H	-3.183299	-0.307922	-0.397310
H54	H	-3.369522	-0.241052	-0.239349
H55	H	-3.179547	-0.291663	-0.163437
O56	O	-4.636907	-0.865747	-0.500611
C57	C	-4.580078	-0.907796	-0.360756
H58	H	-4.394787	-0.913676	-0.307073
H59	H	-4.591207	-0.864888	-0.267165
C60	C	-4.980844	-0.996524	-0.472863
C61	C	-4.753272	-1.003753	-0.406937
H62	H	-5.087683	-1.055713	-0.501346
H63	H	-5.019134	-0.968193	-0.567084
H64	H	-4.990085	-0.960763	-0.394859
H65	H	-4.744027	-1.039504	-0.484947
H66	H	-4.714985	-1.032093	-0.312730
H67	H	-4.529651	-0.686692	-0.501276
H68	H	-3.857254	-0.669926	-0.472166
H69	H	-3.932392	-0.840795	-0.470569
H70	H	-3.804693	-0.550309	-0.473305
