data_functionalizedCrystal
_audit_creation_method	'MofGen! by Chris Wilmer'
_symmetry_space_group_name_H-M	'P1'
_symmetry_Int_Tables_number	1
_symmetry_cell_setting	triclinic
loop_
_symmetry_equiv_pos_as_xyz
  x,y,z
_cell_length_a	18.215407
_cell_length_b	12.645330
_cell_length_c	12.645324
_cell_angle_alpha	89.966098
_cell_angle_beta	89.977085
_cell_angle_gamma	90.013094
loop_
_atom_site_label
_atom_site_type_symbol
_atom_site_fract_x
_atom_site_fract_y
_atom_site_fract_z
Zn1	Zn	1.125157	-0.421946	-0.599429
Zn2	Zn	1.125085	-0.599255	-0.422163
Zn3	Zn	1.002083	-0.422008	-0.422174
Zn4	Zn	1.002082	-0.599169	-0.599378
O5	O	1.063602	-0.510595	-0.510786
O6	O	1.228132	-0.445477	-0.575931
O7	O	1.108739	-0.575805	-0.273817
O8	O	1.018440	-0.273652	-0.445713
O9	O	1.228079	-0.575745	-0.445694
O10	O	1.108862	-0.273607	-0.575942
O11	O	1.018370	-0.445582	-0.273825
O12	O	0.899098	-0.445499	-0.445664
O13	O	1.018437	-0.575598	-0.747732
O14	O	0.899098	-0.575658	-0.575855
O15	O	1.108860	-0.445393	-0.747770
O16	O	1.108738	-0.747591	-0.445645
O17	O	1.018368	-0.747528	-0.575844
C18	C	0.872395	-0.510577	-0.510756
C19	C	0.790596	-0.510594	-0.510768
C20	C	0.602421	-0.578475	-0.578473
C21	C	0.525563	-0.578478	-0.578487
C22	C	0.525534	-0.442733	-0.443122
C23	C	0.602391	-0.442726	-0.443115
C24	C	0.640833	-0.510602	-0.510789
C25	C	0.487117	-0.510614	-0.510809
C26	C	0.403783	-0.510617	-0.510823
C27	C	0.724172	-0.510598	-0.510777
C28	C	1.063565	-0.786024	-0.510761
C29	C	1.063616	-0.903854	-0.510786
C30	C	1.120377	-1.071414	-0.428711
C31	C	1.120562	-0.948854	-0.428912
C32	C	1.084651	-0.948223	-0.622531
C33	C	1.085102	-1.070821	-0.622095
C34	C	0.985799	-1.071186	-0.482217
C35	C	0.986171	-0.948582	-0.479711
C36	C	1.255555	-0.510614	-0.510817
C37	C	1.337353	-0.510622	-0.510830
C38	C	1.063657	-0.510479	-0.787291
C39	C	1.063680	-0.510430	-0.905122
C40	C	1.063659	-0.234089	-0.510834
C41	C	1.063683	-0.116259	-0.510855
C42	C	1.120787	-0.428756	-1.072709
C43	C	1.120604	-0.428461	-0.950149
C44	C	0.986148	-0.480073	-0.949601
C45	C	0.986494	-0.479453	-1.072199
C46	C	1.083477	-0.622581	-1.072315
C47	C	1.085174	-0.622017	-0.949710
C48	C	1.063589	-0.510633	-0.235356
C49	C	1.063708	-0.510383	-0.117527
H50	H	0.494291	-0.633746	-0.633603
C51	C	0.964737	-0.909409	-0.368622
N52	N	0.948594	-0.879894	-0.284951
H53	H	0.633718	-0.633742	-0.633581
C54	C	1.033087	-0.708603	-0.908308
N55	N	0.993849	-0.773817	-0.877126
H56	H	0.943557	-1.100187	-0.542046
H57	H	1.142231	-0.644908	-0.920638
C58	C	1.102755	-0.908332	-0.316984
N59	N	1.089335	-0.877816	-0.232678
H60	H	1.142031	-1.099330	-0.646353
H61	H	1.044615	-0.919070	-0.685374
H62	H	0.494225	-0.387472	-0.388022
C63	C	1.102826	-1.111363	-0.316446
N64	N	1.089605	-1.141458	-0.231884
C65	C	1.198280	-0.454097	-0.909522
N66	N	1.256792	-0.473392	-0.878926
H67	H	0.941651	-0.917962	-0.535153
C68	C	1.198716	-0.454120	-1.112543
N69	N	1.257416	-0.473230	-1.142548
C70	C	0.927126	-0.557916	-0.910186
N71	N	0.882672	-0.616546	-0.880494
C72	C	0.963099	-0.370501	-0.908156
N73	N	0.945744	-0.287967	-0.876943
C74	C	0.644647	-0.368057	-0.368652
N75	N	0.676473	-0.311817	-0.312571
C76	C	1.103329	-0.317090	-1.114348
N77	N	1.090178	-0.232984	-1.145711
C78	C	1.197889	-1.112944	-0.453997
N79	N	1.256269	-1.144234	-0.473039
H80	H	1.041908	-0.683403	-1.101306
C81	C	1.198495	-0.909116	-0.454495
N82	N	1.257198	-0.879187	-0.473764
H83	H	0.969737	-0.397438	-1.100812
C84	C	1.031747	-1.110894	-0.707608
N85	N	0.991567	-1.141072	-0.772022
H86	H	1.140938	-0.917431	-0.647193
H87	H	1.107514	-0.345346	-0.920839
C88	C	0.927082	-0.556272	-1.112252
N89	N	0.882329	-0.614124	-1.142415
C90	C	0.959960	-1.113082	-0.374046
N91	N	0.940507	-1.144637	-0.292568
H92	H	1.139026	-0.650218	-1.103300
