data_functionalizedCrystal
_audit_creation_method	'MofGen! by Chris Wilmer'
_symmetry_space_group_name_H-M	'P1'
_symmetry_Int_Tables_number	1
_symmetry_cell_setting	triclinic
loop_
_symmetry_equiv_pos_as_xyz
  x,y,z
_cell_length_a	14.519731
_cell_length_b	14.519731
_cell_length_c	9.730223
_cell_angle_alpha	89.994614
_cell_angle_beta	89.996618
_cell_angle_gamma	83.688853
loop_
_atom_site_label
_atom_site_type_symbol
_atom_site_fract_x
_atom_site_fract_y
_atom_site_fract_z
O1	O	1.223863	0.120983	-0.114296
O2	O	0.955390	0.135199	-0.114298
O3	O	1.096734	-0.006145	-0.114285
O4	O	1.082519	0.262328	-0.114310
O5	O	1.096725	-0.006149	0.114295
O6	O	0.955381	0.135195	0.114281
O7	O	1.223854	0.120979	0.114284
Zn8	Zn	1.089616	0.128087	0.150575
Zn9	Zn	1.089628	0.128092	-0.150589
O10	O	1.082509	0.262324	0.114270
C11	C	0.921026	0.134531	-0.000009
C12	C	0.818645	0.132535	-0.000009
C13	C	0.735501	0.130913	-0.000015
C14	C	0.631192	0.128887	-0.000015
C15	C	0.548053	0.127278	-0.000015
C16	C	0.443738	0.125252	-0.000018
C17	C	1.096064	-0.040507	0.000006
C18	C	1.094068	-0.142887	0.000006
C19	C	1.092446	-0.226031	0.000003
C20	C	1.090419	-0.330340	-0.000007
C21	C	1.088811	-0.413479	-0.000016
C22	C	1.086785	-0.517795	-0.000024
C23	C	1.258218	0.121648	-0.000009
C24	C	1.360598	0.123644	-0.000017
C25	C	1.083180	0.296685	-0.000023
C26	C	1.085176	0.399066	-0.000033
N27	N	1.089615	0.128083	0.356111
N28	N	1.089637	0.128089	-0.356126
C29	C	1.152223	0.065522	0.428043
C30	C	1.152232	0.065522	0.571926
C31	C	1.027021	0.190653	0.571932
C32	C	1.027009	0.190647	0.428052
H33	H	1.203213	0.014578	0.630489
N34	N	1.219734	-0.001978	0.350469
H35	H	1.184415	-0.042894	0.290801
H36	H	1.260613	0.033406	0.290825
N37	N	0.959483	0.258128	0.350448
H38	H	0.918593	0.222784	0.290776
H39	H	0.919890	0.297754	0.417933
H40	H	0.976050	0.241592	0.630521
