data_functionalizedCrystal
_audit_creation_method	'MofGen! by Chris Wilmer'
_symmetry_space_group_name_H-M	'P1'
_symmetry_Int_Tables_number	1
_symmetry_cell_setting	triclinic
loop_
_symmetry_equiv_pos_as_xyz
  x,y,z
_cell_length_a	16.992701
_cell_length_b	19.188930
_cell_length_c	15.455313
_cell_angle_alpha	92.650876
_cell_angle_beta	87.136501
_cell_angle_gamma	86.905976
loop_
_atom_site_label
_atom_site_type_symbol
_atom_site_fract_x
_atom_site_fract_y
_atom_site_fract_z
O1	O	1.043332	0.145147	-0.072153
O2	O	0.815052	0.143525	-0.072154
O3	O	0.935779	0.043066	-0.072136
O4	O	0.922605	0.245606	-0.072170
O5	O	0.928875	0.048786	0.072125
O6	O	0.808148	0.149244	0.072108
O7	O	1.036428	0.150866	0.072108
Cu8	Cu	0.921658	0.150578	0.085280
Cu9	Cu	0.929822	0.143814	-0.085326
O10	O	0.915701	0.251325	0.072091
C11	C	0.782395	0.144296	-0.000023
C12	C	0.695372	0.138064	-0.000022
C13	C	0.206556	0.096189	-0.000018
C14	C	0.288322	0.102050	-0.000014
C15	C	0.319639	0.168051	-0.000029
C16	C	0.269185	0.228194	-0.000039
C17	C	0.187421	0.222332	-0.000037
C18	C	0.563153	0.192345	-0.000031
C19	C	0.644925	0.198202	-0.000035
C20	C	0.664055	0.072058	-0.000008
C21	C	0.582288	0.066202	-0.000011
C22	C	0.531841	0.126345	-0.000017
N23	N	0.403217	0.174043	-0.000027
N24	N	0.448264	0.120352	-0.000013
C25	C	0.931900	0.019890	-0.000003
C26	C	0.930619	-0.057689	0.000004
C27	C	1.001458	-0.098468	0.000008
C28	C	1.000255	-0.171363	-0.000006
C29	C	0.928209	-0.203475	-0.000006
C30	C	0.857361	-0.162686	-0.000015
C31	C	0.858566	-0.089793	-0.000010
N32	N	0.870788	-0.312755	0.049088
N33	N	0.869648	-0.382001	0.049085
C34	C	0.924574	-0.423097	-0.000024
N35	N	0.980693	-0.392332	-0.049119
N36	N	0.981836	-0.323080	-0.049112
C37	C	0.926894	-0.282514	-0.000013
C38	C	0.994113	-0.542917	-0.000036
C39	C	0.992908	-0.615813	-0.000055
C40	C	0.850012	-0.607135	-0.000056
C41	C	0.851219	-0.534241	-0.000046
C42	C	0.923272	-0.502136	-0.000031
C43	C	1.069085	0.150095	-0.000025
C44	C	1.156108	0.156327	-0.000031
C45	C	0.919580	0.274501	-0.000044
C46	C	0.920861	0.352080	-0.000057
N47	N	0.915921	0.155335	0.205275
N48	N	0.935565	0.139051	-0.205320
C49	C	0.967228	0.112674	0.250676
C50	C	0.962897	0.116279	0.341483
C51	C	0.907262	0.162548	0.386888
C52	C	0.855950	0.205210	0.341480
C53	C	0.860278	0.201602	0.250674
C54	C	0.888581	0.178105	0.658466
C55	C	0.884258	0.181712	0.749278
C56	C	0.991204	0.092779	0.749275
C57	C	0.995531	0.089178	0.658468
C58	C	0.944216	0.131837	0.613068
N59	N	0.902835	0.166235	0.479707
N60	N	0.948640	0.128146	0.520250
H61	H	0.705137	0.023093	-0.000002
H62	H	1.057942	-0.204572	-0.000006
H63	H	1.032982	0.058047	0.786248
C64	C	0.780573	-0.005716	-0.074167
C65	C	0.780693	-0.044965	-0.000011
H66	H	0.732495	0.021956	-0.074167
H67	H	0.823649	0.023836	-0.074153
H68	H	0.785483	-0.036325	-0.124471
H69	H	0.775790	-0.014356	0.050293
H70	H	0.737606	-0.074520	-0.000017
C71	C	0.747066	0.216154	0.777282
C72	C	0.823094	0.232564	0.799196
H73	H	0.709309	0.247544	0.808106
H74	H	0.742297	0.220119	0.716713
H75	H	0.738028	0.169673	0.792179
H76	H	0.832134	0.279045	0.784292
H77	H	0.827865	0.228606	0.859778
C78	C	0.808150	0.324572	0.369402
C79	C	0.794789	0.256069	0.391381
H80	H	0.770387	0.355970	0.400203
H81	H	0.859724	0.335690	0.384275
H82	H	0.803386	0.328517	0.308821
H83	H	0.799559	0.252123	0.451961
H84	H	0.743203	0.244949	0.376514
H85	H	0.670419	0.251951	-0.000035
H86	H	0.522089	0.241319	-0.000040
H87	H	0.294690	0.281933	-0.000046
C88	C	1.069062	0.028032	0.332360
C89	C	1.019307	0.069396	0.391388
H90	H	1.103894	-0.000907	0.363171
H91	H	1.038213	-0.000330	0.296965
H92	H	1.098833	0.057283	0.296920
H93	H	0.989531	0.040145	0.426824
H94	H	1.050160	0.097761	0.426798
C95	C	1.081907	-0.468894	-0.074185
C96	C	1.073309	-0.507617	-0.000033
H97	H	1.130796	-0.447099	-0.074179
H98	H	1.080877	-0.499135	-0.124486
H99	H	1.039881	-0.434176	-0.074169
H100	H	1.115332	-0.542339	-0.000052
H101	H	1.074345	-0.477374	0.050281
H102	H	0.146346	0.271304	-0.000045
C103	C	0.738751	-0.180670	-0.074181
C104	C	0.778167	-0.197982	-0.000018
H105	H	0.689861	-0.202465	-0.074187
H106	H	0.729330	-0.131427	-0.074173
H107	H	0.770328	-0.196390	-0.124480
H108	H	0.746592	-0.182258	0.050281
H109	H	0.787585	-0.247236	-0.000018
H110	H	0.791350	-0.633280	-0.000061
C111	C	0.709856	-0.532987	-0.000035
C112	C	0.773349	-0.489411	-0.000035
H113	H	0.661780	-0.505309	-0.000024
H114	H	0.714762	-0.563581	-0.050342
H115	H	0.709958	-0.559615	0.050272
H116	H	0.773250	-0.462786	-0.050346
H117	H	0.768441	-0.458804	0.050278
H118	H	1.040833	0.051502	0.621502
C119	C	1.134273	-0.617064	-0.000030
C120	C	1.070781	-0.660641	-0.000048
H121	H	1.182347	-0.644740	-0.000019
H122	H	1.134185	-0.590439	-0.050331
H123	H	1.129351	-0.586465	0.050284
H124	H	1.075699	-0.691236	-0.050366
H125	H	1.070870	-0.687277	0.050258
C126	C	1.082166	-0.018602	0.074174
C127	C	1.080657	-0.063178	0.000013
H128	H	1.131062	0.003182	0.074176
H129	H	1.040153	0.016116	0.074168
H130	H	1.076318	-0.044877	0.124474
H131	H	1.086499	-0.036902	-0.050288
H132	H	1.122681	-0.097901	0.000011
H133	H	0.818498	0.236340	0.213709
H134	H	0.846799	0.212842	0.621509
C135	C	0.201246	-0.016080	-0.074150
C136	C	0.172137	0.023637	-0.000003
H137	H	0.180002	-0.060872	-0.074134
H138	H	0.186317	0.006875	-0.124454
H139	H	0.257163	-0.021188	-0.074139
H140	H	0.116220	0.028750	-0.000017
H141	H	0.187061	0.000677	0.050314
H142	H	0.329393	0.053079	0.000000
H143	H	0.556796	0.012457	0.000001
H144	H	1.012535	0.075000	0.213714
