data_functionalizedCrystal
_audit_creation_method	'MofGen! by Chris Wilmer'
_symmetry_space_group_name_H-M	'P1'
_symmetry_Int_Tables_number	1
_symmetry_cell_setting	triclinic
loop_
_symmetry_equiv_pos_as_xyz
  x,y,z
_cell_length_a	16.109301
_cell_length_b	15.186229
_cell_length_c	16.109301
_cell_angle_alpha	89.994833
_cell_angle_beta	96.538519
_cell_angle_gamma	90.000638
loop_
_atom_site_label
_atom_site_type_symbol
_atom_site_fract_x
_atom_site_fract_y
_atom_site_fract_z
O1	O	-1.103131	-0.073176	0.106866
O2	O	-0.603131	0.426824	0.606866
O3	O	-0.861069	-0.073190	0.120165
O4	O	-0.361069	0.426810	0.620165
O5	O	-0.988749	-0.073174	-0.007515
O6	O	-0.488749	0.426826	0.492485
O7	O	-0.975450	-0.073192	0.234547
O8	O	-0.475450	0.426808	0.734547
O9	O	-0.988741	0.073284	-0.007517
O10	O	-0.488741	0.573284	0.492483
O11	O	-0.861060	0.073267	0.120164
O12	O	-0.361060	0.573267	0.620164
O13	O	-1.103122	0.073282	0.106864
O14	O	-0.603122	0.573282	0.606864
Zn15	Zn	-0.982090	0.096528	0.113514
Zn16	Zn	-0.482090	0.596528	0.613514
Zn17	Zn	-0.982101	-0.096436	0.113516
Zn18	Zn	-0.482101	0.403564	0.613516
O19	O	-0.975441	0.073265	0.234545
O20	O	-0.475441	0.573265	0.734545
C21	C	-0.830090	0.000037	0.119626
C22	C	-0.330090	0.500037	0.619626
C23	C	-0.737794	0.000032	0.118011
C24	C	-0.237794	0.500032	0.618011
C25	C	-0.988206	0.000056	-0.038491
C26	C	-0.488206	0.500056	0.461509
C27	C	-0.986591	0.000057	-0.130786
C28	C	-0.486591	0.500057	0.369214
N29	N	-0.982088	0.228220	0.113511
N30	N	-0.482088	0.728220	0.613511
C31	C	-1.134101	0.000053	0.107404
C32	C	-0.634101	0.500053	0.607404
C33	C	-1.226397	0.000052	0.109019
C34	C	-0.726397	0.500052	0.609019
C35	C	-0.515522	0.000036	0.190018
C36	C	-0.015522	0.500036	0.690018
C37	C	-0.428801	0.000042	0.188494
C38	C	0.071199	0.500042	0.688494
C39	C	-0.448676	0.000050	0.037006
C40	C	0.051324	0.500050	0.537006
C41	C	-0.535394	0.000051	0.038530
C42	C	-0.035394	0.500051	0.538530
C43	C	-0.568815	0.000039	0.115039
C44	C	-0.068815	0.500039	0.615039
C45	C	-0.395376	0.000045	0.111990
C46	C	0.104624	0.500045	0.611990
C47	C	-0.301350	0.000051	0.110337
C48	C	0.198650	0.500051	0.610337
C49	C	-0.662847	0.000035	0.116693
C50	C	-0.162847	0.500035	0.616693
N51	N	-0.982109	-0.228129	0.113512
N52	N	-0.482109	0.271871	0.613512
C53	C	-1.038644	0.453950	0.056994
C54	C	-0.538644	0.953950	0.556994
C55	C	-1.038647	0.546140	0.056992
C56	C	-0.538647	1.046140	0.556992
C57	C	-0.925547	0.546135	0.170032
C58	C	-0.425547	1.046135	0.670032
C59	C	-0.925541	0.453947	0.170030
C60	C	-0.425541	0.953947	0.670030
C61	C	-0.982094	0.407857	0.113511
C62	C	-0.482094	0.907857	0.613511
C63	C	-0.982103	0.592235	0.113512
C64	C	-0.482103	1.092235	0.613512
C65	C	-0.982105	0.692191	0.113510
C66	C	-0.482105	1.192191	0.613510
C67	C	-0.982091	0.307894	0.113512
C68	C	-0.482091	0.807894	0.613512
C69	C	-1.058599	0.000047	-0.353059
C70	C	-0.558599	0.500047	0.146941
C71	C	-1.057075	0.000040	-0.439779
C72	C	-0.557075	0.500040	0.060221
C73	C	-0.905586	0.000034	-0.419905
C74	C	-0.405586	0.500034	0.080095
C75	C	-0.907111	0.000035	-0.333186
C76	C	-0.407111	0.500035	0.166814
C77	C	-0.983620	0.000046	-0.299766
C78	C	-0.483620	0.500046	0.200234
C79	C	-0.980571	0.000038	-0.473205
C80	C	-0.480571	0.500038	0.026795
C81	C	-0.978918	0.000030	-0.567231
C82	C	-0.478918	0.500030	-0.067231
C83	C	-0.985273	0.000052	-0.205734
C84	C	-0.485273	0.500052	0.294266
C85	C	-0.975984	0.000034	0.265521
C86	C	-0.475984	0.500034	0.765521
C87	C	-0.977600	0.000027	0.357816
C88	C	-0.477600	0.500027	0.857816
H89	H	-0.542730	0.000034	0.252317
H90	H	-0.042730	0.500034	0.752317
N91	N	-0.826241	0.000034	-0.275692
N92	N	-0.326241	0.500034	0.224308
H93	H	-0.792861	-0.054258	-0.286432
H94	H	-0.292861	0.445742	0.213568
H95	H	-0.792924	0.054362	-0.286465
H96	H	-0.292924	0.554362	0.213535
N97	N	-0.371320	0.000088	0.269364
N98	N	0.128680	0.500088	0.769364
H99	H	-0.405654	0.000097	0.318060
H100	H	0.094346	0.500097	0.818060
H101	H	-0.334883	-0.054189	0.272063
H102	H	0.165117	0.445811	0.772063
H103	H	-0.421454	0.000065	-0.025285
H104	H	0.078546	0.500065	0.474715
N105	N	-0.592883	0.000064	-0.042343
N106	N	-0.092883	0.500064	0.457657
H107	H	-0.558554	0.000067	-0.091043
H108	H	-0.058554	0.500067	0.408957
H109	H	-0.629301	-0.054226	-0.045010
H110	H	-0.129301	0.445774	0.454990
N111	N	-0.864557	0.595853	0.230988
N112	N	-0.364557	1.095853	0.730988
H113	H	-0.896320	0.634092	0.267810
H114	H	-0.396320	1.134092	0.767810
H115	H	-0.828743	0.552609	0.266734
H116	H	-0.328743	1.052609	0.766734
H117	H	-1.120897	0.000054	-0.325851
H118	H	-0.620897	0.500054	0.174149
H119	H	-1.084692	0.416426	0.010972
H120	H	-0.584692	0.916426	0.510972
N121	N	-1.099647	0.595856	-0.003959
N122	N	-0.599647	1.095856	0.496041
H123	H	-1.136443	0.634098	0.027832
H124	H	-0.636443	1.134098	0.527832
H125	H	-1.067835	0.634062	-0.040768
H126	H	-0.567835	1.134062	0.459232
H127	H	-0.879487	0.416415	0.216053
H128	H	-0.379487	0.916415	0.716053
N129	N	-1.137945	0.000040	-0.497261
N130	N	-0.637945	0.500040	0.002739
H131	H	-1.186640	0.000048	-0.462927
H132	H	-0.686640	0.500048	0.037073
H133	H	-1.140608	0.054332	-0.533680
H134	H	-0.640608	0.554332	-0.033680
N135	N	-0.823069	0.000026	-0.455952
N136	N	-0.323069	0.500026	0.044048
H137	H	-0.833479	0.000029	-0.518975
H138	H	-0.333479	0.500029	-0.018975
H139	H	-0.790260	0.054319	-0.436457
H140	H	-0.290260	0.554319	0.063543
