data_functionalizedCrystal
_audit_creation_method	'MofGen! by Chris Wilmer'
_symmetry_space_group_name_H-M	'P1'
_symmetry_Int_Tables_number	1
_symmetry_cell_setting	triclinic
loop_
_symmetry_equiv_pos_as_xyz
  x,y,z
_cell_length_a	15.995350
_cell_length_b	22.610064
_cell_length_c	15.995350
_cell_angle_alpha	90.006302
_cell_angle_beta	96.507625
_cell_angle_gamma	90.004584
loop_
_atom_site_label
_atom_site_type_symbol
_atom_site_fract_x
_atom_site_fract_y
_atom_site_fract_z
O1	O	1.110991	0.049131	-0.107915
O2	O	0.867216	0.049143	-0.121243
O3	O	0.995767	0.049137	0.007309
O4	O	0.982440	0.049138	-0.236467
O5	O	0.995745	-0.049233	0.007290
O6	O	0.867193	-0.049226	-0.121261
O7	O	1.110969	-0.049238	-0.107934
Zn8	Zn	0.989077	-0.064850	-0.114601
Zn9	Zn	0.989107	0.064756	-0.114576
O10	O	0.982417	-0.049231	-0.236485
C11	C	0.836010	-0.000040	-0.120701
C12	C	0.743060	-0.000035	-0.119049
N13	N	0.989063	-0.153302	-0.114617
C14	C	0.405312	-0.000048	-0.113117
C15	C	0.452746	-0.000268	-0.021565
C16	C	0.549436	-0.000042	-0.023217
C17	C	0.572873	-0.000042	-0.116060
C18	C	0.531799	0.056130	-0.161205
C19	C	0.435163	0.056173	-0.158906
C20	C	0.434798	-0.055691	-0.160818
C21	C	0.531743	-0.056430	-0.160797
C22	C	0.667570	-0.000036	-0.117727
C23	C	0.310614	-0.000049	-0.111452
C24	C	1.046032	-0.561947	-0.057662
C25	C	1.046037	-0.623867	-0.057656
O26	O	1.094438	-0.655888	-0.009243
N27	N	0.989107	-0.654840	-0.114559
C28	C	0.932163	-0.623889	-0.171465
O29	O	0.883739	-0.655920	-0.219864
C30	C	0.932155	-0.561971	-0.171467
C31	C	0.989095	-0.531001	-0.114566
C32	C	1.102967	-0.530977	-0.000766
C33	C	1.102963	-0.469062	-0.000773
C34	C	1.046026	-0.438116	-0.057677
C35	C	0.989091	-0.469085	-0.114573
C36	C	0.875208	-0.531021	-0.228369
C37	C	0.875205	-0.469098	-0.228365
C38	C	0.932145	-0.438129	-0.171464
C39	C	0.932150	-0.376224	-0.171485
N40	N	0.989080	-0.345251	-0.114582
C41	C	1.046018	-0.376197	-0.057678
C42	C	0.932182	-0.753923	-0.171457
C43	C	0.932193	-0.815841	-0.171460
C44	C	1.046066	-0.815814	-0.057650
C45	C	1.046059	-0.753895	-0.057651
C46	C	0.989112	-0.722950	-0.114554
C47	C	1.046007	-0.246170	-0.057698
C48	C	1.046001	-0.184248	-0.057713
C49	C	0.932125	-0.184281	-0.171520
C50	C	0.932134	-0.246196	-0.171509
C51	C	0.989078	-0.277139	-0.114591
O52	O	0.883771	-0.344163	-0.219870
O53	O	1.094426	-0.344159	-0.009280
C54	C	1.142175	-0.000053	-0.108476
C55	C	1.235125	-0.000054	-0.110127
C56	C	0.995205	-0.000047	0.038494
C57	C	0.993553	-0.000044	0.131444
N58	N	0.989128	0.153208	-0.114553
C59	C	0.982980	-0.000046	-0.267671
C60	C	0.984631	-0.000046	-0.360621
C61	C	0.987621	-0.000045	0.469192
C62	C	0.896069	0.000180	0.421758
C63	C	0.897721	-0.000042	0.325068
C64	C	0.990564	-0.000044	0.301631
C65	C	1.035707	-0.056219	0.342698
C66	C	1.033407	-0.056266	0.439334
C67	C	1.035325	0.055598	0.439713
C68	C	1.035303	0.056341	0.342768
C69	C	0.992231	-0.000045	0.206934
C70	C	0.985956	-0.000048	0.563890
H71	H	0.577856	-0.040308	0.012270
H72	H	0.434215	-0.040550	0.015023
N73	N	0.850184	0.050721	0.445013
N74	N	0.884417	0.087165	0.496820
H75	H	0.852011	0.122864	0.513247
N76	N	0.549504	0.058751	-0.246776
N77	N	0.525965	0.017818	-0.296484
H78	H	0.538469	0.019667	-0.356920
N79	N	1.161119	-0.437398	0.057316
N80	N	1.213061	-0.402843	0.030679
H81	H	1.254134	-0.380474	0.071697
N82	N	0.584390	0.050561	0.021622
N83	N	0.537363	0.085823	0.054230
H84	H	0.562048	0.121565	0.085899
N85	N	0.551023	-0.060682	-0.245730
N86	N	0.595585	-0.022049	-0.274803
H87	H	0.609201	-0.025048	-0.334790
N88	N	0.394967	-0.056179	-0.245501
N89	N	0.438589	-0.054770	-0.305552
H90	H	0.410455	-0.055111	-0.365357
H91	H	0.402915	0.058722	-0.226121
N92	N	1.120245	0.060587	0.323514
N93	N	1.179566	0.060729	0.381550
H94	H	1.239560	0.063722	0.367953
N95	N	0.873977	-0.152654	-0.229642
N96	N	0.873986	-0.097370	-0.229630
H97	H	0.832916	-0.075032	-0.270675
H98	H	0.433162	0.039793	0.014869
N99	N	0.567433	0.108570	-0.121867
N100	N	0.623067	0.104719	-0.060591
H101	H	0.648243	0.141753	-0.032810
N102	N	0.997803	0.109014	0.465501
N103	N	0.994324	0.118927	0.541910
H104	H	0.967820	0.156649	0.560124
N105	N	0.993989	0.108489	0.308538
N106	N	0.962149	0.143989	0.355805
H107	H	0.932979	0.180821	0.331623
N108	N	0.817045	-0.562637	-0.286504
N109	N	0.766216	-0.534987	-0.337299
H110	H	0.725135	-0.557314	-0.378362
N111	N	1.104146	-0.152610	0.000427
N112	N	1.077571	-0.118057	0.052411
H113	H	1.118631	-0.095713	0.093473
N114	N	0.853199	0.050475	0.289429
N115	N	0.820685	0.086141	0.335960
H116	H	0.789235	0.121819	0.310794
N117	N	0.874048	-0.847481	-0.229588
N118	N	0.900608	-0.882036	-0.281577
H119	H	0.859539	-0.904382	-0.322629
H120	H	1.149332	-0.556168	0.045576
N121	N	1.104183	-0.722272	0.000519
N122	N	1.154987	-0.749917	0.051345
H123	H	1.196023	-0.727587	0.092449
H124	H	0.859630	-0.039876	0.441344
H125	H	1.100623	-0.058816	0.471581
H126	H	1.092375	-0.271356	-0.011350
N127	N	0.996345	-0.108656	0.307081
N128	N	0.935055	-0.104801	0.251465
H129	H	0.907249	-0.141833	0.226310
N130	N	0.409018	-0.109100	-0.123278
N131	N	0.368594	-0.106800	-0.060903
H132	H	0.350384	-0.144517	-0.034382
N133	N	0.852880	-0.050642	0.290108
N134	N	0.820272	-0.085906	0.337130
H135	H	0.788602	-0.121645	0.312441
H136	H	1.092427	-0.841021	-0.011314
H137	H	0.828830	-0.443906	-0.274701
N138	N	1.120006	0.056059	0.479549
N139	N	1.145213	0.015629	0.529445
H140	H	1.205017	0.015948	0.557579
N141	N	0.874006	-0.722325	-0.229595
N142	N	0.823184	-0.749992	-0.280393
H143	H	0.782096	-0.727680	-0.321452
H144	H	0.416864	0.098162	-0.125967
H145	H	0.559050	-0.097985	-0.127841
H146	H	0.885777	-0.271412	-0.217851
H147	H	1.000469	-0.098256	0.457627
N148	N	1.121274	-0.058836	0.324977
N149	N	1.150006	-0.019235	0.281779
H150	H	1.210438	-0.021081	0.269262
