data_functionalizedCrystal
_audit_creation_method	'MofGen! by Chris Wilmer'
_symmetry_space_group_name_H-M	'P1'
_symmetry_Int_Tables_number	1
_symmetry_cell_setting	triclinic
loop_
_symmetry_equiv_pos_as_xyz
  x,y,z
_cell_length_a	16.109301
_cell_length_b	10.654541
_cell_length_c	15.186229
_cell_angle_alpha	89.996481
_cell_angle_beta	89.999362
_cell_angle_gamma	83.972705
loop_
_atom_site_label
_atom_site_type_symbol
_atom_site_fract_x
_atom_site_fract_y
_atom_site_fract_z
O1	O	1.104089	0.161419	-0.073172
O2	O	0.862147	0.181508	-0.073186
O3	O	0.988682	-0.011352	-0.073174
O4	O	0.977554	0.354278	-0.073185
O5	O	0.988673	-0.011354	0.073284
O6	O	0.862138	0.181505	0.073271
O7	O	1.104081	0.161416	0.073285
Zn8	Zn	0.983108	0.171460	0.096531
Zn9	Zn	0.983119	0.171464	-0.096433
O10	O	0.977546	0.354276	0.073272
C11	C	0.831163	0.180692	0.000040
C12	C	0.738853	0.178253	0.000035
C13	C	0.517227	0.287019	0.000042
C14	C	0.430493	0.284717	0.000048
C15	C	0.449008	0.055896	0.000051
C16	C	0.535740	0.058200	0.000052
C17	C	0.569847	0.173765	0.000043
C18	C	0.396381	0.169159	0.000048
C19	C	0.302340	0.166662	0.000054
C20	C	0.663894	0.176262	0.000038
C21	C	0.987861	-0.058140	0.000054
C22	C	0.985418	-0.197550	0.000053
C23	C	1.136725	-0.227574	0.000073
C24	C	1.211227	-0.308079	0.000084
C25	C	1.208926	-0.439066	0.000081
C26	C	1.132115	-0.489549	0.000064
C27	C	1.057613	-0.409044	0.000053
C28	C	1.059922	-0.278056	0.000058
C29	C	0.906308	-0.379021	0.000026
C30	C	0.908607	-0.248034	0.000036
C31	C	0.829496	-0.429504	0.000009
C32	C	0.754992	-0.348998	0.000004
C33	C	0.757296	-0.218004	0.000008
C34	C	0.834104	-0.167529	0.000024
C35	C	1.135065	0.162231	0.000056
C36	C	1.227375	0.164671	0.000055
C37	C	0.978367	0.401064	0.000042
C38	C	0.980810	0.540474	0.000038
N39	N	0.983107	0.171457	0.228224
N40	N	0.983128	0.171457	-0.228125
C41	C	1.039156	0.086088	0.453952
C42	C	1.039158	0.086085	0.546142
C43	C	0.927072	0.256830	0.546140
C44	C	0.927066	0.256826	0.453952
C45	C	0.983113	0.171456	0.407860
C46	C	0.983121	0.171458	0.592238
C47	C	0.983124	0.171455	0.692194
C48	C	0.983110	0.171457	0.307898
H49	H	0.387652	0.376940	0.000049
O50	O	0.415737	-0.056248	0.000014
C51	C	0.290327	-0.161210	0.000063
C52	C	0.327893	-0.034116	0.000088
H53	H	0.219301	-0.143360	0.000141
H54	H	0.311887	-0.217189	-0.061243
H55	H	0.311993	-0.217178	0.061341
H56	H	0.306244	0.021955	-0.061149
H57	H	0.306336	0.021768	0.061434
H58	H	0.881426	0.326344	0.416421
H59	H	0.544993	0.381120	0.000041
O60	O	1.285910	-0.259247	0.000059
C61	C	1.435745	-0.302854	0.000130
C62	C	1.351227	-0.358316	0.000143
H63	H	1.488576	-0.382923	0.000216
H64	H	1.440671	-0.242320	-0.061176
H65	H	1.440555	-0.242241	0.061409
H66	H	1.346360	-0.418985	-0.061094
H67	H	1.346338	-0.418777	0.061489
H68	H	0.696627	-0.152463	-0.000006
O69	O	0.680457	-0.398246	0.000024
C70	C	0.609857	-0.586740	-0.000059
C71	C	0.694325	-0.531131	-0.000063
H72	H	0.621040	-0.694184	-0.000148
H73	H	0.572979	-0.553694	0.061245
H74	H	0.573011	-0.553495	-0.061339
H75	H	0.731239	-0.564350	0.061176
H76	H	0.731140	-0.564170	-0.061407
H77	H	0.578586	-0.034032	0.000055
H78	H	1.138606	-0.120919	0.000087
H79	H	1.269593	-0.504614	0.000084
H80	H	1.130248	-0.596207	0.000051
O81	O	1.093622	0.003034	0.409315
C82	C	1.204825	-0.166279	0.419051
C83	C	1.143174	-0.072303	0.469709
H84	H	1.244916	-0.227195	0.467858
H85	H	1.168610	-0.229119	0.375923
H86	H	1.246631	-0.112022	0.375860
H87	H	1.101354	-0.126456	0.512948
H88	H	1.179441	-0.009464	0.512782
O89	O	1.093485	0.003036	0.590954
C90	C	1.110208	-0.168420	0.695082
C91	C	1.048590	-0.074452	0.644372
H92	H	1.073935	-0.231076	0.738296
H93	H	1.150250	-0.229524	0.646340
H94	H	1.152067	-0.114155	0.738198
H95	H	1.006677	-0.128615	0.601255
H96	H	1.008606	-0.013349	0.693162
H97	H	0.827628	-0.536161	0.000001
O98	O	0.872717	0.339715	0.591051
C99	C	0.823021	0.415352	0.733070
C100	C	0.884634	0.321432	0.682321
H101	H	0.832623	0.400584	0.806871
H102	H	0.834433	0.515968	0.715000
H103	H	0.756346	0.398973	0.714900
H104	H	0.951333	0.337695	0.700464
H105	H	0.873150	0.220847	0.700396
H106	H	0.835988	-0.060874	0.000032
