data_functionalizedCrystal
_audit_creation_method	'MofGen! by Chris Wilmer'
_symmetry_space_group_name_H-M	'P1'
_symmetry_Int_Tables_number	1
_symmetry_cell_setting	triclinic
loop_
_symmetry_equiv_pos_as_xyz
  x,y,z
_cell_length_a	12.376457
_cell_length_b	16.109301
_cell_length_c	16.109301
_cell_angle_alpha	96.538519
_cell_angle_beta	78.728360
_cell_angle_gamma	78.712882
loop_
_atom_site_label
_atom_site_type_symbol
_atom_site_fract_x
_atom_site_fract_y
_atom_site_fract_z
O1	O	0.093935	-1.119069	0.090939
O2	O	0.593935	-0.619069	0.590939
O3	O	0.093954	-0.877010	0.104235
O4	O	0.593954	-0.377010	0.604235
O5	O	0.093933	-1.004687	-0.023442
O6	O	0.593933	-0.504687	0.476558
O7	O	0.093957	-0.991392	0.218616
O8	O	0.593957	-0.491392	0.718616
O9	O	-0.094074	-0.972779	0.008434
O10	O	0.405926	-0.472779	0.508434
O11	O	-0.094053	-0.845102	0.136111
O12	O	0.405947	-0.345102	0.636111
O13	O	-0.094071	-1.087161	0.122815
O14	O	0.405929	-0.587161	0.622815
Zn15	Zn	-0.123912	-0.961065	0.134524
Zn16	Zn	0.376088	-0.461065	0.634524
Zn17	Zn	0.123795	-1.003105	0.092526
Zn18	Zn	0.623795	-0.503105	0.592526
O19	O	-0.094050	-0.959484	0.250492
O20	O	0.405950	-0.459484	0.750492
C21	C	-0.000047	-0.830081	0.119634
C22	C	0.499953	-0.330081	0.619634
C23	C	-0.000041	-0.737787	0.118018
C24	C	0.499959	-0.237787	0.618018
N25	N	-0.292966	-0.932380	0.163185
N26	N	0.207034	-0.432380	0.663185
C27	C	-0.000071	-0.988194	-0.038479
C28	C	0.499929	-0.488194	0.461521
C29	C	-0.000073	-0.986579	-0.130774
C30	C	0.499927	-0.486579	0.369226
C31	C	-0.647978	-1.098385	-0.002692
C32	C	-0.147978	-0.598385	0.497308
C33	C	-0.529642	-1.118457	-0.022753
C34	C	-0.029642	-0.618457	0.477247
C35	C	-0.470467	-1.071939	0.023730
C36	C	0.029533	-0.571939	0.523730
C37	C	-0.529640	-1.005346	0.090277
C38	C	-0.029640	-0.505346	0.590277
C39	C	-0.647988	-0.985277	0.110344
C40	C	-0.147988	-0.485277	0.610344
C41	C	-0.470477	-0.958831	0.136766
C42	C	0.029523	-0.458831	0.636766
C43	C	-0.529650	-0.892238	0.203313
C44	C	-0.029650	-0.392238	0.703313
C45	C	-0.647987	-0.872172	0.223376
C46	C	-0.147987	-0.372172	0.723376
C47	C	-0.707162	-0.918689	0.176894
C48	C	-0.207162	-0.418689	0.676894
C49	C	-0.352129	-0.978901	0.116699
C50	C	0.147871	-0.478901	0.616699
C51	C	-0.352139	-0.865793	0.229735
C52	C	0.147861	-0.365793	0.729735
C53	C	-0.470476	-0.845721	0.249796
C54	C	0.029524	-0.345721	0.749796
N55	N	0.292848	-1.031797	0.063858
N56	N	0.792848	-0.531797	0.563858
C57	C	-0.000068	-1.134090	0.107415
C58	C	0.499932	-0.634090	0.607415
C59	C	-0.000067	-1.226385	0.109030
C60	C	0.499933	-0.726385	0.609030
C61	C	-0.000047	-0.515514	0.190026
C62	C	0.499953	-0.015514	0.690026
C63	C	-0.000054	-0.428792	0.188503
C64	C	0.499946	0.071208	0.688503
C65	C	-0.000064	-0.448665	0.037016
C66	C	0.499936	0.051335	0.537016
C67	C	-0.000065	-0.535383	0.038541
C68	C	0.499935	-0.035383	0.538541
C69	C	-0.000050	-0.568806	0.115048
C70	C	0.499950	-0.068806	0.615048
C71	C	-0.000057	-0.395366	0.112000
C72	C	0.499943	0.104634	0.612000
C73	C	-0.000065	-0.301339	0.110348
C74	C	0.499935	0.198661	0.610348
C75	C	-0.000045	-0.662839	0.116700
C76	C	0.499955	-0.162839	0.616700
C77	C	-0.000060	-1.058589	-0.353049
C78	C	0.499940	-0.558589	0.146951
C79	C	-0.000051	-1.057066	-0.439771
C80	C	0.499949	-0.557066	0.060229
C81	C	-0.000044	-0.905579	-0.419897
C82	C	0.499956	-0.405579	0.080103
C83	C	-0.000045	-0.907103	-0.333178
C84	C	0.499955	-0.407103	0.166822
C85	C	-0.000059	-0.983610	-0.299756
C86	C	0.499941	-0.483610	0.200244
C87	C	-0.000048	-0.980563	-0.473197
C88	C	0.499952	-0.480563	0.026803
C89	C	-0.000038	-0.978911	-0.567224
C90	C	0.499962	-0.478911	-0.067224
C91	C	-0.000067	-0.985262	-0.205722
C92	C	0.499933	-0.485262	0.294278
C93	C	-0.000044	-0.975977	0.265528
C94	C	0.499956	-0.475977	0.765528
C95	C	-0.000035	-0.977594	0.357822
C96	C	0.499965	-0.477594	0.857822
H97	H	-0.303961	-1.033121	0.062517
H98	H	0.196039	-0.533121	0.562517
H99	H	-0.518669	-0.791500	0.303980
H100	H	-0.018669	-0.291500	0.803980
Br101	Br	-0.449336	-1.208829	-0.113059
Br102	Br	0.050664	-0.708829	0.386941
H103	H	-0.374112	-1.088285	0.007393
H104	H	0.125888	-0.588285	0.507393
Br105	Br	-0.000021	-0.801754	-0.465263
Br106	Br	0.499979	-0.301754	0.034737
Br107	Br	-0.000080	-0.403300	-0.066809
Br108	Br	0.499920	0.096700	0.433191
Br109	Br	-0.000085	-0.607713	-0.063220
Br110	Br	0.499915	-0.107713	0.436780
H111	H	-0.000043	-0.542722	0.252324
H112	H	0.499957	-0.042722	0.752324
H113	H	-0.000069	-1.120885	-0.325839
H114	H	0.499931	-0.620885	0.174161
H115	H	-0.000041	-0.846043	-0.289785
H116	H	0.499959	-0.346043	0.210215
Br117	Br	-0.000046	-1.158829	-0.512096
Br118	Br	0.499954	-0.658829	-0.012096
H119	H	-0.000053	-0.385404	0.249559
H120	H	0.499947	0.114596	0.749559
Br121	Br	-0.867768	-0.891441	0.204115
Br122	Br	-0.367768	-0.391441	0.704115
Br123	Br	-0.728286	-1.161519	-0.065760
Br124	Br	-0.228286	-0.661519	0.434240
H125	H	-0.696166	-0.817954	0.277569
H126	H	-0.196166	-0.317954	0.777569
Br127	Br	-0.271839	-0.802664	0.292828
Br128	Br	0.228161	-0.302664	0.792828
