data_functionalizedCrystal
_audit_creation_method	'MofGen! by Chris Wilmer'
_symmetry_space_group_name_H-M	'P1'
_symmetry_Int_Tables_number	1
_symmetry_cell_setting	triclinic
loop_
_symmetry_equiv_pos_as_xyz
  x,y,z
_cell_length_a	10.065918
_cell_length_b	10.908937
_cell_length_c	10.967953
_cell_angle_alpha	72.684254
_cell_angle_beta	92.224360
_cell_angle_gamma	78.564768
loop_
_atom_site_label
_atom_site_type_symbol
_atom_site_fract_x
_atom_site_fract_y
_atom_site_fract_z
O1	O	-0.154586	1.725199	-0.174907
O2	O	0.345414	2.225199	0.325093
O3	O	-0.132314	1.348871	-0.080161
O4	O	0.367686	1.848871	0.419839
O5	O	-0.185471	1.551910	-0.306221
O6	O	0.314529	2.051910	0.193779
O7	O	-0.101429	1.522161	0.051154
O8	O	0.398571	2.022161	0.551154
O9	O	0.035647	1.518924	-0.331183
O10	O	0.535647	2.018924	0.168817
O11	O	0.088803	1.315886	-0.105122
O12	O	0.588803	1.815886	0.394878
O13	O	0.066531	1.692213	-0.199869
O14	O	0.566531	2.192213	0.300131
Zn15	Zn	0.112774	1.498813	-0.156459
Zn16	Zn	0.612774	1.998813	0.343541
Zn17	Zn	-0.178557	1.542272	-0.123570
Zn18	Zn	0.321443	2.042272	0.376430
O19	O	0.119688	1.489175	0.026192
O20	O	0.619688	1.989175	0.526192
C21	C	-0.019674	1.284307	-0.083787
C22	C	0.480326	1.784307	0.416213
C23	C	-0.013477	1.141069	-0.057418
C24	C	0.486523	1.641069	0.442582
N25	N	0.311600	1.469162	-0.178907
N26	N	0.811600	1.969162	0.321093
C27	C	-0.085505	1.535745	-0.363735
C28	C	0.414495	2.035745	0.136265
C29	C	-0.117069	1.536709	-0.497916
C30	C	0.382931	2.036709	0.002084
N31	N	-0.377386	1.571934	-0.101134
N32	N	0.122614	2.071934	0.398866
C33	C	0.543656	1.509148	-0.148662
C34	C	1.043656	2.009148	0.351338
C35	C	0.390556	1.531956	-0.131372
C36	C	0.890556	2.031956	0.368628
C37	C	-0.046112	1.756778	-0.196242
C38	C	0.453888	2.256778	0.303758
C39	C	-0.052318	1.900017	-0.222610
C40	C	0.447682	2.400017	0.277390
C41	C	-0.036102	2.094563	-0.153635
C42	C	0.463898	2.594563	0.346365
C43	C	-0.029689	1.946518	-0.126380
C44	C	0.470311	2.446518	0.373620
C45	C	-0.049199	1.521038	-0.709354
C46	C	0.450801	2.021038	-0.209354
C47	C	-0.016581	1.520047	-0.570672
C48	C	0.483419	2.020047	-0.070672
C49	C	0.019720	1.505340	0.083706
C50	C	0.519720	2.005340	0.583706
C51	C	0.051274	1.504378	0.217888
C52	C	0.551274	2.004378	0.717888
H53	H	0.589401	1.438515	-0.202160
H54	H	1.089401	1.938515	0.297840
H55	H	0.161440	1.489388	-0.741734
H56	H	0.661440	1.989388	-0.241734
Br57	Br	0.010495	1.830221	0.044564
Br58	Br	0.510495	2.330221	0.544564
H59	H	-0.060226	2.164351	-0.256186
H60	H	0.439774	2.664351	0.243814
Br61	Br	0.167051	1.495064	-0.503394
Br62	Br	0.667051	1.995064	-0.003394
H63	H	0.357338	1.398519	-0.232403
H64	H	0.857338	1.898519	0.267597
Br65	Br	0.314328	1.649713	-0.042223
Br66	Br	0.814328	2.149713	0.457777
Br67	Br	-0.092542	2.016317	-0.393550
Br68	Br	0.407458	2.516317	0.106450
Br69	Br	0.546381	1.689686	-0.011989
Br70	Br	1.046381	2.189686	0.488011
H71	H	-0.159366	1.536042	-0.749737
H72	H	0.340634	2.036042	-0.249737
Br73	Br	0.026706	2.024769	0.113518
Br74	Br	0.526706	2.524769	0.613518
H75	H	-0.227244	1.551712	-0.538291
H76	H	0.272756	2.051712	-0.038291
