data_functionalizedCrystal
_audit_creation_method	'MofGen! by Chris Wilmer'
_symmetry_space_group_name_H-M	'P1'
_symmetry_Int_Tables_number	1
_symmetry_cell_setting	triclinic
loop_
_symmetry_equiv_pos_as_xyz
  x,y,z
_cell_length_a	10.723023
_cell_length_b	19.188920
_cell_length_c	9.798715
_cell_angle_alpha	90.013576
_cell_angle_beta	89.996770
_cell_angle_gamma	96.195436
loop_
_atom_site_label
_atom_site_type_symbol
_atom_site_fract_x
_atom_site_fract_y
_atom_site_fract_z
O1	O	1.655150	-0.097920	-0.113512
O2	O	1.291803	-0.107293	-0.113521
O3	O	1.483967	-0.001019	-0.113471
O4	O	1.462986	-0.204194	-0.113562
O5	O	1.483953	-0.001018	0.113511
O6	O	1.291789	-0.107293	0.113461
O7	O	1.655136	-0.097919	0.113470
Zn8	Zn	1.473460	-0.102606	0.149504
Zn9	Zn	1.473479	-0.102607	-0.149555
O10	O	1.462972	-0.204194	0.113420
C11	C	1.245310	-0.106611	-0.000030
C12	C	1.106798	-0.104571	-0.000032
C13	C	1.045038	-0.103661	0.117551
C14	C	0.901879	-0.101552	0.117552
C15	C	1.483282	0.024997	0.000028
C16	C	1.481247	0.102515	0.000054
C17	C	1.580378	0.663642	0.000228
C18	C	1.582301	0.590806	0.000214
C19	C	1.469546	0.546604	0.000195
C20	C	1.354859	0.575243	0.000226
C21	C	1.352939	0.648078	0.000254
N22	N	1.387919	0.426454	-0.077109
N23	N	1.389750	0.357264	-0.077139
C24	C	1.475322	0.327157	0.000113
N25	N	1.559013	0.368854	0.077379
N26	N	1.557185	0.438050	0.077403
C27	C	1.471614	0.467626	0.000166
C28	C	1.592086	0.219549	0.000076
C29	C	1.594004	0.146712	0.000070
C30	C	1.366559	0.131150	0.000069
C31	C	1.364644	0.203987	0.000089
C32	C	1.477411	0.248182	0.000086
C33	C	1.701629	-0.098602	-0.000024
C34	C	1.840141	-0.100642	-0.000031
N35	N	1.473456	-0.102606	0.353604
C36	C	1.463661	0.769790	0.000010
C37	C	1.465707	0.692273	0.000251
N38	N	1.473492	-0.102602	-0.353655
C39	C	1.554145	-0.057787	0.421401
C40	C	1.554165	-0.057785	0.578564
H41	H	0.893244	-0.101429	-0.100703
H42	H	1.687387	0.123403	0.000060
O43	O	1.043365	-0.103761	-0.120097
C44	C	0.881745	-0.161953	-0.263494
C45	C	0.953500	-0.162963	-0.127483
H46	H	0.809055	-0.209804	-0.269498
H47	H	0.950443	-0.163011	-0.352081
H48	H	0.832557	-0.112258	-0.269555
H49	H	1.002692	-0.212650	-0.121289
H50	H	0.884744	-0.161868	-0.038961
H51	H	1.274751	0.095162	0.000066
H52	H	1.672203	0.699622	0.000233
H53	H	1.271266	0.227298	0.000098
H54	H	0.848765	-0.100773	0.218219
H55	H	1.623207	-0.019415	0.363097
H56	H	1.675683	0.567490	0.000195
H57	H	1.623251	-0.019416	0.636867
H58	H	1.404386	-0.140972	0.411910
O59	O	1.391195	-0.148480	0.576871
C60	C	1.317969	-0.269566	0.532917
C61	C	1.411259	-0.217687	0.611668
H62	H	1.334140	-0.325531	0.561043
H63	H	1.332635	-0.261474	0.418541
H64	H	1.217997	-0.260092	0.560938
H65	H	1.511268	-0.227129	0.583761
H66	H	1.396483	-0.225791	0.726025
O67	O	1.108546	-0.104502	0.237564
C68	C	1.270061	-0.046266	0.381036
C69	C	1.198260	-0.045235	0.245056
H70	H	1.342592	0.001653	0.387150
H71	H	1.319404	-0.095907	0.387132
H72	H	1.201265	-0.045287	0.469546
H73	H	1.266972	-0.046188	0.156468
H74	H	1.148897	0.004401	0.239079
O75	O	1.245361	0.532280	-0.000038
C76	C	1.115569	0.440985	-0.117626
C77	C	1.239611	0.489611	-0.117521
H78	H	1.110891	0.406465	-0.212586
H79	H	1.033227	0.473928	-0.117693
H80	H	1.110798	0.406529	-0.022607
H81	H	1.244505	0.524077	-0.212523
H82	H	1.321895	0.456627	-0.117382
H83	H	1.259557	0.671388	0.000276
H84	H	1.683908	0.255535	0.000075
