data_functionalizedCrystal
_audit_creation_method	'MofGen! by Chris Wilmer'
_symmetry_space_group_name_H-M	'P1'
_symmetry_Int_Tables_number	1
_symmetry_cell_setting	triclinic
loop_
_symmetry_equiv_pos_as_xyz
  x,y,z
_cell_length_a	16.109296
_cell_length_b	27.732048
_cell_length_c	15.186229
_cell_angle_alpha	89.991324
_cell_angle_beta	90.001331
_cell_angle_gamma	96.949028
loop_
_atom_site_label
_atom_site_type_symbol
_atom_site_fract_x
_atom_site_fract_y
_atom_site_fract_z
O1	O	-1.102364	0.062118	-0.073197
O2	O	-0.860206	0.069852	-0.073209
O3	O	-0.988806	-0.004380	-0.073186
O4	O	-0.973764	0.136350	-0.073220
O5	O	-0.988798	-0.004381	0.073272
O6	O	-0.860197	0.069851	0.073248
O7	O	-1.102356	0.062117	0.073260
Zn8	Zn	-0.981275	0.065984	0.096508
Zn9	Zn	-0.981286	0.065985	-0.096456
O10	O	-0.973756	0.136349	0.073237
C11	C	-0.829231	0.069539	0.000018
C12	C	-0.736947	0.068601	0.000015
C13	C	-0.427440	0.109582	0.000022
C14	C	-0.514150	0.110468	0.000016
C15	C	-0.535113	0.022395	0.000026
C16	C	-0.448405	0.021510	0.000025
C17	C	-0.394571	0.065105	0.000028
C18	C	-0.567988	0.066876	0.000022
C19	C	-0.662003	0.067836	0.000016
C20	C	-0.300550	0.064145	0.000032
C21	C	-0.988486	-0.022389	0.000045
C22	C	-0.987535	-0.076048	0.000053
C23	C	-1.057544	-0.414571	0.000011
C24	C	-1.054016	-0.616245	-0.000002
O25	O	-1.118034	-0.647234	-0.000037
N26	N	-0.977762	-0.635687	-0.000005
C27	C	-0.902384	-0.604707	-0.000010
O28	O	-0.837444	-0.625871	-0.000022
C29	C	-0.905912	-0.403034	-0.000004
C30	C	-0.982172	-0.383595	0.000008
C31	C	-1.133797	-0.395131	0.000022
C32	C	-1.134678	-0.344716	0.000030
C33	C	-1.059306	-0.313740	0.000027
C34	C	-0.983053	-0.333179	0.000016
C35	C	-0.830535	-0.372055	-0.000016
C36	C	-0.831424	-0.321634	-0.000017
C37	C	-0.907684	-0.302195	-0.000005
C38	C	-0.908562	-0.251787	0.000021
N39	N	-0.984816	-0.232345	0.000024
C40	C	-1.060188	-0.263321	0.000027
C41	C	-0.900537	-0.710589	-0.000012
C42	C	-0.899654	-0.761007	-0.000012
C43	C	-1.051287	-0.772542	-0.000005
C44	C	-1.052169	-0.722122	0.000002
C45	C	-0.976791	-0.691147	-0.000009
C46	C	-1.062033	-0.157445	0.000044
C47	C	-1.062907	-0.107024	0.000056
C48	C	-0.911275	-0.095494	0.000044
C49	C	-0.910400	-0.145910	0.000037
C50	C	-0.985786	-0.176885	0.000034
O51	O	-0.844578	-0.220770	0.000046
O52	O	-1.125119	-0.242148	0.000019
C53	C	-1.056663	-0.464986	0.000003
C54	C	-0.980410	-0.484426	-0.000008
C55	C	-0.905037	-0.453450	-0.000011
C56	C	-0.979527	-0.534844	-0.000008
C57	C	-1.054899	-0.565820	-0.000005
C58	C	-1.131154	-0.546378	-0.000002
C59	C	-1.132035	-0.495962	0.000006
C60	C	-0.828783	-0.472892	-0.000014
C61	C	-0.827908	-0.523308	-0.000021
C62	C	-0.903280	-0.554284	-0.000018
C63	C	-0.133330	0.062433	0.000033
C64	C	-0.225612	0.063380	0.000036
C65	C	-0.974076	0.154358	0.000004
C66	C	-0.975026	0.208017	-0.000009
N67	N	-0.981274	0.065983	0.228200
N68	N	-0.981295	0.065983	-0.228149
C69	C	-1.038237	0.033123	0.453933
C70	C	-1.038240	0.033122	0.546123
C71	C	-0.924325	0.098843	0.546112
C72	C	-0.924319	0.098842	0.453924
C73	C	-0.981280	0.065982	0.407837
C74	C	-0.981288	0.065983	0.592215
C75	C	-0.981291	0.065982	0.692171
C76	C	-0.981277	0.065983	0.307874
H77	H	-0.578956	-0.013098	0.000026
H78	H	-0.877951	0.125597	0.583645
H79	H	-1.084616	0.006367	0.416412
H80	H	-0.837556	-0.776829	-0.000006
H81	H	-1.084618	0.006365	0.583652
H82	H	-0.540907	0.146686	0.000010
H83	H	-0.421644	-0.014711	0.000027
H84	H	-1.125010	-0.091200	0.000068
H85	H	-0.877934	0.125600	0.416389
H86	H	-0.383610	0.145080	0.000023
H87	H	-1.123419	-0.182659	0.000038
H88	H	-1.192525	-0.571608	0.000004
H89	H	-1.195178	-0.420348	0.000021
H90	H	-1.196777	-0.328893	0.000036
H91	H	-0.848304	-0.161738	0.000052
H92	H	-1.114266	-0.706299	0.000010
H93	H	-0.839152	-0.685372	-0.000020
H94	H	-0.768437	-0.387873	-0.000031
H95	H	-1.112658	-0.797771	-0.000002
H96	H	-0.849909	-0.070264	0.000045
H97	H	-0.770041	-0.296415	-0.000026
H98	H	-1.194133	-0.480140	0.000015
H99	H	-0.765804	-0.539130	-0.000023
H100	H	-0.767404	-0.447676	-0.000018
