data_functionalizedCrystal
_audit_creation_method	'MofGen! by Chris Wilmer'
_symmetry_space_group_name_H-M	'P1'
_symmetry_Int_Tables_number	1
_symmetry_cell_setting	triclinic
loop_
_symmetry_equiv_pos_as_xyz
  x,y,z
_cell_length_a	12.759401
_cell_length_b	12.759400
_cell_length_c	12.759393
_cell_angle_alpha	90.029373
_cell_angle_beta	90.019676
_cell_angle_gamma	90.013592
loop_
_atom_site_label
_atom_site_type_symbol
_atom_site_fract_x
_atom_site_fract_y
_atom_site_fract_z
Zn1	Zn	1.606278	-0.418204	0.593993
Zn2	Zn	1.606173	-0.593919	0.418316
Zn3	Zn	1.430576	-0.418256	0.418332
Zn4	Zn	1.430573	-0.593842	0.593958
O5	O	1.518400	-0.506055	0.506150
O6	O	1.753285	-0.441523	0.570697
O7	O	1.582838	-0.570671	0.271297
O8	O	1.453928	-0.271228	0.441655
O9	O	1.753208	-0.570620	0.441629
O10	O	1.583015	-0.271189	0.570712
O11	O	1.453827	-0.441612	0.271309
O12	O	1.283555	-0.441538	0.441621
O13	O	1.453923	-0.570489	0.740983
O14	O	1.283552	-0.570540	0.570652
O15	O	1.583012	-0.441448	0.741009
O16	O	1.582835	-0.740930	0.441594
O17	O	1.453822	-0.740874	0.570637
C18	C	1.245433	-0.506037	0.506135
C19	C	1.128656	-0.506055	0.506153
C20	C	1.073835	-0.438955	0.573463
C21	C	0.964110	-0.438966	0.573470
C22	C	0.964039	-0.573185	0.438855
C23	C	1.073761	-0.573168	0.438843
C24	C	1.518345	-0.779023	0.506133
C25	C	1.518417	-0.895799	0.506161
C26	C	1.585599	-0.950561	0.573416
C27	C	1.585648	-1.060285	0.573442
C28	C	1.451330	-1.060475	0.438948
C29	C	1.451277	-0.950753	0.438929
C30	C	1.663150	-0.950453	0.651062
C31	C	1.663199	-1.060177	0.651088
C32	C	1.792433	-0.506074	0.506165
C33	C	1.909210	-0.506082	0.506172
C34	C	1.518479	-0.505954	0.780183
C35	C	1.518512	-0.505911	0.896960
C36	C	1.518484	-0.232022	0.506189
C37	C	1.518520	-0.115245	0.506206
C38	C	1.518382	-0.506080	0.233182
C39	C	1.518552	-0.505827	0.116406
C40	C	1.585734	-0.438709	0.951837
C41	C	1.585752	-0.438664	1.061561
C42	C	1.451323	-0.573032	1.061521
C43	C	1.451301	-0.573071	0.951799
H44	H	0.919480	-0.384325	0.628279
N45	N	1.658221	-0.366275	0.892687
H46	H	1.700807	-0.323695	0.944105
H47	H	1.615463	-0.317667	0.847162
N48	N	0.904827	-0.645582	0.366275
H49	H	0.956209	-0.688086	0.323632
H50	H	0.859281	-0.602768	0.317733
H51	H	1.118398	-0.627810	0.384026
N52	N	1.133045	-0.366571	0.646057
H53	H	1.081662	-0.324065	0.688697
H54	H	1.178556	-0.317893	0.603370
H55	H	1.396604	-0.627714	1.106185
N56	N	1.378814	-0.891690	0.366390
H57	H	1.388965	-0.813842	0.376578
H58	H	1.303783	-0.910913	0.382690
H59	H	1.396666	-1.105232	0.384211
H60	H	1.641305	-0.920636	0.732409
H61	H	1.640489	-0.383939	1.106237
H62	H	1.740441	-0.916384	0.621974
N63	N	1.624555	-1.105223	0.753442
H64	H	1.605851	-1.046286	0.802882
H65	H	1.681446	-1.149742	0.785776
H66	H	1.744596	-1.089912	0.629373
N67	N	1.378772	-0.645536	0.892601
H68	H	1.336197	-0.688076	0.943988
H69	H	1.421496	-0.694181	0.847063
