data_functionalizedCrystal
_audit_creation_method	'MofGen! by Chris Wilmer'
_symmetry_space_group_name_H-M	'P1'
_symmetry_Int_Tables_number	1
_symmetry_cell_setting	triclinic
loop_
_symmetry_equiv_pos_as_xyz
  x,y,z
_cell_length_a	25.639242
_cell_length_b	25.639239
_cell_length_c	12.827885
_cell_angle_alpha	89.964018
_cell_angle_beta	89.977793
_cell_angle_gamma	90.030990
loop_
_atom_site_label
_atom_site_type_symbol
_atom_site_fract_x
_atom_site_fract_y
_atom_site_fract_z
Zn1	Zn	0.799266	-0.208233	-0.590885
Zn2	Zn	0.799177	-0.295678	-0.416127
Zn3	Zn	0.711830	-0.208247	-0.416150
Zn4	Zn	0.711787	-0.295627	-0.590818
O5	O	0.755515	-0.251946	-0.503495
O6	O	0.872419	-0.219848	-0.567722
O7	O	0.787571	-0.284107	-0.269894
O8	O	0.723483	-0.135080	-0.439367
O9	O	0.872354	-0.284094	-0.439327
O10	O	0.787722	-0.135069	-0.567744
O11	O	0.723398	-0.219871	-0.269911
O12	O	0.638659	-0.219822	-0.439302
O13	O	0.723410	-0.284007	-0.737063
O14	O	0.638628	-0.284021	-0.567629
O15	O	0.787680	-0.219799	-0.737113
O16	O	0.787530	-0.368836	-0.439262
O17	O	0.723324	-0.368799	-0.567607
C18	C	0.619672	-0.251918	-0.503461
C19	C	0.561558	-0.251918	-0.503471
C20	C	0.310407	-0.218553	-0.570472
C21	C	0.365011	-0.218548	-0.570466
O22	O	0.393283	-0.190156	-0.627425
N23	N	0.392284	-0.251940	-0.503507
C24	C	0.364951	-0.285344	-0.436557
O25	O	0.393163	-0.313746	-0.379603
C26	C	0.310347	-0.285351	-0.436569
C27	C	0.283077	-0.251953	-0.503525
C28	C	0.283136	-0.185158	-0.637423
C29	C	0.228536	-0.185162	-0.637428
C30	C	0.201206	-0.218562	-0.570481
C31	C	0.228476	-0.251957	-0.503529
C32	C	0.283014	-0.318757	-0.369625
C33	C	0.228407	-0.318761	-0.369643
C34	C	0.201137	-0.285363	-0.436599
C35	C	0.146546	-0.285362	-0.436587
N36	N	0.119272	-0.251969	-0.503546
C37	C	0.146602	-0.218570	-0.570493
C38	C	0.479621	-0.285326	-0.436538
C39	C	0.534224	-0.285316	-0.436520
C40	C	0.534280	-0.218521	-0.570431
C41	C	0.479677	-0.218529	-0.570443
C42	C	0.452348	-0.251934	-0.503497
C43	C	0.031937	-0.218581	-0.570496
C44	C	-0.022668	-0.218587	-0.570491
C45	C	-0.022720	-0.285384	-0.436585
C46	C	0.031881	-0.285377	-0.436585
C47	C	0.059208	-0.251973	-0.503549
O48	O	0.118239	-0.313740	-0.379660
O49	O	0.118384	-0.190176	-0.627446
C50	C	0.755427	-0.387789	-0.503447
C51	C	0.755437	-0.445903	-0.503462
C52	C	0.789034	-0.806273	-0.436780
C53	C	0.789054	-0.860877	-0.436794
O54	O	0.817528	-0.889119	-0.380046
N55	N	0.755607	-0.888185	-0.503564
C56	C	0.722141	-0.860886	-0.570333
O57	O	0.693694	-0.889128	-0.627128
C58	C	0.722124	-0.806283	-0.570323
C59	C	0.755569	-0.778978	-0.503541
C60	C	0.822477	-0.778967	-0.370004
C61	C	0.822456	-0.724367	-0.369989
C62	C	0.788992	-0.697072	-0.436750
C63	C	0.755548	-0.724377	-0.503526
C64	C	0.688661	-0.778985	-0.637096
C65	C	0.688647	-0.724378	-0.637081
C66	C	0.722092	-0.697073	-0.570299
C67	C	0.722063	-0.642481	-0.570272
N68	N	0.755510	-0.615173	-0.503501
C69	C	0.788974	-0.642468	-0.436740
C70	C	0.722180	-0.975557	-0.570349
C71	C	0.722194	-1.030159	-0.570354
C72	C	0.789108	-1.030146	-0.436816
C73	C	0.789091	-0.975543	-0.436806
C74	C	0.755627	-0.948249	-0.503578
C75	C	0.788927	-0.527803	-0.436713
C76	C	0.788902	-0.473198	-0.436701
C77	C	0.721990	-0.473216	-0.570242
C78	C	0.722013	-0.527816	-0.570251
C79	C	0.755486	-0.555109	-0.503483
O80	O	0.693605	-0.614204	-0.626993
O81	O	0.817422	-0.614220	-0.379964
C82	C	0.891888	-0.251975	-0.503529
C83	C	0.950002	-0.251987	-0.503544
C84	C	0.755550	-0.251896	-0.776065
C85	C	0.755566	-0.251875	-0.892219
C86	C	0.755617	-0.115573	-0.503566
C87	C	0.755661	-0.057459	-0.503596
C88	C	0.787372	-0.220096	-0.944028
C89	C	0.787388	-0.220073	-1.064078
C90	C	0.755510	-0.251958	-0.231985
C91	C	0.755596	-0.251833	-0.115832
H92	H	0.054085	-0.312568	-0.382055
N93	N	0.199120	-0.149148	-0.709652
H94	H	0.176465	-0.124894	-0.667281
H95	H	0.224754	-0.128025	-0.752049
N96	N	0.450272	-0.182508	-0.642670
H97	H	0.427621	-0.203785	-0.691031
H98	H	0.427646	-0.158260	-0.600228
H99	H	0.694781	-0.550050	-0.624633
N100	N	0.061405	-0.182555	-0.642723
H101	H	0.084057	-0.203829	-0.691079
H102	H	0.035802	-0.161412	-0.685060
H103	H	0.305382	-0.157959	-0.691945
N104	N	-0.052081	-0.182558	-0.642700
H105	H	-0.026479	-0.161400	-0.685108
H106	H	-0.074738	-0.203866	-0.690990
N107	N	0.563763	-0.182497	-0.642644
H108	H	0.602491	-0.187565	-0.632474
H109	H	0.554234	-0.190683	-0.717249
N110	N	0.563634	-0.321330	-0.364287
H111	H	0.538030	-0.342487	-0.321879
H112	H	0.586288	-0.345552	-0.406727
H113	H	0.694926	-0.953337	-0.624719
N114	N	0.652594	-0.808431	-0.709134
H115	H	0.628379	-0.831125	-0.666640
H116	H	0.631432	-0.782817	-0.751414
H117	H	0.814589	-0.192904	-0.899507
N118	N	0.450147	-0.321354	-0.364320
H119	H	0.475713	-0.342504	-0.321904
H120	H	0.427489	-0.300046	-0.316039
N121	N	0.312419	-0.354778	-0.297404
H122	H	0.286812	-0.375936	-0.255006
H123	H	0.335073	-0.378998	-0.339848
N124	N	0.858538	-0.694920	-0.297976
H125	H	0.850448	-0.704458	-0.223295
H126	H	0.895876	-0.704403	-0.314386
H127	H	0.814621	-0.192868	-1.108633
H128	H	0.849731	-0.801185	-0.315638
H129	H	0.728366	-0.279043	-1.071284
H130	H	0.206159	-0.345966	-0.315130
H131	H	0.816185	-0.550018	-0.382346
H132	H	-0.044982	-0.312575	-0.382074
N133	N	0.652547	-0.694945	-0.709098
H134	H	0.628319	-0.672329	-0.666581
H135	H	0.673808	-0.672282	-0.757550
H136	H	0.728344	-0.279061	-0.936739
N137	N	0.824979	-0.443745	-0.364676
H138	H	0.816885	-0.453285	-0.289997
H139	H	0.862319	-0.453221	-0.381075
N140	N	0.685894	-0.443771	-0.642239
H141	H	0.690960	-0.405037	-0.632092
H142	H	0.694015	-0.453277	-0.716891
H143	H	0.816326	-0.953314	-0.382427
N144	N	0.825203	-1.059595	-0.364811
H145	H	0.849425	-1.082212	-0.407338
H146	H	0.846356	-1.033983	-0.322516
N147	N	0.686112	-1.059607	-0.642365
H148	H	0.664910	-1.034025	-0.684649
H149	H	0.707386	-1.082226	-0.690778
