data_functionalizedCrystal
_audit_creation_method	'MofGen! by Chris Wilmer'
_symmetry_space_group_name_H-M	'P1'
_symmetry_Int_Tables_number	1
_symmetry_cell_setting	triclinic
loop_
_symmetry_equiv_pos_as_xyz
  x,y,z
_cell_length_a	19.188925
_cell_length_b	19.188924
_cell_length_c	9.482900
_cell_angle_alpha	99.300357
_cell_angle_beta	80.741727
_cell_angle_gamma	83.142256
loop_
_atom_site_label
_atom_site_type_symbol
_atom_site_fract_x
_atom_site_fract_y
_atom_site_fract_z
O1	O	0.937064	0.076181	-0.120932
O2	O	0.733752	0.087919	-0.120929
O3	O	0.841276	-0.019605	-0.120914
O4	O	0.829540	0.183705	-0.120948
O5	O	0.819435	0.002323	0.120875
O6	O	0.711911	0.109847	0.120860
O7	O	0.915223	0.098109	0.120857
Cu8	Cu	0.811573	0.105980	0.142936
Cu9	Cu	0.837402	0.080048	-0.143008
O10	O	0.807699	0.205632	0.120841
C11	C	0.696820	0.098504	-0.000034
C12	C	0.619315	0.097365	-0.000032
C13	C	0.057545	0.152828	-0.000045
C14	C	0.130369	0.153904	-0.000053
C15	C	0.175304	0.090812	-0.000040
C16	C	0.147413	0.026637	-0.000056
C17	C	0.074591	0.025562	-0.000062
N18	N	0.288547	0.052601	0.082275
N19	N	0.357723	0.053627	0.082284
C20	C	0.394711	0.094048	-0.000023
N21	N	0.359907	0.133416	-0.082322
N22	N	0.290723	0.132393	-0.082325
C23	C	0.254267	0.091971	-0.000034
C24	C	0.501559	0.159384	-0.000026
C25	C	0.574385	0.160457	-0.000043
C26	C	0.591427	0.033190	-0.000031
C27	C	0.518603	0.032118	-0.000029
C28	C	0.473672	0.095218	-0.000019
C29	C	0.829976	-0.034652	-0.000018
C30	C	0.828837	-0.112156	-0.000014
C31	C	0.840211	-0.160508	-0.131814
C32	C	0.839132	-0.233331	-0.131825
C33	C	0.826693	-0.257802	-0.000029
C34	C	0.815313	-0.209439	0.131789
C35	C	0.816385	-0.136616	0.131796
N36	N	0.855880	-0.368570	0.098064
N37	N	0.854864	-0.437749	0.098048
C38	C	0.823460	-0.477212	-0.000042
N39	N	0.793122	-0.444885	-0.098138
N40	N	0.794141	-0.375700	-0.098127
C41	C	0.825528	-0.336765	-0.000022
C42	C	0.833664	-0.604528	-0.131863
C43	C	0.832580	-0.677352	-0.131869
C44	C	0.808768	-0.653459	0.131748
C45	C	0.809845	-0.580636	0.131750
C46	C	0.822297	-0.556176	-0.000060
C47	C	0.952155	0.087524	-0.000042
C48	C	1.029661	0.088662	-0.000053
C49	C	0.818999	0.220679	-0.000058
C50	C	0.820139	0.298183	-0.000071
N51	N	0.793411	0.124219	0.344053
N52	N	0.855570	0.061803	-0.344126
C53	C	0.832041	0.085424	0.416258
C54	C	0.816935	0.100604	0.583673
H55	H	0.051890	-0.026691	-0.000069
C56	C	0.847352	-0.577617	-0.276844
H57	H	0.853961	-0.616846	-0.355344
H58	H	0.888973	-0.555159	-0.282324
H59	H	0.807554	-0.544253	-0.282317
C60	C	0.891827	0.025370	0.332353
H61	H	0.914100	0.002995	0.399364
H62	H	0.926222	0.044964	0.272954
H63	H	0.872036	-0.008910	0.272997
H64	H	0.597087	0.212709	-0.000049
C65	C	0.845089	-0.730540	-0.276856
H66	H	0.852663	-0.705540	-0.355350
H67	H	0.804458	-0.753992	-0.282345
H68	H	0.885875	-0.764897	-0.282331
C69	C	0.733626	0.184272	0.427965
H70	H	0.731320	0.186600	0.529479
H71	H	0.689248	0.174700	0.403114
H72	H	0.743436	0.228573	0.403081
C73	C	0.797338	-0.527445	0.276728
H74	H	0.799752	-0.480569	0.257857
H75	H	0.832974	-0.539919	0.330890
H76	H	0.751558	-0.529021	0.330874
H77	H	0.850348	-0.140597	-0.239144
H78	H	0.153075	0.206158	-0.000033
C79	C	0.915359	0.001746	0.571978
H80	H	0.937631	-0.020628	0.638991
H81	H	0.949755	0.021339	0.512578
H82	H	0.895568	-0.032535	0.512622
H83	H	0.848390	-0.272706	-0.239155
C84	C	0.801632	-0.236354	0.276760
H85	H	0.802629	-0.286651	0.257880
H86	H	0.756209	-0.214062	0.330918
H87	H	0.837627	-0.224961	0.330915
H88	H	0.495899	-0.020132	-0.000027
C89	C	0.008128	0.222233	-0.000053
H90	H	0.035170	0.260601	-0.000062
H91	H	-0.028255	0.232105	0.084258
H92	H	-0.013012	0.216813	-0.084387
H93	H	0.464975	0.210764	-0.000021
C94	C	0.196837	-0.042760	-0.000036
H95	H	0.244200	-0.032929	-0.000015
H96	H	0.196025	-0.076728	-0.084352
H97	H	0.180782	-0.061434	0.084293
H98	H	0.772674	0.145057	0.645791
H99	H	0.807120	-0.097246	0.239126
H100	H	0.628013	-0.018181	-0.000032
H101	H	0.798634	-0.673381	0.239059
