data_functionalizedCrystal
_audit_creation_method	'MofGen! by Chris Wilmer'
_symmetry_space_group_name_H-M	'P1'
_symmetry_Int_Tables_number	1
_symmetry_cell_setting	triclinic
loop_
_symmetry_equiv_pos_as_xyz
  x,y,z
_cell_length_a	12.759401
_cell_length_b	25.639239
_cell_length_c	12.759393
_cell_angle_alpha	89.964022
_cell_angle_beta	89.979062
_cell_angle_gamma	90.040211
loop_
_atom_site_label
_atom_site_type_symbol
_atom_site_fract_x
_atom_site_fract_y
_atom_site_fract_z
Zn1	Zn	1.606091	-0.208104	-0.593980
Zn2	Zn	2.106091	0.291896	-0.093980
Zn3	Zn	1.605909	-0.295549	-0.418283
Zn4	Zn	2.105909	0.204451	0.081717
Zn5	Zn	1.430390	-0.208132	-0.418315
Zn6	Zn	1.930390	0.291868	0.081685
Zn7	Zn	1.430308	-0.295513	-0.593921
Zn8	Zn	1.930308	0.204487	-0.093921
O9	O	1.518175	-0.251825	-0.506125
O10	O	2.018175	0.248175	-0.006125
O11	O	1.753088	-0.219708	-0.570685
O12	O	2.253088	0.280292	-0.070685
O13	O	1.582584	-0.283980	-0.271266
O14	O	2.082584	0.216020	0.228734
O15	O	1.453808	-0.134963	-0.441656
O16	O	1.953808	0.365037	0.058344
O17	O	1.752954	-0.283953	-0.441601
O18	O	2.252954	0.216047	0.058399
O19	O	1.582895	-0.134943	-0.570716
O20	O	2.082895	0.365057	-0.070716
O21	O	1.453631	-0.219755	-0.271290
O22	O	1.953631	0.280245	0.228710
O23	O	1.283358	-0.219720	-0.441598
O24	O	1.783358	0.280280	0.058402
O25	O	1.453669	-0.283891	-0.740950
O26	O	1.953669	0.216109	-0.240950
O27	O	1.283298	-0.283918	-0.570615
O28	O	1.783298	0.216082	-0.070615
O29	O	1.582816	-0.219672	-0.740993
O30	O	2.082816	0.280328	-0.240993
O31	O	1.582505	-0.368710	-0.441544
O32	O	2.082505	0.131290	0.058456
O33	O	1.453492	-0.368683	-0.570584
O34	O	1.953492	0.131317	-0.070584
C35	C	1.245207	-0.251818	-0.506104
C36	C	1.745207	0.248182	-0.006104
C37	C	1.128431	-0.251828	-0.506120
C38	C	1.628431	0.248172	-0.006120
C39	C	1.073565	-0.285307	-0.573193
C40	C	1.573565	0.214693	-0.073193
C41	C	0.963841	-0.285309	-0.573214
C42	C	1.463841	0.214691	-0.073214
C43	C	0.963858	-0.218352	-0.439079
C44	C	1.463858	0.281648	0.060921
C45	C	1.073580	-0.218347	-0.439065
C46	C	1.573580	0.281653	0.060935
C47	C	1.517998	-0.387667	-0.506077
C48	C	2.017998	0.112333	-0.006077
C49	C	1.518018	-0.445781	-0.506091
C50	C	2.018018	0.054219	-0.006091
C51	C	1.585527	-0.806146	-0.439048
C52	C	2.085527	-0.306146	0.060952
C53	C	1.585568	-0.860750	-0.439062
C54	C	2.085568	-0.360750	0.060938
O55	O	1.642783	-0.888988	-0.382007
O56	O	2.142783	-0.388988	0.117993
N57	N	1.518359	-0.888064	-0.506194
N58	N	2.018359	-0.388064	-0.006194
C59	C	1.451113	-0.860770	-0.573324
C60	C	1.951113	-0.360770	-0.073324
O61	O	1.393952	-0.889017	-0.630428
O62	O	1.893952	-0.389017	-0.130428
C63	C	1.451079	-0.806167	-0.573315
C64	C	1.951079	-0.306167	-0.073315
C65	C	1.518284	-0.778856	-0.506171
C66	C	2.018284	-0.278856	-0.006171
C67	C	1.652728	-0.778835	-0.371910
C68	C	2.152728	-0.278835	0.128090
C69	C	1.652685	-0.724234	-0.371895
C70	C	2.152685	-0.224234	0.128105
C71	C	1.585442	-0.696945	-0.439018
C72	C	2.085442	-0.196945	0.060982
C73	C	1.518242	-0.724255	-0.506156
C74	C	2.018242	-0.224255	-0.006156
C75	C	1.383839	-0.778874	-0.640449
C76	C	1.883839	-0.278874	-0.140449
C77	C	1.383810	-0.724267	-0.640435
C78	C	1.883810	-0.224267	-0.140435
C79	C	1.451016	-0.696957	-0.573291
C80	C	1.951016	-0.196957	-0.073291
C81	C	1.450956	-0.642365	-0.573263
C82	C	1.950956	-0.142365	-0.073263
N83	N	1.518165	-0.615052	-0.506131
N84	N	2.018165	-0.115052	-0.006131
C85	C	1.585408	-0.642341	-0.439008
C86	C	2.085408	-0.142341	0.060992
C87	C	1.451192	-0.975441	-0.573341
C88	C	1.951192	-0.475441	-0.073341
C89	C	1.451221	-1.030043	-0.573346
C90	C	1.951221	-0.530043	-0.073346
C91	C	1.585677	-1.030019	-0.439085
C92	C	2.085677	-0.530019	0.060915
C93	C	1.585642	-0.975416	-0.439075
C94	C	2.085642	-0.475416	0.060925
C95	C	1.518401	-0.948127	-0.506208
C96	C	2.018401	-0.448127	-0.006208
C97	C	1.585313	-0.527676	-0.438981
C98	C	2.085313	-0.027676	0.061019
C99	C	1.585261	-0.473071	-0.438969
C100	C	2.085261	0.026929	0.061031
C101	C	1.450810	-0.473100	-0.573233
C102	C	1.950810	0.026900	-0.073233
C103	C	1.450857	-0.527700	-0.573242
C104	C	1.950857	-0.027700	-0.073242
C105	C	1.518117	-0.554987	-0.506112
C106	C	2.018117	-0.054987	-0.006112
O107	O	1.393774	-0.614093	-0.630292
O108	O	1.893774	-0.114093	-0.130292
O109	O	1.642569	-0.614088	-0.381925
O110	O	2.142569	-0.114088	0.118075
C111	C	1.792208	-0.251831	-0.506146
C112	C	2.292208	0.248169	-0.006146
C113	C	1.908984	-0.251834	-0.506156
C114	C	2.408984	0.248166	-0.006156
C115	C	1.518253	-0.251774	-0.780158
C116	C	2.018253	0.248226	-0.280158
C117	C	1.518287	-0.251753	-0.896935
C118	C	2.018287	0.248247	-0.396935
C119	C	1.518381	-0.115452	-0.506196
C120	C	2.018381	0.384548	-0.006196
C121	C	1.518468	-0.057337	-0.506226
C122	C	2.018468	0.442663	-0.006226
C123	C	1.585539	-0.218309	-0.951821
C124	C	2.085539	0.281691	-0.451821
C125	C	1.585556	-0.218286	-1.061546
C126	C	2.085556	0.281714	-0.561546
C127	C	1.451068	-0.285156	-1.061487
C128	C	1.951068	0.214844	-0.561487
C129	C	1.451045	-0.285176	-0.951765
C130	C	1.951045	0.214824	-0.451765
C131	C	1.518157	-0.251837	-0.233157
C132	C	2.018157	0.248163	0.266843
C133	C	1.518327	-0.251711	-0.116381
C134	C	2.018327	0.248289	0.383619
H135	H	1.640085	-0.549887	-0.384320
H136	H	2.140085	-0.049887	0.115680
O137	O	1.132722	-0.321405	-0.645543
O138	O	1.632722	0.178595	-0.145543
H139	H	1.218237	-0.315779	-0.634267
H140	H	1.718237	0.184221	-0.134267
O141	O	1.725186	-0.694780	-0.299491
O142	O	2.225186	-0.194780	0.200509
H143	H	1.771955	-0.722937	-0.252836
H144	H	2.271955	-0.222937	0.247164
H145	H	1.640318	-0.191052	-1.106229
H146	H	2.140318	0.308948	-0.606229
O147	O	1.311352	-0.808321	-0.712872
O148	O	1.811352	-0.308321	-0.212872
H149	H	1.358364	-0.833156	-0.766370
H150	H	1.858364	-0.333156	-0.266370
H151	H	1.329055	-0.702052	-0.695106
H152	H	1.829055	-0.202052	-0.195106
H153	H	1.707491	-0.801048	-0.317251
H154	H	2.207491	-0.301048	0.182749
H155	H	1.118253	-0.191082	-0.384446
H156	H	1.618253	0.308918	0.115554
H157	H	1.396324	-0.312369	-1.106143
H158	H	1.896324	0.187631	-0.606143
H159	H	1.396428	-0.953225	-0.628006
H160	H	1.896428	-0.453225	-0.128006
O161	O	1.378372	-0.557162	-0.645656
O162	O	1.878372	-0.057162	-0.145656
H163	H	1.331610	-0.529010	-0.692331
H164	H	1.831610	-0.029010	-0.192331
H165	H	1.640288	-0.191092	-0.907182
H166	H	2.140288	0.308908	-0.407182
O167	O	1.378476	-0.321234	-0.892554
O168	O	1.878476	0.178766	-0.392554
H169	H	1.331722	-0.344472	-0.949112
H170	H	1.831722	0.155528	-0.449112
H171	H	0.919174	-0.312570	-0.627833
H172	H	1.419174	0.187430	-0.127833
O173	O	1.378729	-1.059498	-0.645757
O174	O	1.878729	-0.559498	-0.145757
H175	H	1.331973	-1.031343	-0.692430
H176	H	1.831973	-0.531343	-0.192430
O177	O	0.904699	-0.182258	-0.366722
O178	O	1.404699	0.317742	0.133278
H179	H	0.819184	-0.187894	-0.377982
H180	H	1.319184	0.312106	0.122018
O181	O	1.657757	-0.443613	-0.366555
O182	O	2.157757	0.056387	0.133445
H183	H	1.704530	-0.471766	-0.319894
H184	H	2.204530	0.028234	0.180106
O185	O	1.658137	-0.945959	-0.366668
O186	O	2.158137	-0.445959	0.133332
H187	H	1.704902	-0.974115	-0.320004
H188	H	2.204902	-0.474115	0.179996
H189	H	1.640434	-1.052248	-0.384433
H190	H	2.140434	-0.552248	0.115567
H191	H	1.396058	-0.450872	-0.627881
H192	H	1.896058	0.049128	-0.127881
