data_functionalizedCrystal
_audit_creation_method	'MofGen! by Chris Wilmer'
_symmetry_space_group_name_H-M	'P1'
_symmetry_Int_Tables_number	1
_symmetry_cell_setting	triclinic
loop_
_symmetry_equiv_pos_as_xyz
  x,y,z
_cell_length_a	10.686220
_cell_length_b	18.050590
_cell_length_c	10.686551
_cell_angle_alpha	94.409718
_cell_angle_beta	89.691918
_cell_angle_gamma	94.400502
loop_
_atom_site_label
_atom_site_type_symbol
_atom_site_fract_x
_atom_site_fract_y
_atom_site_fract_z
Zn1	Zn	1.972267	-0.181058	0.562364
Zn2	Zn	1.956022	-0.315478	0.352590
Zn3	Zn	1.746383	-0.200056	0.368680
Zn4	Zn	1.762452	-0.313973	0.578368
O5	O	1.859281	-0.252641	0.465500
O6	O	2.145654	-0.191568	0.521106
O7	O	1.914689	-0.308747	0.179178
O8	O	1.776420	-0.093606	0.394409
O9	O	2.133719	-0.290326	0.366986
O10	O	1.942376	-0.079649	0.536708
O11	O	1.760668	-0.223948	0.190999
O12	O	1.572972	-0.222488	0.409926
O13	O	1.803808	-0.287761	0.751791
O14	O	1.584778	-0.306182	0.563983
O15	O	1.957958	-0.190109	0.740034
O16	O	1.930271	-0.419208	0.382503
O17	O	1.788056	-0.418102	0.548381
C18	C	1.533359	-0.266234	0.490438
C19	C	1.393930	-0.272065	0.501136
C20	C	1.859181	-0.445600	0.465458
C21	C	1.859256	-0.528141	0.465473
C22	C	1.936775	-0.728153	0.375372
C23	C	1.976211	-0.770629	0.487518
C24	C	1.859331	-0.679266	0.465517
C25	C	1.820026	-0.783864	0.353412
C26	C	1.859405	-0.825247	0.465550
C27	C	1.898830	-0.720649	0.577719
C28	C	1.742586	-0.733886	0.443540
C29	C	1.781985	-0.776338	0.555769
C30	C	1.859291	-0.595171	0.465496
C31	C	1.859445	-0.909340	0.465584
C32	C	2.186476	-0.238996	0.440466
C33	C	2.325907	-0.233181	0.429798
C34	C	1.884487	-0.236648	0.792702
C35	C	1.895229	-0.229832	0.932137
C36	C	1.859418	-0.058926	0.465568
C37	C	1.859476	0.023624	0.465597
C38	C	1.834245	-0.268516	0.139566
C39	C	1.823746	-0.275112	0.000114
H40	H	1.345494	-0.309824	0.570394
H41	H	1.374337	-0.195429	0.360537
H42	H	1.786753	-0.811403	0.258594
O43	O	1.977876	-0.177284	0.990028
C44	C	1.912264	-0.128644	1.071329
H45	H	1.810454	-0.130092	1.039330
H46	H	1.915491	-0.146991	1.170911
C47	C	2.098809	-0.046997	1.108148
C48	C	1.973766	-0.048770	1.068839
H49	H	2.136749	0.002273	1.106617
H50	H	2.143015	-0.079767	1.053378
H51	H	2.101481	-0.062289	1.191130
H52	H	1.971097	-0.033487	0.985853
H53	H	1.929561	-0.015994	1.123596
H54	H	2.074973	-0.786977	0.506130
O55	O	1.740768	-0.327549	0.942451
C56	C	1.618179	-0.314984	0.983925
H57	H	1.622840	-0.281940	1.079300
H58	H	1.570336	-0.282130	0.913446
C59	C	1.536875	-0.430859	0.878458
C60	C	1.542600	-0.390280	0.995604
H61	H	1.490251	-0.477304	0.885657
H62	H	1.619465	-0.439324	0.850512
H63	H	1.497009	-0.403473	0.819738
H64	H	1.582479	-0.417662	1.054318
H65	H	1.460014	-0.381821	1.023561
O66	O	2.015116	-0.702894	0.284640
C67	C	2.138148	-0.721394	0.308299
H68	H	2.148453	-0.730041	0.412184
H69	H	2.157382	-0.774864	0.249898
C70	C	2.219983	-0.647073	0.145108
C71	C	2.232643	-0.657688	0.272703
H72	H	2.278274	-0.607778	0.123146
H73	H	2.137094	-0.634612	0.129164
H74	H	2.236009	-0.691636	0.096456
H75	H	2.216601	-0.613129	0.321353
H76	H	2.315532	-0.670141	0.288654
O77	O	1.624712	-0.714445	0.421451
C78	C	1.542877	-0.740116	0.515425
H79	H	1.583645	-0.788646	0.559181
H80	H	1.531276	-0.692992	0.590940
C81	C	1.364016	-0.706652	0.403219
C82	C	1.414082	-0.766262	0.456954
H83	H	1.284567	-0.722776	0.367155
H84	H	1.419149	-0.689354	0.339910
H85	H	1.354359	-0.667387	0.466158
H86	H	1.423753	-0.805521	0.394013
H87	H	1.358948	-0.783567	0.520252
O88	O	1.703743	-0.801493	0.646660
C89	C	1.608123	-0.851373	0.591323
H90	H	1.596506	-0.839877	0.488786
H91	H	1.634402	-0.911053	0.597015
C92	C	1.498139	-0.854893	0.787637
C93	C	1.483862	-0.840769	0.661701
H94	H	1.421489	-0.848354	0.831051
H95	H	1.562561	-0.821289	0.824920
H96	H	1.520041	-0.904625	0.792363
H97	H	1.461976	-0.791035	0.656977
H98	H	1.419433	-0.874364	0.624419
H99	H	1.932014	-0.693203	0.672629
