data_functionalizedCrystal
_audit_creation_method	'MofGen! by Chris Wilmer'
_symmetry_space_group_name_H-M	'P1'
_symmetry_Int_Tables_number	1
_symmetry_cell_setting	triclinic
loop_
_symmetry_equiv_pos_as_xyz
  x,y,z
_cell_length_a	11.792241
_cell_length_b	19.188924
_cell_length_c	10.868271
_cell_angle_alpha	89.992800
_cell_angle_beta	89.999893
_cell_angle_gamma	83.667690
loop_
_atom_site_label
_atom_site_type_symbol
_atom_site_fract_x
_atom_site_fract_y
_atom_site_fract_z
O1	O	1.505472	0.095695	-0.102209
O2	O	1.838806	0.429029	0.231124
O3	O	2.172139	0.762362	0.564458
O4	O	1.174983	0.105558	-0.102238
O5	O	1.508316	0.438891	0.231095
O6	O	1.841650	0.772224	0.564428
O7	O	1.349769	-0.000975	-0.102208
O8	O	1.683102	0.332358	0.231125
O9	O	2.016436	0.665691	0.564458
O10	O	1.330686	0.202229	-0.102239
O11	O	1.664020	0.535562	0.231094
O12	O	1.997353	0.868895	0.564428
O13	O	1.349755	-0.000980	0.102436
O14	O	1.683088	0.332354	0.435770
O15	O	2.016421	0.665687	0.769103
O16	O	1.174969	0.105554	0.102406
O17	O	1.508302	0.438887	0.435740
O18	O	1.841636	0.772220	0.769073
O19	O	1.505458	0.095691	0.102436
O20	O	1.838791	0.429025	0.435769
O21	O	2.172125	0.762358	0.769102
Zn22	Zn	1.340211	0.100622	0.134913
Zn23	Zn	1.673544	0.433955	0.468246
Zn24	Zn	2.006878	0.767288	0.801579
Zn25	Zn	1.340230	0.100627	-0.134715
Zn26	Zn	1.673563	0.433961	0.198618
Zn27	Zn	2.006897	0.767294	0.531951
O28	O	1.330672	0.202224	0.102406
O29	O	1.664005	0.535558	0.435739
O30	O	1.997339	0.868891	0.769072
C31	C	1.132694	0.104936	0.000081
C32	C	1.466028	0.438270	0.333414
C33	C	1.799361	0.771603	0.666747
C34	C	1.006708	0.103082	0.000070
C35	C	1.340042	0.436415	0.333403
C36	C	1.673375	0.769749	0.666737
C37	C	0.776047	0.099672	0.000106
C38	C	1.109381	0.433006	0.333439
C39	C	1.442714	0.766339	0.666772
C40	C	0.904404	0.101567	0.000086
C41	C	1.237738	0.434900	0.333419
C42	C	1.571071	0.768233	0.666753
C43	C	1.349145	-0.026992	0.000115
C44	C	1.682478	0.306341	0.333448
C45	C	2.015812	0.639675	0.666782
C46	C	1.347294	-0.104507	0.000118
C47	C	1.680627	0.228826	0.333452
C48	C	2.013961	0.562159	0.666785
C49	C	1.346438	-0.140909	-0.111434
C50	C	1.679771	0.192425	0.221899
C51	C	2.013105	0.525758	0.555233
C52	C	1.344682	-0.213741	-0.111443
C53	C	1.678016	0.119592	0.221890
C54	C	2.011349	0.452925	0.555223
C55	C	1.343806	-0.250172	0.000106
C56	C	1.677139	0.083162	0.333439
C57	C	2.010473	0.416495	0.666772
C58	C	1.344656	-0.213761	0.111673
C59	C	1.677989	0.119573	0.445006
C60	C	2.011323	0.452906	0.778339
C61	C	1.346400	-0.140929	0.111679
C62	C	1.679733	0.192405	0.445012
C63	C	2.013067	0.525738	0.778345
N64	N	1.405648	-0.369486	0.083134
N65	N	1.738981	-0.036153	0.416468
N66	N	2.072315	0.297181	0.749801
N67	N	1.403994	-0.438674	0.083121
N68	N	1.737327	-0.105340	0.416454
N69	N	2.070660	0.227993	0.749788
C70	C	1.338549	-0.469610	0.000093
C71	C	1.671882	-0.136277	0.333427
C72	C	2.005216	0.197056	0.666760
N73	N	1.274835	-0.428747	-0.082939
N74	N	1.608169	-0.095413	0.250394
N75	N	1.941502	0.237920	0.583728
N76	N	1.276495	-0.359553	-0.082929
N77	N	1.609828	-0.026220	0.250404
N78	N	1.943161	0.307113	0.583738
C79	C	1.341914	-0.329146	0.000111
C80	C	1.675248	0.004188	0.333445
C81	C	2.008581	0.337521	0.666778
C82	C	1.335788	-0.584985	-0.111477
C83	C	1.669121	-0.251652	0.221856
C84	C	2.002454	0.081681	0.555190
C85	C	1.334025	-0.657819	-0.111482
C86	C	1.667359	-0.324485	0.221852
C87	C	2.000692	0.008848	0.555185
C88	C	1.334010	-0.657838	0.111637
C89	C	1.667344	-0.324504	0.444971
C90	C	2.000677	0.008829	0.778304
C91	C	1.335761	-0.585005	0.111639
C92	C	1.669095	-0.251671	0.444972
C93	C	2.002428	0.081662	0.778306
C94	C	1.336655	-0.548583	0.000078
C95	C	1.669989	-0.215250	0.333412
C96	C	2.003322	0.118083	0.666745
C97	C	1.547747	0.096313	0.000114
C98	C	1.881080	0.429646	0.333448
C99	C	2.214413	0.762979	0.666781
C100	C	1.673733	0.098167	0.000117
C101	C	2.007066	0.431500	0.333450
C102	C	2.340399	0.764834	0.666783
C103	C	1.331296	0.228241	0.000080
C104	C	1.664629	0.561574	0.333413
C105	C	1.997963	0.894908	0.666746
C106	C	1.333147	0.305756	0.000068
C107	C	1.666480	0.639090	0.333402
C108	C	1.999814	0.972423	0.666735
N109	N	1.340207	0.100618	0.318927
N110	N	1.673540	0.433951	0.652260
N111	N	2.006873	0.767284	0.985594
N112	N	1.340243	0.100626	-0.318729
N113	N	1.673577	0.433959	0.014604
N114	N	2.006910	0.767293	0.347937
C115	C	1.340224	0.100626	0.569933
C116	C	1.673557	0.433959	0.903266
C117	C	2.006891	0.767292	1.236600
C118	C	1.340211	0.100623	0.430255
C119	C	1.673544	0.433957	0.763589
C120	C	2.006877	0.767290	1.096922
H121	H	1.343978	-0.243385	-0.202285
H122	H	1.677312	0.089949	0.131048
H123	H	2.010645	0.423282	0.464381
H124	H	1.336468	-0.555367	0.202477
H125	H	1.669801	-0.222034	0.535810
H126	H	2.003135	0.111300	0.869144
N127	N	1.347362	-0.103709	-0.225388
N128	N	1.680695	0.229624	0.107945
N129	N	2.014028	0.562958	0.441279
N130	N	1.427160	-0.117972	-0.300070
N131	N	1.760494	0.215361	0.033263
N132	N	2.093827	0.548694	0.366597
H133	H	1.427813	-0.091699	-0.380552
H134	H	1.761146	0.241634	-0.047219
H135	H	2.094480	0.574967	0.286115
H136	H	1.336509	-0.555329	-0.202316
H137	H	1.669843	-0.221996	0.131017
H138	H	2.003176	0.111338	0.464351
N139	N	1.343750	-0.250980	0.225607
N140	N	1.677083	0.082354	0.558940
N141	N	2.010416	0.415687	0.892273
N142	N	1.342193	-0.316008	0.225587
N143	N	1.675526	0.017326	0.558920
N144	N	2.008860	0.350659	0.892254
H145	H	1.341547	-0.342294	0.306056
H146	H	1.674881	-0.008960	0.639390
H147	H	2.008214	0.324373	0.972723
H148	H	1.347092	-0.111291	0.202521
H149	H	1.680426	0.222043	0.535854
H150	H	2.013759	0.555376	0.869188
H151	H	1.333322	-0.687455	-0.202325
H152	H	1.666656	-0.354122	0.131009
H153	H	1.999989	-0.020789	0.464342
H154	H	1.333288	-0.687498	0.202463
H155	H	1.666621	-0.354164	0.535796
H156	H	1.999955	-0.020831	0.869129
