data_functionalizedCrystal
_audit_creation_method	'MofGen! by Chris Wilmer'
_symmetry_space_group_name_H-M	'P1'
_symmetry_Int_Tables_number	1
_symmetry_cell_setting	triclinic
loop_
_symmetry_equiv_pos_as_xyz
  x,y,z
_cell_length_a	6.817900
_cell_length_b	16.418049
_cell_length_c	16.305550
_cell_angle_alpha	95.392859
_cell_angle_beta	103.455250
_cell_angle_gamma	103.389670
loop_
_atom_site_label
_atom_site_type_symbol
_atom_site_fract_x
_atom_site_fract_y
_atom_site_fract_z
V1	V	-4.025855	-0.116594	-0.263330
O2	O	-4.013857	0.004875	-0.258012
O3	O	-3.976925	-0.230486	-0.261823
O4	O	-3.977266	-0.115119	-0.378044
O5	O	-4.013514	-0.111290	-0.140987
V6	V	-4.509576	-0.102027	-0.248661
O7	O	-4.286679	-0.148547	-0.295508
O8	O	-4.698950	-0.070073	-0.216484
O9	O	-4.335300	0.011866	-0.250168
O10	O	-4.638971	-0.223496	-0.253980
O11	O	-4.639315	-0.107331	-0.371005
O12	O	-4.334959	-0.103501	-0.133948
C13	C	-3.821803	-0.258241	-0.257745
C14	C	-3.863082	-0.351351	-0.257277
C15	C	-3.822237	-0.111078	-0.405994
C16	C	-3.863790	-0.110626	-0.499775
C17	C	-4.140109	-0.569849	-0.260438
C18	C	-4.178884	-0.657337	-0.260006
C19	C	-3.814681	-0.648771	-0.251559
C20	C	-3.775912	-0.561285	-0.251997
C21	C	-3.938631	-0.521826	-0.256432
C22	C	-4.016174	-0.696800	-0.255562
C23	C	-4.058214	-0.791658	-0.255094
C24	C	-3.896590	-0.426962	-0.256902
C25	C	-4.014883	-0.108876	-0.840516
C26	C	-3.778853	-0.103678	-0.799574
C27	C	-3.735656	-0.104495	-0.702081
C28	C	-3.939923	-0.109743	-0.671470
C29	C	-4.106679	-0.192465	-0.722309
C30	C	-4.148544	-0.191997	-0.819857
C31	C	-4.069896	-0.032013	-0.794476
C32	C	-4.021969	-0.031358	-0.696631
C33	C	-3.897571	-0.110237	-0.575934
C34	C	-4.057244	-0.108388	-0.936054
C35	C	-4.153764	0.039616	-0.254244
C36	C	-4.091723	0.132725	-0.254717
C37	C	-4.153330	-0.107545	-0.105993
C38	C	-4.091015	-0.107993	-0.012211
H39	H	-4.342945	-0.696435	-0.263269
H40	H	-3.609358	-0.045019	-0.666905
O41	O	-4.289190	-0.200515	-0.699644
C42	C	-4.268794	-0.131257	-0.637350
H43	H	-4.096585	-0.102854	-0.603180
H44	H	-4.358011	-0.153787	-0.589081
H45	H	-4.335292	-0.081128	-0.669417
H46	H	-4.272608	-0.537724	-0.264048
H47	H	-3.978704	0.030664	-0.807683
H48	H	-3.682205	-0.680908	-0.247947
H49	H	-3.611838	-0.522183	-0.248739
H50	H	-3.672914	-0.043921	-0.811785
H51	H	-3.733577	-0.158901	-0.831228
O52	O	-3.656544	-0.171235	-0.682872
C53	C	-3.801918	-0.247358	-0.727039
H54	H	-3.965306	-0.236995	-0.743974
H55	H	-3.798311	-0.298833	-0.684829
H56	H	-3.759692	-0.267802	-0.788026
H57	H	-4.112205	-0.250184	-0.850388
O58	O	-4.355971	-0.200813	-0.853273
C59	C	-4.471515	-0.278036	-0.837461
H60	H	-4.367941	-0.323571	-0.826794
H61	H	-4.611562	-0.307078	-0.894641
H62	H	-4.528475	-0.265907	-0.778163
H63	H	-3.901127	0.029827	-0.662096
O64	O	-4.040226	-0.261844	-0.702283
C65	C	-4.010479	-0.263614	-0.614021
H66	H	-3.983785	-0.196819	-0.579273
H67	H	-3.868591	-0.288459	-0.588918
H68	H	-4.154999	-0.306996	-0.602501
H69	H	-4.169260	-0.030329	-0.675281
H70	H	-4.241951	-0.035085	-0.821299
