data_functionalizedCrystal
_audit_creation_method	'MofGen! by Chris Wilmer'
_symmetry_space_group_name_H-M	'P1'
_symmetry_Int_Tables_number	1
_symmetry_cell_setting	triclinic
loop_
_symmetry_equiv_pos_as_xyz
  x,y,z
_cell_length_a	10.723022
_cell_length_b	10.489716
_cell_length_c	9.198806
_cell_angle_alpha	90.000858
_cell_angle_beta	89.996352
_cell_angle_gamma	84.498181
loop_
_atom_site_label
_atom_site_type_symbol
_atom_site_fract_x
_atom_site_fract_y
_atom_site_fract_z
O1	O	1.657283	0.178899	-0.120869
O2	O	1.294139	0.196026	-0.120872
O3	O	1.483990	0.001857	-0.120876
O4	O	1.467432	0.373067	-0.120866
O5	O	1.483975	0.001856	0.120909
O6	O	1.294124	0.196025	0.120913
O7	O	1.657268	0.178898	0.120916
Cu8	Cu	1.475695	0.187461	0.142991
Cu9	Cu	1.475713	0.187462	-0.142948
O10	O	1.467417	0.373067	0.120920
C11	C	1.247631	0.194779	0.000019
C12	C	1.109075	0.191052	0.000017
C13	C	1.060455	0.079081	0.000014
C14	C	0.917250	0.075226	0.000012
C15	C	1.482739	-0.045675	0.000012
C16	C	1.479016	-0.187303	-0.000001
C17	C	1.595439	-0.285052	0.000013
C18	C	1.533926	-0.362373	-0.119196
C19	C	1.533884	-0.362338	0.119185
C20	C	1.417552	-0.262759	-0.119309
C21	C	1.417527	-0.262718	0.119179
C22	C	1.355929	-0.339989	-0.000059
C23	C	1.703776	0.180144	0.000021
C24	C	1.842332	0.183872	0.000014
C25	C	1.468669	0.420598	0.000028
C26	C	1.472391	0.562227	0.000032
N27	N	1.475691	0.187460	0.344105
N28	N	1.475726	0.187453	-0.344061
C29	C	1.555404	0.105575	0.416301
C30	C	1.555423	0.105570	0.583713
H31	H	0.884186	0.279745	0.000025
H32	H	1.044682	0.284059	0.000013
C33	C	1.351177	-0.203891	0.255343
N34	N	1.301207	-0.159587	0.357913
C35	C	1.600298	-0.421096	0.255344
N36	N	1.650329	-0.465347	0.357895
H37	H	1.407481	0.257567	0.593863
H38	H	1.583079	-0.405899	-0.219980
H39	H	1.696707	-0.260441	-0.000107
C40	C	1.647622	0.010857	0.667585
N41	N	1.717068	-0.060485	0.730761
C42	C	1.383506	0.282164	0.428034
N43	N	1.314070	0.353497	0.491248
C44	C	1.647563	0.010845	0.332372
N45	N	1.716973	-0.060514	0.269159
C46	C	1.351217	-0.204220	-0.255624
N47	N	1.301260	-0.160127	-0.358299
C48	C	1.219020	-0.372912	-0.000146
N49	N	1.115901	-0.397712	-0.000218
H50	H	0.875388	-0.020643	-0.000028
C51	C	1.147443	-0.046573	0.000020
N52	N	1.212960	-0.141220	0.000031
