data_functionalizedCrystal
_audit_creation_method	'MofGen! by Chris Wilmer'
_symmetry_space_group_name_H-M	'P1'
_symmetry_Int_Tables_number	1
_symmetry_cell_setting	triclinic
loop_
_symmetry_equiv_pos_as_xyz
  x,y,z
_cell_length_a	27.732048
_cell_length_b	14.519709
_cell_length_c	12.996460
_cell_angle_alpha	90.001234
_cell_angle_beta	89.999324
_cell_angle_gamma	96.838600
loop_
_atom_site_label
_atom_site_type_symbol
_atom_site_fract_x
_atom_site_fract_y
_atom_site_fract_z
O1	O	0.641453	-0.109725	-0.085437
O2	O	1.141453	0.390275	0.414563
O3	O	0.500739	-0.126410	-0.085468
O4	O	1.000739	0.373590	0.414532
O5	O	0.574827	0.016236	-0.085442
O6	O	1.074827	0.516236	0.414558
O7	O	0.567365	-0.252371	-0.085462
O8	O	1.067365	0.247629	0.414538
O9	O	0.574818	0.016228	0.085692
O10	O	1.074818	0.516228	0.585692
O11	O	0.500730	-0.126418	0.085666
O12	O	1.000730	0.373582	0.585666
O13	O	0.641444	-0.109733	0.085697
O14	O	1.141444	0.390267	0.585697
Cu15	Cu	0.571086	-0.118076	0.101307
Cu16	Cu	1.071086	0.381924	0.601307
Cu17	Cu	0.571097	-0.118067	-0.101078
Cu18	Cu	1.071097	0.381933	0.398922
O19	O	0.567356	-0.252379	0.085671
O20	O	1.067356	0.247621	0.585671
C21	C	0.482726	-0.126064	0.000095
C22	C	0.982726	0.373936	0.500095
C23	C	0.429066	-0.125009	0.000083
C24	C	0.929066	0.374991	0.500083
C25	C	0.574475	0.050586	0.000125
C26	C	1.074475	0.550586	0.500125
C27	C	0.573433	0.152949	0.000125
C28	C	1.073433	0.652949	0.500125
N29	N	0.571081	-0.118083	0.243654
N30	N	1.071081	0.381917	0.743654
C31	C	0.090622	-0.202664	0.000122
C32	C	0.590622	0.297336	0.500122
C33	C	-0.111056	-0.198751	0.000131
C34	C	0.388944	0.301249	0.500131
O35	O	-0.141972	-0.269761	0.000171
O36	O	0.358028	0.230239	0.500171
N37	N	-0.130584	-0.114168	0.000136
N38	N	0.369416	0.385832	0.500136
C39	C	-0.099689	-0.030557	0.000145
C40	C	0.400311	0.469443	0.500145
O41	O	-0.120926	0.041476	0.000160
O42	O	0.379074	0.541476	0.500160
C43	C	0.101988	-0.034471	0.000143
C44	C	0.601988	0.465529	0.500143
C45	C	0.121513	-0.119060	0.000128
C46	C	0.621513	0.380940	0.500128
C47	C	0.110148	-0.287246	0.000108
C48	C	0.610148	0.212754	0.500108
C49	C	0.160564	-0.288223	0.000100
C50	C	0.660564	0.211777	0.500100
C51	C	0.191455	-0.204619	0.000106
C52	C	0.691455	0.295381	0.500106
C53	C	0.171930	-0.120037	0.000120
C54	C	0.671930	0.379963	0.500120
C55	C	0.132882	0.049139	0.000159
C56	C	0.632882	0.549139	0.500159
C57	C	0.183304	0.048153	0.000161
C58	C	0.683304	0.548153	0.500161
C59	C	0.202829	-0.036436	0.000146
C60	C	0.702829	0.463564	0.500146
C61	C	0.253238	-0.037410	0.000118
C62	C	0.753238	0.462590	0.500118
N63	N	0.272766	-0.121993	0.000113
N64	N	0.772766	0.378007	0.500113
C65	C	0.241875	-0.205597	0.000107
C66	C	0.741875	0.294403	0.500107
C67	C	-0.205573	-0.028508	0.000144
C68	C	0.294427	0.471492	0.500144
C69	C	-0.255992	-0.027530	0.000143
C70	C	0.244008	0.472470	0.500143
C71	C	-0.267356	-0.195724	0.000131
C72	C	0.232644	0.304276	0.500131
C73	C	-0.216936	-0.196702	0.000125
C74	C	0.283064	0.303298	0.500125
C75	C	-0.186045	-0.113091	0.000139
C76	C	0.313955	0.386909	0.500139
C77	C	0.347754	-0.207643	0.000090
C78	C	0.847754	0.292357	0.500090
C79	C	0.398175	-0.208613	0.000077
C80	C	0.898175	0.291387	0.500077
C81	C	0.409534	-0.040420	0.000094
C82	C	0.909534	0.459580	0.500094
C83	C	0.359117	-0.039449	0.000101
C84	C	0.859117	0.460551	0.500101
C85	C	0.328227	-0.123069	0.000102
C86	C	0.828227	0.376931	0.500102
O87	O	0.284182	0.033562	0.000090
O88	O	0.784182	0.533562	0.500090
O89	O	0.263121	-0.277620	0.000116
O90	O	0.763121	0.222380	0.500116
C91	C	0.040206	-0.201687	0.000130
C92	C	0.540206	0.298313	0.500130
C93	C	0.020680	-0.117105	0.000144
C94	C	0.520680	0.382895	0.500144
C95	C	0.051571	-0.033501	0.000150
C96	C	0.551571	0.466499	0.500150
C97	C	-0.029739	-0.116126	0.000142
C98	C	0.470261	0.383874	0.500142
C99	C	-0.060630	-0.199731	0.000137
C100	C	0.439370	0.300269	0.500137
C101	C	-0.041102	-0.284314	0.000132
C102	C	0.458898	0.215686	0.500132
C103	C	0.009315	-0.285291	0.000124
C104	C	0.509315	0.214709	0.500124
C105	C	0.032043	0.051082	0.000154
C106	C	0.532043	0.551082	0.500154
C107	C	-0.018374	0.052053	0.000161
C108	C	0.481626	0.552053	0.500161
C109	C	-0.049265	-0.031552	0.000155
C110	C	0.450735	0.468448	0.500155
C111	C	0.659457	-0.110079	0.000132
C112	C	1.159457	0.389921	0.500132
C113	C	0.713117	-0.111134	0.000137
C114	C	1.213117	0.388866	0.500137
C115	C	0.567708	-0.286729	0.000102
C116	C	1.067708	0.213271	0.500102
C117	C	0.568751	-0.389092	0.000095
C118	C	1.068751	0.110908	0.500095
C119	C	0.569596	0.527778	0.000098
C120	C	1.069596	1.027778	0.500098
C121	C	0.570662	0.423488	0.000106
C122	C	1.070662	0.923488	0.500106
C123	C	0.571514	0.340367	0.000112
C124	C	1.071514	0.840367	0.500112
C125	C	0.572580	0.236071	0.000118
C126	C	1.072580	0.736071	0.500118
N127	N	0.571105	-0.118053	-0.243425
N128	N	1.071105	0.381947	0.256575
C129	C	0.571084	-0.118085	0.336760
C130	C	1.071084	0.381915	0.836760
C131	C	0.571088	-0.118079	0.453566
C132	C	1.071088	0.381921	0.953566
C133	C	0.571094	-0.118068	0.546664
C134	C	1.071094	0.381932	1.046664
C135	C	0.571099	-0.118063	0.663476
C136	C	1.071099	0.381937	1.163476
H137	H	0.414069	-0.277498	0.000065
H138	H	0.914069	0.222502	0.500065
C139	C	-0.301340	-0.287689	0.000130
C140	C	0.198660	0.212311	0.500130
H141	H	-0.282493	-0.338210	0.000123
H142	H	0.217507	0.161790	0.500123
H143	H	-0.321245	-0.290795	0.059808
H144	H	0.178755	0.209205	0.559808
H145	H	-0.321244	-0.290800	-0.059556
H146	H	0.178756	0.209200	0.440444
H147	H	-0.271885	0.041351	0.000139
H148	H	0.228115	0.541351	0.500139
C149	C	0.217283	0.140124	0.000174
C150	C	0.717283	0.640124	0.500174
H151	H	0.250109	0.127434	0.000177
H152	H	0.750109	0.627434	0.500177
H153	H	0.211354	0.174844	-0.059496
H154	H	0.711354	0.674844	0.440504
H155	H	0.211355	0.174827	0.059867
H156	H	0.711355	0.674827	0.559867
H157	H	-0.180425	0.039581	0.000156
H158	H	0.319575	0.539581	0.500156
C159	C	-0.039846	0.145107	0.000180
C160	C	0.460154	0.645107	0.500180
H161	H	-0.014223	0.194753	0.000193
H162	H	0.485777	0.694753	0.500193
H163	H	-0.059281	0.149000	-0.059490
H164	H	0.440719	0.649000	0.440510
H165	H	-0.059273	0.148977	0.059874
H166	H	0.440727	0.648977	0.559874
H167	H	0.322609	-0.275734	0.000094
H168	H	0.822609	0.224266	0.500094
H169	H	0.057190	0.119165	0.000161
H170	H	0.557190	0.619165	0.500161
H171	H	0.116994	0.118020	0.000172
H172	H	0.616994	0.618020	0.500172
H173	H	0.025207	-0.354171	0.000113
H174	H	0.525207	0.145829	0.500113
C175	C	0.337638	0.053595	0.000107
C176	C	0.837638	0.553595	0.500107
H177	H	0.363259	0.103246	0.000112
H178	H	0.863259	0.603246	0.500112
H179	H	0.318202	0.057477	-0.059564
H180	H	0.818202	0.557477	0.440436
H181	H	0.318211	0.057470	0.059800
H182	H	0.818211	0.557470	0.559800
C183	C	0.182036	-0.381271	0.000104
C184	C	0.682036	0.118729	0.500104
H185	H	0.156411	-0.430915	0.000114
H186	H	0.656411	0.069085	0.500114
H187	H	0.201469	-0.385162	-0.059570
H188	H	0.701469	0.114838	0.440430
H189	H	0.201464	-0.385149	0.059793
H190	H	0.701464	0.114851	0.559793
C191	C	-0.195462	-0.289747	0.000118
C192	C	0.304538	0.210253	0.500118
H193	H	-0.221085	-0.339394	0.000119
H194	H	0.278915	0.160606	0.500119
H195	H	-0.176028	-0.293628	-0.059557
H196	H	0.323972	0.206372	0.440443
H197	H	-0.176034	-0.293632	0.059806
H198	H	0.323966	0.206368	0.559806
C199	C	0.076175	-0.379219	0.000093
C200	C	0.576175	0.120781	0.500093
H201	H	0.095032	-0.429724	0.000077
H202	H	0.595032	0.070276	0.500077
H203	H	0.056266	-0.382353	0.059766
H204	H	0.556266	0.117647	0.559766
H205	H	0.056274	-0.382330	-0.059598
H206	H	0.556274	0.117670	0.440402
H207	H	0.434695	0.027649	0.000095
H208	H	0.934695	0.527649	0.500095
C209	C	-0.075089	-0.376276	0.000129
C210	C	0.424911	0.123724	0.500129
H211	H	-0.107911	-0.363569	0.000143
H212	H	0.392089	0.136431	0.500143
H213	H	-0.069166	-0.410994	-0.059549
H214	H	0.430834	0.089006	0.440451
H215	H	-0.069162	-0.410989	0.059815
H216	H	0.430838	0.089011	0.559815
