data_functionalizedCrystal
_audit_creation_method	'MofGen! by Chris Wilmer'
_symmetry_space_group_name_H-M	'P1'
_symmetry_Int_Tables_number	1
_symmetry_cell_setting	triclinic
loop_
_symmetry_equiv_pos_as_xyz
  x,y,z
_cell_length_a	23.096457
_cell_length_b	19.902436
_cell_length_c	19.902436
_cell_angle_alpha	89.999454
_cell_angle_beta	60.001161
_cell_angle_gamma	59.999713
loop_
_atom_site_label
_atom_site_type_symbol
_atom_site_fract_x
_atom_site_fract_y
_atom_site_fract_z
Zr1	Zr	0.633786	-0.088221	0.647263
O2	O	0.754575	-0.195495	0.539972
O3	O	0.512999	-0.055340	0.680151
O4	O	0.633800	-0.195517	0.680138
O5	O	0.633764	0.055260	0.539998
O6	O	0.633808	-0.195529	0.790705
O7	O	0.633775	-0.055318	0.539985
O8	O	0.417718	0.055222	0.790728
O9	O	0.849853	-0.195491	0.539975
O10	O	0.562686	-0.041321	0.776695
O11	O	0.562672	0.041212	0.694189
O12	O	0.704898	-0.123828	0.694174
O13	O	0.704884	-0.041295	0.611669
Zr14	Zr	0.633781	0.088120	0.823626
Zr15	Zr	0.633799	-0.088241	0.823605
Zr16	Zr	0.633768	0.088139	0.647283
Zr17	Zr	0.785744	-0.088214	0.647267
Zr18	Zr	0.481824	0.088112	0.823621
O19	O	0.754568	0.055238	0.790738
O20	O	0.754594	-0.195523	0.790709
O21	O	0.754549	0.055266	0.540002
O22	O	0.512993	0.195394	0.930916
O23	O	0.513018	-0.055368	0.930887
O24	O	0.512974	0.195422	0.680180
O25	O	0.633804	-0.055362	0.930890
O26	O	0.633768	0.195416	0.790751
O27	O	0.633760	0.195428	0.680184
O28	O	0.633793	0.055217	0.930903
O29	O	0.849863	-0.195506	0.680144
O30	O	0.417704	0.195405	0.790745
O31	O	0.417715	0.195389	0.930913
O32	O	0.417729	0.055206	0.930897
O33	O	0.849839	-0.055308	0.539992
O34	O	0.849849	-0.055323	0.680160
O35	O	0.562669	0.123727	0.776714
O36	O	0.562684	0.041194	0.859220
O37	O	0.704896	-0.041314	0.776699
O38	O	0.704881	0.041219	0.694194
C39	C	0.443708	-0.000060	0.735439
C40	C	0.379198	-0.000063	0.735437
C41	C	0.633767	-0.000026	0.514867
C42	C	0.633762	-0.000018	0.440005
C43	C	0.633761	0.220549	0.735470
C44	C	0.633754	0.295419	0.735479
C45	C	0.348905	-0.043147	0.778498
C46	C	0.288283	-0.043141	0.778506
C47	C	0.257968	-0.000061	0.735437
C48	C	0.288265	0.043033	0.692374
C49	C	0.348881	0.043032	0.692374
N50	N	0.195568	-0.006026	0.665340
N51	N	0.137987	-0.006029	0.665342
C52	C	0.075336	-0.000053	0.735436
N53	N	0.072448	0.005911	0.805527
N54	N	0.130037	0.005910	0.805524
C55	C	0.192240	-0.000054	0.735433
C56	C	-0.020692	-0.043132	0.778510
C57	C	-0.081319	-0.043120	0.778521
C58	C	-0.081330	0.043048	0.692380
C59	C	-0.020710	0.043041	0.692377
C60	C	0.009608	-0.000054	0.735441
C61	C	0.823859	-0.000041	0.735450
C62	C	0.888369	-0.000038	0.735452
C63	C	0.633806	-0.220651	0.735418
C64	C	0.633814	-0.295520	0.735410
C65	C	0.633794	0.567421	0.735433
C66	C	0.544084	0.590978	0.787241
C67	C	0.544028	0.513140	0.787532
C68	C	0.633774	0.432478	0.735456
C69	C	0.678330	0.434893	0.773413
C70	C	0.677757	0.513120	0.773792
C71	C	0.679590	0.512136	0.645646
C72	C	0.677904	0.435215	0.645788
C73	C	0.633767	0.356211	0.735468
C74	C	0.633804	0.643686	0.735424
C75	C	0.633777	-0.000040	0.302926
C76	C	0.544074	0.052003	0.326461
C77	C	0.544038	0.051763	0.248611
C78	C	0.633791	-0.000061	0.167963
C79	C	0.678603	-0.089748	0.170240
C80	C	0.678010	-0.089451	0.248479
C81	C	0.679318	0.036877	0.247795
C82	C	0.677649	0.038676	0.170864
C83	C	0.633803	-0.000078	0.091685
C84	C	0.633767	-0.000030	0.379202
C85	C	0.633800	-0.000075	0.956022
C86	C	0.633806	-0.000084	1.030884
C87	C	0.443725	-0.000085	0.956016
C88	C	0.379220	-0.000096	1.030876
C89	C	0.443686	0.220540	0.735465
C90	C	0.379168	0.295406	0.735472
C91	C	0.443702	0.220515	0.956042
C92	C	0.379190	0.295374	1.030911
C93	C	0.823865	-0.220617	0.514847
C94	C	0.888377	-0.295475	0.439978
C95	C	0.823843	-0.000017	0.514872
C96	C	0.888347	-0.000005	0.440012
C97	C	0.823882	-0.220641	0.735424
C98	C	0.888399	-0.295508	0.735417
C99	C	0.348930	-0.043181	1.022954
C100	C	0.288329	-0.043208	1.093286
C101	C	0.258017	-0.000145	1.171540
C102	C	0.288314	0.042941	1.179461
C103	C	0.348917	0.042963	1.109129
C104	C	0.348869	0.373644	0.778552
C105	C	0.288257	0.443995	0.778555
C106	C	0.257940	0.436108	0.735483
C107	C	0.288246	0.357863	0.692397
C108	C	0.348861	0.287513	0.692389
C109	C	0.348902	0.287446	1.109145
C110	C	0.288295	0.357777	1.179499
C111	C	0.257973	0.436034	1.171617
C112	C	0.288267	0.443959	1.093375
C113	C	0.348877	0.373630	1.023023
C114	C	0.918672	-0.287548	0.361744
C115	C	0.979299	-0.357878	0.291390
C116	C	1.009624	-0.436135	0.299271
C117	C	0.979327	-0.444061	0.377513
C118	C	0.918706	-0.373731	0.447866
C119	C	0.918644	0.043072	0.447934
C120	C	0.979261	0.043080	0.377602
C121	C	1.009576	0.000015	0.299349
C122	C	0.979276	-0.043068	0.291428
C123	C	0.918665	-0.043080	0.361760
C124	C	0.918696	-0.287594	0.778498
C125	C	0.979309	-0.357932	0.778508
C126	C	1.009628	-0.436184	0.735431
C127	C	0.979325	-0.444096	0.692349
C128	C	0.918709	-0.373758	0.692344
H129	H	0.373586	-0.078236	0.813565
H130	H	0.003958	0.078122	0.657309
Br131	Br	0.390045	0.181250	1.119864
H132	H	1.003976	-0.351474	0.813589
H133	H	0.373546	0.078116	0.657306
Br134	Br	0.787721	-0.157630	0.216266
Br135	Br	0.175676	0.531593	0.735501
Br136	Br	1.091895	-0.531634	0.735444
Br137	Br	0.485381	0.656263	0.745028
H138	H	1.004026	-0.507786	0.383921
Br139	Br	0.020453	-0.101611	0.836957
H140	H	0.373546	0.380081	0.813627
H141	H	0.745677	0.492219	0.606865
H142	H	1.058930	0.000031	0.242087
H143	H	0.646543	-0.118982	0.284903
H144	H	0.373523	0.223811	0.657311
Br145	Br	1.020424	-0.101507	0.185220
H146	H	0.263553	0.351453	0.657328
Br147	Br	-0.122431	-0.101599	0.836965
H148	H	0.893967	0.078146	0.511646
Br149	Br	0.247193	0.347001	1.285673
Br150	Br	1.020488	-0.550300	0.633883
H151	H	1.003921	0.078166	0.384067
H152	H	1.003957	-0.351409	0.227689
Br153	Br	0.485761	0.515089	0.745102
Br154	Br	0.247140	0.550175	0.837034
Br155	Br	1.091897	-0.531576	0.203784
Br156	Br	0.877605	-0.384513	0.633863
Br157	Br	0.787455	0.480893	0.714987
H158	H	0.894040	-0.380195	0.511565
H159	H	0.208620	0.493294	1.228909
Br160	Br	0.788316	0.340216	0.713551
Br161	Br	0.877551	-0.101544	0.350993
H162	H	0.894020	-0.223885	0.813577
H163	H	0.263613	-0.078226	0.813574
H164	H	0.263569	0.507685	1.086970
Br165	Br	0.485467	0.161824	0.250723
Br166	Br	0.175768	-0.000184	1.266983
Br167	Br	0.247116	0.101510	0.633932
H168	H	0.373529	0.380096	0.959324
H169	H	-0.106012	0.078125	0.657312
H170	H	0.509052	0.630880	0.853076
Br171	Br	0.485398	0.516097	0.897928
H172	H	0.646100	0.549659	0.839863
H173	H	0.650876	0.548445	0.613938
Br174	Br	0.623747	0.435858	0.598527
Br175	Br	0.626769	0.432300	0.882492
Br176	Br	0.390057	-0.101632	0.916762
H177	H	0.508664	0.118213	0.365733
Br178	Br	0.787137	0.339602	0.576112
Br179	Br	0.877527	-0.181351	0.351025
Br180	Br	0.485986	0.009693	0.392775
H181	H	0.509060	0.026134	0.250269
Br182	Br	0.788612	-0.157228	0.075570
H183	H	0.647868	-0.119494	0.168562
Br184	Br	0.631116	0.145331	0.308495
Br185	Br	0.786759	-0.017893	0.075135
Br186	Br	0.789454	-0.025989	0.214633
Br187	Br	0.623113	0.148850	0.171782
H188	H	0.263669	-0.078293	1.086821
H189	H	0.263624	0.078000	1.243184
Br190	Br	0.390014	0.101445	1.119896
