data_functionalizedCrystal
_audit_creation_method	'MofGen! by Chris Wilmer'
_symmetry_space_group_name_H-M	'P1'
_symmetry_Int_Tables_number	1
_symmetry_cell_setting	triclinic
loop_
_symmetry_equiv_pos_as_xyz
  x,y,z
_cell_length_a	12.827893
_cell_length_b	13.031981
_cell_length_c	12.827885
_cell_angle_alpha	82.783254
_cell_angle_beta	89.980919
_cell_angle_gamma	97.191823
loop_
_atom_site_label
_atom_site_type_symbol
_atom_site_fract_x
_atom_site_fract_y
_atom_site_fract_z
Zn1	Zn	1.544847	-0.416067	-0.537943
Zn2	Zn	1.522547	-0.590879	-0.340977
Zn3	Zn	1.370082	-0.416117	-0.363211
Zn4	Zn	1.347890	-0.590801	-0.515687
O5	O	1.446341	-0.503466	-0.439454
O6	O	1.688123	-0.439267	-0.511824
O7	O	1.502277	-0.567750	-0.197683
O8	O	1.411885	-0.269845	-0.405008
O9	O	1.671740	-0.567701	-0.367114
O10	O	1.540284	-0.269808	-0.533383
O11	O	1.390262	-0.439354	-0.214018
O12	O	1.220903	-0.439278	-0.383428
O13	O	1.374061	-0.567568	-0.664882
O14	O	1.204599	-0.567618	-0.495452
O15	O	1.518765	-0.439192	-0.681234
O16	O	1.480758	-0.737134	-0.345533
O17	O	1.352438	-0.737077	-0.473892
C18	C	1.174834	-0.503446	-0.439438
C19	C	1.058679	-0.503462	-0.439452
C20	C	0.998800	-0.566918	-0.367773
C21	C	0.878747	-0.566936	-0.367787
C22	C	1.411799	-0.775030	-0.404908
C23	C	1.397117	-0.891207	-0.390164
C24	C	1.454059	-0.942900	-0.447170
C25	C	1.438886	-1.062974	-0.431933
C26	C	1.718909	-0.503487	-0.439471
C27	C	1.835061	-0.503496	-0.439479
C28	C	1.446425	-0.503366	-0.712037
C29	C	1.446461	-0.503323	-0.828196
C30	C	1.481047	-0.230841	-0.474158
C31	C	1.495837	-0.114665	-0.488947
C32	C	1.518073	-0.439786	-0.888073
C33	C	1.518112	-0.439740	-1.008130
C34	C	1.446327	-0.503491	-0.167941
C35	C	1.446532	-0.503239	-0.051821
H36	H	0.886518	-0.449162	-0.500845
H37	H	1.036413	-0.621234	-0.306399
N38	N	1.317659	-0.950317	-0.310567
H39	H	1.263523	-0.995623	-0.347282
H40	H	1.354555	-0.995551	-0.256493
H41	H	1.021065	-0.449153	-0.500832
N42	N	0.810590	-0.638894	-0.286486
H43	H	0.734490	-0.628705	-0.298017
H44	H	0.820128	-0.713578	-0.293105
H45	H	1.579351	-0.385419	-0.850456
H46	H	1.514040	-0.898264	-0.507261
H47	H	1.555821	-1.070032	-0.549042
H48	H	1.378894	-1.107608	-0.371848
H49	H	1.579425	-0.385347	-1.059591
N50	N	1.365304	-0.575306	-0.983682
H51	H	1.401632	-0.623727	-0.932235
H52	H	1.322336	-0.532729	-0.943874
N53	N	1.365287	-0.575331	-0.878026
H54	H	1.371982	-0.650040	-0.849583
H55	H	1.292702	-0.559028	-0.861136
