data_functionalizedCrystal
_audit_creation_method	'MofGen! by Chris Wilmer'
_symmetry_space_group_name_H-M	'P1'
_symmetry_Int_Tables_number	1
_symmetry_cell_setting	triclinic
loop_
_symmetry_equiv_pos_as_xyz
  x,y,z
_cell_length_a	12.594517
_cell_length_b	12.594516
_cell_length_c	16.120297
_cell_angle_alpha	92.876309
_cell_angle_beta	92.877961
_cell_angle_gamma	90.011616
loop_
_atom_site_label
_atom_site_type_symbol
_atom_site_fract_x
_atom_site_fract_y
_atom_site_fract_z
Zn1	Zn	1.596773	-0.454293	-0.471414
Zn2	Zn	1.605704	-0.623261	-0.332012
Zn3	Zn	1.427803	-0.445296	-0.332017
Zn4	Zn	1.418775	-0.632226	-0.471377
O5	O	1.512264	-0.538769	-0.401705
O6	O	1.746902	-0.476719	-0.452936
O7	O	1.589621	-0.592136	-0.215349
O8	O	1.450258	-0.297545	-0.350526
O9	O	1.753464	-0.600860	-0.350517
O10	O	1.574400	-0.304155	-0.452940
O11	O	1.458918	-0.461387	-0.215353
O12	O	1.277661	-0.470080	-0.350490
O13	O	1.434870	-0.616140	-0.588045
O14	O	1.271027	-0.607417	-0.452877
O15	O	1.565645	-0.485413	-0.588073
O16	O	1.580866	-0.773395	-0.350481
O17	O	1.443530	-0.779982	-0.452872
C18	C	1.235724	-0.538746	-0.401680
C19	C	1.117418	-0.538763	-0.401690
C20	C	1.051735	-0.463976	-0.346107
C21	C	0.982259	-0.559734	-0.325602
C22	C	0.976094	-0.443053	-0.422209
C23	C	1.049503	-0.634570	-0.381145
C24	C	1.043342	-0.517826	-0.477787
C25	C	0.973896	-0.613653	-0.457311
C26	C	1.512215	-0.815309	-0.401691
C27	C	1.512290	-0.933616	-0.401712
C28	C	1.587066	-0.999252	-0.346081
C29	C	1.608149	-1.074884	-0.422174
C30	C	1.491337	-1.068786	-0.325667
C31	C	1.533420	-1.007692	-0.477845
C32	C	1.416566	-1.001585	-0.381287
C33	C	1.437609	-1.077188	-0.457433
C34	C	1.789883	-0.538793	-0.401730
C35	C	1.908187	-0.538803	-0.401741
C36	C	1.498254	-0.552780	-0.619154
C37	C	1.492284	-0.558751	-0.711818
C38	C	1.512340	-0.261150	-0.401738
C39	C	1.512372	-0.142846	-0.401752
C40	C	1.481346	-0.569628	-0.881476
C41	C	1.543391	-0.507591	-0.922786
C42	C	1.537305	-0.513644	-1.017189
C43	C	1.487431	-0.563577	-0.787064
C44	C	1.526279	-0.524736	-0.185102
C45	C	1.532455	-0.518465	-0.092438
H46	H	0.955267	-0.577468	-0.261270
H47	H	1.650308	-0.965152	-0.299078
H48	H	1.085799	-0.400785	-0.299045
Br49	Br	1.102954	-0.769538	-0.352130
H50	H	1.689136	-1.107041	-0.439472
H51	H	0.940030	-0.676985	-0.504337
H52	H	1.070360	-0.500061	-0.542100
Br53	Br	0.922413	-0.308123	-0.451098
Br54	Br	1.385201	-0.665724	-0.940696
Br55	Br	1.639569	-0.411517	-0.863567
Br56	Br	1.563189	-0.962924	-0.585090
Br57	Br	1.332263	-1.133713	-0.535959
H58	H	1.335605	-0.969404	-0.363966
Br59	Br	1.461740	-1.113790	-0.218455
