data_functionalizedCrystal
_audit_creation_method	'MofGen! by Chris Wilmer'
_symmetry_space_group_name_H-M	'P1'
_symmetry_Int_Tables_number	1
_symmetry_cell_setting	triclinic
loop_
_symmetry_equiv_pos_as_xyz
  x,y,z
_cell_length_a	25.639239
_cell_length_b	18.101398
_cell_length_c	18.101390
_cell_angle_alpha	90.024681
_cell_angle_beta	89.965056
_cell_angle_gamma	89.966048
loop_
_atom_site_label
_atom_site_type_symbol
_atom_site_fract_x
_atom_site_fract_y
_atom_site_fract_z
Zn1	Zn	-0.208197	-1.132085	-0.418828
Zn2	Zn	-0.295640	-1.131963	-0.294982
Zn3	Zn	-0.208214	-1.008243	-0.294989
Zn4	Zn	-0.295596	-1.008178	-0.418771
O5	O	-0.251912	-1.070117	-0.356893
O6	O	-0.219808	-1.235701	-0.402421
O7	O	-0.284069	-1.115528	-0.191350
O8	O	-0.135046	-1.024749	-0.311444
O9	O	-0.284052	-1.235612	-0.311432
O10	O	-0.135034	-1.115735	-0.402428
O11	O	-0.219836	-1.024631	-0.191356
O12	O	-0.219793	-0.904601	-0.311388
O13	O	-0.283977	-1.024638	-0.522411
O14	O	-0.283993	-0.904554	-0.402330
O15	O	-0.219765	-1.115672	-0.522454
O16	O	-0.368800	-1.115465	-0.311376
O17	O	-0.368767	-1.024520	-0.402323
C18	C	-0.251890	-0.877707	-0.356854
C19	C	-0.251894	-0.795393	-0.356855
C20	C	-0.387754	-1.069993	-0.356859
C21	C	-0.445868	-1.070007	-0.356869
C22	C	-0.251864	-1.070161	-0.550055
C23	C	-0.251844	-1.070180	-0.632369
C24	C	-0.806236	-1.117596	-0.309617
C25	C	-0.860840	-1.117624	-0.309627
O26	O	-0.889081	-1.157957	-0.269415
N27	N	-0.888151	-1.070247	-0.356942
C28	C	-0.860854	-1.022844	-0.404255
O29	O	-0.889098	-0.982549	-0.444501
C30	C	-0.806251	-1.022819	-0.404248
C31	C	-0.778943	-1.070194	-0.356925
C32	C	-0.778928	-1.164967	-0.262299
C33	C	-0.724327	-1.164937	-0.262288
C34	C	-0.697035	-1.117536	-0.309596
C35	C	-0.724343	-1.070164	-0.356914
C36	C	-0.778955	-0.975420	-0.451564
C37	C	-0.724348	-0.975400	-0.451554
C38	C	-0.697041	-1.022775	-0.404231
C39	C	-0.642449	-1.022733	-0.404212
N40	N	-0.615139	-1.070110	-0.356897
C41	C	-0.642431	-1.117511	-0.309589
C42	C	-0.975525	-1.022900	-0.404266
C43	C	-1.030127	-1.022920	-0.404270
C44	C	-1.030109	-1.117701	-0.309643
C45	C	-0.975506	-1.117677	-0.309636
C46	C	-0.948214	-1.070277	-0.356952
C47	C	-0.527766	-1.117445	-0.309570
C48	C	-0.473161	-1.117408	-0.309561
C49	C	-0.473184	-1.022630	-0.404190
C50	C	-0.527784	-1.022663	-0.404197
C51	C	-0.555074	-1.070076	-0.356884
O52	O	-0.614174	-0.982424	-0.444406
O53	O	-0.614181	-1.157806	-0.269357
C54	C	-0.115539	-1.070262	-0.356943
C55	C	-0.057425	-1.070324	-0.356964
C56	C	-0.251933	-1.263279	-0.356932
C57	C	-0.251943	-1.345593	-0.356949
C58	C	-0.251927	-0.496302	-0.356917
C59	C	-0.211332	-0.527632	-0.299978
C60	C	-0.211441	-0.613250	-0.299735
C61	C	-0.251910	-0.644684	-0.356886
C62	C	-0.306988	-0.613555	-0.335559
C63	C	-0.306762	-0.527910	-0.335163
C64	C	-0.237922	-0.527919	-0.435317
C65	C	-0.236696	-0.613570	-0.434890
C66	C	-0.251904	-0.728544	-0.356870
C67	C	-0.251936	-0.412442	-0.356932
C68	C	-0.251811	-1.070220	-0.931460
C69	C	-0.211553	-1.127684	-0.900161
C70	C	-0.211403	-1.127505	-0.814543
C71	C	-0.251827	-1.070201	-0.783077
C72	C	-0.236853	-0.992187	-0.814145
C73	C	-0.236551	-0.992531	-0.899790
C74	C	-0.307147	-1.090082	-0.899871
C75	C	-0.306865	-1.091794	-0.814221
C76	C	-0.251837	-1.070185	-0.699218
C77	C	-0.251800	-1.070230	-1.015320
C78	C	-0.251921	-1.070116	-0.164482
C79	C	-0.251794	-1.070241	-0.082169
H80	H	-0.549979	-1.156055	-0.271045
H81	H	-0.953275	-1.156254	-0.271102
C82	C	-0.156025	-1.109742	-0.786879
C83	C	-0.144870	-1.106047	-0.703377
C84	C	-0.089489	-1.088281	-0.675713
C85	C	-0.045264	-1.074210	-0.731552
C86	C	-0.056418	-1.077904	-0.815059
C87	C	-0.111799	-1.095670	-0.842723
H88	H	-0.177609	-1.116464	-0.662037
H89	H	-0.081232	-1.085547	-0.613896
H90	H	-0.004268	-1.061059	-0.711074
H91	H	-0.023679	-1.067488	-0.856399
H92	H	-0.120056	-1.098405	-0.904541
H93	H	-0.702096	-1.203516	-0.223756
H94	H	-0.220699	-0.633702	-0.241642
H95	H	-0.550019	-0.984089	-0.442733
H96	H	-0.450953	-0.984034	-0.442706
H97	H	-1.052357	-0.984335	-0.442798
H98	H	-0.801180	-0.936839	-0.490096
C99	C	-0.274435	-0.932722	-0.927764
C100	C	-0.281885	-0.920834	-1.011328
C101	C	-0.319764	-0.861021	-1.039298
C102	C	-0.350193	-0.813097	-0.983705
C103	C	-0.342744	-0.824983	-0.900136
C104	C	-0.304865	-0.884796	-0.872166
H105	H	-0.259359	-0.956311	-1.052486
H106	H	-0.325279	-0.852222	-1.101162
H107	H	-0.378234	-0.768820	-1.004410
H108	H	-0.365270	-0.789505	-0.858978
H109	H	-0.299350	-0.893595	-0.810302
H110	H	-0.320781	-1.145972	-0.921520
H111	H	-0.170365	-0.507069	-0.313200
C112	C	-0.181941	-0.641059	-0.456626
C113	C	-0.137979	-0.585118	-0.471684
C114	C	-0.083225	-0.612611	-0.493420
C115	C	-0.072433	-0.696045	-0.500098
C116	C	-0.116397	-0.751991	-0.485040
C117	C	-0.171151	-0.724498	-0.463304
H118	H	-0.145966	-0.523351	-0.466741
H119	H	-0.050680	-0.571195	-0.504567
H120	H	-0.031901	-0.716396	-0.516189
H121	H	-0.108410	-0.813758	-0.489983
H122	H	-0.203696	-0.765914	-0.452157
C123	C	-0.322121	-1.169356	-0.786799
C124	C	-0.284796	-1.212902	-0.736364
C125	C	-0.300049	-1.290465	-0.708940
C126	C	-0.352627	-1.324482	-0.731952
C127	C	-0.389955	-1.280936	-0.782389
C128	C	-0.374702	-1.203373	-0.809813
H129	H	-0.245871	-1.187720	-0.719327
H130	H	-0.272416	-1.322700	-0.671603
H131	H	-0.363919	-1.381899	-0.711651
H132	H	-0.428880	-1.306118	-0.799426
H133	H	-0.402335	-1.171138	-0.847151
C134	C	-0.182811	-0.969023	-0.785197
C135	C	-0.138159	-0.953413	-0.839932
C136	C	-0.084116	-0.930254	-0.810986
C137	C	-0.074726	-0.922705	-0.727305
C138	C	-0.119379	-0.938315	-0.672565
C139	C	-0.173422	-0.961474	-0.701511
H140	H	-0.145110	-0.959001	-0.901882
H141	H	-0.051061	-0.918698	-0.851509
H142	H	-0.034720	-0.905561	-0.705878
H143	H	-0.112428	-0.932726	-0.610615
H144	H	-0.206477	-0.973029	-0.660988
H145	H	-0.953306	-0.984294	-0.442794
C146	C	-0.322801	-0.500866	-0.257735
C147	C	-0.285165	-0.452763	-0.212155
C148	C	-0.301203	-0.425723	-0.134724
C149	C	-0.354876	-0.446788	-0.102874
C150	C	-0.392515	-0.494894	-0.148455
C151	C	-0.376478	-0.521933	-0.225885
H152	H	-0.245430	-0.437167	-0.235732
H153	H	-0.273340	-0.390112	-0.100983
H154	H	-0.366749	-0.426771	-0.045555
H155	H	-0.432251	-0.510489	-0.124877
H156	H	-0.404341	-0.557544	-0.259627
C157	C	-0.349012	-0.499902	-0.388731
C158	C	-0.382850	-0.555468	-0.431730
C159	C	-0.425103	-0.527463	-0.485291
C160	C	-0.433518	-0.443893	-0.495852
C161	C	-0.399678	-0.388322	-0.452852
C162	C	-0.357425	-0.416326	-0.399292
H163	H	-0.376622	-0.617336	-0.423913
H164	H	-0.450153	-0.568601	-0.517123
H165	H	-0.464796	-0.423162	-0.535501
H166	H	-0.405906	-0.326453	-0.460669
H167	H	-0.332375	-0.375189	-0.367460
C168	C	-0.184608	-0.498793	-0.461515
C169	C	-0.162794	-0.522543	-0.537171
C170	C	-0.109478	-0.493417	-0.563359
C171	C	-0.077976	-0.440539	-0.513891
C172	C	-0.099790	-0.416786	-0.438230
C173	C	-0.153106	-0.445913	-0.412042
H174	H	-0.186114	-0.561689	-0.573795
H175	H	-0.093331	-0.511001	-0.619368
H176	H	-0.038509	-0.418978	-0.533276
H177	H	-0.076470	-0.377640	-0.401606
H178	H	-0.169254	-0.428328	-0.356033
C179	C	-0.349566	-1.039354	-0.785300
C180	C	-0.335143	-0.975720	-0.732662
C181	C	-0.377842	-0.923268	-0.703746
C182	C	-0.434965	-0.934451	-0.727467
C183	C	-0.449391	-0.998088	-0.780107
C184	C	-0.406691	-1.050539	-0.809024
H185	H	-0.292855	-0.967439	-0.715100
H186	H	-0.367163	-0.876160	-0.664778
H187	H	-0.466573	-0.895623	-0.706062
H188	H	-0.491679	-1.006369	-0.797670
H189	H	-0.417371	-1.097648	-0.847992
H190	H	-0.319069	-0.634968	-0.278864
H191	H	-0.337143	-1.048231	-0.920116
H192	H	-0.220781	-1.185355	-0.793540
H193	H	-0.170788	-1.114704	-0.921700
C194	C	-0.224056	-1.206093	-0.928006
C195	C	-0.270974	-1.218906	-0.979506
C196	C	-0.283477	-1.297317	-1.007358
C197	C	-0.249063	-1.362914	-0.983710
C198	C	-0.202142	-1.350103	-0.932207
C199	C	-0.189639	-1.271693	-0.904355
H200	H	-0.296452	-1.170345	-0.997014
H201	H	-0.318211	-1.306800	-1.045484
H202	H	-0.258319	-1.420959	-1.004328
H203	H	-0.176664	-1.398665	-0.914699
H204	H	-0.154905	-1.262210	-0.866229
H205	H	-0.450929	-1.155987	-0.271023
H206	H	-0.220486	-0.506081	-0.242223
H207	H	-0.702130	-0.936802	-0.490086
H208	H	-0.264108	-0.634971	-0.479587
H209	H	-0.801144	-1.203571	-0.223775
C210	C	-0.348948	-0.641060	-0.389824
C211	C	-0.333651	-0.692227	-0.454288
C212	C	-0.375610	-0.719732	-0.508553
C213	C	-0.432865	-0.696071	-0.498354
C214	C	-0.448165	-0.644900	-0.433887
C215	C	-0.406206	-0.617395	-0.379622
H216	H	-0.291264	-0.709745	-0.461841
H217	H	-0.364284	-0.757612	-0.556276
H218	H	-0.463926	-0.716432	-0.538525
H219	H	-0.490551	-0.627382	-0.426334
H220	H	-0.417532	-0.579515	-0.331899
C221	C	-0.181907	-0.969786	-0.926804
C222	C	-0.149653	-1.023086	-0.974940
C223	C	-0.095007	-1.000342	-1.001950
C224	C	-0.072614	-0.924298	-0.980825
C225	C	-0.104869	-0.870992	-0.932687
C226	C	-0.159515	-0.893736	-0.905677
H227	H	-0.166229	-1.079384	-0.990580
H228	H	-0.071130	-1.039803	-1.037585
H229	H	-0.032162	-0.907461	-1.000820
H230	H	-0.088293	-0.814695	-0.917047
H231	H	-0.183391	-0.854275	-0.870042
H232	H	-0.170599	-0.634299	-0.313104
C233	C	-1.060138	-1.169850	-0.257607
C234	C	-1.120199	-1.169877	-0.257625
C235	C	-1.150229	-1.222021	-0.205592
C236	C	-1.120198	-1.274138	-0.153541
C237	C	-1.060133	-1.274114	-0.153521
C238	C	-1.030103	-1.221969	-0.205554
H239	H	-1.142433	-1.131294	-0.296158
H240	H	-1.194694	-1.222039	-0.205607
H241	H	-1.142428	-1.312739	-0.115023
H242	H	-1.037899	-1.312696	-0.114989
H243	H	-0.985639	-1.221951	-0.205539
C244	C	-0.277861	-0.500549	-0.492637
C245	C	-0.310920	-0.556571	-0.536258
C246	C	-0.350860	-0.529198	-0.593572
C247	C	-0.357741	-0.445803	-0.607265
C248	C	-0.324681	-0.389776	-0.563642
C249	C	-0.284741	-0.417149	-0.506329
H250	H	-0.305827	-0.618309	-0.526123
H251	H	-0.375333	-0.570673	-0.625864
H252	H	-0.387307	-0.425540	-0.649691
H253	H	-0.329774	-0.328038	-0.573778
H254	H	-0.260268	-0.375674	-0.474037
H255	H	-0.265272	-0.948210	-0.793760
