data_functionalizedCrystal
_audit_creation_method	'MofGen! by Chris Wilmer'
_symmetry_space_group_name_H-M	'P1'
_symmetry_Int_Tables_number	1
_symmetry_cell_setting	triclinic
loop_
_symmetry_equiv_pos_as_xyz
  x,y,z
_cell_length_a	8.597340
_cell_length_b	10.967829
_cell_length_c	7.088929
_cell_angle_alpha	71.681627
_cell_angle_beta	103.954719
_cell_angle_gamma	86.633684
loop_
_atom_site_label
_atom_site_type_symbol
_atom_site_fract_x
_atom_site_fract_y
_atom_site_fract_z
O1	O	2.097321	0.176058	0.128505
O2	O	1.632157	0.196986	0.044980
O3	O	1.881732	-0.000109	0.151037
O4	O	1.847746	0.373153	0.022447
O5	O	1.915086	-0.026508	0.483205
O6	O	1.665511	0.170587	0.377148
O7	O	2.130675	0.149659	0.460673
Cu8	Cu	1.901139	0.157712	0.449240
Cu9	Cu	1.861693	0.188933	0.056413
O10	O	1.881100	0.346754	0.354616
C11	C	1.589389	0.183009	0.201527
C12	C	1.412261	0.180679	0.173115
C13	C	1.898456	-0.061068	0.332862
C14	C	1.898578	-0.203375	0.379760
C15	C	1.881354	-0.253138	0.228594
C16	C	1.881479	-0.400220	0.277063
C17	C	2.173443	0.163636	0.304121
C18	C	2.350569	0.165967	0.332520
C19	C	1.864375	0.407713	0.172787
C20	C	1.864252	0.550021	0.125875
N21	N	1.928894	0.135753	0.725536
N22	N	1.833951	0.210882	-0.219878
H23	H	1.329560	0.191494	0.014887
C24	C	1.865138	-0.035288	0.000628
C25	C	1.861364	-0.163673	0.005443
H26	H	1.852819	0.019937	-0.137136
H27	H	1.779339	-0.009468	0.049203
H28	H	1.965833	-0.029263	0.086531
H29	H	1.760664	-0.169701	-0.080448
H30	H	1.947169	-0.189500	-0.043158
H31	H	1.913407	-0.269659	0.545060
H32	H	1.433263	0.155144	0.490741
C33	C	1.549547	0.291753	0.644696
C34	C	1.701105	0.315983	0.613401
H35	H	1.467537	0.356646	0.541766
H36	H	1.530634	0.208946	0.636148
H37	H	1.547680	0.293257	0.777392
H38	H	1.702976	0.314470	0.480711
H39	H	1.720023	0.398812	0.621931
H40	H	2.027310	0.057902	0.849057
H41	H	1.896309	-0.466500	0.442373
C42	C	1.695710	-0.369573	-0.223758
C43	C	1.844162	-0.360561	-0.097339
H44	H	1.683291	-0.314377	-0.361566
H45	H	1.693205	-0.456688	-0.220360
H46	H	1.609953	-0.343743	-0.175097
H47	H	1.929921	-0.386400	-0.145991
H48	H	1.846681	-0.273426	-0.100746
