data_functionalizedCrystal
_audit_creation_method	'MofGen! by Chris Wilmer'
_symmetry_space_group_name_H-M	'P1'
_symmetry_Int_Tables_number	1
_symmetry_cell_setting	triclinic
loop_
_symmetry_equiv_pos_as_xyz
  x,y,z
_cell_length_a	14.971486
_cell_length_b	14.519709
_cell_length_c	14.048226
_cell_angle_alpha	89.992623
_cell_angle_beta	89.998499
_cell_angle_gamma	83.647137
loop_
_atom_site_label
_atom_site_type_symbol
_atom_site_fract_x
_atom_site_fract_y
_atom_site_fract_z
O1	O	1.187015	0.120184	-0.079053
O2	O	1.520348	0.453517	0.254280
O3	O	1.853681	0.786850	0.587613
O4	O	0.926623	0.134576	-0.079079
O5	O	1.259956	0.467909	0.254254
O6	O	1.593289	0.801243	0.587587
O7	O	1.063722	-0.006863	-0.079057
O8	O	1.397056	0.326471	0.254276
O9	O	1.730389	0.659804	0.587610
O10	O	1.049915	0.261622	-0.079076
O11	O	1.383248	0.594956	0.254258
O12	O	1.716581	0.928289	0.587591
O13	O	1.063706	-0.006871	0.079264
O14	O	1.397039	0.326462	0.412598
O15	O	1.730373	0.659796	0.745931
O16	O	0.926606	0.134568	0.079242
O17	O	1.259939	0.467901	0.412575
O18	O	1.593273	0.801234	0.745909
O19	O	1.186998	0.120175	0.079268
O20	O	1.520331	0.453509	0.412601
O21	O	1.853665	0.786842	0.745935
Zn22	Zn	1.056799	0.127370	0.104392
Zn23	Zn	1.390133	0.460703	0.437725
Zn24	Zn	1.723466	0.794037	0.771059
Zn25	Zn	1.056821	0.127381	-0.104203
Zn26	Zn	1.390155	0.460714	0.229130
Zn27	Zn	1.723488	0.794048	0.562463
O28	O	1.049898	0.261614	0.079246
O29	O	1.383231	0.594947	0.412579
O30	O	1.716565	0.928281	0.745912
C31	C	0.893289	0.133928	0.000078
C32	C	1.226623	0.467261	0.333411
C33	C	1.559956	0.800595	0.666745
C34	C	0.793991	0.131999	0.000068
C35	C	1.127324	0.465333	0.333402
C36	C	1.460658	0.798666	0.666735
C37	C	0.736812	0.215091	0.000064
C38	C	1.070146	0.548424	0.333397
C39	C	1.403479	0.881757	0.666731
C40	C	0.643512	0.213273	0.000078
C41	C	0.976845	0.546606	0.333412
C42	C	1.310179	0.879940	0.666745
C43	C	0.607392	0.128363	0.000090
C44	C	0.940725	0.461696	0.333423
C45	C	1.274059	0.795029	0.666757
C46	C	0.664578	0.045265	0.000097
C47	C	0.997911	0.378598	0.333431
C48	C	1.331244	0.711932	0.666764
C49	C	0.757876	0.047084	0.000090
C50	C	1.091210	0.380417	0.333423
C51	C	1.424543	0.713750	0.666757
C52	C	0.470113	0.041480	0.000111
C53	C	0.803447	0.374813	0.333444
C54	C	1.136780	0.708147	0.666777
C55	C	0.376808	0.039661	0.000116
C56	C	0.710141	0.372994	0.333450
C57	C	1.043475	0.706327	0.666783
C58	C	0.355749	0.207669	0.000099
C59	C	0.689082	0.541002	0.333432
C60	C	1.022415	0.874336	0.666766
C61	C	0.449047	0.209488	0.000092
C62	C	0.782381	0.542821	0.333425
C63	C	1.115714	0.876155	0.666758
C64	C	0.506227	0.126390	0.000097
C65	C	0.839560	0.459723	0.333430
C66	C	1.172894	0.793056	0.666764
C67	C	1.063071	-0.041226	0.000104
C68	C	1.396404	0.292107	0.333437
C69	C	1.729737	0.625440	0.666770
C70	C	1.061142	-0.143606	0.000104
C71	C	1.394476	0.189727	0.333437
C72	C	1.727809	0.523060	0.666771
C73	C	1.054043	-0.518498	0.000079
C74	C	1.387377	-0.185165	0.333412
C75	C	1.720710	0.148169	0.666745
C76	C	1.056015	-0.414191	0.000086
C77	C	1.389348	-0.080858	0.333419
C78	C	1.722681	0.252475	0.666753
C79	C	1.057593	-0.331055	0.000092
C80	C	1.390926	0.002278	0.333426
C81	C	1.724259	0.335611	0.666759
C82	C	1.059564	-0.226742	0.000098
C83	C	1.392898	0.106591	0.333431
C84	C	1.726231	0.439925	0.666765
C85	C	1.220331	0.120823	0.000109
C86	C	1.553665	0.454157	0.333442
C87	C	1.886998	0.787490	0.666775
C88	C	1.319630	0.122752	0.000112
C89	C	1.652963	0.456085	0.333445
C90	C	1.986296	0.789419	0.666779
C91	C	1.050550	0.295978	0.000083
C92	C	1.383883	0.629311	0.333416
C93	C	1.717217	0.962644	0.666750
C94	C	1.052478	0.398358	0.000076
C95	C	1.385812	0.731691	0.333410
C96	C	1.719145	1.065024	0.666743
N97	N	1.056791	0.127362	0.246753
N98	N	1.390124	0.460695	0.580086
N99	N	1.723458	0.794029	0.913419
N100	N	1.056837	0.127382	-0.246564
N101	N	1.390170	0.460715	0.086769
N102	N	1.723503	0.794049	0.420103
C103	C	1.117518	0.064759	0.296581
C104	C	1.450851	0.398092	0.629914
C105	C	1.784185	0.731426	0.963247
C106	C	1.117524	0.064758	0.396238
C107	C	1.450857	0.398092	0.729572
C108	C	1.784191	0.731425	1.062905
C109	C	1.056807	0.127366	0.446066
C110	C	1.390140	0.460700	0.779399
C111	C	1.723473	0.794033	1.112733
C112	C	0.996073	0.189972	0.396231
C113	C	1.329407	0.523306	0.729565
C114	C	1.662740	0.856639	1.062898
C115	C	0.996064	0.189968	0.296575
C116	C	1.329397	0.523301	0.629909
C117	C	1.662730	0.856634	0.963242
C118	C	0.996099	0.189979	0.603945
C119	C	1.329432	0.523312	0.937279
C120	C	1.662766	0.856646	1.270612
C121	C	0.996110	0.189985	0.703608
C122	C	1.329443	0.523318	1.036942
C123	C	1.662776	0.856652	1.370275
C124	C	1.117560	0.064770	0.703608
C125	C	1.450893	0.398103	1.036942
C126	C	1.784226	0.731436	1.370275
C127	C	1.117550	0.064765	0.603952
C128	C	1.450883	0.398098	0.937286
C129	C	1.784217	0.731432	1.270619
C130	C	1.056817	0.127373	0.554124
C131	C	1.390151	0.460706	0.887458
C132	C	1.723484	0.794039	1.220791
H133	H	0.766213	0.284234	0.000054
H134	H	1.099547	0.617568	0.333387
H135	H	1.432880	0.950901	0.666720
Br136	Br	0.547714	-0.071297	0.000123
Br137	Br	0.881047	0.262036	0.333456
Br138	Br	1.214380	0.595369	0.666790
H139	H	0.635162	-0.023871	0.000121
H140	H	0.968495	0.309463	0.333454
H141	H	1.301828	0.642796	0.666787
Br142	Br	0.913704	0.274956	0.771225
Br143	Br	1.247037	0.608290	1.104558
Br144	Br	1.580370	0.941623	1.437891
H145	H	0.804431	-0.020578	0.000093
H146	H	1.137765	0.312755	0.333426
H147	H	1.471098	0.646089	0.666760
Br148	Br	1.199932	-0.020207	0.228967
Br149	Br	1.533265	0.313126	0.562301
Br150	Br	1.866598	0.646459	0.895634
Br151	Br	0.565915	0.326045	0.000069
Br152	Br	0.899248	0.659378	0.333402
Br153	Br	1.232581	0.992712	0.666736
Br154	Br	1.199937	-0.020207	0.463865
Br155	Br	1.533271	0.313126	0.797199
Br156	Br	1.866604	0.646459	1.130532
Br157	Br	1.199959	-0.020194	0.536325
Br158	Br	1.533293	0.313139	0.869659
Br159	Br	1.866626	0.646473	1.202992
H160	H	1.167010	0.013793	0.744184
H161	H	1.500343	0.347126	1.077517
H162	H	1.833676	0.680459	1.410851
H163	H	0.347403	-0.029481	0.000127
H164	H	0.680736	0.303853	0.333461
H165	H	1.014069	0.637186	0.666794
H166	H	0.309188	0.275331	0.000099
H167	H	0.642522	0.608664	0.333432
H168	H	0.975855	0.941997	0.666766
H169	H	0.946613	0.240944	0.256006
H170	H	1.279946	0.574278	0.589340
H171	H	1.613279	0.907611	0.922673
H172	H	0.478453	0.278629	0.000073
H173	H	0.811786	0.611962	0.333406
H174	H	1.145120	0.945296	0.666740
Br175	Br	0.913670	0.274944	0.536325
Br176	Br	1.247004	0.608277	0.869658
Br177	Br	1.580337	0.941611	1.202991
Br178	Br	0.913662	0.274936	0.463851
Br179	Br	1.246996	0.608269	0.797184
Br180	Br	1.580329	0.941602	1.130518
