data_functionalizedCrystal
_audit_creation_method	'MofGen! by Chris Wilmer'
_symmetry_space_group_name_H-M	'P1'
_symmetry_Int_Tables_number	1
_symmetry_cell_setting	triclinic
loop_
_symmetry_equiv_pos_as_xyz
  x,y,z
_cell_length_a	21.395362
_cell_length_b	13.897449
_cell_length_c	21.395361
_cell_angle_alpha	89.984847
_cell_angle_beta	89.953415
_cell_angle_gamma	90.024426
loop_
_atom_site_label
_atom_site_type_symbol
_atom_site_fract_x
_atom_site_fract_y
_atom_site_fract_z
Zn1	Zn	0.957739	0.545870	0.249285
Zn2	Zn	0.957677	0.384555	0.354033
Zn3	Zn	0.852989	0.384531	0.249303
Zn4	Zn	0.852923	0.545750	0.354058
O5	O	0.905332	0.465177	0.301670
O6	O	1.045408	0.524532	0.263162
O7	O	0.943792	0.249570	0.340138
O8	O	0.866938	0.405973	0.161622
O9	O	1.045363	0.406015	0.340121
O10	O	0.943897	0.524509	0.161609
O11	O	0.866878	0.249553	0.263192
O12	O	0.765303	0.405856	0.263216
O13	O	0.866825	0.680747	0.340162
O14	O	0.765254	0.524303	0.340179
O15	O	0.943833	0.680836	0.263186
O16	O	0.943727	0.405898	0.441714
O17	O	0.866765	0.524327	0.441732
C18	C	0.742544	0.465065	0.301703
C19	C	0.672903	0.465040	0.301732
C20	C	0.640181	0.526623	0.341860
C21	C	0.574745	0.526665	0.341844
C22	C	0.542035	0.465108	0.301708
C23	C	0.574765	0.403521	0.261572
C24	C	0.640199	0.403487	0.261584
C25	C	0.438329	0.378272	0.296654
C26	C	0.372896	0.378305	0.296646
C27	C	0.340214	0.465215	0.301667
C28	C	0.372973	0.552095	0.306708
C29	C	0.438407	0.552061	0.306720
C30	C	0.471082	0.465139	0.301690
C31	C	0.236539	0.526850	0.341780
C32	C	0.171103	0.526894	0.341761
C33	C	0.171123	0.403741	0.261492
C34	C	0.236559	0.403705	0.261508
C35	C	0.269263	0.465258	0.301656
C36	C	0.905328	0.716769	0.301675
C37	C	0.905327	0.823983	0.301677
C38	C	0.905325	0.911053	0.301680
C39	C	0.905325	1.020286	0.301677
C40	C	1.068755	0.465289	0.301637
C41	C	1.138397	0.465338	0.301623
C42	C	0.905249	0.465123	0.464457
C43	C	0.905271	0.465132	0.534099
C44	C	0.905330	1.214562	0.301677
C45	C	0.905328	1.107348	0.301671
C46	C	0.905432	0.465252	0.138246
C47	C	0.905475	0.465284	0.068605
C48	C	0.945381	0.403529	0.566781
C49	C	0.945410	0.403551	0.632217
C50	C	0.905318	0.465165	0.664967
C51	C	0.865206	0.526780	0.632276
C52	C	0.865182	0.526763	0.566842
C53	C	0.848902	0.472695	0.768698
C54	C	0.848924	0.472704	0.834131
C55	C	0.905391	0.465222	0.866788
C56	C	0.961837	0.457709	0.834003
C57	C	0.961814	0.457693	0.768569
C58	C	0.905340	0.465190	0.735919
C59	C	0.945536	0.403639	0.970423
C60	C	0.945566	0.403668	1.035860
C61	C	0.865356	0.526892	1.035917
C62	C	0.865332	0.526868	0.970482
C63	C	0.905421	0.465237	0.937739
H64	H	0.464934	0.307495	0.292563
H65	H	0.802962	0.478812	0.860819
H66	H	0.978232	0.353505	1.062469
H67	H	0.263201	0.353553	0.228835
N68	N	0.337566	0.284604	0.291214
H69	H	0.368198	0.229543	0.288028
H70	H	0.310455	0.286121	0.252606
H71	H	0.978025	0.353348	0.540124
H72	H	1.007818	0.451616	0.860590
H73	H	0.978181	0.353458	0.943762
N74	N	0.821917	0.593201	0.531583
H75	H	0.831613	0.662144	0.542936
H76	H	0.777180	0.578054	0.543042
H77	H	0.144491	0.353625	0.228809
N78	N	0.675489	0.337052	0.218302
H79	H	0.702588	0.292262	0.243723
H80	H	0.702651	0.376386	0.189320
N81	N	0.539441	0.593091	0.385125
H82	H	0.570089	0.632080	0.410559
H83	H	0.512245	0.553751	0.414072
H84	H	0.144461	0.577048	0.374436
N85	N	0.539489	0.337115	0.218289
H86	H	0.493070	0.346473	0.224375
H87	H	0.550889	0.268197	0.227981
H88	H	0.978074	0.353387	0.658832
H89	H	1.007773	0.451578	0.741877
H90	H	0.832564	0.576948	0.658945
H91	H	0.832715	0.577063	1.062582
H92	H	0.832668	0.577027	0.943870
H93	H	0.802916	0.478792	0.742116
H94	H	0.465076	0.622801	0.310824
N95	N	0.675454	0.593009	0.385160
H96	H	0.644792	0.632028	0.410578
H97	H	0.702651	0.637710	0.359709
H98	H	0.346364	0.622866	0.310796
N99	N	0.271819	0.593237	0.385077
H100	H	0.241158	0.632263	0.410493
H101	H	0.299019	0.637931	0.359625
