data_functionalizedCrystal
_audit_creation_method	'MofGen! by Chris Wilmer'
_symmetry_space_group_name_H-M	'P1'
_symmetry_Int_Tables_number	1
_symmetry_cell_setting	triclinic
loop_
_symmetry_equiv_pos_as_xyz
  x,y,z
_cell_length_a	27.440279
_cell_length_b	20.875641
_cell_length_c	20.875641
_cell_angle_alpha	90.154292
_cell_angle_beta	117.552190
_cell_angle_gamma	122.396466
loop_
_atom_site_label
_atom_site_type_symbol
_atom_site_fract_x
_atom_site_fract_y
_atom_site_fract_z
Zr1	Zr	-0.494115	0.643951	-0.058250
O2	O	-0.595750	0.541578	-0.160635
O3	O	-0.392480	0.675298	-0.026889
O4	O	-0.486656	0.680253	-0.155765
O5	O	-0.507458	0.532755	0.069929
O6	O	-0.480772	0.789683	-0.151896
O7	O	-0.501574	0.536623	-0.031759
O8	O	-0.312308	0.780819	0.078641
O9	O	-0.675922	0.541618	-0.160607
O10	O	-0.429893	0.770377	-0.010596
O11	O	-0.438675	0.685824	0.062405
O12	O	-0.549555	0.691658	-0.089330
O13	O	-0.558337	0.607105	-0.016329
Zr14	Zr	-0.494115	0.812310	0.110102
Zr15	Zr	-0.484731	0.818479	-0.052079
Zr16	Zr	-0.503499	0.637782	0.103930
Zr17	Zr	-0.621979	0.644016	-0.058205
Zr18	Zr	-0.366250	0.812245	0.110057
O19	O	-0.595750	0.780963	0.078740
O20	O	-0.582407	0.789735	-0.151860
O21	O	-0.609093	0.532806	0.069965
O22	O	-0.392479	0.914683	0.212486
O23	O	-0.379137	0.923455	-0.018114
O24	O	-0.405822	0.666526	0.203711
O25	O	-0.480772	0.923506	-0.018078
O26	O	-0.501573	0.776008	0.207617
O27	O	-0.507457	0.666578	0.203747
O28	O	-0.486655	0.919638	0.083610
O29	O	-0.668463	0.680345	-0.155701
O30	O	-0.319767	0.775916	0.207553
O31	O	-0.312308	0.914643	0.212458
O32	O	-0.304849	0.919546	0.083546
O33	O	-0.683381	0.536715	-0.031695
O34	O	-0.675922	0.675442	-0.026789
O35	O	-0.438674	0.764603	0.141182
O36	O	-0.429892	0.849156	0.068181
O37	O	-0.549555	0.770437	-0.010554
O38	O	-0.558337	0.685884	0.062447
C39	C	-0.334176	0.728049	0.025869
C40	C	-0.279894	0.728022	0.025850
C41	C	-0.049729	0.683958	0.064010
C42	C	-0.100757	0.683945	0.064002
O43	O	-0.131031	0.646426	0.096427
N44	N	-0.121697	0.728072	0.025888
C45	C	-0.091601	0.772220	-0.012215
O46	O	-0.114097	0.809752	-0.044634
C47	C	-0.040570	0.772237	-0.012202
C48	C	-0.019638	0.728101	0.025908
C49	C	-0.028796	0.639826	0.102118
C50	C	0.022228	0.639838	0.102124
C51	C	0.052319	0.683981	0.064022
C52	C	0.031386	0.728112	0.025914
C53	C	-0.010471	0.816389	-0.050300
C54	C	0.040563	0.816402	-0.050283
C55	C	0.061495	0.772267	-0.012173
C56	C	0.112500	0.772267	-0.012181
N57	N	0.133440	0.728141	0.025933
C58	C	0.103349	0.683998	0.064035
C59	C	-0.198768	0.772183	-0.012237
C60	C	-0.249801	0.772162	-0.012255
C61	C	-0.258953	0.683888	0.063963
C62	C	-0.207923	0.683905	0.063976
C63	C	-0.177828	0.728056	0.025877
C64	C	0.210503	0.684025	0.064045
C65	C	0.261530	0.684038	0.064045
C66	C	0.270680	0.772314	-0.012170
C67	C	0.219655	0.772299	-0.012174
C68	C	0.189569	0.728152	0.025939
O69	O	0.142806	0.809769	-0.044586
O70	O	0.125859	0.646480	0.096457
C71	C	-0.505853	0.509822	0.018206
C72	C	-0.509837	0.435730	0.015586
C73	C	0.345935	0.728197	0.025967
C74	C	0.291620	0.728181	0.025943
C75	C	-0.449247	0.442010	0.055450
C76	C	-0.452995	0.372391	0.052986
C77	C	-0.517332	0.296492	0.010654
C78	C	-0.577926	0.290213	-0.029211
C79	C	-0.574178	0.359832	-0.026742
C80	C	-0.535239	0.083871	-0.001131
C81	C	-0.538982	0.014251	-0.003598
C82	C	-0.414050	0.096433	0.078600
C83	C	-0.410308	0.166050	0.081061
C84	C	-0.470902	0.159765	0.041200
N85	N	-0.521164	0.225328	0.008133
N86	N	-0.467070	0.230928	0.043725
C87	C	-0.482377	0.735847	-0.176938
C88	C	-0.478393	0.738466	-0.245788
C89	C	-0.482376	0.946439	0.033645
C90	C	-0.478393	1.020531	0.036265
C91	C	-0.538983	0.698607	-0.319232
C92	C	-0.535235	0.701078	-0.383921
C93	C	-0.470898	0.743404	-0.375164
C94	C	-0.410304	0.783268	-0.301712
C95	C	-0.414052	0.780801	-0.237024
C96	C	-0.452990	0.755192	-0.564221
C97	C	-0.449247	0.757654	-0.628917
C98	C	-0.574179	0.675465	-0.711121
C99	C	-0.577921	0.672998	-0.646429
C100	C	-0.517327	0.712866	-0.572983
N101	N	-0.467066	0.745929	-0.441285
N102	N	-0.521159	0.710345	-0.506863
C103	C	-0.505852	0.720414	0.228789
C104	C	-0.509836	0.717795	0.297639
C105	C	-0.322438	0.946358	0.033589
C106	C	-0.264172	1.020422	0.036190
C107	C	-0.345914	0.720333	0.228733
C108	C	-0.295615	0.717687	0.297564
C109	C	-0.334175	0.938641	0.236453
C110	C	-0.279893	1.010087	0.307903
C111	C	-0.654054	0.517620	-0.184601
C112	C	-0.708336	0.446174	-0.256052
C113	C	-0.665792	0.509903	0.018262
C114	C	-0.724057	0.435839	0.015661
C115	C	-0.642316	0.735928	-0.176881
C116	C	-0.692614	0.738574	-0.245712
C117	C	-0.236809	1.014081	-0.003716
C118	C	-0.182069	1.083667	-0.001287
C119	C	-0.154689	1.159591	0.041052
C120	C	-0.182057	1.165930	0.080959
C121	C	-0.236799	1.096346	0.078526
C122	C	-0.271995	0.757566	0.371015
C123	C	-0.224742	0.755076	0.435695
C124	C	-0.201107	0.712711	0.426922
C125	C	-0.224732	0.672827	0.353463
C126	C	-0.271988	0.675313	0.288785
C127	C	-0.249817	1.087781	0.303352
C128	C	-0.198820	1.154919	0.370482
C129	C	-0.177896	1.144360	0.442162
C130	C	-0.207978	1.066657	0.446712
C131	C	-0.258977	0.999521	0.379583
C132	C	-0.738418	0.368480	-0.251501
C133	C	-0.789431	0.301342	-0.318630
C134	C	-0.810358	0.311901	-0.390311
C135	C	-0.780273	0.389604	-0.394860
C136	C	-0.729265	0.456740	-0.327731
C137	C	-0.751425	0.442180	0.055560
C138	C	-0.806178	0.372595	0.053114
C139	C	-0.833560	0.296671	0.010773
C140	C	-0.806190	0.290332	-0.029131
C141	C	-0.751441	0.359915	-0.026689
C142	C	-0.716234	0.780947	-0.236915
C143	C	-0.763487	0.783449	-0.301582
C144	C	-0.787123	0.743574	-0.375046
C145	C	-0.763498	0.701200	-0.383842
C146	C	-0.716242	0.698703	-0.319175
H147	H	0.065065	0.852358	-0.081307
H148	H	-0.174332	1.218182	0.366764
C149	C	-0.151930	1.249451	0.127536
C150	C	-0.182018	1.256441	0.171440
C151	C	-0.151886	1.339964	0.218021
C152	C	-0.091667	1.416497	0.220698
C153	C	-0.061575	1.409509	0.176792
C154	C	-0.091707	1.325987	0.130211
H155	H	-0.226599	1.199785	0.169460
H156	H	-0.174162	1.345136	0.250523
H157	H	-0.069361	1.478325	0.255180
H158	H	-0.016994	1.466166	0.178772
H159	H	-0.069431	1.320815	0.097708
H160	H	-0.797318	0.398192	-0.453230
C161	C	-0.297991	0.804166	0.380678
C162	C	-0.272006	0.848021	0.461480
C163	C	-0.298002	0.894619	0.471151
C164	C	-0.349982	0.897364	0.400019
C165	C	-0.375970	0.853508	0.319210
C166	C	-0.349974	0.806909	0.309540
H167	H	-0.233525	0.845990	0.514142
H168	H	-0.278764	0.927084	0.530971
H169	H	-0.369226	0.931859	0.407177
H170	H	-0.414451	0.855538	0.266549
H171	H	-0.369212	0.774444	0.249720
C172	C	-0.601891	0.657230	-0.464706
C173	C	-0.650850	0.680420	-0.487671
C174	C	-0.717512	0.636572	-0.568455
C175	C	-0.735214	0.569533	-0.626274
C176	C	-0.686253	0.546340	-0.603309
C177	C	-0.619592	0.590189	-0.522525
H178	H	-0.637747	0.730049	-0.444869
H179	H	-0.753755	0.653741	-0.585454
H180	H	-0.784560	0.537074	-0.686075
H181	H	-0.699356	0.496711	-0.646111
H182	H	-0.583348	0.573019	-0.505526
C183	C	-0.696170	0.542203	-0.332745
C184	C	-0.640058	0.616061	-0.258916
C185	C	-0.606966	0.701524	-0.263937
C186	C	-0.629986	0.713128	-0.342787
C187	C	-0.686100	0.639268	-0.416622
C188	C	-0.719192	0.553806	-0.411601
H189	H	-0.623015	0.607473	-0.200541
H190	H	-0.565426	0.756200	-0.209278
H191	H	-0.605489	0.776393	-0.346503
H192	H	-0.703143	0.647856	-0.474996
H193	H	-0.760732	0.499129	-0.466259
C194	C	-0.198757	0.798958	0.516493
C195	C	-0.160090	0.890637	0.543529
C196	C	-0.134105	0.934520	0.624324
C197	C	-0.146789	0.886724	0.678083
C198	C	-0.185458	0.795040	0.651048
C199	C	-0.211442	0.751157	0.570253
H200	H	-0.150699	0.926023	0.503732
H201	H	-0.105480	1.002390	0.644336
H202	H	-0.127553	0.919209	0.737892
H203	H	-0.194848	0.759654	0.690845
H204	H	-0.240067	0.683286	0.550240
C205	C	-0.151968	1.076680	-0.045181
C206	C	-0.153328	1.115237	-0.108181
C207	C	-0.123228	1.108247	-0.152073
C208	C	-0.091768	1.062702	-0.132966
C209	C	-0.090406	1.024142	-0.069962
C210	C	-0.120506	1.031131	-0.026070
H211	H	-0.176618	1.148955	-0.122329
H212	H	-0.124236	1.136792	-0.198713
H213	H	-0.069486	1.057528	-0.165457
H214	H	-0.067116	0.990424	-0.055815
H215	H	-0.119498	1.002587	0.020569
H216	H	-0.259101	0.952266	-0.038202
H217	H	-0.729160	0.354741	-0.059178
H218	H	-0.396853	0.792120	-0.621778
H219	H	-0.110114	1.216245	0.043028
H220	H	-0.259071	1.101520	0.111027
H221	H	-0.696997	0.813418	-0.177103
C222	C	-0.601893	0.076949	-0.044991
C223	C	-0.613409	0.115540	-0.107967
C224	C	-0.680067	0.108617	-0.151833
C225	C	-0.735209	0.063103	-0.132723
C226	C	-0.723695	0.024509	-0.069743
C227	C	-0.657037	0.031432	-0.025877
H228	H	-0.572588	0.149235	-0.122117
H229	H	-0.688591	0.137186	-0.198455
H230	H	-0.784554	0.057978	-0.165195
H231	H	-0.764516	-0.009186	-0.055593
H232	H	-0.648513	0.002863	0.020745
C233	C	-0.149121	0.709987	0.498075
C234	C	-0.077959	0.743420	0.513059
C235	C	-0.025970	0.740703	0.584215
C236	C	-0.045144	0.704552	0.640386
C237	C	-0.116310	0.671117	0.625403
C238	C	-0.168298	0.673834	0.554247
H239	H	-0.063762	0.770184	0.471477
H240	H	0.026711	0.765454	0.595306
H241	H	-0.006659	0.702541	0.693060
H242	H	-0.130506	0.644354	0.666985
H243	H	-0.220979	0.649083	0.543156
H244	H	-0.205481	0.638334	0.346332
H245	H	-0.630311	0.638535	-0.653568
C246	C	-0.609757	-0.069242	-0.050184
C247	C	-0.676408	-0.076157	-0.094044
C248	C	-0.747178	-0.159647	-0.140639
C249	C	-0.751296	-0.236222	-0.143372
C250	C	-0.684642	-0.229310	-0.099510
C251	C	-0.613872	-0.145820	-0.052916
H252	H	-0.673362	-0.019469	-0.092022
H253	H	-0.796519	-0.164763	-0.173108
H254	H	-0.803683	-0.298026	-0.177864
H255	H	-0.687688	-0.285998	-0.101532
H256	H	-0.564531	-0.140704	-0.020446
H257	H	-0.630311	0.228410	-0.063674
H258	H	-0.291213	0.642840	0.228980
H259	H	-0.825602	0.745613	-0.427695
C260	C	-0.640829	0.631616	-0.791911
C261	C	-0.636713	0.634323	-0.863069
C262	C	-0.703367	0.590472	-0.943860
C263	C	-0.774136	0.543913	-0.953493
C264	C	-0.778255	0.541203	-0.882333
C265	C	-0.711601	0.585055	-0.801542
H266	H	-0.584323	0.668791	-0.855940
H267	H	-0.700318	0.592478	-0.996538
H268	H	-0.823477	0.511451	-1.013300
H269	H	-0.830645	0.506736	-0.889462
H270	H	-0.714650	0.583049	-0.748864
C271	C	-0.866464	0.238046	-0.464150
C272	C	-0.899515	0.152585	-0.459135
C273	C	-0.955620	0.078727	-0.532970
C274	C	-0.978674	0.090330	-0.611821
C275	C	-0.945623	0.175795	-0.616839
C276	C	-0.889518	0.249653	-0.543003
H277	H	-0.882449	0.143993	-0.400762
H278	H	-0.980086	0.015461	-0.529255
H279	H	-1.020206	0.035656	-0.666478
H280	H	-0.962688	0.184388	-0.675212
H281	H	-0.865052	0.312919	-0.546719
C282	C	-0.121791	1.218215	0.516001
C283	C	-0.088708	1.303676	0.510986
C284	C	-0.032601	1.377534	0.584822
C285	C	-0.009576	1.365931	0.663672
C286	C	-0.042660	1.280466	0.668691
C287	C	-0.098767	1.206608	0.594855
H288	H	-0.105752	1.312268	0.452613
H289	H	-0.008110	1.440800	0.581106
H290	H	0.031958	1.420605	0.718330
H291	H	-0.025616	1.271874	0.727063
H292	H	-0.123258	1.143342	0.598570
H293	H	-0.828492	0.228504	-0.063605
H294	H	-0.782718	0.817953	-0.294406
H295	H	-0.283462	0.647945	0.094989
H296	H	-0.266845	1.096394	0.244993
H297	H	-0.623517	0.354713	-0.059194
C298	C	-0.386336	0.799035	-0.483439
C299	C	-0.331194	0.890702	-0.456393
C300	C	-0.264536	0.934544	-0.375607
C301	C	-0.253020	0.886718	-0.321866
C302	C	-0.308164	0.795045	-0.348911
C303	C	-0.374822	0.751203	-0.429698
H304	H	-0.339718	0.926111	-0.496176
H305	H	-0.223715	1.002407	-0.355587
H306	H	-0.203676	0.919172	-0.262063
H307	H	-0.299640	0.759637	-0.309129
H308	H	-0.415643	0.683341	-0.449718
H309	H	-0.190934	1.058072	0.505083
C310	C	-0.715410	0.356851	-0.172658
C311	C	-0.748515	0.271380	-0.167668
C312	C	-0.725515	0.259743	-0.088828
C313	C	-0.669411	0.333577	-0.014978
C314	C	-0.636302	0.419054	-0.019966
C315	C	-0.659302	0.430691	-0.098805
H316	H	-0.790051	0.216718	-0.222338
H317	H	-0.750025	0.196467	-0.085137
H318	H	-0.652385	0.324963	0.043384
H319	H	-0.594767	0.473716	0.034705
H320	H	-0.634793	0.493967	-0.102497
H321	H	-0.813918	0.238080	-0.314911
H322	H	-0.174271	0.808133	-0.043269
C323	C	-0.836271	0.379581	0.097020
C324	C	-0.867709	0.425152	0.077944
C325	C	-0.897798	0.432140	0.121851
C326	C	-0.896449	0.393559	0.184834
C327	C	-0.865010	0.347986	0.203913
C328	C	-0.834920	0.340997	0.160006
H329	H	-0.868709	0.453715	0.031318
H330	H	-0.921072	0.465877	0.107728
H331	H	-0.918723	0.398732	0.217337
H332	H	-0.864010	0.319422	0.250539
H333	H	-0.811647	0.307260	0.174129
H334	H	-0.266848	0.808091	-0.043298
H335	H	-0.283459	0.936261	0.383299
H336	H	-0.403656	0.377511	0.085449
C337	C	-0.789508	0.657335	-0.464657
C338	C	-0.776843	0.705145	-0.518413
C339	C	-0.802859	0.661275	-0.599230
C340	C	-0.841540	0.569595	-0.626291
C341	C	-0.854206	0.521779	-0.572534
C342	C	-0.828190	0.565649	-0.491717
H343	H	-0.748208	0.773017	-0.498381
H344	H	-0.793482	0.696672	-0.639025
H345	H	-0.860798	0.537120	-0.686117
H346	H	-0.882842	0.453907	-0.592565
H347	H	-0.837567	0.530252	-0.451922
H348	H	-0.357918	0.817735	-0.294586
H349	H	-0.697016	0.664196	-0.326349
H350	H	0.278568	0.648094	0.095078
C351	C	-0.347402	0.824644	-0.156232
C352	C	-0.351522	0.821936	-0.085076
C353	C	-0.284870	0.865784	-0.004284
C354	C	-0.214099	0.912340	0.005353
C355	C	-0.209977	0.915049	-0.065805
C356	C	-0.276629	0.871202	-0.146598
H357	H	-0.403913	0.787471	-0.092208
H358	H	-0.287922	0.863777	0.048392
H359	H	-0.164760	0.944798	0.065161
H360	H	-0.157586	0.949514	-0.058673
H361	H	-0.273577	0.873208	-0.199273
H362	H	-0.729135	0.503995	0.090045
C363	C	-0.893780	0.220132	0.008097
C364	C	-0.923874	0.227116	0.051995
C365	C	-0.984092	0.150581	0.049326
C366	C	-1.014215	0.067061	0.002758
C367	C	-0.984121	0.060073	-0.041143
C368	C	-0.923903	0.136608	-0.038474
H369	H	-0.901576	0.288946	0.086470
H370	H	-1.006370	0.155754	0.081824
H371	H	-1.058792	0.010404	0.000782
H372	H	-1.006420	-0.001757	-0.075618
H373	H	-0.901625	0.131435	-0.070973
H374	H	0.186011	0.648075	0.095078
H375	H	0.039268	0.603901	0.133160
H376	H	-0.190884	0.647966	0.095009
C377	C	-0.061892	0.591260	0.144032
C378	C	-0.016595	0.610222	0.230852
C379	C	-0.049691	0.561646	0.272764
C380	C	-0.128083	0.494108	0.227855
C381	C	-0.173385	0.475143	0.141029
C382	C	-0.140289	0.523719	0.099118
H383	H	0.041440	0.660221	0.264101
H384	H	-0.016156	0.575686	0.337038
H385	H	-0.152583	0.458149	0.258880
H386	H	-0.231420	0.425144	0.107781
H387	H	-0.173824	0.509679	0.034844
H388	H	-0.027506	0.852329	-0.081332
H389	H	0.202605	0.808229	-0.043216
H390	H	-0.396857	0.503807	0.089924
H391	H	0.295185	0.808253	-0.043195
H392	H	-0.357917	0.227847	0.115518
H393	H	-0.364718	0.101540	0.111054
H394	H	-0.591374	0.664135	-0.326372
