data_functionalizedCrystal
_audit_creation_method	'MofGen! by Chris Wilmer'
_symmetry_space_group_name_H-M	'P1'
_symmetry_Int_Tables_number	1
_symmetry_cell_setting	triclinic
loop_
_symmetry_equiv_pos_as_xyz
  x,y,z
_cell_length_a	21.606444
_cell_length_b	23.096457
_cell_length_c	21.606444
_cell_angle_alpha	90.000061
_cell_angle_beta	59.991153
_cell_angle_gamma	60.002667
loop_
_atom_site_label
_atom_site_type_symbol
_atom_site_fract_x
_atom_site_fract_y
_atom_site_fract_z
Zr1	Zr	0.677523	0.557764	-0.081358
O2	O	0.806656	0.465312	-0.180203
O3	O	0.548392	0.586105	-0.051042
O4	O	0.677528	0.586100	-0.180186
O5	O	0.677516	0.465322	0.050795
O6	O	0.677530	0.681380	-0.180190
O7	O	0.677520	0.465317	-0.051059
O8	O	0.446529	0.681390	0.050826
O9	O	0.908516	0.465312	-0.180220
O10	O	0.601506	0.669300	-0.038133
O11	O	0.601502	0.598197	0.037882
O12	O	0.753543	0.598190	-0.114168
O13	O	0.753538	0.527087	-0.038153
Zr14	Zr	0.677519	0.709733	0.081082
Zr15	Zr	0.677526	0.709726	-0.081364
Zr16	Zr	0.677516	0.557772	0.081088
Zr17	Zr	0.839979	0.557765	-0.081385
Zr18	Zr	0.515064	0.709732	0.081109
O19	O	0.806650	0.681392	0.050765
O20	O	0.806660	0.681381	-0.180211
O21	O	0.806646	0.465323	0.050774
O22	O	0.548386	0.802186	0.179926
O23	O	0.548396	0.802175	-0.051050
O24	O	0.548382	0.586116	0.179935
O25	O	0.677526	0.802175	-0.051072
O26	O	0.677514	0.681397	0.179910
O27	O	0.677513	0.586117	0.179913
O28	O	0.677522	0.802180	0.050782
O29	O	0.908518	0.586101	-0.180225
O30	O	0.446524	0.681396	0.179948
O31	O	0.446526	0.802185	0.179943
O32	O	0.446532	0.802179	0.050821
O33	O	0.908511	0.465318	-0.051097
O34	O	0.908513	0.586107	-0.051102
O35	O	0.601500	0.669307	0.113892
O36	O	0.601504	0.740410	0.037877
O37	O	0.753541	0.669301	-0.038159
O38	O	0.753536	0.598198	0.037857
C39	C	0.474315	0.633748	-0.000104
C40	C	0.405348	0.633747	-0.000093
C41	C	0.429084	0.581252	-0.056219
C42	C	0.364295	0.581254	-0.056234
C43	C	0.275770	0.633749	-0.000120
C44	C	0.252034	0.686249	0.056009
C45	C	0.316823	0.686250	0.056021
C46	C	-0.009252	0.686249	0.055961
C47	C	-0.074041	0.686243	0.055946
C48	C	0.038220	0.581253	-0.056294
C49	C	0.103008	0.581253	-0.056282
C50	C	0.079267	0.633756	-0.000156
C51	C	0.149520	0.633754	-0.000140
C52	C	0.205518	0.633748	-0.000132
C53	C	0.677518	0.443668	-0.000131
C54	C	0.677517	0.379157	-0.000128
C55	C	0.598158	0.385970	0.039554
C56	C	0.598156	0.325354	0.039557
C57	C	0.677519	0.257926	-0.000136
C58	C	0.756888	0.251116	-0.039821
C59	C	0.756887	0.311731	-0.039816
N60	N	0.736594	0.135128	-0.064724
N61	N	0.736589	0.077548	-0.064727
C62	C	0.677526	0.075294	-0.000150
N63	N	0.618455	0.132800	0.064429
N64	N	0.618457	0.190386	0.064430
C65	C	0.677529	0.192195	-0.000145
C66	C	0.598161	0.016383	0.039540
C67	C	0.598163	-0.044235	0.039545
C68	C	0.756897	-0.118473	-0.039840
C69	C	0.756892	-0.057855	-0.039838
C70	C	0.677522	0.009570	-0.000150
C71	C	0.880728	0.633750	-0.000172
C72	C	0.949694	0.633750	-0.000184
C73	C	0.677530	0.633739	-0.203333
C74	C	0.677533	0.633736	-0.272295
C75	C	0.677525	0.823829	-0.000146
C76	C	0.677526	0.888341	-0.000148
C77	C	0.756894	0.596617	-0.344383
C78	C	0.756891	0.596623	-0.409178
C79	C	0.677527	0.633744	-0.401883
C80	C	0.598160	0.670868	-0.329787
C81	C	0.598164	0.670865	-0.264994
C82	C	0.598145	0.670879	-0.591090
C83	C	0.598148	0.670877	-0.655891
C84	C	0.756873	0.596637	-0.735275
C85	C	0.756876	0.596634	-0.670481
C86	C	0.677510	0.633761	-0.598391
C87	C	0.677513	0.633755	-0.528134
C88	C	0.677523	0.633747	-0.472139
C89	C	0.677512	0.633758	0.203056
C90	C	0.677510	0.633762	0.272019
C91	C	0.474318	0.823828	-0.000112
C92	C	0.405353	0.888339	-0.000103
C93	C	0.474306	0.633757	0.203090
C94	C	0.405336	0.633760	0.272064
C95	C	0.474309	0.823838	0.203083
C96	C	0.405341	0.888352	0.272054
C97	C	0.880733	0.443660	-0.203359
C98	C	0.949701	0.379145	-0.272331
C99	C	0.880724	0.443670	-0.000165
C100	C	0.949690	0.379158	-0.000174
C101	C	0.880737	0.633740	-0.203367
C102	C	0.949706	0.633737	-0.272341
C103	C	0.372967	0.881515	-0.039781
C104	C	0.308176	0.942125	-0.039788
C105	C	0.275767	1.009557	-0.000111
C106	C	0.308159	1.016379	0.039569
C107	C	0.372954	0.955771	0.039571
C108	C	0.372947	0.670880	0.344138
C109	C	0.308151	0.670880	0.408953
C110	C	0.275743	0.633764	0.401692
C111	C	0.308139	0.596639	0.329610
C112	C	0.372937	0.596636	0.264797
C113	C	0.372955	0.955770	0.264765
C114	C	0.308161	1.016394	0.329565
C115	C	0.275750	1.009598	0.401653
C116	C	0.308142	0.942173	0.408941
C117	C	0.372939	0.881551	0.344142
C118	C	0.982095	0.311727	-0.265041
C119	C	1.046909	0.251103	-0.329841
C120	C	1.079324	0.257899	-0.401930
C121	C	1.046928	0.325324	-0.409218
C122	C	0.982119	0.385947	-0.344419
C123	C	0.982082	0.385982	0.039498
C124	C	1.046892	0.325373	0.039487
C125	C	1.079303	0.257940	-0.000192
C126	C	1.046907	0.251118	-0.039869
C127	C	0.982104	0.311727	-0.039862
C128	C	0.982094	0.670861	-0.265055
C129	C	1.046890	0.670872	-0.329857
C130	C	1.079300	0.633755	-0.401944
C131	C	1.046906	0.596630	-0.409228
C132	C	0.982107	0.596624	-0.344427
H133	H	0.501163	0.538497	-0.101906
H134	H	0.533533	0.071284	0.071872
H135	H	0.533537	-0.038682	0.071865
H136	H	1.073305	0.566410	-0.467930
H137	H	0.383630	0.538507	-0.101938
H138	H	0.175088	0.538504	-0.101974
H139	H	0.533531	0.330902	0.071872
H140	H	0.281782	0.701114	0.467638
H141	H	0.955707	0.306181	-0.206349
H142	H	1.073276	0.196209	-0.323892
H143	H	0.281762	1.071291	0.071872
H144	H	1.132095	0.208531	-0.454687
H145	H	0.533541	0.701096	-0.323852
H146	H	0.399301	0.566410	0.206114
H147	H	0.821513	0.306179	-0.072129
H148	H	1.073257	0.330942	0.071800
H149	H	0.222980	0.633773	0.454473
H150	H	0.222987	1.058967	0.454411
H151	H	1.073328	0.330849	-0.467920
H152	H	0.955715	0.701086	-0.206364
H153	H	0.399335	0.961317	0.206073
H154	H	1.073258	0.701102	-0.323912
H155	H	0.955745	0.440840	-0.350363
H156	H	0.533540	0.701091	-0.206297
H157	H	0.955731	0.306161	-0.072166
H158	H	0.533516	0.701108	-0.649943
H159	H	0.821515	0.566399	-0.467874
H160	H	0.281794	1.071289	0.323617
H161	H	0.955698	0.440883	0.071815
H162	H	0.821505	0.196212	-0.072139
H163	H	0.821497	0.566409	-0.793980
H164	H	-0.028594	0.729000	0.101663
H165	H	1.132064	0.633766	-0.454704
H166	H	1.132070	0.208595	-0.000192
H167	H	0.281810	0.936556	-0.072100
H168	H	0.821502	0.566404	-0.676428
H169	H	0.533520	0.701110	-0.532400
H170	H	0.057545	0.538505	-0.101997
H171	H	0.955744	0.566390	-0.350369
H172	H	0.821515	-0.173373	-0.072160
H173	H	0.821515	-0.063406	-0.072157
H174	H	1.073306	0.196207	-0.072175
H175	H	0.281743	0.566420	0.323709
H176	H	0.281743	0.936651	0.467644
H177	H	0.399299	0.826658	0.350088
H178	H	0.179951	0.728994	0.101695
H179	H	-0.146126	0.728994	0.101643
H180	H	0.297490	0.728997	0.101725
H181	H	0.399353	0.826614	-0.072101
H182	H	0.223006	1.058903	-0.000118
H183	H	0.399314	0.961337	0.071887
H184	H	0.399326	0.701105	0.350065
H185	H	0.533528	0.440867	0.071867
H186	H	0.821521	0.566384	-0.350332
