data_functionalizedCrystal
_audit_creation_method	'MofGen! by Chris Wilmer'
_symmetry_space_group_name_H-M	'P1'
_symmetry_Int_Tables_number	1
_symmetry_cell_setting	triclinic
loop_
_symmetry_equiv_pos_as_xyz
  x,y,z
_cell_length_a	16.956995
_cell_length_b	14.853567
_cell_length_c	16.053802
_cell_angle_alpha	92.572962
_cell_angle_beta	87.607939
_cell_angle_gamma	79.844701
loop_
_atom_site_label
_atom_site_type_symbol
_atom_site_fract_x
_atom_site_fract_y
_atom_site_fract_z
O1	O	1.061441	0.033312	-0.069485
O2	O	1.561441	0.533312	0.430515
O3	O	0.829318	0.064960	-0.069472
O4	O	1.329318	0.564960	0.430528
O5	O	0.951580	-0.082565	-0.069481
O6	O	1.451580	0.417435	0.430519
O7	O	0.939179	0.180837	-0.069475
O8	O	1.439179	0.680837	0.430525
O9	O	0.944850	-0.074476	0.069378
O10	O	1.444850	0.425524	0.569378
O11	O	0.822588	0.073049	0.069388
O12	O	1.322588	0.573049	0.569388
O13	O	1.054711	0.041401	0.069375
O14	O	1.554711	0.541401	0.569375
Zn15	Zn	0.937581	0.058509	0.091428
Zn16	Zn	1.437581	0.558509	0.591428
Zn17	Zn	0.946448	0.047852	-0.091525
Zn18	Zn	1.446448	0.547852	0.408475
O19	O	0.932449	0.188925	0.069384
O20	O	1.432449	0.688925	0.569384
C21	C	0.796247	0.070625	-0.000041
C22	C	1.296247	0.570625	0.499959
C23	C	0.707731	0.075442	-0.000036
C24	C	1.207731	0.575442	0.499964
C25	C	0.208472	0.111480	-0.000066
C26	C	0.708472	0.611480	0.499934
C27	C	0.291643	0.106946	-0.000066
C28	C	0.791643	0.606946	0.499934
C29	C	0.342636	0.021850	-0.000061
C30	C	0.842636	0.521850	0.499939
C31	C	0.310457	-0.058718	-0.000066
C32	C	0.810457	0.441282	0.499934
C33	C	0.227288	-0.054184	-0.000072
C34	C	0.727288	0.445816	0.499928
C35	C	0.592383	-0.000592	-0.000047
C36	C	1.092383	0.499408	0.499953
C37	C	0.675557	-0.005120	-0.000038
C38	C	1.175557	0.494880	0.499962
C39	C	0.656737	0.160545	-0.000040
C40	C	1.156737	0.660545	0.499960
C41	C	0.573567	0.165072	-0.000041
C42	C	1.073567	0.665072	0.499959
C43	C	0.541395	0.084503	-0.000050
C44	C	1.041395	0.584503	0.499950
N45	N	0.427650	0.017215	-0.000058
N46	N	0.927650	0.517215	0.499942
N47	N	0.456383	0.089140	-0.000059
N48	N	0.956383	0.589140	0.499941
C49	C	0.947653	-0.112067	-0.000054
C50	C	1.447653	0.387933	0.499946
C51	C	0.945970	-0.212023	-0.000061
C52	C	1.445970	0.287977	0.499939
C53	C	0.866225	-0.618500	-0.000041
C54	C	1.366225	-0.118500	0.499959
C55	C	1.011475	-0.650811	-0.000049
C56	C	1.511475	-0.150811	0.499951
C57	C	1.013058	-0.556898	-0.000054
C58	C	1.513058	-0.056898	0.499946
C59	C	0.941224	-0.493781	-0.000051
C60	C	1.441224	0.006219	0.499949
C61	C	0.867806	-0.524578	-0.000043
C62	C	1.367806	-0.024578	0.499957
C63	C	1.086474	-0.526093	-0.000053
C64	C	1.586474	-0.026093	0.499947
C65	C	1.088061	-0.432175	-0.000057
C66	C	1.588061	0.067825	0.499943
C67	C	1.016226	-0.369057	-0.000060
C68	C	1.516226	0.130943	0.499940
C69	C	0.942805	-0.399859	-0.000054
C70	C	1.442805	0.100141	0.499946
C71	C	0.870971	-0.336742	-0.000051
C72	C	1.370971	0.163258	0.499949
C73	C	0.797550	-0.367542	-0.000050
C74	C	1.297550	0.132458	0.499950
C75	C	0.795971	-0.461460	-0.000046
C76	C	1.295971	0.038540	0.499954
C77	C	1.017804	-0.275139	-0.000064
C78	C	1.517804	0.224861	0.499936
C79	C	0.872552	-0.242819	-0.000053
C80	C	1.372552	0.257181	0.499947
C81	C	1.087782	0.035736	-0.000058
C82	C	1.587782	0.535736	0.499942
C83	C	1.176298	0.030918	-0.000068
C84	C	1.676298	0.530918	0.499932
C85	C	0.936376	0.218427	-0.000045
C86	C	1.436376	0.718427	0.499955
C87	C	0.938059	0.318383	-0.000044
C88	C	1.438059	0.818383	0.499956
N89	N	0.931536	0.065781	0.216289
N90	N	1.431536	0.565781	0.716289
N91	N	0.952499	0.040572	-0.216386
N92	N	1.452499	0.540572	0.283614
C93	C	0.983577	0.003029	0.259979
C94	C	1.483577	0.503029	0.759979
C95	C	0.979356	0.008124	0.347386
C96	C	1.479356	0.508124	0.847386
C97	C	0.923096	0.075976	0.391101
C98	C	1.423096	0.575976	0.891101
C99	C	0.871049	0.138732	0.347405
C100	C	1.371049	0.638732	0.847405
C101	C	0.875267	0.133632	0.260000
C102	C	1.375267	0.633632	0.760000
C103	C	0.904670	0.098227	0.652512
C104	C	1.404670	0.598227	1.152512
C105	C	0.900458	0.103324	0.739924
C106	C	1.400458	0.603324	1.239924
C107	C	1.008764	-0.027285	0.739899
C108	C	1.508764	0.472715	1.239899
C109	C	1.012981	-0.032376	0.652491
C110	C	1.512981	0.467624	1.152491
C111	C	0.960931	0.030377	0.608803
C112	C	1.460931	0.530377	1.108803
N113	N	0.918781	0.081188	0.480445
N114	N	1.418781	0.581188	0.980445
N115	N	0.965242	0.025161	0.519460
N116	N	1.465242	0.525161	1.019460
H117	H	0.532053	0.234366	-0.000047
H118	H	1.032053	0.734366	0.499953
H119	H	1.144957	-0.577488	-0.000048
H120	H	1.644957	-0.077488	0.499952
H121	H	0.814055	-0.191435	-0.000055
H122	H	1.314055	0.308565	0.499945
H123	H	1.029393	-0.052220	0.224391
H124	H	1.529393	0.447780	0.724391
Br125	Br	1.117437	-0.233339	-0.000045
Br126	Br	1.617437	0.266661	0.499955
H127	H	0.317835	0.172548	-0.000072
H128	H	0.817835	0.672548	0.499928
Br129	Br	0.183622	-0.163522	-0.000078
Br130	Br	0.683622	0.336478	0.499922
Br131	Br	0.379662	-0.174207	-0.000065
Br132	Br	0.879662	0.325793	0.499935
H133	H	1.021732	-0.042974	0.382958
H134	H	1.521732	0.457026	0.882958
H135	H	1.147845	-0.407106	-0.000059
H136	H	1.647845	0.092894	0.499941
H137	H	0.682941	0.226139	-0.000034
H138	H	1.182941	0.726139	0.499966
Br139	Br	1.089336	-0.124458	0.593162
Br140	Br	1.589336	0.375542	1.093162
Br141	Br	0.744763	-0.120615	-0.000031
Br142	Br	1.244763	0.379385	0.499969
H143	H	0.566199	-0.066196	-0.000052
H144	H	1.066199	0.433804	0.499948
H145	H	0.739062	-0.316140	-0.000042
H146	H	1.239062	0.183860	0.499958
Br147	Br	0.696338	-0.503267	-0.000051
Br148	Br	1.196338	-0.003267	0.499949
Br149	Br	0.139273	0.226974	-0.000063
Br150	Br	0.639273	0.726974	0.499937
Br151	Br	1.079398	-0.112447	0.799193
Br152	Br	1.579398	0.387553	1.299193
H153	H	0.806447	-0.643583	-0.000043
H154	H	1.306447	-0.143583	0.499957
Br155	Br	0.824102	0.195421	0.799247
Br156	Br	1.324102	0.695421	1.299247
H157	H	1.069959	-0.702205	-0.000044
H158	H	1.569959	-0.202205	0.499956
Br159	Br	0.834035	0.183390	0.593226
Br160	Br	1.334035	0.683390	1.093226
H161	H	0.825237	0.193976	0.383003
H162	H	1.325237	0.693976	0.883003
Br163	Br	0.804631	0.218794	0.200706
Br164	Br	1.304631	0.718794	0.700706
