data_functionalizedCrystal
_audit_creation_method	'MofGen! by Chris Wilmer'
_symmetry_space_group_name_H-M	'P1'
_symmetry_Int_Tables_number	1
_symmetry_cell_setting	triclinic
loop_
_symmetry_equiv_pos_as_xyz
  x,y,z
_cell_length_a	15.712078
_cell_length_b	27.731996
_cell_length_c	14.185569
_cell_angle_alpha	76.953602
_cell_angle_beta	107.170411
_cell_angle_gamma	101.101267
loop_
_atom_site_label
_atom_site_type_symbol
_atom_site_fract_x
_atom_site_fract_y
_atom_site_fract_z
O1	O	1.123500	0.271931	-0.083712
O2	O	0.872361	0.235218	-0.083653
O3	O	1.005759	0.184590	-0.083663
O4	O	0.990102	0.322559	-0.083702
O5	O	1.045165	0.169637	0.083169
O6	O	0.911767	0.220264	0.083178
O7	O	1.162907	0.256978	0.083120
Cu8	Cu	1.040935	0.237256	0.098382
Cu9	Cu	0.994332	0.254940	-0.098916
O10	O	1.029509	0.307605	0.083129
C11	C	0.859945	0.221743	-0.000230
C12	C	0.764240	0.203867	-0.000206
C13	C	0.395039	0.355636	-0.000319
C14	C	0.305103	0.338831	-0.000339
C15	C	0.326877	0.254614	-0.000317
C16	C	0.416816	0.271412	-0.000302
C17	C	0.450890	0.321924	-0.000302
C18	C	0.472667	0.237700	-0.000285
C19	C	0.562599	0.254497	-0.000264
C20	C	0.596680	0.305006	-0.000261
C21	C	0.540822	0.338721	-0.000282
C22	C	0.438593	0.187188	-0.000278
C23	C	0.494443	0.153475	-0.000261
C24	C	0.584376	0.170273	-0.000247
C25	C	0.618457	0.220782	-0.000244
C26	C	0.640234	0.136558	-0.000227
C27	C	0.730166	0.153355	-0.000207
C28	C	0.708389	0.237579	-0.000224
C29	C	1.025141	0.159047	-0.000243
C30	C	1.024176	0.105215	-0.000233
C31	C	0.996593	-0.220448	-0.091220
C32	C	0.992912	-0.422770	-0.091237
O33	O	0.974131	-0.442001	-0.168579
N34	N	1.013936	-0.456221	-0.000298
C35	C	1.035876	-0.439090	0.090652
O36	O	1.053665	-0.472185	0.168001
C37	C	1.039550	-0.236769	0.090668
C38	C	1.018533	-0.203319	-0.000278
C39	C	0.975577	-0.186999	-0.182158
C40	C	0.976502	-0.136421	-0.182153
C41	C	0.998443	-0.119292	-0.091210
C42	C	1.019458	-0.152741	-0.000272
C43	C	1.061483	-0.219639	0.181617
C44	C	1.062398	-0.169055	0.181612
C45	C	1.041381	-0.135605	0.090667
C46	C	1.042324	-0.085035	0.090676
N47	N	1.021300	-0.051584	-0.000264
C48	C	0.999359	-0.068713	-0.091207
C49	C	1.033947	-0.545310	0.090637
C50	C	1.033030	-0.595890	0.090634
C51	C	0.990065	-0.579567	-0.091256
C52	C	0.990988	-0.528986	-0.091251
C53	C	1.012923	-0.511859	-0.000302
C54	C	1.001304	0.037504	-0.091189
C55	C	1.002235	0.088086	-0.091176
C56	C	1.045196	0.071759	0.090713
C57	C	1.044270	0.021181	0.090701
C58	C	1.022319	0.004056	-0.000259
O59	O	1.061086	-0.065770	0.167977
O60	O	0.981554	-0.035612	-0.168544
C61	C	0.995667	-0.271026	-0.091226
C62	C	1.016683	-0.304475	-0.000288
C63	C	1.038624	-0.287346	0.090655
C64	C	1.015766	-0.355055	-0.000291
C65	C	0.993826	-0.372184	-0.091234
C66	C	0.972802	-0.338733	-0.182174
C67	C	0.973727	-0.288155	-0.182168
C68	C	1.059648	-0.320797	0.181594
C69	C	1.058722	-0.371374	0.181582
C70	C	1.036781	-0.388503	0.090639
C71	C	1.175322	0.270452	-0.000306
C72	C	1.271025	0.288329	-0.000336
C73	C	1.010125	0.333148	-0.000292
C74	C	1.011089	0.386981	-0.000309
N75	N	1.073720	0.224818	0.237151
N76	N	0.961554	0.267375	-0.237684
C77	C	0.865234	0.303894	0.604816
C78	C	0.890074	0.294478	0.709835
C79	C	1.008221	0.249675	0.709788
C80	C	0.983388	0.259086	0.604766
C81	C	0.911895	0.286197	0.552288
C82	C	1.030049	0.241388	0.552239
C83	C	1.005221	0.250801	0.447226
C84	C	0.933732	0.277912	0.394741
C85	C	0.887067	0.295609	0.447275
C86	C	1.101546	0.214281	0.604719
C87	C	1.148207	0.196584	0.552191
C88	C	1.123376	0.205993	0.447177
C89	C	1.051887	0.233103	0.394691
C90	C	1.170041	0.188295	0.394642
C91	C	1.145213	0.197708	0.289629
C92	C	1.027059	0.242516	0.289678
H93	H	0.299124	0.213486	-0.000306
H94	H	0.568567	0.379852	-0.000280
O95	O	1.125675	0.205049	0.706729
C96	C	1.144371	0.142646	0.857443
C97	C	1.117040	0.153031	0.741920
H98	H	1.137381	0.100592	0.885930
H99	H	1.217145	0.159694	0.885969
H100	H	1.098755	0.159973	0.885955
H101	H	1.162594	0.135706	0.713323
H102	H	1.044249	0.135995	0.713462
H103	H	0.365366	0.173512	-0.000282
O104	O	0.909518	0.287119	0.292731
C105	C	0.809017	0.325186	0.142065
C106	C	0.836359	0.314804	0.257589
H107	H	0.749852	0.347561	0.113618
H108	H	0.868247	0.347406	0.113459
H109	H	0.788672	0.288238	0.113594
H110	H	0.856688	0.351728	0.286145
H111	H	0.777108	0.292563	0.286127
H112	H	1.066434	0.227603	0.752528
O113	O	1.217585	0.170183	0.603066
C114	C	1.276806	0.092386	0.635241
C115	C	1.198188	0.122236	0.577546
H116	H	1.261143	0.053611	0.614645
H117	H	1.340910	0.112712	0.614543
H118	H	1.286542	0.088726	0.719313
H119	H	1.188369	0.125905	0.493460
H120	H	1.134127	0.101897	0.598327
O121	O	0.741500	0.286657	-0.000400
C122	C	0.810085	0.362242	-0.086777
C123	C	0.772592	0.306673	-0.086719
H124	H	0.835251	0.378439	-0.156548
H125	H	0.754743	0.383489	-0.086860
H126	H	0.868082	0.365927	-0.016913
H127	H	0.714609	0.302942	-0.156571
H128	H	0.827988	0.285452	-0.086584
O129	O	0.461185	0.104431	-0.000307
C130	C	0.332306	0.041221	-0.000269
C131	C	0.369847	0.096779	-0.000237
H132	H	0.258460	0.035015	-0.000192
H133	H	0.338821	0.030006	-0.070099
H134	H	0.371875	0.017504	0.069539
H135	H	0.330306	0.120534	-0.069998
H136	H	0.363348	0.107955	0.069639
O137	O	0.817618	0.321970	0.396445
C138	C	0.703001	0.365391	0.407562
C139	C	0.781640	0.335556	0.465252
H140	H	0.673877	0.376375	0.463168
H141	H	0.728228	0.400506	0.358402
H142	H	0.648634	0.341346	0.358395
H143	H	0.836037	0.359559	0.514474
H144	H	0.756344	0.300437	0.514349
O145	O	1.239530	0.161970	0.445469
C146	C	1.354057	0.118485	0.434342
C147	C	1.275395	0.148304	0.376657
H148	H	1.383065	0.107418	0.378732
H149	H	1.408521	0.142515	0.483451
H150	H	1.328775	0.083412	0.483559
H151	H	1.300594	0.183379	0.327386
H152	H	1.220948	0.124239	0.327611
O153	O	0.428011	0.404717	-0.000282
C154	C	0.396914	0.486493	-0.000381
C155	C	0.359462	0.430924	-0.000399
H156	H	0.341505	0.507699	-0.000496
H157	H	0.454913	0.490227	0.069463
H158	H	0.422041	0.502698	-0.070175
H159	H	0.334285	0.414683	0.069348
H160	H	0.301501	0.427224	-0.070289
O161	O	0.250727	0.371546	-0.000493
C162	C	0.116194	0.409236	-0.086983
C163	C	0.177683	0.372166	-0.086927
H164	H	0.057134	0.409757	-0.156869
H165	H	0.089943	0.397213	-0.017222
H166	H	0.156027	0.448213	-0.086929
H167	H	0.137911	0.333177	-0.087017
H168	H	0.203938	0.384231	-0.156683
H169	H	0.807011	0.325966	0.562086
H170	H	0.852071	0.308892	0.752598
O171	O	0.606976	0.087514	-0.000265
C172	C	0.478099	0.024304	-0.000208
C173	C	0.515639	0.079863	-0.000190
H174	H	0.404254	0.018099	-0.000126
H175	H	0.484609	0.013083	-0.070035
H176	H	0.517671	0.000590	0.069603
H177	H	0.476095	0.103615	-0.069953
H178	H	0.509145	0.091043	0.069683
H179	H	1.051814	-0.531371	0.164703
O180	O	0.784348	0.120607	-0.000375
C181	C	0.810072	0.061499	-0.086763
C182	C	0.748642	0.098579	-0.086713
H183	H	0.781217	0.043671	-0.156548
H184	H	0.880203	0.082164	-0.086811
H185	H	0.814244	0.031184	-0.016914
H186	H	0.744395	0.128904	-0.156549
H187	H	0.678544	0.077880	-0.086611
O188	O	0.981755	0.120508	-0.179614
C189	C	0.939094	0.131355	-0.360023
C190	C	0.962250	0.094585	-0.259944
H191	H	0.923336	0.110413	-0.424996
H192	H	0.878057	0.149190	-0.364626
H193	H	0.998815	0.161696	-0.364530
H194	H	0.902585	0.064217	-0.255370
H195	H	1.023317	0.076789	-0.255383
O196	O	0.979836	0.020829	-0.179514
C197	C	0.879165	-0.034557	-0.285043
C198	C	0.903359	-0.015707	-0.184994
H199	H	0.817343	-0.064107	-0.289497
H200	H	0.864237	-0.001984	-0.350077
H201	H	0.938053	-0.051561	-0.289592
H202	H	0.844504	0.001291	-0.180347
H203	H	0.918319	-0.048297	-0.120007
H204	H	1.183211	0.183297	0.246861
O205	O	0.956015	-0.104004	-0.270588
C206	C	0.913343	-0.093167	-0.450995
C207	C	0.936512	-0.129931	-0.350910
H208	H	0.897587	-0.114113	-0.515962
H209	H	0.852302	-0.075336	-0.455599
H210	H	0.973057	-0.062823	-0.455514
H211	H	0.876854	-0.160304	-0.346325
H212	H	0.997584	-0.147724	-0.346349
H213	H	0.669910	0.318681	-0.000240
O214	O	0.951469	-0.355464	-0.270427
C215	C	0.931058	-0.426157	-0.351019
C216	C	0.955218	-0.407274	-0.251008
H217	H	0.934099	-0.468045	-0.335353
H218	H	0.860262	-0.418474	-0.395865
H219	H	0.980993	-0.405918	-0.395885
H220	H	0.905343	-0.427500	-0.206061
H221	H	1.026035	-0.414949	-0.206238
H222	H	0.972201	-0.593522	-0.165305
O223	O	1.079139	-0.403929	0.269844
C224	C	1.096650	-0.489093	0.350469
C225	C	1.073554	-0.452277	0.250446
H226	H	1.092124	-0.528191	0.334821
H227	H	1.167801	-0.476970	0.395342
H228	H	1.047058	-0.489374	0.395301
H229	H	1.123086	-0.451977	0.205534
H230	H	1.002381	-0.464412	0.205650
H231	H	0.957706	-0.200939	-0.256219
H232	H	0.973873	-0.501754	-0.165307
H233	H	1.050157	-0.623120	0.164690
H234	H	1.077516	-0.306857	0.255653
O235	O	1.081877	-0.252062	0.270052
C236	C	1.124616	-0.262888	0.450459
C237	C	1.101520	-0.226118	0.350372
H238	H	1.140522	-0.241926	0.515424
H239	H	1.064895	-0.293216	0.455086
H240	H	1.185599	-0.280743	0.454957
H241	H	1.040563	-0.208227	0.345807
H242	H	1.161291	-0.195821	0.345787
H243	H	1.080247	-0.155116	0.255676
O244	O	1.064676	-0.011251	0.179132
C245	C	1.107438	-0.022091	0.359541
C246	C	1.084336	0.014686	0.259465
H247	H	1.123357	-0.001134	0.424516
H248	H	1.047713	-0.052416	0.364169
H249	H	1.168412	-0.039948	0.364021
H250	H	1.023387	0.032579	0.254918
H251	H	1.144110	0.044981	0.254879
H252	H	1.063063	0.085715	0.164757
O253	O	0.953244	-0.255737	-0.270603
C254	C	0.910582	-0.244900	-0.451011
C255	C	0.933744	-0.281664	-0.350926
H256	H	0.894829	-0.265845	-0.515977
H257	H	0.849542	-0.227067	-0.455619
H258	H	0.970300	-0.214557	-0.455524
H259	H	0.874083	-0.312035	-0.346345
H260	H	0.994815	-0.299459	-0.346360
H261	H	0.968836	0.264587	0.246949
