data_functionalizedCrystal
_audit_creation_method	'MofGen! by Chris Wilmer'
_symmetry_space_group_name_H-M	'P1'
_symmetry_Int_Tables_number	1
_symmetry_cell_setting	triclinic
loop_
_symmetry_equiv_pos_as_xyz
  x,y,z
_cell_length_a	15.995343
_cell_length_b	17.699083
_cell_length_c	16.176319
_cell_angle_alpha	90.007696
_cell_angle_beta	89.996905
_cell_angle_gamma	96.613901
loop_
_atom_site_label
_atom_site_type_symbol
_atom_site_fract_x
_atom_site_fract_y
_atom_site_fract_z
O1	O	1.110794	-0.097532	-0.068665
O2	O	1.610794	0.402468	0.431335
O3	O	0.866994	-0.109585	-0.068685
O4	O	1.366994	0.390415	0.431315
O5	O	0.995782	0.006620	-0.068667
O6	O	1.495782	0.506620	0.431333
O7	O	0.982006	-0.213736	-0.068683
O8	O	1.482006	0.286264	0.431317
O9	O	0.995764	0.006627	0.068826
O10	O	1.495764	0.506627	0.568826
O11	O	0.866976	-0.109578	0.068808
O12	O	1.366976	0.390422	0.568808
O13	O	1.110777	-0.097524	0.068828
O14	O	1.610777	0.402476	0.568828
Cu15	Cu	0.988875	-0.103550	0.081372
Cu16	Cu	1.488875	0.396450	0.581372
Cu17	Cu	0.988896	-0.103559	-0.081230
Cu18	Cu	1.488896	0.396441	0.418770
O19	O	0.981988	-0.213729	0.068810
O20	O	1.481988	0.286271	0.568810
C21	C	0.835791	-0.109084	0.000059
C22	C	1.335791	0.390916	0.500059
C23	C	0.742843	-0.107593	0.000051
C24	C	1.242843	0.392407	0.500051
C25	C	0.572662	-0.104887	0.000063
C26	C	1.072662	0.395113	0.500063
C27	C	0.549488	-0.021005	0.000068
C28	C	1.049488	0.478995	0.500068
C29	C	0.452813	-0.019427	0.000385
C30	C	0.952813	0.480573	0.500385
C31	C	0.405108	-0.102222	0.000073
C32	C	0.905108	0.397778	0.500073
C33	C	0.434104	-0.144395	0.078429
C34	C	0.934104	0.355605	0.578429
C35	C	0.530894	-0.145390	0.078490
C36	C	1.030894	0.354610	0.578490
C37	C	0.530822	-0.146626	-0.077871
C38	C	1.030822	0.353374	0.422129
C39	C	0.434334	-0.143530	-0.078896
C40	C	0.934334	0.356470	0.421104
C41	C	0.310413	-0.100720	0.000081
C42	C	0.810413	0.399280	0.500081
C43	C	0.667357	-0.106392	0.000060
C44	C	1.167357	0.393608	0.500060
C45	C	0.995280	0.034821	0.000079
C46	C	1.495280	0.534821	0.500079
C47	C	0.993799	0.118842	0.000079
C48	C	1.493799	0.618842	0.500079
C49	C	1.141979	-0.098025	0.000082
C50	C	1.641979	0.401975	0.500082
C51	C	1.234927	-0.099516	0.000084
C52	C	1.734927	0.400484	0.500084
C53	C	0.982491	-0.241930	0.000062
C54	C	1.482491	0.258070	0.500062
C55	C	0.983972	-0.325951	0.000056
C56	C	1.483972	0.174049	0.500056
N57	N	0.988866	-0.103544	0.195737
N58	N	1.488866	0.396456	0.695737
C59	C	1.069395	0.167339	0.000087
C60	C	1.569395	0.667339	0.500087
C61	C	1.067998	0.246284	0.000079
C62	C	1.567998	0.746284	0.500079
C63	C	0.991005	0.276731	0.000071
C64	C	1.491005	0.776731	0.500071
C65	C	0.915403	0.228228	0.000061
C66	C	1.415403	0.728228	0.500061
C67	C	0.916801	0.149284	0.000062
C68	C	1.416801	0.649284	0.500062
C69	C	0.909766	0.546600	0.000053
C70	C	1.409766	1.046600	0.500053
C71	C	0.908375	0.625550	0.000054
C72	C	1.408375	1.125550	0.500054
C73	C	1.060964	0.643601	0.000071
C74	C	1.560964	1.143601	0.500071
C75	C	1.062362	0.564657	0.000072
C76	C	1.562362	1.064657	0.500072
C77	C	0.986760	0.516160	0.000058
C78	C	1.486760	1.016160	0.500058
C79	C	0.988275	0.430559	0.000064
C80	C	1.488275	0.930559	0.500064
C81	C	0.989489	0.362331	0.000070
C82	C	1.489489	0.862331	0.500070
N83	N	0.988911	-0.103560	-0.195595
N84	N	1.488911	0.396440	0.304405
C85	C	1.045911	-0.052109	0.239009
C86	C	1.545911	0.447891	0.739009
C87	C	1.045915	-0.052108	0.325557
C88	C	1.545915	0.447892	0.825557
C89	C	0.988878	-0.103546	0.368830
C90	C	1.488878	0.396454	0.868830
C91	C	0.931827	-0.154983	0.325552
C92	C	1.431827	0.345017	0.825552
C93	C	0.931820	-0.154980	0.239006
C94	C	1.431820	0.345020	0.739006
C95	C	0.931856	-0.154997	0.674580
C96	C	1.431856	0.345003	1.174580
C97	C	0.931870	-0.154998	0.761132
C98	C	1.431870	0.345002	1.261132
C99	C	1.045951	-0.052126	0.761130
C100	C	1.545951	0.447874	1.261130
C101	C	1.045944	-0.052123	0.674585
C102	C	1.545944	0.447877	1.174585
C103	C	0.988891	-0.103556	0.631314
C104	C	1.488891	0.396444	1.131314
C105	C	0.988886	-0.103556	0.537470
C106	C	1.488886	0.396444	1.037470
C107	C	0.988886	-0.103551	0.462673
C108	C	1.488886	0.396449	0.962673
H109	H	0.402133	-0.205329	0.081119
H110	H	0.902133	0.294671	0.581119
H111	H	0.885367	-0.196862	0.203775
H112	H	1.385367	0.303138	0.703775
O113	O	0.835264	0.096973	0.000055
O114	O	1.335264	0.596973	0.500055
H115	H	0.832247	0.060576	0.056092
H116	H	1.332247	0.560576	0.556092
H117	H	1.122523	0.683096	0.000078
H118	H	1.622523	1.183096	0.500078
H119	H	0.544710	-0.208369	-0.078631
H120	H	1.044710	0.291631	0.421369
O121	O	0.409838	-0.102864	-0.155691
O122	O	0.909838	0.397136	0.344309
H123	H	0.377453	-0.053157	-0.137691
H124	H	0.877453	0.446843	0.362309
O125	O	0.828230	0.494296	0.000042
O126	O	1.328230	0.994296	0.500042
H127	H	0.825214	0.457898	0.056078
H128	H	1.325214	0.957898	0.556078
H129	H	0.852714	0.253024	0.000048
H130	H	1.352714	0.753024	0.500048
H131	H	0.414063	-0.115453	0.136967
H132	H	0.914063	0.384547	0.636967
H133	H	0.433868	0.013586	-0.055772
H134	H	0.933868	0.513586	0.444228
H135	H	0.559154	-0.120165	-0.137282
H136	H	1.059154	0.379835	0.362718
O137	O	1.149537	0.298589	0.000086
O138	O	1.649537	0.798589	0.500086
H139	H	1.135634	0.358599	0.000071
H140	H	1.635634	0.858599	0.500071
H141	H	0.401255	-0.203942	-0.083875
H142	H	0.901255	0.296058	0.416125
H143	H	1.132092	0.142556	0.000099
H144	H	1.632092	0.642556	0.500099
H145	H	0.885420	-0.196887	0.796363
H146	H	1.385420	0.303113	1.296363
H147	H	0.885383	-0.196862	0.360790
H148	H	1.385383	0.303138	0.860790
O149	O	0.566446	-0.107146	0.156375
O150	O	1.066446	0.392854	0.656375
H151	H	0.635790	-0.107479	0.157194
H152	H	1.135790	0.392521	0.657194
O153	O	0.870328	-0.210479	0.627920
O154	O	1.370328	0.289521	1.127920
H155	H	0.879894	-0.201834	0.560469
H156	H	1.379894	0.298166	1.060469
H157	H	1.125057	0.539872	0.000084
H158	H	1.625057	1.039872	0.500084
H159	H	0.577568	0.011505	-0.056113
H160	H	1.077568	0.511505	0.443887
H161	H	1.092360	-0.010226	0.203782
H162	H	1.592360	0.489774	0.703782
H163	H	0.845674	0.650337	0.000049
H164	H	1.345674	1.150337	0.500049
H165	H	1.092364	-0.010226	0.360788
H166	H	1.592364	0.489774	0.860788
O167	O	1.107457	0.003360	0.627909
O168	O	1.607457	0.503360	1.127909
H169	H	1.147119	0.039133	0.672540
H170	H	1.647119	0.539133	1.172540
O171	O	0.587954	0.021368	0.074393
O172	O	1.087954	0.521368	0.574393
H173	H	0.571214	0.080507	0.073796
H174	H	1.071214	0.580507	0.573796
O175	O	0.428456	0.024093	0.075234
O176	O	0.928456	0.524093	0.575234
H177	H	0.485760	0.044087	0.111349
H178	H	0.985760	0.544087	0.611349
O179	O	0.550044	-0.226866	0.082920
O180	O	1.050044	0.273134	0.582920
H181	H	0.490195	-0.265382	0.085016
H182	H	0.990195	0.234618	0.585016
O183	O	1.107484	0.003360	0.807799
O184	O	1.607484	0.503360	1.307799
H185	H	1.097904	-0.005275	0.875250
H186	H	1.597904	0.494725	1.375250
