data_functionalizedCrystal
_audit_creation_method	'MofGen! by Chris Wilmer'
_symmetry_space_group_name_H-M	'P1'
_symmetry_Int_Tables_number	1
_symmetry_cell_setting	triclinic
loop_
_symmetry_equiv_pos_as_xyz
  x,y,z
_cell_length_a	14.044191
_cell_length_b	14.044220
_cell_length_c	12.503572
_cell_angle_alpha	93.843168
_cell_angle_beta	86.162165
_cell_angle_gamma	93.190327
loop_
_atom_site_label
_atom_site_type_symbol
_atom_site_fract_x
_atom_site_fract_y
_atom_site_fract_z
O1	O	1.282208	0.225145	-0.089273
O2	O	1.615542	0.558478	0.244060
O3	O	1.948875	0.891812	0.577394
O4	O	1.005536	0.216832	-0.089287
O5	O	1.338870	0.550165	0.244047
O6	O	1.672203	0.883498	0.577380
O7	O	1.139719	0.082653	-0.089269
O8	O	1.473052	0.415986	0.244064
O9	O	1.806386	0.749320	0.577397
O10	O	1.148026	0.359324	-0.089290
O11	O	1.481359	0.692657	0.244043
O12	O	1.814692	1.025990	0.577376
O13	O	1.129629	0.092762	0.089371
O14	O	1.462962	0.426096	0.422705
O15	O	1.796296	0.759429	0.756038
O16	O	0.995447	0.226941	0.089354
O17	O	1.328780	0.560274	0.422687
O18	O	1.662113	0.893608	0.756021
O19	O	1.272118	0.235254	0.089368
O20	O	1.605452	0.568588	0.422701
O21	O	1.938785	0.901921	0.756034
Cu22	Cu	1.132861	0.232021	0.105672
Cu23	Cu	1.466195	0.565354	0.439005
Cu24	Cu	1.799528	0.898687	0.772339
Cu25	Cu	1.144794	0.220065	-0.105591
Cu26	Cu	1.478127	0.553399	0.227742
Cu27	Cu	1.811460	0.886732	0.561076
O28	O	1.137936	0.369433	0.089350
O29	O	1.471269	0.702766	0.422684
O30	O	1.804603	1.036100	0.756017
C31	C	0.964870	0.218250	0.000032
C32	C	1.298203	0.551583	0.333366
C33	C	1.631536	0.884916	0.666699
C34	C	0.858727	0.207402	0.000027
C35	C	1.192060	0.540735	0.333361
C36	C	1.525394	0.874069	0.666694
C37	C	0.613268	0.264503	0.000034
C38	C	0.946601	0.597836	0.333367
C39	C	1.279935	0.931170	0.666700
C40	C	0.664393	0.187587	0.000038
C41	C	0.997727	0.520920	0.333371
C42	C	1.331060	0.854254	0.666704
C43	C	0.772531	0.198615	0.000032
C44	C	1.105864	0.531948	0.333365
C45	C	1.439197	0.865281	0.666699
C46	C	0.505121	0.253477	0.000040
C47	C	0.838454	0.586810	0.333373
C48	C	1.171788	0.920143	0.666706
C49	C	1.131038	0.052086	0.000051
C50	C	1.464372	0.385419	0.333385
C51	C	1.797705	0.718753	0.666718
C52	C	1.120194	-0.054057	0.000052
C53	C	1.453527	0.279276	0.333385
C54	C	1.786860	0.612610	0.666719
C55	C	1.100368	-0.248396	0.000036
C56	C	1.433702	0.084937	0.333369
C57	C	1.767035	0.418270	0.666702
C58	C	1.177283	-0.299524	0.000036
C59	C	1.510616	0.033809	0.333369
C60	C	1.843950	0.367142	0.666703
C61	C	1.166252	-0.407661	0.000027
C62	C	1.499585	-0.074328	0.333360
C63	C	1.832918	0.259006	0.666694
C64	C	1.111398	-0.140249	0.000045
C65	C	1.444731	0.193084	0.333378
C66	C	1.778065	0.526417	0.666711
C67	C	1.312785	0.233836	0.000046
C68	C	1.646119	0.567170	0.333380
C69	C	1.979452	0.900503	0.666713
C70	C	1.418929	0.244683	0.000044
C71	C	1.752262	0.578017	0.333378
C72	C	2.085595	0.911350	0.666711
C73	C	1.146617	0.400000	0.000027
C74	C	1.479950	0.733333	0.333361
C75	C	1.813283	1.066667	0.666694
C76	C	1.157462	0.506143	0.000020
C77	C	1.490795	0.839476	0.333353
C78	C	1.824128	1.172809	0.666686
N79	N	1.124476	0.240429	0.254263
N80	N	1.457809	0.573763	0.587597
N81	N	1.791142	0.907096	0.920930
N82	N	1.153186	0.211650	-0.254182
N83	N	1.486520	0.544983	0.079151
N84	N	1.819853	0.878316	0.412484
C85	C	1.112141	0.252807	0.473377
C86	C	1.445474	0.586141	0.806710
C87	C	1.778807	0.919474	1.140044
C88	C	1.165518	0.199275	0.526711
C89	C	1.498852	0.532608	0.860044
C90	C	1.832185	0.865941	1.193378
C91	C	1.158655	0.206162	0.648633
C92	C	1.491988	0.539495	0.981967
C93	C	1.825322	0.872829	1.315300
C94	C	1.119003	0.245921	0.351444
C95	C	1.452336	0.579254	0.684777
C96	C	1.785670	0.912588	1.018110
H97	H	0.626954	0.113450	-0.000032
H98	H	0.960287	0.446784	0.333301
H99	H	1.293620	0.780117	0.666634
H100	H	1.026241	-0.285835	0.000029
H101	H	1.359574	0.047498	0.333363
H102	H	1.692908	0.380831	0.666696
H103	H	0.650710	0.338629	0.000025
H104	H	0.984043	0.671962	0.333358
H105	H	1.317376	1.005296	0.666692
Br106	Br	1.250714	0.114703	0.450205
Br107	Br	1.584047	0.448037	0.783538
Br108	Br	1.917381	0.781370	1.116871
H109	H	1.061292	0.303807	0.519278
H110	H	1.394625	0.637141	0.852611
H111	H	1.727959	0.970474	1.185945
H112	H	1.251420	-0.262087	-0.000032
H113	H	1.584754	0.071246	0.333301
H114	H	1.918087	0.404580	0.666634
