data_functionalizedCrystal
_audit_creation_method	'MofGen! by Chris Wilmer'
_symmetry_space_group_name_H-M	'P1'
_symmetry_Int_Tables_number	1
_symmetry_cell_setting	triclinic
loop_
_symmetry_equiv_pos_as_xyz
  x,y,z
_cell_length_a	16.120530
_cell_length_b	12.594516
_cell_length_c	16.120297
_cell_angle_alpha	87.122232
_cell_angle_beta	89.871860
_cell_angle_gamma	87.111852
loop_
_atom_site_label
_atom_site_type_symbol
_atom_site_fract_x
_atom_site_fract_y
_atom_site_fract_z
Zn1	Zn	1.247493	-0.539249	0.534603
Zn2	Zn	1.254461	-0.708692	0.395557
Zn3	Zn	1.115482	-0.521263	0.388519
Zn4	Zn	1.108417	-0.707712	0.527526
O5	O	1.181463	-0.619229	0.461551
O6	O	1.364785	-0.569664	0.522065
O7	O	1.241897	-0.676712	0.278258
O8	O	1.133034	-0.374707	0.407914
O9	O	1.369904	-0.694153	0.419909
O10	O	1.230022	-0.387921	0.515241
O11	O	1.139790	-0.539009	0.273087
O12	O	0.998178	-0.538058	0.401052
O13	O	1.120993	-0.692482	0.644831
O14	O	0.992987	-0.675042	0.503180
O15	O	1.223172	-0.568713	0.650030
O16	O	1.235047	-0.857504	0.413047
O17	O	1.127749	-0.856784	0.510004
C18	C	0.965410	-0.604493	0.450585
C19	C	0.872980	-0.598215	0.445913
C20	C	1.181409	-0.895766	0.461540
C21	C	1.181461	-1.014076	0.461567
C22	C	0.703749	-0.586730	0.437391
C23	C	0.660015	-0.651810	0.485772
C24	C	0.565849	-0.645420	0.481031
C25	C	0.797924	-0.593119	0.442132
C26	C	1.123098	-1.082974	0.514263
C27	C	1.106686	-1.147787	0.437359
C28	C	1.197948	-1.160068	0.538488
C29	C	1.165010	-1.077326	0.384621
C30	C	1.256305	-1.089606	0.485803
C31	C	1.239924	-1.154387	0.408848
C32	C	1.398360	-0.634024	0.472561
C33	C	1.490789	-0.640328	0.477253
C34	C	1.170517	-0.632495	0.678446
C35	C	1.165853	-0.638148	0.770874
C36	C	1.181539	-0.341615	0.461582
C37	C	1.181572	-0.223313	0.461595
C38	C	1.192414	-0.605942	0.245502
C39	C	1.197240	-0.600000	0.153083
C40	C	1.157306	-0.648443	0.940100
C41	C	1.205784	-0.589708	0.983863
C42	C	1.201029	-0.595436	1.078026
C43	C	1.162061	-0.642716	0.845928
H44	H	0.670473	-0.526218	0.392412
O45	O	0.699621	-0.724153	0.539386
C46	C	0.679386	-0.827669	0.520008
H47	H	0.617895	-0.823654	0.484927
H48	H	0.730390	-0.864059	0.479614
C49	C	0.746974	-0.901943	0.643882
C50	C	0.671445	-0.897013	0.600801
H51	H	0.742079	-0.944720	0.693718
H52	H	0.760609	-0.832203	0.656936
H53	H	0.789469	-0.932265	0.610211
H54	H	0.628954	-0.866679	0.634468
H55	H	0.657802	-0.966750	0.587754
H56	H	1.073662	-1.051620	0.558754
O57	O	1.259585	-0.524500	0.944332
C58	C	1.303745	-0.471038	1.003569
H59	H	1.266618	-0.468714	1.063777
H60	H	1.366430	-0.514883	1.015987
C61	C	1.363059	-0.359409	0.896222
C62	C	1.317456	-0.356546	0.970168
H63	H	1.371521	-0.288786	0.875619
H64	H	1.333311	-0.395429	0.856312
H65	H	1.415291	-0.395951	0.906581
H66	H	1.265221	-0.320016	0.959807
H67	H	1.347196	-0.320516	1.010076
O68	O	1.103611	-0.713546	0.979893
C69	C	1.110755	-0.704828	1.066412
H70	H	1.174355	-0.675039	1.081432
H71	H	1.060223	-0.646258	1.088555
C72	C	1.022790	-0.851253	1.092272
C73	C	1.100908	-0.814673	1.110721
H74	H	1.016712	-0.919008	1.119605
H75	H	1.017974	-0.857124	1.033982
H76	H	0.980689	-0.802435	1.110724
H77	H	1.143006	-0.863483	1.092259
H78	H	1.105730	-0.808812	1.169008
O79	O	1.031178	-1.178486	0.413045
C80	C	0.969763	-1.142093	0.468738
H81	H	0.999716	-1.128123	0.530989
H82	H	0.938714	-1.064368	0.442334
C83	C	0.867371	-1.243363	0.404695
C84	C	0.904158	-1.226213	0.481154
H85	H	0.826899	-1.295249	0.412351
H86	H	0.908746	-1.267879	0.367171
H87	H	0.841503	-1.178586	0.382699
H88	H	0.930033	-1.290986	0.503143
H89	H	0.862785	-1.201710	0.518683
H90	H	1.151036	-1.041305	0.319560
O91	O	1.298777	-1.191493	0.355521
C92	C	1.281149	-1.148896	0.274559
H93	H	1.212230	-1.124419	0.269417
H94	H	1.319384	-1.076295	0.261039
C95	C	1.387988	-1.263566	0.217645
C96	C	1.303340	-1.233512	0.211327
H97	H	1.401679	-1.315758	0.178639
H98	H	1.399867	-1.292262	0.272190
H99	H	1.419841	-1.203057	0.206380
H100	H	1.271489	-1.294018	0.222603
H101	H	1.291456	-1.204828	0.156782
H102	H	1.319532	-1.063819	0.506317
H103	H	1.211849	-1.196211	0.603528
