data_functionalizedCrystal
_audit_creation_method	'MofGen! by Chris Wilmer'
_symmetry_space_group_name_H-M	'P1'
_symmetry_Int_Tables_number	1
_symmetry_cell_setting	triclinic
loop_
_symmetry_equiv_pos_as_xyz
  x,y,z
_cell_length_a	12.759401
_cell_length_b	13.032721
_cell_length_c	12.759393
_cell_angle_alpha	82.850774
_cell_angle_beta	90.020938
_cell_angle_gamma	97.205831
loop_
_atom_site_label
_atom_site_type_symbol
_atom_site_fract_x
_atom_site_fract_y
_atom_site_fract_z
Zn1	Zn	1.553113	-0.415945	0.647098
Zn2	Zn	1.530669	-0.590725	0.493722
Zn3	Zn	1.377404	-0.416001	0.471441
Zn4	Zn	1.355078	-0.590652	0.669350
O5	O	1.454066	-0.503331	0.570403
O6	O	1.697156	-0.439137	0.626765
O7	O	1.510289	-0.567601	0.343752
O8	O	1.419449	-0.269756	0.476105
O9	O	1.680666	-0.567547	0.514080
O10	O	1.548541	-0.269715	0.605160
O11	O	1.397686	-0.439232	0.327382
O12	O	1.227423	-0.439161	0.497681
O13	O	1.381397	-0.567423	0.813412
O14	O	1.211019	-0.567477	0.643084
O15	O	1.526892	-0.439067	0.797064
O16	O	1.488640	-0.736953	0.535656
O17	O	1.359634	-0.736899	0.664689
C18	C	1.181100	-0.503318	0.570380
C19	C	1.064321	-0.503338	0.570399
C20	C	1.000932	-0.570253	0.646017
C21	C	0.891208	-0.570257	0.646038
C22	C	0.908271	-0.436427	0.494813
C23	C	1.017994	-0.436419	0.494797
C24	C	1.419307	-0.774844	0.605028
C25	C	1.404533	-0.890999	0.619876
C26	C	1.461832	-0.942776	0.562700
C27	C	1.446564	-1.062828	0.578045
C28	C	1.728097	-0.503344	0.570426
C29	C	1.844873	-0.503350	0.570436
C30	C	1.454157	-0.503230	0.844423
C31	C	1.454196	-0.503188	0.961194
C32	C	1.488989	-0.230757	0.535665
C33	C	1.503872	-0.114602	0.520862
C34	C	1.454045	-0.503355	0.297438
C35	C	1.454247	-0.503104	0.180630
C36	C	1.529962	-0.436342	1.007544
C37	C	1.529986	-0.436297	1.117263
C38	C	1.378473	-0.569952	1.134273
C39	C	1.378446	-0.569991	1.024556
H40	H	0.870537	-0.381946	0.433260
H41	H	1.522197	-0.898229	0.502394
C42	C	1.051896	-0.643853	0.729183
C43	C	1.021597	-0.762644	0.735569
C44	C	1.072557	-0.836243	0.818740
C45	C	1.153816	-0.791052	0.895524
C46	C	1.184118	-0.672255	0.889140
C47	C	1.133158	-0.598656	0.805969
H48	H	0.961441	-0.796103	0.678727
H49	H	1.050124	-0.924185	0.823465
H50	H	1.191539	-0.845535	0.957091
H51	H	1.244275	-0.638796	0.945982
H52	H	1.155591	-0.510714	0.801244
H53	H	1.386205	-1.107373	0.638364
C54	C	1.585420	-1.054440	0.439374
C55	C	1.549402	-0.979482	0.347333
C56	C	1.630947	-0.919321	0.265845
C57	C	1.748510	-0.934118	0.276398
C58	C	1.784534	-1.009079	0.368443
C59	C	1.702989	-1.069240	0.449931
H60	H	1.462369	-0.968526	0.339518
H61	H	1.604279	-0.863830	0.197708
H62	H	1.808875	-0.889583	0.216076
H63	H	1.871567	-1.020035	0.376258
H64	H	1.729657	-1.124731	0.518068
C65	C	0.821480	-0.643868	0.729218
C66	C	0.872443	-0.717471	0.812374
C67	C	0.802715	-0.791083	0.895559
C68	C	0.682024	-0.791093	0.895589
C69	C	0.631054	-0.717487	0.812430
C70	C	0.700782	-0.643875	0.729245
H71	H	0.961792	-0.717466	0.812355
H72	H	0.840447	-0.845571	0.957119
H73	H	0.630407	-0.845585	0.957168
H74	H	0.541706	-0.717492	0.812450
H75	H	0.663050	-0.589387	0.667686
H76	H	1.344178	-0.935548	0.680190
H77	H	1.316802	-0.624344	1.185875
H78	H	1.069608	-0.381922	0.433219
H79	H	1.591640	-0.381943	0.955958
H80	H	1.591680	-0.381863	1.154995
H81	H	1.316741	-0.624424	0.986817
