data_functionalizedCrystal
_audit_creation_method	'MofGen! by Chris Wilmer'
_symmetry_space_group_name_H-M	'P1'
_symmetry_Int_Tables_number	1
_symmetry_cell_setting	triclinic
loop_
_symmetry_equiv_pos_as_xyz
  x,y,z
_cell_length_a	27.731996
_cell_length_b	14.853567
_cell_length_c	13.330367
_cell_angle_alpha	89.995281
_cell_angle_beta	90.008387
_cell_angle_gamma	96.871841
loop_
_atom_site_label
_atom_site_type_symbol
_atom_site_fract_x
_atom_site_fract_y
_atom_site_fract_z
O1	O	0.063106	-1.195321	0.083368
O2	O	0.070624	-0.932736	0.083387
O3	O	-0.003495	-1.072208	0.083355
O4	O	0.137226	-1.055849	0.083400
O5	O	-0.003493	-1.072187	-0.083492
O6	O	0.070626	-0.932715	-0.083460
O7	O	0.063108	-1.195300	-0.083479
Cu8	Cu	0.066867	-1.064006	-0.098704
Cu9	Cu	0.066865	-1.064030	0.098612
O10	O	0.137227	-1.055828	-0.083447
C11	C	0.070284	-0.899143	-0.000035
C12	C	0.069264	-0.799076	-0.000028
N13	N	0.066868	-1.063995	-0.237486
C14	C	-0.021503	-1.071862	-0.000072
C15	C	-0.075164	-1.070849	-0.000082
C16	C	-0.407911	-1.064492	0.090916
C17	C	-0.609587	-1.060649	0.090934
O18	O	-0.635661	-1.060123	0.168282
N19	N	-0.634806	-1.060160	-0.000014
C20	C	-0.609602	-1.060626	-0.090972
O21	O	-0.635679	-1.060112	-0.168328
C22	C	-0.407926	-1.064463	-0.090989
C23	C	-0.382711	-1.064961	-0.000036
C24	C	-0.382696	-1.064990	0.181862
C25	C	-0.332280	-1.065955	0.181856
C26	C	-0.307080	-1.066424	0.090905
C27	C	-0.332295	-1.065927	-0.000041
C28	C	-0.382722	-1.064923	-0.181946
C29	C	-0.332300	-1.065880	-0.181943
C30	C	-0.307085	-1.066378	-0.090989
C31	C	-0.256679	-1.067362	-0.090998
N32	N	-0.231461	-1.067851	-0.000050
C33	C	-0.256661	-1.067382	0.090901
C34	C	-0.715485	-1.058613	-0.090957
C35	C	-0.765903	-1.057655	-0.090953
C36	C	-0.765885	-1.057676	0.090953
C37	C	-0.715466	-1.058641	0.090948
C38	C	-0.690266	-1.059102	-0.000009
C39	C	-0.150784	-1.069411	0.090883
C40	C	-0.100364	-1.070381	0.090869
C41	C	-0.100387	-1.070355	-0.091036
C42	C	-0.150802	-1.069390	-0.091023
C43	C	-0.176000	-1.068915	-0.000056
O44	O	-0.230573	-1.067878	-0.168306
O45	O	-0.230574	-1.067875	0.168246
C46	C	-0.458327	-1.063527	0.090921
C47	C	-0.483542	-1.063030	-0.000025
C48	C	-0.458342	-1.063498	-0.090976
C49	C	-0.533961	-1.062072	-0.000021
C50	C	-0.559161	-1.061603	0.090931
C51	C	-0.533943	-1.062092	0.181878
C52	C	-0.483527	-1.063058	0.181873
C53	C	-0.483560	-1.063009	-0.181924
C54	C	-0.533976	-1.062045	-0.181911
C55	C	-0.559176	-1.061576	-0.090959
C56	C	0.155235	-1.056174	-0.000018
C57	C	0.208896	-1.057187	-0.000002
C58	C	0.063448	-1.228893	-0.000055
C59	C	0.064469	-1.328960	-0.000055
C60	C	0.020920	-0.387345	-0.000066
C61	C	0.108976	-0.364601	-0.000037
C62	C	0.109935	-0.458619	-0.000034
C63	C	0.066387	-0.517005	-0.000045
C64	C	0.021879	-0.481372	-0.000060
C65	C	0.154443	-0.494259	-0.000009
C66	C	0.155404	-0.588282	-0.000004
C67	C	0.111855	-0.646669	-0.000023
C68	C	0.067345	-0.611031	-0.000039
C69	C	0.023797	-0.669417	-0.000050
C70	C	-0.020714	-0.633781	-0.000073
C71	C	-0.021670	-0.539760	-0.000078
C72	C	0.112812	-0.740691	-0.000017
C73	C	0.024755	-0.763444	-0.000043
C74	C	0.037497	-1.009742	-0.290016
C75	C	0.096236	-1.118258	-0.289983
C76	C	0.096236	-1.118269	-0.395001
C77	C	0.066865	-1.064016	-0.447532
C78	C	0.037495	-1.009753	-0.395045
C79	C	0.125602	-1.172537	-0.447497
C80	C	0.125603	-1.172551	-0.552522
C81	C	0.096234	-1.118293	-0.605054
C82	C	0.066863	-1.064027	-0.552560
C83	C	0.037492	-1.009775	-0.605091
C84	C	0.008124	-0.955503	-0.552599
C85	C	0.008127	-0.955495	-0.447577
C86	C	0.096231	-1.118301	-0.710076
C87	C	0.037490	-1.009786	-0.710119
N88	N	0.066860	-1.064049	0.237393
H89	H	-0.079837	-1.070788	0.164938
Br90	Br	0.213540	-0.415019	0.000028
Br91	Br	-0.002355	-0.936085	-0.218782
H92	H	-0.056170	-0.681331	-0.000075
H93	H	0.191647	-0.617288	0.000014
Br94	Br	0.173214	-0.789051	0.000025
Br95	Br	0.165461	-1.246200	-0.623752
Br96	Br	-0.568191	-1.061376	-0.305360
Br97	Br	-0.002368	-0.936145	-0.781403
Br98	Br	-0.082072	-0.491391	-0.000106
Br99	Br	-0.568154	-1.061463	0.305311
Br100	Br	-0.298067	-1.066625	0.305300
H101	H	-0.015319	-0.358326	-0.000089
Br102	Br	-0.031739	-0.881886	-0.623903
Br103	Br	-0.031728	-0.881849	-0.376333
Br104	Br	0.136080	-1.191959	-0.781311
H105	H	-0.171294	-1.069020	0.164957
H106	H	-0.403208	-1.064604	0.255930
Br107	Br	0.165455	-1.246170	-0.376202
Br108	Br	-0.681251	-1.059316	0.214389
Br109	Br	-0.800095	-1.057037	0.214387
Br110	Br	-0.416930	-1.064243	-0.305391
H111	H	-0.010708	-0.810976	-0.000056
H112	H	0.144431	-0.317059	-0.000020
Br113	Br	0.136090	-1.191891	-0.218691
H114	H	-0.463001	-1.063463	0.255936
H115	H	-0.694972	-1.058993	-0.165030
Br116	Br	-0.800119	-1.057001	-0.214395
H117	H	-0.171334	-1.068993	-0.165085
Br118	Br	-0.298103	-1.066504	-0.305393
H119	H	-0.079860	-1.070741	-0.165087
H120	H	-0.463047	-1.063393	-0.255989
