data_functionalizedCrystal
_audit_creation_method	'MofGen! by Chris Wilmer'
_symmetry_space_group_name_H-M	'P1'
_symmetry_Int_Tables_number	1
_symmetry_cell_setting	triclinic
loop_
_symmetry_equiv_pos_as_xyz
  x,y,z
_cell_length_a	17.019282
_cell_length_b	11.792254
_cell_length_c	10.868271
_cell_angle_alpha	89.994692
_cell_angle_beta	93.876905
_cell_angle_gamma	83.792866
loop_
_atom_site_label
_atom_site_type_symbol
_atom_site_fract_x
_atom_site_fract_y
_atom_site_fract_z
O1	O	1.047303	0.144514	0.008689
O2	O	0.817718	0.162970	-0.015649
O3	O	0.938077	-0.011486	-0.002881
O4	O	0.926944	0.318971	-0.004079
O5	O	0.938067	-0.011493	0.201762
O6	O	0.817708	0.162963	0.188994
O7	O	1.047293	0.144508	0.213332
Zn8	Zn	0.932499	0.153734	0.233655
Zn9	Zn	0.932512	0.153743	-0.035972
O10	O	0.926934	0.318964	0.200565
C11	C	0.788320	0.162270	0.083557
C12	C	0.700741	0.160180	0.074273
C13	C	0.659595	0.159191	0.181465
C14	C	0.577307	0.157209	0.172746
C15	C	0.536165	0.156224	0.056832
C16	C	0.577316	0.157209	-0.050368
C17	C	0.659604	0.159183	-0.041647
C18	C	0.287709	0.150257	0.024920
C19	C	0.205416	0.148286	0.016207
C20	C	0.205412	0.148285	0.239322
C21	C	0.287701	0.150265	0.248033
C22	C	0.328846	0.151244	0.140832
C23	C	0.452052	0.154202	0.047916
C24	C	0.412957	0.153259	0.149749
C25	C	0.937370	-0.053773	0.099366
C26	C	0.935271	-0.179764	0.099142
C27	C	0.933566	-0.282082	0.098957
C28	C	0.931433	-0.410446	0.098719
C29	C	1.076691	0.145208	0.114124
C30	C	1.164270	0.147298	0.123400
C31	C	0.927641	0.361251	0.098315
C32	C	0.929740	0.487241	0.098530
N33	N	0.932496	0.153728	0.417669
N34	N	0.932521	0.153741	-0.219985
C35	C	0.932508	0.153741	0.668676
C36	C	0.932499	0.153737	0.528997
H37	H	0.321200	0.151050	-0.062370
H38	H	0.171903	0.147486	0.326598
H39	H	0.543811	0.156386	0.260033
H40	H	0.693087	0.160003	0.275854
O41	O	0.161036	0.147217	-0.108819
H42	H	0.203472	0.148218	-0.181898
O43	O	0.532947	0.156151	-0.175394
H44	H	0.468813	0.154626	-0.163453
O45	O	0.407679	0.153146	-0.077107
H46	H	0.363491	0.229570	-0.087127
H47	H	0.693104	0.159990	-0.128935
O48	O	0.332072	0.151381	0.373052
H49	H	0.289634	0.150373	0.446128
O50	O	0.457324	0.154337	0.274770
H51	H	0.501522	0.077925	0.284803
