data_functionalizedCrystal
_audit_creation_method	'MofGen! by Chris Wilmer'
_symmetry_space_group_name_H-M	'P1'
_symmetry_Int_Tables_number	1
_symmetry_cell_setting	triclinic
loop_
_symmetry_equiv_pos_as_xyz
  x,y,z
_cell_length_a	11.169417
_cell_length_b	12.759399
_cell_length_c	11.169409
_cell_angle_alpha	90.034210
_cell_angle_beta	90.019824
_cell_angle_gamma	90.015995
loop_
_atom_site_label
_atom_site_type_symbol
_atom_site_fract_x
_atom_site_fract_y
_atom_site_fract_z
Zn1	Zn	1.834922	-0.418157	0.678527
Zn2	Zn	1.834795	-0.593882	0.477837
Zn3	Zn	1.634208	-0.418221	0.477861
Zn4	Zn	1.634199	-0.593797	0.678482
O5	O	1.734531	-0.506014	0.578177
O6	O	2.002855	-0.441476	0.651914
O7	O	1.808137	-0.570643	0.309891
O8	O	1.660891	-0.271191	0.504509
O9	O	2.002762	-0.570581	0.504468
O10	O	1.808354	-0.271144	0.651937
O11	O	1.660767	-0.441585	0.309908
O12	O	1.466257	-0.441502	0.504466
O13	O	1.660875	-0.570435	0.846438
O14	O	1.466251	-0.570497	0.651861
O15	O	1.808346	-0.441393	0.846471
O16	O	1.808128	-0.740892	0.504425
O17	O	1.660751	-0.740829	0.651838
C18	C	1.422707	-0.505998	0.578162
C19	C	1.289307	-0.506017	0.578184
C20	C	1.734458	-0.778981	0.578150
C21	C	1.734536	-0.895758	0.578178
C22	C	1.811363	-0.950618	0.501508
C23	C	1.811440	-1.060342	0.501548
C24	C	1.657853	-1.060337	0.654933
C25	C	1.657783	-0.950615	0.654898
C26	C	1.953101	-1.210221	0.458834
C27	C	2.029917	-1.265084	0.382145
C28	C	2.048380	-1.229550	0.265042
C29	C	1.990009	-1.139154	0.224604
C30	C	1.913184	-1.084296	0.301287
C31	C	1.894744	-1.119829	0.418407
C32	C	1.516120	-0.800734	0.697599
C33	C	1.439288	-0.745874	0.774277
C34	C	1.420813	-0.781406	0.891382
C35	C	1.479163	-0.871806	0.931815
C36	C	1.555995	-0.926666	0.855137
C37	C	1.574472	-0.891126	0.738033
C38	C	2.047574	-0.506031	0.578193
C39	C	2.180974	-0.506038	0.578200
C40	C	1.734623	-0.505897	0.891220
C41	C	1.734663	-0.505848	1.024620
C42	C	1.734638	-0.231981	0.578231
C43	C	1.734683	-0.115204	0.578254
C44	C	1.734509	-0.506054	0.266352
C45	C	1.734702	-0.505808	0.132953
H46	H	1.873862	-0.905956	0.439040
H47	H	1.938087	-1.239155	0.554193
O48	O	1.618946	-1.024165	0.898743
H49	H	1.593202	-1.039656	0.993060
H50	H	2.005038	-1.110235	0.129242
H51	H	1.464121	-0.900737	1.027172
O52	O	1.850256	-0.986780	0.257714
H53	H	1.751927	-0.998365	0.263330
H54	H	2.110927	-1.274227	0.202601
O55	O	1.575064	-1.119500	0.737672
H56	H	1.480869	-1.098512	0.717004
H57	H	1.358246	-0.736730	0.953811
O58	O	2.092885	-1.362575	0.425754
H59	H	2.067163	-1.378059	0.520079
O60	O	1.376350	-0.648367	0.730675
H61	H	1.402117	-0.632862	0.636367
H62	H	1.531166	-0.771788	0.602245
