data_functionalizedCrystal
_audit_creation_method	'MofGen! by Chris Wilmer'
_symmetry_space_group_name_H-M	'P1'
_symmetry_Int_Tables_number	1
_symmetry_cell_setting	triclinic
loop_
_symmetry_equiv_pos_as_xyz
  x,y,z
_cell_length_a	14.908571
_cell_length_b	19.120786
_cell_length_c	14.908308
_cell_angle_alpha	89.316475
_cell_angle_beta	89.824947
_cell_angle_gamma	89.019960
loop_
_atom_site_label
_atom_site_type_symbol
_atom_site_fract_x
_atom_site_fract_y
_atom_site_fract_z
Zn1	Zn	1.326486	-0.364755	0.566477
Zn2	Zn	1.329365	-0.475309	0.409721
Zn3	Zn	1.185494	-0.351330	0.408252
Zn4	Zn	1.170436	-0.474479	0.551420
O5	O	1.252945	-0.416468	0.483967
O6	O	1.452386	-0.385386	0.552599
O7	O	1.317787	-0.453592	0.284006
O8	O	1.209293	-0.255305	0.434927
O9	O	1.454502	-0.466610	0.437431
O10	O	1.312880	-0.265169	0.551175
O11	O	1.212085	-0.362505	0.282927
O12	O	1.057978	-0.361700	0.420327
O13	O	1.183630	-0.465195	0.678937
O14	O	1.046915	-0.452177	0.525513
O15	O	1.298279	-0.384581	0.689999
O16	O	1.303186	-0.573005	0.422831
O17	O	1.186422	-0.572395	0.526937
C18	C	1.019901	-0.405392	0.471127
C19	C	0.920201	-0.400672	0.465654
C20	C	0.721386	-0.486147	0.564738
C21	C	0.627709	-0.481714	0.559598
C22	C	0.639169	-0.387369	0.450242
C23	C	0.732846	-0.391802	0.455381
C24	C	0.773951	-0.441194	0.512630
C25	C	0.867630	-0.445630	0.517764
C26	C	0.879087	-0.351282	0.408413
C27	C	0.785410	-0.346849	0.403274
C28	C	1.243506	-0.598062	0.473430
C29	C	1.239548	-0.675754	0.468957
C30	C	1.291575	-0.717328	0.527424
C31	C	1.287852	-0.790327	0.523222
C32	C	1.232106	-0.821751	0.460549
C33	C	1.180074	-0.780171	0.402079
C34	C	1.183792	-0.707173	0.406286
C35	C	1.218179	-1.041904	0.444821
C36	C	1.214466	-1.114908	0.440617
C37	C	1.322244	-1.125059	0.561761
C38	C	1.325961	-1.052059	0.565958
C39	C	1.273925	-1.010486	0.507492
C40	C	1.228302	-0.896368	0.456250
C41	C	1.277725	-0.935870	0.511796
C42	C	1.486900	-0.427588	0.496858
C43	C	1.586597	-0.432327	0.502352
C44	C	1.238954	-0.426293	0.717924
C45	C	1.232991	-0.430480	0.817623
C46	C	1.262445	-0.234168	0.494567
C47	C	1.266493	-0.156482	0.499083
C48	C	1.266937	-0.406634	0.250926
C49	C	1.273083	-0.402259	0.151249
C50	C	1.341170	-0.354387	1.016488
C51	C	1.335570	-0.358318	1.110164
C52	C	1.216189	-0.442270	1.098652
C53	C	1.221789	-0.438338	1.004976
C54	C	1.284282	-0.394396	0.963898
C55	C	1.289885	-0.390469	0.870220
C56	C	1.170500	-0.474416	0.858710
C57	C	1.164901	-0.478347	0.952386
H58	H	1.336973	-0.691748	0.578455
H59	H	1.165310	-0.478045	1.132115
C60	C	1.108878	-0.517901	0.801505
C61	C	1.160548	-0.562844	0.747907
C62	C	1.103816	-0.602907	0.695192
H63	H	1.070843	-0.544693	0.839285
H64	H	1.073386	-0.487795	0.764309
H65	H	1.196024	-0.592946	0.785100
H66	H	1.198580	-0.536071	0.710109
H67	H	1.068325	-0.572802	0.657996
H68	H	1.065784	-0.629694	0.732979
H69	H	1.138866	-0.633401	0.658814
H70	H	1.371354	-1.026476	0.616992
C71	C	1.397373	-0.315001	1.167376
C72	C	1.449575	-0.359559	1.222040
C73	C	1.506509	-0.319676	1.274765
H74	H	1.435471	-0.288260	1.129601
H75	H	1.362480	-0.284467	1.203850
H76	H	1.484466	-0.390080	1.185570
H77	H	1.411501	-0.386300	1.259833
H78	H	1.471616	-0.289143	1.311239
H79	H	1.544601	-0.292937	1.236983
H80	H	1.541929	-0.349902	1.311866
C81	C	1.357622	-0.342639	0.825667
C82	C	1.340304	-0.273515	0.851380
C83	C	1.402677	-0.229430	0.810351
H84	H	1.416478	-0.356278	0.843715
H85	H	1.352809	-0.345978	0.762338
H86	H	1.345126	-0.270179	0.914696
H87	H	1.281460	-0.259855	0.833333
H88	H	1.397864	-0.232769	0.747022
H89	H	1.461529	-0.243076	0.828401
H90	H	1.390931	-0.182524	0.827785
C91	C	1.408911	-0.306565	0.971929
C92	C	1.391612	-0.237437	0.997636
C93	C	1.453990	-0.193364	0.956597
H94	H	1.467766	-0.320211	0.989972
H95	H	1.404092	-0.309907	0.908600
H96	H	1.396439	-0.234098	1.060950
H97	H	1.332768	-0.223770	0.979592
H98	H	1.449171	-0.196705	0.893269
H99	H	1.512842	-0.207016	0.974644
H100	H	1.442256	-0.146455	0.974027
H101	H	1.364608	-1.158916	0.609361
H102	H	0.921896	-0.314679	0.365981
H103	H	0.584914	-0.518318	0.602032
C104	C	0.912092	-0.499273	0.580008
C105	C	0.846002	-0.537677	0.624561
C106	C	0.886924	-0.587093	0.681920
H107	H	0.949102	-0.530041	0.545975
H108	H	0.947664	-0.475969	0.622743
H109	H	0.810446	-0.560980	0.581832
H110	H	0.808989	-0.506928	0.658611
H111	H	0.922496	-0.563789	0.724655
H112	H	0.923933	-0.617856	0.647880
H113	H	0.842089	-0.613152	0.712162
C114	C	0.594595	-0.333625	0.388218
C115	C	0.619794	-0.266407	0.413182
C116	C	0.578749	-0.216874	0.356075
H117	H	0.612978	-0.341877	0.328152
H118	H	0.531267	-0.337363	0.392626
H119	H	0.683108	-0.262671	0.408765
H120	H	0.601410	-0.258133	0.473239
H121	H	0.515422	-0.220613	0.360483
H122	H	0.597136	-0.225133	0.296012
H123	H	0.595834	-0.171261	0.373010
H124	H	0.751929	-0.306634	0.356666
C125	C	1.097198	-0.526150	0.997041
C126	C	1.142443	-0.575624	1.051000
C127	C	1.080106	-0.619679	1.092139
H128	H	1.057295	-0.499175	1.033051
H129	H	1.064132	-0.549459	0.952329
H130	H	1.175494	-0.552317	1.095706
H131	H	1.182342	-0.602615	1.015011
H132	H	1.047040	-0.642988	1.047426
H133	H	1.040206	-0.592699	1.128144
H134	H	1.110796	-0.653256	1.128748
C135	C	1.344460	-0.835346	0.586731
C136	C	1.394105	-0.792202	0.642491
C137	C	1.446280	-0.833648	0.700996
H138	H	1.306441	-0.863861	0.622346
H139	H	1.384212	-0.864205	0.552973
H140	H	1.354358	-0.763356	0.676246
H141	H	1.432140	-0.763688	0.606901
H142	H	1.486031	-0.862507	0.667238
H143	H	1.408254	-0.862161	0.736604
H144	H	1.479975	-0.804382	0.738830
H145	H	1.169067	-1.140490	0.389580
H146	H	1.175811	-1.008060	0.397214
H147	H	1.134681	-0.805762	0.351053
H148	H	1.141425	-0.673323	0.358678
C149	C	1.167695	-0.930355	0.388169
C150	C	1.122910	-0.878325	0.337871
C151	C	1.067061	-0.909610	0.275157
H152	H	1.202832	-0.958807	0.349288
H153	H	1.125038	-0.958412	0.418633
H154	H	1.165561	-0.850280	0.307409
H155	H	1.087756	-0.849870	0.376728
H156	H	1.024404	-0.937667	0.305621
H157	H	1.102205	-0.938061	0.236282
H158	H	1.036661	-0.874313	0.241028
H159	H	0.754855	-0.526367	0.611347
H160	H	1.323110	-0.910283	0.562827
