data_functionalizedCrystal
_audit_creation_method	'MofGen! by Chris Wilmer'
_symmetry_space_group_name_H-M	'P1'
_symmetry_Int_Tables_number	1
_symmetry_cell_setting	triclinic
loop_
_symmetry_equiv_pos_as_xyz
  x,y,z
_cell_length_a	17.699097
_cell_length_b	17.699083
_cell_length_c	16.176319
_cell_angle_alpha	90.007696
_cell_angle_beta	89.988988
_cell_angle_gamma	96.714278
loop_
_atom_site_label
_atom_site_type_symbol
_atom_site_fract_x
_atom_site_fract_y
_atom_site_fract_z
O1	O	1.004072	-0.095761	-0.068817
O2	O	1.504072	0.404239	0.431183
O3	O	0.783695	-0.108203	-0.068804
O4	O	1.283695	0.391797	0.431196
O5	O	0.900110	0.008207	-0.068803
O6	O	1.400110	0.508207	0.431197
O7	O	0.887658	-0.212171	-0.068817
O8	O	1.387658	0.287829	0.431183
O9	O	0.900094	0.008214	0.068690
O10	O	1.400094	0.508214	0.568690
O11	O	0.783679	-0.108195	0.068690
O12	O	1.283679	0.391805	0.568690
O13	O	1.004056	-0.095754	0.068676
O14	O	1.504056	0.404246	0.568676
Cu15	Cu	0.893867	-0.101974	0.081237
Cu16	Cu	1.393867	0.398026	0.581237
Cu17	Cu	0.893885	-0.101983	-0.081364
Cu18	Cu	1.393885	0.398017	0.418636
O19	O	0.887642	-0.212163	0.068676
O20	O	1.387642	0.287837	0.568676
C21	C	0.755491	-0.107752	-0.000055
C22	C	1.255491	0.392248	0.499945
C23	C	0.671473	-0.106409	-0.000050
C24	C	1.171473	0.393591	0.499950
C25	C	0.155764	-0.098184	-0.075030
C26	C	0.655764	0.401816	0.424970
C27	C	0.234708	-0.099440	-0.075026
C28	C	0.734708	0.400560	0.424974
C29	C	0.274165	-0.100065	-0.000076
C30	C	0.774165	0.399935	0.499924
C31	C	0.234675	-0.099427	0.074876
C32	C	0.734675	0.400573	0.574876
C33	C	0.155733	-0.098165	0.074871
C34	C	0.655733	0.401835	0.574871
C35	C	0.553039	-0.104514	0.074898
C36	C	1.053039	0.395486	0.574898
C37	C	0.631986	-0.105778	0.074897
C38	C	1.131986	0.394222	0.574897
C39	C	0.632014	-0.105789	-0.075000
C40	C	1.132014	0.394211	0.425000
C41	C	0.553072	-0.104527	-0.075005
C42	C	1.053072	0.395473	0.424995
C43	C	0.513589	-0.103885	-0.000054
C44	C	1.013589	0.396115	0.499946
C45	C	0.427989	-0.102521	-0.000059
C46	C	0.927989	0.397479	0.499941
C47	C	0.359763	-0.101434	-0.000069
C48	C	0.859763	0.398566	0.499931
C49	C	0.899656	0.036408	-0.000057
C50	C	1.399656	0.536408	0.499943
C51	C	0.898317	0.120426	-0.000056
C52	C	1.398317	0.620426	0.499944
C53	C	1.032261	-0.096205	-0.000074
C54	C	1.532261	0.403795	0.499926
C55	C	1.116279	-0.097547	-0.000084
C56	C	1.616279	0.402453	0.499916
C57	C	0.888096	-0.240364	-0.000073
C58	C	1.388096	0.259636	0.499927
C59	C	0.889435	-0.324382	-0.000078
C60	C	1.389435	0.175618	0.499922
N61	N	0.893859	-0.101967	0.195602
N62	N	1.393859	0.398033	0.695602
C63	C	0.966650	0.169044	-0.000059
C64	C	1.466650	0.669044	0.499941
C65	C	0.965388	0.247987	-0.000066
C66	C	1.465388	0.747987	0.499934
C67	C	0.895792	0.278311	-0.000065
C68	C	1.395792	0.778311	0.499935
C69	C	0.827454	0.229687	-0.000064
C70	C	1.327454	0.729687	0.499936
C71	C	0.828717	0.150745	-0.000063
C72	C	1.328717	0.650745	0.499937
C73	C	0.822359	0.548050	-0.000071
C74	C	1.322359	1.048050	0.499929
C75	C	0.821101	0.626998	-0.000070
C76	C	1.321101	1.126998	0.499930
C77	C	0.959030	0.645292	-0.000074
C78	C	1.459030	1.145292	0.499926
C79	C	0.960293	0.566350	-0.000073
C80	C	1.460293	1.066350	0.499927
C81	C	0.891955	0.517733	-0.000077
C82	C	1.391955	1.017733	0.499923
C83	C	0.893325	0.432134	-0.000070
C84	C	1.393325	0.932134	0.499930
C85	C	0.894422	0.363909	-0.000065
C86	C	1.394422	0.863909	0.499935
N87	N	0.893899	-0.101983	-0.195730
N88	N	1.393899	0.398017	0.304270
C89	C	0.945423	-0.050442	0.238867
C90	C	1.445423	0.449558	0.738867
C91	C	0.945426	-0.050441	0.325414
C92	C	1.445426	0.449559	0.825414
C93	C	0.893869	-0.101970	0.368695
C94	C	1.393869	0.398030	0.868695
C95	C	0.842300	-0.153498	0.325425
C96	C	1.342300	0.346502	0.825425
C97	C	0.842293	-0.153494	0.238879
C98	C	1.342293	0.346506	0.738879
C99	C	0.842326	-0.153512	0.674453
C100	C	1.342326	0.346488	1.174453
C101	C	0.842338	-0.153513	0.761004
C102	C	1.342338	0.346487	1.261004
C103	C	0.945459	-0.050459	0.760988
C104	C	1.445459	0.449541	1.260988
C105	C	0.945452	-0.050455	0.674442
C106	C	1.445452	0.449545	1.174442
C107	C	0.893881	-0.101980	0.631179
C108	C	1.393881	0.398020	1.131179
C109	C	0.893876	-0.101979	0.537335
C110	C	1.393876	0.398021	1.037335
C111	C	0.893877	-0.101975	0.462538
C112	C	1.393877	0.398025	0.962538
H113	H	0.266853	-0.099954	-0.136055
H114	H	0.766853	0.400046	0.363945
H115	H	0.520949	-0.104022	-0.136038
H116	H	1.020949	0.395978	0.363962
C117	C	1.002133	0.006259	0.373001
C118	C	1.502133	0.506259	0.873001
N119	N	1.044840	0.048975	0.408843
N120	N	1.544840	0.548975	0.908843
C121	C	0.112300	-0.097468	0.157318
C122	C	0.612300	0.402532	0.657318
N123	N	0.079587	-0.096942	0.219419
N124	N	0.579587	0.403058	0.719419
H125	H	0.123642	-0.097680	-0.136064
H126	H	0.623642	0.402320	0.363936
C127	C	0.785575	-0.210182	0.191289
C128	C	1.285575	0.289818	0.691289
N129	N	0.742853	-0.252882	0.155445
N130	N	1.242853	0.247118	0.655445
H131	H	1.021032	0.287569	-0.000067
H132	H	1.521032	0.787569	0.499933
C133	C	0.785614	-0.210196	0.808612
C134	C	1.285614	0.289804	1.308612
N135	N	0.742891	-0.252887	0.844470
N136	N	1.242891	0.247113	1.344470
C137	C	1.002140	0.006245	0.191265
C138	C	1.502140	0.506245	0.691265
N139	N	1.044859	0.048946	0.155414
N140	N	1.544859	0.548946	0.655414
H141	H	0.987437	-0.008498	0.639205
H142	H	1.487437	0.491502	1.139205
H143	H	0.987450	-0.008502	0.796221
H144	H	1.487450	0.491498	1.296221
H145	H	1.014674	0.684886	-0.000075
H146	H	1.514674	1.184886	0.499925
C147	C	0.675453	-0.106486	-0.157449
C148	C	1.175453	0.393514	0.342551
N149	N	0.708170	-0.107011	-0.219548
N150	N	1.208170	0.392989	0.280452
C151	C	0.675389	-0.106459	0.157353
C152	C	1.175389	0.393541	0.657353
N153	N	0.708079	-0.106971	0.219455
N154	N	1.208079	0.393029	0.719455
C155	C	0.785694	-0.210288	0.626875
C156	C	1.285694	0.289712	1.126875
N157	N	0.743070	-0.253091	0.591037
N158	N	1.243070	0.246909	1.091037
H159	H	0.800318	-0.195451	0.360669
H160	H	1.300318	0.304549	0.860669
C161	C	0.744536	0.660352	-0.000075
C162	C	1.244536	1.160352	0.499925
N163	N	0.686871	0.685475	-0.000079
N164	N	1.186871	1.185475	0.499921
H165	H	0.520903	-0.103980	0.135928
H166	H	1.020903	0.396020	0.635928
H167	H	0.266808	-0.099931	0.135903
H168	H	0.766808	0.400069	0.635903
C169	C	0.750897	0.263046	-0.000056
C170	C	1.250897	0.763046	0.499944
N171	N	0.693233	0.288172	-0.000043
N172	N	1.193233	0.788172	0.499957
C173	C	1.036854	0.532999	-0.000075
C174	C	1.536854	1.032999	0.499925
N175	N	1.094521	0.507880	-0.000080
N176	N	1.594521	1.007880	0.499920
H177	H	1.023323	0.144360	-0.000055
H178	H	1.523323	0.644360	0.499945
H179	H	0.766714	0.508475	-0.000074
H180	H	1.266714	1.008475	0.499926
C181	C	0.753545	0.097266	-0.000058
C182	C	1.253545	0.597266	0.499942
N183	N	0.696923	0.056985	-0.000056
N184	N	1.196923	0.556985	0.499944
