data_functionalizedCrystal
_audit_creation_method	'MofGen! by Chris Wilmer'
_symmetry_space_group_name_H-M	'P1'
_symmetry_Int_Tables_number	1
_symmetry_cell_setting	triclinic
loop_
_symmetry_equiv_pos_as_xyz
  x,y,z
_cell_length_a	19.077269
_cell_length_b	19.077600
_cell_length_c	12.759393
_cell_angle_alpha	87.736498
_cell_angle_beta	92.276332
_cell_angle_gamma	94.645727
loop_
_atom_site_label
_atom_site_type_symbol
_atom_site_fract_x
_atom_site_fract_y
_atom_site_fract_z
Zn1	Zn	1.088900	0.323879	-0.548116
Zn2	Zn	1.588900	0.823879	-0.048116
Zn3	Zn	1.093516	0.441769	-0.379217
Zn4	Zn	1.593516	0.941769	0.120783
Zn5	Zn	0.971013	0.319179	-0.379239
Zn6	Zn	1.471013	0.819179	0.120761
Zn7	Zn	0.975693	0.436985	-0.561633
Zn8	Zn	1.475693	0.936985	-0.061633
O9	O	1.032280	0.380453	-0.467051
O10	O	1.532280	0.880453	0.032949
O11	O	1.188158	0.343487	-0.520045
O12	O	1.688158	0.843487	-0.020045
O13	O	1.077238	0.425542	-0.232203
O14	O	1.577238	0.925542	0.267797
O15	O	0.982761	0.221162	-0.395993
O16	O	1.482761	0.721162	0.104007
O17	O	1.191549	0.430100	-0.395956
O18	O	1.691549	0.930100	0.104044
O19	O	1.069372	0.224616	-0.520066
O20	O	1.569372	0.724616	-0.020066
O21	O	0.987236	0.335476	-0.232219
O22	O	1.487236	0.835476	0.267781
O23	O	0.872988	0.330836	-0.409100
O24	O	1.372988	0.830836	0.090900
O25	O	0.990737	0.421946	-0.706858
O26	O	1.490737	0.921946	-0.206858
O27	O	0.876426	0.417388	-0.543104
O28	O	1.376426	0.917388	-0.043104
O29	O	1.073910	0.338848	-0.696927
O30	O	1.573910	0.838848	-0.196927
O31	O	1.081776	0.539774	-0.409063
O32	O	1.581776	1.039774	0.090937
O33	O	0.995212	0.536259	-0.543083
O34	O	1.495212	1.036259	-0.043083
C35	C	1.039522	0.563594	-0.477560
C36	C	1.539522	1.063594	0.022440
C37	C	1.042685	0.641945	-0.482086
C38	C	1.542685	1.141945	0.017914
C39	C	0.849129	0.373084	-0.477572
C40	C	1.349129	0.873084	0.022428
C41	C	0.770777	0.369948	-0.482098
C42	C	1.270777	0.869948	0.017902
C43	C	1.032330	0.380387	-0.741078
C44	C	1.532330	0.880387	-0.241078
C45	C	1.032352	0.380359	-0.857852
C46	C	1.532352	0.880359	-0.357852
C47	C	0.735727	0.413497	-0.419514
C48	C	1.235727	0.913497	0.080486
C49	C	0.662107	0.410550	-0.423781
C50	C	1.162107	0.910550	0.076219
C51	C	0.623539	0.364052	-0.490627
C52	C	1.123539	0.864052	0.009373
C53	C	0.658594	0.320501	-0.553219
C54	C	1.158594	0.820501	-0.053219
C55	C	0.732213	0.323452	-0.548956
C56	C	1.232213	0.823452	-0.048956
C57	C	0.403173	0.350404	-0.510319
C58	C	0.903173	0.850404	-0.010319
C59	C	0.329549	0.347456	-0.514574
C60	C	0.829549	0.847456	-0.014574
C61	C	0.333068	0.437506	-0.385138
C62	C	0.833068	0.937506	0.114862
C63	C	0.406687	0.440449	-0.380877
C64	C	0.906687	0.940449	0.119123
C65	C	0.441737	0.396901	-0.443472
C66	C	0.941737	0.896901	0.056528
N67	N	0.548287	0.361038	-0.494988
N68	N	1.048287	0.861038	0.005012
N69	N	0.516987	0.399919	-0.439116
N70	N	1.016987	0.899919	0.060884
C71	C	1.216146	0.387851	-0.456491
C72	C	1.716146	0.887851	0.043509
C73	C	1.294499	0.391004	-0.451990
C74	C	1.794499	0.891004	0.048010
C75	C	1.065380	1.083166	-0.514527
C76	C	1.565380	1.583166	-0.014527
C77	C	1.062400	1.009547	-0.510265
C78	C	1.562400	1.509547	-0.010265
C79	C	1.015853	0.971007	-0.443488
C80	C	1.515853	1.471007	0.056512
C81	C	0.972287	1.006090	-0.380962
C82	C	1.472287	1.506090	0.119038
C83	C	0.975270	1.079709	-0.385220
C84	C	1.475270	1.579709	0.114780
C85	C	1.002102	0.750646	-0.423818
C86	C	1.502102	1.250646	0.076182
C87	C	0.999120	0.677023	-0.419567
C88	C	1.499120	1.177023	0.080433
C89	C	1.089235	0.680485	-0.548869
C90	C	1.589235	1.180485	-0.048869
C91	C	1.092212	0.754104	-0.553125
C92	C	1.592212	1.254104	-0.053125
C93	C	1.048648	0.789181	-0.490595
C94	C	1.548648	1.289181	0.009405
N95	N	1.012805	0.895756	-0.439132
N96	N	1.512805	1.395756	0.060868
N97	N	1.051700	0.864431	-0.494946
N98	N	1.551700	1.364431	0.005054
C99	C	1.024998	1.196596	-0.456516
C100	C	1.524998	1.696596	0.043484
C101	C	1.021815	1.118245	-0.452008
C102	C	1.521815	1.618245	0.047992
C103	C	1.075663	0.337083	-0.907544
C104	C	1.575663	0.837083	-0.407544
C105	C	1.075674	0.337053	-1.017265
C106	C	1.575674	0.837053	-0.517265
C107	C	0.989060	0.423582	-1.027594
C108	C	1.489060	0.923582	-0.527594
C109	C	0.989046	0.423608	-0.917874
C110	C	1.489046	0.923608	-0.417874
C111	C	1.032269	0.380469	-0.194086
C112	C	1.532269	0.880469	0.305914
C113	C	1.032376	0.380304	-0.077293
C114	C	1.532376	0.880304	0.422707
H115	H	0.633573	0.446012	-0.372818
H116	H	1.133573	0.946012	0.127182
H117	H	1.124703	0.651918	-0.599777
H118	H	1.624703	1.151918	-0.099777
O119	O	1.122369	0.290438	-0.842803
O120	O	1.622369	0.790438	-0.342803
H121	H	1.089401	0.253321	-0.792561
H122	H	1.589401	0.753321	-0.292561
O123	O	0.948915	0.635456	-0.347532
O124	O	1.448915	1.135456	0.152468
H125	H	0.954156	0.578372	-0.355088
H126	H	1.454156	1.078372	0.144912
O127	O	0.942307	0.470272	-0.864283
O128	O	1.442307	0.970272	-0.364283
H129	H	0.956566	0.526082	-0.887799
H130	H	1.456566	1.026082	-0.387799
H131	H	0.431701	0.314945	-0.561290
H132	H	0.931701	0.814945	-0.061290
H133	H	1.103277	1.114540	-0.568915
H134	H	1.603277	1.614540	-0.068915
O135	O	0.955114	0.788475	-0.356383
O136	O	1.455114	1.288475	0.143617
H137	H	0.899213	0.772173	-0.376713
H138	H	1.399213	1.272173	0.123287
O139	O	1.122389	0.290370	-1.070850
O140	O	1.622389	0.790370	-0.570850
H141	H	1.089428	0.253218	-1.120577
H142	H	1.589428	0.753218	-0.620577
H143	H	0.953804	0.458795	-1.076477
H144	H	1.453804	0.958795	-0.576477
H145	H	0.934389	0.974707	-0.326585
H146	H	1.434389	1.474707	0.173415
H147	H	0.767125	0.451358	-0.365076
H148	H	1.267125	0.951358	0.134924
O149	O	0.448287	0.490595	-0.308769
O150	O	0.948287	0.990595	0.191231
H151	H	0.411545	0.520384	-0.265967
H152	H	0.911545	1.020384	0.234033
H153	H	0.304523	0.472961	-0.334178
H154	H	0.804523	0.972961	0.165822
O155	O	0.928288	1.117543	-0.317776
O156	O	1.428288	1.617543	0.182224
H157	H	0.938189	1.175209	-0.331941
H158	H	1.438189	1.675209	0.168059
H159	H	0.298148	0.309585	-0.569006
H160	H	0.798148	0.809585	-0.069006
O161	O	0.616995	0.270343	-0.625309
O162	O	1.116995	0.770343	-0.125309
H163	H	0.584718	0.300587	-0.682431
H164	H	1.084718	0.800587	-0.182431
O165	O	0.770023	0.276477	-0.616448
O166	O	1.270023	0.776477	-0.116448
H167	H	0.730837	0.243641	-0.663638
H168	H	1.230837	0.743641	-0.163638
H169	H	1.130124	0.785479	-0.607490
H170	H	1.630124	1.285479	-0.107490
O171	O	1.109406	0.971710	-0.577666
O172	O	1.609406	1.471710	-0.077666
H173	H	1.142275	1.010877	-0.624813
H174	H	1.642275	1.510877	-0.124813
