data_functionalizedCrystal
_audit_creation_method	'MofGen! by Chris Wilmer'
_symmetry_space_group_name_H-M	'P1'
_symmetry_Int_Tables_number	1
_symmetry_cell_setting	triclinic
loop_
_symmetry_equiv_pos_as_xyz
  x,y,z
_cell_length_a	15.995350
_cell_length_b	19.188930
_cell_length_c	15.072220
_cell_angle_alpha	89.993728
_cell_angle_beta	89.991149
_cell_angle_gamma	83.318578
loop_
_atom_site_label
_atom_site_type_symbol
_atom_site_fract_x
_atom_site_fract_y
_atom_site_fract_z
O1	O	1.110666	0.089991	-0.073718
O2	O	0.866850	0.101105	-0.073737
O3	O	0.995794	-0.006090	-0.073709
O4	O	0.981722	0.197186	-0.073745
O5	O	0.995763	-0.006084	0.073856
O6	O	0.866819	0.101111	0.073828
O7	O	1.110634	0.089997	0.073848
Zn8	Zn	0.988721	0.095555	0.097267
Zn9	Zn	0.988763	0.095547	-0.097156
O10	O	0.981690	0.197192	0.073820
C11	C	0.835641	0.100648	0.000043
C12	C	0.742696	0.099271	0.000037
C13	C	0.404967	0.094324	0.000056
C14	C	0.452680	0.017982	0.000398
C15	C	0.549365	0.019360	0.000059
C16	C	0.572518	0.096778	0.000047
C17	C	0.531311	0.134429	-0.084223
C18	C	0.434683	0.132511	-0.084287
C19	C	0.434302	0.134095	0.083522
C20	C	0.531247	0.134077	0.084629
C21	C	0.667211	0.098169	0.000039
C22	C	0.310274	0.092936	0.000058
C23	C	0.995323	-0.032099	0.000076
C24	C	0.993955	-0.109607	0.000083
C25	C	1.069615	-0.154338	0.000093
C26	C	1.068330	-0.227165	0.000079
C27	C	0.991380	-0.255258	0.000072
C28	C	0.915710	-0.210517	0.000057
C29	C	0.916997	-0.137691	0.000062
N30	N	0.932550	-0.363410	0.050287
N31	N	0.931333	-0.432592	0.050284
C32	C	0.987497	-0.474676	0.000054
N33	N	1.044937	-0.444966	-0.050161
N34	N	1.046158	-0.375779	-0.050154
C35	C	0.989976	-0.334224	0.000066
C36	C	1.061769	-0.598375	0.000048
C37	C	1.060480	-0.671204	0.000028
C38	C	0.907859	-0.654553	0.000015
C39	C	0.909149	-0.581727	0.000025
C40	C	0.986106	-0.553643	0.000046
C41	C	1.141843	0.090454	0.000065
C42	C	1.234789	0.091831	0.000066
C43	C	0.982162	0.223201	0.000033
C44	C	0.983530	0.300709	0.000019
N45	N	0.988699	0.095560	0.229956
N46	N	0.988792	0.095537	-0.229845
C47	C	0.988762	0.095544	0.589157
C48	C	0.919536	0.152710	0.551535
C49	C	0.919693	0.152918	0.448710
C50	C	0.988730	0.095552	0.410953
C51	C	1.076036	0.111464	0.448248
C52	C	1.075648	0.111870	0.551106
C53	C	0.971460	0.022298	0.551269
C54	C	0.969454	0.022787	0.448405
C55	C	0.988717	0.095555	0.310240
C56	C	0.988780	0.095543	0.689871
H57	H	0.434257	-0.012531	0.060832
C58	C	0.587913	-0.020628	0.081659
C59	C	0.653494	-0.085273	0.069235
C60	C	0.692039	-0.125266	0.150833
C61	C	0.665005	-0.100614	0.244856
C62	C	0.599420	-0.035966	0.257284
C63	C	0.560875	0.004027	0.175686
H64	H	0.673510	-0.103524	-0.000370
H65	H	0.740589	-0.173123	0.141633
H66	H	0.693538	-0.130220	0.305261
H67	H	0.579405	-0.017714	0.326889
H68	H	0.512325	0.051884	0.184886
H69	H	1.129943	-0.263592	0.000084
H70	H	0.845205	-0.677425	0.000005
C71	C	0.550112	0.211266	-0.088482
C72	C	0.477216	0.271230	-0.088145
C73	C	0.496018	0.348067	-0.092403
C74	C	0.587716	0.364938	-0.096997
C75	C	0.660618	0.304972	-0.097333
C76	C	0.641816	0.228136	-0.093076
H77	H	0.409330	0.258742	-0.084745
H78	H	0.442051	0.392458	-0.092154
H79	H	0.601634	0.421817	-0.100148
H80	H	0.728504	0.317460	-0.100734
H81	H	0.695784	0.183745	-0.093325
H82	H	1.090935	0.165288	0.575079
H83	H	0.855384	-0.101270	0.000054
C84	C	1.039654	-0.035176	0.584142
C85	C	1.110694	-0.015787	0.645059
C86	C	1.178888	-0.073254	0.677940
C87	C	1.176042	-0.150110	0.649903
C88	C	1.105000	-0.169503	0.588983
C89	C	1.036806	-0.112035	0.556103
H90	H	1.112803	0.041110	0.665816
H91	H	1.231479	-0.058898	0.723037
H92	H	1.226524	-0.192651	0.674244
H93	H	1.102891	-0.226399	0.568226
H94	H	0.984215	-0.126391	0.511006
C95	C	1.143714	-0.720410	0.000037
C96	C	1.206820	-0.717276	0.076678
C97	C	1.290055	-0.766483	0.076687
C98	C	1.310183	-0.818825	0.000056
C99	C	1.247076	-0.821962	-0.076591
C100	C	1.163841	-0.772754	-0.076600
H101	H	1.191921	-0.678527	0.133410
H102	H	1.336771	-0.764161	0.133427
H103	H	1.371799	-0.855251	0.000063
H104	H	1.261975	-0.860710	-0.133323
H105	H	1.117124	-0.775077	-0.133340
H106	H	0.433211	-0.012395	-0.059692
H107	H	0.847538	-0.545305	0.000022
H108	H	0.546404	0.190533	0.089710
C109	C	0.568605	0.097193	0.168864
C110	C	0.538501	0.124133	0.261042
C111	C	0.576034	0.087368	0.345279
C112	C	0.643671	0.023662	0.337338
C113	C	0.673779	-0.003281	0.245155
C114	C	0.636246	0.033484	0.160918
H115	H	0.488429	0.171295	0.266925
H116	H	0.553746	0.107314	0.413519
H117	H	0.671455	-0.003553	0.399695
H118	H	0.723851	-0.050443	0.239273
H119	H	0.658534	0.013539	0.092679
H120	H	1.128756	0.071875	0.575991
H121	H	1.128769	0.070935	0.423790
H122	H	0.853057	-0.233394	0.000050
H123	H	1.132280	-0.131477	0.000107
C124	C	1.146418	-0.567476	0.000063
C125	C	1.229647	-0.616684	0.000063
C126	C	1.314296	-0.585788	0.000080
C127	C	1.315716	-0.505683	0.000097
C128	C	1.232484	-0.456470	0.000098
C129	C	1.147835	-0.487367	0.000080
H130	H	1.228598	-0.675987	0.000050
H131	H	1.375910	-0.622219	0.000080
H132	H	1.378379	-0.482811	0.000110
H133	H	1.233533	-0.397168	0.000110
H134	H	1.086221	-0.450936	0.000081
H135	H	0.854788	0.143438	0.423496
H136	H	0.577345	-0.010441	-0.060444
C137	C	0.831554	0.140077	0.584905
C138	C	0.821486	0.077704	0.646733
C139	C	0.733497	0.065048	0.680071
C140	C	0.655575	0.114764	0.651580
C141	C	0.665640	0.177140	0.589748
C142	C	0.753629	0.189797	0.556411
H143	H	0.879171	0.040898	0.667827
H144	H	0.726046	0.018872	0.725843
H145	H	0.590439	0.105395	0.676258
H146	H	0.607955	0.213947	0.568654
H147	H	0.761080	0.235972	0.510638
C148	C	0.934247	0.225736	0.586370
C149	C	1.008781	0.233641	0.648773
C150	C	1.023512	0.306670	0.683584
C151	C	0.963711	0.371793	0.655993
C152	C	0.889172	0.363890	0.593587
C153	C	0.874441	0.290861	0.558776
H154	H	1.053054	0.185431	0.669200
H155	H	1.078691	0.312520	0.729780
H156	H	0.974616	0.425853	0.681762
H157	H	0.844899	0.412100	0.573160
H158	H	0.819262	0.285011	0.512579
H159	H	0.930714	0.207273	0.424087
C160	C	1.097195	0.182807	0.413435
C161	C	1.035410	0.226680	0.351216
C162	C	1.056562	0.298026	0.316405
C163	C	1.139500	0.325497	0.343813
C164	C	1.201290	0.281623	0.406035
C165	C	1.180137	0.210278	0.440846
H166	H	0.974010	0.206345	0.330924
H167	H	1.010820	0.330504	0.270344
H168	H	1.155158	0.378311	0.318044
H169	H	1.262690	0.301959	0.426327
H170	H	1.225879	0.177799	0.486907
C171	C	0.887324	0.001639	0.586340
C172	C	0.885826	-0.066085	0.640849
C173	C	0.801685	-0.086736	0.675919
C174	C	0.719043	-0.039662	0.656480
C175	C	0.720538	0.028066	0.601968
C176	C	0.804678	0.048716	0.566898
H177	H	0.947005	-0.100936	0.655241
H178	H	0.800579	-0.136873	0.716272
H179	H	0.656757	-0.054949	0.682442
H180	H	0.659358	0.062917	0.587576
H181	H	0.805785	0.098853	0.526545
C182	C	0.882695	0.006467	0.415478
C183	C	0.829578	0.058945	0.354869
C184	C	0.742819	0.042628	0.321936
C185	C	0.709178	-0.026168	0.349612
C186	C	0.762297	-0.078651	0.410225
C187	C	0.849055	-0.062334	0.443158
H188	H	0.854480	0.109876	0.334379
H189	H	0.703498	0.081479	0.277067
H190	H	0.644954	-0.038248	0.325233
H191	H	0.737394	-0.129582	0.430715
H192	H	0.888377	-0.101185	0.488027
C193	C	1.033174	-0.037376	0.413694
C194	C	1.127647	-0.037618	0.433523
C195	C	1.191377	-0.097778	0.398812
C196	C	1.160632	-0.157695	0.344273
C197	C	1.066154	-0.157455	0.324441
C198	C	1.002425	-0.097295	0.359152
H199	H	1.150410	0.006738	0.473899
H200	H	1.261316	-0.097955	0.413493
H201	H	1.207809	-0.202229	0.318578
H202	H	1.043391	-0.201811	0.284065
H203	H	0.932485	-0.097118	0.344471
H204	H	0.413844	0.109140	0.147396
C205	C	0.410097	0.095408	-0.169370
C206	C	0.446985	0.019043	-0.187796
C207	C	0.422405	-0.018062	-0.272881
C208	C	0.360938	0.021198	-0.339539
C209	C	0.324047	0.097567	-0.321115
C210	C	0.348626	0.134672	-0.236031
H211	H	0.492490	-0.010023	-0.138450
H212	H	0.449715	-0.074596	-0.286519
H213	H	0.342743	-0.006270	-0.402524
H214	H	0.278542	0.126633	-0.370461
H215	H	0.321317	0.191206	-0.222393
H216	H	0.402334	0.190382	0.084082
H217	H	0.402230	0.188560	-0.088121
H218	H	0.559795	0.108273	-0.146930
