data_functionalizedCrystal
_audit_creation_method	'MofGen! by Chris Wilmer'
_symmetry_space_group_name_H-M	'P1'
_symmetry_Int_Tables_number	1
_symmetry_cell_setting	triclinic
loop_
_symmetry_equiv_pos_as_xyz
  x,y,z
_cell_length_a	16.992694
_cell_length_b	14.472310
_cell_length_c	16.992695
_cell_angle_alpha	90.000759
_cell_angle_beta	90.668223
_cell_angle_gamma	90.007614
loop_
_atom_site_label
_atom_site_type_symbol
_atom_site_fract_x
_atom_site_fract_y
_atom_site_fract_z
O1	O	1.050861	0.076726	0.166912
O2	O	1.550861	0.576726	0.666912
O3	O	0.822461	0.076753	0.165081
O4	O	1.322461	0.576753	0.665081
O5	O	0.935745	0.076732	0.051796
O6	O	1.435745	0.576732	0.551796
O7	O	0.937576	0.076747	0.280196
O8	O	1.437576	0.576747	0.780196
O9	O	0.935714	-0.076950	0.051801
O10	O	1.435714	0.423050	0.551801
O11	O	0.822430	-0.076929	0.165086
O12	O	1.322430	0.423071	0.665086
O13	O	1.050830	-0.076956	0.166917
O14	O	1.550830	0.423044	0.666917
Cu15	Cu	0.936627	-0.090975	0.166002
Cu16	Cu	1.436627	0.409025	0.666002
Cu17	Cu	0.936663	0.090772	0.165996
Cu18	Cu	1.436663	0.590772	0.665996
O19	O	0.937546	-0.076935	0.280201
O20	O	1.437546	0.423065	0.780201
C21	C	0.793085	-0.000084	0.162727
C22	C	1.293085	0.499916	0.662727
C23	C	0.705600	-0.000074	0.155699
C24	C	1.205600	0.499926	0.655699
N25	N	0.936607	-0.218806	0.166006
N26	N	1.436607	0.281194	0.666006
C27	C	0.659610	-0.000071	0.223517
C28	C	1.159610	0.499929	0.723517
C29	C	0.577409	-0.000084	0.216908
C30	C	1.077409	0.499916	0.716908
C31	C	0.541201	-0.000094	0.142480
C32	C	1.041201	0.499906	0.642480
C33	C	0.587198	-0.000100	0.074657
C34	C	1.087198	0.499900	0.574657
C35	C	0.669397	-0.000094	0.081267
C36	C	1.169397	0.499906	0.581267
C37	C	0.295886	-0.000120	0.115086
C38	C	0.795886	0.499880	0.615086
C39	C	0.213681	-0.000124	0.108481
C40	C	0.713681	0.499876	0.608481
C41	C	0.203898	-0.000109	0.250732
C42	C	0.703898	0.499891	0.750732
C43	C	0.286099	-0.000097	0.257336
C44	C	0.786099	0.499903	0.757336
C45	C	0.332089	-0.000108	0.189512
C46	C	0.832089	0.499892	0.689512
N47	N	0.457178	-0.000104	0.135723
N48	N	0.957178	0.499896	0.635723
N49	N	0.416110	-0.000105	0.196270
N50	N	0.916110	0.499895	0.696270
C51	C	0.936662	-0.592897	0.165993
C52	C	1.436662	-0.092897	0.665993
C53	C	0.875815	-0.553720	0.226378
C54	C	1.375815	-0.053720	0.726378
C55	C	0.875980	-0.446632	0.226623
C56	C	1.375980	0.053368	0.726623
C57	C	0.936634	-0.407306	0.165999
C58	C	1.436634	0.092694	0.665999
C59	C	1.019894	-0.446151	0.189086
C60	C	1.519894	0.053849	0.689086
C61	C	1.019558	-0.553273	0.189521
C62	C	1.519558	-0.053273	0.689521
C63	C	0.914970	-0.553429	0.082375
C64	C	1.414970	-0.053429	0.582375
C65	C	0.913120	-0.446301	0.082808
C66	C	1.413120	0.053699	0.582808
C67	C	0.936624	-0.302418	0.166002
C68	C	1.436624	0.197582	0.666002
C69	C	0.936678	-0.697785	0.165992
C70	C	1.436678	-0.197785	0.665992
C71	C	1.080205	-0.000116	0.169270
C72	C	1.580205	0.499884	0.669270
C73	C	1.167690	-0.000121	0.176299
C74	C	1.667690	0.499879	0.676299
C75	C	0.933374	-0.000108	0.022439
C76	C	1.433374	0.499892	0.522439
C77	C	0.926345	-0.000107	-0.065046
C78	C	1.426345	0.499893	0.434954
N79	N	0.936689	0.218603	0.165986
N80	N	1.436689	0.718603	0.665986
C81	C	0.994163	-0.000116	-0.111037
C82	C	1.494163	0.499884	0.388963
C83	C	0.987554	-0.000107	-0.193238
C84	C	1.487554	0.499893	0.306762
C85	C	0.913126	-0.000095	-0.229446
C86	C	1.413126	0.499905	0.270554
C87	C	0.845303	-0.000083	-0.183449
C88	C	1.345303	0.499917	0.316551
C89	C	0.851913	-0.000086	-0.101250
C90	C	1.351913	0.499914	0.398750
C91	C	0.885732	-0.000079	-0.474760
C92	C	1.385732	0.499921	0.025240
C93	C	0.879127	-0.000079	-0.556966
C94	C	1.379127	0.499921	-0.056966
C95	C	1.021379	-0.000101	-0.566749
C96	C	1.521379	0.499899	-0.066749
C97	C	1.027982	-0.000109	-0.484547
C98	C	1.527982	0.499891	0.015453
C99	C	0.960159	-0.000092	-0.438558
C100	C	1.460159	0.499908	0.061442
N101	N	0.906369	-0.000088	-0.313468
N102	N	1.406369	0.499912	0.186532
N103	N	0.966917	-0.000093	-0.354537
N104	N	1.466917	0.499907	0.145463
C105	C	0.939917	-0.000093	0.309559
C106	C	1.439917	0.499907	0.809559
C107	C	0.946945	-0.000088	0.397044
C108	C	1.446945	0.499912	0.897044
H109	H	0.689084	-0.000062	0.284124
H110	H	1.189084	0.499938	0.784124
C111	C	1.095979	-0.000109	-0.617335
C112	C	1.595979	0.499891	-0.117335
H113	H	1.141251	-0.000122	-0.583997
H114	H	1.641251	0.499878	-0.083997
H115	H	1.096369	0.053484	-0.649603
H116	H	1.596369	0.553484	-0.149603
H117	H	1.096349	-0.053708	-0.649605
H118	H	1.596349	0.446292	-0.149605
C119	C	1.062152	-0.000107	-0.243828
C120	C	1.562152	0.499893	0.256172
H121	H	1.047558	-0.000089	-0.297968
H122	H	1.547558	0.499911	0.202032
H123	H	1.092452	-0.053702	-0.232375
H124	H	1.592452	0.446298	0.267625
H125	H	1.092464	0.053490	-0.232358
H126	H	1.592464	0.553490	0.267642
C127	C	0.346465	-0.000126	0.040483
C128	C	0.846465	0.499874	0.540483
H129	H	0.313125	-0.000123	-0.004788
H130	H	0.813125	0.499877	0.495212
H131	H	0.378729	-0.053717	0.040104
H132	H	0.878729	0.446283	0.540104
H133	H	0.378738	0.053474	0.040100
H134	H	0.878738	0.553474	0.540100
C135	C	0.830346	-0.412010	0.059298
C136	C	1.330346	0.087990	0.559298
H137	H	0.810196	-0.374081	0.100004
H138	H	1.310196	0.125919	0.600004
H139	H	0.796498	-0.463507	0.051401
H140	H	1.296498	0.036493	0.551401
H141	H	0.833281	-0.377266	0.011990
H142	H	1.333281	0.122734	0.511990
H143	H	0.813906	-0.579501	0.212028
H144	H	1.313906	-0.079501	0.712028
H145	H	0.315574	-0.000078	0.317942
H146	H	0.815574	0.499922	0.817942
H147	H	0.166444	-0.000102	0.305950
H148	H	0.666444	0.499898	0.805950
H149	H	0.184203	-0.000131	0.047870
H150	H	0.684203	0.499869	0.547870
H151	H	0.818516	-0.000084	-0.586443
H152	H	1.318516	0.499916	-0.086443
C153	C	0.974819	-0.587660	0.021581
C154	C	1.474819	-0.087660	0.521581
H155	H	0.961407	-0.563580	-0.028827
H156	H	1.461407	-0.063580	0.471173
H157	H	0.973935	-0.653254	0.019740
H158	H	1.473935	-0.153254	0.519740
H159	H	1.026043	-0.567250	0.036323
H160	H	1.526043	-0.067250	0.536323
C161	C	1.109850	-0.000129	-0.444720
C162	C	1.609850	0.499871	0.055280
H163	H	1.104073	-0.000140	-0.389178
H164	H	1.604073	0.499860	0.110822
H165	H	1.138010	0.053456	-0.460196
H166	H	1.638010	0.553456	0.039804
H167	H	1.137972	-0.053735	-0.460206
H168	H	1.637972	0.446265	0.039794
C169	C	0.811129	-0.000077	-0.424182
C170	C	1.311129	0.499923	0.075818
H171	H	0.765859	-0.000082	-0.457521
H172	H	1.265859	0.499918	0.042479
H173	H	0.810754	0.053513	-0.391909
H174	H	1.310754	0.553513	0.108091
H175	H	0.810743	-0.053678	-0.391917
H176	H	1.310743	0.446322	0.108083
C177	C	0.895420	-0.411992	0.310300
C178	C	1.395420	0.088008	0.810300
H179	H	0.903256	-0.463389	0.344275
H180	H	1.403256	0.036611	0.844275
H181	H	0.853045	-0.375558	0.328948
H182	H	1.353045	0.124442	0.828948
H183	H	0.941970	-0.375670	0.309303
H184	H	1.441970	0.124330	0.809303
C185	C	0.547371	-0.000110	-0.007212
C186	C	1.047371	0.499890	0.492788
H187	H	0.491829	-0.000103	-0.001436
H188	H	0.991829	0.499897	0.498564
H189	H	0.562848	-0.053702	-0.035352
H190	H	1.062848	0.446298	0.464648
H191	H	0.562858	0.053489	-0.035351
H192	H	1.062858	0.553489	0.464649
H193	H	0.706842	-0.000096	0.026042
H194	H	1.206842	0.499904	0.526042
H195	H	1.054770	-0.000132	-0.081563
H196	H	1.554770	0.499868	0.418437
C197	C	0.792597	-0.411148	0.207031
C198	C	1.292597	0.088852	0.707031
H199	H	0.758316	-0.462203	0.198853
H200	H	1.258316	0.037797	0.698853
H201	H	0.793993	-0.374557	0.160658
H202	H	1.293993	0.125443	0.660658
H203	H	0.774031	-0.374808	0.249509
H204	H	1.274031	0.125192	0.749509
H205	H	1.037888	-0.578247	0.250660
H206	H	1.537888	-0.078247	0.750660
C207	C	0.968571	-0.410157	0.018719
C208	C	1.468571	0.089843	0.518719
H209	H	1.006962	-0.370639	0.041963
H210	H	1.506962	0.129361	0.541963
H211	H	0.938967	-0.376714	-0.019538
H212	H	1.438967	0.123286	0.480462
H213	H	0.994012	-0.460829	-0.005797
H214	H	1.494012	0.039171	0.494203
H215	H	0.784703	-0.000067	-0.212936
H216	H	1.284703	0.499933	0.287064
H217	H	0.890036	-0.580627	0.287968
H218	H	1.390036	-0.080627	0.787968
C219	C	0.777314	-0.000078	-0.050660
C220	C	1.277314	0.499922	0.449340
H221	H	0.732040	-0.000079	-0.083995
H222	H	1.232040	0.499921	0.416005
H223	H	0.776947	0.053514	-0.018389
H224	H	1.276947	0.553514	0.481611
H225	H	0.776924	-0.053678	-0.018392
H226	H	1.276924	0.446322	0.481608
H227	H	1.066524	-0.579187	0.147548
H228	H	1.566524	-0.079187	0.647548
C229	C	1.082816	-0.411734	0.131550
C230	C	1.582816	0.088266	0.631550
H231	H	1.058810	-0.373272	0.092847
H232	H	1.558810	0.126728	0.592847
H233	H	1.106749	-0.463158	0.106652
H234	H	1.606749	0.036842	0.606652
H235	H	1.121701	-0.377518	0.159658
H236	H	1.621701	0.122482	0.659658
H237	H	0.539966	-0.000080	0.272133
H238	H	1.039966	0.499920	0.772133
C239	C	1.045075	-0.409903	0.270780
C240	C	1.545075	0.090097	0.770780
H241	H	1.095538	-0.433792	0.284227
H242	H	1.595538	0.066208	0.784227
H243	H	1.007986	-0.429224	0.308805
H244	H	1.507986	0.070776	0.808805
H245	H	1.047247	-0.344322	0.269701
H246	H	1.547247	0.155678	0.769701
C247	C	0.834339	-0.589947	0.054126
C248	C	1.334339	-0.089947	0.554126
H249	H	0.813149	-0.629609	0.093070
H250	H	1.313149	-0.129609	0.593070
H251	H	0.840511	-0.623313	0.006455
H252	H	1.340511	-0.123313	0.506455
H253	H	0.799604	-0.539440	0.045448
H254	H	1.299604	-0.039440	0.545448
