data_functionalizedCrystal
_audit_creation_method	'MofGen! by Chris Wilmer'
_symmetry_space_group_name_H-M	'P1'
_symmetry_Int_Tables_number	1
_symmetry_cell_setting	triclinic
loop_
_symmetry_equiv_pos_as_xyz
  x,y,z
_cell_length_a	17.038272
_cell_length_b	17.038272
_cell_length_c	15.186229
_cell_angle_alpha	90.000406
_cell_angle_beta	90.000221
_cell_angle_gamma	91.111556
loop_
_atom_site_label
_atom_site_type_symbol
_atom_site_fract_x
_atom_site_fract_y
_atom_site_fract_z
O1	O	1.048756	0.170532	0.073119
O2	O	0.820945	0.167824	0.073145
O3	O	0.933496	0.055272	0.073125
O4	O	0.936204	0.283083	0.073139
O5	O	0.933483	0.055278	-0.073332
O6	O	0.820931	0.167830	-0.073312
O7	O	1.048742	0.170538	-0.073338
Zn8	Zn	0.934834	0.169185	-0.096578
Zn9	Zn	0.934852	0.169177	0.096385
O10	O	0.936191	0.283089	-0.073318
C11	C	0.791645	0.165364	-0.000080
C12	C	0.704361	0.158016	-0.000071
C13	C	0.658752	0.225479	-0.000067
C14	C	0.576740	0.218570	-0.000080
C15	C	0.540339	0.144197	-0.000089
C16	C	0.585954	0.076728	-0.000095
C17	C	0.667965	0.083638	-0.000089
C18	C	0.292951	0.119787	-0.000114
C19	C	0.210935	0.112882	-0.000118
C20	C	0.201726	0.254725	-0.000104
C21	C	0.283739	0.261628	-0.000093
C22	C	0.329347	0.194159	-0.000103
C23	C	0.456510	0.137133	-0.000099
C24	C	0.413174	0.201224	-0.000099
C25	C	0.931027	0.025982	-0.000103
C26	C	0.923679	-0.061301	-0.000102
C27	C	0.991142	-0.106911	-0.000110
C28	C	0.984233	-0.188923	-0.000101
C29	C	0.909860	-0.225324	-0.000090
C30	C	0.842391	-0.179708	-0.000079
C31	C	0.849301	-0.097698	-0.000081
C32	C	0.885449	-0.472712	-0.000075
C33	C	0.878545	-0.554728	-0.000075
C34	C	1.020387	-0.563937	-0.000096
C35	C	1.027291	-0.481924	-0.000104
C36	C	0.959822	-0.436316	-0.000088
C37	C	0.902796	-0.309153	-0.000083
C38	C	0.966886	-0.352488	-0.000088
C39	C	1.078042	0.172997	-0.000111
C40	C	1.165326	0.180346	-0.000115
C41	C	0.938660	0.312379	-0.000088
C42	C	0.946008	0.399663	-0.000083
N43	N	0.934828	0.169190	-0.228271
C44	C	0.985639	0.220005	-0.453997
C45	C	0.985647	0.220000	-0.546186
C46	C	0.884051	0.118345	-0.546190
C47	C	0.884048	0.118347	-0.454002
C48	C	0.934840	0.169181	-0.407908
C49	C	0.934852	0.169174	-0.592285
C50	C	0.934861	0.169168	-0.692241
C51	C	0.934833	0.169186	-0.307945
N52	N	0.934865	0.169166	0.228078
H53	H	0.164583	0.309653	-0.000097
F54	F	0.829977	0.064251	-0.404948
H55	H	1.026998	0.261397	-0.416469
H56	H	1.051705	-0.077279	-0.000125
H57	H	0.830511	-0.435587	-0.000062
H58	H	1.087853	-0.452293	-0.000113
F59	F	0.697485	0.304638	-0.000051
H60	H	0.313370	0.322190	-0.000075
F61	F	0.172196	0.033720	-0.000144
H62	H	1.027441	-0.322847	-0.000078
F63	F	0.823644	-0.347901	-0.000067
H64	H	0.781835	-0.209353	-0.000064
H65	H	0.539608	0.273507	-0.000076
F66	F	0.829993	0.064251	-0.595255
F67	F	0.777497	-0.049157	-0.000070
H68	H	1.075316	-0.601079	-0.000107
F69	F	0.341480	0.047979	-0.000126
H70	H	1.027014	0.261385	-0.583708
H71	H	0.817978	-0.584363	-0.000080
F72	F	0.547212	-0.002426	-0.000111
F73	F	0.451917	0.280375	-0.000093
F74	F	0.716505	0.011834	-0.000096
H75	H	0.426863	0.076578	-0.000132
H76	H	1.039170	-0.226054	-0.000110
