data_functionalizedCrystal
_audit_creation_method	'MofGen! by Chris Wilmer'
_symmetry_space_group_name_H-M	'P1'
_symmetry_Int_Tables_number	1
_symmetry_cell_setting	triclinic
loop_
_symmetry_equiv_pos_as_xyz
  x,y,z
_cell_length_a	14.519709
_cell_length_b	19.288865
_cell_length_c	18.366186
_cell_angle_alpha	89.992400
_cell_angle_beta	89.992822
_cell_angle_gamma	83.408196
loop_
_atom_site_label
_atom_site_type_symbol
_atom_site_fract_x
_atom_site_fract_y
_atom_site_fract_z
O1	O	0.115045	0.921767	-0.060526
O2	O	0.130564	0.719562	-0.060533
O3	O	-0.011468	0.826025	-0.060523
O4	O	0.257077	0.815303	-0.060537
O5	O	-0.011475	0.826007	0.060576
O6	O	0.130557	0.719544	0.060566
O7	O	0.115038	0.921749	0.060573
Zn8	Zn	0.122797	0.820643	0.079797
Zn9	Zn	0.122806	0.820667	-0.079757
O10	O	0.257070	0.815285	0.060563
C11	C	-0.045828	0.825517	0.000027
C12	C	-0.148200	0.824019	0.000027
C13	C	0.115541	0.947636	0.000023
C14	C	0.117040	1.024745	0.000020
C15	C	0.130061	0.693675	0.000015
C16	C	0.128562	0.616566	0.000013
C17	C	-0.523061	0.818507	0.000008
C18	C	-0.418762	0.820037	0.000013
C19	C	-0.335633	0.821263	0.000018
C20	C	-0.231329	0.822794	0.000022
C21	C	0.291430	0.815794	0.000011
C22	C	0.393802	0.817291	0.000006
N23	N	0.122790	0.820632	0.188688
C24	C	0.033702	1.069141	0.000018
C25	C	0.035110	1.141593	0.000022
C26	C	0.119861	1.169646	0.000014
C27	C	0.203210	1.125240	0.000020
C28	C	0.201799	1.052789	0.000023
C29	C	0.186488	1.278169	-0.042420
C30	C	0.187895	1.350618	-0.042427
C31	C	0.124216	1.393107	0.000008
C32	C	0.059113	1.363139	0.042441
C33	C	0.057703	1.290688	0.042444
C34	C	0.121400	1.248205	0.000011
C35	C	0.042399	1.516065	0.000011
C36	C	0.043811	1.588518	0.000020
C37	C	0.211913	1.572163	0.000011
C38	C	0.210499	1.499711	0.000009
C39	C	0.125739	1.471667	0.000006
N40	N	0.122805	0.820684	-0.188648
C41	C	0.059929	0.867790	0.226793
C42	C	0.059925	0.867794	0.303021
C43	C	0.122797	0.820647	0.341140
C44	C	0.185663	0.773481	0.303026
C45	C	0.185659	0.773473	0.226800
C46	C	0.206826	0.811652	0.461896
C47	C	0.206831	0.811664	0.538121
C48	C	0.122809	0.820667	0.576248
C49	C	0.038778	0.829672	0.538140
C50	C	0.038775	0.829665	0.461914
C51	C	0.122808	0.820650	0.423795
C52	C	0.059938	0.867832	0.697008
C53	C	0.059933	0.867832	0.773237
C54	C	0.185679	0.773522	0.773241
C55	C	0.185677	0.773519	0.697014
C56	C	0.122807	0.820678	0.658901
H57	H	-0.035316	1.046313	0.000018
N58	N	-0.007863	0.918701	0.814343
H59	H	0.027292	0.949487	0.845957
H60	H	-0.048594	0.892068	0.845940
N61	N	0.297459	0.801948	0.579218
H62	H	0.299610	0.758961	0.610856
H63	H	0.302745	0.844174	0.610790
H64	H	0.272215	1.148085	0.000015
N65	N	-0.054779	1.189490	0.000021
H66	H	-0.108686	1.160730	0.000021
H67	H	-0.057843	1.219908	-0.044874
H68	H	0.269665	1.016641	0.000026
H69	H	0.008734	0.906197	0.334051
N70	N	0.297455	0.801942	0.420777
H71	H	0.350686	0.796246	0.456483
H72	H	0.302690	0.844141	0.389141
N73	N	-0.051849	0.839374	0.420811
H74	H	-0.105080	0.845080	0.456525
H75	H	-0.057090	0.797170	0.389196
H76	H	0.008743	0.906230	0.665976
N77	N	0.303329	1.602403	-0.000006
H78	H	0.339828	1.586215	0.044883
H79	H	0.291508	1.655033	-0.000036
H80	H	0.236868	0.735132	0.804278
H81	H	0.236868	0.735122	0.665987
N82	N	-0.051857	0.839400	0.579246
H83	H	-0.090190	0.800753	0.565993
H84	H	-0.086910	0.885952	0.565946
N85	N	0.253472	0.722626	0.344136
H86	H	0.243938	0.729787	0.398208
H87	H	0.318870	0.730723	0.330800
N88	N	-0.007880	0.918649	0.185686
H89	H	-0.047705	0.948524	0.221397
H90	H	-0.048566	0.892008	0.154073
N91	N	0.253459	0.722606	0.185696
H92	H	0.293287	0.692736	0.221408
H93	H	0.294141	0.749240	0.154057
H94	H	0.004696	1.266291	0.076997
H95	H	-0.026618	1.493230	0.000012
N96	N	-0.009581	1.408955	0.088211
H97	H	0.001190	1.459399	0.081774
H98	H	-0.001211	1.395445	0.141130
H99	H	0.278362	1.463563	0.000006
N100	N	-0.046080	1.636407	0.000029
H101	H	-0.099984	1.607644	0.000028
H102	H	-0.049152	1.666832	-0.044862
H103	H	0.240898	1.375013	-0.076985
N104	N	0.255183	1.232344	-0.088184
H105	H	0.296633	1.262320	-0.115068
H106	H	0.220669	1.205585	-0.124421
