data_functionalizedCrystal
_audit_creation_method	'MofGen! by Chris Wilmer'
_symmetry_space_group_name_H-M	'P1'
_symmetry_Int_Tables_number	1
_symmetry_cell_setting	triclinic
loop_
_symmetry_equiv_pos_as_xyz
  x,y,z
_cell_length_a	16.109295
_cell_length_b	8.965430
_cell_length_c	16.109304
_cell_angle_alpha	89.996769
_cell_angle_beta	96.539088
_cell_angle_gamma	89.999123
loop_
_atom_site_label
_atom_site_type_symbol
_atom_site_fract_x
_atom_site_fract_y
_atom_site_fract_z
O1	O	-1.103136	0.123928	0.106839
O2	O	-0.861073	0.123952	0.120143
O3	O	-0.988753	0.123941	-0.007540
O4	O	-0.975456	0.123940	0.234522
O5	O	-0.988742	-0.124138	-0.007532
O6	O	-0.861062	-0.124126	0.120151
O7	O	-1.103125	-0.124151	0.106847
Cu8	Cu	-0.982093	-0.146790	0.113500
Cu9	Cu	-0.982105	0.146592	0.113490
O10	O	-0.975445	-0.124139	0.234530
C11	C	-0.830093	-0.000084	0.119609
C12	C	-0.737797	-0.000074	0.117996
C13	C	-0.515525	-0.000090	0.190008
C14	C	-0.428804	-0.000099	0.188485
C15	C	-0.448677	-0.000093	0.036996
C16	C	-0.535396	-0.000094	0.038520
C17	C	-0.568818	-0.000086	0.115028
C18	C	-0.395378	-0.000093	0.111982
C19	C	-0.301352	-0.000103	0.110331
C20	C	-0.662850	-0.000079	0.116679
N21	N	-0.982090	-0.353139	0.113506
C22	C	-0.923024	-0.450440	0.172536
C23	C	-0.998150	-0.549861	0.188647
C24	C	-0.906996	-0.549845	0.097403
C25	C	-1.057254	-0.450372	0.129655
C26	C	-0.966050	-0.450347	0.038378
C27	C	-1.041230	-0.549724	0.054456
C28	C	-0.134105	-0.000109	0.107386
C29	C	-0.226398	-0.000104	0.109014
C30	C	-0.988209	-0.000095	-0.038511
C31	C	-0.986592	-0.000085	-0.130806
N32	N	-0.982115	0.352941	0.113477
C33	C	-0.982865	0.135138	-0.343148
C34	C	-0.981339	0.135136	-0.429868
C35	C	-0.981331	-0.135333	-0.429856
C36	C	-0.982851	-0.135330	-0.343137
C37	C	-0.983622	-0.000090	-0.299785
C38	C	-0.980576	-0.000095	-0.473225
C39	C	-0.978921	-0.000097	-0.567251
C40	C	-0.985275	-0.000088	-0.205753
C41	C	-0.975990	-0.000099	0.265501
C42	C	-0.977606	-0.000100	0.357796
H43	H	-0.421455	-0.000109	-0.025294
C44	C	-0.370183	-0.000097	0.270961
H45	H	-0.313748	-0.000112	0.259100
H46	H	-0.380312	0.086414	0.302329
H47	H	-0.380313	-0.086618	0.302334
C48	C	-0.594022	-0.000083	-0.043962
H49	H	-0.561699	-0.000066	-0.089746
H50	H	-0.628264	-0.086592	-0.046516
H51	H	-0.628263	0.086440	-0.046514
H52	H	-0.983463	-0.245456	-0.307829
C53	C	-0.552287	-0.000096	0.274162
H54	H	-0.508124	-0.000114	0.318599
H55	H	-0.585704	0.086413	0.277908
H56	H	-0.585700	-0.086620	0.277905
C57	C	-0.855613	-0.391526	0.240030
H58	H	-0.867161	-0.425601	0.293367
H59	H	-0.802365	-0.427044	0.229126
H60	H	-0.855742	-0.285573	0.239244
H61	H	-0.843480	-0.593544	0.083795
H62	H	-0.980705	-0.245440	-0.465163
C63	C	-0.980514	0.283887	-0.477565
H64	H	-0.981198	0.364425	-0.439324
H65	H	-0.931467	0.289522	-0.505040
H66	H	-1.028382	0.289497	-0.517748
C67	C	-1.108791	-0.608263	-0.012998
H68	H	-1.162087	-0.574018	-0.001429
H69	H	-1.097841	-0.572683	-0.066220
H70	H	-1.108135	-0.714219	-0.012945
H71	H	-1.011734	-0.593571	0.252169
H72	H	-0.952442	-0.406602	-0.025124
C73	C	-1.143074	-0.391605	0.148150
H74	H	-1.142532	-0.285643	0.148079
H75	H	-1.185060	-0.426390	0.106458
H76	H	-1.154567	-0.426507	0.201340
H77	H	-0.983490	0.245258	-0.307854
