data_functionalizedCrystal
_audit_creation_method	'MofGen! by Chris Wilmer'
_symmetry_space_group_name_H-M	'P1'
_symmetry_Int_Tables_number	1
_symmetry_cell_setting	triclinic
loop_
_symmetry_equiv_pos_as_xyz
  x,y,z
_cell_length_a	10.489741
_cell_length_b	19.188930
_cell_length_c	8.965430
_cell_angle_alpha	89.995304
_cell_angle_beta	89.998843
_cell_angle_gamma	83.841978
loop_
_atom_site_label
_atom_site_type_symbol
_atom_site_fract_x
_atom_site_fract_y
_atom_site_fract_z
O1	O	1.691851	0.098497	-0.123966
O2	O	1.320449	0.107743	-0.123991
O3	O	1.516868	0.001536	-0.123949
O4	O	1.495432	0.204704	-0.124008
O5	O	1.516851	0.001543	0.124130
O6	O	1.320432	0.107750	0.124088
O7	O	1.691834	0.098504	0.124113
Cu8	Cu	1.506132	0.103128	0.146752
Cu9	Cu	1.506151	0.103120	-0.146630
O10	O	1.495415	0.204711	0.124070
C11	C	1.272924	0.107048	0.000046
C12	C	1.131341	0.104959	0.000037
C13	C	1.516165	-0.024476	0.000095
C14	C	1.514081	-0.101994	0.000108
C15	C	1.064712	0.037383	0.000071
C16	C	0.971880	0.069302	-0.122251
C17	C	0.971897	0.069325	0.122336
C18	C	1.040374	0.136906	-0.122386
C19	C	1.040401	0.136919	0.122310
C20	C	0.947595	0.168887	-0.000041
C21	C	1.629334	-0.146146	0.000123
C22	C	1.627376	-0.218983	0.000099
C23	C	1.510159	-0.247665	0.000090
C24	C	1.394892	-0.203503	0.000066
C25	C	1.396853	-0.130668	0.000075
N26	N	1.420556	-0.356268	0.084510
N27	N	1.418701	-0.425459	0.084504
C28	C	1.504244	-0.467113	0.000059
N29	N	1.591732	-0.436964	-0.084362
N30	N	1.593591	-0.367767	-0.084350
C31	C	1.508020	-0.326642	0.000079
C32	C	1.617382	-0.590244	0.000046
C33	C	1.615419	-0.663081	0.000012
C34	C	1.382932	-0.647600	-0.000005
C35	C	1.384898	-0.574764	0.000013
C36	C	1.502126	-0.546090	0.000046
C37	C	1.739359	0.099199	0.000073
C38	C	1.880941	0.101288	0.000071
C39	C	1.496118	0.230723	0.000023
C40	C	1.498202	0.308242	0.000001
N41	N	1.506127	0.103133	0.353101
N42	N	1.506166	0.103109	-0.352979
C43	C	1.415262	0.152234	0.450387
C44	C	1.530443	0.166361	0.549804
C45	C	1.390995	0.089012	0.549812
C46	C	1.621366	0.117292	0.450329
C47	C	1.481842	0.039916	0.450328
C48	C	1.597106	0.054016	0.549700
H49	H	0.941512	0.040706	-0.225651
O50	O	1.076718	0.171109	0.245510
C51	C	1.177369	0.268972	0.341439
C52	C	1.136275	0.230339	0.201777
H53	H	1.225554	0.316859	0.306130
H54	H	1.089396	0.286371	0.412222
H55	H	1.247665	0.232251	0.409370
H56	H	1.066010	0.267020	0.133730
H57	H	1.224310	0.212929	0.131105
H58	H	0.896927	0.224498	-0.000124
O59	O	1.272823	-0.531971	0.000084
C60	C	1.042024	-0.524305	-0.000018
C61	C	1.168860	-0.572848	-0.000059
H62	H	0.957938	-0.557334	-0.000166
H63	H	1.037037	-0.489839	0.103832
H64	H	1.037207	-0.489796	-0.103809
H65	H	1.173762	-0.607400	0.103662
H66	H	1.173795	-0.607266	-0.103978
H67	H	1.293614	0.077080	0.593514
O68	O	1.731169	-0.562300	-0.000141
C69	C	1.868336	-0.489070	-0.128688
C70	C	1.739417	-0.520654	-0.128642
H71	H	1.875057	-0.455404	-0.232585
H72	H	1.875081	-0.455320	-0.024930
H73	H	1.950358	-0.533151	-0.128624
H74	H	1.657320	-0.476618	-0.128758
H75	H	1.732783	-0.554422	-0.232391
H76	H	0.941552	0.040722	0.225750
H77	H	1.338490	0.193796	0.406782
O78	O	1.737642	0.131499	0.398462
C79	C	1.965060	0.096229	0.391400
C80	C	1.833474	0.080040	0.450241
H81	H	2.042579	0.054643	0.433266
H82	H	1.964125	0.096110	0.264246
H83	H	1.985896	0.149957	0.433215
H84	H	1.812555	0.026311	0.408537
H85	H	1.834475	0.080206	0.577393
O86	O	1.269145	-0.675534	-0.000217
C87	C	1.131982	-0.748736	-0.128821
C88	C	1.260907	-0.717158	-0.128739
H89	H	1.125269	-0.782383	-0.232735
H90	H	1.125219	-0.782502	-0.025080
H91	H	1.049966	-0.704651	-0.128751
H92	H	1.342998	-0.761197	-0.128861
H93	H	1.267559	-0.683373	-0.232471
H94	H	1.674048	0.012481	0.593031
H95	H	1.461239	-0.013519	0.406599
O96	O	1.739302	-0.261912	-0.000141
C97	C	1.871987	-0.353161	-0.128583
C98	C	1.745201	-0.304575	-0.128519
H99	H	1.876786	-0.387677	-0.232350
H100	H	1.956160	-0.320191	-0.128656
H101	H	1.876837	-0.387618	-0.024713
H102	H	1.740226	-0.270109	-0.232371
H103	H	1.661088	-0.337586	-0.128369
O104	O	1.743317	-0.118409	0.000078
C105	C	1.973701	-0.141454	0.000202
C106	C	1.844706	-0.172961	0.000218
H107	H	2.055708	-0.185544	0.000347
H108	H	1.980533	-0.107761	-0.103638
H109	H	1.980350	-0.107723	0.104003
H110	H	1.837970	-0.206723	-0.103512
H111	H	1.837929	-0.206613	0.104127
O112	O	1.076611	0.170939	-0.245859
C113	C	1.251534	0.211128	-0.384350
C114	C	1.210671	0.172561	-0.244474
H115	H	1.359919	0.212465	-0.383260
H116	H	1.222832	0.182512	-0.488503
H117	H	1.202074	0.267009	-0.384786
H118	H	1.260110	0.116679	-0.243893
H119	H	1.239349	0.201231	-0.140383
H120	H	1.299453	-0.226861	0.000056
O121	O	1.727500	-0.705873	0.000092
C122	C	1.958298	-0.713538	0.000051
C123	C	1.831461	-0.664996	-0.000005
H124	H	2.042383	-0.680509	-0.000060
H125	H	1.963264	-0.748020	0.103888
H126	H	1.963137	-0.748031	-0.103753
H127	H	1.826537	-0.630460	0.103728
H128	H	1.826548	-0.630562	-0.103912
O129	O	1.284807	-0.087847	-0.000129
C130	C	1.086752	-0.052288	-0.128711
C131	C	1.213583	-0.100836	-0.128651
H132	H	1.029144	-0.062762	-0.232625
H133	H	1.028947	-0.062808	-0.024970
H134	H	1.108320	0.004690	-0.128623
H135	H	1.192131	-0.157830	-0.128792
H136	H	1.271350	-0.090255	-0.232383
H137	H	1.551010	0.219812	0.593498
H138	H	1.115644	-0.018169	-0.000065
