data_functionalizedCrystal
_audit_creation_method	'MofGen! by Chris Wilmer'
_symmetry_space_group_name_H-M	'P1'
_symmetry_Int_Tables_number	1
_symmetry_cell_setting	triclinic
loop_
_symmetry_equiv_pos_as_xyz
  x,y,z
_cell_length_a	27.731994
_cell_length_b	27.732048
_cell_length_c	11.804365
_cell_angle_alpha	101.725897
_cell_angle_beta	78.260320
_cell_angle_gamma	82.631595
loop_
_atom_site_label
_atom_site_type_symbol
_atom_site_fract_x
_atom_site_fract_y
_atom_site_fract_z
O1	O	0.650767	0.047573	-0.098865
O2	O	0.509974	0.056342	-0.098906
O3	O	0.584741	-0.018438	-0.098862
O4	O	0.576000	0.122353	-0.098910
O5	O	0.565058	0.001229	0.099183
O6	O	0.490291	0.076009	0.099138
O7	O	0.631084	0.067240	0.099179
Cu8	Cu	0.558890	0.073420	0.117242
Cu9	Cu	0.582168	0.050162	-0.116969
O10	O	0.556317	0.142020	0.099135
C11	C	0.482126	0.065995	0.000111
C12	C	0.428471	0.065451	0.000096
C13	C	0.085018	0.072760	0.108097
C14	C	-0.116641	0.070700	0.108111
O15	O	-0.151839	0.079530	0.199922
N16	N	-0.131127	0.059724	0.000158
C17	C	-0.095193	0.049258	-0.107807
O18	O	-0.112141	0.039870	-0.199628
C19	C	0.106466	0.051315	-0.107820
C20	C	0.120947	0.062297	0.000140
C21	C	0.099501	0.083741	0.216049
C22	C	0.149912	0.084259	0.216044
C23	C	0.185842	0.073796	0.108088
C24	C	0.171359	0.062815	0.000136
C25	C	0.142399	0.040847	-0.215784
C26	C	0.192816	0.041361	-0.215778
C27	C	0.207298	0.052343	-0.107817
C28	C	0.257700	0.052869	-0.107826
N29	N	0.272185	0.063846	0.000128
C30	C	0.236256	0.074309	0.108085
C31	C	-0.201068	0.048180	-0.107793
C32	C	-0.251483	0.047667	-0.107790
C33	C	-0.272927	0.069108	0.108129
C34	C	-0.222512	0.069625	0.108125
C35	C	-0.186582	0.059157	0.000161
C36	C	0.342125	0.075396	0.108067
C37	C	0.392542	0.075914	0.108053
C38	C	0.413982	0.054471	-0.107866
C39	C	0.363569	0.053955	-0.107852
C40	C	0.327641	0.064416	0.000124
O41	O	0.292924	0.044039	-0.199588
O42	O	0.253215	0.083685	0.199892
C43	C	0.034607	0.072243	0.108102
C44	C	0.020124	0.061262	0.000150
C45	C	0.056053	0.050799	-0.107807
C46	C	-0.030291	0.060749	0.000153
C47	C	-0.066220	0.071212	0.108109
C48	C	-0.051734	0.082188	0.216063
C49	C	-0.001322	0.082706	0.216058
C50	C	0.041568	0.039823	-0.215761
C51	C	-0.008845	0.039307	-0.215747
C52	C	-0.044774	0.049770	-0.107791
C53	C	0.574716	-0.026611	0.000164
C54	C	0.574162	-0.080264	0.000173
C55	C	0.614872	-0.419092	0.000124
C56	C	0.612822	-0.620753	0.000107
O57	O	0.650048	-0.652020	0.000066
N58	N	0.568487	-0.639870	0.000095
C59	C	0.524662	-0.608568	0.000080
O60	O	0.486906	-0.629456	0.000057
C61	C	0.526712	-0.406909	0.000088
C62	C	0.571049	-0.387794	0.000112
C63	C	0.659205	-0.399977	0.000147
C64	C	0.659716	-0.349565	0.000158
C65	C	0.615894	-0.318267	0.000146
C66	C	0.571561	-0.337381	0.000123
C67	C	0.482889	-0.375609	0.000064
C68	C	0.483406	-0.325192	0.000063
C69	C	0.527742	-0.306077	0.000087
C70	C	0.528250	-0.255670	0.000122
N71	N	0.572585	-0.236554	0.000134
C72	C	0.616407	-0.267852	0.000146
C73	C	0.523588	-0.714442	0.000077
C74	C	0.523075	-0.764856	0.000077
C75	C	0.611236	-0.777038	0.000102
C76	C	0.611748	-0.726622	0.000111
C77	C	0.567923	-0.695326	0.000089
C78	C	0.617477	-0.161981	0.000169
C79	C	0.617984	-0.111562	0.000185
C80	C	0.529824	-0.099385	0.000154
C81	C	0.529316	-0.149799	0.000144
C82	C	0.573147	-0.181096	0.000148
O83	O	0.491045	-0.224376	0.000150
O84	O	0.654160	-0.246957	0.000142
C85	C	0.614360	-0.469505	0.000113
C86	C	0.570027	-0.488620	0.000091
C87	C	0.526205	-0.457322	0.000079
C88	C	0.569514	-0.539034	0.000091
C89	C	0.613336	-0.570333	0.000103
C90	C	0.657671	-0.551216	0.000114
C91	C	0.658183	-0.500803	0.000125
C92	C	0.481870	-0.476438	0.000067
C93	C	0.481362	-0.526852	0.000057
C94	C	0.525184	-0.558150	0.000069
C95	C	0.658933	0.057587	0.000160
C96	C	0.712588	0.058130	0.000167
C97	C	0.566343	0.150193	0.000107
C98	C	0.566897	0.203846	0.000089
N99	N	0.542522	0.089779	0.281972
N100	N	0.598540	0.033800	-0.281699
C101	C	0.637848	-0.005492	0.655978
C102	C	0.650230	-0.017869	0.531324
C103	C	0.623304	0.009042	0.468980
C104	C	0.583993	0.048332	0.531302
C105	C	0.571612	0.060713	0.655969
C106	C	0.557068	0.075246	0.468971
C107	C	0.517758	0.114537	0.531293
C108	C	0.505379	0.126915	0.655947
C109	C	0.532305	0.100005	0.718291
C110	C	0.569450	0.062866	0.344304
C111	C	0.503214	0.129070	0.344295
C112	C	0.490832	0.141448	0.468949
H113	H	0.010463	0.091649	0.303971
H114	H	0.654090	-0.096002	0.000208
C115	C	0.704671	-0.168943	0.000212
C116	C	0.665655	-0.196377	0.000184
H117	H	0.734411	-0.190177	0.000234
H118	H	0.709899	-0.155881	-0.068845
H119	H	0.696163	-0.142170	0.069280
H120	H	0.674162	-0.223148	-0.068889
H121	H	0.660427	-0.209447	0.069248
H122	H	0.694286	-0.485245	0.000144
H123	H	0.481289	0.150985	0.293535
H124	H	0.633387	-0.001038	0.367481
C125	C	0.417671	0.159704	0.694339
C126	C	0.462171	0.170106	0.724454
H127	H	0.390997	0.186368	0.736638
H128	H	0.421193	0.156185	0.611186
H129	H	0.410641	0.129509	0.714792
H130	H	0.469204	0.200300	0.703994
H131	H	0.458650	0.173631	0.807627
H132	H	0.486969	-0.780412	0.000078
H133	H	0.493210	-0.165359	0.000158
C134	C	0.416183	-0.542083	-0.101794
C135	C	0.432622	-0.547859	0.000027
H136	H	0.386097	-0.555055	-0.101822
H137	H	0.410220	-0.507580	-0.101775
H138	H	0.441081	-0.559703	-0.170839
H139	H	0.407726	-0.530236	0.069073
H140	H	0.438583	-0.582368	0.000020
H141	H	0.404328	0.084859	0.195971
H142	H	0.446184	-0.450960	0.000055
H143	H	0.458825	0.173439	0.519708
C144	C	0.746394	-0.406939	0.000193
C145	C	0.707379	-0.434374	0.000170
H146	H	0.776135	-0.428171	0.000222
H147	H	0.751623	-0.393880	-0.068869
H148	H	0.737884	-0.380163	0.069256
H149	H	0.715887	-0.461148	-0.068898
H150	H	0.702150	-0.447441	0.069240
H151	H	0.522222	0.110080	0.819795
H152	H	0.601456	0.030876	0.293572
H153	H	-0.210725	0.078568	0.196036
H154	H	0.447718	-0.299712	0.000044
H155	H	0.070818	0.031301	-0.303674
H156	H	-0.080997	0.090710	0.303965
C157	C	0.696024	-0.633913	0.000101
C158	C	0.705843	-0.585627	0.000119
H159	H	0.725763	-0.655158	0.000091
H160	H	0.670970	-0.632815	0.069156
H161	H	0.684688	-0.646515	-0.068970
H162	H	0.717175	-0.573023	0.069195
H163	H	0.730905	-0.586723	-0.068943
C164	C	0.036117	0.054036	0.341367
C165	C	0.060014	0.095243	0.334732
H166	H	0.011744	0.061140	0.414647
H167	H	0.020267	0.047431	0.277099
H168	H	0.060133	0.025595	0.336875
H169	H	0.035998	0.123684	0.339215
H170	H	0.075863	0.101854	0.399019
H171	H	0.312877	0.083919	0.195991
C172	C	0.696338	-0.813055	-0.101699
C173	C	0.659409	-0.811447	0.000106
H174	H	0.726077	-0.834296	-0.101698
H175	H	0.684999	-0.825665	-0.170748
H176	H	0.702987	-0.780292	-0.101682
H177	H	0.652757	-0.844209	0.000084
H178	H	0.670749	-0.798839	0.069172
H179	H	0.695820	-0.334007	0.000172
C180	C	0.123637	0.105393	0.429464
C181	C	0.165827	0.096323	0.334720
H182	H	0.133461	0.112837	0.502732
H183	H	0.100525	0.132944	0.424963
H184	H	0.108319	0.076545	0.424961
H185	H	0.181143	0.125173	0.339218
H186	H	0.188948	0.068770	0.339223
H187	H	0.647851	-0.711063	0.000130
C188	C	0.663041	-0.085558	0.694405
C189	C	0.667438	-0.035071	0.724511
H190	H	0.681312	-0.103820	0.736713
H191	H	0.628793	-0.088544	0.714841
H192	H	0.676045	-0.098552	0.611244
H193	H	0.654431	-0.022076	0.807672
H194	H	0.701693	-0.032082	0.704084
H195	H	-0.263269	0.038732	-0.195703
C196	C	-0.359731	0.077825	0.203988
C197	C	-0.312426	0.080600	0.226798
H198	H	-0.384115	0.084913	0.277246
H199	H	-0.367485	0.101539	0.159645
H200	H	-0.359677	0.045138	0.159618
H201	H	-0.312480	0.113289	0.271161
H202	H	-0.304670	0.056885	0.271160
H203	H	-0.171817	0.039655	-0.195715
H204	H	0.682236	-0.049859	0.480585
H205	H	0.446786	-0.391163	0.000038
C206	C	0.168683	0.019686	-0.429202
C207	C	0.126491	0.028766	-0.334461
H208	H	0.158863	0.012222	-0.502471
H209	H	0.183998	0.048531	-0.424730
H210	H	0.191799	-0.007862	-0.424666
H211	H	0.103377	0.056316	-0.338991
H212	H	0.111169	-0.000082	-0.338935
C213	C	0.436392	-0.707474	0.000070
C214	C	0.475410	-0.680043	0.000071
H215	H	0.406648	-0.686236	0.000078
H216	H	0.444889	-0.734242	-0.068991
H217	H	0.431172	-0.720539	0.069135
H218	H	0.480633	-0.666980	-0.068999
H219	H	0.466911	-0.653265	0.069138
H220	H	-0.020630	0.030367	-0.303669
H221	H	0.222069	0.032836	-0.303697
H222	H	0.351777	0.045020	-0.195763
H223	H	0.494145	-0.073893	0.000148
C224	C	0.500789	0.045736	-0.203720
C225	C	0.453482	0.042966	-0.226528
H226	H	0.525175	0.038627	-0.276979
H227	H	0.500743	0.078423	-0.159389
H228	H	0.508533	0.022029	-0.159338
H229	H	0.445736	0.066676	-0.270903
H230	H	0.453527	0.010275	-0.270878
