data_functionalizedCrystal
_audit_creation_method	'MofGen! by Chris Wilmer'
_symmetry_space_group_name_H-M	'P1'
_symmetry_Int_Tables_number	1
_symmetry_cell_setting	triclinic
loop_
_symmetry_equiv_pos_as_xyz
  x,y,z
_cell_length_a	8.559649
_cell_length_b	16.992695
_cell_length_c	16.053802
_cell_angle_alpha	87.258926
_cell_angle_beta	92.218455
_cell_angle_gamma	80.223444
loop_
_atom_site_label
_atom_site_type_symbol
_atom_site_fract_x
_atom_site_fract_y
_atom_site_fract_z
O1	O	-2.123027	0.030075	-0.069415
O2	O	-1.662955	-0.010109	-0.069420
O3	O	-1.891146	0.124014	-0.069411
O4	O	-1.894836	-0.104048	-0.069424
O5	O	-1.878582	0.116659	0.069448
O6	O	-1.650391	-0.017465	0.069438
O7	O	-2.110463	0.022720	0.069444
Zn8	Zn	-1.878433	0.001460	0.091488
Zn9	Zn	-1.894986	0.011151	-0.091464
O10	O	-1.882272	-0.111404	0.069434
C11	C	-1.597532	-0.016833	0.000009
C12	C	-1.421310	-0.025897	0.000007
C13	C	-2.175886	0.029443	0.000013
C14	C	-2.352109	0.038508	0.000009
C15	C	-1.880119	0.149263	0.000018
C16	C	-1.865961	0.235455	0.000018
C17	C	-1.893299	-0.136653	0.000004
C18	C	-1.907458	-0.222844	-0.000002
N19	N	-1.867147	-0.005153	0.216348
C20	C	-2.002568	0.293921	0.000020
C21	C	-1.989256	0.374907	0.000012
C22	C	-1.839335	0.397424	0.000008
C23	C	-1.702718	0.338950	0.000003
C24	C	-1.716032	0.257967	0.000005
C25	C	-1.784155	0.637699	-0.000004
C26	C	-1.770851	0.718689	-0.000004
C27	C	-2.057391	0.754641	0.000004
C28	C	-2.070691	0.673654	0.000011
C29	C	-1.934074	0.615188	0.000002
N30	N	-1.825724	0.480203	0.000002
N31	N	-1.947687	0.532410	0.000001
N32	N	-1.906283	0.017770	-0.216324
C33	C	-1.964283	0.051901	0.260045
C34	C	-1.956404	0.047269	0.347452
C35	C	-1.851396	-0.014421	0.391159
C36	C	-1.754250	-0.071478	0.347455
C37	C	-1.762122	-0.066842	0.260050
C38	C	-1.817009	-0.034650	0.652567
C39	C	-1.809147	-0.039284	0.739978
C40	C	-2.011300	0.079465	0.739969
C41	C	-2.019169	0.084093	0.652563
C42	C	-1.922017	0.027038	0.608866
N43	N	-1.843344	-0.019159	0.480502
N44	N	-1.930062	0.031780	0.519524
H45	H	-1.427680	0.100583	0.000009
H46	H	-1.345732	-0.087976	-0.000001
H47	H	-2.104675	0.134326	0.616978
H48	H	-2.049798	0.102133	0.224465
H49	H	-2.090395	0.125917	0.775555
C50	C	-1.605919	0.743454	-0.000015
N51	N	-1.481699	0.762108	-0.000024
H52	H	-2.124650	0.275596	0.000029
H53	H	-1.737906	-0.081108	0.616997
H54	H	-2.100497	0.422508	0.000016
C55	C	-1.638724	-0.139332	0.395536
N56	N	-1.551708	-0.190440	0.431750
C57	C	-2.063222	0.110050	0.395516
N58	N	-2.143666	0.157345	0.431717
H59	H	-1.723633	-0.089523	0.775560
H60	H	-2.192773	0.655328	0.000015
H61	H	-1.683021	-0.113301	0.224472
H62	H	-1.672911	0.590105	-0.000012
C63	C	-1.537801	0.363721	0.000005
N64	N	-1.413583	0.382377	0.000013
H65	H	-1.604791	0.210363	0.000003
H66	H	-2.168616	0.802251	0.000010
