data_functionalizedCrystal
_audit_creation_method	'MofGen! by Chris Wilmer'
_symmetry_space_group_name_H-M	'P1'
_symmetry_Int_Tables_number	1
_symmetry_cell_setting	triclinic
loop_
_symmetry_equiv_pos_as_xyz
  x,y,z
_cell_length_a	12.811445
_cell_length_b	12.837942
_cell_length_c	11.892095
_cell_angle_alpha	94.302569
_cell_angle_beta	80.666316
_cell_angle_gamma	89.412982
loop_
_atom_site_label
_atom_site_type_symbol
_atom_site_fract_x
_atom_site_fract_y
_atom_site_fract_z
O1	O	1.422082	0.122881	-0.239776
O2	O	1.115997	0.140266	-0.208402
O3	O	1.262252	-0.019309	-0.223386
O4	O	1.275827	0.282456	-0.224791
O5	O	1.250056	-0.006025	-0.034129
O6	O	1.103800	0.153550	-0.019145
O7	O	1.409886	0.136166	-0.050519
Zn8	Zn	1.254907	0.146967	-0.004783
Zn9	Zn	1.270976	0.129464	-0.254137
O10	O	1.263631	0.295741	-0.035534
C11	C	1.070449	0.146340	-0.109730
C12	C	0.952901	0.144634	-0.097681
C13	C	0.745309	0.126965	-0.281389
C14	C	0.634862	0.125363	-0.270073
C15	C	0.621557	0.139835	-0.063734
C16	C	0.732004	0.141437	-0.075050
C17	C	0.793877	0.135000	-0.183881
C18	C	0.904326	0.136595	-0.195196
C19	C	0.891019	0.151075	0.011142
C20	C	0.780572	0.149473	0.022458
C21	C	1.251568	-0.051274	-0.128288
C22	C	1.237892	-0.166312	-0.126888
C23	C	1.402308	-0.407747	-0.143764
C24	C	1.389463	-0.515836	-0.142450
C25	C	1.199358	-0.490581	-0.122952
C26	C	1.212203	-0.382493	-0.124267
C27	C	1.313681	-0.341080	-0.134672
C28	C	1.326525	-0.232988	-0.135978
C29	C	1.136421	-0.207736	-0.116489
C30	C	1.123576	-0.315825	-0.115174
C31	C	1.455434	0.130091	-0.149193
C32	C	1.572983	0.131796	-0.161249
C33	C	1.274315	0.327705	-0.130635
C34	C	1.287991	0.442743	-0.132042
N35	N	1.243947	0.158912	0.165394
N36	N	1.281943	0.117511	-0.424315
C37	C	1.358197	0.034335	0.390337
C38	C	1.350545	0.042692	0.509462
C39	C	1.220986	0.183977	0.522774
C40	C	1.228638	0.175620	0.403648
C41	C	1.297247	0.100798	0.337433
C42	C	1.304904	0.092446	0.218305
C43	C	1.175340	0.233726	0.231619
C44	C	1.167688	0.242083	0.350745
H45	H	0.930574	0.157616	0.090540
H46	H	1.409153	-0.199272	-0.144446
O47	O	0.805528	0.120854	-0.387039
C48	C	0.934973	0.204045	-0.519286
C49	C	0.866854	0.211088	-0.399595
H50	H	0.984555	0.276998	-0.529485
H51	H	0.989455	0.131976	-0.530001
H52	H	0.881271	0.197971	-0.587019
H53	H	0.920474	0.217202	-0.331790
H54	H	0.812362	0.283143	-0.388978
H55	H	0.954701	0.131354	-0.283812
O56	O	1.100720	-0.530652	-0.112903
C57	C	0.913512	-0.494208	-0.093660
C58	C	1.025160	-0.448690	-0.105055
H59	H	0.852390	-0.427962	-0.087287
H60	H	0.907794	-0.549691	-0.171783
H61	H	0.897694	-0.538674	-0.013386
H62	H	1.041051	-0.404173	-0.185283
H63	H	1.030823	-0.393262	-0.026875
O64	O	1.154398	0.256778	0.586968
C65	C	1.108277	0.439676	0.627982
C66	C	1.183755	0.357340	0.555189
H67	H	1.131998	0.521000	0.602332
H68	H	1.023750	0.424803	0.613363
H69	H	1.113248	0.434174	0.722210
H70	H	1.178877	0.362794	0.460937
H71	H	1.268249	0.372239	0.569905
O72	O	1.409701	-0.022019	0.560736
C73	C	1.451089	-0.199806	0.592745
C74	C	1.384047	-0.126637	0.534593
H75	H	1.430357	-0.284403	0.571650
H76	H	1.538635	-0.188239	0.560462
H77	H	1.433856	-0.180930	0.689254
H78	H	1.401189	-0.145467	0.438078
H79	H	1.296522	-0.138217	0.566967
O80	O	1.116244	0.298442	0.180271
C81	C	1.074764	0.476240	0.148396
C82	C	1.141767	0.403066	0.206587
H83	H	1.095359	0.560845	0.169671
H84	H	1.092023	0.457514	0.051864
H85	H	0.987239	0.464528	0.180641
H86	H	1.229312	0.414737	0.174434
H87	H	1.124417	0.421809	0.303113
H88	H	1.360771	0.031525	0.164393
H89	H	1.111825	0.302999	0.404671
O90	O	0.587855	0.117506	-0.364911
C91	C	0.612710	0.103390	-0.570765
C92	C	0.666082	0.112256	-0.463453
H93	H	0.675931	0.099165	-0.650464
H94	H	0.563738	0.029749	-0.570955
H95	H	0.558932	0.174773	-0.570314
H96	H	0.719911	0.040929	-0.463834
H97	H	0.714988	0.185941	-0.463305
O98	O	0.561556	0.145961	0.042033
C99	C	0.519241	0.068059	0.221527
C100	C	0.587280	0.061007	0.101792
H101	H	0.539997	-0.000629	0.269868
H102	H	0.535322	0.144406	0.270498
H103	H	0.431967	0.065588	0.212822
H104	H	0.674575	0.063434	0.110392
H105	H	0.571108	-0.015333	0.052864
O106	O	1.024998	-0.356024	-0.105267
C107	C	0.864873	-0.374334	-0.186206
C108	C	0.976502	-0.328773	-0.197582
H109	H	0.825622	-0.352300	-0.260818
H110	H	0.870858	-0.463049	-0.186898
H111	H	0.815467	-0.341319	-0.102420
H112	H	1.025969	-0.361707	-0.281361
H113	H	0.970438	-0.240058	-0.196823
H114	H	0.730180	0.154717	0.111065
H115	H	1.484935	-0.374028	-0.152225
O116	O	1.475664	-0.580446	-0.151241
C117	C	1.665583	-0.594090	-0.170790
C118	C	1.568046	-0.520798	-0.160814
H119	H	1.740299	-0.545895	-0.178557
H120	H	1.659298	-0.639750	-0.091448
H121	H	1.669359	-0.650900	-0.249841
H122	H	1.564209	-0.463927	-0.081810
H123	H	1.574370	-0.475212	-0.240212
O124	O	1.050366	-0.142947	-0.107863
C125	C	0.960878	-0.013086	-0.196041
C126	C	1.058374	-0.086425	-0.205973
H127	H	0.967329	0.032648	-0.275340
H128	H	0.886117	-0.061212	-0.188449
H129	H	0.957043	0.043657	-0.116928
H130	H	1.062310	-0.143181	-0.285083
H131	H	1.133087	-0.038232	-0.213501
H132	H	1.414068	-0.026582	0.336423
