data_functionalizedCrystal
_audit_creation_method	'MofGen! by Chris Wilmer'
_symmetry_space_group_name_H-M	'P1'
_symmetry_Int_Tables_number	1
_symmetry_cell_setting	triclinic
loop_
_symmetry_equiv_pos_as_xyz
  x,y,z
_cell_length_a	15.944493
_cell_length_b	19.188924
_cell_length_c	18.266242
_cell_angle_alpha	90.006564
_cell_angle_beta	90.005061
_cell_angle_gamma	83.308504
loop_
_atom_site_label
_atom_site_type_symbol
_atom_site_fract_x
_atom_site_fract_y
_atom_site_fract_z
O1	O	1.114217	0.089855	0.060875
O2	O	0.869619	0.100999	0.060879
O3	O	0.998979	-0.006212	0.060868
O4	O	0.984856	0.197066	0.060885
O5	O	0.998966	-0.006214	-0.060894
O6	O	0.869605	0.100997	-0.060883
O7	O	1.114203	0.089853	-0.060887
Zn8	Zn	0.991902	0.095424	-0.080218
Zn9	Zn	0.991920	0.095428	0.080209
O10	O	0.984842	0.197064	-0.060877
C11	C	0.838319	0.100543	-0.000002
C12	C	0.745075	0.099177	-0.000001
C13	C	0.509077	0.162284	0.000005
C14	C	0.458640	0.128252	-0.060036
C15	C	0.574364	0.096647	-0.000002
C16	C	0.458659	0.128239	0.060012
C17	C	0.409463	0.094207	-0.000001
C18	C	0.525155	0.062632	-0.060093
C19	C	0.525177	0.062629	0.060009
C20	C	0.474773	0.028548	-0.000047
C21	C	0.669358	0.098054	-0.000004
C22	C	0.314472	0.092795	-0.000004
C23	C	0.998516	-0.032225	-0.000014
C24	C	0.997146	-0.109733	-0.000016
C25	C	0.996514	-0.146132	0.066357
C26	C	0.995215	-0.218958	0.066363
C27	C	0.994565	-0.255384	-0.000008
C28	C	0.995192	-0.218976	-0.066390
C29	C	0.996482	-0.146150	-0.066393
N30	N	1.040333	-0.374938	-0.049407
N31	N	1.039109	-0.444119	-0.049399
C32	C	0.990674	-0.474803	-0.000001
N33	N	0.943520	-0.433692	0.049400
N34	N	0.944748	-0.364505	0.049394
C35	C	0.993164	-0.334351	-0.000012
C36	C	0.988632	-0.590168	0.066382
C37	C	0.987328	-0.662994	0.066385
C38	C	0.987313	-0.663011	-0.066369
C39	C	0.988609	-0.590185	-0.066370
C40	C	0.989272	-0.553768	0.000008
C41	C	1.145503	0.090309	-0.000005
C42	C	1.238747	0.091675	-0.000002
C43	C	0.985306	0.223077	0.000007
C44	C	0.986676	0.300585	0.000013
N45	N	0.991895	0.095422	-0.189705
C46	C	1.049215	0.047965	-0.771987
C47	C	1.049217	0.047966	-0.695342
C48	C	0.991921	0.095421	-0.657017
C49	C	0.934634	0.142890	-0.695344
C50	C	0.934640	0.142892	-0.771987
N51	N	0.917556	0.104290	-0.536689
N52	N	0.917553	0.104284	-0.463881
C53	C	0.991900	0.095420	-0.426095
N54	N	1.066253	0.086548	-0.463867
N55	N	1.066256	0.086550	-0.536682
C56	C	0.991908	0.095425	-0.573910
C57	C	1.049188	0.047959	-0.304670
C58	C	1.049191	0.047965	-0.228024
C59	C	0.934601	0.142886	-0.228028
C60	C	0.934606	0.142883	-0.304672
C61	C	0.991899	0.095416	-0.342989
N62	N	0.991933	0.095425	0.189696
H63	H	0.524488	0.218823	-0.000046
F64	F	0.986616	-0.701773	-0.137007
H65	H	0.459520	-0.028034	-0.000087
F66	F	0.997216	-0.107378	0.137002
H67	H	0.989130	-0.560549	-0.120418
F68	F	0.986649	-0.701732	0.137032
F69	F	0.994542	-0.257705	0.137008
F70	F	0.563167	0.026432	0.126352
F71	F	0.562960	0.026422	-0.126507
F72	F	0.420706	0.164487	0.126350
F73	F	1.110165	-0.002547	-0.187242
H74	H	0.994660	-0.248638	-0.120429
H75	H	1.095842	0.009310	-0.335869
F76	F	0.873670	0.193407	-0.812769
F77	F	0.873635	0.193393	-0.345456
H78	H	1.095868	0.009316	-0.803182
F79	F	1.110187	-0.002550	-0.654555
F80	F	0.873628	0.193395	-0.187243
F81	F	0.420671	0.164480	-0.126375
F82	F	0.997153	-0.107410	-0.137039
H83	H	0.989167	-0.560515	0.120431
F84	F	0.873659	0.193398	-0.654556
