data_functionalizedCrystal
_audit_creation_method	'MofGen! by Chris Wilmer'
_symmetry_space_group_name_H-M	'P1'
_symmetry_Int_Tables_number	1
_symmetry_cell_setting	triclinic
loop_
_symmetry_equiv_pos_as_xyz
  x,y,z
_cell_length_a	18.050591
_cell_length_b	18.050589
_cell_length_c	19.805399
_cell_angle_alpha	89.976299
_cell_angle_beta	89.978048
_cell_angle_gamma	90.024227
loop_
_atom_site_label
_atom_site_type_symbol
_atom_site_fract_x
_atom_site_fract_y
_atom_site_fract_z
Zn1	Zn	1.135300	-0.295745	-0.382836
Zn2	Zn	1.635300	0.204255	0.117164
Zn3	Zn	1.135209	-0.419941	-0.269658
Zn4	Zn	1.635209	0.080059	0.230342
Zn5	Zn	1.011117	-0.295760	-0.269651
Zn6	Zn	1.511117	0.204240	0.230349
Zn7	Zn	1.011067	-0.419889	-0.382795
Zn8	Zn	1.511067	0.080111	0.117205
O9	O	1.073173	-0.357834	-0.326235
O10	O	1.573173	0.142166	0.173765
O11	O	1.239213	-0.312235	-0.367843
O12	O	1.739213	0.187765	0.132157
O13	O	1.118730	-0.403495	-0.174941
O14	O	1.618730	0.096505	0.325059
O15	O	1.027649	-0.191834	-0.284679
O16	O	1.527649	0.308166	0.215321
O17	O	1.239145	-0.403481	-0.284692
O18	O	1.739145	0.096519	0.215308
O19	O	1.118886	-0.191823	-0.367836
O20	O	1.618886	0.308177	0.132164
O21	O	1.027561	-0.312261	-0.174935
O22	O	1.527561	0.187739	0.325065
O23	O	0.907186	-0.312211	-0.284639
O24	O	1.407186	0.187789	0.215361
O25	O	1.027565	-0.403394	-0.477517
O26	O	1.527565	0.096606	0.022483
O27	O	0.907149	-0.403408	-0.367766
O28	O	1.407149	0.096592	0.132234
O29	O	1.118838	-0.312186	-0.477547
O30	O	1.618838	0.187814	0.022453
O31	O	1.118682	-0.523858	-0.284652
O32	O	1.618682	-0.023858	0.215348
O33	O	1.027476	-0.523821	-0.367773
O34	O	1.527476	-0.023821	0.132227
C35	C	0.880221	-0.357806	-0.326197
C36	C	1.380221	0.142194	0.173803
C37	C	0.797675	-0.357812	-0.326198
C38	C	1.297675	0.142188	0.173802
C39	C	0.598223	-0.308162	-0.281097
C40	C	1.098223	0.191838	0.218903
C41	C	0.548803	-0.375899	-0.264445
C42	C	1.048803	0.124101	0.235555
C43	C	0.646545	-0.357835	-0.326228
C44	C	1.146545	0.142165	0.173772
C45	C	0.548883	-0.290121	-0.342878
C46	C	1.048883	0.209879	0.157122
C47	C	0.500560	-0.357851	-0.326256
C48	C	1.000560	0.142149	0.173744
C49	C	0.598212	-0.425608	-0.309544
C50	C	1.098212	0.074392	0.190456
C51	C	0.598297	-0.339784	-0.388006
C52	C	1.098297	0.160216	0.111994
C53	C	0.548899	-0.407568	-0.371377
C54	C	1.048899	0.092432	0.128623
C55	C	0.730643	-0.357825	-0.326210
C56	C	1.230643	0.142175	0.173790
C57	C	0.416463	-0.357868	-0.326274
C58	C	0.916463	0.142132	0.173726
C59	C	1.073084	-0.550786	-0.326224
C60	C	1.573084	-0.050786	0.173776
C61	C	1.073113	-0.633332	-0.326241
C62	C	1.573113	-0.133332	0.173759
C63	C	1.023564	-0.832789	-0.371427
C64	C	1.523564	-0.332789	0.128573
C65	C	1.005465	-0.882228	-0.309662
C66	C	1.505465	-0.382228	0.190338
C67	C	1.073186	-0.784462	-0.326250
C68	C	1.573186	-0.284462	0.173750
C69	C	1.091322	-0.882105	-0.388022
C70	C	1.591322	-0.382105	0.111978
C71	C	1.073255	-0.930447	-0.326264
C72	C	1.573255	-0.430447	0.173736
C73	C	1.055051	-0.832814	-0.264453
C74	C	1.555051	-0.332814	0.235547
C75	C	1.140940	-0.832686	-0.342854
C76	C	1.640940	-0.332686	0.157146
C77	C	1.122866	-0.882103	-0.281047
C78	C	1.622866	-0.382103	0.218953
C79	C	1.073144	-0.700364	-0.326243
C80	C	1.573144	-0.200364	0.173757
C81	C	1.073297	-1.014544	-0.326264
C82	C	1.573297	-0.514544	0.173736
C83	C	1.266879	-0.357862	-0.326273
C84	C	1.766879	0.142138	0.173727
C85	C	1.349425	-0.357874	-0.326289
C86	C	1.849425	0.142126	0.173711
C87	C	1.073206	-0.357782	-0.502778
C88	C	1.573206	0.142218	-0.002778
C89	C	1.073220	-0.357760	-0.578010
C90	C	1.573220	0.142240	-0.078010
C91	C	1.073283	-0.164128	-0.326261
C92	C	1.573283	0.335872	0.173739
C93	C	1.073330	-0.081583	-0.326272
C94	C	1.573330	0.418417	0.173728
C95	C	1.025761	-0.310250	-0.613350
C96	C	1.525761	0.189750	-0.113350
C97	C	1.025772	-0.310236	-0.684039
C98	C	1.525772	0.189764	-0.184039
C99	C	1.073244	-0.357728	-0.719385
C100	C	1.573244	0.142272	-0.219385
C101	C	1.120705	-0.405244	-0.684040
C102	C	1.620705	0.094756	-0.184040
C103	C	1.120690	-0.405262	-0.613352
C104	C	1.620690	0.094738	-0.113352
C105	C	1.120764	-0.405175	-0.969113
C106	C	1.620764	0.094825	-0.469113
C107	C	1.120776	-0.405152	-1.039805
C108	C	1.620776	0.094848	-0.539805
C109	C	1.025845	-0.310149	-1.039800
C110	C	1.525845	0.189851	-0.539800
C111	C	1.025830	-0.310166	-0.969112
C112	C	1.525830	0.189834	-0.469112
C113	C	1.073288	-0.357684	-0.933773
C114	C	1.573288	0.142316	-0.433773
C115	C	1.073275	-0.357700	-0.857124
C116	C	1.573275	0.142300	-0.357124
C117	C	1.073261	-0.357709	-0.796033
C118	C	1.573261	0.142291	-0.296033
C119	C	1.073184	-0.357832	-0.150379
C120	C	1.573184	0.142168	0.349621
C121	C	1.073314	-0.357644	-0.075147
C122	C	1.573314	0.142356	0.424853
H123	H	0.620053	-0.324483	-0.440222
H124	H	1.120053	0.175517	0.059778
H125	H	0.527176	-0.232857	-0.356926
H126	H	1.027176	0.267143	0.143074
H127	H	1.198191	-0.810911	-0.356915
H128	H	1.698191	-0.310911	0.143085
H129	H	1.106633	-0.903756	-0.440256
H130	H	1.606633	-0.403756	0.059744
O131	O	0.974561	-0.259022	-0.575227
O132	O	1.474561	0.240978	-0.075227
H133	H	0.941559	-0.225987	-0.611681
H134	H	1.441559	0.274013	-0.111681
H135	H	0.987123	-0.271551	-0.712810
H136	H	1.487123	0.228449	-0.212810
O137	O	0.974661	-0.258888	-1.077914
O138	O	1.474661	0.241112	-0.577914
H139	H	0.982641	-0.266853	-1.133006
H140	H	1.482641	0.233147	-0.633006
O141	O	1.034686	-0.804263	-0.195240
O142	O	1.534686	-0.304263	0.304760
H143	H	0.978655	-0.824597	-0.181417
H144	H	1.478655	-0.324597	0.318583
O145	O	0.929611	-0.911055	-0.291054
O146	O	1.429611	-0.411055	0.208946
H147	H	0.888488	-0.891310	-0.328620
H148	H	1.388488	-0.391310	0.171380
O149	O	0.974634	-0.258934	-0.930990
O150	O	1.474634	0.241066	-0.430990
H151	H	0.916341	-0.271658	-0.944538
H152	H	1.416341	0.228342	-0.444538
H153	H	0.981539	-0.811135	-0.409577
H154	H	1.481539	-0.311135	0.090423
H155	H	1.159436	-0.443829	-1.068582
H156	H	1.659436	0.056171	-0.568582
H157	H	1.164860	-0.903620	-0.242805
H158	H	1.664860	-0.403620	0.257195
O159	O	1.171966	-0.456405	-0.931000
O160	O	1.671966	0.043595	-0.431000
H161	H	1.204989	-0.489413	-0.967457
H162	H	1.704989	0.010587	-0.467457
O163	O	1.171912	-0.456469	-0.722158
O164	O	1.671912	0.043531	-0.222158
H165	H	1.163956	-0.448470	-0.777249
H166	H	1.663956	0.051530	-0.277249
H167	H	1.159342	-0.443944	-0.584579
H168	H	1.659342	0.056056	-0.084579
H169	H	0.619880	-0.266200	-0.242890
H170	H	1.119880	0.233800	0.257110
H171	H	0.619790	-0.482897	-0.295415
H172	H	1.119790	0.017103	0.204585
O173	O	0.519997	-0.396143	-0.195263
O174	O	1.019997	0.103857	0.304737
H175	H	0.539744	-0.354824	-0.157877
H176	H	1.039744	0.145176	0.342123
H177	H	0.527378	-0.449630	-0.409555
H178	H	1.027378	0.050370	0.090445
