data_functionalizedCrystal
_audit_creation_method	'MofGen! by Chris Wilmer'
_symmetry_space_group_name_H-M	'P1'
_symmetry_Int_Tables_number	1
_symmetry_cell_setting	triclinic
loop_
_symmetry_equiv_pos_as_xyz
  x,y,z
_cell_length_a	13.635800
_cell_length_b	27.923497
_cell_length_c	11.102300
_cell_angle_alpha	84.482684
_cell_angle_beta	108.605850
_cell_angle_gamma	81.035752
loop_
_atom_site_label
_atom_site_type_symbol
_atom_site_fract_x
_atom_site_fract_y
_atom_site_fract_z
V1	V	2.031724	-0.067127	0.397094
O2	O	2.036437	0.003226	0.388673
O3	O	1.996483	-0.133102	0.395206
O4	O	2.020484	-0.066095	0.569902
O5	O	2.012270	-0.064246	0.212768
V6	V	2.273289	-0.058712	0.374946
O7	O	2.162784	-0.085586	0.445676
O8	O	2.367328	-0.040253	0.326364
O9	O	2.196926	0.007263	0.376833
O10	O	2.327274	-0.129066	0.383367
O11	O	2.351441	-0.061594	0.559271
O12	O	2.172925	-0.059745	0.202138
V13	V	2.531724	-0.067127	0.397094
O14	O	2.536437	0.003226	0.388673
O15	O	2.496483	-0.133102	0.395206
O16	O	2.520484	-0.066095	0.569902
O17	O	2.512270	-0.064246	0.212768
V18	V	2.773289	-0.058712	0.374946
O19	O	2.662784	-0.085586	0.445676
O20	O	2.867328	-0.040253	0.326364
O21	O	2.696926	0.007263	0.376833
O22	O	2.827274	-0.129066	0.383367
O23	O	2.851441	-0.061594	0.559271
O24	O	2.672925	-0.059745	0.202138
C25	C	1.915879	-0.149186	0.389156
C26	C	1.927795	-0.203121	0.388764
C27	C	1.974158	-0.530644	0.269729
C28	C	2.018974	-0.733351	0.268190
O29	O	2.001336	-0.753671	0.168941
N30	N	2.052178	-0.765625	0.384471
C31	C	2.074186	-0.747220	0.501146
O32	O	2.103466	-0.779322	0.600016
C33	C	2.029377	-0.544513	0.502684
C34	C	1.996161	-0.512241	0.386395
C35	C	1.940946	-0.498372	0.153449
C36	C	1.929737	-0.447698	0.153835
C37	C	1.951741	-0.429296	0.270500
C38	C	1.984953	-0.461567	0.386780
C39	C	2.051392	-0.526109	0.619358
C40	C	2.040189	-0.475429	0.619733
C41	C	2.006974	-0.443157	0.503443
C42	C	1.995748	-0.392491	0.503832
N43	N	1.962544	-0.360217	0.387550
C44	C	1.940541	-0.378620	0.270885
C45	C	2.097707	-0.853643	0.500330
C46	C	2.108907	-0.904319	0.499946
C47	C	2.053696	-0.890447	0.266989
C48	C	2.042489	-0.839770	0.267374
C49	C	2.064503	-0.821369	0.384049
C50	C	1.917003	-0.272201	0.271703
C51	C	1.905792	-0.221524	0.272099
C52	C	1.961009	-0.235400	0.505055
C53	C	1.972214	-0.286073	0.504660
C54	C	1.950212	-0.304472	0.387974
O55	O	2.013377	-0.372137	0.603030
O56	O	1.911284	-0.346510	0.172031
C57	C	1.985366	-0.581318	0.269344
C58	C	2.018578	-0.613589	0.385624
C59	C	2.040582	-0.595187	0.502289
C60	C	2.029779	-0.664265	0.385239
C61	C	2.007775	-0.682668	0.268574
C62	C	1.974571	-0.650394	0.152292
C63	C	1.963363	-0.599720	0.152678
C64	C	2.073786	-0.627461	0.618571
C65	C	2.084991	-0.678134	0.618175
C66	C	2.062987	-0.696536	0.501510
C67	C	1.946493	-0.063710	0.611996
C68	C	1.977872	-0.063302	0.753273
C69	C	2.109201	0.023343	0.382881
C70	C	2.086904	0.077278	0.383280
C71	C	2.078586	-0.062131	0.160037
C72	C	2.036827	-0.062536	0.018759
C73	C	2.415879	-0.149186	0.389156
C74	C	2.427795	-0.203121	0.388764
C75	C	2.446493	-0.063710	0.611996
C76	C	2.477872	-0.063302	0.753273
C77	C	2.083752	-0.065534	0.826149
C78	C	2.113229	-0.065149	0.958893
C79	C	1.930938	-0.060303	0.945872
C80	C	1.901461	-0.060684	0.813129
C81	C	2.609201	0.023343	0.382881
C82	C	2.586904	0.077278	0.383280
C83	C	2.578586	-0.062131	0.160037
C84	C	2.536827	-0.062536	0.018759
C85	C	2.524523	-0.230924	0.394961
C86	C	2.535739	-0.281603	0.394613
C87	C	2.450223	-0.304479	0.388059
C88	C	2.353489	-0.276673	0.381865
C89	C	2.342277	-0.225995	0.382223
C90	C	2.662670	0.105081	0.377086
C91	C	2.641727	0.155760	0.377441
C92	C	2.545019	0.178635	0.383998
C93	C	2.469246	0.150830	0.390188
C94	C	2.490187	0.100152	0.389825
C95	C	2.583752	-0.065534	0.826149
C96	C	2.613229	-0.065149	0.958893
C97	C	2.430938	-0.060303	0.945872
C98	C	2.401461	-0.060684	0.813129
H99	H	1.878741	-0.195249	0.177397
H100	H	2.527981	0.219901	0.384292
O101	O	1.856653	-0.057676	1.003929
C102	C	1.780526	-0.014086	0.949744
H103	H	1.816343	0.013897	0.904642
H104	H	1.754053	0.001433	1.028126
H105	H	1.709627	-0.022340	0.872652
O106	O	1.982547	-0.217499	0.618357
C107	C	2.064271	-0.190932	0.631567
H108	H	2.112488	-0.203910	0.569585
H109	H	2.117625	-0.197270	0.736617
H110	H	2.028785	-0.150133	0.599182
O111	O	2.629735	-0.308642	0.400833
C112	C	2.667913	-0.344694	0.511650
H113	H	2.631173	-0.332626	0.585507
H114	H	2.757437	-0.349654	0.554402
H115	H	2.646001	-0.380953	0.484651
O116	O	2.117312	-0.709413	0.731267
C117	C	2.134302	-0.682297	0.834311
H118	H	2.149855	-0.644995	0.802635
H119	H	2.205387	-0.703096	0.919055
H120	H	2.061407	-0.676872	0.864566
H121	H	1.899085	-0.287175	0.176686
H122	H	2.315236	-0.058863	0.753789
H123	H	2.390506	0.169463	0.395525
H124	H	2.145973	-0.067665	0.777418
H125	H	2.741421	0.086462	0.371748
O126	O	2.715476	0.182687	0.371487
C127	C	2.805313	0.151627	0.365608
H128	H	2.807910	0.112375	0.407669
H129	H	2.879462	0.164300	0.423299
H130	H	2.801212	0.153089	0.261105
O131	O	2.119253	-0.835836	0.613768
C132	C	2.225364	-0.854778	0.690574
H133	H	2.254508	-0.890378	0.659174
H134	H	2.231527	-0.862337	0.795751
H135	H	2.275862	-0.826936	0.678907
H136	H	2.594163	-0.212305	0.400291
O137	O	2.657857	-0.068006	0.767830
C138	C	2.632812	-0.026152	0.673688
H139	H	2.544773	-0.010033	0.642223
H140	H	2.653690	-0.036940	0.587096
H141	H	2.679721	0.002361	0.715617
O142	O	1.897511	-0.416422	0.040758
C143	C	1.880474	-0.443541	-0.062284
H144	H	1.928205	-0.482552	-0.026181
H145	H	1.906461	-0.425367	-0.140248
H146	H	1.792982	-0.444630	-0.103745
H147	H	2.459367	-0.345744	0.387769
O148	O	1.931139	-0.568444	0.039601
C149	C	1.914103	-0.595562	-0.063441
H150	H	1.961832	-0.634575	-0.027337
H151	H	1.940093	-0.577389	-0.141402
H152	H	1.826611	-0.596651	-0.104905
O153	O	2.416489	0.073216	0.395921
C154	C	2.326640	0.104280	0.401757
H155	H	2.349972	0.138722	0.440589
H156	H	2.292261	0.084230	0.468156
H157	H	2.265035	0.115008	0.301250
H158	H	2.078438	-0.552377	0.714054
O159	O	2.061572	-0.457636	0.733186
C160	C	2.093316	-0.496991	0.835732
H161	H	2.061561	-0.530225	0.799093
H162	H	2.060860	-0.485889	0.913919
H163	H	2.183192	-0.506682	0.877107
H164	H	2.699444	-0.066966	1.018224
H165	H	2.368730	-0.058173	0.994624
H166	H	2.199444	-0.066966	1.018224
O167	O	1.919474	-0.516301	0.040187
C168	C	1.837707	-0.542845	0.026908
H169	H	1.834486	-0.555680	0.125956
H170	H	1.853371	-0.576070	-0.021307
H171	H	1.759145	-0.518249	-0.034660
O172	O	2.010271	-0.808493	0.154301
C173	C	1.993229	-0.835608	0.051253
H174	H	2.040948	-0.874622	0.087353
H175	H	2.019226	-0.817436	-0.026703
H176	H	1.905735	-0.836692	0.009784
H177	H	2.283867	-0.295306	0.376529
O178	O	1.798612	-0.058609	0.742446
C179	C	1.763849	-0.099254	0.788742
H180	H	1.834704	-0.130067	0.841447
H181	H	1.707630	-0.112580	0.704475
H182	H	1.721104	-0.087980	0.857737
O183	O	2.248220	-0.199058	0.376123
C184	C	2.175164	-0.230122	0.370290
H185	H	2.200301	-0.264565	0.331463
H186	H	2.093491	-0.210073	0.303889
H187	H	2.172623	-0.240848	0.470797
O188	O	2.032430	-0.908411	0.153777
C189	C	2.049424	-0.960059	0.178388
H190	H	2.106304	-0.973789	0.280665
H191	H	2.084615	-0.976207	0.107279
H192	H	1.971097	-0.971944	0.167120
H193	H	1.999244	-0.312350	0.599351
O194	O	2.141108	-0.935732	0.612790
C195	C	2.146308	-0.984410	0.587454
H196	H	2.092464	-0.984520	0.485091
H197	H	2.119671	-1.006782	0.658311
H198	H	2.230993	-1.001289	0.598474
H199	H	2.091705	-0.612483	0.713576
H200	H	1.956651	-0.665386	0.057298
