data_functionalizedCrystal
_audit_creation_method	'MofGen! by Chris Wilmer'
_symmetry_space_group_name_H-M	'P1'
_symmetry_Int_Tables_number	1
_symmetry_cell_setting	triclinic
loop_
_symmetry_equiv_pos_as_xyz
  x,y,z
_cell_length_a	6.817900
_cell_length_b	11.102233
_cell_length_c	10.943624
_cell_angle_alpha	91.864027
_cell_angle_beta	108.838799
_cell_angle_gamma	108.604751
loop_
_atom_site_label
_atom_site_type_symbol
_atom_site_fract_x
_atom_site_fract_y
_atom_site_fract_z
V1	V	-4.114281	-0.175807	-0.402558
O2	O	-4.073263	0.008482	-0.394888
O3	O	-4.091039	-0.348628	-0.399811
O4	O	-4.092263	-0.173087	-0.578124
O5	O	-4.072030	-0.168273	-0.215341
V6	V	-4.591231	-0.153765	-0.380164
O7	O	-4.389959	-0.224156	-0.451680
O8	O	-4.765751	-0.105416	-0.331042
O9	O	-4.391267	0.019056	-0.382911
O10	O	-4.749647	-0.338055	-0.387834
O11	O	-4.750879	-0.161299	-0.567382
O12	O	-4.390043	-0.156485	-0.204598
C13	C	-3.941306	-0.390759	-0.393462
C14	C	-4.003765	-0.532042	-0.392387
C15	C	-4.275846	-0.737640	-0.397299
C16	C	-4.217165	-0.604891	-0.398318
C17	C	-3.849030	-0.591948	-0.385423
C18	C	-3.907707	-0.724694	-0.384395
C19	C	-4.488389	-0.745113	-0.404749
C20	C	-4.429708	-0.612363	-0.405768
C21	C	-3.942866	-0.166837	-0.620917
C22	C	-4.006313	-0.165758	-0.764443
C23	C	-3.851193	-0.158486	-0.841590
C24	C	-4.039807	-0.266418	-0.947585
C25	C	-3.930778	-0.055914	-0.914190
C26	C	-4.194136	-0.273790	-0.868561
C27	C	-4.085029	-0.063192	-0.835142
C28	C	-4.273778	-0.171154	-0.941107
C29	C	-4.204343	0.061180	-0.389256
C30	C	-4.121123	0.202462	-0.390340
C31	C	-4.202782	-0.162739	-0.161799
C32	C	-4.118572	-0.163812	-0.018271
H33	H	-3.675266	-0.532622	-0.380583
H34	H	-4.021352	-0.352334	-0.996537
H35	H	-4.304883	-0.365972	-0.848020
H36	H	-4.453056	-0.176535	-0.984351
C37	C	-4.556888	-0.778840	-0.285609
C38	C	-4.791186	-0.871583	-0.305400
C39	C	-4.859681	-0.905311	-0.186262
C40	C	-4.693879	-0.846295	-0.047332
C41	C	-4.459567	-0.753547	-0.027535
C42	C	-4.391071	-0.719819	-0.146673
H43	H	-4.913936	-0.915274	-0.408249
H44	H	-5.033136	-0.973969	-0.200918
H45	H	-4.744584	-0.871263	0.040861
H46	H	-4.336817	-0.709855	0.075315
H47	H	-4.217617	-0.651161	-0.132017
C48	C	-4.109837	0.052877	-0.768946
C49	C	-3.974311	0.190493	-0.778538
C50	C	-3.999090	0.306574	-0.712333
C51	C	-4.159394	0.285040	-0.636536
C52	C	-4.294931	0.147418	-0.626941
C53	C	-4.270153	0.031336	-0.693146
H54	H	-3.855634	0.206439	-0.834650
H55	H	-3.898755	0.408451	-0.719436
H56	H	-4.177737	0.370970	-0.587527
H57	H	-4.413608	0.131471	-0.570829
H58	H	-4.370487	-0.070540	-0.686042
H59	H	-4.542222	-0.593140	-0.499669
H60	H	-3.781699	-0.773452	-0.378704
H61	H	-4.620839	-0.802985	-0.500394
H62	H	-4.429169	-0.559133	-0.314741
H63	H	-3.672029	-0.153274	-0.798142
H64	H	-3.820065	0.036144	-0.934948
