data_functionalizedCrystal
_audit_creation_method	'MofGen! by Chris Wilmer'
_symmetry_space_group_name_H-M	'P1'
_symmetry_Int_Tables_number	1
_symmetry_cell_setting	triclinic
loop_
_symmetry_equiv_pos_as_xyz
  x,y,z
_cell_length_a	12.759401
_cell_length_b	18.215405
_cell_length_c	12.759393
_cell_angle_alpha	89.962381
_cell_angle_beta	89.980163
_cell_angle_gamma	90.026410
loop_
_atom_site_label
_atom_site_type_symbol
_atom_site_fract_x
_atom_site_fract_y
_atom_site_fract_z
Zn1	Zn	1.606181	-0.292911	-0.593976
Zn2	Zn	2.106181	0.207089	-0.093976
Zn3	Zn	1.606044	-0.415997	-0.418278
Zn4	Zn	2.106044	0.084003	0.081722
Zn5	Zn	1.430483	-0.292952	-0.418311
Zn6	Zn	1.930483	0.207048	0.081689
Zn7	Zn	1.430440	-0.415943	-0.593915
Zn8	Zn	1.930440	0.084057	-0.093915
O9	O	1.518287	-0.354451	-0.506120
O10	O	2.018287	0.145549	-0.006120
O11	O	1.753183	-0.309243	-0.570681
O12	O	2.253183	0.190757	-0.070681
O13	O	1.582716	-0.399715	-0.271261
O14	O	2.082716	0.100285	0.228739
O15	O	1.453865	-0.189962	-0.441653
O16	O	1.953865	0.310038	0.058347
O17	O	1.753083	-0.399674	-0.441596
O18	O	2.253083	0.100326	0.058404
O19	O	1.582949	-0.189932	-0.570714
O20	O	2.082949	0.310068	-0.070714
O21	O	1.453732	-0.309314	-0.271286
O22	O	1.953732	0.190686	0.228714
O23	O	1.283456	-0.309262	-0.441594
O24	O	1.783456	0.190738	0.058406
O25	O	1.453792	-0.399583	-0.740944
O26	O	1.953792	0.100417	-0.240944
O27	O	1.283425	-0.399623	-0.570609
O28	O	1.783425	0.100377	-0.070609
O29	O	1.582908	-0.309191	-0.740989
O30	O	2.082908	0.190809	-0.240989
O31	O	1.582674	-0.518974	-0.441537
O32	O	2.082674	-0.018974	0.058463
O33	O	1.453659	-0.518935	-0.570577
O34	O	1.953659	-0.018935	-0.070577
C35	C	1.245319	-0.354442	-0.506099
C36	C	1.745319	0.145558	-0.006099
C37	C	1.128543	-0.354456	-0.506115
C38	C	1.628543	0.145544	-0.006115
C39	C	1.073692	-0.401578	-0.573188
C40	C	1.573692	0.098422	-0.073188
C41	C	0.963968	-0.401581	-0.573209
C42	C	1.463968	0.098419	-0.073209
C43	C	0.963955	-0.307337	-0.439076
C44	C	1.463955	0.192663	0.060924
C45	C	1.073677	-0.307331	-0.439061
C46	C	1.573677	0.192669	0.060939
C47	C	1.518176	-0.545657	-0.506070
C48	C	2.018176	-0.045657	-0.006070
C49	C	1.518224	-0.627456	-0.506083
C50	C	2.018224	-0.127456	-0.006083
C51	C	1.585561	-0.815646	-0.439016
C52	C	2.085561	-0.315646	0.060984
C53	C	1.585608	-0.892505	-0.439041
C54	C	2.085608	-0.392505	0.060959
C55	C	1.451147	-0.892503	-0.573300
C56	C	1.951147	-0.392503	-0.073300
C57	C	1.451107	-0.815646	-0.573279
C58	C	1.951107	-0.315646	-0.073279
C59	C	1.518312	-0.777219	-0.506131
C60	C	2.018312	-0.277219	-0.006131
C61	C	1.518399	-0.930935	-0.506178
C62	C	2.018399	-0.430935	-0.006178
C63	C	1.518450	-1.014269	-0.506206
C64	C	2.018450	-0.514269	-0.006206
C65	C	1.518263	-0.693880	-0.506104
C66	C	2.018263	-0.193880	-0.006104
C67	C	1.792320	-0.354460	-0.506142
C68	C	2.292320	0.145540	-0.006142
C69	C	1.909097	-0.354464	-0.506151
C70	C	2.409097	0.145536	-0.006151
C71	C	1.518360	-0.354376	-0.780154
C72	C	2.018360	0.145624	-0.280154
C73	C	1.518391	-0.354345	-0.896930
C74	C	2.018391	0.145655	-0.396930
C75	C	1.518427	-0.162498	-0.506194
C76	C	2.018427	0.337502	-0.006194
C77	C	1.518486	-0.080699	-0.506225
C78	C	2.018486	0.419301	-0.006225
C79	C	1.451254	-0.307264	-0.951805
C80	C	1.951254	0.192736	-0.451805
C81	C	1.451278	-0.307242	-1.061529
C82	C	1.951278	0.192758	-0.561529
C83	C	1.585587	-0.401382	-1.061495
C84	C	2.085587	0.098618	-0.561495
C85	C	1.585557	-0.401407	-0.951773
C86	C	2.085557	0.098593	-0.451773
C87	C	1.518274	-0.354472	-0.233153
C88	C	2.018274	0.145528	0.266847
C89	C	1.518446	-0.354296	-0.116377
C90	C	2.018446	0.145704	0.383623
H91	H	0.919313	-0.439952	-0.627827
H92	H	1.419313	0.060048	-0.127827
O93	O	0.910494	-0.261632	-0.373974
O94	O	1.410494	0.238368	0.126026
C95	C	0.801888	-0.271728	-0.388387
C96	C	1.301888	0.228272	0.111613
H97	H	0.786886	-0.328553	-0.422642
H98	H	1.286886	0.171447	0.077358
H99	H	0.770804	-0.228126	-0.444459
H100	H	1.270804	0.271874	0.055541
C101	C	0.763932	-0.195098	-0.240038
C102	C	1.263932	0.304902	0.259962
C103	C	0.745506	-0.264895	-0.282103
C104	C	1.245506	0.235105	0.217897
H105	H	0.729151	-0.190880	-0.174479
H106	H	1.229151	0.309120	0.325521
H107	H	0.837102	-0.188294	-0.230330
H108	H	1.337102	0.311706	0.269670
H109	H	0.738028	-0.158772	-0.286775
H110	H	1.238028	0.341228	0.213225
H111	H	0.771421	-0.301219	-0.235373
H112	H	1.271421	0.198781	0.264627
H113	H	0.672339	-0.271705	-0.291801
H114	H	1.172339	0.228295	0.208199
H115	H	1.640272	-0.439698	-1.106161
H116	H	2.140272	0.060302	-0.606161
H117	H	1.640284	-0.784361	-0.384341
H118	H	2.140284	-0.284361	0.115659
O119	O	1.126804	-0.261530	-0.373802
O120	O	1.626804	0.238470	0.126198
C121	C	1.054853	-0.219929	-0.314633
C122	C	1.554853	0.280071	0.185367
H123	H	0.976619	-0.250072	-0.310921
H124	H	1.476619	0.249928	0.189079
H125	H	1.043233	-0.164070	-0.353256
H126	H	1.543233	0.335930	0.146744
C127	C	1.193721	-0.172205	-0.207400
C128	C	1.693721	0.327795	0.292600
C129	C	1.097636	-0.209230	-0.202833
C130	C	1.597636	0.290770	0.297167
H131	H	1.220113	-0.165601	-0.138438
H132	H	1.720113	0.334399	0.361562
H133	H	1.242197	-0.200229	-0.247265
H134	H	1.742197	0.299771	0.252735
H135	H	1.184025	-0.125659	-0.239590
H136	H	1.684025	0.374341	0.260410
H137	H	1.107336	-0.255778	-0.170655
H138	H	1.607336	0.244222	0.329345
H139	H	1.049163	-0.181212	-0.162960
H140	H	1.549163	0.318788	0.337040
H141	H	1.118360	-0.439949	-0.627791
H142	H	1.618360	0.060051	-0.127791
O143	O	1.651100	-0.929842	-0.374025
O144	O	2.151100	-0.429842	0.125975
C145	C	1.718932	-0.974203	-0.433964
C146	C	2.218932	-0.474203	0.066036
H147	H	1.725271	-0.950988	-0.516717
H148	H	2.225271	-0.450988	-0.016717
H149	H	1.686538	-1.032487	-0.437540
H150	H	2.186538	-0.532487	0.062460
C151	C	1.820436	-1.003804	-0.281184
C152	C	2.320436	-0.503804	0.218816
C153	C	1.828229	-0.975286	-0.382820
C154	C	2.328229	-0.475286	0.117180
H155	H	1.887854	-1.004475	-0.249635
H156	H	2.387854	-0.504475	0.250365
H157	H	1.774734	-0.973919	-0.240800
H158	H	2.274734	-0.473919	0.259200
H159	H	1.793437	-1.052370	-0.284178
H160	H	2.293437	-0.552370	0.215822
H161	H	1.855215	-0.926718	-0.379824
H162	H	2.355215	-0.426718	0.120176
H163	H	1.873937	-1.005163	-0.423202
H164	H	2.373937	-0.505163	0.076798
H165	H	1.640231	-0.439748	-0.907093
H166	H	2.140231	0.060252	-0.407093
H167	H	1.396430	-0.923800	-0.627968
H168	H	1.896430	-0.423800	-0.127968
H169	H	1.396344	-0.784357	-0.627938
H170	H	1.896344	-0.284357	-0.127938
H171	H	1.396563	-0.268943	-0.907156
H172	H	1.896563	0.231057	-0.407156
H173	H	1.396607	-0.268905	-1.106203
H174	H	1.896607	0.231095	-0.606203
