data_functionalizedCrystal
_audit_creation_method	'MofGen! by Chris Wilmer'
_symmetry_space_group_name_H-M	'P1'
_symmetry_Int_Tables_number	1
_symmetry_cell_setting	triclinic
loop_
_symmetry_equiv_pos_as_xyz
  x,y,z
_cell_length_a	15.944551
_cell_length_b	12.837943
_cell_length_c	11.295483
_cell_angle_alpha	94.538773
_cell_angle_beta	94.094426
_cell_angle_gamma	90.836161
loop_
_atom_site_label
_atom_site_type_symbol
_atom_site_fract_x
_atom_site_fract_y
_atom_site_fract_z
O1	O	0.213265	-1.382450	-0.099009
O2	O	0.202478	-1.080644	-0.099016
O3	O	0.086257	-1.239788	-0.099002
O4	O	0.329487	-1.223306	-0.099023
O5	O	0.096448	-1.225810	0.099048
O6	O	0.212669	-1.066666	0.099034
O7	O	0.223456	-1.368472	0.099040
Cu8	Cu	0.218993	-1.216293	0.117121
Cu9	Cu	0.206941	-1.232823	-0.117096
O10	O	0.339677	-1.209328	0.099026
C11	C	0.203930	-1.035034	0.000008
C12	C	0.193062	-0.919957	0.000006
C13	C	0.060004	-1.232115	0.000023
C14	C	-0.033407	-1.230063	0.000024
C15	C	0.222005	-1.414082	0.000014
C16	C	0.232872	-1.529160	0.000008
C17	C	-0.256548	-1.126515	0.000005
C18	C	-0.308694	-1.167708	0.097657
C19	C	-0.204430	-1.226352	0.000015
C20	C	-0.318722	-1.181513	-0.097604
C21	C	-0.369631	-1.222761	0.000001
C22	C	-0.255341	-1.267567	0.097747
C23	C	-0.265369	-1.281364	-0.097602
C24	C	-0.317491	-1.322627	0.000073
C25	C	-0.109262	-1.228418	0.000024
C26	C	-0.464796	-1.220702	0.000000
C27	C	0.365931	-1.217002	-0.000001
C28	C	0.459340	-1.219054	-0.000010
N29	N	0.227469	-1.204674	0.281856
C30	C	0.323714	-0.679007	0.000011
C31	C	0.313507	-0.570881	0.000010
C32	C	0.162440	-0.595575	0.000011
C33	C	0.172648	-0.703701	0.000012
C34	C	0.253287	-0.745413	0.000011
C35	C	0.263494	-0.853542	0.000003
C36	C	0.112428	-0.878234	0.000013
C37	C	0.102221	-0.770107	0.000011
N38	N	0.198459	-1.244451	-0.281831
C39	C	0.137394	-1.328092	0.531156
C40	C	0.143806	-1.319318	0.655819
C41	C	0.246701	-1.178349	0.655847
C42	C	0.240289	-1.187123	0.531184
C43	C	0.185634	-1.261997	0.468843
C44	C	0.179227	-1.270775	0.344178
C45	C	0.282117	-1.129802	0.344208
C46	C	0.288530	-1.121028	0.468871
H47	H	-0.229864	-1.043639	0.000101
H48	H	0.389374	-0.712969	0.000008
H49	H	0.055081	-0.932315	0.000004
H50	H	0.329155	-0.887502	0.000004
H51	H	0.370856	-0.516815	0.000014
H52	H	0.096792	-0.561586	0.000111
H53	H	0.036567	-0.736129	0.000026
F54	F	0.304857	-1.098658	0.722208
H55	H	0.134727	-1.331744	0.293421
H56	H	0.104523	-1.373138	0.706551
H57	H	0.092898	-1.389064	0.480398
F58	F	-0.354952	-1.133911	-0.205504
F59	F	-0.333840	-1.104901	0.205563
F60	F	-0.219246	-1.315094	0.205772
H61	H	0.333026	-1.060064	0.519643
H62	H	-0.344011	-1.405566	0.000130
F63	F	-0.240197	-1.344128	-0.205513
H64	H	0.321401	-1.075986	0.293458
