data_functionalizedCrystal
_audit_creation_method	'MofGen! by Chris Wilmer'
_symmetry_space_group_name_H-M	'P1'
_symmetry_Int_Tables_number	1
_symmetry_cell_setting	triclinic
loop_
_symmetry_equiv_pos_as_xyz
  x,y,z
_cell_length_a	17.019282
_cell_length_b	11.792241
_cell_length_c	10.268362
_cell_angle_alpha	89.994572
_cell_angle_beta	93.876638
_cell_angle_gamma	83.790279
loop_
_atom_site_label
_atom_site_type_symbol
_atom_site_fract_x
_atom_site_fract_y
_atom_site_fract_z
O1	O	1.047299	0.144515	0.009196
O2	O	0.817712	0.162971	-0.016564
O3	O	0.938077	-0.011486	-0.003050
O4	O	0.926934	0.318973	-0.004318
O5	O	0.938067	-0.011493	0.213550
O6	O	0.817702	0.162964	0.200035
O7	O	1.047288	0.144508	0.225795
Cu8	Cu	0.932494	0.153735	0.232693
Cu9	Cu	0.932507	0.153744	-0.023461
O10	O	0.926924	0.318965	0.212281
C11	C	0.937372	-0.053773	0.105171
C12	C	0.935277	-0.179765	0.104935
C13	C	0.788315	0.162271	0.088438
C14	C	0.700736	0.160181	0.078612
C15	C	0.931425	-0.410436	0.104481
C16	C	0.933565	-0.282074	0.104733
C17	C	0.659590	0.159192	0.192066
C18	C	0.577301	0.157210	0.182837
C19	C	0.536160	0.156225	0.060152
C20	C	0.577312	0.157210	-0.053311
C21	C	0.659599	0.159184	-0.044081
C22	C	0.287705	0.150258	0.026375
C23	C	0.205411	0.148287	0.017153
C24	C	0.205407	0.148285	0.253303
C25	C	0.287695	0.150266	0.262523
C26	C	0.328841	0.151245	0.149060
C27	C	0.452047	0.154202	0.050715
C28	C	0.412952	0.153259	0.158497
C29	C	1.076686	0.145208	0.120791
C30	C	1.164265	0.147299	0.130608
C31	C	0.927629	0.361253	0.104058
C32	C	0.929724	0.487244	0.104285
N33	N	0.932491	0.153729	0.412858
N34	N	0.932516	0.153741	-0.203626
C35	C	0.932503	0.153742	0.678530
C36	C	0.932494	0.153738	0.530691
H37	H	0.543806	0.156386	0.275225
H38	H	0.543808	0.156400	-0.153205
H39	H	0.321188	0.151063	0.362426
H40	H	0.693081	0.160004	0.291970
C41	C	0.160146	0.147198	0.378106
C42	C	0.162914	0.245973	0.475820
C43	C	0.117654	0.244881	0.600629
C44	C	0.069625	0.145014	0.627723
C45	C	0.066855	0.046231	0.530006
C46	C	0.112115	0.047323	0.405197
H47	H	0.198470	0.319907	0.455766
H48	H	0.119705	0.318007	0.672966
H49	H	0.036121	0.144206	0.720114
H50	H	0.031299	-0.027703	0.550060
H51	H	0.110064	-0.025803	0.332861
H52	H	0.171915	0.147488	-0.082757
C53	C	0.406785	0.153130	-0.084235
C54	C	0.358754	0.053268	-0.122082
C55	C	0.313488	0.052193	-0.257031
C56	C	0.316253	0.150980	-0.354132
C57	C	0.364287	0.250849	-0.316287
C58	C	0.409553	0.251924	-0.181339
H59	H	0.356704	-0.019866	-0.050200
H60	H	0.277930	-0.021737	-0.285046
H61	H	0.282745	0.150184	-0.454029
H62	H	0.366336	0.323984	-0.388170
H63	H	0.445110	0.325854	-0.153324
C64	C	0.704864	0.160275	-0.168882
C65	C	0.702094	0.061499	-0.266596
C66	C	0.747358	0.062585	-0.391400
C67	C	0.795393	0.162446	-0.418491
C68	C	0.798165	0.261229	-0.320775
C69	C	0.752900	0.260144	-0.195971
H70	H	0.666534	-0.012431	-0.246543
H71	H	0.745306	-0.010542	-0.463736
H72	H	0.828901	0.163249	-0.510879
H73	H	0.833725	0.335159	-0.340827
H74	H	0.754953	0.333271	-0.123635
C75	C	0.458207	0.154352	0.293447
C76	C	0.438353	0.252597	0.388609
C77	C	0.483616	0.253700	0.523558
C78	C	0.548733	0.156557	0.563343
C79	C	0.568590	0.058305	0.468179
C80	C	0.523327	0.057202	0.333230
H81	H	0.390147	0.324515	0.359159
H82	H	0.468917	0.326433	0.594005
H83	H	0.582240	0.157374	0.663240
H84	H	0.616797	-0.013612	0.497629
H85	H	0.538027	-0.015531	0.262783
H86	H	0.321196	0.151051	-0.066015
