data_functionalizedCrystal
_audit_creation_method	'MofGen! by Chris Wilmer'
_symmetry_space_group_name_H-M	'P1'
_symmetry_Int_Tables_number	1
_symmetry_cell_setting	triclinic
loop_
_symmetry_equiv_pos_as_xyz
  x,y,z
_cell_length_a	10.654549
_cell_length_b	19.188924
_cell_length_c	9.730217
_cell_angle_alpha	89.994694
_cell_angle_beta	89.997559
_cell_angle_gamma	83.814441
loop_
_atom_site_label
_atom_site_type_symbol
_atom_site_fract_x
_atom_site_fract_y
_atom_site_fract_z
O1	O	1.665753	0.098077	-0.114330
O2	O	1.300078	0.107416	-0.114326
O3	O	1.493473	0.001160	-0.114312
O4	O	1.472358	0.204334	-0.114345
O5	O	1.493467	0.001159	0.114268
O6	O	1.300072	0.107415	0.114254
O7	O	1.665748	0.098076	0.114250
Zn8	Zn	1.482909	0.102746	0.150544
Zn9	Zn	1.482916	0.102747	-0.150620
O10	O	1.472352	0.204333	0.114236
C11	C	1.253291	0.106729	-0.000036
C12	C	1.113892	0.104676	-0.000034
C13	C	0.821295	0.227879	-0.000092
C14	C	0.871464	0.292375	-0.000096
C15	C	1.002441	0.294307	-0.000079
C16	C	1.083254	0.231736	-0.000061
C17	C	1.033084	0.167240	-0.000056
C18	C	0.902102	0.165315	-0.000070
C19	C	1.063722	0.040180	-0.000029
C20	C	0.932746	0.038246	-0.000037
C21	C	1.144535	-0.022391	-0.000011
C22	C	1.094366	-0.086889	0.000003
C23	C	0.963380	-0.088818	-0.000013
C24	C	0.882576	-0.026250	-0.000032
C25	C	1.492787	-0.024856	-0.000021
C26	C	1.490739	-0.102374	-0.000017
C27	C	1.489787	-0.138779	-0.124617
C28	C	1.487844	-0.211614	-0.124627
C29	C	1.486880	-0.248044	-0.000031
C30	C	1.487826	-0.211630	0.124585
C31	C	1.489755	-0.138795	0.124591
N32	N	1.555310	-0.367259	0.092702
N33	N	1.553480	-0.436450	0.092687
C34	C	1.481063	-0.467491	-0.000044
N35	N	1.410562	-0.426730	-0.092781
N36	N	1.412398	-0.357534	-0.092770
C37	C	1.484787	-0.327021	-0.000025
C38	C	1.478002	-0.582872	-0.124663
C39	C	1.476052	-0.655708	-0.124669
C40	C	1.476046	-0.655724	0.124547
C41	C	1.477984	-0.582888	0.124548
C42	C	1.478968	-0.546467	-0.000061
C43	C	1.712534	0.098763	-0.000044
C44	C	1.851933	0.100817	-0.000055
C45	C	1.473038	0.230349	-0.000059
C46	C	1.475086	0.307867	-0.000071
N47	N	1.482913	0.102744	0.356080
N48	N	1.482923	0.102743	-0.356157
C49	C	1.654233	0.008682	0.356083
C50	C	1.739902	-0.038347	0.428025
C51	C	1.739915	-0.038348	0.571905
C52	C	1.654247	0.008685	0.643846
C53	C	1.568578	0.055714	0.571905
C54	C	1.568577	0.055711	0.428022
C55	C	1.397254	0.149772	0.571902
C56	C	1.397245	0.149777	0.428022
C57	C	1.311586	0.196804	0.643843
C58	C	1.225922	0.243838	0.571902
C59	C	1.225913	0.243837	0.428013
C60	C	1.311576	0.196806	0.356080
H61	H	1.043288	0.346825	-0.000080
H62	H	1.487037	-0.241296	0.226032
H63	H	1.156147	0.282131	0.369446
H64	H	1.478796	-0.553216	-0.226127
H65	H	1.189901	0.233315	-0.000062
H66	H	1.311582	0.196804	0.238926
H67	H	1.160172	-0.137829	0.000009
H68	H	0.714645	0.226312	-0.000082
H69	H	1.475270	-0.685347	-0.226137
H70	H	1.478770	-0.553248	0.226011
H71	H	0.922542	-0.141339	-0.000017
H72	H	1.487061	-0.241260	-0.226094
H73	H	1.475252	-0.685384	0.225995
H74	H	1.809649	-0.076642	0.369437
H75	H	0.805653	0.343318	-0.000116
H76	H	0.775926	-0.027815	-0.000034
H77	H	1.654242	0.008683	0.238929
H78	H	1.490584	-0.109129	-0.226083
H79	H	1.654252	0.008676	0.761001
H80	H	1.809669	-0.076645	0.630479
H81	H	1.490526	-0.109155	0.226058
H82	H	1.311595	0.196799	0.760998
H83	H	1.156172	0.282125	0.630485
H84	H	1.251182	-0.020814	-0.000003
