data_functionalizedCrystal
_audit_creation_method	'MofGen! by Chris Wilmer'
_symmetry_space_group_name_H-M	'P1'
_symmetry_Int_Tables_number	1
_symmetry_cell_setting	triclinic
loop_
_symmetry_equiv_pos_as_xyz
  x,y,z
_cell_length_a	17.640112
_cell_length_b	12.645330
_cell_length_c	17.640968
_cell_angle_alpha	78.774158
_cell_angle_beta	87.860920
_cell_angle_gamma	78.749979
loop_
_atom_site_label
_atom_site_type_symbol
_atom_site_fract_x
_atom_site_fract_y
_atom_site_fract_z
Zn1	Zn	1.247777	0.030459	0.195082
Zn2	Zn	1.222001	0.249170	0.068115
Zn3	Zn	1.095107	0.099417	0.093733
Zn4	Zn	1.120742	0.235216	0.220696
O5	O	1.171407	0.153565	0.144407
O6	O	1.350628	0.036452	0.156799
O7	O	1.183652	0.264004	-0.034757
O8	O	1.115419	-0.058094	0.107179
O9	O	1.331690	0.197138	0.063517
O10	O	1.227585	-0.108757	0.181640
O11	O	1.090424	0.153981	-0.015936
O12	O	0.992238	0.140450	0.132016
O13	O	1.159109	0.173355	0.323569
O14	O	1.011072	0.240221	0.225295
O15	O	1.252442	0.022921	0.304751
O16	O	1.208509	0.395683	0.088354
O17	O	1.134115	0.385431	0.200455
C18	C	0.974100	0.196305	0.184215
C19	C	0.889695	0.214609	0.201264
C20	C	0.563039	0.014493	0.014899
C21	C	0.483729	0.031711	0.030929
C22	C	0.503361	0.135843	0.127893
C23	C	0.582675	0.118630	0.111874
C24	C	0.612506	0.057956	0.055376
C25	C	0.632142	0.162093	0.152351
C26	C	0.711448	0.144886	0.136330
C27	C	0.741286	0.084216	0.079833
C28	C	0.691812	0.040749	0.039355
C29	C	0.602308	0.222774	0.208845
C30	C	0.651776	0.266236	0.249322
C31	C	0.731084	0.249023	0.233305
C32	C	0.760922	0.188353	0.176808
C33	C	0.780558	0.292490	0.273783
C34	C	0.859863	0.275283	0.257762
C35	C	0.840227	0.171146	0.160787
C36	C	1.171321	0.429016	0.144416
C37	C	1.171358	0.546832	0.144432
C38	C	1.124818	0.707882	0.215092
C39	C	1.124494	0.585447	0.214959
C40	C	1.133506	0.622215	0.068769
C41	C	1.133209	0.744777	0.069202
C42	C	1.255937	0.689800	0.148726
C43	C	1.255811	0.566727	0.150571
C44	C	1.369484	0.110660	0.104443
C45	C	1.453893	0.092376	0.087413
C46	C	1.211510	0.088890	0.342485
C47	C	1.228600	0.061329	0.426894
C48	C	1.171491	0.877034	0.144418
C49	C	1.171461	0.759206	0.144443
C50	C	1.131503	0.217903	-0.052910
C51	C	1.114560	0.245134	-0.137348
C52	C	1.041869	0.362302	0.753489
C53	C	1.057944	0.336388	0.832801
C54	C	1.155122	0.179754	0.813196
C55	C	1.139054	0.205653	0.733881
C56	C	1.082427	0.296929	0.704034
C57	C	1.179611	0.140279	0.684427
C58	C	1.163546	0.166179	0.605118
C59	C	1.106924	0.257453	0.575265
C60	C	1.066362	0.322829	0.624726
C61	C	1.236241	0.049008	0.714275
C62	C	1.276799	-0.016366	0.664820
C63	C	1.260730	0.009529	0.585511
C64	C	1.204108	0.100803	0.555657
C65	C	1.301292	-0.055847	0.536050
C66	C	1.285227	-0.029947	0.456741
C67	C	1.188043	0.126703	0.476349
H68	H	0.716105	-0.008678	-0.006640
H69	H	1.290886	0.723308	0.097072
Cl70	Cl	0.922055	0.329925	0.308645
H71	H	1.141913	0.201007	0.452050
Cl72	Cl	1.164130	0.718832	0.302840
H73	H	1.062200	0.573543	0.213398
Cl74	Cl	1.029265	0.782154	0.212854
H75	H	0.864520	0.121719	0.114792
Cl76	Cl	1.006948	0.418580	0.894972
H77	H	1.284062	0.514831	0.206176
Cl78	Cl	1.336216	-0.112129	0.394565
Cl79	Cl	0.970674	0.477044	0.715962
H80	H	1.164831	0.780375	0.015640
Cl81	Cl	1.256440	0.016451	0.813978
Cl82	Cl	1.226309	0.065014	0.850726
Cl83	Cl	0.502606	0.244422	0.228976
H84	H	1.322906	-0.090681	0.689133
H85	H	1.070975	0.791854	0.063691
H86	H	1.150051	0.533006	0.271569
H87	H	1.347402	-0.130158	0.560363
Cl88	Cl	0.840985	0.062589	0.059687
H89	H	0.587331	-0.034934	-0.031096
H90	H	0.443455	-0.003695	-0.002031
Cl91	Cl	1.183195	0.586056	-0.013630
H92	H	0.479061	0.185249	0.173892
Cl93	Cl	0.614263	0.342525	0.320336
Cl94	Cl	0.743041	0.368789	0.344791
H95	H	1.093848	0.278542	0.510685
Cl96	Cl	1.038276	0.603303	0.059581
Cl97	Cl	1.304354	0.701928	0.231146
H98	H	1.293695	0.539080	0.101572
Cl99	Cl	0.995166	0.437570	0.587199
