data_functionalizedCrystal
_audit_creation_method	'MofGen! by Chris Wilmer'
_symmetry_space_group_name_H-M	'P1'
_symmetry_Int_Tables_number	1
_symmetry_cell_setting	triclinic
loop_
_symmetry_equiv_pos_as_xyz
  x,y,z
_cell_length_a	19.121102
_cell_length_b	16.625546
_cell_length_c	16.625539
_cell_angle_alpha	89.969603
_cell_angle_beta	92.459347
_cell_angle_gamma	92.423284
loop_
_atom_site_label
_atom_site_type_symbol
_atom_site_fract_x
_atom_site_fract_y
_atom_site_fract_z
Zn1	Zn	1.073748	0.373670	0.508418
Zn2	Zn	1.407082	0.707004	0.841752
Zn3	Zn	1.740415	1.040337	1.175085
Zn4	Zn	1.073664	0.508509	0.373576
Zn5	Zn	1.406997	0.841843	0.706910
Zn6	Zn	1.740331	1.175176	1.040243
Zn7	Zn	0.956295	0.367937	0.367854
Zn8	Zn	1.289629	0.701270	0.701187
Zn9	Zn	1.622962	1.034604	1.034520
Zn10	Zn	0.956269	0.502702	0.502624
Zn11	Zn	1.289603	0.836035	0.835958
Zn12	Zn	1.622936	1.169369	1.169291
O13	O	1.014994	0.438205	0.438118
O14	O	1.348328	0.771538	0.771452
O15	O	1.681661	1.104871	1.104785
O16	O	1.172022	0.396387	0.495351
O17	O	1.505355	0.729720	0.828684
O18	O	1.838689	1.063053	1.162018
O19	O	1.058070	0.489893	0.259984
O20	O	1.391404	0.823226	0.593317
O21	O	1.724737	1.156560	0.926650
O22	O	0.971922	0.255867	0.386530
O23	O	1.305255	0.589201	0.719863
O24	O	1.638588	0.922534	1.053197
O25	O	1.171960	0.495452	0.396283
O26	O	1.505293	0.828786	0.729617
O27	O	1.838627	1.162119	1.062950
O28	O	1.058214	0.260080	0.489802
O29	O	1.391547	0.593413	0.823135
O30	O	1.724881	0.926746	1.156469
O31	O	0.971840	0.386615	0.255779
O32	O	1.305173	0.719949	0.589113
O33	O	1.638507	1.053282	0.922446
O34	O	0.858007	0.380984	0.380912
O35	O	1.191340	0.714318	0.714245
O36	O	1.524674	1.047651	1.047578
O37	O	0.971878	0.485555	0.616226
O38	O	1.305211	0.818888	0.949560
O39	O	1.638544	1.152221	1.282893
O40	O	0.857988	0.479995	0.479927
O41	O	1.191322	0.813329	0.813260
O42	O	1.524655	1.146662	1.146593
O43	O	1.058189	0.390756	0.620483
O44	O	1.391522	0.724089	0.953817
O45	O	1.724856	1.057422	1.287150
O46	O	1.058045	0.620569	0.390665
O47	O	1.391379	0.953902	0.723998
O48	O	1.724712	1.287236	1.057332
O49	O	0.971796	0.616302	0.485476
O50	O	1.305129	0.949636	0.818809
O51	O	1.638463	1.282969	1.152142
C52	C	1.014928	0.647692	0.438081
C53	C	1.348261	0.981026	0.771415
C54	C	1.681595	1.314359	1.104748
C55	C	1.014964	0.737315	0.438095
C56	C	1.348297	1.070648	0.771429
C57	C	1.681630	1.403982	1.104762
C58	C	0.832514	0.429238	0.429170
C59	C	1.165847	0.762571	0.762503
C60	C	1.499180	1.095905	1.095837
C61	C	0.754447	0.425422	0.425361
C62	C	1.087781	0.758755	0.758694
C63	C	1.421114	1.092088	1.092028
C64	C	1.015040	0.438147	0.648429
C65	C	1.348373	0.771480	0.981763
C66	C	1.681707	1.104813	1.315096
C67	C	1.015059	0.438122	0.738052
C68	C	1.348393	0.771456	1.071385
C69	C	1.681726	1.104789	1.404718
C70	C	0.717780	0.475256	0.475042
C71	C	1.051114	0.808589	0.808376
C72	C	1.384447	1.141923	1.141709
C73	C	0.644429	0.471659	0.471467
C74	C	0.977762	0.804993	0.804801
C75	C	1.311096	1.138326	1.138134
C76	C	0.607746	0.418232	0.418206
C77	C	0.941079	0.751565	0.751539
C78	C	1.274413	1.084898	1.084873
C79	C	0.644418	0.368392	0.368523
C80	C	0.977752	0.701725	0.701856
C81	C	1.311085	1.035058	1.035189
C82	C	0.717768	0.371985	0.372102
C83	C	1.051102	0.705318	0.705436
C84	C	1.384435	1.038652	1.038769
C85	C	0.386276	0.404796	0.404826
C86	C	0.719609	0.738129	0.738160
C87	C	1.052943	1.071463	1.071493
C88	C	0.312921	0.401208	0.401249
C89	C	0.646254	0.734542	0.734582
C90	C	0.979587	1.067875	1.067915
C91	C	0.312937	0.504476	0.504195
C92	C	0.646270	0.837809	0.837528
C93	C	0.979603	1.171142	1.170862
C94	C	0.386288	0.508067	0.507766
C95	C	0.719621	0.841401	0.841100
C96	C	1.052955	1.174734	1.174433
C97	C	0.422954	0.458224	0.458086
C98	C	0.756287	0.791558	0.791419
C99	C	1.089620	1.124891	1.124753
C100	C	0.532769	0.414556	0.414549
C101	C	0.866103	0.747889	0.747882
C102	C	1.199436	1.081223	1.081215
C103	C	0.497929	0.461897	0.461748
C104	C	0.831263	0.795230	0.795081
C105	C	1.164596	1.128563	1.128415
C106	C	1.198188	0.447207	0.447102
C107	C	1.531521	0.780540	0.780435
C108	C	1.864854	1.113873	1.113769
C109	C	1.276254	0.451043	0.450930
C110	C	1.609587	0.784376	0.784264
C111	C	1.942920	1.117710	1.117597
C112	C	1.015080	0.227900	0.438174
C113	C	1.348414	0.561233	0.771507
C114	C	1.681747	0.894567	1.104841
C115	C	1.015117	0.138281	0.438198
C116	C	1.348450	0.471614	0.771531
C117	C	1.681783	0.804947	1.104864
C118	C	1.015086	1.065497	0.438185
C119	C	1.348420	1.398830	0.771519
C120	C	1.681753	1.732163	1.104852
C121	C	1.015050	0.974186	0.438163
C122	C	1.348383	1.307520	0.771496
C123	C	1.681717	1.640853	1.104829
C124	C	1.015024	0.901409	0.438140
C125	C	1.348358	1.234742	0.771473
C126	C	1.681691	1.568075	1.104807
C127	C	1.014989	0.810093	0.438118
C128	C	1.348322	1.143426	0.771451
C129	C	1.681656	1.476759	1.104785
C130	C	1.014989	0.438206	0.228627
C131	C	1.348323	0.771539	0.561960
C132	C	1.681656	1.104873	0.895294
C133	C	1.015106	0.438010	0.139012
C134	C	1.348439	0.771344	0.472346
C135	C	1.681773	1.104677	0.805679
C136	C	1.015092	0.438033	1.066229
C137	C	1.348425	0.771367	1.399562
C138	C	1.681758	1.104700	1.732896
C139	C	1.015081	0.438061	0.974920
C140	C	1.348414	0.771394	1.308253
C141	C	1.681748	1.104727	1.641587
C142	C	1.015076	0.438078	0.902143
C143	C	1.348409	0.771412	1.235477
C144	C	1.681743	1.104745	1.568810
C145	C	1.015064	0.438104	0.810828
C146	C	1.348398	0.771438	1.144162
C147	C	1.681731	1.104771	1.477495
H148	H	0.614578	0.512241	0.511922
H149	H	0.947911	0.845574	0.845256
H150	H	1.281245	1.178908	1.178589
H151	H	0.416150	0.551576	0.551135
H152	H	0.749484	0.884909	0.884469
H153	H	1.082817	1.218242	1.217802
H154	H	0.283075	0.545054	0.544643
H155	H	0.616409	0.878387	0.877976
H156	H	0.949742	1.211720	1.211310
O157	O	0.533528	0.513707	0.513598
O158	O	0.866862	0.847041	0.846932
O159	O	1.200195	1.180374	1.180265
C160	C	0.555995	0.554162	0.651771
C161	C	0.889328	0.887496	0.985104
C162	C	1.222662	1.220829	1.318438
C163	C	0.515640	0.495421	0.593145
C164	C	0.848973	0.828754	0.926478
C165	C	1.182307	1.162087	1.259812
H166	H	0.541536	0.539409	0.716096
H167	H	0.874869	0.872743	1.049429
H168	H	1.208202	1.206076	1.382762
H169	H	0.614726	0.548162	0.645862
H170	H	0.948059	0.881495	0.979195
H171	H	1.281393	1.214828	1.312529
H172	H	0.541561	0.618449	0.636745
H173	H	0.874895	0.951782	0.970078
H174	H	1.208228	1.285115	1.303412
H175	H	0.530015	0.431110	0.608133
H176	H	0.863348	0.764443	0.941467
H177	H	1.196681	1.097776	1.274800
H178	H	0.456919	0.501491	0.599065
H179	H	0.790252	0.834825	0.932398
H180	H	1.123585	1.168158	1.265732
O181	O	0.421922	0.356303	0.356682
O182	O	0.755255	0.689637	0.690015
O183	O	1.088588	1.022970	1.023349
C184	C	0.504794	0.251520	0.350070
C185	C	0.838128	0.584853	0.683404
C186	C	1.171461	0.918187	1.016737
C187	C	0.464451	0.306377	0.404690
C188	C	0.797785	0.639710	0.738024
C189	C	1.131118	0.973043	1.071357
H190	H	0.539200	0.211152	0.388862
H191	H	0.872534	0.544486	0.722196
H192	H	1.205867	0.877819	1.055529
H193	H	0.466010	0.212662	0.311400
H194	H	0.799343	0.545995	0.644734
H195	H	1.132676	0.879328	0.978067
H196	H	0.539077	0.290183	0.309503
H197	H	0.872411	0.623516	0.642836
H198	H	1.205744	0.956849	0.976169
H199	H	0.430167	0.267776	0.445307
H200	H	0.763501	0.601110	0.778640
H201	H	1.096834	0.934443	1.111973
H202	H	0.503274	0.345240	0.443306
H203	H	0.836607	0.678573	0.776639
H204	H	1.169941	1.011906	1.109972
H205	H	0.283056	0.357692	0.357882
H206	H	0.616389	0.691025	0.691215
H207	H	0.949722	1.024358	1.024549
H208	H	0.614545	0.324886	0.325160
H209	H	0.947879	0.658220	0.658493
H210	H	1.281212	0.991553	0.991826
H211	H	0.502894	0.371057	0.371182
H212	H	0.836227	0.704390	0.704515
H213	H	1.169560	1.037723	1.037848
H214	H	0.747622	0.331400	0.331651
H215	H	1.080955	0.664733	0.664984
H216	H	1.414288	0.998067	0.998317
H217	H	0.747642	0.518766	0.518411
H218	H	1.080976	0.852099	0.851744
H219	H	1.414309	1.185432	1.185077
