data_functionalizedCrystal
_audit_creation_method	'MofGen! by Chris Wilmer'
_symmetry_space_group_name_H-M	'P1'
_symmetry_Int_Tables_number	1
_symmetry_cell_setting	triclinic
loop_
_symmetry_equiv_pos_as_xyz
  x,y,z
_cell_length_a	16.120484
_cell_length_b	17.077404
_cell_length_c	17.077396
_cell_angle_alpha	90.021457
_cell_angle_beta	92.868746
_cell_angle_gamma	87.075241
loop_
_atom_site_label
_atom_site_type_symbol
_atom_site_fract_x
_atom_site_fract_y
_atom_site_fract_z
Zn1	Zn	-0.331927	-1.184193	-0.459715
Zn2	Zn	0.001406	-0.850860	-0.126381
Zn3	Zn	0.334740	-0.517526	0.206952
Zn4	Zn	-0.471351	-1.177438	-0.335098
Zn5	Zn	-0.138018	-0.844104	-0.001765
Zn6	Zn	0.195316	-0.510771	0.331568
Zn7	Zn	-0.331954	-1.052924	-0.328459
Zn8	Zn	0.001380	-0.719590	0.004874
Zn9	Zn	0.334713	-0.386257	0.338207
Zn10	Zn	-0.471299	-1.046233	-0.466315
Zn11	Zn	-0.137965	-0.712900	-0.132982
Zn12	Zn	0.195368	-0.379566	0.200352
O13	O	-0.401633	-1.115197	-0.397397
O14	O	-0.068299	-0.781863	-0.064063
O15	O	0.265034	-0.448530	0.269270
O16	O	-0.350433	-1.293143	-0.443200
O17	O	-0.017099	-0.959810	-0.109867
O18	O	0.316234	-0.626477	0.223467
O19	O	-0.452892	-1.160894	-0.224372
O20	O	-0.119559	-0.827560	0.108961
O21	O	0.213774	-0.494227	0.442295
O22	O	-0.215284	-1.075964	-0.340330
O23	O	0.118049	-0.742631	-0.006997
O24	O	0.451382	-0.409297	0.326337
O25	O	-0.452867	-1.288180	-0.351645
O26	O	-0.119533	-0.954847	-0.018312
O27	O	0.213800	-0.621514	0.315022
O28	O	-0.215265	-1.172407	-0.436763
O29	O	0.118068	-0.839074	-0.103429
O30	O	0.451402	-0.505741	0.229904
O31	O	-0.350478	-1.069414	-0.219495
O32	O	-0.017145	-0.736080	0.113839
O33	O	0.316189	-0.402747	0.447172
O34	O	-0.350427	-0.942190	-0.346730
O35	O	-0.017094	-0.608856	-0.013397
O36	O	0.316239	-0.275523	0.319937
O37	O	-0.452778	-1.064561	-0.575285
O38	O	-0.119444	-0.731227	-0.241951
O39	O	0.213889	-0.397894	0.091382
O40	O	-0.452804	-0.937274	-0.448012
O41	O	-0.119470	-0.603941	-0.114678
O42	O	0.213863	-0.270607	0.218655
O43	O	-0.350382	-1.165919	-0.570436
O44	O	-0.017049	-0.832586	-0.237102
O45	O	0.316285	-0.499253	0.096231
O46	O	-0.588010	-1.154406	-0.358045
O47	O	-0.254676	-0.821072	-0.024712
O48	O	0.078657	-0.487739	0.308622
O49	O	-0.587971	-1.058010	-0.454449
O50	O	-0.254638	-0.724677	-0.121116
O51	O	0.078695	-0.391343	0.212217
C52	C	-0.401613	-0.911250	-0.397367
C53	C	-0.068280	-0.577917	-0.064034
C54	C	0.265053	-0.244583	0.269299
C55	C	-0.401625	-0.824000	-0.397374
C56	C	-0.068292	-0.490666	-0.064041
C57	C	0.265042	-0.157333	0.269293
C58	C	-0.455012	-0.780467	-0.450033
C59	C	-0.121679	-0.447133	-0.116700
C60	C	0.211655	-0.113800	0.216633
C61	C	-0.455012	-0.698486	-0.450043
C62	C	-0.121679	-0.365153	-0.116710
C63	C	0.211655	-0.031819	0.216623
C64	C	-0.401629	-0.660040	-0.397389
C65	C	-0.068295	-0.326707	-0.064056
C66	C	0.265038	0.006627	0.269277
C67	C	-0.348236	-0.703579	-0.344727
C68	C	-0.014903	-0.370246	-0.011394
C69	C	0.318431	-0.036912	0.321939
C70	C	-0.348232	-0.785558	-0.344722
C71	C	-0.014899	-0.452225	-0.011389
C72	C	0.318434	-0.118891	0.321945
C73	C	-0.348249	-0.532708	-0.344741
C74	C	-0.014916	-0.199375	-0.011408
C75	C	0.318418	0.133958	0.321926
C76	C	-0.348253	-0.450723	-0.344745
C77	C	-0.014920	-0.117390	-0.011412
C78	C	0.318413	0.215943	0.321921
C79	C	-0.455029	-0.445636	-0.450062
C80	C	-0.121695	-0.112303	-0.116729
C81	C	0.211638	0.221030	0.216604
C82	C	-0.455025	-0.527615	-0.450057
C83	C	-0.121692	-0.194282	-0.116724
C84	C	0.211642	0.139051	0.216610
C85	C	-0.401633	-0.571149	-0.397394
C86	C	-0.068300	-0.237815	-0.064061
C87	C	0.265034	0.095518	0.269273
C88	C	-0.618241	-1.104770	-0.407701
C89	C	-0.284907	-0.771437	-0.074368
C90	C	0.048426	-0.438104	0.258966
C91	C	-0.710906	-1.100381	-0.412135
C92	C	-0.377573	-0.767048	-0.078802
C93	C	-0.044240	-0.433715	0.254531
C94	C	-0.880568	-1.092373	-0.420248
C95	C	-0.547235	-0.759040	-0.086914
C96	C	-0.213901	-0.425707	0.246419
C97	C	-0.921857	-1.138161	-0.374559
C98	C	-0.588523	-0.804828	-0.041225
C99	C	-0.255190	-0.471494	0.292108
C100	C	-1.016262	-1.133705	-0.379072
C101	C	-0.682929	-0.800372	-0.045739
C102	C	-0.349595	-0.467039	0.287594
C103	C	-0.786154	-1.096828	-0.415735
C104	C	-0.452821	-0.763495	-0.082402
C105	C	-0.119487	-0.430161	0.250932
C106	C	-0.184179	-1.125686	-0.387069
C107	C	0.149155	-0.792352	-0.053736
C108	C	0.482488	-0.459019	0.279597
C109	C	-0.091513	-1.130155	-0.382669
C110	C	0.241821	-0.796822	-0.049335
C111	C	0.575154	-0.463489	0.283998
C112	C	-0.401571	-1.115247	-0.602138
C113	C	-0.068238	-0.781914	-0.268805
C114	C	0.265096	-0.448581	0.064529
C115	C	-0.401545	-1.115269	-0.689387
C116	C	-0.068212	-0.781935	-0.356053
C117	C	0.265122	-0.448602	-0.022720
C118	C	-0.401647	-0.319940	-0.397418
C119	C	-0.068314	0.013393	-0.064085
C120	C	0.265019	0.346726	0.269249
C121	C	-0.401640	-0.407190	-0.397405
C122	C	-0.068307	-0.073857	-0.064071
C123	C	0.265026	0.259476	0.269262
C124	C	-0.348223	-1.168048	-0.727853
C125	C	-0.014890	-0.834715	-0.394520
C126	C	0.318444	-0.501382	-0.061186
C127	C	-0.348195	-1.168059	-0.809832
C128	C	-0.014862	-0.834726	-0.476499
C129	C	0.318471	-0.501392	-0.143166
C130	C	-0.401494	-1.115293	-0.853344
C131	C	-0.068161	-0.781960	-0.520011
C132	C	0.265172	-0.448627	-0.186677
C133	C	-0.454819	-1.062508	-0.814872
C134	C	-0.121485	-0.729175	-0.481539
C135	C	0.211848	-0.395842	-0.148205
C136	C	-0.454841	-1.062494	-0.732894
C137	C	-0.121508	-0.729161	-0.399561
C138	C	0.211825	-0.395828	-0.066227
C139	C	-0.454768	-1.062542	-0.985740
C140	C	-0.121435	-0.729209	-0.652406
C141	C	0.211898	-0.395876	-0.319073
C142	C	-0.454747	-1.062557	-1.067723
C143	C	-0.121413	-0.729224	-0.734390
C144	C	0.211920	-0.395890	-0.401057
C145	C	-0.348122	-1.168107	-1.062678
C146	C	-0.014789	-0.834774	-0.729345
C147	C	0.318544	-0.501440	-0.396011
C148	C	-0.348145	-1.168093	-0.980700
C149	C	-0.014812	-0.834760	-0.647367
C150	C	0.318521	-0.501426	-0.314033
C151	C	-0.401471	-1.115309	-0.942234
C152	C	-0.068137	-0.781975	-0.608900
C153	C	0.265196	-0.448642	-0.275567
C154	C	-0.401634	-1.115195	-0.193449
C155	C	-0.068300	-0.781861	0.139884
C156	C	0.265033	-0.448528	0.473218
C157	C	-0.401425	-1.115336	-0.106190
C158	C	-0.068092	-0.782003	0.227144
C159	C	0.265242	-0.448670	0.560477
H160	H	-0.498499	-0.558916	-0.492928
H161	H	-0.165165	-0.225582	-0.159595
H162	H	0.168168	0.107751	0.173738
Cl163	Cl	-0.521743	-0.996214	-1.122423
Cl164	Cl	-0.188410	-0.662880	-0.789089
Cl165	Cl	0.144924	-0.329547	-0.455756
Cl166	Cl	-0.522130	-0.828790	-0.516228
Cl167	Cl	-0.188797	-0.495457	-0.182894
Cl168	Cl	0.144536	-0.162124	0.150439
Cl169	Cl	-0.281196	-1.234447	-0.858188
Cl170	Cl	0.052138	-0.901113	-0.524855
Cl171	Cl	0.385471	-0.567780	-0.191521
Cl172	Cl	-0.522130	-0.643762	-0.516247
Cl173	Cl	-0.188797	-0.310429	-0.182913
Cl174	Cl	0.144537	0.022905	0.150420
H175	H	-0.498500	-0.410188	-0.492945
H176	H	-0.165166	-0.076854	-0.159611
H177	H	0.168167	0.256479	0.173722
Cl178	Cl	-0.281126	-0.587435	-0.278535
Cl179	Cl	0.052207	-0.254101	0.054798
Cl180	Cl	0.385540	0.079232	0.388132
H181	H	-0.916118	-1.049830	-0.462749
H182	H	-0.582785	-0.716496	-0.129416
H183	H	-0.249451	-0.383163	0.203918
H184	H	-0.498253	-1.019508	-0.701576
H185	H	-0.164920	-0.686175	-0.368242
H186	H	0.168413	-0.352842	-0.034909
Cl187	Cl	-0.281219	-1.234390	-0.673161
Cl188	Cl	0.052115	-0.901057	-0.339827
Cl189	Cl	0.385448	-0.567723	-0.006494
Cl190	Cl	-0.866970	-1.203847	-0.308930
Cl191	Cl	-0.533637	-0.870514	0.024404
Cl192	Cl	-0.200304	-0.537180	0.357737
H193	H	-0.304774	-0.419424	-0.301879
H194	H	0.028559	-0.086090	0.031455
H195	H	0.361892	0.247243	0.364788
Cl196	Cl	-0.521806	-0.996183	-0.937384
Cl197	Cl	-0.188473	-0.662849	-0.604050
Cl198	Cl	0.144860	-0.329516	-0.270717
Cl199	Cl	-0.281145	-1.234432	-0.926001
Cl200	Cl	0.052189	-0.901099	-0.592667
Cl201	Cl	0.385522	-0.567766	-0.259334
H202	H	-0.498212	-1.019543	-0.850306
H203	H	-0.164879	-0.686209	-0.516972
H204	H	0.168454	-0.352876	-0.183639
Cl205	Cl	-0.281120	-0.655247	-0.278538
Cl206	Cl	0.052214	-0.321913	0.054795
Cl207	Cl	0.385547	0.011420	0.388128
Cl208	Cl	-0.281112	-0.840286	-0.278521
Cl209	Cl	0.052221	-0.506953	0.054813
Cl210	Cl	0.385554	-0.173619	0.388146
Cl211	Cl	-0.281085	-1.234465	-1.111035
Cl212	Cl	0.052248	-0.901132	-0.777701
Cl213	Cl	0.385581	-0.567799	-0.444368
