data_functionalizedCrystal
_audit_creation_method	'MofGen! by Chris Wilmer'
_symmetry_space_group_name_H-M	'P1'
_symmetry_Int_Tables_number	1
_symmetry_cell_setting	triclinic
loop_
_symmetry_equiv_pos_as_xyz
  x,y,z
_cell_length_a	10.723024
_cell_length_b	15.944493
_cell_length_c	9.198806
_cell_angle_alpha	90.003291
_cell_angle_beta	89.996025
_cell_angle_gamma	83.971457
loop_
_atom_site_label
_atom_site_type_symbol
_atom_site_fract_x
_atom_site_fract_y
_atom_site_fract_z
O1	O	1.655664	0.117810	-0.120862
O2	O	1.292365	0.129087	-0.120865
O3	O	1.483973	0.001228	-0.120876
O4	O	1.464056	0.245670	-0.120852
O5	O	1.483956	0.001229	0.120909
O6	O	1.292349	0.129088	0.120920
O7	O	1.655647	0.117812	0.120923
Cu8	Cu	1.473996	0.123450	0.142998
Cu9	Cu	1.474016	0.123449	-0.142941
O10	O	1.464039	0.245671	0.120933
C11	C	1.245868	0.128267	0.000027
C12	C	1.107346	0.125812	0.000025
C13	C	0.916575	0.049543	0.000014
C14	C	1.059746	0.052079	0.000017
C15	C	1.483151	-0.030071	0.000011
C16	C	1.480710	-0.123334	-0.000008
C17	C	1.593495	-0.358448	0.000021
C18	C	1.532682	-0.409365	-0.119192
C19	C	1.476188	-0.294081	0.000010
C20	C	1.532639	-0.409340	0.119189
C21	C	1.471829	-0.459015	0.000033
C22	C	1.415407	-0.343769	-0.119301
C23	C	1.415381	-0.343741	0.119187
C24	C	1.354482	-0.394625	-0.000054
C25	C	1.478703	-0.199066	-0.000005
C26	C	1.469305	-0.554027	0.000038
C27	C	1.702144	0.118632	0.000028
C28	C	1.840667	0.121087	0.000020
C29	C	1.464862	0.276970	0.000044
C30	C	1.467302	0.370233	0.000053
N31	N	1.473992	0.123451	0.344112
C32	C	1.401872	0.074742	0.416338
C33	C	1.401887	0.074740	0.583750
N34	N	1.474021	0.123448	0.655946
H35	H	1.042128	0.187062	0.000024
C36	C	1.557442	0.179790	0.572059
C37	C	1.658870	0.139786	0.467359
C38	C	1.742291	0.196128	0.383460
C39	C	1.724285	0.292473	0.404260
C40	C	1.622853	0.332482	0.508965
C41	C	1.539432	0.276140	0.592864
H42	H	1.672203	0.068461	0.451957
H43	H	1.817378	0.166510	0.305951
H44	H	1.786038	0.334180	0.342153
H45	H	1.609520	0.403807	0.524367
H46	H	1.464345	0.305758	0.670373
H47	H	1.340146	0.033037	0.645863
H48	H	1.124971	-0.009167	0.000002
C49	C	0.861192	-0.035744	0.000010
C50	C	0.891244	-0.098501	0.125559
C51	C	0.835864	-0.183791	0.125557
C52	C	0.750431	-0.206323	0.000005
C53	C	0.720375	-0.143563	-0.125555
C54	C	0.775756	-0.058274	-0.125552
H55	H	0.954490	-0.081823	0.218509
H56	H	0.858114	-0.230249	0.218505
H57	H	0.709436	-0.269459	0.000003
H58	H	0.657129	-0.160241	-0.218504
H59	H	0.753505	-0.011816	-0.218500
H60	H	1.535740	0.165155	0.406217
H61	H	0.881672	0.184215	0.000036
C62	C	1.729994	-0.336544	-0.000133
C63	C	1.818247	-0.365924	-0.126429
C64	C	1.954741	-0.344017	-0.126590
C65	C	2.002982	-0.292731	-0.000455
C66	C	1.914728	-0.263348	0.125850
C67	C	1.778234	-0.285254	0.126012
H68	H	1.782537	-0.403892	-0.219810
H69	H	2.020072	-0.365769	-0.220091
H70	H	2.104023	-0.276514	-0.000575
H71	H	1.950437	-0.225380	0.219232
H72	H	1.712902	-0.263502	0.219512
C73	C	1.348508	-0.304989	0.255345
C74	C	1.337630	-0.208930	0.279543
C75	C	1.270772	-0.170177	0.415716
C76	C	1.214791	-0.227482	0.527691
C77	C	1.225667	-0.323546	0.503496
C78	C	1.292526	-0.362300	0.367324
H79	H	1.379072	-0.166505	0.196650
H80	H	1.262720	-0.099064	0.433625
H81	H	1.165298	-0.198794	0.628494
H82	H	1.184225	-0.365972	0.586390
H83	H	1.300577	-0.433413	0.349414
H84	H	1.582230	-0.438027	-0.219978
H85	H	1.253359	-0.410670	-0.000120
H86	H	1.365902	-0.315233	-0.220193
C87	C	1.318440	0.018405	0.332451
C88	C	1.378274	-0.049687	0.227755
C89	C	1.294839	-0.106025	0.143871
C90	C	1.151571	-0.094272	0.164684
C91	C	1.091729	-0.026176	0.269384
C92	C	1.175164	0.030162	0.353268
H93	H	1.484337	-0.058391	0.212345
H94	H	1.339139	-0.156434	0.066365
H95	H	1.089807	-0.135977	0.102588
H96	H	0.985666	-0.017473	0.284795
H97	H	1.130864	0.080571	0.430775
H98	H	1.582197	-0.437987	0.219968
