data_functionalizedCrystal
_audit_creation_method	'MofGen! by Chris Wilmer'
_symmetry_space_group_name_H-M	'P1'
_symmetry_Int_Tables_number	1
_symmetry_cell_setting	triclinic
loop_
_symmetry_equiv_pos_as_xyz
  x,y,z
_cell_length_a	19.288864
_cell_length_b	9.065218
_cell_length_c	8.140239
_cell_angle_alpha	90.001330
_cell_angle_beta	90.015309
_cell_angle_gamma	84.076066
loop_
_atom_site_label
_atom_site_type_symbol
_atom_site_fract_x
_atom_site_fract_y
_atom_site_fract_z
O1	O	0.922774	0.184027	0.137135
O2	O	0.720706	0.208852	0.137022
O3	O	0.825917	-0.018349	0.137077
O4	O	0.817564	0.411228	0.137079
O5	O	0.825914	-0.018351	-0.136150
O6	O	0.720703	0.208851	-0.136206
O7	O	0.922771	0.184025	-0.136092
Zn8	Zn	0.821736	0.196438	-0.179530
Zn9	Zn	0.821741	0.196440	0.180459
O10	O	0.817560	0.411227	-0.136148
C11	C	0.694822	0.208053	0.000394
C12	C	0.617700	0.205655	0.000351
C13	C	0.574039	0.338966	0.000377
C14	C	0.501574	0.336713	0.000395
C15	C	0.472774	0.201141	0.000420
C16	C	0.516445	0.067812	0.000384
C17	C	0.588908	0.070069	0.000349
C18	C	0.363686	0.094567	0.096198
C19	C	0.291224	0.092317	0.096243
C20	C	0.249274	0.194176	0.000519
C21	C	0.279794	0.298311	-0.095228
C22	C	0.352257	0.300568	-0.095263
C23	C	0.394201	0.198680	0.000456
C24	C	0.127038	0.325054	0.000563
C25	C	0.054572	0.322796	0.000571
C26	C	0.069445	0.053891	0.000576
C27	C	0.141909	0.056153	0.000552
C28	C	0.170701	0.191739	0.000553
C29	C	0.825112	-0.073309	0.000466
C30	C	0.822712	-0.237067	0.000472
C31	C	0.948655	0.184825	0.000539
C32	C	1.025777	0.187222	0.000593
C33	C	0.818365	0.466186	0.000467
C34	C	0.820765	0.629945	0.000471
N35	N	0.821738	0.196435	-0.425212
N36	N	0.821744	0.196430	0.426141
H37	H	0.045997	-0.056494	0.000698
H38	H	0.397836	0.011618	0.174158
C39	C	0.484771	-0.081316	0.000414
H40	H	0.521156	-0.160392	0.000382
H41	H	0.456832	-0.087788	0.095709
H42	H	0.456793	-0.087783	-0.094863
C43	C	0.605710	0.488100	0.000369
H44	H	0.655120	0.470356	0.000359
H45	H	0.590760	0.542980	-0.094900
H46	H	0.590798	0.542961	0.095673
H47	H	0.019024	0.431359	0.000583
C48	C	0.453538	0.483361	0.000449
H49	H	0.481064	0.564432	0.000459
H50	H	0.424936	0.488086	-0.094808
H51	H	0.424986	0.488046	0.095765
H52	H	0.177459	-0.052404	0.000539
H53	H	0.266380	0.007529	0.174213
H54	H	0.377104	0.385354	-0.173229
H55	H	0.624457	-0.038493	0.000329
H56	H	0.245640	0.381255	-0.173177
H57	H	0.150482	0.435456	0.000540
