data_functionalizedCrystal
_audit_creation_method	'MofGen! by Chris Wilmer'
_symmetry_space_group_name_H-M	'P1'
_symmetry_Int_Tables_number	1
_symmetry_cell_setting	triclinic
loop_
_symmetry_equiv_pos_as_xyz
  x,y,z
_cell_length_a	15.944551
_cell_length_b	23.532357
_cell_length_c	15.021413
_cell_angle_alpha	89.998468
_cell_angle_beta	89.997174
_cell_angle_gamma	83.163515
loop_
_atom_site_label
_atom_site_type_symbol
_atom_site_fract_x
_atom_site_fract_y
_atom_site_fract_z
O1	O	1.113891	0.073444	-0.073950
O2	O	1.447224	0.406777	0.259383
O3	O	1.780557	0.740111	0.592716
O4	O	0.869262	0.082500	-0.073974
O5	O	1.202596	0.415833	0.259359
O6	O	1.535929	0.749166	0.592693
O7	O	0.998975	-0.004933	-0.073943
O8	O	1.332308	0.328400	0.259390
O9	O	1.665642	0.661733	0.592724
O10	O	0.984178	0.160877	-0.073981
O11	O	1.317511	0.494210	0.259352
O12	O	1.650844	0.827544	0.592686
O13	O	0.998954	-0.004921	0.074121
O14	O	1.332288	0.328413	0.407454
O15	O	1.665621	0.661746	0.740788
O16	O	0.869242	0.082512	0.074090
O17	O	1.202575	0.415846	0.407424
O18	O	1.535908	0.749179	0.740757
O19	O	1.113870	0.073456	0.074114
O20	O	1.447203	0.406790	0.407447
O21	O	1.780537	0.740123	0.740781
Zn22	Zn	0.991552	0.077986	0.097611
Zn23	Zn	1.324886	0.411320	0.430944
Zn24	Zn	1.658219	0.744653	0.764277
Zn25	Zn	0.991580	0.077970	-0.097470
Zn26	Zn	1.324913	0.411303	0.235863
Zn27	Zn	1.658246	0.744637	0.569196
O28	O	0.984157	0.160889	0.074083
O29	O	1.317490	0.494223	0.407416
O30	O	1.650824	0.827556	0.740750
C31	C	0.837961	0.082130	0.000056
C32	C	1.171295	0.415463	0.333389
C33	C	1.504628	0.748797	0.666722
C34	C	0.744725	0.081003	0.000047
C35	C	1.078058	0.414336	0.333381
C36	C	1.411392	0.747670	0.666714
C37	C	0.998595	-0.026145	0.000092
C38	C	1.331928	0.307188	0.333425
C39	C	1.665261	0.640522	0.666758
C40	C	0.997482	-0.089368	0.000100
C41	C	1.330815	0.243965	0.333433
C42	C	1.664148	0.577299	0.666767
C43	C	0.530363	0.024114	0.000078
C44	C	0.863696	0.357447	0.333411
C45	C	1.197029	0.690781	0.666744
C46	C	0.469123	0.050525	-0.072932
C47	C	0.802456	0.383858	0.260401
C48	C	1.135790	0.717192	0.593735
C49	C	0.574017	0.078964	0.000058
C50	C	0.907350	0.412297	0.333392
C51	C	1.240683	0.745631	0.666725
C52	C	0.469125	0.050550	0.073048
C53	C	0.802458	0.383884	0.406381
C54	C	1.135792	0.717217	0.739714
C55	C	0.409121	0.076990	0.000073
C56	C	0.742455	0.410324	0.333406
C57	C	1.075788	0.743657	0.666740
C58	C	0.514005	0.105390	-0.073011
C59	C	0.847339	0.438724	0.260322
C60	C	1.180672	0.772057	0.593655
C61	C	0.514014	0.105408	0.073034
C62	C	0.847347	0.438741	0.406367
C63	C	1.180680	0.772075	0.739700
C64	C	0.452791	0.131859	0.000006
C65	C	0.786125	0.465192	0.333340
C66	C	1.119458	0.798526	0.666673
C67	C	0.669009	0.080099	0.000049
C68	C	1.002343	0.413433	0.333383
C69	C	1.335676	0.746766	0.666716
C70	C	0.314130	0.075859	0.000076
C71	C	0.647463	0.409193	0.333409
C72	C	0.980797	0.742526	0.666742
C73	C	0.990507	-0.481413	-0.080659
C74	C	1.323840	-0.148080	0.252675
C75	C	1.657174	0.185254	0.586008
C76	C	0.989449	-0.540817	-0.080664
C77	C	1.322783	-0.207483	0.252670
C78	C	1.656116	0.125850	0.586003
O79	O	0.988883	-0.571541	-0.149304
O80	O	1.322216	-0.238208	0.184029
O81	O	1.655550	0.095126	0.517362
N82	N	0.988913	-0.570523	0.000045
N83	N	1.322247	-0.237190	0.333378
N84	N	1.655580	0.096144	0.666712
C85	C	0.989427	-0.540822	0.080764
C86	C	1.322760	-0.207489	0.414097
C87	C	1.656094	0.125845	0.747431
O88	O	0.988873	-0.571544	0.149413
O89	O	1.322206	-0.238211	0.482746
O90	O	1.655540	0.095122	0.816079
C91	C	0.990479	-0.481419	0.080768
C92	C	1.323812	-0.148086	0.414102
C93	C	1.657145	0.185248	0.747435
C94	C	0.991023	-0.451716	0.000054
C95	C	1.324356	-0.118383	0.333388
C96	C	1.657690	0.214950	0.666721
C97	C	0.991050	-0.451710	-0.161366
C98	C	1.324384	-0.118377	0.171967
C99	C	1.657717	0.214956	0.505301
C100	C	0.992110	-0.392311	-0.161360
C101	C	1.325443	-0.058978	0.171973
C102	C	1.658776	0.274356	0.505306
C103	C	0.992626	-0.362614	-0.080647
C104	C	1.325959	-0.029281	0.252686
C105	C	1.659292	0.304052	0.586019
C106	C	0.992082	-0.392317	0.000060
C107	C	1.325416	-0.058984	0.333393
C108	C	1.658749	0.274350	0.666727
C109	C	0.990986	-0.451719	0.161486
C110	C	1.324319	-0.118385	0.494820
C111	C	1.657653	0.214948	0.828153
C112	C	0.992037	-0.392312	0.161484
C113	C	1.325371	-0.058978	0.494817
C114	C	1.658704	0.274355	0.828150
C115	C	0.992582	-0.362609	0.080770
C116	C	1.325915	-0.029276	0.414103
C117	C	1.659248	0.304058	0.747436
C118	C	0.993658	-0.303221	0.080778
C119	C	1.326991	0.030112	0.414112
C120	C	1.660324	0.363445	0.747445
N121	N	0.994193	-0.273515	0.000070
N122	N	1.327527	0.059819	0.333403
N123	N	1.660860	0.393152	0.666736
C124	C	0.993677	-0.303211	-0.080643
C125	C	1.327011	0.030122	0.252690
C126	C	1.660344	0.363455	0.586023
C127	C	0.987217	-0.665572	0.080749
C128	C	1.320550	-0.332239	0.414082
C129	C	1.653883	0.001095	0.747416
C130	C	0.986171	-0.724975	0.080746
C131	C	1.319504	-0.391641	0.414079
C132	C	1.652838	-0.058308	0.747412
C133	C	0.986192	-0.724965	-0.080682
C134	C	1.319525	-0.391632	0.252651
C135	C	1.652858	-0.058298	0.585984
C136	C	0.987243	-0.665562	-0.080678
C137	C	1.320577	-0.332229	0.252655
C138	C	1.653910	0.001105	0.585988
C139	C	0.987752	-0.635866	0.000040
C140	C	1.321086	-0.302532	0.333374
C141	C	1.654419	0.030801	0.666707
C142	C	0.995903	-0.178469	-0.080626
C143	C	1.329236	0.154865	0.252708
C144	C	1.662570	0.488198	0.586041
C145	C	0.996966	-0.119064	-0.080613
C146	C	1.330299	0.214269	0.252720
C147	C	1.663632	0.547602	0.586054
C148	C	0.996940	-0.119079	0.080815
C149	C	1.330274	0.214254	0.414148
C150	C	1.663607	0.547588	0.747481
C151	C	0.995882	-0.178478	0.080803
C152	C	1.329215	0.154855	0.414136
C153	C	1.662549	0.488188	0.747469
C154	C	0.995360	-0.208172	0.000075
C155	C	1.328694	0.125162	0.333409
C156	C	1.662027	0.458495	0.666742
O157	O	0.994221	-0.272459	0.149384
O158	O	1.327554	0.060874	0.482717
O159	O	1.660887	0.394208	0.816050
O160	O	0.994220	-0.272481	-0.149280
O161	O	1.327553	0.060852	0.184053
O162	O	1.660887	0.394186	0.517386
C163	C	1.145171	0.073826	0.000083
C164	C	1.478504	0.407159	0.333416
C165	C	1.811838	0.740493	0.666749
C166	C	1.238407	0.074953	0.000085
C167	C	1.571741	0.408287	0.333418
C168	C	1.905074	0.741620	0.666752
C169	C	0.984538	0.182101	0.000046
C170	C	1.317871	0.515434	0.333380
C171	C	1.651204	0.848768	0.666713
C172	C	0.985650	0.245324	0.000032
C173	C	1.318984	0.578657	0.333366
C174	C	1.652317	0.911991	0.666699
N175	N	0.991540	0.077997	0.230748
N176	N	1.324873	0.411331	0.564081
N177	N	1.658207	0.744664	0.897415
N178	N	0.991599	0.077954	-0.230608
N179	N	1.324932	0.411288	0.102725
N180	N	1.658265	0.744621	0.436059
C181	C	0.931552	0.118407	0.470417
C182	C	1.264885	0.451741	0.803750
C183	C	1.598219	0.785074	1.137084
C184	C	1.007356	0.129464	0.529756
C185	C	1.340689	0.462797	0.863089
C186	C	1.674023	0.796130	1.196423
C187	C	0.991562	0.077983	0.412355
C188	C	1.324895	0.411316	0.745688
C189	C	1.658228	0.744650	1.079022
C190	C	0.915778	0.066939	0.529758
C191	C	1.249111	0.400272	0.863091
C192	C	1.582445	0.733606	1.196425
C193	C	0.991576	0.077971	0.587779
C194	C	1.324909	0.411304	0.921112
C195	C	1.658242	0.744637	1.254446
C196	C	1.067404	0.089065	0.470387
C197	C	1.400737	0.422398	0.803721
C198	C	1.734071	0.755732	1.137054
C199	C	0.975776	0.026518	0.470384
C200	C	1.309109	0.359852	0.803718
C201	C	1.642443	0.693185	1.137051
C202	C	1.051635	0.037553	0.529696
C203	C	1.384969	0.370886	0.863030
C204	C	1.718302	0.704220	1.196363
C205	C	0.991552	0.077992	0.311298
C206	C	1.324886	0.411325	0.644631
C207	C	1.658219	0.744658	0.977964
C208	C	0.991594	0.077961	0.688834
C209	C	1.324927	0.411295	1.022168
C210	C	1.658260	0.744628	1.355501
H211	H	0.564091	-0.021407	-0.000002
H212	H	0.897425	0.311926	0.333331
H213	H	1.230758	0.645260	0.666664
H214	H	0.992439	-0.368135	0.227216
H215	H	1.325772	-0.034802	0.560549
H216	H	1.659106	0.298532	0.893883
H217	H	0.990544	-0.475892	0.227213
H218	H	1.323878	-0.142559	0.560546
H219	H	1.657211	0.190774	0.893879
H220	H	1.020721	0.172981	0.555835
H221	H	1.354054	0.506314	0.889168
H222	H	1.687387	0.839648	1.222501
H223	H	0.992550	-0.368132	-0.227086
H224	H	1.325883	-0.034799	0.106247
H225	H	1.659216	0.298535	0.439581
F226	F	0.990501	-0.483307	-0.247279
F227	F	1.323834	-0.149973	0.086054
F228	F	1.657167	0.183360	0.419387
H229	H	0.419237	0.177427	-0.000045
H230	H	0.752570	0.510760	0.333289
H231	H	1.085903	0.844094	0.666622
F232	F	0.540055	0.135713	0.153702
F233	F	0.873388	0.469047	0.487036
F234	F	1.206721	0.802380	0.820369
H235	H	0.997411	-0.094883	-0.146343
H236	H	1.330744	0.238450	0.186991
H237	H	1.664078	0.571783	0.520324
H238	H	0.995447	-0.202664	0.146526
H239	H	1.328780	0.130669	0.479860
H240	H	1.662113	0.464003	0.813193
H241	H	0.880854	0.152620	0.444390
H242	H	1.214188	0.485954	0.777723
H243	H	1.547521	0.819287	1.111056
H244	H	0.962388	-0.016985	0.444285
H245	H	1.295721	0.316348	0.777618
H246	H	1.629054	0.649682	1.110951
F247	F	0.985607	-0.756581	0.166652
F248	F	1.318940	-0.423248	0.499986
F249	F	1.652273	-0.089915	0.833319
F250	F	0.987821	-0.633955	-0.166584
F251	F	1.321154	-0.300622	0.166749
F252	F	1.654488	0.032711	0.500083
F253	F	0.443124	0.020222	0.153724
F254	F	0.776458	0.353556	0.487058
F255	F	1.109791	0.686889	0.820391
F256	F	1.151200	0.101333	0.436447
F257	F	1.484534	0.434667	0.769780
F258	F	1.817867	0.768000	1.103114
F259	F	0.997491	-0.087463	0.166711
F260	F	1.330825	0.245870	0.500044
F261	F	1.664158	0.579203	0.833377
F262	F	0.995348	-0.210062	-0.166545
F263	F	1.328681	0.123271	0.166789
F264	F	1.662014	0.456605	0.500122
F265	F	1.118045	-0.007139	0.563508
F266	F	1.451378	0.326194	0.896841
F267	F	1.784711	0.659528	1.230175
F268	F	0.832002	0.054736	0.563847
F269	F	1.165336	0.388069	0.897181
F270	F	1.498669	0.721403	1.230514
F271	F	0.985637	-0.756580	-0.166585
F272	F	1.318970	-0.423247	0.166748
F273	F	1.652304	-0.089913	0.500082
H274	H	0.449223	0.027321	-0.134646
H275	H	0.782557	0.360654	0.198687
H276	H	1.115890	0.693987	0.532021
F277	F	0.539875	0.135684	-0.153778
F278	F	0.873208	0.469017	0.179555
F279	F	1.206542	0.802351	0.512889
H280	H	0.987634	-0.641397	0.146484
H281	H	1.320967	-0.308064	0.479817
H282	H	1.654300	0.025269	0.813150
