data_functionalizedCrystal
_audit_creation_method	'MofGen! by Chris Wilmer'
_symmetry_space_group_name_H-M	'P1'
_symmetry_Int_Tables_number	1
_symmetry_cell_setting	triclinic
loop_
_symmetry_equiv_pos_as_xyz
  x,y,z
_cell_length_a	15.455425
_cell_length_b	9.065218
_cell_length_c	9.065218
_cell_angle_alpha	85.015885
_cell_angle_beta	87.050760
_cell_angle_gamma	87.036466
loop_
_atom_site_label
_atom_site_type_symbol
_atom_site_fract_x
_atom_site_fract_y
_atom_site_fract_z
O1	O	0.072128	-1.966244	-0.222170
O2	O	0.072129	-1.536960	-0.239917
O3	O	0.072127	-1.760475	-0.016401
O4	O	0.072130	-1.742729	-0.445686
O5	O	-0.072133	-1.748769	-0.004767
O6	O	-0.072131	-1.525254	-0.228283
O7	O	-0.072132	-1.954539	-0.210536
Cu8	Cu	-0.085303	-1.738828	-0.218347
Cu9	Cu	0.085301	-1.752671	-0.232106
O10	O	-0.072129	-1.731023	-0.434052
C11	C	-0.000001	-1.476120	-0.232394
C12	C	-0.000000	-1.312277	-0.227294
N13	N	-0.205297	-1.729102	-0.208669
C14	C	-0.000002	-1.752917	0.044403
C15	C	0.000003	-1.747818	0.208245
C16	C	-0.749295	-1.675404	-0.154718
C17	C	-0.658488	-1.682751	-0.162094
C18	C	-0.613094	-1.777094	-0.256532
C19	C	-0.658512	-1.864108	-0.343589
C20	C	-0.749317	-1.856769	-0.336205
C21	C	-0.341519	-1.808776	-0.288342
C22	C	-0.250708	-1.816106	-0.295723
C23	C	-0.250691	-1.634749	-0.114225
C24	C	-0.341497	-1.627412	-0.106855
C25	C	-0.386907	-1.714431	-0.193906
N26	N	-0.520276	-1.784603	-0.264077
N27	N	-0.479724	-1.706930	-0.186352
N28	N	0.205294	-1.762408	-0.241772
C29	C	0.000000	-2.015378	-0.218059
C30	C	0.000005	-2.179222	-0.223159
C31	C	0.000001	-1.738582	-0.494856
C32	C	0.000003	-1.743681	-0.658699
H33	H	-0.786248	-1.598572	-0.077824
O34	O	-0.206745	-1.907885	-0.387495
C35	C	-0.266295	-1.983091	-0.462774
H36	H	-0.331010	-1.985673	-0.396547
H37	H	-0.240043	-2.101353	-0.475685
H38	H	-0.275986	-1.923062	-0.576961
H39	H	-0.378481	-1.879632	-0.359226
O40	O	-0.614511	-1.598082	-0.077482
C41	C	-0.674048	-1.513259	0.007474
H42	H	-0.738789	-1.500227	-0.048231
H43	H	-0.647819	-1.399233	0.016115
H44	H	-0.683679	-1.571723	0.123233
H45	H	-0.378451	-1.550589	-0.029951
O46	O	-0.206484	-1.550159	-0.029877
C47	C	-0.154003	-1.454884	-0.122705
H48	H	-0.140416	-1.503346	-0.233941
H49	H	-0.090139	-1.442823	-0.068346
H50	H	-0.189014	-1.341443	-0.140892
H51	H	-0.621545	-1.940932	-0.420476
H52	H	-0.786289	-1.927617	-0.407093
