data_functionalizedCrystal
_audit_creation_method	'MofGen! by Chris Wilmer'
_symmetry_space_group_name_H-M	'P1'
_symmetry_Int_Tables_number	1
_symmetry_cell_setting	triclinic
loop_
_symmetry_equiv_pos_as_xyz
  x,y,z
_cell_length_a	12.594517
_cell_length_b	17.077404
_cell_length_c	17.077396
_cell_angle_alpha	90.019501
_cell_angle_beta	89.979999
_cell_angle_gamma	89.993141
loop_
_atom_site_label
_atom_site_type_symbol
_atom_site_fract_x
_atom_site_fract_y
_atom_site_fract_z
Zn1	Zn	0.423736	1.200143	0.443889
Zn2	Zn	0.601736	1.200088	0.312642
Zn3	Zn	0.423773	1.068875	0.312637
Zn4	Zn	0.601673	1.068880	0.443866
O5	O	0.512730	1.134497	0.378259
O6	O	0.447359	1.309983	0.426491
O7	O	0.578171	1.182657	0.202795
O8	O	0.274822	1.086309	0.330055
O9	O	0.578135	1.309942	0.330064
O10	O	0.274795	1.182751	0.426485
O11	O	0.447422	1.086255	0.202791
O12	O	0.447361	0.959029	0.330033
O13	O	0.578027	1.086318	0.553716
O14	O	0.578064	0.959033	0.426446
O15	O	0.447297	1.182756	0.553733
O16	O	0.750674	1.182662	0.330042
O17	O	0.750627	1.086264	0.426452
C18	C	0.512710	0.930549	0.378237
C19	C	0.512728	0.843299	0.378246
C20	C	0.235109	1.134536	0.378272
C21	C	0.116803	1.134553	0.378278
C22	C	0.580887	0.802331	0.428368
C23	C	0.580889	0.720351	0.428381
C24	C	0.512737	0.679340	0.378267
C25	C	0.444570	0.720313	0.328143
C26	C	0.444563	0.802292	0.328135
C27	C	0.444591	0.549443	0.328162
C28	C	0.444599	0.467458	0.328168
C29	C	0.580917	0.467502	0.428408
C30	C	0.580910	0.549481	0.428400
C31	C	0.512745	0.590449	0.378274
C32	C	0.047535	1.187002	0.430730
C33	C	-0.023226	1.206183	0.359119
C34	C	-0.023234	1.115396	0.449893
C35	C	0.047600	1.153772	0.306629
C36	C	0.047598	1.062951	0.397452
C37	C	-0.023131	1.082105	0.325791
C38	C	0.789271	1.134479	0.378262
C39	C	0.907576	1.134543	0.378290
C40	C	0.512651	1.134544	0.583003
C41	C	0.512618	1.134564	0.670253
C42	C	0.512750	1.339241	0.378281
C43	C	0.512758	1.426491	0.378290
C44	C	0.512731	1.134494	0.174311
C45	C	0.512464	1.134626	0.087061
C46	C	0.444541	1.184782	0.711253
C47	C	0.444506	1.184791	0.793234
C48	C	0.512553	1.134587	0.834212
C49	C	0.580633	1.084364	0.793206
C50	C	0.580662	1.084351	0.711227
C51	C	0.580569	1.084395	0.964076
C52	C	0.580541	1.084409	1.046061
C53	C	0.444412	1.184835	1.046083
C54	C	0.444442	1.184823	0.964104
C55	C	0.512523	1.134601	0.923103
H56	H	0.636412	0.582870	0.469203
C57	C	0.655855	0.847437	0.483496
H58	H	0.696440	0.811293	0.513353
H59	H	0.702178	0.879403	0.453413
H60	H	0.615187	0.879431	0.517746
C61	C	0.655930	0.675290	0.483467
H62	H	0.696546	0.711456	0.513290
H63	H	0.615339	0.643303	0.517739
H64	H	0.702237	0.643318	0.453338
C65	C	0.089442	1.175753	0.224796
H66	H	0.031221	1.184897	0.190643
H67	H	0.131417	1.221823	0.228417
H68	H	0.131491	1.134089	0.204837
H69	H	-0.054350	1.099198	0.510451
H70	H	-0.053964	1.037747	0.281389
H71	H	0.635949	1.043526	1.079424
C72	C	0.089670	0.981184	0.419389
H73	H	0.065461	0.967653	0.470311
H74	H	0.064424	0.943789	0.382654
H75	H	0.165092	0.981672	0.418755
C76	C	0.369683	1.240004	0.666183
H77	H	0.329126	1.269906	0.702346
H78	H	0.410405	1.274197	0.634204
H79	H	0.323312	1.209969	0.634204
C80	C	0.369626	1.240034	0.838331
H81	H	0.329115	1.269939	0.802184
H82	H	0.323231	1.210022	0.870308
H83	H	0.410344	1.274236	0.870314
C84	C	0.369536	1.240087	1.091179
H85	H	0.379258	1.232904	1.145872
H86	H	0.385142	1.292820	1.077748
H87	H	0.298016	1.228617	1.077750
H88	H	0.389037	1.225708	0.930741
H89	H	0.636417	0.434142	0.469224
C90	C	0.655486	1.029138	0.838277
H91	H	0.696027	0.999224	0.802115
H92	H	0.701854	1.059164	0.870259
H93	H	0.614749	0.994944	0.870253
H94	H	0.389090	0.434069	0.287370
C95	C	0.655573	1.029131	0.666127
H96	H	0.696109	0.999243	0.702272
H97	H	0.614887	0.994925	0.634134
H98	H	0.701960	1.059168	0.634159
C99	C	0.369590	0.847360	0.273002
H100	H	0.379338	0.902057	0.280180
H101	H	0.385072	0.833903	0.220242
H102	H	0.298094	0.833931	0.284585
H103	H	0.635991	1.043487	0.930697
C104	C	0.369606	0.594506	0.273028
H105	H	0.329023	0.558341	0.243178
H106	H	0.323280	0.626500	0.303109
H107	H	0.410264	0.626469	0.238770
H108	H	-0.054335	1.266731	0.342901
H109	H	0.389074	0.686915	0.287342
H110	H	0.078564	1.231394	0.475026
