data_functionalizedCrystal
_audit_creation_method	'MofGen! by Chris Wilmer'
_symmetry_space_group_name_H-M	'P1'
_symmetry_Int_Tables_number	1
_symmetry_cell_setting	triclinic
loop_
_symmetry_equiv_pos_as_xyz
  x,y,z
_cell_length_a	6.817900
_cell_length_b	7.190334
_cell_length_c	16.255699
_cell_angle_alpha	89.349550
_cell_angle_beta	103.489404
_cell_angle_gamma	60.611776
loop_
_atom_site_label
_atom_site_type_symbol
_atom_site_fract_x
_atom_site_fract_y
_atom_site_fract_z
V1	V	-4.223188	0.665700	-0.115738
O2	O	-4.206716	0.652300	0.006951
O3	O	-4.173598	0.661847	-0.230825
O4	O	-4.260347	0.955715	-0.113349
O5	O	-4.119366	0.356397	-0.111339
V6	V	-4.695883	0.628620	-0.101135
O7	O	-4.508197	0.747038	-0.147771
O8	O	-4.861071	0.547282	-0.069102
O9	O	-4.522266	0.632473	0.013952
O10	O	-4.829752	0.642020	-0.223824
O11	O	-4.917102	0.937923	-0.105534
O12	O	-4.435517	0.338605	-0.103525
C13	C	-4.015541	0.651526	-0.258900
C14	C	-4.056853	0.650309	-0.352981
C15	C	-4.126209	1.026381	-0.109043
C16	C	-4.239964	1.267931	-0.107827
C17	C	-3.963318	0.636366	-0.575836
C18	C	-3.996249	0.464499	-0.623804
C19	C	-4.132627	0.648185	-0.525240
C20	C	-4.173338	0.817905	-0.644909
C21	C	-4.205810	0.646141	-0.691633
C22	C	-4.164940	0.476188	-0.571959
C23	C	-4.342079	0.829751	-0.593069
C24	C	-4.375118	0.657850	-0.641012
C25	C	-4.090461	0.649360	-0.429384
C26	C	-4.247983	0.644951	-0.787486
C27	C	-4.343664	0.642788	0.042022
C28	C	-4.281594	0.644019	0.136103
H29	H	-3.788750	0.627074	-0.547352
C30	C	-4.159476	0.280883	-0.529178
H31	H	-4.132953	0.282771	-0.469245
H32	H	-4.304978	0.288019	-0.552019
H33	H	-4.037075	0.151354	-0.539863
H34	H	-4.549616	0.666877	-0.669327
H35	H	-3.850477	0.310059	-0.637724
H36	H	-4.177222	0.962277	-0.676683
H37	H	-4.487775	0.984190	-0.579127
