data_functionalizedCrystal
_audit_creation_method	'MofGen! by Chris Wilmer'
_symmetry_space_group_name_H-M	'P1'
_symmetry_Int_Tables_number	1
_symmetry_cell_setting	triclinic
loop_
_symmetry_equiv_pos_as_xyz
  x,y,z
_cell_length_a	19.805407
_cell_length_b	13.032721
_cell_length_c	19.805399
_cell_angle_alpha	97.155902
_cell_angle_beta	89.980427
_cell_angle_gamma	97.204665
loop_
_atom_site_label
_atom_site_type_symbol
_atom_site_fract_x
_atom_site_fract_y
_atom_site_fract_z
Zn1	Zn	1.000535	-0.416068	-0.416943
Zn2	Zn	1.500535	0.083932	0.083057
Zn3	Zn	0.986084	-0.590828	-0.318130
Zn4	Zn	1.486084	-0.090828	0.181870
Zn5	Zn	0.887347	-0.416097	-0.303770
Zn6	Zn	1.387347	0.083903	0.196230
Zn7	Zn	0.872952	-0.590772	-0.431272
Zn8	Zn	1.372952	-0.090772	0.068728
O9	O	0.936729	-0.503441	-0.367529
O10	O	1.436729	-0.003441	0.132471
O11	O	1.093333	-0.439261	-0.403849
O12	O	1.593333	0.060739	0.096151
O13	O	0.972963	-0.567684	-0.221512
O14	O	1.472963	-0.067684	0.278488
O15	O	0.914433	-0.269853	-0.306777
O16	O	1.414433	0.230147	0.193223
O17	O	1.082717	-0.567656	-0.331251
O18	O	1.582717	-0.067656	0.168749
O19	O	0.997592	-0.269832	-0.389925
O20	O	1.497592	0.230168	0.110075
O21	O	0.900421	-0.439310	-0.210962
O22	O	1.400421	0.060690	0.289038
O23	O	0.790722	-0.439257	-0.320671
O24	O	1.290722	0.060743	0.179329
O25	O	0.889899	-0.567562	-0.524085
O26	O	1.389899	-0.067562	-0.024085
O27	O	0.780146	-0.567590	-0.414346
O28	O	1.280146	-0.067590	0.085654
O29	O	0.983634	-0.439207	-0.513558
O30	O	1.483634	0.060793	-0.013558
O31	O	0.959005	-0.737060	-0.345145
O32	O	1.459005	-0.237060	0.154855
O33	O	0.875887	-0.737019	-0.428270
O34	O	1.375887	-0.237019	0.071730
C35	C	0.760875	-0.503421	-0.367506
C36	C	1.260875	-0.003421	0.132494
C37	C	0.685642	-0.503438	-0.367514
C38	C	1.185642	-0.003438	0.132486
C39	C	0.914334	-0.774958	-0.389835
C40	C	1.414334	-0.274958	0.110165
C41	C	0.904816	-0.891114	-0.399401
C42	C	1.404816	-0.391114	0.100599
C43	C	0.644800	-0.570361	-0.416228
C44	C	1.144800	-0.070361	0.083772
C45	C	0.574112	-0.570363	-0.416238
C46	C	1.074112	-0.070363	0.083762
C47	C	0.544265	-0.503446	-0.367529
C48	C	1.044265	-0.003446	0.132471
C49	C	0.585113	-0.436515	-0.318812
C50	C	1.085113	0.063485	0.181188
C51	C	0.655800	-0.436508	-0.318806
C52	C	1.155800	0.063492	0.181194
C53	C	0.300037	-0.436538	-0.318836
C54	C	0.800037	0.063462	0.181164
C55	C	0.229344	-0.436551	-0.318845
C56	C	0.729344	0.063449	0.181155
C57	C	0.218349	-0.570393	-0.416269
C58	C	0.718349	-0.070393	0.083731
C59	C	0.289036	-0.570386	-0.416262
C60	C	0.789036	-0.070386	0.083738
C61	C	0.329878	-0.503452	-0.367548
C62	C	0.829878	-0.003452	0.132452
C63	C	0.406526	-0.503449	-0.367538
C64	C	0.906526	-0.003449	0.132462
C65	C	0.467618	-0.503453	-0.367535
C66	C	0.967618	-0.003453	0.132465
C67	C	0.941733	-0.942886	-0.362567
C68	C	1.441733	-0.442886	0.137433
C69	C	0.931896	-1.062939	-0.372453
C70	C	1.431896	-0.562939	0.127547
C71	C	1.113270	-0.503462	-0.367553
C72	C	1.613270	-0.003462	0.132447
C73	C	1.188502	-0.503471	-0.367563
C74	C	1.688502	-0.003471	0.132437
C75	C	0.936773	-0.503375	-0.544066
C76	C	1.436773	-0.003375	-0.044066
C77	C	0.936791	-0.503347	-0.619296
C78	C	1.436791	-0.003347	-0.119296
C79	C	0.959230	-0.230864	-0.345151
C80	C	1.459230	0.269136	0.154849
C81	C	0.968819	-0.114708	-0.335614
C82	C	1.468819	0.385292	0.164386
C83	C	0.985600	-0.436510	-0.649160
C84	C	1.485600	0.063490	-0.149160
C85	C	0.985609	-0.436479	-0.719846
C86	C	1.485609	0.063521	-0.219846
C87	C	0.936813	-0.503293	-0.760667
C88	C	1.436813	-0.003293	-0.260667
C89	C	0.887999	-0.570133	-0.730799
C90	C	1.387999	-0.070133	-0.230799
C91	C	0.887987	-0.570157	-0.660114
C92	C	1.387987	-0.070157	-0.160114
C93	C	0.888045	-0.570036	-1.015865
C94	C	1.388045	-0.070036	-0.515865
C95	C	0.888062	-0.570008	-1.086555
C96	C	1.388062	-0.070008	-0.586555
C97	C	0.985668	-0.436358	-1.075596
C98	C	1.485668	0.063642	-0.575596
C99	C	0.985656	-0.436382	-1.004911
C100	C	1.485656	0.063618	-0.504911
C101	C	0.936840	-0.503218	-0.975049
C102	C	1.436840	-0.003218	-0.475049
C103	C	0.936830	-0.503249	-0.898403
C104	C	1.436830	-0.003249	-0.398403
C105	C	0.936825	-0.503268	-0.837312
C106	C	1.436825	-0.003268	-0.337312
C107	C	0.936731	-0.503431	-0.191672
C108	C	1.436731	-0.003431	0.308328
C109	C	0.936868	-0.503165	-0.116419
C110	C	1.436868	-0.003165	0.383581
H111	H	0.669095	-0.624857	-0.455891
H112	H	1.169095	-0.124857	0.044109
H113	H	0.333282	-0.382044	-0.279165
H114	H	0.833282	0.117956	0.220835
H115	H	0.313333	-0.624881	-0.455924
H116	H	0.813333	-0.124881	0.044076
H117	H	1.007714	-1.070157	-0.296761
H118	H	1.507714	-0.570157	0.203239
H119	H	0.540861	-0.624860	-0.455906
H120	H	1.040861	-0.124860	0.044094
Br121	Br	0.544609	-0.345687	-0.252712
Br122	Br	1.044609	0.154313	0.247288
H123	H	1.025338	-0.382106	-0.615927
H124	H	1.525338	0.117894	-0.115927
H125	H	0.185087	-0.624890	-0.455937
H126	H	0.685087	-0.124890	0.044063
Br127	Br	0.821794	-0.660740	-0.975346
Br128	Br	1.321794	-0.160740	-0.475346
Br129	Br	1.051880	-0.345816	-0.760376
Br130	Br	1.551880	0.154184	-0.260376
Br131	Br	1.051886	-0.345710	-0.949514
Br132	Br	1.551886	0.154290	-0.449514
Br133	Br	0.821740	-0.660862	-0.619584
Br134	Br	1.321740	-0.160862	-0.119584
H135	H	1.025414	-0.381933	-1.099918
H136	H	1.525414	0.118067	-0.599918
H137	H	0.865929	-0.935669	-0.438256
H138	H	1.365929	-0.435669	0.061744
H139	H	0.848322	-0.624418	-1.119791
H140	H	1.348322	-0.124418	-0.619791
H141	H	0.848265	-0.624530	-0.764042
H142	H	1.348265	-0.124530	-0.264042
H143	H	0.689054	-0.382007	-0.279140
H144	H	1.189054	0.117993	0.220860
Br145	Br	0.188839	-0.345729	-0.252735
Br146	Br	0.688839	0.154271	0.247265
Br147	Br	0.867078	-1.137186	-0.437221
Br148	Br	1.367078	-0.637186	0.062779
H149	H	0.980626	-0.898333	-0.323717
H150	H	1.480626	-0.398333	0.176283
