data_functionalizedCrystal
_audit_creation_method	'MofGen! by Chris Wilmer'
_symmetry_space_group_name_H-M	'P1'
_symmetry_Int_Tables_number	1
_symmetry_cell_setting	triclinic
loop_
_symmetry_equiv_pos_as_xyz
  x,y,z
_cell_length_a	10.723024
_cell_length_b	6.394989
_cell_length_c	9.198806
_cell_angle_alpha	90.000201
_cell_angle_beta	89.996352
_cell_angle_gamma	94.517210
loop_
_atom_site_label
_atom_site_type_symbol
_atom_site_fract_x
_atom_site_fract_y
_atom_site_fract_z
O1	O	1.660298	-0.293022	-0.120873
O2	O	1.297443	-0.321070	-0.120877
O3	O	1.484021	-0.003055	-0.120876
O4	O	1.473720	-0.611036	-0.120874
O5	O	1.484006	-0.003054	0.120909
O6	O	1.297428	-0.321069	0.120908
O7	O	1.660282	-0.293021	0.120912
Cu8	Cu	1.478854	-0.307045	0.142987
Cu9	Cu	1.478872	-0.307046	-0.142952
O10	O	1.473705	-0.611035	0.120911
C11	C	1.250914	-0.319028	0.000015
C12	C	1.112295	-0.312921	0.000013
C13	C	1.039201	-0.490865	0.000013
C14	C	0.895931	-0.484558	0.000011
C15	C	1.706811	-0.295062	0.000017
C16	C	1.845430	-0.301169	0.000010
C17	C	1.481977	0.074796	0.000011
C18	C	1.475752	0.311120	0.000010
N19	N	1.478850	-0.307043	0.344101
N20	N	1.478885	-0.307031	-0.344066
C21	C	1.557183	-0.172929	0.416299
C22	C	1.557202	-0.172922	0.583711
H23	H	0.833115	-0.636892	0.000005
H24	H	0.908239	-0.148827	0.000001
H25	H	1.411796	-0.421850	0.406229
H26	H	1.624270	-0.058109	0.645797
C27	C	1.172084	-0.717593	-0.124274
C28	C	1.097895	-0.702843	0.000016
H29	H	1.208310	-0.848469	-0.124272
H30	H	1.236500	-0.606783	-0.124261
H31	H	1.121749	-0.707565	-0.208582
H32	H	1.148232	-0.712856	0.084325
H33	H	1.033471	-0.813684	0.000017
H34	H	1.068806	-0.155907	-0.000025
C35	C	1.315936	-0.586059	0.670944
C36	C	1.388345	-0.462057	0.572142
H37	H	1.260048	-0.681772	0.619203
H38	H	1.269481	-0.498720	0.730314
H39	H	1.369178	-0.661811	0.730307
H40	H	1.335104	-0.386293	0.512786
H41	H	1.434803	-0.549408	0.512746
H42	H	1.624228	-0.058105	0.354173
