data_functionalizedCrystal
_audit_creation_method	'MofGen! by Chris Wilmer'
_symmetry_space_group_name_H-M	'P1'
_symmetry_Int_Tables_number	1
_symmetry_cell_setting	triclinic
loop_
_symmetry_equiv_pos_as_xyz
  x,y,z
_cell_length_a	17.077404
_cell_length_b	19.121063
_cell_length_c	17.077396
_cell_angle_alpha	92.408800
_cell_angle_beta	89.980499
_cell_angle_gamma	92.469213
loop_
_atom_site_label
_atom_site_type_symbol
_atom_site_fract_x
_atom_site_fract_y
_atom_site_fract_z
Zn1	Zn	1.186697	-0.279610	-0.457152
Zn2	Zn	1.520031	0.053724	-0.123818
Zn3	Zn	1.853364	0.387057	0.209515
Zn4	Zn	1.180993	-0.397067	-0.331476
Zn5	Zn	1.514327	-0.063733	0.001857
Zn6	Zn	1.847660	0.269600	0.335190
Zn7	Zn	1.055428	-0.279634	-0.325901
Zn8	Zn	1.388761	0.053699	0.007433
Zn9	Zn	1.722095	0.387032	0.340766
Zn10	Zn	1.049788	-0.397025	-0.462698
Zn11	Zn	1.383121	-0.063692	-0.129365
Zn12	Zn	1.716455	0.269642	0.203969
O13	O	1.118227	-0.338334	-0.394307
O14	O	1.451560	-0.005001	-0.060973
O15	O	1.784893	0.328333	0.272360
O16	O	1.295787	-0.295198	-0.440493
O17	O	1.629121	0.038136	-0.107159
O18	O	1.962454	0.371469	0.226174
O19	O	1.164310	-0.381517	-0.220891
O20	O	1.497643	-0.048184	0.112442
O21	O	1.830977	0.285150	0.445776
O22	O	1.077589	-0.181347	-0.338657
O23	O	1.410922	0.151987	-0.005324
O24	O	1.744255	0.485320	0.328010
O25	O	1.291597	-0.381493	-0.348160
O26	O	1.624930	-0.048160	-0.014826
O27	O	1.958263	0.285174	0.318507
O28	O	1.174032	-0.181328	-0.435086
O29	O	1.507365	0.152005	-0.101753
O30	O	1.840698	0.485338	0.231580
O31	O	1.072058	-0.295240	-0.216795
O32	O	1.405391	0.038094	0.116539
O33	O	1.738724	0.371427	0.449872
O34	O	0.944833	-0.295199	-0.344035
O35	O	1.278167	0.038134	-0.010702
O36	O	1.611500	0.371467	0.322632
O37	O	1.067976	-0.381422	-0.571808
O38	O	1.401309	-0.048089	-0.238475
O39	O	1.734643	0.285245	0.094859
O40	O	0.940690	-0.381446	-0.444539
O41	O	1.274023	-0.048112	-0.111206
O42	O	1.607356	0.285221	0.222127
O43	O	1.168563	-0.295157	-0.567733
O44	O	1.501896	0.038176	-0.234400
O45	O	1.835229	0.371509	0.098934
O46	O	1.158841	-0.495346	-0.353538
O47	O	1.492175	-0.162012	-0.020204
O48	O	1.825508	0.171321	0.313129
O49	O	1.062445	-0.495315	-0.449946
O50	O	1.395779	-0.161982	-0.116612
O51	O	1.729112	0.171351	0.216721
C52	C	0.914279	-0.338321	-0.394284
C53	C	1.247613	-0.004988	-0.060951
C54	C	1.580946	0.328345	0.272382
C55	C	0.827029	-0.338333	-0.394294
C56	C	1.160362	-0.004999	-0.060961
C57	C	1.493696	0.328334	0.272372
C58	C	0.783899	-0.383309	-0.446550
C59	C	1.117232	-0.049976	-0.113216
C60	C	1.450565	0.283358	0.220117
C61	C	0.701918	-0.383311	-0.446562
C62	C	1.035251	-0.049977	-0.113229
C63	C	1.368585	0.283356	0.220104
C64	C	0.663069	-0.338339	-0.394315
C65	C	0.996403	-0.005005	-0.060982
C66	C	1.329736	0.328328	0.272352
C67	C	0.706206	-0.293358	-0.342057
C68	C	1.039539	0.039976	-0.008724
C69	C	1.372872	0.373309	0.324609
C70	C	0.788185	-0.293353	-0.342049
C71	C	1.121518	0.039980	-0.008716
C72	C	1.454852	0.373314	0.324618
C73	C	0.535335	-0.293371	-0.342077
C74	C	0.868668	0.039962	-0.008744
C75	C	1.202002	0.373295	0.324590
C76	C	0.453350	-0.293377	-0.342084
C77	C	0.786684	0.039957	-0.008751
C78	C	1.120017	0.373290	0.324583
C79	C	0.449068	-0.383329	-0.446590
C80	C	0.782402	-0.049996	-0.113257
C81	C	1.115735	0.283338	0.220077
C82	C	0.531047	-0.383324	-0.446582
C83	C	0.864381	-0.049991	-0.113248
C84	C	1.197714	0.283342	0.220085
C85	C	0.574178	-0.338344	-0.394323
C86	C	0.907511	-0.005011	-0.060989
C87	C	1.240845	0.328323	0.272344
C88	C	1.109434	-0.520815	-0.402966
C89	C	1.442767	-0.187481	-0.069632
C90	C	1.776100	0.145852	0.263701
C91	C	1.105744	-0.598881	-0.406696
C92	C	1.439077	-0.265547	-0.073363
C93	C	1.772410	0.067786	0.259970
C94	C	1.154237	-0.635549	-0.358296
C95	C	1.487571	-0.302215	-0.024963
C96	C	1.820904	0.031118	0.308371
C97	C	1.150772	-0.708900	-0.361809
C98	C	1.484105	-0.375567	-0.028476
C99	C	1.817438	-0.042233	0.304857
C100	C	1.098808	-0.745582	-0.413719
C101	C	1.432141	-0.412248	-0.080386
C102	C	1.765474	-0.078915	0.252947
C103	C	1.050312	-0.708908	-0.462125
C104	C	1.383645	-0.375575	-0.128792
C105	C	1.716979	-0.042242	0.204542
C106	C	1.053782	-0.635558	-0.458615
C107	C	1.387116	-0.302225	-0.125282
C108	C	1.720449	0.031108	0.208052
C109	C	1.085821	-0.967052	-0.426830
C110	C	1.419154	-0.633718	-0.093496
C111	C	1.752487	-0.300385	0.239837
C112	C	1.082353	-1.040407	-0.430334
C113	C	1.415686	-0.707073	-0.097001
C114	C	1.749019	-0.373740	0.236333
C115	C	1.182814	-1.040393	-0.330019
C116	C	1.516147	-0.707060	0.003314
C117	C	1.849480	-0.373726	0.336647
C118	C	1.186276	-0.967042	-0.326511
C119	C	1.519609	-0.633708	0.006823
C120	C	1.852943	-0.300375	0.340156
C121	C	1.137783	-0.930375	-0.374919
C122	C	1.471117	-0.597042	-0.041586
C123	C	1.804450	-0.263708	0.291748
C124	C	1.095262	-0.820559	-0.417310
C125	C	1.428596	-0.487225	-0.083977
C126	C	1.761929	-0.153892	0.249357
C127	C	1.141333	-0.855399	-0.371332
C128	C	1.474667	-0.522066	-0.037998
C129	C	1.808000	-0.188733	0.295335
C130	C	1.322970	-0.338347	-0.394329
C131	C	1.656304	-0.005014	-0.060996
C132	C	1.989637	0.328319	0.272337
C133	C	1.410220	-0.338353	-0.394339
C134	C	1.743553	-0.005020	-0.061006
C135	C	2.076886	0.328314	0.272327
C136	C	1.118277	-0.338282	-0.599049
C137	C	1.451610	-0.004949	-0.265715
C138	C	1.784943	0.328384	0.067618
C139	C	1.118298	-0.338260	-0.686297
C140	C	1.451631	-0.004927	-0.352964
C141	C	1.784965	0.328406	-0.019631
C142	C	1.127075	-0.155141	-0.385631
C143	C	1.460409	0.178193	-0.052298
C144	C	1.793742	0.511526	0.281036
C145	C	1.130846	-0.077075	-0.381934
C146	C	1.464180	0.256259	-0.048601
C147	C	1.797513	0.589592	0.284733
C148	C	1.170675	-0.293338	-0.725167
C149	C	1.504009	0.039995	-0.391833
C150	C	1.837342	0.373328	-0.058500
C151	C	1.170686	-0.293315	-0.807146
C152	C	1.504019	0.040018	-0.473813
C153	C	1.837353	0.373352	-0.140480
C154	C	1.118322	-0.338217	-0.850255
C155	C	1.451656	-0.004884	-0.516921
C156	C	1.784989	0.328449	-0.183588
C157	C	1.065939	-0.383141	-0.811380
C158	C	1.399272	-0.049808	-0.478046
C159	C	1.732606	0.283526	-0.144713
C160	C	1.065925	-0.383160	-0.729402
C161	C	1.399259	-0.049827	-0.396068
C162	C	1.732592	0.283506	-0.062735
C163	C	1.065973	-0.383099	-0.982248
C164	C	1.399306	-0.049766	-0.648915
C165	C	1.732639	0.283568	-0.315581
C166	C	1.065987	-0.383081	-1.064232
C167	C	1.399321	-0.049747	-0.730898
C168	C	1.732654	0.283586	-0.397565
C169	C	1.170733	-0.293254	-1.059992
C170	C	1.504067	0.040080	-0.726659
C171	C	1.837400	0.373413	-0.393326
C172	C	1.170720	-0.293273	-0.978014
C173	C	1.504053	0.040060	-0.644681
C174	C	1.837386	0.373394	-0.311348
C175	C	1.118337	-0.338198	-0.939145
C176	C	1.451671	-0.004864	-0.605812
C177	C	1.785004	0.328469	-0.272478
C178	C	1.118224	-0.338335	-0.190359
C179	C	1.451558	-0.005001	0.142974
C180	C	1.784891	0.328332	0.476308
C181	C	1.118365	-0.338159	-0.103101
C182	C	1.451698	-0.004826	0.230232
C183	C	1.785031	0.328508	0.563566
H184	H	0.413947	-0.419952	-0.489143
H185	H	0.747281	-0.086618	-0.155810
H186	H	1.080614	0.246715	0.177523
C187	C	1.228273	-0.243942	-0.677754
C188	C	1.561606	0.089392	-0.344421
C189	C	1.894940	0.422725	-0.011088
H190	H	1.259462	-0.217180	-0.712648
H191	H	1.592795	0.116154	-0.379314
H192	H	1.926129	0.449487	-0.045981
H193	H	1.261174	-0.270813	-0.647050
H194	H	1.594507	0.062520	-0.313716
H195	H	1.927841	0.395853	0.019617
H196	H	1.199709	-0.213343	-0.644324
H197	H	1.533043	0.119990	-0.310990
H198	H	1.866376	0.453323	0.022343
H199	H	1.213339	-0.256737	-0.838790
H200	H	1.546672	0.076596	-0.505457
H201	H	1.880005	0.409930	-0.172123
C202	C	1.228318	-0.243882	-0.930596
C203	C	1.561652	0.089451	-0.597263
C204	C	1.894985	0.422785	-0.263929
H205	H	1.259513	-0.217119	-0.965485
H206	H	1.592846	0.116214	-0.632151
H207	H	1.926179	0.449548	-0.298818
H208	H	1.261215	-0.270759	-0.899893
H209	H	1.594548	0.062574	-0.566560
H210	H	1.927881	0.395907	-0.233226
H211	H	1.199756	-0.213284	-0.897164
H212	H	1.533090	0.120049	-0.563831
H213	H	1.866423	0.453383	-0.230497
H214	H	0.666805	-0.419935	-0.489113
H215	H	1.000138	-0.086602	-0.155780
H216	H	1.333471	0.246731	0.177554
C217	C	0.993151	-0.749256	-0.519223
C218	C	1.326484	-0.415923	-0.185890
C219	C	1.659818	-0.082590	0.147444
H220	H	0.998023	-0.798193	-0.514376
H221	H	1.331356	-0.464860	-0.181043
H222	H	1.664689	-0.131526	0.152291
H223	H	1.005176	-0.737195	-0.571399
H224	H	1.338510	-0.403862	-0.238066
H225	H	1.671843	-0.070528	0.095268
H226	H	0.940981	-0.737279	-0.507106
H227	H	1.274314	-0.403946	-0.173773
H228	H	1.607647	-0.070612	0.159561
H229	H	1.014295	-0.605704	-0.498029
H230	H	1.347628	-0.272371	-0.164695
H231	H	1.680961	0.060963	0.168638
C232	C	1.008339	-0.432534	-0.858793
C233	C	1.341672	-0.099201	-0.525460
C234	C	1.675005	0.234133	-0.192127
H235	H	0.977138	-0.459286	-0.823900
H236	H	1.310471	-0.125953	-0.490567
H237	H	1.643804	0.207380	-0.157234
H238	H	1.036893	-0.463131	-0.892227
H239	H	1.370226	-0.129798	-0.558893
H240	H	1.703559	0.203536	-0.225560
H241	H	0.975437	-0.405653	-0.889494
H242	H	1.308771	-0.072320	-0.556161
H243	H	1.642104	0.261013	-0.222828
C244	C	0.826625	-0.432778	-0.504023
C245	C	1.159959	-0.099444	-0.170690
C246	C	1.493292	0.233889	0.162643
H247	H	0.789194	-0.459559	-0.535151
H248	H	1.122527	-0.126225	-0.201818
H249	H	1.455861	0.207108	0.131515
H250	H	0.857121	-0.463345	-0.475390
H251	H	1.190455	-0.130012	-0.142057
H252	H	1.523788	0.203322	0.191276
H253	H	0.859910	-0.405942	-0.537001
H254	H	1.193244	-0.072609	-0.203668
H255	H	1.526577	0.260725	0.129666
H256	H	1.183645	-0.825531	-0.329069
H257	H	1.516979	-0.492198	0.004264
H258	H	1.850312	-0.158864	0.337597
C259	C	0.582777	-0.243891	-0.284596
C260	C	0.916111	0.089442	0.048737
C261	C	1.249444	0.422775	0.382071
H262	H	0.547901	-0.217112	-0.253476
H263	H	0.881234	0.116221	0.079857
H264	H	1.214567	0.449555	0.413191
H265	H	0.616242	-0.213322	-0.313227
H266	H	0.949575	0.120011	0.020106
H267	H	1.282909	0.453344	0.353439
H268	H	0.613450	-0.270720	-0.251611
H269	H	0.946784	0.062613	0.081722
H270	H	1.280117	0.395946	0.415056
H271	H	1.023267	-0.419733	-0.697755
H272	H	1.356600	-0.086400	-0.364422
H273	H	1.689933	0.246933	-0.031088
H274	H	1.052952	-0.850433	-0.459574
H275	H	1.386285	-0.517100	-0.126240
H276	H	1.719618	-0.183766	0.207093
H277	H	1.190260	-0.738752	-0.322396
H278	H	1.523593	-0.405419	0.010937
H279	H	1.856927	-0.072085	0.344271
C280	C	0.835629	-0.243878	-0.284570
C281	C	1.168962	0.089455	0.048764
C282	C	1.502295	0.422789	0.382097
H283	H	0.800752	-0.217098	-0.253450
H284	H	1.134085	0.116235	0.079883
H285	H	1.467418	0.449568	0.413216
H286	H	0.869092	-0.213310	-0.313203
H287	H	1.202425	0.120023	0.020130
H288	H	1.535759	0.453357	0.353464
H289	H	0.866303	-0.270705	-0.251584
H290	H	1.199636	0.062628	0.081749
H291	H	1.532969	0.395961	0.415083
H292	H	1.023306	-0.419670	-0.950603
H293	H	1.356639	-0.086337	-0.617269
H294	H	1.689972	0.246996	-0.283936
C295	C	1.025190	-1.080759	-0.487435
C296	C	1.358523	-0.747425	-0.154101
C297	C	1.691856	-0.414092	0.179232
H298	H	1.030063	-1.129695	-0.482582
H299	H	1.363396	-0.796361	-0.149249
H300	H	1.696729	-0.463028	0.184085
H301	H	1.037215	-1.068702	-0.539612
H302	H	1.370549	-0.735369	-0.206279
H303	H	1.703882	-0.402035	0.127054
H304	H	0.973019	-1.068782	-0.475320
H305	H	1.306352	-0.735448	-0.141987
H306	H	1.639685	-0.402115	0.191346
C307	C	1.032467	-0.926727	-0.480063
C308	C	1.365801	-0.593394	-0.146730
C309	C	1.699134	-0.260060	0.186604
H310	H	1.001015	-0.959081	-0.511471
H311	H	1.334349	-0.625747	-0.178137
H312	H	1.667682	-0.292414	0.155196
H313	H	1.063820	-0.898066	-0.512927
H314	H	1.397153	-0.564732	-0.179594
H315	H	1.730487	-0.231399	0.153740
H316	H	0.999633	-0.898162	-0.448626
H317	H	1.332966	-0.564829	-0.115292
H318	H	1.666299	-0.231495	0.218041
H319	H	0.562675	-0.419948	-0.489122
H320	H	0.896009	-0.086615	-0.155788
H321	H	1.229342	0.246718	0.177545
H322	H	1.213384	-0.256673	-1.091644
H323	H	1.546717	0.076660	-0.758310
H324	H	1.880050	0.409994	-0.424977
C325	C	1.008385	-0.432468	-1.111650
C326	C	1.341718	-0.099135	-0.778316
C327	C	1.675051	0.234199	-0.444983
H328	H	0.977178	-0.459219	-1.076761
H329	H	1.310511	-0.125886	-0.743427
H330	H	1.643845	0.207447	-0.410094
H331	H	1.036937	-0.463066	-1.145084
H332	H	1.370270	-0.129733	-0.811750
H333	H	1.703603	0.203601	-0.478417
H334	H	0.975489	-0.405582	-1.142351
H335	H	1.308822	-0.072248	-0.809018
H336	H	1.642156	0.261085	-0.475684
H337	H	0.421722	-0.256748	-0.299549
H338	H	0.755056	0.076585	0.033785
H339	H	1.088389	0.409918	0.367118
H340	H	0.674569	-0.256738	-0.299520
H341	H	1.007902	0.076596	0.033813
H342	H	1.341235	0.409929	0.367147
C343	C	1.211399	-0.595205	-0.301196
C344	C	1.544733	-0.261872	0.032138
C345	C	1.878066	0.071462	0.365471
H346	H	1.239789	-0.627552	-0.272880
H347	H	1.573122	-0.294218	0.060454
H348	H	1.906456	0.039115	0.393787
H349	H	1.182747	-0.566634	-0.265597
H350	H	1.516080	-0.233301	0.067736
H351	H	1.849413	0.100033	0.401069
H352	H	1.246943	-0.566549	-0.329890
H353	H	1.580276	-0.233216	0.003443
H354	H	1.913609	0.100118	0.336777
C355	C	1.243441	-0.926697	-0.269415
C356	C	1.576775	-0.593364	0.063919
C357	C	1.910108	-0.260030	0.397252
H358	H	1.271832	-0.959041	-0.241096
H359	H	1.605165	-0.625708	0.092237
H360	H	1.938499	-0.292375	0.425570
H361	H	1.214787	-0.898125	-0.233818
H362	H	1.548120	-0.564792	0.099515
H363	H	1.881454	-0.231459	0.432849
H364	H	1.278984	-0.898041	-0.298110
H365	H	1.612317	-0.564707	0.035223
H366	H	1.945650	-0.231374	0.368557
H367	H	1.222295	-1.070255	-0.290609
H368	H	1.555628	-0.736922	0.042724
H369	H	1.888961	-0.403589	0.376058
