data_functionalizedCrystal
_audit_creation_method	'MofGen! by Chris Wilmer'
_symmetry_space_group_name_H-M	'P1'
_symmetry_Int_Tables_number	1
_symmetry_cell_setting	triclinic
loop_
_symmetry_equiv_pos_as_xyz
  x,y,z
_cell_length_a	13.897449
_cell_length_b	29.839131
_cell_length_c	13.897441
_cell_angle_alpha	90.042797
_cell_angle_beta	90.020733
_cell_angle_gamma	90.036508
loop_
_atom_site_label
_atom_site_type_symbol
_atom_site_fract_x
_atom_site_fract_y
_atom_site_fract_z
Zn1	Zn	1.474585	-0.178824	0.545299
Zn2	Zn	1.474430	-0.253959	0.383966
Zn3	Zn	1.313274	-0.178845	0.384018
Zn4	Zn	1.313207	-0.253929	0.545219
O5	O	1.393874	-0.216389	0.464626
O6	O	1.609546	-0.188794	0.523910
O7	O	1.453015	-0.244016	0.248992
O8	O	1.334766	-0.115975	0.405467
O9	O	1.609432	-0.243995	0.405380
O10	O	1.453280	-0.115959	0.523960
O11	O	1.334615	-0.188830	0.249029
O12	O	1.178284	-0.188802	0.405389
O13	O	1.334650	-0.243945	0.680211
O14	O	1.178234	-0.243966	0.523823
O15	O	1.453215	-0.188765	0.680270
O16	O	1.452950	-0.316822	0.405302
O17	O	1.334500	-0.316800	0.523773
C18	C	1.143260	-0.216383	0.464604
C19	C	1.036046	-0.216391	0.464617
C20	C	0.839750	-0.216393	0.464642
C21	C	0.948983	-0.216391	0.464626
C22	C	1.393727	-0.333112	0.464544
C23	C	1.393752	-0.383046	0.464542
C24	C	1.455571	-0.692646	0.526413
C25	C	1.455676	-0.880319	0.526471
O26	O	1.508092	-0.904548	0.579015
N27	N	1.394038	-0.903831	0.464733
C28	C	1.332365	-0.880422	0.402980
O29	O	1.279933	-0.904726	0.350476
C30	C	1.332256	-0.692750	0.402928
C31	C	1.393905	-0.669240	0.464663
C32	C	1.517214	-0.669137	0.588144
C33	C	1.517191	-0.622222	0.588125
C34	C	1.455525	-0.598816	0.526375
C35	C	1.393882	-0.622325	0.464644
C36	C	1.270579	-0.669341	0.341181
C37	C	1.270555	-0.622420	0.341175
C38	C	1.332204	-0.598911	0.402910
C39	C	1.332192	-0.552003	0.402876
N40	N	1.393830	-0.528492	0.464614
C41	C	1.455496	-0.551898	0.526364
C42	C	1.332428	-0.978952	0.403011
C43	C	1.332456	-1.025870	0.403022
C44	C	1.455766	-1.025765	0.526515
C45	C	1.455742	-0.978846	0.526497
C46	C	1.394065	-0.955441	0.464749
C47	C	1.455444	-0.453372	0.526319
C48	C	1.455418	-0.406452	0.526292
C49	C	1.332105	-0.406562	0.402804
C50	C	1.332134	-0.453477	0.402827
C51	C	1.393807	-0.476881	0.464592
O52	O	1.279796	-0.527746	0.350366
O53	O	1.507905	-0.527585	0.578874
C54	C	1.455594	-0.739562	0.526432
C55	C	1.393951	-0.763071	0.464701
C56	C	1.332285	-0.739665	0.402951
C57	C	1.393979	-0.809989	0.464712
C58	C	1.455645	-0.833395	0.526462
C59	C	1.517283	-0.809883	0.588200
C60	C	1.517260	-0.762968	0.588181
C61	C	1.270647	-0.763177	0.341213
C62	C	1.270676	-0.810092	0.341236
C63	C	1.332342	-0.833498	0.402986
C64	C	1.645467	-0.216395	0.464648
C65	C	1.752681	-0.216398	0.464658
C66	C	1.393942	-0.216349	0.716219
C67	C	1.393971	-0.216332	0.823433
C68	C	1.394048	-0.099211	0.464728
C69	C	1.394122	-0.049276	0.464772
C70	C	1.393861	-0.216396	0.214011
C71	C	1.394019	-0.216287	0.106798
C72	C	1.393998	-0.216302	1.019728
C73	C	1.393980	-0.216320	0.910495
H74	H	1.505623	-0.387312	0.576564
C75	C	1.215746	-0.550546	0.286313
C76	C	1.202758	-0.596693	0.273297
H77	H	1.173888	-0.534665	0.244411
H78	H	1.280550	-0.542838	0.272245
H79	H	1.201592	-0.542839	0.351111
H80	H	1.216920	-0.604401	0.208501
H81	H	1.137940	-0.604404	0.287358
H82	H	1.281942	-0.472620	0.352549
H83	H	1.281900	-0.387497	0.352524
H84	H	1.567460	-0.743830	0.638452
C85	C	1.572054	-0.881763	0.643052
C86	C	1.585064	-0.835618	0.656081
H87	H	1.613891	-0.897650	0.684964
H88	H	1.586216	-0.889469	0.578265
H89	H	1.507234	-0.889464	0.657108
H90	H	1.649883	-0.827916	0.642019
H91	H	1.570910	-0.827909	0.720883
C92	C	1.148672	-0.664712	0.219141
C93	C	1.202803	-0.695174	0.273326
H94	H	1.106823	-0.680661	0.177253
H95	H	1.190710	-0.646414	0.182275
H96	H	1.111760	-0.646408	0.261149
H97	H	1.239722	-0.713476	0.231317
H98	H	1.160760	-0.713480	0.310194
C99	C	1.468816	-0.506065	0.656119
C100	C	1.523235	-0.479094	0.594209
H101	H	1.510671	-0.521943	0.698031
H102	H	1.432121	-0.526783	0.619360
H103	H	1.426762	-0.487759	0.692966
H104	H	1.565284	-0.497401	0.557356
H105	H	1.559947	-0.458374	0.630972
H106	H	1.220475	-0.829229	0.290955
H107	H	1.220430	-0.744123	0.290930
C108	C	1.210556	-0.983780	0.280934
C109	C	1.264638	-0.953229	0.335119
H110	H	1.168713	-0.967900	0.239015
H111	H	1.173647	-1.002075	0.322934
H112	H	1.252632	-1.002078	0.244095
H113	H	1.222561	-0.934933	0.371965
H114	H	1.301549	-0.934926	0.293115
C115	C	1.639070	-0.626845	0.710195
C116	C	1.584950	-0.596384	0.655995
H117	H	1.680897	-0.610895	0.752102
H118	H	1.675996	-0.645144	0.668204
H119	H	1.597016	-0.645148	0.747049
H120	H	1.627003	-0.578083	0.619136
H121	H	1.548021	-0.578077	0.697992
C122	C	1.530602	-0.721834	0.717939
C123	C	1.585008	-0.694859	0.656026
H124	H	1.572465	-0.737709	0.759848
H125	H	1.493912	-0.742555	0.681182
H126	H	1.488544	-0.703531	0.754788
H127	H	1.627062	-0.713163	0.619171
H128	H	1.621715	-0.674137	0.692787
C129	C	1.202739	-1.078689	0.389514
C130	C	1.264695	-1.051709	0.335157
H131	H	1.160906	-1.094640	0.347617
H132	H	1.165820	-1.060383	0.431498
H133	H	1.239478	-1.099346	0.426282
H134	H	1.227956	-1.031049	0.298394
H135	H	1.301618	-1.070016	0.293156
H136	H	1.505978	-1.044830	0.576793
C137	C	1.577622	-0.983465	0.648568
C138	C	1.523496	-0.953007	0.594369
H139	H	1.619445	-0.967514	0.690476
H140	H	1.614553	-1.001762	0.606576
H141	H	1.535573	-1.001771	0.685420
H142	H	1.565545	-0.934703	0.557511
H143	H	1.486562	-0.934702	0.636366
