data_functionalizedCrystal
_audit_creation_method	'MofGen! by Chris Wilmer'
_symmetry_space_group_name_H-M	'P1'
_symmetry_Int_Tables_number	1
_symmetry_cell_setting	triclinic
loop_
_symmetry_equiv_pos_as_xyz
  x,y,z
_cell_length_a	14.853567
_cell_length_b	14.853567
_cell_length_c	13.330367
_cell_angle_alpha	90.000844
_cell_angle_beta	89.995418
_cell_angle_gamma	96.365070
loop_
_atom_site_label
_atom_site_type_symbol
_atom_site_fract_x
_atom_site_fract_y
_atom_site_fract_z
O1	O	1.196369	-0.117704	-0.083346
O2	O	0.933909	-0.131725	-0.083362
O3	O	1.072150	0.006515	-0.083356
O4	O	1.058128	-0.255944	-0.083351
O5	O	1.072130	0.006519	0.083491
O6	O	0.933889	-0.131722	0.083485
O7	O	1.196349	-0.117700	0.083501
Cu8	Cu	1.065117	-0.124711	0.098728
Cu9	Cu	1.065141	-0.124715	-0.098588
O10	O	1.058108	-0.255941	0.083496
C11	C	0.900311	-0.131088	0.000060
C12	C	0.800227	-0.129184	0.000053
C13	C	1.071504	0.040106	0.000064
C14	C	1.069601	0.140189	0.000055
C15	C	0.387693	-0.039019	0.000074
C16	C	0.366412	-0.203251	0.000076
C17	C	0.460446	-0.205042	0.000073
C18	C	0.518108	-0.123819	0.000069
C19	C	0.481736	-0.040806	0.000067
C20	C	0.496825	-0.288053	0.000064
C21	C	0.590864	-0.289846	0.000059
C22	C	0.648528	-0.208623	0.000062
C23	C	0.612150	-0.125607	0.000062
C24	C	0.669812	-0.044384	0.000058
C25	C	0.633437	0.038633	0.000065
C26	C	0.539399	0.040417	0.000070
C27	C	0.742565	-0.210407	0.000057
C28	C	0.763855	-0.046172	0.000052
C29	C	1.229947	-0.118337	0.000078
C30	C	1.330031	-0.120241	0.000078
C31	C	1.058754	-0.289531	0.000073
C32	C	1.060657	-0.389615	0.000075
N33	N	1.065107	-0.124708	0.237509
C34	C	0.979435	0.552723	0.000069
C35	C	1.143668	0.574004	0.000079
C36	C	1.145458	0.479971	0.000073
C37	C	1.064235	0.422309	0.000067
C38	C	0.981223	0.458680	0.000066
C39	C	1.228469	0.443591	0.000084
C40	C	1.230262	0.349552	0.000079
C41	C	1.149039	0.291889	0.000066
C42	C	1.066023	0.328266	0.000064
C43	C	0.984800	0.270604	0.000058
C44	C	0.901783	0.306979	0.000049
C45	C	0.899999	0.401017	0.000053
C46	C	1.150823	0.197851	0.000062
C47	C	0.986588	0.176561	0.000055
N48	N	1.065158	-0.124711	-0.237370
C49	C	1.003925	-0.185903	0.710130
C50	C	1.126381	-0.063519	0.710103
C51	C	1.126371	-0.063516	0.605084
C52	C	1.065138	-0.124709	0.552584
C53	C	1.003915	-0.185904	0.605102
C54	C	1.187598	-0.002328	0.552559
C55	C	1.187591	-0.002323	0.447534
C56	C	1.126353	-0.063512	0.395031
C57	C	1.065127	-0.124710	0.447556
C58	C	1.003895	-0.185902	0.395055
C59	C	0.942664	-0.247096	0.447578
C60	C	0.942677	-0.247093	0.552599
C61	C	1.126340	-0.063515	0.290010
C62	C	1.003884	-0.185903	0.290027
H63	H	0.810798	0.019971	0.000052
C64	C	1.233007	0.637424	0.000087
H65	H	1.282702	0.602293	0.000092
H66	H	1.235728	0.674556	-0.058092
H67	H	1.235716	0.674545	0.058281
H68	H	0.954070	-0.235724	0.752896
C69	C	1.254954	0.064969	0.389764
H70	H	1.246189	0.056198	0.319697
H71	H	1.245115	0.125164	0.406970
H72	H	1.315128	0.055040	0.406972
H73	H	0.911844	0.582344	0.000058
C74	C	1.193684	0.003786	0.232235
H75	H	1.184912	-0.004980	0.162168
H76	H	1.183831	0.063975	0.249452
H77	H	1.253864	-0.006128	0.249432
C78	C	1.242127	0.157836	0.000075
H79	H	1.231560	0.093573	0.000077
H80	H	1.275588	0.177624	-0.058101
H81	H	1.275560	0.177616	0.058273
C82	C	0.782580	-0.301711	0.000046
H83	H	0.846844	-0.291144	0.000037
H84	H	0.762793	-0.335164	0.058225
H85	H	0.762800	-0.335151	-0.058148
H86	H	0.620472	-0.357443	0.000053
H87	H	0.835652	0.260019	0.000051
C88	C	1.317807	0.507014	0.000090
H89	H	1.367503	0.471884	0.000104
H90	H	1.320529	0.544139	-0.058094
H91	H	1.320513	0.544140	0.058280
H92	H	0.509774	0.108005	0.000100
H93	H	0.358072	0.028572	0.000083
C94	C	0.875303	-0.314373	0.610370
H95	H	0.838817	-0.350803	0.564064
H96	H	0.907751	-0.351974	0.651350
H97	H	0.837754	-0.281834	0.651330
H98	H	0.954018	-0.235731	0.247288
C99	C	1.193731	0.003787	0.767850
H100	H	1.184966	-0.004974	0.837919
H101	H	1.253907	-0.006110	0.750624
H102	H	1.183858	0.063978	0.750645
H103	H	1.297860	0.319944	0.000085
H104	H	0.832411	0.430643	0.000046
C105	C	0.875313	-0.314405	0.389820
H106	H	0.884080	-0.305636	0.319752
H107	H	0.885172	-0.374594	0.407029
H108	H	0.815133	-0.304496	0.407035
C109	C	1.254944	0.064985	0.610304
H110	H	1.291412	0.101424	0.563984
H111	H	1.222467	0.102572	0.651274
H112	H	1.292515	0.032483	0.651270
C113	C	0.696870	0.127972	0.000061
H114	H	0.758083	0.115012	0.000059
H115	H	0.685834	0.162010	-0.058118
H116	H	0.685838	0.162003	0.058256
H117	H	0.449870	-0.354180	0.000057
C118	C	0.302988	-0.292588	0.000083
H119	H	0.241773	-0.279634	0.000092
H120	H	0.314027	-0.326628	-0.058097
H121	H	0.314024	-0.326615	0.058277
H122	H	0.920445	0.129618	0.000045
