data_functionalizedCrystal
_audit_creation_method	'MofGen! by Chris Wilmer'
_symmetry_space_group_name_H-M	'P1'
_symmetry_Int_Tables_number	1
_symmetry_cell_setting	triclinic
loop_
_symmetry_equiv_pos_as_xyz
  x,y,z
_cell_length_a	19.077105
_cell_length_b	18.050589
_cell_length_c	19.076919
_cell_angle_alpha	92.275255
_cell_angle_beta	90.076224
_cell_angle_gamma	87.724731
loop_
_atom_site_label
_atom_site_type_symbol
_atom_site_fract_x
_atom_site_fract_y
_atom_site_fract_z
Zn1	Zn	1.058247	-0.359281	-0.440438
Zn2	Zn	1.062879	-0.478689	-0.322938
Zn3	Zn	0.945466	-0.349333	-0.318231
Zn4	Zn	0.940701	-0.478241	-0.435691
O5	O	1.001823	-0.416386	-0.379325
O6	O	1.157193	-0.379472	-0.428809
O7	O	1.051237	-0.457554	-0.223983
O8	O	0.960482	-0.246731	-0.334459
O9	O	1.160596	-0.467201	-0.342482
O10	O	1.043342	-0.254040	-0.424244
O11	O	0.964973	-0.362516	-0.220524
O12	O	0.846502	-0.362082	-0.329856
O13	O	0.952361	-0.466437	-0.534652
O14	O	0.843002	-0.456790	-0.416153
O15	O	1.038722	-0.379038	-0.538140
O16	O	1.046617	-0.582551	-0.337879
O17	O	0.956853	-0.582222	-0.420717
C18	C	0.819256	-0.408308	-0.371979
C19	C	0.741152	-0.404871	-0.368853
C20	C	0.702657	-0.452635	-0.412244
C21	C	0.629270	-0.449396	-0.409310
C22	C	0.594379	-0.398396	-0.362981
C23	C	0.632879	-0.350627	-0.319588
C24	C	0.706264	-0.353863	-0.322526
C25	C	0.375093	-0.383419	-0.349388
C26	C	0.301702	-0.380188	-0.346452
C27	C	0.298098	-0.478956	-0.436175
C28	C	0.371485	-0.482191	-0.439105
C29	C	0.409979	-0.434419	-0.395715
N30	N	0.519366	-0.395085	-0.359980
N31	N	0.484990	-0.437727	-0.398721
C32	C	1.001739	-0.609334	-0.379310
C33	C	1.001766	-0.691882	-0.379329
C34	C	0.952999	-0.891182	-0.424363
C35	C	0.938449	-0.937256	-0.359556
C36	C	1.001835	-0.843016	-0.379341
C37	C	1.016419	-0.944025	-0.444157
C38	C	1.001900	-0.989004	-0.379358
C39	C	0.987253	-0.887999	-0.314499
C40	C	1.065250	-0.894768	-0.399145
C41	C	1.050726	-0.940818	-0.334295
C42	C	1.001796	-0.758915	-0.379332
C43	C	1.001939	-1.073102	-0.379360
C44	C	1.185104	-0.424496	-0.386700
C45	C	1.263207	-0.427952	-0.389843
C46	C	0.994493	-0.423797	-0.562605
C47	C	0.991370	-0.426955	-0.640709
C48	C	1.001926	-0.222686	-0.379356
C49	C	1.001970	-0.140143	-0.379369
C50	C	1.034863	-0.382937	-0.679219
C51	C	1.031920	-0.385901	-0.752605
C52	C	0.985486	-0.432888	-0.787479
C53	C	0.941988	-0.476908	-0.748964
C54	C	0.944928	-0.473940	-0.675579
C55	C	0.971867	-0.446642	-1.006761
C56	C	0.968931	-0.449609	-1.080151
C57	C	1.058863	-0.358601	-1.083787
C58	C	1.061802	-0.355639	-1.010401
C59	C	1.018301	-0.399657	-0.971892
N60	N	0.982478	-0.435921	-0.862492
N61	N	1.021307	-0.396619	-0.896881
C62	C	1.009165	-0.408952	-0.196759
C63	C	1.012425	-0.405591	-0.118661
H64	H	0.406425	-0.344525	-0.314051
N65	N	0.918849	-0.500293	-1.117769
H66	H	0.891737	-0.527727	-1.082239
H67	H	0.885131	-0.469855	-1.146915
H68	H	0.737606	-0.314965	-0.287196
H69	H	0.904177	-0.515163	-0.777365
N70	N	1.111887	-0.304963	-0.972787
H71	H	1.138994	-0.277526	-1.008319
H72	H	1.084524	-0.268098	-0.941191
N73	N	1.136227	-0.869869	-0.421354
H74	H	1.135801	-0.813877	-0.420733
H75	H	1.173220	-0.888789	-0.387856
N76	N	0.924927	-0.494107	-0.965249
H77	H	0.935287	-0.548170	-0.978449
H78	H	0.933833	-0.485042	-0.913478
H79	H	0.399888	-0.523722	-0.476830
H80	H	0.273296	-0.338649	-0.308729
H81	H	0.604465	-0.309099	-0.281869
N82	N	1.032724	-0.976480	-0.516752
H83	H	1.039651	-0.935037	-0.549802
H84	H	1.076940	-1.009047	-0.515158
N85	N	0.898228	-0.862309	-0.474721
H86	H	0.850365	-0.877667	-0.459674
H87	H	0.898954	-0.806391	-0.474669
H88	H	1.067339	-0.350058	-0.783957
H89	H	0.884851	-0.956052	-0.342820
H90	H	1.072677	-0.344677	-0.650829
N91	N	0.256578	-0.530469	-0.482979
H92	H	0.289817	-0.563267	-0.512774
H93	H	0.227256	-0.562290	-0.453103
N94	N	0.970860	-0.855674	-0.241876
H95	H	1.007536	-0.874143	-0.207826
H96	H	0.970903	-0.799748	-0.242385
N97	N	0.740287	-0.507647	-0.462209
H98	H	0.704762	-0.537413	-0.489252
H99	H	0.769453	-0.480133	-0.495996
N100	N	0.587750	-0.500922	-0.456100
H101	H	0.620989	-0.533728	-0.485888
H102	H	0.558433	-0.532734	-0.426210
H103	H	1.092055	-0.962470	-0.296183
H104	H	0.909504	-0.509777	-0.644225
N105	N	1.105778	-0.311126	-1.125321
H106	H	1.096871	-0.320133	-1.177102
H107	H	1.095382	-0.257086	-1.112060
