data_functionalizedCrystal
_audit_creation_method	'MofGen! by Chris Wilmer'
_symmetry_space_group_name_H-M	'P1'
_symmetry_Int_Tables_number	1
_symmetry_cell_setting	triclinic
loop_
_symmetry_equiv_pos_as_xyz
  x,y,z
_cell_length_a	16.959455
_cell_length_b	16.959453
_cell_length_c	16.959447
_cell_angle_alpha	89.968936
_cell_angle_beta	90.023646
_cell_angle_gamma	89.985020
loop_
_atom_site_label
_atom_site_type_symbol
_atom_site_fract_x
_atom_site_fract_y
_atom_site_fract_z
Zn1	Zn	-1.208384	-0.314771	-0.447101
Zn2	Zn	-1.208307	-0.446964	-0.314921
Zn3	Zn	-1.076213	-0.314792	-0.314917
Zn4	Zn	-1.076178	-0.446900	-0.447038
O5	O	-1.142270	-0.380857	-0.380994
O6	O	-1.318985	-0.332325	-0.429595
O7	O	-1.190767	-0.429466	-0.204309
O8	O	-1.093793	-0.204178	-0.332477
O9	O	-1.318928	-0.429446	-0.332483
O10	O	-1.190899	-0.204163	-0.429592
O11	O	-1.093718	-0.332360	-0.204307
O12	O	-0.965597	-0.332298	-0.332415
O13	O	-1.093733	-0.429338	-0.557657
O14	O	-0.965571	-0.429358	-0.429484
O15	O	-1.190864	-0.332264	-0.557704
O16	O	-1.190733	-0.557566	-0.332422
O17	O	-1.093658	-0.557520	-0.429488
C18	C	-0.936904	-0.380824	-0.380943
C19	C	-0.849048	-0.380829	-0.380940
C20	C	-0.477532	-0.431354	-0.330364
C21	C	-0.477612	-0.330378	-0.431645
C22	C	-0.560158	-0.330368	-0.431630
C23	C	-0.601395	-0.380853	-0.380983
C24	C	-0.560085	-0.431347	-0.330350
C25	C	-0.601474	-0.279880	-0.482268
C26	C	-0.684025	-0.279868	-0.482256
C27	C	-0.725263	-0.330350	-0.431604
C28	C	-0.683948	-0.380846	-0.380968
C29	C	-0.725185	-0.431330	-0.330321
C30	C	-0.683872	-0.481823	-0.279681
C31	C	-0.601323	-0.481829	-0.279698
C32	C	-0.807811	-0.330344	-0.431587
C33	C	-0.807738	-0.431324	-0.330307
C34	C	-1.142205	-0.586223	-0.380965
C35	C	-1.142249	-0.674080	-0.380979
C36	C	-0.348439	-0.380882	-0.381032
C37	C	-0.436295	-0.380870	-0.381012
C38	C	-1.192898	-1.045489	-0.431658
C39	C	-1.091863	-1.045622	-0.330449
C40	C	-1.091834	-0.963076	-0.330430
C41	C	-1.142337	-0.921733	-0.381027
C42	C	-1.192869	-0.962935	-0.431643
C43	C	-1.041297	-0.921867	-0.279822
C44	C	-1.041265	-0.839316	-0.279802
C45	C	-1.091773	-0.797971	-0.330396
C46	C	-1.142307	-0.839179	-0.381013
C47	C	-1.192810	-0.797836	-0.431610
C48	C	-1.243349	-0.839043	-0.482223
C49	C	-1.243376	-0.921591	-0.482236
C50	C	-1.091746	-0.715423	-0.330382
C51	C	-1.192781	-0.715283	-0.431595
C52	C	-1.142303	-0.380791	-0.587163
C53	C	-1.142317	-0.380764	-0.675019
C54	C	-1.142358	-0.174689	-0.381041
C55	C	-1.142396	-0.086832	-0.381060
C56	C	-1.091840	-0.431222	-1.046473
C57	C	-1.192984	-0.330138	-1.046517
C58	C	-1.192963	-0.330155	-0.963971
C59	C	-1.142380	-0.380707	-0.922672
C60	C	-1.091819	-0.431242	-0.963920
C61	C	-1.243529	-0.279626	-0.922717
C62	C	-1.243511	-0.279641	-0.840166
C63	C	-1.192923	-0.330190	-0.798866
C64	C	-1.142359	-0.380727	-0.840119
C65	C	-1.091777	-0.431279	-0.798820
C66	C	-1.041208	-0.481813	-0.840071
C67	C	-1.041232	-0.481791	-0.922620
C68	C	-1.192900	-0.330211	-0.716318
C69	C	-1.091756	-0.431299	-0.716267
C70	C	-1.142283	-0.380865	-0.175628
C71	C	-1.142422	-0.380670	-0.087772
H72	H	-0.443891	-0.472462	-0.289132
C73	C	-1.036783	-0.670641	-0.275572
C74	C	-0.986067	-0.623261	-0.320271
C75	C	-0.935416	-0.582005	-0.269804
H76	H	-1.066937	-0.638381	-0.241140
H77	H	-1.006659	-0.707059	-0.245456
H78	H	-1.016188	-0.586847	-0.350373
H79	H	-0.955896	-0.655501	-0.354701
H80	H	-0.905292	-0.618423	-0.239689
H81	H	-0.965576	-0.549749	-0.235374
H82	H	-0.900994	-0.549859	-0.300125
C83	C	-1.298177	-0.966237	-0.537325
C84	C	-1.280905	-0.946091	-0.615504
C85	C	-1.331368	-0.987201	-0.666278
H86	H	-1.290998	-1.021331	-0.530195
H87	H	-1.351309	-0.952682	-0.525873
H88	H	-1.227786	-0.959651	-0.626952
H89	H	-1.288089	-0.891004	-0.622660
H90	H	-1.384500	-0.973647	-0.654826
H91	H	-1.324185	-1.042293	-0.659140
H92	H	-1.319661	-0.973533	-0.719327
H93	H	-1.000179	-0.955534	-0.238631
C94	C	-0.986399	-0.536835	-0.795264
C95	C	-1.003600	-0.615039	-0.815310
C96	C	-0.953140	-0.665748	-0.774036
H97	H	-0.933265	-0.525367	-0.808739
H98	H	-0.993649	-0.529660	-0.740188
H99	H	-0.996344	-0.622210	-0.870374
H100	H	-1.056725	-0.626531	-0.801833
H101	H	-0.960390	-0.658574	-0.718959
H102	H	-0.900009	-0.654274	-0.787514
H103	H	-0.964809	-0.718815	-0.787625
C104	C	-0.432701	-0.275599	-0.486545
C105	C	-0.351567	-0.286400	-0.475708
C106	C	-0.310167	-0.235940	-0.526261
H107	H	-0.446164	-0.287177	-0.539663
H108	H	-0.446185	-0.222457	-0.475058
H109	H	-0.338089	-0.339529	-0.487201
H110	H	-0.338080	-0.274816	-0.422600
H111	H	-0.323650	-0.182799	-0.514774
H112	H	-0.323637	-0.247523	-0.579377
H113	H	-0.255113	-0.243257	-0.518910
C114	C	-0.986374	-0.794724	-0.224760
C115	C	-0.942167	-0.848600	-0.180440
C116	C	-0.891603	-0.807550	-0.129717
H117	H	-0.951832	-0.762513	-0.254861
H118	H	-1.016608	-0.762549	-0.190303
H119	H	-0.911935	-0.880761	-0.214892
H120	H	-0.976688	-0.880812	-0.150323
H121	H	-0.921838	-0.775375	-0.095260
H122	H	-0.857067	-0.775341	-0.159824
H123	H	-0.861609	-0.844098	-0.099635
H124	H	-1.234170	-0.288985	-1.080147
H125	H	-0.567893	-0.238783	-0.523507
C126	C	-0.728732	-0.224957	-0.537258
C127	C	-0.674949	-0.180734	-0.581601
C128	C	-0.716106	-0.130132	-0.632266
H129	H	-0.760957	-0.255141	-0.571709
H130	H	-0.760902	-0.190434	-0.507090
H131	H	-0.642794	-0.215253	-0.611766
H132	H	-0.642723	-0.150534	-0.547171
H133	H	-0.748275	-0.095608	-0.602099
H134	H	-0.748329	-0.160322	-0.666712
H135	H	-0.679621	-0.100115	-0.662354
H136	H	-0.567679	-0.522937	-0.238469
C137	C	-1.247827	-0.275267	-0.671674
C138	C	-1.292119	-0.230982	-0.725509
C139	C	-1.342721	-0.180349	-0.684413
H140	H	-1.282313	-0.305430	-0.639462
H141	H	-1.217616	-0.240784	-0.639496
H142	H	-1.322329	-0.265461	-0.757674
H143	H	-1.257655	-0.200803	-0.757722
H144	H	-1.312509	-0.145865	-0.652236
H145	H	-1.377201	-0.210518	-0.652203
H146	H	-1.372774	-0.150290	-0.720934
H147	H	-1.284465	-0.805372	-0.523423
C148	C	-1.036902	-1.090466	-0.275617
C149	C	-0.958676	-1.070437	-0.292751
C150	C	-0.908022	-1.111743	-0.242260
H151	H	-1.048396	-1.077007	-0.222489
H152	H	-1.044104	-1.145537	-0.282885
H153	H	-0.951478	-1.015377	-0.285476
H154	H	-0.947157	-1.083898	-0.345870
H155	H	-0.915224	-1.166815	-0.249528
H156	H	-0.919524	-1.098281	-0.189135
H157	H	-0.854940	-1.098165	-0.253883
H158	H	-1.234048	-1.079043	-0.472863
C159	C	-1.036854	-0.486117	-1.091112
C160	C	-0.992541	-0.530378	-1.037273
C161	C	-0.941873	-0.580948	-1.078365
H162	H	-1.066993	-0.520624	-1.123314
H163	H	-1.002389	-0.455885	-1.123298
H164	H	-1.027001	-0.560608	-1.005100
H165	H	-0.962386	-0.495891	-1.005069
H166	H	-0.907409	-0.550715	-1.110551
H167	H	-0.972019	-0.615450	-1.110566
H168	H	-0.911796	-0.610979	-1.041841
H169	H	-1.050558	-0.472458	-0.682647
H170	H	-1.000064	-0.522935	-0.956214
C171	C	-1.298366	-0.224782	-0.967697
C172	C	-1.287545	-0.235568	-1.048818
C173	C	-1.338044	-0.185053	-1.090282
H174	H	-1.351497	-0.236320	-0.954270
H175	H	-1.286819	-0.171655	-0.954231
H176	H	-1.299098	-0.288683	-1.062279
H177	H	-1.234425	-0.224024	-1.062269
H178	H	-1.326497	-0.131925	-1.076816
H179	H	-1.391172	-0.196595	-1.076848
H180	H	-1.330704	-0.192358	-1.145326
C181	C	-0.852708	-0.275664	-0.486659
C182	C	-0.900109	-0.320483	-0.537241
C183	C	-0.941471	-0.270137	-0.587993
H184	H	-0.884963	-0.241166	-0.456572
H185	H	-0.816353	-0.245615	-0.516875
H186	H	-0.936460	-0.350519	-0.507029
H187	H	-0.867874	-0.354980	-0.567346
H188	H	-0.905116	-0.240088	-0.618209
H189	H	-0.973721	-0.235641	-0.557900
H190	H	-0.973631	-0.300540	-0.622324
H191	H	-0.717457	-0.522932	-0.238448
H192	H	-0.841307	-0.472432	-0.289060
H193	H	-1.284686	-0.238493	-0.806587
H194	H	-1.233909	-0.681626	-0.472794
