data_functionalizedCrystal
_audit_creation_method	'MofGen! by Chris Wilmer'
_symmetry_space_group_name_H-M	'P1'
_symmetry_Int_Tables_number	1
_symmetry_cell_setting	triclinic
loop_
_symmetry_equiv_pos_as_xyz
  x,y,z
_cell_length_a	10.654545
_cell_length_b	9.130313
_cell_length_c	10.654550
_cell_angle_alpha	90.006312
_cell_angle_beta	84.484005
_cell_angle_gamma	90.004109
loop_
_atom_site_label
_atom_site_type_symbol
_atom_site_fract_x
_atom_site_fract_y
_atom_site_fract_z
O1	O	1.667844	0.121784	0.176375
O2	O	1.302365	0.121790	0.193187
O3	O	1.493508	0.121778	0.002042
O4	O	1.476702	0.121797	0.367520
O5	O	1.493491	-0.121821	0.002029
O6	O	1.302349	-0.121808	0.193175
O7	O	1.667828	-0.121814	0.176363
Cu8	Cu	1.485087	-0.144054	0.184768
Cu9	Cu	1.485106	0.144030	0.184782
O10	O	1.476685	-0.121802	0.367508
C11	C	1.255559	-0.000008	0.191948
C12	C	1.116115	-0.000006	0.188258
C13	C	1.050602	-0.132793	0.186514
C14	C	0.919582	-0.132793	0.183027
C15	C	0.919601	0.132792	0.183032
C16	C	1.050619	0.132791	0.186510
C17	C	1.492266	-0.000021	-0.044762
C18	C	1.488574	-0.000018	-0.184206
C19	C	1.714634	-0.000013	0.177602
C20	C	1.854078	-0.000005	0.181292
N21	N	1.485082	-0.346677	0.184757
C22	C	1.408284	-0.576726	0.107898
C23	C	1.408268	-0.423389	0.107880
C24	C	1.561928	-0.423309	0.261645
C25	C	1.561950	-0.576643	0.261655
N26	N	1.485121	0.346653	0.184783
C27	C	1.601115	-0.000020	-0.263693
C28	C	1.597639	-0.000002	-0.394714
C29	C	1.369069	0.000013	-0.366747
C30	C	1.372547	0.000005	-0.235729
C31	C	1.477927	-0.000000	0.414312
C32	C	1.481619	0.000007	0.553755
H33	H	1.103962	0.240928	0.187927
H34	H	1.624478	-0.360838	0.324233
N35	N	1.644861	-0.659299	0.344552
H36	H	1.693531	-0.587443	0.393246
H37	H	1.590671	-0.722940	0.405451
N38	N	1.121245	-0.276019	0.188379
H39	H	1.214187	-0.255876	0.190850
H40	H	1.088828	-0.334002	0.265486
N41	N	1.251163	0.000006	-0.149975
H42	H	1.200600	0.090311	-0.166648
H43	H	1.200683	-0.090353	-0.166705
N44	N	0.848922	-0.276013	0.181140
H45	H	0.910404	-0.360129	0.181889
H46	H	0.785654	-0.282238	0.257869
H47	H	0.866258	0.240910	0.181610
N48	N	1.325440	-0.659455	0.024969
H49	H	1.337110	-0.768219	0.036640
H50	H	1.234313	-0.632673	0.048927
N51	N	1.325400	-0.340745	0.024948
H52	H	1.276738	-0.412609	-0.023746
H53	H	1.264473	-0.277124	0.079131
H54	H	1.695592	-0.000036	-0.221748
H55	H	1.274604	0.000029	-0.408713
N56	N	1.719023	-0.000002	-0.480448
H57	H	1.793047	-0.000019	-0.427923
H58	H	1.722546	-0.090303	-0.535431
