data_functionalizedCrystal
_audit_creation_method	'MofGen! by Chris Wilmer'
_symmetry_space_group_name_H-M	'P1'
_symmetry_Int_Tables_number	1
_symmetry_cell_setting	triclinic
loop_
_symmetry_equiv_pos_as_xyz
  x,y,z
_cell_length_a	12.759399
_cell_length_b	12.759401
_cell_length_c	12.759393
_cell_angle_alpha	90.019676
_cell_angle_beta	90.030906
_cell_angle_gamma	90.015542
loop_
_atom_site_label
_atom_site_type_symbol
_atom_site_fract_x
_atom_site_fract_y
_atom_site_fract_z
Zn1	Zn	-0.418204	1.606263	0.593982
Zn2	Zn	-0.084870	1.939597	0.927315
Zn3	Zn	0.248463	2.272930	1.260648
Zn4	Zn	-0.593919	1.606153	0.418301
Zn5	Zn	-0.260586	1.939486	0.751634
Zn6	Zn	0.072748	2.272820	1.084967
Zn7	Zn	-0.418256	1.430562	0.418321
Zn8	Zn	-0.084923	1.763895	0.751654
Zn9	Zn	0.248411	2.097229	1.084987
Zn10	Zn	-0.593842	1.430553	0.593942
Zn11	Zn	-0.260509	1.763886	0.927275
Zn12	Zn	0.072824	2.097219	1.260608
O13	O	-0.506055	1.518383	0.506136
O14	O	-0.172722	1.851716	0.839470
O15	O	0.160611	2.185049	1.172803
O16	O	-0.441523	1.753270	0.570686
O17	O	-0.108189	2.086603	0.904019
O18	O	0.225144	2.419936	1.237352
O19	O	-0.570671	1.582818	0.271282
O20	O	-0.237338	1.916152	0.604615
O21	O	0.095996	2.249485	0.937949
O22	O	-0.271228	1.453919	0.441648
O23	O	0.062105	1.787253	0.774981
O24	O	0.395439	2.120586	1.108314
O25	O	-0.570620	1.753189	0.441613
O26	O	-0.237287	2.086522	0.774947
O27	O	0.096046	2.419855	1.108280
O28	O	-0.271189	1.583006	0.570705
O29	O	0.062144	1.916340	0.904038
O30	O	0.395477	2.249673	1.237372
O31	O	-0.441612	1.453812	0.271297
O32	O	-0.108279	1.787146	0.604630
O33	O	0.225054	2.120479	0.937964
O34	O	-0.441538	1.283540	0.441609
O35	O	-0.108204	1.616873	0.774942
O36	O	0.225129	1.950206	1.108276
O37	O	-0.570489	1.453903	0.740968
O38	O	-0.237156	1.787237	1.074301
O39	O	0.096177	2.120570	1.407635
O40	O	-0.570540	1.283533	0.570637
O41	O	-0.237207	1.616866	0.903970
O42	O	0.096126	1.950200	1.237304
O43	O	-0.441448	1.582997	0.740998
O44	O	-0.108115	1.916330	1.074331
O45	O	0.225218	2.249664	1.407664
O46	O	-0.740930	1.582809	0.441575
O47	O	-0.407597	1.916143	0.774908
O48	O	-0.074263	2.249476	1.108241
O49	O	-0.740874	1.453796	0.570617
O50	O	-0.407540	1.787130	0.903951
O51	O	-0.074207	2.120463	1.237284
C52	C	-0.506037	1.245415	0.506121
C53	C	-0.172704	1.578749	0.839455
C54	C	0.160629	1.912082	1.172788
C55	C	-0.506055	1.128639	0.506140
C56	C	-0.172721	1.461972	0.839473
C57	C	0.160612	1.795305	1.172807
C58	C	-0.438955	1.073820	0.573451
C59	C	-0.105622	1.407153	0.906785
C60	C	0.227712	1.740486	1.240118
C61	C	-0.438966	0.964096	0.573458
C62	C	-0.105633	1.297429	0.906792
C63	C	0.227701	1.630762	1.240125
C64	C	-0.573185	0.964020	0.438839
C65	C	-0.239851	1.297353	0.772173
C66	C	0.093482	1.630686	1.105506
C67	C	-0.573168	1.073742	0.438828
C68	C	-0.239835	1.407075	0.772161
C69	C	0.093499	1.740408	1.105495
C70	C	-0.779023	1.518318	0.506112
C71	C	-0.445689	1.851652	0.839446
C72	C	-0.112356	2.184985	1.172779
C73	C	-0.895799	1.518387	0.506137
C74	C	-0.562466	1.851720	0.839471
C75	C	-0.229133	2.185054	1.172804
C76	C	-0.950656	1.585641	0.439021
C77	C	-0.617322	1.918974	0.772354
C78	C	-0.283989	2.252307	1.105688
C79	C	-1.060380	1.585708	0.439056
C80	C	-0.727046	1.919041	0.772390
C81	C	-0.393713	2.252375	1.105723
C82	C	-1.060381	1.451259	0.573327
C83	C	-0.727048	1.784592	0.906660
C84	C	-0.393715	2.117926	1.239993
C85	C	-0.950659	1.451198	0.573296
C86	C	-0.617326	1.784531	0.906629
C87	C	-0.283993	2.117864	1.239963
C88	C	-0.232022	1.518476	0.506183
C89	C	0.101311	1.851809	0.839517
C90	C	0.434645	2.185143	1.172850
C91	C	-0.115245	1.518516	0.506203
C92	C	0.218088	1.851849	0.839537
C93	C	0.551421	2.185182	1.172870
C94	C	-0.505954	1.518461	0.780170
C95	C	-0.172621	1.851795	1.113503
C96	C	0.160712	2.185128	1.446836
C97	C	-0.505911	1.518495	0.896946
C98	C	-0.172578	1.851828	1.230280
C99	C	0.160755	2.185162	1.563613
C100	C	-0.506074	1.792416	0.506152
C101	C	-0.172741	2.125749	0.839485
C102	C	0.160593	2.459083	1.172818
C103	C	-0.506082	1.909193	0.506158
C104	C	-0.172749	2.242526	0.839492
C105	C	0.160584	2.575859	1.172825
C106	C	-0.506080	1.518365	0.233169
C107	C	-0.172747	1.851698	0.566502
C108	C	0.160587	2.185032	0.899835
C109	C	-0.505827	1.518535	0.116393
C110	C	-0.172494	1.851868	0.449726
C111	C	0.160840	2.185202	0.783059
C112	C	-0.438709	1.585719	0.951825
C113	C	-0.105376	1.919052	1.285159
C114	C	0.227958	2.252386	1.618492
C115	C	-0.438664	1.585737	1.061550
C116	C	-0.105330	1.919070	1.394883
C117	C	0.228003	2.252404	1.728216
C118	C	-0.573032	1.451303	1.061506
C119	C	-0.239699	1.784637	1.394839
C120	C	0.093634	2.117970	1.728173
C121	C	-0.573072	1.451281	0.951784
C122	C	-0.239738	1.784614	1.285117
C123	C	0.093595	2.117948	1.618451
H124	H	-0.627810	1.118377	0.384009
H125	H	-0.294476	1.451710	0.717342
H126	H	0.038857	1.785043	1.050676
Br127	Br	-0.664272	1.360032	0.877298
Br128	Br	-0.330939	1.693365	1.210631
Br129	Br	0.002394	2.026699	1.543965
H130	H	-0.627827	0.919309	0.384037
H131	H	-0.294494	1.252642	0.717371
H132	H	0.038840	1.585976	1.050704
Br133	Br	-0.347894	0.889702	0.664810
Br134	Br	-0.014561	1.223035	0.998143
Br135	Br	0.318773	1.556368	1.331476
H136	H	-0.383939	1.640476	1.106227
H137	H	-0.050606	1.973809	1.439560
H138	H	0.282728	2.307142	1.772894
H139	H	-0.384304	1.118514	0.628258
H140	H	-0.050971	1.451847	0.961591
H141	H	0.282363	1.785180	1.294925
H142	H	-0.905991	1.640352	0.384338
H143	H	-0.572658	1.973685	0.717671
H144	H	-0.239325	2.307018	1.051004
H145	H	-1.105039	1.640474	0.384405
H146	H	-0.771706	1.973808	0.717738
H147	H	-0.438372	2.307141	1.051072
Br148	Br	-1.134840	1.360077	0.664465
Br149	Br	-0.801507	1.693410	0.997799
Br150	Br	-0.468174	2.026744	1.331132
Br151	Br	-0.347562	1.676935	0.877406
Br152	Br	-0.014228	2.010268	1.210739
Br153	Br	0.319105	2.343602	1.544073
Br154	Br	-0.876204	1.359927	0.664398
Br155	Br	-0.542871	1.693261	0.997732
Br156	Br	-0.209537	2.026594	1.331065
H157	H	-0.627714	1.396583	1.106168
H158	H	-0.294381	1.729916	1.439501
H159	H	0.038953	2.063249	1.772835
