data_functionalizedCrystal
_audit_creation_method	'MofGen! by Chris Wilmer'
_symmetry_space_group_name_H-M	'P1'
_symmetry_Int_Tables_number	1
_symmetry_cell_setting	triclinic
loop_
_symmetry_equiv_pos_as_xyz
  x,y,z
_cell_length_a	10.723024
_cell_length_b	10.723024
_cell_length_c	15.186229
_cell_angle_alpha	89.997422
_cell_angle_beta	89.996943
_cell_angle_gamma	84.467869
loop_
_atom_site_label
_atom_site_type_symbol
_atom_site_fract_x
_atom_site_fract_y
_atom_site_fract_z
O1	O	1.657187	0.175026	-0.073220
O2	O	1.294034	0.191779	-0.073223
O3	O	1.483987	0.001826	-0.073219
O4	O	1.467234	0.364978	-0.073225
O5	O	1.483974	0.001823	0.073239
O6	O	1.294021	0.191776	0.073234
O7	O	1.657174	0.175023	0.073237
Zn8	Zn	1.475596	0.183399	0.096489
Zn9	Zn	1.475612	0.183403	-0.096475
O10	O	1.467221	0.364976	0.073232
C11	C	1.247528	0.190558	0.000005
C12	C	1.108974	0.186911	0.000004
C13	C	0.917217	0.073603	0.000004
C14	C	1.060420	0.077371	0.000006
C15	C	1.482762	-0.044675	0.000009
C16	C	1.479114	-0.183229	0.000006
C17	C	1.585401	-0.258212	0.000006
C18	C	1.581634	-0.401415	0.000002
C19	C	1.703680	0.176243	0.000007
C20	C	1.842234	0.179891	0.000002
C21	C	1.468447	0.411477	0.000003
C22	C	1.472094	0.550031	-0.000000
N23	N	1.475593	0.183396	0.228181
N24	N	1.475625	0.183396	-0.228168
C25	C	1.559733	0.099313	0.453906
C26	C	1.559737	0.099311	0.546096
C27	C	1.391475	0.267482	0.546101
C28	C	1.391466	0.267478	0.453913
C29	C	1.475602	0.183395	0.407818
C30	C	1.475615	0.183397	0.592196
C31	C	1.475619	0.183394	0.692152
C32	C	1.475598	0.183396	0.307855
H33	H	1.124853	-0.013619	0.000002
C34	C	1.350794	-0.364012	-0.000182
C35	C	1.346217	-0.288479	-0.075541
C36	C	1.234488	-0.209283	-0.075745
H37	H	1.347350	-0.312540	0.050832
H38	H	1.281547	-0.413008	-0.000233
H39	H	1.415445	-0.239488	-0.075482
H40	H	1.349641	-0.339918	-0.126567
H41	H	1.165241	-0.258279	-0.075795
H42	H	1.231053	-0.157819	-0.024727
H43	H	1.231362	-0.158033	-0.126878
C44	C	1.300065	0.358914	0.404026
C45	C	1.226413	0.432580	0.464123
C46	C	1.142214	0.516827	0.418200
H47	H	1.247618	0.313689	0.368068
H48	H	1.345364	0.411336	0.368075
H49	H	1.181117	0.380165	0.500060
H50	H	1.278826	0.477832	0.500083
H51	H	1.187513	0.569249	0.382248
H52	H	1.089775	0.471591	0.382243
H53	H	1.092239	0.566827	0.458968
H54	H	1.672624	-0.465848	0.000006
H55	H	1.385328	-0.225051	-0.000001
H56	H	0.875395	-0.020182	0.000019
C57	C	1.651123	0.007878	0.404019
C58	C	1.724778	-0.065781	0.464118
C59	C	1.808967	-0.150041	0.418196
H60	H	1.703569	0.053092	0.368045
H61	H	1.605816	-0.044548	0.368082
H62	H	1.770082	-0.013361	0.500039
H63	H	1.672366	-0.111022	0.500093
H64	H	1.763660	-0.202467	0.382260
H65	H	1.861404	-0.104816	0.382225
H66	H	1.858944	-0.200036	0.458966
C67	C	1.022931	0.308154	-0.000138
C68	C	0.947371	0.312712	-0.075477
C69	C	0.868072	0.424373	-0.075632
H70	H	1.071814	0.377467	-0.000183
H71	H	0.971490	0.311481	0.050908
H72	H	0.998805	0.309397	-0.126509
H73	H	0.898461	0.243425	-0.075447
H74	H	0.816631	0.427700	-0.024587
H75	H	0.916965	0.493678	-0.075676
H76	H	0.816787	0.427476	-0.126745
C77	C	1.710497	-0.202528	-0.000178
C78	C	1.778207	-0.242467	-0.075539
C79	C	1.893446	-0.191185	-0.075745
H80	H	1.756775	-0.229482	0.050835
H81	H	1.696457	-0.113683	-0.000225
H82	H	1.792251	-0.331292	-0.075483
H83	H	1.731967	-0.215513	-0.126563
H84	H	1.879406	-0.102341	-0.075793
H85	H	1.939712	-0.218143	-0.024730
H86	H	1.939396	-0.218267	-0.126881
C87	C	1.650882	0.007878	0.596181
C88	C	1.583765	-0.069147	0.649096
C89	C	1.667688	-0.153405	0.695237
H90	H	1.703244	0.053096	0.632211
H91	H	1.700967	-0.042269	0.555550
H92	H	1.533703	-0.019006	0.689722
H93	H	1.531408	-0.114393	0.613088
H94	H	1.717772	-0.203552	0.654606
H95	H	1.720045	-0.108177	0.731262
H96	H	1.622161	-0.205684	0.731138
C97	C	1.300280	0.358724	0.596308
C98	C	1.318318	0.340759	0.686908
C99	C	1.234344	0.424804	0.733183
H100	H	1.216825	0.344497	0.581317
H101	H	1.314556	0.442159	0.581242
H102	H	1.304032	0.257343	0.701967
H103	H	1.401756	0.354996	0.701925
H104	H	1.248620	0.508239	0.718118
H105	H	1.150894	0.410569	0.718185
H106	H	1.246579	0.412634	0.794660
H107	H	0.884056	0.273677	0.000006
