data_functionalizedCrystal
_audit_creation_method	'MofGen! by Chris Wilmer'
_symmetry_space_group_name_H-M	'P1'
_symmetry_Int_Tables_number	1
_symmetry_cell_setting	triclinic
loop_
_symmetry_equiv_pos_as_xyz
  x,y,z
_cell_length_a	19.121102
_cell_length_b	29.839131
_cell_length_c	19.120904
_cell_angle_alpha	87.590850
_cell_angle_beta	89.911827
_cell_angle_gamma	87.595578
loop_
_atom_site_label
_atom_site_type_symbol
_atom_site_fract_x
_atom_site_fract_y
_atom_site_fract_z
Zn1	Zn	1.054749	-0.219753	0.442036
Zn2	Zn	1.388082	0.113580	0.775370
Zn3	Zn	1.721415	0.446913	1.108703
Zn4	Zn	1.059636	-0.291816	0.324791
Zn5	Zn	1.392970	0.041518	0.658125
Zn6	Zn	1.726303	0.374851	0.991458
Zn7	Zn	0.942520	-0.213364	0.319821
Zn8	Zn	1.275854	0.119970	0.653154
Zn9	Zn	1.609187	0.453303	0.986488
Zn10	Zn	0.937448	-0.291514	0.436994
Zn11	Zn	1.270781	0.041820	0.770327
Zn12	Zn	1.604115	0.375153	1.103660
O13	O	0.998588	-0.254112	0.380911
O14	O	1.331922	0.079222	0.714244
O15	O	1.665255	0.412555	1.047577
O16	O	1.153501	-0.232113	0.430674
O17	O	1.486835	0.101220	0.764007
O18	O	1.820168	0.434553	1.097341
O19	O	1.048269	-0.278861	0.226027
O20	O	1.381602	0.054472	0.559361
O21	O	1.714936	0.387806	0.892694
O22	O	0.957485	-0.151347	0.336063
O23	O	1.290818	0.181986	0.669397
O24	O	1.624152	0.515320	1.002730
O25	O	1.157092	-0.285057	0.344535
O26	O	1.490426	0.048276	0.677868
O27	O	1.823759	0.381610	1.011201
O28	O	1.039939	-0.156042	0.425855
O29	O	1.373272	0.177292	0.759188
O30	O	1.706605	0.510625	1.092521
O31	O	0.962224	-0.221223	0.222376
O32	O	1.295558	0.112111	0.555709
O33	O	1.628891	0.445444	0.889042
O34	O	0.843743	-0.220930	0.331174
O35	O	1.177077	0.112403	0.664507
O36	O	1.510410	0.445737	0.997840
O37	O	0.948840	-0.284542	0.535767
O38	O	1.282173	0.048791	0.869101
O39	O	1.615506	0.382124	1.202434
O40	O	0.840017	-0.278346	0.417260
O41	O	1.173350	0.054987	0.750593
O42	O	1.506683	0.388320	1.083927
O43	O	1.035020	-0.231820	0.539472
O44	O	1.368353	0.101513	0.872805
O45	O	1.701687	0.434846	1.206139
O46	O	1.043351	-0.354640	0.339645
O47	O	1.376684	-0.021306	0.672978
O48	O	1.710017	0.312027	1.006312
O49	O	0.953579	-0.354418	0.422080
O50	O	1.286913	-0.021084	0.755413
O51	O	1.620246	0.312249	1.088746
C52	C	0.816443	-0.248912	0.373131
C53	C	1.149776	0.084421	0.706464
C54	C	1.483109	0.417754	1.039797
C55	C	0.738519	-0.246699	0.369819
C56	C	1.071853	0.086634	0.703152
C57	C	1.405186	0.419967	1.036486
C58	C	0.699992	-0.275595	0.413013
C59	C	1.033325	0.057739	0.746347
C60	C	1.366658	0.391072	1.079680
C61	C	0.626774	-0.273510	0.409905
C62	C	0.960108	0.059824	0.743238
C63	C	1.293441	0.393157	1.076572
C64	C	0.592086	-0.242531	0.363599
C65	C	0.925419	0.090803	0.696932
C66	C	1.258752	0.424136	1.030265
C67	C	0.630619	-0.213632	0.320403
C68	C	0.963952	0.119701	0.653736
C69	C	1.297285	0.453034	0.987069
C70	C	0.703835	-0.215716	0.323515
C71	C	1.037168	0.117618	0.656848
C72	C	1.370501	0.450951	0.990182
C73	C	0.371117	-0.234741	0.351966
C74	C	0.704450	0.098593	0.685299
C75	C	1.037783	0.431926	1.018633
C76	C	0.297896	-0.232660	0.348855
C77	C	0.631229	0.100673	0.682189
C78	C	0.964562	0.434006	1.015522
C79	C	0.294056	-0.292537	0.438359
C80	C	0.627390	0.040796	0.771693
C81	C	0.960723	0.374129	1.105026
C82	C	0.367274	-0.294620	0.441464
C83	C	0.700607	0.038713	0.774798
C84	C	1.033941	0.372047	1.108131
C85	C	0.405800	-0.265720	0.398271
C86	C	0.739133	0.067614	0.731604
C87	C	1.072467	0.400947	1.064938
C88	C	0.517246	-0.240400	0.360419
C89	C	0.850579	0.092934	0.693752
C90	C	1.183913	0.426267	1.027085
C91	C	0.480639	-0.267849	0.401455
C92	C	0.813972	0.065484	0.734788
C93	C	1.147305	0.398818	1.068122
C94	C	0.998463	-0.370830	0.380870
C95	C	1.331797	-0.037496	0.714204
C96	C	1.665130	0.295837	1.047537
C97	C	0.998473	-0.420765	0.380879
C98	C	1.331806	-0.087431	0.714213
C99	C	1.665140	0.245902	1.047546
C100	C	1.045411	-0.730519	0.338056
C101	C	1.378744	-0.397185	0.671389
C102	C	1.712078	-0.063852	1.004723
C103	C	1.045496	-0.918195	0.338087
C104	C	1.378830	-0.584862	0.671420
C105	C	1.712163	-0.251528	1.004753
O106	O	1.085306	-0.942551	0.301646
O107	O	1.418639	-0.609217	0.634979
O108	O	1.751972	-0.275884	0.968312
N109	N	0.998731	-0.941559	0.380970
N110	N	1.332065	-0.608226	0.714303
N111	N	1.665398	-0.274892	1.047636
C112	C	0.951945	-0.918001	0.423851
C113	C	1.285278	-0.584668	0.757185
C114	C	1.618612	-0.251335	1.090518
O115	O	0.912175	-0.942181	0.460332
O116	O	1.245509	-0.608847	0.793665
O117	O	1.578842	-0.275514	1.126998
C118	C	0.951864	-0.730326	0.423824
C119	C	1.285197	-0.396993	0.757157
C120	C	1.618530	-0.063660	1.090490
C121	C	0.998627	-0.706964	0.380933
C122	C	1.331960	-0.373631	0.714266
C123	C	1.665293	-0.040298	1.047599
C124	C	1.092171	-0.707157	0.295169
C125	C	1.425504	-0.373824	0.628502
C126	C	1.758838	-0.040490	0.961836
C127	C	1.092146	-0.660241	0.295159
C128	C	1.425480	-0.326907	0.628492
C129	C	1.758813	0.006426	0.961826
C130	C	1.045362	-0.636686	0.338036
C131	C	1.378696	-0.303353	0.671369
C132	C	1.712029	0.029981	1.004702
C133	C	0.998602	-0.660048	0.380923
C134	C	1.331936	-0.326715	0.714256
C135	C	1.665269	0.006619	1.047589
C136	C	0.905081	-0.706770	0.466708
C137	C	1.238414	-0.373436	0.800042
C138	C	1.571748	-0.040103	1.133375
C139	C	0.905066	-0.659848	0.466699
C140	C	1.238399	-0.326515	0.800032
C141	C	1.571733	0.006819	1.133366
C142	C	0.951829	-0.636486	0.423808
C143	C	1.285163	-0.303153	0.757141
C144	C	1.618496	0.030181	1.090475
C145	C	0.951794	-0.589577	0.423789
C146	C	1.285127	-0.256244	0.757123
C147	C	1.618460	0.077090	1.090456
N148	N	0.998559	-0.566213	0.380906
N149	N	1.331892	-0.232880	0.714240
N150	N	1.665225	0.100454	1.047573
C151	C	1.045343	-0.589768	0.338030
C152	C	1.378676	-0.256434	0.671363
C153	C	1.712009	0.076899	1.004696
C154	C	0.951990	-1.016534	0.423862
C155	C	1.285323	-0.683200	0.757195
C156	C	1.618657	-0.349867	1.090528
C157	C	0.952010	-1.063452	0.423868
C158	C	1.285343	-0.730119	0.757201
C159	C	1.618676	-0.396785	1.090535
C160	C	1.045562	-1.063642	0.338104
C161	C	1.378895	-0.730309	0.671438
C162	C	1.712229	-0.396976	1.004771
C163	C	1.045539	-1.016723	0.338095
C164	C	1.378872	-0.683390	0.671428
C165	C	1.712205	-0.350056	1.004762
C166	C	0.998755	-0.993169	0.380979
C167	C	1.332088	-0.659836	0.714312
C168	C	1.665422	-0.326503	1.047646
C169	C	1.045288	-0.491240	0.338011
C170	C	1.378621	-0.157906	0.671344
C171	C	1.711954	0.175427	1.004678
C172	C	1.045257	-0.444319	0.338003
C173	C	1.378590	-0.110986	0.671336
C174	C	1.711924	0.222348	1.004669
C175	C	0.951708	-0.444133	0.423769
C176	C	1.285041	-0.110799	0.757102
C177	C	1.618374	0.222534	1.090435
C178	C	0.951735	-0.491049	0.423775
C179	C	1.285069	-0.157716	0.757108
C180	C	1.618402	0.175617	1.090441
C181	C	0.998531	-0.514602	0.380894
C182	C	1.331864	-0.181268	0.714227
C183	C	1.665198	0.152065	1.047561
O184	O	0.912011	-0.565193	0.460217
O185	O	1.245344	-0.231860	0.793550
O186	O	1.578677	0.101474	1.126884
O187	O	1.085117	-0.565581	0.301566
O188	O	1.418450	-0.232248	0.634899
O189	O	1.751784	0.101086	0.968233
C190	C	1.045435	-0.777435	0.338066
C191	C	1.378769	-0.444102	0.671399
C192	C	1.712102	-0.110769	1.004733
C193	C	0.998676	-0.800797	0.380953
C194	C	1.332009	-0.467464	0.714286
C195	C	1.665342	-0.134130	1.047620
C196	C	0.951891	-0.777243	0.423830
C197	C	1.285225	-0.443909	0.757163
C198	C	1.618558	-0.110576	1.090496
C199	C	0.998695	-0.847716	0.380959
C200	C	1.332028	-0.514382	0.714292
C201	C	1.665362	-0.181049	1.047626
C202	C	1.045479	-0.871270	0.338082
C203	C	1.378812	-0.537937	0.671416
C204	C	1.712146	-0.204603	1.004749
C205	C	1.092244	-0.847906	0.295199
C206	C	1.425577	-0.514573	0.628533
C207	C	1.758911	-0.181239	0.961866
C208	C	1.092220	-0.800990	0.295189
C209	C	1.425553	-0.467656	0.628523
C210	C	1.758886	-0.134323	0.961856
C211	C	0.905126	-0.800607	0.466712
C212	C	1.238460	-0.467273	0.800046
C213	C	1.571793	-0.133940	1.133379
C214	C	0.905154	-0.847523	0.466718
C215	C	1.238487	-0.514190	0.800052
C216	C	1.571821	-0.180856	1.133385
C217	C	0.951938	-0.871078	0.423842
C218	C	1.285272	-0.537744	0.757175
C219	C	1.618605	-0.204411	1.090508
C220	C	1.181445	-0.259331	0.388721
C221	C	1.514779	0.074002	0.722055
C222	C	1.848112	0.407335	1.055388
C223	C	1.259368	-0.261556	0.392050
C224	C	1.592701	0.071777	0.725383
C225	C	1.926035	0.405111	1.058716
C226	C	0.990819	-0.258860	0.563768
C227	C	1.324152	0.074473	0.897102
C228	C	1.657486	0.407806	1.230435
C229	C	0.987508	-0.260884	0.641691
C230	C	1.320841	0.072449	0.975025
C231	C	1.654175	0.405783	1.308358
C232	C	0.998732	-0.136939	0.380967
C233	C	1.332066	0.196395	0.714300
C234	C	1.665399	0.529728	1.047634
C235	C	0.998794	-0.087007	0.380991
C236	C	1.332127	0.246327	0.714324
C237	C	1.665460	0.579660	1.047658
C238	C	1.006368	-0.249350	0.198766
C239	C	1.339701	0.083983	0.532099
C240	C	1.673035	0.417317	0.865433
C241	C	1.009815	-0.247204	0.120849
C242	C	1.343148	0.086130	0.454183
C243	C	1.676481	0.419463	0.787516
C244	C	1.030820	-0.234387	0.680230
C245	C	1.364153	0.098947	1.013563
C246	C	1.697486	0.432280	1.346896
C247	C	1.027700	-0.236286	0.753446
C248	C	1.361034	0.097047	1.086780
C249	C	1.694367	0.430381	1.420113
C250	C	0.981272	-0.264686	0.788123
C251	C	1.314606	0.068648	1.121457
C252	C	1.647939	0.401981	1.454790
C253	C	0.937956	-0.291184	0.749580
C254	C	1.271289	0.042149	1.082913
C255	C	1.604622	0.375483	1.416246
C256	C	0.941072	-0.289282	0.676364
C257	C	1.274405	0.044051	1.009698
C258	C	1.607739	0.377385	1.343031
C259	C	0.969615	-0.271800	1.009090
C260	C	1.302948	0.061533	1.342423
C261	C	1.636281	0.394867	1.675757
C262	C	0.966503	-0.273701	1.082311
C263	C	1.299836	0.059632	1.415644
C264	C	1.633170	0.392966	1.748977
C265	C	1.056247	-0.218802	1.086172
C266	C	1.389580	0.114531	1.419506
C267	C	1.722914	0.447865	1.752839
C268	C	1.059362	-0.216905	1.012955
C269	C	1.392696	0.116429	1.346289
C270	C	1.726029	0.449762	1.679622
C271	C	1.016043	-0.243401	0.974418
C272	C	1.349377	0.089932	1.307751
C273	C	1.682710	0.423265	1.641085
C274	C	0.978084	-0.266629	0.862963
C275	C	1.311417	0.066704	1.196296
C276	C	1.644751	0.400038	1.529629
C277	C	1.019228	-0.241455	0.899580
C278	C	1.352562	0.091878	1.232913
C279	C	1.685895	0.425211	1.566247
H280	H	0.735203	-0.192183	0.288345
H281	H	1.068536	0.141150	0.621678
H282	H	1.401869	0.474483	0.955012
Br283	Br	0.423393	-0.195516	0.293350
Br284	Br	0.756726	0.137817	0.626683
Br285	Br	1.090060	0.471150	0.960017
H286	H	1.091514	-0.197230	1.117557
H287	H	1.424847	0.136104	1.450891
H288	H	1.758181	0.469437	1.784224
H289	H	1.083618	-0.997704	0.303170
H290	H	1.416951	-0.664371	0.636503
H291	H	1.750284	-0.331038	0.969837
H292	H	1.083395	-0.510411	0.303095
H293	H	1.416728	-0.177077	0.636428
H294	H	1.750061	0.156256	0.969762
H295	H	0.602369	-0.188407	0.282702
H296	H	0.935703	0.144927	0.616035
H297	H	1.269036	0.478260	0.949369
Br298	Br	1.155624	-0.628543	0.236957
Br299	Br	1.488957	-0.295210	0.570291
Br300	Br	1.822291	0.038124	0.903624
Br301	Br	0.527717	-0.309889	0.464299
Br302	Br	0.861050	0.023444	0.797633
Br303	Br	1.194383	0.356777	1.130966
H304	H	0.928693	-0.296828	1.110543
H305	H	1.262027	0.036505	1.443876
H306	H	1.595360	0.369838	1.777209
Br307	Br	1.155674	-0.739115	0.236973
Br308	Br	1.489007	-0.405782	0.570306
Br309	Br	1.822341	-0.072448	0.903639
Br310	Br	0.910823	-0.307759	0.956798
Br311	Br	1.244156	0.025574	1.290132
Br312	Br	1.577490	0.358908	1.623465
H313	H	1.083656	-1.082829	0.303192
H314	H	1.416989	-0.749495	0.636526
H315	H	1.750322	-0.416162	0.969859
Br316	Br	0.888220	-0.412157	0.481959
Br317	Br	1.221554	-0.078824	0.815292
Br318	Br	1.554887	0.254509	1.148625
H319	H	0.900150	-0.314306	0.777819
H320	H	1.233484	0.019027	1.111153
H321	H	1.566817	0.352361	1.444486
Br322	Br	0.747062	-0.317643	0.475856
Br323	Br	1.080395	0.015691	0.809189
Br324	Br	1.413729	0.349024	1.142523
Br325	Br	0.414346	-0.336666	0.504307
Br326	Br	0.747680	-0.003333	0.837641
Br327	Br	1.081013	0.330000	1.170974
H328	H	0.905796	-0.310854	0.644987
H329	H	1.239129	0.022479	0.978320
H330	H	1.572463	0.355812	1.311653
Br331	Br	1.082227	-0.202908	0.852517
Br332	Br	1.415560	0.130425	1.185850
Br333	Br	1.748893	0.463759	1.519184
Br334	Br	0.241767	-0.331758	0.496973
Br335	Br	0.575101	0.001575	0.830306
Br336	Br	0.908434	0.334908	1.163640
Br337	Br	1.122376	-0.178362	0.965899
Br338	Br	1.455710	0.154971	1.299232
Br339	Br	1.789043	0.488304	1.632565
H340	H	1.068629	-0.211262	0.652001
H341	H	1.401962	0.122071	0.985335
H342	H	1.735295	0.455405	1.318668
H343	H	0.913892	-0.997359	0.458784
H344	H	1.247225	-0.664026	0.792117
H345	H	1.580558	-0.330693	1.125451
H346	H	0.488994	-0.215177	0.322714
H347	H	0.822328	0.118156	0.656048
H348	H	1.155661	0.451489	0.989381
H349	H	0.595408	-0.297040	0.445078
H350	H	0.928742	0.036294	0.778411
H351	H	1.262075	0.369627	1.111744
Br352	Br	1.155734	-0.879882	0.237007
Br353	Br	1.489067	-0.546549	0.570340
Br354	Br	1.822400	-0.213215	0.903674
H355	H	0.269654	-0.207429	0.311151
H356	H	0.602988	0.125905	0.644485
H357	H	0.936321	0.459238	0.977818
H358	H	1.083337	-0.425299	0.303073
H359	H	1.416671	-0.091966	0.636407
H360	H	1.750004	0.241368	0.969740
Br361	Br	0.888533	-1.095151	0.482068
Br362	Br	1.221866	-0.761818	0.815402
Br363	Br	1.555199	-0.428484	1.148735
Br364	Br	0.841620	-0.738463	0.524929
Br365	Br	1.174953	-0.405130	0.858262
Br366	Br	1.508286	-0.071797	1.191596
H367	H	0.866970	-0.640673	0.501623
H368	H	1.200303	-0.307340	0.834956
H369	H	1.533636	0.025994	1.168289
H370	H	0.913659	-0.510072	0.458702
H371	H	1.246992	-0.176738	0.792036
H372	H	1.580326	0.156595	1.125369
H373	H	1.062971	-0.214710	0.784821
H374	H	1.396304	0.118623	1.118155
H375	H	1.729638	0.451957	1.451488
Br376	Br	0.841681	-0.879223	0.524931
Br377	Br	1.175015	-0.545889	0.858265
Br378	Br	1.508348	-0.212556	1.191598
H379	H	1.130299	-0.781972	0.260264
H380	H	1.463632	-0.448638	0.593597
H381	H	1.796965	-0.115305	0.926930
H382	H	0.867030	-0.781432	0.501629
H383	H	1.200363	-0.448099	0.834962
H384	H	1.533696	-0.114766	1.168296
H385	H	0.940285	-0.289754	0.891205
H386	H	1.273619	0.043579	1.224538
H387	H	1.606952	0.376913	1.557872
