data_functionalizedCrystal
_audit_creation_method	'MofGen! by Chris Wilmer'
_symmetry_space_group_name_H-M	'P1'
_symmetry_Int_Tables_number	1
_symmetry_cell_setting	triclinic
loop_
_symmetry_equiv_pos_as_xyz
  x,y,z
_cell_length_a	23.532361
_cell_length_b	23.532357
_cell_length_c	12.503572
_cell_angle_alpha	93.494896
_cell_angle_beta	86.508879
_cell_angle_gamma	82.828980
loop_
_atom_site_label
_atom_site_type_symbol
_atom_site_fract_x
_atom_site_fract_y
_atom_site_fract_z
O1	O	0.758564	0.065700	-0.089225
O2	O	0.592696	0.075730	-0.089252
O3	O	0.680646	-0.012219	-0.089216
O4	O	0.670615	0.153649	-0.089261
O5	O	0.674032	-0.005594	0.089424
O6	O	0.586082	0.082355	0.089387
O7	O	0.751950	0.072325	0.089415
Cu8	Cu	0.668412	0.077945	0.105712
Cu9	Cu	0.676234	0.070110	-0.105550
O10	O	0.664000	0.160274	0.089378
C11	C	0.568173	0.078791	0.000064
C12	C	0.504955	0.078036	0.000055
C13	C	0.235317	0.071121	-0.097314
C14	C	0.294717	0.071836	-0.097317
O15	O	0.328509	0.069115	-0.180130
N16	N	0.320817	0.075808	0.000059
C17	C	0.287515	0.079060	0.097445
O18	O	0.315169	0.082505	0.180271
C19	C	0.228116	0.078341	0.097447
C20	C	0.202019	0.074375	0.000064
C21	C	0.209219	0.067154	-0.194689
C22	C	0.149823	0.066440	-0.194686
C23	C	0.116525	0.069694	-0.097308
C24	C	0.142623	0.073661	0.000067
C25	C	0.194816	0.081589	0.194831
C26	C	0.135414	0.080870	0.194825
C27	C	0.109317	0.076903	0.097442
C28	C	0.049929	0.076201	0.097449
N29	N	0.023829	0.072228	0.000072
C30	C	0.057127	0.068975	-0.097306
C31	C	0.412255	0.080569	0.097434
C32	C	0.471651	0.081292	0.097434
C33	C	0.478849	0.074066	-0.097329
C34	C	0.419451	0.073347	-0.097327
C35	C	0.386155	0.076597	0.000058
C36	C	-0.067609	0.067477	-0.097292
C37	C	-0.127010	0.066765	-0.097280
C38	C	-0.134203	0.073988	0.097482
C39	C	-0.074807	0.074702	0.097471
C40	C	-0.041510	0.071444	0.000075
O41	O	0.016101	0.078918	0.180219
O42	O	0.029466	0.065523	-0.180118
C43	C	0.677088	-0.030123	0.000107
C44	C	0.676333	-0.093341	0.000117
C45	C	0.675204	-0.488965	-0.097318
C46	C	0.674487	-0.548364	-0.097324
O47	O	0.677163	-0.582152	-0.180139
N48	N	0.670526	-0.574464	0.000051
C49	C	0.667275	-0.541160	0.097438
O50	O	0.663840	-0.568814	0.180263
C51	C	0.667988	-0.481761	0.097443
C52	C	0.671956	-0.455666	0.000062
C53	C	0.679170	-0.462869	-0.194691
C54	C	0.679888	-0.403473	-0.194684
C55	C	0.676640	-0.370174	-0.097304
C56	C	0.672674	-0.396270	0.000069
C57	C	0.664734	-0.448458	0.194830
C58	C	0.665447	-0.389055	0.194827
C59	C	0.669414	-0.362960	0.097445
C60	C	0.670143	-0.303576	0.097456
N61	N	0.674105	-0.277476	0.000081
C62	C	0.677353	-0.310775	-0.097299
C63	C	0.665777	-0.665902	0.097420
C64	C	0.665069	-0.725301	0.097416
C65	C	0.672279	-0.732501	-0.097346
C66	C	0.672992	-0.673102	-0.097341
C67	C	0.669739	-0.639802	0.000045
C68	C	0.678861	-0.186040	-0.097278
C69	C	0.679581	-0.126640	-0.097263
C70	C	0.672368	-0.119445	0.097499
C71	C	0.671651	-0.178841	0.097485
C72	C	0.674896	-0.212137	0.000087
O73	O	0.667467	-0.269752	0.180228
O74	O	0.680780	-0.283112	-0.180110
C75	C	0.776474	0.069264	0.000096
C76	C	0.839692	0.070019	0.000098
C77	C	0.667558	0.178177	0.000053
C78	C	0.668314	0.241395	0.000036
N79	N	0.662914	0.083455	0.254302
N80	N	0.681736	0.064595	-0.254140
C81	C	0.654827	0.091566	0.473414
C82	C	0.689822	0.056486	0.526755
C83	C	0.685322	0.060999	0.648677
C84	C	0.659326	0.087054	0.351481
H85	H	0.236325	0.064502	-0.273991
C86	C	-0.155717	0.062399	-0.204407
C87	C	-0.202318	0.110376	-0.231211
C88	C	-0.231022	0.106009	-0.338333
C89	C	-0.213125	0.053664	-0.418652
C90	C	-0.166521	0.005683	-0.391850
C91	C	-0.137817	0.010051	-0.284728
H92	H	-0.215569	0.149128	-0.171752
H93	H	-0.265522	0.141527	-0.358173
H94	H	-0.234374	0.050431	-0.497951
H95	H	-0.153270	-0.033068	-0.451309
H96	H	-0.103318	-0.025468	-0.264888
C97	C	-0.046107	0.079077	0.204601
C98	C	0.000490	0.031103	0.231429
C99	C	0.029180	0.035475	0.338566
C100	C	0.011272	0.087821	0.418875
C101	C	-0.035328	0.135799	0.392049
C102	C	-0.064018	0.131428	0.284912
H103	H	0.013749	-0.007651	0.171977
H104	H	0.063677	-0.000042	0.358423
H105	H	0.032510	0.091058	0.498184
H106	H	-0.048587	0.174553	0.451501
H107	H	-0.098514	0.166945	0.265055
H108	H	0.398207	0.070117	-0.176625
C109	C	0.734866	0.011338	0.464756
C110	C	0.739335	0.006802	0.341071
C111	C	0.784379	-0.038342	0.279066
C112	C	0.824954	-0.078950	0.340745
C113	C	0.820487	-0.074416	0.464437
C114	C	0.775443	-0.029272	0.526443
H115	H	0.709298	0.036864	0.295406
H116	H	0.787686	-0.041698	0.187501
H117	H	0.858299	-0.112369	0.294845
H118	H	0.850524	-0.104478	0.510102
H119	H	0.772136	-0.025915	0.618008
C120	C	-0.030989	0.063898	-0.204426
C121	C	0.017595	0.013936	-0.231219
C122	C	0.054214	0.010363	-0.338351
C123	C	0.042249	0.056751	-0.418690
C124	C	-0.006337	0.106716	-0.391899
C125	C	-0.042956	0.110290	-0.284766
H126	H	0.026454	-0.020407	-0.171746
H127	H	0.090180	-0.026625	-0.358184
H128	H	0.069357	0.054106	-0.497996
H129	H	-0.015195	0.141059	-0.451372
H130	H	-0.078922	0.147278	-0.264934
H131	H	-0.161325	0.076639	0.176765
H132	H	0.661505	-0.469695	0.274128
C133	C	0.609793	0.136720	0.535409
C134	C	0.604927	0.140859	0.659089
C135	C	0.559895	0.186014	0.721098
C136	C	0.519729	0.227030	0.659426
C137	C	0.524594	0.222892	0.535739
C138	C	0.569626	0.177737	0.473730
H139	H	0.634661	0.110495	0.704748
H140	H	0.556294	0.189076	0.812660
H141	H	0.486394	0.260456	0.705329
H142	H	0.494859	0.253256	0.490079
H143	H	0.573226	0.174675	0.382168
C144	C	0.515484	0.070480	-0.204451
C145	C	0.564068	0.020514	-0.231203
C146	C	0.600704	0.016926	-0.338318
C147	C	0.588756	0.063305	-0.418681
C148	C	0.540171	0.113275	-0.391931
C149	C	0.503535	0.116862	-0.284816
H150	H	0.572914	-0.013822	-0.171711
H151	H	0.636670	-0.020065	-0.358119
H152	H	0.615877	0.060649	-0.497974
H153	H	0.531324	0.147610	-0.451423
H154	H	0.467568	0.153853	-0.265015
C155	C	0.500352	0.085658	0.204559
C156	C	0.482450	0.137997	0.284888
C157	C	0.511148	0.142356	0.392019
C158	C	0.557747	0.094376	0.418821
C159	C	0.575651	0.042034	0.338489
C160	C	0.546953	0.037674	0.231359
H161	H	0.447952	0.173518	0.265050
H162	H	0.497894	0.181104	0.451485
H163	H	0.578990	0.097604	0.498125
H164	H	0.610148	0.006513	0.358328
H165	H	0.560207	-0.001074	0.171892
H166	H	0.681500	-0.213143	-0.176588
H167	H	0.128581	0.063207	-0.273985
H168	H	0.108306	0.083521	0.274129
H169	H	0.682813	-0.105396	-0.176566
H170	H	0.385147	0.083222	0.176742
C171	C	0.662209	-0.629277	0.204555
C172	C	0.612247	-0.580694	0.231353
C173	C	0.608678	-0.544073	0.338486
C174	C	0.655070	-0.556035	0.418822
C175	C	0.705035	-0.604620	0.392026
C176	C	0.708605	-0.641241	0.284893
H177	H	0.577901	-0.571837	0.171882
H178	H	0.571690	-0.508107	0.358322
H179	H	0.652428	-0.528926	0.498128
H180	H	0.739381	-0.613477	0.451497
H181	H	0.745593	-0.677208	0.265057
C182	C	0.684241	-0.374774	-0.301809
C183	C	0.736572	-0.392678	-0.382149
C184	C	0.740921	-0.363983	-0.489281
C185	C	0.692938	-0.317385	-0.516072
C186	C	0.640603	-0.299479	-0.435729
C187	C	0.636254	-0.328173	-0.328598
H188	H	0.772096	-0.427175	-0.362319
H189	H	0.779664	-0.377239	-0.548756
H190	H	0.696157	-0.296144	-0.595377
H191	H	0.605079	-0.264982	-0.455560
H192	H	0.597511	-0.314917	-0.269123
H193	H	0.216054	0.084818	0.274131
C194	C	0.677351	-0.644398	-0.204461
C195	C	0.729689	-0.662298	-0.284789
C196	C	0.734046	-0.633598	-0.391914
C197	C	0.686066	-0.586998	-0.418710
C198	C	0.633724	-0.569096	-0.338380
C199	C	0.629366	-0.597796	-0.231256
H200	H	0.765210	-0.696796	-0.264954
H201	H	0.772793	-0.646851	-0.451379
H202	H	0.689291	-0.565753	-0.498010
H203	H	0.598203	-0.534598	-0.358215
H204	H	0.590619	-0.584543	-0.171790
H205	H	0.681813	-0.489975	-0.273994
H206	H	0.674922	-0.759623	-0.176639
C207	C	0.660716	-0.754001	0.204540
C208	C	0.608381	-0.736097	0.284874
C209	C	0.604027	-0.764793	0.392003
C210	C	0.652007	-0.811393	0.418798
C211	C	0.704346	-0.829300	0.338462
C212	C	0.708700	-0.800604	0.231333
H213	H	0.572860	-0.701599	0.265041
H214	H	0.565283	-0.751538	0.451473
H215	H	0.648784	-0.832636	0.498101
H216	H	0.739867	-0.863798	0.358295
H217	H	0.747445	-0.813859	0.171863
H218	H	0.662789	-0.361945	0.274132
H219	H	0.668426	-0.200089	0.176780
H220	H	0.669726	-0.092322	0.176784
