data_functionalizedCrystal
_audit_creation_method	'MofGen! by Chris Wilmer'
_symmetry_space_group_name_H-M	'P1'
_symmetry_Int_Tables_number	1
_symmetry_cell_setting	triclinic
loop_
_symmetry_equiv_pos_as_xyz
  x,y,z
_cell_length_a	21.295417
_cell_length_b	12.759401
_cell_length_c	12.759393
_cell_angle_alpha	90.018496
_cell_angle_beta	89.961877
_cell_angle_gamma	89.970137
loop_
_atom_site_label
_atom_site_type_symbol
_atom_site_fract_x
_atom_site_fract_y
_atom_site_fract_z
Zn1	Zn	-0.250569	-1.606146	-0.593933
Zn2	Zn	-0.355853	-1.605994	-0.418233
Zn3	Zn	-0.250602	-1.430448	-0.418273
Zn4	Zn	-0.355805	-1.430390	-0.593875
O5	O	-0.303208	-1.518245	-0.506079
O6	O	-0.264542	-1.753147	-0.570634
O7	O	-0.341926	-1.582668	-0.271218
O8	O	-0.162509	-1.453842	-0.441616
O9	O	-0.341894	-1.753035	-0.441548
O10	O	-0.162484	-1.582927	-0.570673
O11	O	-0.264598	-1.453695	-0.271246
O12	O	-0.264551	-1.283419	-0.441559
O13	O	-0.341811	-1.453744	-0.740904
O14	O	-0.341843	-1.283377	-0.570573
O15	O	-0.264495	-1.582871	-0.740947
O16	O	-0.443936	-1.582613	-0.441492
O17	O	-0.443901	-1.453597	-0.570535
C18	C	-0.303196	-1.245277	-0.506064
C19	C	-0.303206	-1.128501	-0.506083
C20	C	-0.466759	-1.518111	-0.506025
C21	C	-0.536727	-1.518150	-0.506038
C22	C	-0.303144	-1.518318	-0.780112
C23	C	-0.303117	-1.518350	-0.896889
C24	C	-0.569524	-1.585325	-0.573286
C25	C	-0.635267	-1.585362	-0.573312
C26	C	-0.668210	-1.518235	-0.506071
C27	C	-0.635405	-1.451046	-0.438818
C28	C	-0.569664	-1.451003	-0.438802
N29	N	-0.771479	-1.510296	-0.414125
N30	N	-0.833930	-1.510342	-0.414143
C31	C	-0.866284	-1.518357	-0.506118
N32	N	-0.833828	-1.526345	-0.598076
N33	N	-0.771371	-1.526304	-0.598056
C34	C	-0.739495	-1.518273	-0.506082
C35	C	-0.970367	-1.585577	-0.573400
C36	C	-1.036111	-1.585607	-0.573428
C37	C	-1.036248	-1.451296	-0.438925
C38	C	-0.970505	-1.451260	-0.438907
C39	C	-0.937569	-1.518407	-0.506143
C40	C	-0.139017	-1.518408	-0.506155
C41	C	-0.069049	-1.518477	-0.506188
C42	C	-0.303220	-1.792278	-0.506094
C43	C	-0.303225	-1.909054	-0.506100
C44	C	-0.343516	-1.073644	-0.573150
C45	C	-0.343524	-0.963920	-0.573161
C46	C	-0.262910	-0.963919	-0.439031
C47	C	-0.262899	-1.073641	-0.439025
C48	C	-0.390061	-1.073644	-0.650586
C49	C	-0.390069	-0.963920	-0.650597
C50	C	-0.262855	-1.585595	-0.951775
C51	C	-0.262832	-1.585620	-1.061499
C52	C	-0.343339	-1.451151	-1.061441
C53	C	-0.343358	-1.451122	-0.951719
C54	C	-0.216376	-1.663233	-0.951809
C55	C	-0.216353	-1.663258	-1.061533
C56	C	-0.303225	-1.518232	-0.233111
C57	C	-0.303075	-1.518404	-0.116335
H58	H	-0.542709	-1.639997	-0.628036
H59	H	-0.376101	-1.396414	-1.106098
H60	H	-0.376142	-1.396360	-0.907035
C61	C	-0.150525	-1.633840	-0.911616
H62	H	-0.123430	-1.621762	-0.969544
H63	H	-0.134335	-1.689531	-0.870267
H64	H	-0.153186	-1.572074	-0.870252
H65	H	-0.661975	-1.640056	-0.628085
C66	C	-0.455907	-0.923626	-0.620948
H67	H	-0.455911	-0.849169	-0.620968
H68	H	-0.466746	-0.948400	-0.553111
H69	H	-0.485682	-0.948441	-0.670492
C70	C	-0.671639	-1.377209	-0.364854
H71	H	-0.715490	-1.386863	-0.374487
H72	H	-0.660898	-1.306603	-0.380165
H73	H	-0.660890	-1.392623	-0.294270
C74	C	-0.372493	-1.113928	-0.760554
H75	H	-0.365269	-1.056038	-0.805783
H76	H	-0.405874	-1.155279	-0.787485
H77	H	-0.335487	-1.155309	-0.756236
C78	C	-0.234007	-1.773161	-1.101766
H79	H	-0.241288	-1.818341	-1.043855
H80	H	-0.200639	-1.800254	-1.143151
H81	H	-0.270998	-1.768687	-1.143103
C82	C	-0.239988	-1.767600	-0.905812
H83	H	-0.239204	-1.764016	-0.831451
H84	H	-0.213594	-1.823078	-0.928815
H85	H	-0.281747	-1.780081	-0.928779
C86	C	-0.533586	-1.377113	-0.364819
H87	H	-0.562619	-1.337141	-0.324771
H88	H	-0.507942	-1.331301	-0.404959
H89	H	-0.507944	-1.417322	-0.319065
C90	C	-0.934134	-1.659401	-0.647387
H91	H	-0.963085	-1.699397	-0.687461
H92	H	-0.908477	-1.705193	-0.607254
H93	H	-0.908494	-1.619141	-0.693116
C94	C	-0.153778	-1.623975	-1.107550
H95	H	-0.125925	-1.606470	-1.052116
H96	H	-0.161243	-1.563721	-1.149446
H97	H	-0.135556	-1.677515	-1.149466
C98	C	-1.072190	-1.659504	-0.647401
H99	H	-1.116061	-1.649906	-0.637791
H100	H	-1.061387	-1.730094	-0.632076
H101	H	-1.061389	-1.644085	-0.717981
C102	C	-1.072477	-1.377450	-0.364967
H103	H	-1.116328	-1.387097	-0.374605
H104	H	-1.061731	-1.306846	-0.380282
H105	H	-1.061732	-1.392861	-0.294381
H106	H	-0.436347	-1.107638	-0.621293
H107	H	-0.230071	-1.118301	-0.384420
C108	C	-0.934424	-1.377374	-0.364929
H109	H	-0.890553	-1.386956	-0.374555
H110	H	-0.945223	-1.392790	-0.294353
H111	H	-0.945229	-1.306779	-0.380257
C112	C	-0.218577	-0.903574	-0.365268
H113	H	-0.194565	-0.951963	-0.325330
H114	H	-0.242625	-0.860735	-0.319420
H115	H	-0.191179	-0.860810	-0.405556
C116	C	-0.366561	-0.917994	-0.755091
H117	H	-0.356091	-0.973467	-0.801621
H118	H	-0.330452	-0.876108	-0.742723
H119	H	-0.398646	-0.876082	-0.785403
