data_functionalizedCrystal
_audit_creation_method	'MofGen! by Chris Wilmer'
_symmetry_space_group_name_H-M	'P1'
_symmetry_Int_Tables_number	1
_symmetry_cell_setting	triclinic
loop_
_symmetry_equiv_pos_as_xyz
  x,y,z
_cell_length_a	27.731996
_cell_length_b	14.853567
_cell_length_c	13.330367
_cell_angle_alpha	90.004582
_cell_angle_beta	89.989375
_cell_angle_gamma	96.871841
loop_
_atom_site_label
_atom_site_type_symbol
_atom_site_fract_x
_atom_site_fract_y
_atom_site_fract_z
O1	O	0.063108	-1.195320	-0.083368
O2	O	0.563108	-0.695320	0.416632
O3	O	0.070626	-0.932736	-0.083387
O4	O	0.570626	-0.432736	0.416613
O5	O	-0.003493	-1.072208	-0.083355
O6	O	0.496507	-0.572208	0.416645
O7	O	0.137227	-1.055848	-0.083400
O8	O	0.637227	-0.555848	0.416600
O9	O	-0.003495	-1.072188	0.083492
O10	O	0.496505	-0.572188	0.583492
O11	O	0.070624	-0.932716	0.083460
O12	O	0.570624	-0.432716	0.583460
O13	O	0.063106	-1.195300	0.083479
O14	O	0.563106	-0.695300	0.583479
Cu15	Cu	0.066865	-1.064006	0.098704
Cu16	Cu	0.566865	-0.564006	0.598704
Cu17	Cu	0.066867	-1.064030	-0.098612
Cu18	Cu	0.566867	-0.564030	0.401388
O19	O	0.137226	-1.055828	0.083447
O20	O	0.637226	-0.555828	0.583447
C21	C	0.070284	-0.899143	0.000035
C22	C	0.570284	-0.399143	0.500035
C23	C	0.069264	-0.799076	0.000028
C24	C	0.569264	-0.299076	0.500028
C25	C	-0.021503	-1.071862	0.000072
C26	C	0.478497	-0.571862	0.500072
C27	C	-0.075164	-1.070849	0.000082
C28	C	0.424836	-0.570849	0.500082
C29	C	0.063448	-1.228893	0.000055
C30	C	0.563448	-0.728893	0.500055
C31	C	0.064469	-1.328960	0.000055
C32	C	0.564469	-0.828960	0.500055
C33	C	-0.407909	-1.064492	-0.090916
C34	C	0.092091	-0.564492	0.409084
C35	C	-0.609585	-1.060648	-0.090934
C36	C	-0.109585	-0.560648	0.409066
O37	O	-0.635658	-1.060122	-0.168283
O38	O	-0.135658	-0.560122	0.331717
N39	N	-0.634806	-1.060160	0.000014
N40	N	-0.134806	-0.560160	0.500014
C41	C	-0.609603	-1.060626	0.090972
C42	C	-0.109603	-0.560626	0.590972
O43	O	-0.635682	-1.060114	0.168328
O44	O	-0.135682	-0.560114	0.668328
C45	C	-0.407928	-1.064464	0.090989
C46	C	0.092072	-0.564464	0.590989
C47	C	-0.382711	-1.064961	0.000036
C48	C	0.117289	-0.564961	0.500036
C49	C	-0.382692	-1.064988	-0.181862
C50	C	0.117308	-0.564988	0.318138
C51	C	-0.332276	-1.065954	-0.181856
C52	C	0.167724	-0.565954	0.318144
C53	C	-0.307078	-1.066424	-0.090905
C54	C	0.192922	-0.566424	0.409095
C55	C	-0.332295	-1.065927	0.000041
C56	C	0.167705	-0.565927	0.500041
C57	C	-0.382726	-1.064924	0.181946
C58	C	0.117274	-0.564924	0.681946
C59	C	-0.332304	-1.065881	0.181943
C60	C	0.167696	-0.565881	0.681943
C61	C	-0.307087	-1.066379	0.090989
C62	C	0.192913	-0.566379	0.590989
C63	C	-0.256681	-1.067362	0.090998
C64	C	0.243319	-0.567362	0.590998
N65	N	-0.231461	-1.067851	0.000050
N66	N	0.268539	-0.567851	0.500050
C67	C	-0.256659	-1.067381	-0.090901
C68	C	0.243341	-0.567381	0.409099
C69	C	-0.715486	-1.058614	0.090957
C70	C	-0.215486	-0.558614	0.590957
C71	C	-0.765905	-1.057656	0.090953
C72	C	-0.265905	-0.557656	0.590953
C73	C	-0.765883	-1.057676	-0.090953
C74	C	-0.265883	-0.557676	0.409047
C75	C	-0.715464	-1.058640	-0.090948
C76	C	-0.215464	-0.558640	0.409052
C77	C	-0.690266	-1.059102	0.000009
C78	C	-0.190266	-0.559102	0.500009
C79	C	-0.150783	-1.069410	-0.090883
C80	C	0.349217	-0.569410	0.409117
C81	C	-0.100363	-1.070380	-0.090869
C82	C	0.399637	-0.570380	0.409131
C83	C	-0.100388	-1.070355	0.091036
C84	C	0.399612	-0.570355	0.591036
C85	C	-0.150804	-1.069390	0.091023
C86	C	0.349196	-0.569390	0.591023
C87	C	-0.176000	-1.068915	0.000056
C88	C	0.324000	-0.568915	0.500056
O89	O	-0.230577	-1.067879	0.168306
O90	O	0.269423	-0.567879	0.668306
O91	O	-0.230571	-1.067874	-0.168246
O92	O	0.269429	-0.567874	0.331754
C93	C	-0.458325	-1.063526	-0.090921
C94	C	0.041675	-0.563526	0.409079
C95	C	-0.483542	-1.063030	0.000025
C96	C	0.016458	-0.563030	0.500025
C97	C	-0.458344	-1.063499	0.090976
C98	C	0.041656	-0.563499	0.590976
C99	C	-0.533961	-1.062072	0.000021
C100	C	-0.033961	-0.562072	0.500021
C101	C	-0.559159	-1.061602	-0.090931
C102	C	-0.059159	-0.561602	0.409069
C103	C	-0.533939	-1.062091	-0.181878
C104	C	-0.033939	-0.562091	0.318122
C105	C	-0.483524	-1.063057	-0.181873
C106	C	0.016476	-0.563057	0.318127
C107	C	-0.483564	-1.063011	0.181924
C108	C	0.016436	-0.563011	0.681924
C109	C	-0.533980	-1.062046	0.181911
C110	C	-0.033980	-0.562046	0.681911
C111	C	-0.559178	-1.061576	0.090959
C112	C	-0.059178	-0.561576	0.590959
C113	C	0.155235	-1.056174	0.000018
C114	C	0.655235	-0.556174	0.500018
C115	C	0.208896	-1.057187	0.000002
C116	C	0.708896	-0.557187	0.500002
N117	N	0.066863	-1.063996	0.237486
N118	N	0.566863	-0.563996	0.737486
C119	C	0.020920	-0.387345	0.000066
C120	C	0.520920	0.112655	0.500066
C121	C	0.108976	-0.364601	0.000037
C122	C	0.608976	0.135399	0.500037
C123	C	0.109935	-0.458619	0.000034
C124	C	0.609935	0.041381	0.500034
C125	C	0.066387	-0.517005	0.000045
C126	C	0.566387	-0.017005	0.500045
C127	C	0.021879	-0.481372	0.000060
C128	C	0.521879	0.018628	0.500060
C129	C	0.154443	-0.494259	0.000009
C130	C	0.654443	0.005741	0.500009
C131	C	0.155404	-0.588282	0.000004
C132	C	0.655404	-0.088282	0.500004
C133	C	0.111855	-0.646669	0.000023
C134	C	0.611855	-0.146669	0.500023
C135	C	0.067345	-0.611031	0.000039
C136	C	0.567345	-0.111031	0.500039
C137	C	0.023797	-0.669417	0.000050
C138	C	0.523797	-0.169417	0.500050
C139	C	-0.020714	-0.633781	0.000073
C140	C	0.479286	-0.133781	0.500073
C141	C	-0.021670	-0.539760	0.000078
C142	C	0.478330	-0.039760	0.500078
C143	C	0.112812	-0.740691	0.000017
C144	C	0.612812	-0.240691	0.500017
C145	C	0.024755	-0.763444	0.000043
C146	C	0.524755	-0.263444	0.500043
N147	N	0.066865	-1.064047	-0.237393
N148	N	0.566865	-0.564047	0.262607
C149	C	0.099674	-1.002269	0.710095
C150	C	0.599674	-0.502269	1.210095
C151	C	0.034056	-1.125815	0.710091
C152	C	0.534056	-0.625815	1.210091
C153	C	0.034055	-1.125805	0.605072
C154	C	0.534055	-0.625805	1.105072
C155	C	0.066864	-1.064027	0.552560
C156	C	0.566864	-0.564027	1.052560
C157	C	0.099675	-1.002259	0.605066
C158	C	0.599675	-0.502259	1.105066
C159	C	0.001248	-1.187577	0.552558
C160	C	0.501248	-0.687577	1.052558
C161	C	0.001246	-1.187570	0.447533
C162	C	0.501246	-0.687570	0.947533
C163	C	0.034053	-1.125787	0.395019
C164	C	0.534053	-0.625787	0.895019
C165	C	0.066864	-1.064016	0.447532
C166	C	0.566864	-0.564016	0.947532
C167	C	0.099674	-1.002239	0.395020
C168	C	0.599674	-0.502239	0.895020
C169	C	0.132483	-0.940463	0.447531
C170	C	0.632483	-0.440463	0.947531
C171	C	0.132482	-0.940476	0.552553
C172	C	0.632482	-0.440476	1.052553
C173	C	0.034054	-1.125774	0.289998
C174	C	0.534054	-0.625774	0.789998
C175	C	0.099674	-1.002228	0.289992
C176	C	0.599674	-0.502228	0.789992
H177	H	-0.079833	-1.070787	-0.164938
H178	H	0.420167	-0.570787	0.335062
H179	H	0.144431	-0.317059	0.000020
H180	H	0.644431	0.182941	0.500020
H181	H	-0.694936	-1.059044	-0.165011
H182	H	-0.194936	-0.559044	0.334989
H183	H	-0.025462	-1.237880	0.595317
H184	H	0.474538	-0.737880	1.095317
H185	H	0.191647	-0.617288	-0.000014
H186	H	0.691647	-0.117288	0.499986
H187	H	-0.025470	-1.237870	0.404786
H188	H	0.474530	-0.737870	0.904786
H189	H	-0.311789	-1.066244	0.256013
H190	H	0.188211	-0.566244	0.756013
H191	H	-0.311749	-1.066356	-0.255920
H192	H	0.188251	-0.566356	0.244080
H193	H	-0.403249	-1.064520	0.256011
H194	H	0.096751	-0.564520	0.756011
Cl195	Cl	-0.077621	-0.494954	0.000101
Cl196	Cl	0.422379	0.005046	0.500101
Cl197	Cl	0.140920	-0.924555	0.223985
Cl198	Cl	0.640920	-0.424555	0.723985
H199	H	0.149052	-0.769701	0.000000
H200	H	0.649052	-0.269701	0.500000
H201	H	-0.010708	-0.810976	0.000056
H202	H	0.489292	-0.310976	0.500056
Cl203	Cl	-0.035033	-0.342549	0.000100
Cl204	Cl	0.464967	0.157451	0.500100
Cl205	Cl	-0.414361	-1.064400	-0.296217
Cl206	Cl	0.085639	-0.564400	0.203783
H207	H	0.159195	-0.890181	0.595313
H208	H	0.659195	-0.390181	1.095313
Cl209	Cl	0.173731	-0.862808	0.381505
Cl210	Cl	0.673731	-0.362808	0.881505
H211	H	0.189897	-0.446715	-0.000010
H212	H	0.689897	0.053285	0.499990
H213	H	-0.056170	-0.681331	0.000075
H214	H	0.443830	-0.181331	0.500075
Cl215	Cl	0.140917	-0.924608	0.776102
Cl216	Cl	0.640917	-0.424608	1.276102
H217	H	0.007346	-1.176117	0.752849
H218	H	0.507346	-0.676117	1.252849
H219	H	0.007343	-1.176075	0.247248
H220	H	0.507343	-0.676075	0.747248
H221	H	-0.786409	-1.057295	-0.165010
H222	H	-0.286409	-0.557295	0.334990
Cl223	Cl	-0.182449	-1.068814	-0.205244
Cl224	Cl	0.317551	-0.568814	0.294756
Cl225	Cl	-0.797601	-1.057048	0.205299
Cl226	Cl	-0.297601	-0.557048	0.705299
H227	H	-0.171337	-1.068994	0.165085
H228	H	0.328663	-0.568994	0.665085
Cl229	Cl	-0.683815	-1.059190	0.205316
Cl230	Cl	-0.183815	-0.559190	0.705316
H231	H	-0.079863	-1.070742	0.165087
H232	H	0.420137	-0.570742	0.665087
H233	H	-0.554465	-1.061713	-0.255934
H234	H	-0.054465	-0.561713	0.244066
Cl235	Cl	-0.451830	-1.063680	-0.296221
Cl236	Cl	0.048170	-0.563680	0.203779
H237	H	-0.554508	-1.061648	0.255982
H238	H	-0.054508	-0.561648	0.755982
H239	H	-0.463052	-1.063394	0.255989
H240	H	0.036948	-0.563394	0.755989
