data_functionalizedCrystal
_audit_creation_method	'MofGen! by Chris Wilmer'
_symmetry_space_group_name_H-M	'P1'
_symmetry_Int_Tables_number	1
_symmetry_cell_setting	triclinic
loop_
_symmetry_equiv_pos_as_xyz
  x,y,z
_cell_length_a	14.044220
_cell_length_b	14.044220
_cell_length_c	12.503552
_cell_angle_alpha	93.839891
_cell_angle_beta	93.839943
_cell_angle_gamma	86.811122
loop_
_atom_site_label
_atom_site_type_symbol
_atom_site_fract_x
_atom_site_fract_y
_atom_site_fract_z
O1	O	0.225121	-1.282207	-0.089210
O2	O	0.475121	-1.032207	0.160790
O3	O	0.725121	-0.782207	0.410790
O4	O	0.975121	-0.532207	0.660790
O5	O	0.216814	-1.005537	-0.089237
O6	O	0.466814	-0.755537	0.160763
O7	O	0.716814	-0.505537	0.410763
O8	O	0.966814	-0.255537	0.660763
O9	O	0.082632	-1.139718	-0.089214
O10	O	0.332632	-0.889718	0.160786
O11	O	0.582632	-0.639718	0.410786
O12	O	0.832632	-0.389718	0.660786
O13	O	0.359303	-1.148025	-0.089234
O14	O	0.609303	-0.898025	0.160766
O15	O	0.859303	-0.648025	0.410766
O16	O	1.109303	-0.398025	0.660766
O17	O	0.092732	-1.129615	0.089427
O18	O	0.342732	-0.879615	0.339427
O19	O	0.592732	-0.629615	0.589427
O20	O	0.842732	-0.379615	0.839427
O21	O	0.226914	-0.995434	0.089403
O22	O	0.476914	-0.745434	0.339403
O23	O	0.726914	-0.495434	0.589403
O24	O	0.976914	-0.245434	0.839403
O25	O	0.235221	-1.272104	0.089430
O26	O	0.485221	-1.022104	0.339430
O27	O	0.735221	-0.772104	0.589430
O28	O	0.985221	-0.522104	0.839430
Cu29	Cu	0.231989	-1.132846	0.105728
Cu30	Cu	0.481989	-0.882846	0.355728
Cu31	Cu	0.731989	-0.632846	0.605728
Cu32	Cu	0.981989	-0.382846	0.855728
Cu33	Cu	0.220045	-1.144794	-0.105535
Cu34	Cu	0.470045	-0.894794	0.144465
Cu35	Cu	0.720045	-0.644794	0.394465
Cu36	Cu	0.970045	-0.394794	0.644465
O37	O	0.369402	-1.137922	0.089407
O38	O	0.619402	-0.887922	0.339407
O39	O	0.869402	-0.637922	0.589407
O40	O	1.119402	-0.387922	0.839407
C41	C	0.218228	-0.964864	0.000080
C42	C	0.468228	-0.714864	0.250080
C43	C	0.718228	-0.464864	0.500080
C44	C	0.968228	-0.214864	0.750080
C45	C	0.207383	-0.858721	0.000070
C46	C	0.457383	-0.608721	0.250070
C47	C	0.707383	-0.358721	0.500070
C48	C	0.957383	-0.108721	0.750070
C49	C	0.052060	-1.131031	0.000107
C50	C	0.302060	-0.881031	0.250107
C51	C	0.552060	-0.631031	0.500107
C52	C	0.802060	-0.381031	0.750107
C53	C	-0.054082	-1.120187	0.000107
C54	C	0.195918	-0.870187	0.250107
C55	C	0.445918	-0.620187	0.500107
C56	C	0.695918	-0.370187	0.750107
C57	C	0.233807	-1.312777	0.000111
C58	C	0.483807	-1.062777	0.250111
C59	C	0.733807	-0.812777	0.500111
C60	C	0.983807	-0.562777	0.750111
C61	C	0.244651	-1.418920	0.000114
C62	C	0.494651	-1.168920	0.250114
C63	C	0.744651	-0.918920	0.500114
C64	C	0.994651	-0.668920	0.750114
C65	C	-0.248421	-1.100361	0.000090
C66	C	0.001579	-0.850361	0.250090
C67	C	0.251579	-0.600361	0.500090
C68	C	0.501579	-0.350361	0.750090
C69	C	-0.299551	-1.177275	0.000094
C70	C	-0.049551	-0.927275	0.250094
C71	C	0.200449	-0.677275	0.500094
C72	C	0.450449	-0.427275	0.750094
C73	C	-0.407687	-1.166244	0.000084
C74	C	-0.157687	-0.916244	0.250084
C75	C	0.092313	-0.666244	0.500084
C76	C	0.342313	-0.416244	0.750084
C77	C	-0.140274	-1.111391	0.000099
C78	C	0.109726	-0.861391	0.250099
C79	C	0.359726	-0.611391	0.500099
C80	C	0.609726	-0.361391	0.750099
C81	C	0.399974	-1.146609	0.000084
C82	C	0.649974	-0.896609	0.250084
C83	C	0.899974	-0.646609	0.500084
C84	C	1.149974	-0.396609	0.750084
C85	C	0.506117	-1.157454	0.000077
C86	C	0.756117	-0.907454	0.250077
C87	C	1.006117	-0.657454	0.500077
C88	C	1.256117	-0.407454	0.750077
N89	N	0.240390	-1.124449	0.254319
N90	N	0.490390	-0.874449	0.504319
N91	N	0.740390	-0.624449	0.754319
N92	N	0.990390	-0.374449	1.004319
C93	C	0.187558	-0.664382	0.000092
C94	C	0.437558	-0.414382	0.250092
C95	C	0.687558	-0.164382	0.500092
C96	C	0.937558	0.085618	0.750092
C97	C	0.264472	-0.613253	0.000091
C98	C	0.514472	-0.363253	0.250091
C99	C	0.764472	-0.113253	0.500091
C100	C	1.014472	0.136747	0.750091
C101	C	0.253441	-0.505116	0.000104
C102	C	0.503441	-0.255116	0.250104
C103	C	0.753441	-0.005116	0.500104
C104	C	1.003441	0.244884	0.750104
C105	C	0.198587	-0.772529	0.000080
C106	C	0.448587	-0.522529	0.250080
C107	C	0.698587	-0.272529	0.500080
C108	C	0.948587	-0.022529	0.750080
N109	N	0.211637	-1.153198	-0.254126
N110	N	0.461637	-0.903198	-0.004126
N111	N	0.711637	-0.653198	0.245874
N112	N	0.961637	-0.403198	0.495874
C113	C	0.199276	-1.165545	0.526760
C114	C	0.449276	-0.915545	0.776760
C115	C	0.699276	-0.665545	1.026760
C116	C	0.949276	-0.415545	1.276760
C117	C	0.252749	-1.112106	0.473426
C118	C	0.502749	-0.862106	0.723426
C119	C	0.752749	-0.612106	0.973426
C120	C	1.002749	-0.362106	1.223426
C121	C	0.245871	-1.118975	0.351504
C122	C	0.495871	-0.868975	0.601504
C123	C	0.745871	-0.618975	0.851504
C124	C	0.995871	-0.368975	1.101504
C125	C	0.206153	-1.158676	0.648693
C126	C	0.456153	-0.908676	0.898693
C127	C	0.706153	-0.658676	1.148693
C128	C	0.956153	-0.408676	1.398693
H129	H	-0.262115	-1.251413	0.000029
H130	H	-0.012115	-1.001413	0.250029
H131	H	0.237885	-0.751413	0.500029
H132	H	0.487885	-0.501413	0.750029
H133	H	0.303695	-1.061196	0.519333
H134	H	0.553695	-0.811196	0.769333
H135	H	0.803695	-0.561196	1.019333
H136	H	1.053695	-0.311196	1.269333
N137	N	0.362674	-0.662830	0.000053
N138	N	0.612674	-0.412830	0.250053
N139	N	0.862674	-0.162830	0.500053
N140	N	1.112674	0.087170	0.750053
H141	H	0.402292	-0.640041	0.066268
H142	H	0.652292	-0.390041	0.316268
H143	H	0.902292	-0.140041	0.566268
H144	H	1.152292	0.109959	0.816268
H145	H	0.356664	-0.734161	-0.000001
H146	H	0.606664	-0.484161	0.249999
H147	H	0.856664	-0.234161	0.499999
H148	H	1.106664	0.015839	0.749999
N149	N	-0.298004	-1.002168	0.000079
N150	N	-0.048004	-0.752168	0.250079
N151	N	0.201996	-0.502168	0.500079
N152	N	0.451996	-0.252168	0.750079
H153	H	-0.369344	-1.008108	0.000077
H154	H	-0.119344	-0.758108	0.250077
H155	H	0.130656	-0.508108	0.500077
H156	H	0.380656	-0.258108	0.750077
H157	H	-0.275136	-0.962615	0.066305
H158	H	-0.025136	-0.712615	0.316305
H159	H	0.224864	-0.462615	0.566305
H160	H	0.474864	-0.212615	0.816305
N161	N	0.089365	-0.614799	0.000112
N162	N	0.339365	-0.364799	0.250112
N163	N	0.589365	-0.114799	0.500112
N164	N	0.839365	0.135201	0.750112
H165	H	0.095305	-0.543459	0.000120
H166	H	0.345305	-0.293459	0.250120
H167	H	0.595305	-0.043459	0.500120
H168	H	0.845305	0.206541	0.750120
H169	H	0.049807	-0.637663	-0.066112
H170	H	0.299807	-0.387663	0.183888
H171	H	0.549807	-0.137663	0.433888
H172	H	0.799807	0.112337	0.683888
H173	H	0.148334	-1.216452	0.480859
H174	H	0.398334	-0.966452	0.730859
H175	H	0.648334	-0.716452	0.980859
H176	H	0.898334	-0.466452	1.230859
