data_functionalizedCrystal
_audit_creation_method	'MofGen! by Chris Wilmer'
_symmetry_space_group_name_H-M	'P1'
_symmetry_Int_Tables_number	1
_symmetry_cell_setting	triclinic
loop_
_symmetry_equiv_pos_as_xyz
  x,y,z
_cell_length_a	20.016444
_cell_length_b	23.196402
_cell_length_c	20.016444
_cell_angle_alpha	119.999435
_cell_angle_beta	89.996072
_cell_angle_gamma	60.000533
loop_
_atom_site_label
_atom_site_type_symbol
_atom_site_fract_x
_atom_site_fract_y
_atom_site_fract_z
Zr1	Zr	0.643621	0.630984	0.087613
O2	O	0.536940	0.751259	0.194291
O3	O	0.676321	0.510715	0.054915
O4	O	0.676315	0.630989	0.194290
O5	O	0.536954	0.630978	-0.055031
O6	O	0.786259	0.630986	0.194284
O7	O	0.536946	0.630985	0.054915
O8	O	0.786271	0.415838	-0.055032
O9	O	0.536943	0.846126	0.194286
O10	O	0.772321	0.560178	0.040960
O11	O	0.690277	0.560176	-0.041088
O12	O	0.690270	0.701783	0.123009
O13	O	0.608225	0.701780	0.040961
Zr14	Zr	0.818982	0.630968	-0.087747
Zr15	Zr	0.818969	0.630978	0.087604
Zr16	Zr	0.643633	0.630973	-0.087739
Zr17	Zr	0.643625	0.782286	0.087605
Zr18	Zr	0.818977	0.479665	-0.087740
O19	O	0.786281	0.751236	-0.055049
O20	O	0.786263	0.751251	0.194278
O21	O	0.536958	0.751243	-0.055037
O22	O	0.925663	0.510693	-0.194425
O23	O	0.925645	0.510708	0.054902
O24	O	0.676339	0.510700	-0.194413
O25	O	0.925648	0.630973	0.054896
O26	O	0.786288	0.630962	-0.194424
O27	O	0.676343	0.630965	-0.194419
O28	O	0.925656	0.630966	-0.055050
O29	O	0.676322	0.846122	0.194279
O30	O	0.786281	0.415830	-0.194414
O31	O	0.925660	0.415825	-0.194421
O32	O	0.925649	0.415834	-0.055039
O33	O	0.536953	0.846117	0.054905
O34	O	0.676332	0.846113	0.054898
O35	O	0.772333	0.560168	-0.123143
O36	O	0.854377	0.560171	-0.041096
O37	O	0.772326	0.701775	0.040953
O38	O	0.690281	0.701773	-0.041095
C39	C	0.731295	0.441719	-0.000058
C40	C	0.731293	0.377488	-0.000055
C41	C	0.774114	0.347318	0.042776
C42	C	0.774122	0.286957	0.042770
C43	C	0.731293	0.256779	-0.000057
C44	C	0.688471	0.286952	-0.042897
C45	C	0.688471	0.347307	-0.042896
C46	C	0.659552	0.194753	0.006059
C47	C	0.659550	0.134403	0.006064
C48	C	0.731294	0.070625	-0.000065
C49	C	0.803040	0.067210	-0.006182
C50	C	0.803040	0.127564	-0.006181
C51	C	0.731289	0.191335	-0.000063
C52	C	0.774127	-0.024996	0.042761
C53	C	0.774137	-0.085361	0.042748
C54	C	0.688478	-0.085359	-0.042913
C55	C	0.688476	-0.025001	-0.042906
C56	C	0.731299	0.005180	-0.000065
C57	C	0.511967	0.630982	-0.000057
C58	C	0.437527	0.630985	-0.000053
C59	C	0.266267	0.630979	0.060505
C60	C	0.196326	0.630974	0.060500
C61	C	0.196342	0.630970	-0.060646
C62	C	0.266285	0.630969	-0.060643
C63	C	0.301243	0.630978	-0.000063
C64	C	0.161360	0.630973	-0.000072
C65	C	0.085528	0.630968	-0.000078
C66	C	0.377080	0.630982	-0.000057
C67	C	0.950636	0.630969	-0.000078
C68	C	1.025076	0.630967	-0.000082
C69	C	0.731285	0.630989	0.219271
C70	C	0.731280	0.630994	0.293712
C71	C	0.731307	0.820232	-0.000077
C72	C	0.731309	0.884464	-0.000080
C73	C	0.688461	0.704903	0.507799
C74	C	0.688466	0.704901	0.577741
C75	C	0.774128	0.557062	0.492069
C76	C	0.774127	0.557065	0.422129
C77	C	0.731288	0.630988	0.429997
C78	C	0.731295	0.630983	0.569879
C79	C	0.731301	0.630980	0.645713
C80	C	0.731284	0.630991	0.354159
C81	C	0.731312	0.630967	0.780597
C82	C	0.731303	0.630977	0.706164
C83	C	0.950630	0.441713	-0.000069
C84	C	1.025068	0.377479	-0.000069
C85	C	0.731311	0.441706	-0.219396
C86	C	0.731314	0.377470	-0.293834
C87	C	0.950646	0.441699	-0.219407
C88	C	1.025089	0.377461	-0.293849
C89	C	0.511957	0.820252	0.219272
C90	C	0.437514	0.884491	0.293714
C91	C	0.511973	0.820239	-0.000066
C92	C	0.437535	0.884473	-0.000065
C93	C	0.731291	0.820245	0.219262
C94	C	0.731288	0.884482	0.293700
C95	C	1.017192	0.347317	0.042770
C96	C	1.087128	0.286971	0.042786
C97	C	1.164939	0.256783	-0.000042
C98	C	1.172813	0.286950	-0.042883
C99	C	1.102878	0.347299	-0.042894
C100	C	0.774149	0.347300	-0.371631
C101	C	0.774149	0.286951	-0.441580
C102	C	0.731319	0.256770	-0.433731
C103	C	0.688480	0.286946	-0.355927
C104	C	0.688475	0.347297	-0.285979
C105	C	1.102882	0.347295	-0.285980
C106	C	1.172836	0.286944	-0.355919
C107	C	1.164996	0.256756	-0.433727
C108	C	1.087194	0.286928	-0.441595
C109	C	1.017242	0.347282	-0.371656
C110	C	0.359721	0.914664	0.285845
C111	C	0.289766	0.975033	0.355784
C112	C	0.297607	1.005224	0.433592
C113	C	0.375408	0.975048	0.441460
C114	C	0.445361	0.914684	0.371521
C115	C	0.445410	0.914640	-0.042898
C116	C	0.375475	0.975003	-0.042894
C117	C	0.297664	1.005194	-0.000063
C118	C	0.289790	0.975024	0.042774
C119	C	0.359725	0.914666	0.042775
C120	C	0.774126	0.914644	0.285825
C121	C	0.774139	0.974993	0.355760
C122	C	0.731309	1.005182	0.433571
C123	C	0.688469	0.975014	0.441445
C124	C	0.688462	0.914662	0.371509
H125	H	0.601129	0.137192	0.011049
C126	C	0.384151	1.008171	-0.090026
H127	H	0.440509	0.981532	-0.115545
H128	H	0.358658	1.065151	-0.053068
H129	H	0.358648	0.998275	-0.130558
H130	H	0.226427	0.999614	0.077646
C131	C	0.304764	0.630969	-0.127270
H132	H	0.351430	0.630961	-0.118595
H133	H	0.265907	0.678255	-0.124761
H134	H	0.320710	0.583675	-0.179561
H135	H	0.809023	0.999550	0.349334
C136	C	0.351052	0.881478	0.089882
H137	H	0.294693	0.908100	0.115380
H138	H	0.376550	0.891362	0.130415
H139	H	0.376548	0.824495	0.052905
H140	H	0.508701	0.890118	0.377939
C141	C	1.111523	0.380493	-0.200400
H142	H	1.167877	0.353883	-0.205742
H143	H	1.086022	0.370602	-0.171329
H144	H	1.086016	0.437478	-0.171338
C145	C	1.111546	0.380472	-0.090020
H146	H	1.058756	0.420744	-0.083892
H147	H	1.140618	0.337136	-0.146365
H148	H	1.140608	0.404019	-0.068860
H149	H	0.294729	0.630984	0.109833
C150	C	0.641374	0.253740	-0.347299
H151	H	0.615855	0.280351	-0.290948
H152	H	0.678350	0.196757	-0.372813
H153	H	0.600844	0.263637	-0.372804
C154	C	0.731330	0.190381	-0.510676
H155	H	0.699685	0.176727	-0.494865
H156	H	0.785901	0.143295	-0.542317
H157	H	0.708398	0.210175	-0.542311
H158	H	0.809004	0.890073	0.222474
C159	C	0.641353	0.786215	0.516454
H160	H	0.615855	0.830235	0.572809
H161	H	0.600820	0.789299	0.490957
H162	H	0.678333	0.789280	0.490947
H163	H	0.167852	0.630973	0.109819
H164	H	0.731321	1.054325	0.490510
C165	C	1.078452	0.253790	0.089903
H166	H	1.022094	0.280404	0.115393
H167	H	1.103941	0.263686	0.130443
H168	H	1.103958	0.196804	0.052930
H169	H	0.809026	0.371867	-0.378038
H170	H	0.226424	0.999592	0.349362
H171	H	1.221877	0.207642	-0.000028
H172	H	0.381783	0.999638	0.504819
H173	H	0.809006	0.496870	0.358775
H174	H	1.080823	0.262340	-0.504955
C175	C	0.641352	1.008235	0.527038
H176	H	0.647488	1.048505	0.567554
H177	H	0.662488	0.964921	0.533192
H178	H	0.584999	1.031795	0.533178
C179	C	1.258407	0.253758	-0.347250
H180	H	1.253051	0.280373	-0.290892
H181	H	1.287482	0.263651	-0.372744
H182	H	1.287472	0.196773	-0.372754
H183	H	1.221962	0.207613	-0.490669
H184	H	0.953902	0.371835	-0.378075
H185	H	0.653593	0.765091	0.641089
C186	C	0.530993	0.881441	-0.090016
H187	H	0.525655	0.908065	-0.115515
H188	H	0.560059	0.824460	-0.130550
H189	H	0.560057	0.891335	-0.053045
C190	C	0.220743	1.071583	-0.000073
H191	H	0.236585	1.085217	-0.031725
H192	H	0.189095	1.118681	0.054491
H193	H	0.189102	1.051800	-0.023012
H194	H	0.653574	0.890111	0.377933
H195	H	0.808985	0.371888	0.077658
H196	H	0.953841	0.371896	0.077657
C197	C	0.821221	0.253769	0.089891
H198	H	0.846720	0.280392	0.115410
H199	H	0.861753	0.196787	0.052927
H200	H	0.784237	0.263672	0.130422
C201	C	0.881954	0.123808	-0.012921
H202	H	0.871674	0.168890	-0.012039
H203	H	0.923506	0.074497	-0.062735
H204	H	0.899359	0.125732	0.031862
C205	C	0.351084	0.881465	0.200264
H206	H	0.403882	0.841187	0.159730
H207	H	0.322029	0.924792	0.194128
H208	H	0.322017	0.857923	0.194133
H209	H	0.861464	0.015274	-0.011183
C210	C	0.641361	0.380472	-0.200407
H211	H	0.615863	0.353845	-0.205758
H212	H	0.600827	0.437454	-0.171330
H213	H	0.678333	0.370568	-0.171346
H214	H	0.808999	-0.000424	0.077642
C215	C	0.157880	0.630972	-0.127272
H216	H	0.111211	0.630981	-0.118595
H217	H	0.196744	0.583686	-0.179562
H218	H	0.141943	0.678266	-0.124751
H219	H	0.809004	0.496876	0.485673
H220	H	0.240640	1.054376	0.490534
C221	C	1.258404	0.253727	-0.090007
H222	H	1.253087	0.280330	-0.115526
H223	H	1.287455	0.196745	-0.130525
H224	H	1.287472	0.263619	-0.053039
C225	C	0.821242	-0.118547	0.089866
H226	H	0.846737	-0.091920	0.115385
H227	H	0.861777	-0.175528	0.052900
H228	H	0.784262	-0.108650	0.130397
C229	C	0.821282	0.253761	-0.527155
H230	H	0.846799	0.280373	-0.521805
H231	H	0.784325	0.263656	-0.556226
H232	H	0.861815	0.196776	-0.556221
H233	H	0.653606	-0.109930	-0.077784
H234	H	0.601121	0.246691	0.011067
C235	C	0.641362	0.008196	-0.090010
H236	H	0.615849	-0.018415	-0.115512
H237	H	0.678329	-0.001694	-0.130540
H238	H	0.600826	0.065181	-0.053032
H239	H	0.653599	0.371871	-0.077775
C240	C	0.641357	0.253762	-0.090003
H241	H	0.647483	0.213502	-0.083862
H242	H	0.662510	0.230214	-0.146351
H243	H	0.585006	0.297096	-0.068844
