data_functionalizedCrystal
_audit_creation_method	'MofGen! by Chris Wilmer'
_symmetry_space_group_name_H-M	'P1'
_symmetry_Int_Tables_number	1
_symmetry_cell_setting	triclinic
loop_
_symmetry_equiv_pos_as_xyz
  x,y,z
_cell_length_a	13.897449
_cell_length_b	18.101395
_cell_length_c	13.897441
_cell_angle_alpha	89.970274
_cell_angle_beta	89.978743
_cell_angle_gamma	90.031931
loop_
_atom_site_label
_atom_site_type_symbol
_atom_site_fract_x
_atom_site_fract_y
_atom_site_fract_z
Zn1	Zn	1.474592	-0.294797	-0.545449
Zn2	Zn	1.807926	0.038537	-0.212116
Zn3	Zn	2.141259	0.371870	0.121218
Zn4	Zn	1.474455	-0.418650	-0.384150
Zn5	Zn	1.807788	-0.085317	-0.050817
Zn6	Zn	2.141121	0.248016	0.282517
Zn7	Zn	1.313288	-0.294829	-0.384160
Zn8	Zn	1.646621	0.038504	-0.050827
Zn9	Zn	1.979954	0.371838	0.282507
Zn10	Zn	1.313226	-0.418603	-0.545395
Zn11	Zn	1.646559	-0.085269	-0.212062
Zn12	Zn	1.979892	0.248064	0.121271
O13	O	1.393890	-0.356720	-0.464789
O14	O	1.727223	-0.023386	-0.131455
O15	O	2.060557	0.309947	0.201878
O16	O	1.609556	-0.311233	-0.524071
O17	O	1.942889	0.022101	-0.190737
O18	O	2.276222	0.355434	0.142596
O19	O	1.453044	-0.402258	-0.249170
O20	O	1.786377	-0.068925	0.084164
O21	O	2.119710	0.264408	0.417497
O22	O	1.334769	-0.191192	-0.405582
O23	O	1.668102	0.142142	-0.072248
O24	O	2.001435	0.475475	0.261085
O25	O	1.609455	-0.402227	-0.405565
O26	O	1.942788	-0.068894	-0.072232
O27	O	2.276121	0.264439	0.261102
O28	O	1.453279	-0.191168	-0.524080
O29	O	1.786612	0.142165	-0.190747
O30	O	2.119945	0.475499	0.142586
O31	O	1.334635	-0.311287	-0.249177
O32	O	1.667968	0.022046	0.084156
O33	O	2.001302	0.355379	0.417490
O34	O	1.178298	-0.311241	-0.405530
O35	O	1.511631	0.022092	-0.072196
O36	O	1.844964	0.355425	0.261137
O37	O	1.334663	-0.402146	-0.680384
O38	O	1.667996	-0.068813	-0.347051
O39	O	2.001330	0.264520	-0.013717
O40	O	1.178252	-0.402177	-0.523989
O41	O	1.511585	-0.068844	-0.190655
O42	O	1.844919	0.264489	0.142678
O43	O	1.453218	-0.311187	-0.680424
O44	O	1.786552	0.022147	-0.347090
O45	O	2.119885	0.355480	-0.013757
O46	O	1.452984	-0.522277	-0.405513
O47	O	1.786317	-0.188944	-0.072180
O48	O	2.119650	0.144390	0.261154
O49	O	1.334529	-0.522242	-0.523979
O50	O	1.667863	-0.188909	-0.190646
O51	O	2.001196	0.144425	0.142688
C52	C	1.143276	-0.356708	-0.464755
C53	C	1.476609	-0.023375	-0.131422
C54	C	1.809942	0.309958	0.201912
C55	C	1.036062	-0.356721	-0.464763
C56	C	1.369395	-0.023388	-0.131430
C57	C	1.702728	0.309945	0.201903
C58	C	0.948992	-0.356724	-0.464779
C59	C	1.282325	-0.023390	-0.131446
C60	C	1.615659	0.309943	0.201887
C61	C	0.839760	-0.356729	-0.464809
C62	C	1.173093	-0.023396	-0.131475
C63	C	1.506426	0.309938	0.201858
C64	C	1.393761	-0.549130	-0.464760
C65	C	1.727094	-0.215797	-0.131427
C66	C	2.060428	0.117536	0.201907
C67	C	1.393794	-0.631444	-0.464780
C68	C	1.727127	-0.298111	-0.131447
C69	C	2.060461	0.035222	0.201886
C70	C	1.394006	-0.930535	-0.464832
C71	C	1.727339	-0.597202	-0.131499
C72	C	2.060672	-0.263869	0.201834
C73	C	1.319650	-0.899219	-0.539553
C74	C	1.652984	-0.565886	-0.206220
C75	C	1.986317	-0.232552	0.127114
C76	C	1.319297	-0.813601	-0.539319
C77	C	1.652630	-0.480268	-0.205986
C78	C	1.985964	-0.146934	0.127347
C79	C	1.393901	-0.782153	-0.464807
C80	C	1.727234	-0.448819	-0.131474
C81	C	2.060567	-0.115486	0.201859
C82	C	1.366379	-0.813308	-0.363147
C83	C	1.699712	-0.479974	-0.029814
C84	C	2.033045	-0.146641	0.303519
C85	C	1.365899	-0.898953	-0.363594
C86	C	1.699233	-0.565620	-0.030261
C87	C	2.032566	-0.232286	0.303072
C88	C	1.496046	-0.898877	-0.490877
C89	C	1.829379	-0.565544	-0.157543
C90	C	2.162713	-0.232210	0.175790
C91	C	1.495446	-0.813226	-0.493106
C92	C	1.828779	-0.479893	-0.159773
C93	C	2.162113	-0.146559	0.173560
C94	C	1.393843	-0.698293	-0.464787
C95	C	1.727176	-0.364960	-0.131454
C96	C	2.060510	-0.031627	0.201880
C97	C	1.394061	-1.014395	-0.464846
C98	C	1.727394	-0.681061	-0.131512
C99	C	2.060728	-0.347728	0.201821
C100	C	1.645483	-0.356732	-0.464823
C101	C	1.978816	-0.023398	-0.131490
C102	C	2.312150	0.309935	0.201844
C103	C	1.752697	-0.356737	-0.464837
C104	C	2.086030	-0.023403	-0.131504
C105	C	2.419364	0.309930	0.201829
C106	C	1.393949	-0.356658	-0.716382
C107	C	1.727282	-0.023324	-0.383048
C108	C	2.060616	0.310009	-0.049715
C109	C	1.393974	-0.356631	-0.823596
C110	C	1.727308	-0.023298	-0.490262
C111	C	2.060641	0.310036	-0.156929
C112	C	1.394046	-0.163558	-0.464838
C113	C	1.727379	0.169776	-0.131505
C114	C	2.060713	0.503109	0.201829
C115	C	1.394112	-0.081244	-0.464859
C116	C	1.727446	0.252090	-0.131526
C117	C	2.060779	0.585423	0.201807
C118	C	1.393994	-0.356610	-0.910665
C119	C	1.727327	-0.023277	-0.577332
C120	C	2.060661	0.310057	-0.243999
C121	C	1.394022	-0.356577	-1.019898
C122	C	1.727355	-0.023243	-0.686565
C123	C	2.060688	0.310090	-0.353231
C124	C	1.393887	-0.356728	-0.214174
C125	C	1.727220	-0.023395	0.119159
C126	C	2.060553	0.309938	0.452492
C127	C	1.394048	-0.356546	-0.106961
C128	C	1.727382	-0.023213	0.226373
C129	C	2.060715	0.310121	0.559706
H130	H	1.336699	-0.919764	-0.615177
H131	H	1.670032	-0.586431	-0.281843
H132	H	2.003365	-0.253097	0.051490
H133	H	1.292578	-0.791924	-0.340690
H134	H	1.625911	-0.458591	-0.007357
H135	H	1.959244	-0.125258	0.325977
H136	H	1.243662	-0.793179	-0.522067
H137	H	1.576996	-0.459846	-0.188734
H138	H	1.910329	-0.126513	0.144600
H139	H	1.418832	-0.792939	-0.305956
H140	H	1.752165	-0.459605	0.027377
H141	H	2.085498	-0.126272	0.360710
N142	N	1.225349	-0.926308	-0.518181
N143	N	1.558682	-0.592974	-0.184848
N144	N	1.892015	-0.259641	0.148486
N145	N	1.212665	-0.968577	-0.448158
N146	N	1.545999	-0.635243	-0.114825
N147	N	1.879332	-0.301910	0.218509
H148	H	1.146065	-0.987711	-0.433061
H149	H	1.479399	-0.654377	-0.099728
H150	H	1.812732	-0.321044	0.233605
N151	N	1.430870	-0.924938	-0.291351
N152	N	1.764204	-0.591605	0.041982
N153	N	2.097537	-0.258271	0.375316
N154	N	1.476419	-0.879818	-0.240759
N155	N	1.809752	-0.546485	0.092574
N156	N	2.143085	-0.213152	0.425908
H157	H	1.522293	-0.898167	-0.189727
H158	H	1.855626	-0.564833	0.143606
H159	H	2.188960	-0.231500	0.476939
N160	N	1.565561	-0.924283	-0.422628
N161	N	1.898895	-0.590950	-0.089295
N162	N	2.232228	-0.257616	0.244039
N163	N	1.651674	-0.905247	-0.430548
N164	N	1.985007	-0.571914	-0.097215
N165	N	2.318341	-0.238581	0.236119
H166	H	1.700765	-0.923194	-0.382347
H167	H	2.034098	-0.589861	-0.049013
H168	H	2.367431	-0.256527	0.284320
N169	N	1.272325	-0.924092	-0.335911
N170	N	1.605659	-0.590759	-0.002577
N171	N	1.938992	-0.257426	0.330756
N172	N	1.207827	-0.878384	-0.316397
N173	N	1.541160	-0.545051	0.016937
N174	N	1.874494	-0.211718	0.350270
H175	H	1.141737	-0.896135	-0.296844
H176	H	1.475071	-0.562802	0.036489
H177	H	1.808404	-0.229468	0.369822
N178	N	1.527518	-0.925913	-0.582285
N179	N	1.860851	-0.592580	-0.248952
N180	N	2.194185	-0.259246	0.084381
N181	N	1.475116	-0.968848	-0.629350
N182	N	1.808449	-0.635515	-0.296016
N183	N	2.141783	-0.302182	0.037317
H184	H	1.497334	-0.987945	-0.693910
H185	H	1.830667	-0.654612	-0.360577
H186	H	2.164000	-0.321278	-0.027243
N187	N	1.521480	-0.787658	-0.586954
N188	N	1.854813	-0.454325	-0.253621
N189	N	2.188146	-0.120991	0.079713
N190	N	1.528456	-0.719925	-0.603085
N191	N	1.861789	-0.386592	-0.269752
N192	N	2.195122	-0.053259	0.063581
H193	H	1.546838	-0.701862	-0.669366
H194	H	1.880171	-0.368529	-0.336033
H195	H	2.213505	-0.035195	-0.002699
N196	N	1.340900	-0.787179	-0.633885
N197	N	1.674233	-0.453846	-0.300552
N198	N	2.007567	-0.120512	0.032782
N199	N	1.356342	-0.831992	-0.700519
N200	N	1.689676	-0.498659	-0.367185
N201	N	2.023009	-0.165325	-0.033852
H202	H	1.371596	-0.813336	-0.767311
H203	H	1.704930	-0.480002	-0.433978
H204	H	2.038263	-0.146669	-0.100645
N205	N	1.568613	-0.786365	-0.429802
N206	N	1.901947	-0.453032	-0.096469
N207	N	2.235280	-0.119698	0.236864
N208	N	1.547012	-0.743696	-0.362496
N209	N	1.880345	-0.410363	-0.029162
N210	N	2.213678	-0.077029	0.304171
H211	H	1.598683	-0.724728	-0.317777
H212	H	1.932017	-0.391394	0.015557
H213	H	2.265350	-0.058061	0.348890
