data_functionalizedCrystal
_audit_creation_method	'MofGen! by Chris Wilmer'
_symmetry_space_group_name_H-M	'P1'
_symmetry_Int_Tables_number	1
_symmetry_cell_setting	triclinic
loop_
_symmetry_equiv_pos_as_xyz
  x,y,z
_cell_length_a	9.065218
_cell_length_b	10.654550
_cell_length_c	9.730223
_cell_angle_alpha	89.998978
_cell_angle_beta	89.986343
_cell_angle_gamma	84.750441
loop_
_atom_site_label
_atom_site_type_symbol
_atom_site_fract_x
_atom_site_fract_y
_atom_site_fract_z
O1	O	-0.207238	-1.668661	0.114212
O2	O	0.292762	-1.168661	0.614212
O3	O	-0.226982	-1.303261	0.114240
O4	O	0.273018	-0.803261	0.614240
O5	O	-0.002427	-1.493514	0.114191
O6	O	0.497573	-0.993514	0.614191
O7	O	-0.431794	-1.478409	0.114262
O8	O	0.068206	-0.978409	0.614262
O9	O	-0.002413	-1.493499	-0.114389
O10	O	0.497587	-0.993499	0.385611
O11	O	-0.226969	-1.303246	-0.114340
O12	O	0.273031	-0.803246	0.385660
O13	O	-0.207225	-1.668646	-0.114367
O14	O	0.292775	-1.168646	0.385633
Zn15	Zn	-0.217095	-1.485943	-0.150646
Zn16	Zn	0.282905	-0.985943	0.349354
Zn17	Zn	-0.217113	-1.485964	0.150518
Zn18	Zn	0.282887	-0.985964	0.650518
O19	O	-0.431780	-1.478393	-0.114318
O20	O	0.068220	-0.978393	0.385682
C21	C	0.052559	-1.492054	-0.000105
C22	C	0.552559	-0.992054	0.499895
C23	C	0.216378	-1.487714	-0.000123
C24	C	0.716378	-0.987714	0.499877
C25	C	-0.225526	-1.256450	-0.000047
C26	C	0.274474	-0.756450	0.499953
C27	C	-0.221188	-1.116989	-0.000038
C28	C	0.278812	-0.616989	0.499962
C29	C	-0.208681	-1.715457	-0.000077
C30	C	0.291319	-1.215457	0.499923
C31	C	-0.213019	-1.854918	-0.000077
C32	C	0.286981	-1.354918	0.499923
C33	C	0.513234	-1.479853	-0.000057
C34	C	1.013234	-0.979853	0.499943
C35	C	0.349415	-1.484193	-0.000143
C36	C	0.849415	-0.984193	0.499857
N37	N	-0.217081	-1.485939	-0.356182
N38	N	0.282919	-0.985939	0.143818
C39	C	-0.353403	-1.038027	-0.000020
C40	C	0.146597	-0.538027	0.499980
C41	C	-0.349319	-0.906990	-0.000045
C42	C	0.150681	-0.406990	0.499955
C43	C	-0.080794	-0.933890	-0.000099
C44	C	0.419206	-0.433890	0.499901
C45	C	-0.084879	-1.064924	-0.000085
C46	C	0.415121	-0.564924	0.499915
C47	C	-0.126786	-1.408784	-0.572055
C48	C	0.373214	-0.908784	-0.072055
C49	C	-0.126765	-1.408767	-0.428172
C50	C	0.373235	-0.908767	0.071828
C51	C	-0.307413	-1.563142	-0.428083
C52	C	0.192587	-1.063142	0.071917
C53	C	-0.307425	-1.563165	-0.571963
C54	C	0.192575	-1.063165	-0.071963
N55	N	-0.217114	-1.485978	0.356055
N56	N	0.282886	-0.985978	0.856055
H57	H	-0.464395	-1.080414	0.000008
H58	H	0.035605	-0.580414	0.500008
H59	H	0.030185	-0.891482	-0.000146
H60	H	0.530185	-0.391482	0.499854
H61	H	-0.456982	-0.842704	-0.000033
H62	H	0.043018	-0.342704	0.499967
H63	H	0.022793	-1.129219	-0.000103
H64	H	0.522793	-0.629219	0.499897
H65	H	-0.053248	-1.345934	-0.630658
H66	H	0.446752	-0.845934	-0.130658
H67	H	-0.053210	-1.345909	-0.369645
H68	H	0.446790	-0.845909	0.130355
H69	H	-0.380943	-1.625983	-0.369457
H70	H	0.119057	-1.125983	0.130543
H71	H	-0.380982	-1.626032	-0.630498
H72	H	0.119018	-1.126032	-0.130498
