data_functionalizedCrystal
_audit_creation_method	'MofGen! by Chris Wilmer'
_symmetry_space_group_name_H-M	'P1'
_symmetry_Int_Tables_number	1
_symmetry_cell_setting	triclinic
loop_
_symmetry_equiv_pos_as_xyz
  x,y,z
_cell_length_a	12.594517
_cell_length_b	12.594516
_cell_length_c	16.120297
_cell_angle_alpha	92.877768
_cell_angle_beta	92.877961
_cell_angle_gamma	90.015853
loop_
_atom_site_label
_atom_site_type_symbol
_atom_site_fract_x
_atom_site_fract_y
_atom_site_fract_z
Zn1	Zn	1.596739	-0.454293	-0.471425
Zn2	Zn	2.096739	0.045707	0.028575
Zn3	Zn	1.605657	-0.623262	-0.332026
Zn4	Zn	2.105657	-0.123262	0.167974
Zn5	Zn	1.427770	-0.445297	-0.332027
Zn6	Zn	1.927770	0.054703	0.167973
Zn7	Zn	1.418727	-0.632227	-0.471392
Zn8	Zn	1.918727	-0.132227	0.028608
O9	O	1.512223	-0.538770	-0.401717
O10	O	2.012223	-0.038770	0.098283
O11	O	1.746866	-0.476720	-0.452947
O12	O	2.246866	0.023280	0.047053
O13	O	1.589576	-0.592137	-0.215363
O14	O	2.089576	-0.092137	0.284637
O15	O	1.450236	-0.297546	-0.350533
O16	O	1.950236	0.202454	0.149467
O17	O	1.753418	-0.600861	-0.350531
O18	O	2.253418	-0.100861	0.149469
O19	O	1.574377	-0.304155	-0.452947
O20	O	2.074377	0.195845	0.047053
O21	O	1.458883	-0.461388	-0.215364
O22	O	1.958883	0.038612	0.284636
O23	O	1.277625	-0.470081	-0.350501
O24	O	1.777625	0.029919	0.149499
O25	O	1.434824	-0.616141	-0.588059
O26	O	1.934824	-0.116141	-0.088059
O27	O	1.270981	-0.607418	-0.452891
O28	O	1.770981	-0.107418	0.047109
O29	O	1.565608	-0.485414	-0.588084
O30	O	2.065608	0.014586	-0.088084
O31	O	1.580808	-0.773396	-0.350499
O32	O	2.080808	-0.273396	0.149501
O33	O	1.443471	-0.779983	-0.452890
O34	O	1.943471	-0.279983	0.047110
C35	C	1.235684	-0.538747	-0.401693
C36	C	1.735684	-0.038747	0.098307
C37	C	1.117377	-0.538764	-0.401702
C38	C	1.617377	-0.038764	0.098298
C39	C	1.051700	-0.463976	-0.346118
C40	C	1.551700	0.036024	0.153882
C41	C	0.982217	-0.559735	-0.325615
C42	C	1.482217	-0.059735	0.174385
C43	C	0.976061	-0.443054	-0.422219
C44	C	1.476061	0.056946	0.077781
C45	C	1.049455	-0.634571	-0.381159
C46	C	1.549455	-0.134571	0.118841
C47	C	1.043303	-0.517827	-0.477799
C48	C	1.543303	-0.017827	0.022201
C49	C	0.973850	-0.613654	-0.457325
C50	C	1.473850	-0.113654	0.042675
C51	C	1.512154	-0.815310	-0.401709
C52	C	2.012154	-0.315310	0.098291
C53	C	1.512220	-0.933617	-0.401734
C54	C	2.012220	-0.433617	0.098266
C55	C	1.437518	-1.006489	-0.457385
C56	C	1.937518	-0.506489	0.042615
C57	C	1.416511	-1.072420	-0.381312
C58	C	1.916511	-0.572420	0.118688
C59	C	1.533323	-1.078486	-0.477819
C60	C	2.033323	-0.578486	0.022181
C61	C	1.491164	-0.997988	-0.325621
C62	C	1.991164	-0.497988	0.174379
C63	C	1.608018	-1.004050	-0.422179
C64	C	2.108018	-0.504050	0.077821
C65	C	1.587051	-1.069946	-0.346054
C66	C	2.087051	-0.569946	0.153946
C67	C	1.789842	-0.538794	-0.401742
C68	C	2.289842	-0.038794	0.098258
C69	C	1.908147	-0.538804	-0.401753
C70	C	2.408147	-0.038804	0.098247
C71	C	1.498213	-0.552781	-0.619167
C72	C	1.998213	-0.052781	-0.119167
C73	C	1.492242	-0.558751	-0.711831
C74	C	1.992242	-0.058751	-0.211831
C75	C	1.512320	-0.261151	-0.401744
C76	C	2.012320	0.238849	0.098256
C77	C	1.512362	-0.142846	-0.401755
C78	C	2.012362	0.357154	0.098245
C79	C	1.481303	-0.569629	-0.881489
C80	C	1.981303	-0.069629	-0.381489
C81	C	1.543353	-0.507592	-0.922798
C82	C	2.043353	-0.007592	-0.422798
C83	C	1.537266	-0.513644	-1.017201
C84	C	2.037266	-0.013644	-0.517201
C85	C	1.487388	-0.563578	-0.787077
C86	C	1.987388	-0.063578	-0.287077
C87	C	1.526240	-0.524737	-0.185114
C88	C	2.026240	-0.024737	0.314886
C89	C	1.532416	-0.518466	-0.092450
C90	C	2.032416	-0.018466	0.407550
H91	H	1.085769	-0.400786	-0.299055
H92	H	1.585769	0.099214	0.200945
Cl93	Cl	0.940538	-0.587117	-0.226294
Cl94	Cl	1.440538	-0.087117	0.273706
Cl95	Cl	1.463551	-0.943849	-0.226262
Cl96	Cl	1.963551	-0.443849	0.273738
H97	H	1.423615	-0.627281	-0.917021
H98	H	1.923615	-0.127281	-0.417021
Cl99	Cl	1.098960	-0.759593	-0.354283
Cl100	Cl	1.598960	-0.259593	0.145717
H101	H	0.939979	-0.676986	-0.504352
H102	H	1.439979	-0.176986	-0.004352
H103	H	1.601045	-0.449935	-0.887263
H104	H	2.101045	0.050065	-0.387263
Cl105	Cl	1.291528	-1.118850	-0.354618
Cl106	Cl	1.791528	-0.618850	0.145382
H107	H	1.551115	-1.113683	-0.542155
H108	H	2.051115	-0.613683	-0.042155
H109	H	1.688945	-0.973957	-0.439491
H110	H	2.188945	-0.473957	0.060509
H111	H	1.070323	-0.500062	-0.542111
H112	H	1.570323	-0.000062	-0.042111
H113	H	0.943813	-0.362105	-0.439523
H114	H	1.443813	0.137895	0.060477
Cl115	Cl	1.339830	-0.963275	-0.529941
Cl116	Cl	1.839830	-0.463275	-0.029941
Cl117	Cl	1.684687	-1.112844	-0.273327
Cl118	Cl	2.184687	-0.612844	0.226673
