data_functionalizedCrystal
_audit_creation_method	'MofGen! by Chris Wilmer'
_symmetry_space_group_name_H-M	'P1'
_symmetry_Int_Tables_number	1
_symmetry_cell_setting	triclinic
loop_
_symmetry_equiv_pos_as_xyz
  x,y,z
_cell_length_a	8.559649
_cell_length_b	12.503572
_cell_length_c	8.559649
_cell_angle_alpha	86.971031
_cell_angle_beta	69.778664
_cell_angle_gamma	93.020673
loop_
_atom_site_label
_atom_site_type_symbol
_atom_site_fract_x
_atom_site_fract_y
_atom_site_fract_z
O1	O	2.137386	0.089304	-0.065566
O2	O	1.661902	0.089308	0.018215
O3	O	1.941534	0.089305	-0.261418
O4	O	1.857754	0.089307	0.214067
O5	O	1.920500	-0.089337	-0.240357
O6	O	1.640868	-0.089334	0.039276
O7	O	2.116352	-0.089338	-0.044505
Cu8	Cu	1.876690	-0.105647	-0.000692
Cu9	Cu	1.901564	0.105617	-0.025599
O10	O	1.836720	-0.089334	0.235128
C11	C	1.591076	-0.000012	0.035094
C12	C	1.411377	-0.000010	0.053993
N13	N	1.859206	-0.254239	0.016824
C14	C	1.833485	-0.473354	0.042604
C15	C	1.944778	-0.526683	-0.068903
C16	C	1.930466	-0.648606	-0.054559
C17	C	1.847794	-0.351420	0.028262
C18	C	2.187178	-0.000015	-0.061385
C19	C	2.366878	-0.000010	-0.080285
C20	C	1.937367	-0.000014	-0.311197
C21	C	1.956267	-0.000009	-0.490897
N22	N	1.919063	0.254209	-0.043129
C23	C	1.840887	-0.000013	0.284906
C24	C	1.821988	-0.000012	0.464605
H25	H	1.311989	-0.000004	0.183420
O26	O	1.707151	-0.528282	0.169287
C27	C	1.720801	-0.639550	0.155571
H28	H	1.855393	-0.654760	0.080731
H29	H	1.682950	-0.682387	0.285573
H30	H	1.635101	-0.671477	0.089321
H31	H	2.050808	-0.480771	-0.175140
O32	O	1.667714	0.000042	-0.416642
C33	C	1.682552	0.000023	-0.257640
H34	H	1.813207	0.033841	-0.270940
H35	H	1.586083	0.051892	-0.175561
H36	H	1.660362	-0.085679	-0.197843
H37	H	2.085694	-0.000018	-0.590284
H38	H	1.466257	-0.000005	-0.209705
