data_functionalizedCrystal
_audit_creation_method	'MofGen! by Chris Wilmer'
_symmetry_space_group_name_H-M	'P1'
_symmetry_Int_Tables_number	1
_symmetry_cell_setting	triclinic
loop_
_symmetry_equiv_pos_as_xyz
  x,y,z
_cell_length_a	16.120530
_cell_length_b	16.625546
_cell_length_c	16.625539
_cell_angle_alpha	90.028532
_cell_angle_beta	87.085995
_cell_angle_gamma	92.882099
loop_
_atom_site_label
_atom_site_type_symbol
_atom_site_fract_x
_atom_site_fract_y
_atom_site_fract_z
Zn1	Zn	1.274529	0.383605	-0.518325
Zn2	Zn	1.774529	0.883605	-0.018325
Zn3	Zn	1.274437	0.518439	-0.383483
Zn4	Zn	1.774437	1.018439	0.116517
Zn5	Zn	1.135119	0.376783	-0.376677
Zn6	Zn	1.635119	0.876783	0.123323
Zn7	Zn	1.135079	0.511551	-0.511447
Zn8	Zn	1.635079	1.011551	-0.011447
O9	O	1.204791	0.447595	-0.447483
O10	O	1.704791	0.947595	0.052517
O11	O	1.391182	0.407229	-0.506164
O12	O	1.891182	0.907229	-0.006164
O13	O	1.255935	0.499676	-0.269746
O14	O	1.755935	0.999676	0.230254
O15	O	1.153666	0.264858	-0.395497
O16	O	1.653666	0.764858	0.104503
O17	O	1.391115	0.506291	-0.407096
O18	O	1.891115	1.006291	0.092904
O19	O	1.256091	0.269870	-0.499565
O20	O	1.756091	0.769870	0.000435
O21	O	1.153578	0.395601	-0.264746
O22	O	1.653578	0.895601	0.235254
O23	O	1.018448	0.388922	-0.388828
O24	O	1.518448	0.888922	0.111172
O25	O	1.153600	0.494552	-0.625192
O26	O	1.653600	0.994552	-0.125192
O27	O	1.018419	0.487936	-0.487842
O28	O	1.518419	0.987936	0.012158
O29	O	1.256053	0.400550	-0.630246
O30	O	1.756053	0.900550	-0.130246
O31	O	1.255897	0.630355	-0.400427
O32	O	1.755897	1.130355	0.099573
O33	O	1.153511	0.625295	-0.494442
O34	O	1.653511	1.125295	0.005558
C35	C	1.204712	0.657082	-0.447445
C36	C	1.704712	1.157082	0.052555
C37	C	1.204755	0.746705	-0.447460
C38	C	1.704755	1.246705	0.052540
C39	C	0.988183	0.436942	-0.436851
C40	C	1.488183	0.936942	0.063149
C41	C	0.895517	0.432404	-0.432321
C42	C	1.395517	0.932404	0.067679
C43	C	1.204832	0.447543	-0.657794
C44	C	1.704832	0.947543	-0.157794
C45	C	1.204849	0.447522	-0.747416
C46	C	1.704849	0.947522	-0.247416
C47	C	0.725856	0.424100	-0.424059
C48	C	1.225856	0.924100	0.075941
C49	C	0.684567	0.471148	-0.470965
C50	C	1.184567	0.971148	0.029035
C51	C	0.590161	0.466528	-0.466368
C52	C	1.090161	0.966528	0.033632
C53	C	0.820270	0.428720	-0.428655
C54	C	1.320270	0.928720	0.071345
C55	C	1.422245	0.458290	-0.458157
C56	C	1.922245	0.958290	0.041843
C57	C	1.514910	0.462847	-0.462705
C58	C	2.014910	0.962847	0.037295
C59	C	1.204893	0.237291	-0.447539
C60	C	1.704893	0.737291	0.052461
C61	C	1.204936	0.147672	-0.447563
C62	C	1.704936	0.647672	0.052437
C63	C	1.204900	1.074888	-0.447551
C64	C	1.704900	1.574888	0.052449
C65	C	1.204857	0.983577	-0.447527
C66	C	1.704857	1.483577	0.052473
C67	C	1.204827	0.910799	-0.447505
C68	C	1.704827	1.410799	0.052495
C69	C	1.204785	0.819483	-0.447482
C70	C	1.704785	1.319483	0.052518
C71	C	1.204863	0.447504	-0.820199
C72	C	1.704863	0.947504	-0.320199
C73	C	1.204882	0.447475	-0.911508
C74	C	1.704882	0.947475	-0.411508
C75	C	1.204902	0.447448	-0.984286
C76	C	1.704902	0.947448	-0.484286
C77	C	1.204923	0.447420	-1.075601
C78	C	1.704923	0.947420	-0.575601
C79	C	1.204798	0.447590	-0.237992
C80	C	1.704798	0.947590	0.262008
C81	C	1.204942	0.447392	-0.148379
C82	C	1.704942	0.947392	0.351621
H83	H	0.720118	0.514896	-0.514577
H84	H	1.220118	1.014896	-0.014577
H85	H	0.690307	0.380355	-0.380451
H86	H	1.190307	0.880355	0.119549
