data_functionalizedCrystal
_audit_creation_method	'MofGen! by Chris Wilmer'
_symmetry_space_group_name_H-M	'P1'
_symmetry_Int_Tables_number	1
_symmetry_cell_setting	triclinic
loop_
_symmetry_equiv_pos_as_xyz
  x,y,z
_cell_length_a	16.109301
_cell_length_b	9.798715
_cell_length_c	10.723023
_cell_angle_alpha	89.998183
_cell_angle_beta	96.035486
_cell_angle_gamma	90.000966
loop_
_atom_site_label
_atom_site_type_symbol
_atom_site_fract_x
_atom_site_fract_y
_atom_site_fract_z
O1	O	1.104075	0.113401	-0.160390
O2	O	1.604075	0.613401	0.339610
O3	O	0.862130	0.113422	-0.180350
O4	O	1.362130	0.613422	0.319650
O5	O	0.988683	0.113406	0.011281
O6	O	1.488683	0.613406	0.511281
O7	O	0.977521	0.113416	-0.352020
O8	O	1.477521	0.613416	0.147980
O9	O	0.988674	-0.113576	0.011281
O10	O	1.488674	0.386424	0.511281
O11	O	0.862121	-0.113560	-0.180350
O12	O	1.362121	0.386440	0.319650
O13	O	1.104065	-0.113582	-0.160389
O14	O	1.604065	0.386418	0.339611
Zn15	Zn	0.983091	-0.149609	-0.170369
Zn16	Zn	1.483091	0.350391	0.329631
Zn17	Zn	0.983104	0.149450	-0.170370
Zn18	Zn	1.483104	0.649450	0.329630
O19	O	0.977512	-0.113566	-0.352020
O20	O	1.477512	0.386434	0.147980
C21	C	0.831146	-0.000067	-0.179541
C22	C	1.331146	0.499933	0.320459
C23	C	0.738836	-0.000058	-0.177117
C24	C	1.238836	0.499942	0.322883
N25	N	0.983089	-0.353709	-0.170368
N26	N	1.483089	0.146291	0.329632
C27	C	0.517199	-0.000071	-0.285190
C28	C	1.017199	0.499929	0.214810
C29	C	0.430466	-0.000080	-0.282903
C30	C	0.930466	0.499920	0.217097
C31	C	0.449002	-0.000081	-0.055540
C32	C	0.949002	0.499919	0.444460
C33	C	0.535735	-0.000082	-0.057829
C34	C	1.035735	0.499918	0.442171
C35	C	0.569831	-0.000070	-0.172658
C36	C	1.069831	0.499930	0.327342
C37	C	0.396365	-0.000078	-0.168081
C38	C	0.896365	0.499922	0.331919
C39	C	0.302324	-0.000087	-0.165601
C40	C	0.802324	0.499913	0.334399
C41	C	0.663877	-0.000063	-0.175139
C42	C	1.163877	0.499937	0.324861
C43	C	1.036225	-0.421492	-0.089556
C44	C	1.536225	0.078508	0.410444
C45	C	1.036238	-0.578655	-0.089552
C46	C	1.536238	-0.078655	0.410448
C47	C	1.135049	-0.000090	-0.161198
C48	C	1.635049	0.499910	0.338802
C49	C	1.227359	-0.000089	-0.163622
C50	C	1.727359	0.499911	0.336378
C51	C	0.987867	-0.000083	0.057770
C52	C	1.487867	0.499917	0.557770
C53	C	0.985437	-0.000078	0.196292
C54	C	1.485437	0.499922	0.696292
N55	N	0.983113	0.353549	-0.170361
N56	N	1.483113	0.853549	0.329639
C57	C	0.978329	-0.000074	-0.398509
C58	C	1.478329	0.499926	0.101491
C59	C	0.980758	-0.000070	-0.537031
C60	C	1.480758	0.499930	-0.037031
C61	C	0.984348	-0.117659	0.258055
C62	C	1.484348	0.382341	0.758055
C63	C	0.981837	-0.117656	0.401225
C64	C	1.481837	0.382344	0.901225
H65	H	0.544957	-0.000072	-0.378691
H66	H	1.044957	0.499928	0.121309
H67	H	0.985280	-0.218326	0.204942
H68	H	1.485280	0.281674	0.704942
N69	N	1.096466	-0.344231	0.002083
N70	N	1.596466	0.155769	0.502083
H71	H	1.155616	-0.368997	-0.012032
H72	H	1.655616	0.131003	0.487968
H73	H	1.086165	-0.369053	0.090566
H74	H	1.586165	0.130947	0.590566
H75	H	0.937603	-0.412028	-0.239547
H76	H	1.437603	0.087972	0.260453
H77	H	0.387616	-0.000084	-0.374539
H78	H	0.887616	0.499916	0.125461
H79	H	1.081734	-0.636946	-0.020370
H80	H	1.581734	-0.136946	0.479630
H81	H	0.937621	-0.588169	-0.239556
H82	H	1.437621	-0.088169	0.260444
H83	H	0.980896	-0.218321	0.454340
H84	H	1.480896	0.281679	0.954340
H85	H	0.421231	-0.000098	0.037950
H86	H	0.921231	0.499902	0.537950
H87	H	0.981687	0.100600	0.409861
H88	H	1.481687	0.600600	0.909861
N89	N	0.984223	0.133284	0.266624
N90	N	1.484223	0.633284	0.766624
H91	H	0.931831	0.138754	0.310502
H92	H	1.431831	0.638754	0.810502
H93	H	0.985331	0.211660	0.205651
H94	H	1.485331	0.711660	0.705651
N95	N	0.592509	-0.000096	0.063551
N96	N	1.092509	0.499904	0.563551
H97	H	0.557750	-0.000096	0.136642
H98	H	1.057750	0.499904	0.636642
H99	H	0.628904	0.084044	0.067554
H100	H	1.128904	0.584044	0.567554
