data_functionalizedCrystal
_audit_creation_method	'MofGen! by Chris Wilmer'
_symmetry_space_group_name_H-M	'P1'
_symmetry_Int_Tables_number	1
_symmetry_cell_setting	triclinic
loop_
_symmetry_equiv_pos_as_xyz
  x,y,z
_cell_length_a	17.666332
_cell_length_b	17.038272
_cell_length_c	17.038272
_cell_angle_alpha	91.111556
_cell_angle_beta	89.993620
_cell_angle_gamma	89.996433
loop_
_atom_site_label
_atom_site_type_symbol
_atom_site_fract_x
_atom_site_fract_y
_atom_site_fract_z
O1	O	0.062854	-1.048760	-0.170538
O2	O	0.062877	-0.820948	-0.167831
O3	O	0.062860	-0.933500	-0.055279
O4	O	0.062871	-0.936208	-0.283090
O5	O	-0.063037	-0.933479	-0.055271
O6	O	-0.063020	-0.820927	-0.167823
O7	O	-0.063042	-1.048738	-0.170531
Cu8	Cu	-0.074527	-0.934831	-0.169176
Cu9	Cu	0.074361	-0.934856	-0.169185
O10	O	-0.063025	-0.936187	-0.283082
C11	C	-0.000069	-0.791645	-0.165364
C12	C	-0.000061	-0.704361	-0.158016
C13	C	-0.000088	-0.931027	-0.025982
C14	C	-0.000088	-0.923679	0.061301
N15	N	-0.179246	-0.934818	-0.169169
C16	C	-0.218863	-0.984675	-0.119359
C17	C	-0.298111	-0.984680	-0.119355
C18	C	-0.337738	-0.934835	-0.169176
C19	C	-0.298111	-0.884969	-0.218990
C20	C	-0.218865	-0.884960	-0.218987
N21	N	-0.462153	-0.929461	-0.238001
N22	N	-0.537433	-0.929474	-0.238002
C23	C	-0.576502	-0.934857	-0.169189
N24	N	-0.537447	-0.940242	-0.100373
N25	N	-0.462160	-0.940234	-0.100373
C26	C	-0.423667	-0.934839	-0.169185
C27	C	-0.702049	-0.984721	-0.119370
C28	C	-0.781298	-0.984720	-0.119365
C29	C	-0.781297	-0.885013	-0.219008
C30	C	-0.702049	-0.885010	-0.219005
C31	C	-0.662430	-0.934868	-0.169188
N32	N	0.179080	-0.934874	-0.169186
C33	C	-0.000095	-1.078042	-0.172997
C34	C	-0.000099	-1.165326	-0.180346
C35	C	-0.000058	-0.658752	-0.225479
C36	C	-0.000069	-0.576740	-0.218570
C37	C	-0.000077	-0.540339	-0.144197
C38	C	-0.000082	-0.585954	-0.076728
C39	C	-0.000077	-0.667965	-0.083638
C40	C	-0.000098	-0.292951	-0.119787
C41	C	-0.000101	-0.210935	-0.112882
C42	C	-0.000089	-0.201726	-0.254725
C43	C	-0.000080	-0.283739	-0.261628
C44	C	-0.000089	-0.329347	-0.194159
C45	C	-0.000086	-0.456510	-0.137133
C46	C	-0.000085	-0.413174	-0.201224
C47	C	-0.000076	-0.938660	-0.312379
C48	C	-0.000072	-0.946008	-0.399663
C49	C	-0.000095	-0.991142	0.106911
C50	C	-0.000087	-0.984233	0.188923
C51	C	-0.000077	-0.909860	0.225324
C52	C	-0.000068	-0.842391	0.179708
C53	C	-0.000070	-0.849301	0.097698
C54	C	-0.000065	-0.885449	0.472712
C55	C	-0.000064	-0.878545	0.554728
C56	C	-0.000082	-1.020387	0.563937
C57	C	-0.000089	-1.027291	0.481924
C58	C	-0.000076	-0.959822	0.436316
C59	C	-0.000072	-0.902796	0.309153
C60	C	-0.000076	-0.966886	0.352488
H61	H	-0.186608	-1.025271	-0.078792
H62	H	-0.669790	-1.025316	-0.078803
H63	H	-0.813555	-1.025317	-0.078799
Cl64	Cl	-0.347927	-0.822304	-0.281620
H65	H	-0.000092	-1.075316	0.601079
Cl66	Cl	-0.000058	-0.764486	0.040360
H67	H	-0.186608	-0.844360	-0.259549
H68	H	-0.000065	-0.842241	0.338800
H69	H	-0.330373	-1.025281	-0.078792
Cl70	Cl	-0.831109	-0.822345	-0.281634
Cl71	Cl	-0.000042	-0.704505	-0.318982
H72	H	-0.669791	-0.844415	-0.259569
Cl73	Cl	-0.000097	-0.540193	0.016770
H74	H	-0.000079	-0.705099	-0.028702
H75	H	-0.000114	-0.426863	-0.076578
Cl76	Cl	-0.000060	-0.519406	-0.303386
Cl77	Cl	-0.000064	-0.329494	-0.355129
H78	H	-0.000084	-0.164583	-0.309653
H79	H	-0.000095	-1.039170	0.226054
H80	H	-0.000107	-0.181300	-0.052315
Cl81	Cl	-0.000109	-0.350276	-0.034967
Cl82	Cl	-0.000077	-0.458937	-0.294718
Cl83	Cl	-0.000115	-1.084645	0.061158
Cl84	Cl	-0.000077	-1.120792	0.436169
H85	H	-0.000069	-0.817978	0.584363
Cl86	Cl	-0.000045	-0.800630	0.415386
H87	H	-0.000055	-0.781835	0.209353
Cl88	Cl	-0.000084	-1.060381	0.306726
