data_functionalizedCrystal
_audit_creation_method	'MofGen! by Chris Wilmer'
_symmetry_space_group_name_H-M	'P1'
_symmetry_Int_Tables_number	1
_symmetry_cell_setting	triclinic
loop_
_symmetry_equiv_pos_as_xyz
  x,y,z
_cell_length_a	14.971506
_cell_length_b	14.971486
_cell_length_c	13.448316
_cell_angle_alpha	90.001801
_cell_angle_beta	90.005023
_cell_angle_gamma	83.618258
loop_
_atom_site_label
_atom_site_type_symbol
_atom_site_fract_x
_atom_site_fract_y
_atom_site_fract_z
O1	O	-0.116564	-1.186956	-0.082574
O2	O	0.383436	-0.686956	0.417426
O3	O	-0.130522	-0.926557	-0.082601
O4	O	0.369478	-0.426557	0.417399
O5	O	0.006656	-1.063726	-0.082584
O6	O	0.506656	-0.563726	0.417416
O7	O	-0.253742	-1.049786	-0.082591
O8	O	0.246258	-0.549786	0.417409
O9	O	0.006664	-1.063709	0.082800
O10	O	0.506664	-0.563709	0.582800
O11	O	-0.130514	-0.926539	0.082783
O12	O	0.369486	-0.426539	0.582783
O13	O	-0.116555	-1.186939	0.082810
O14	O	0.383445	-0.686939	0.582810
Cu15	Cu	-0.123534	-1.056737	0.097897
Cu16	Cu	0.376466	-0.556737	0.597897
Cu17	Cu	-0.123544	-1.056758	-0.097688
Cu18	Cu	0.376456	-0.556758	0.402312
O19	O	-0.253733	-1.049769	0.082793
O20	O	0.246267	-0.549769	0.582793
C21	C	-0.129894	-0.893223	0.000088
C22	C	0.370106	-0.393223	0.500088
C23	C	-0.128023	-0.793926	0.000078
C24	C	0.371977	-0.293926	0.500078
C25	C	0.039984	-1.063091	0.000106
C26	C	0.539984	-0.563091	0.500106
C27	C	0.139281	-1.061213	0.000102
C28	C	0.639281	-0.561213	0.500102
C29	C	-0.117184	-1.220272	0.000119
C30	C	0.382816	-0.720272	0.500119
C31	C	-0.119054	-1.319569	0.000123
C32	C	0.380946	-0.819569	0.500123
C33	C	-0.287062	-1.050404	0.000101
C34	C	0.212938	-0.550404	0.500101
C35	C	-0.386358	-1.052282	0.000099
C36	C	0.113642	-0.552282	0.500099
C37	C	0.577563	-1.134631	0.000110
C38	C	1.077563	-0.634631	0.500110
C39	C	0.484263	-1.136389	0.000117
C40	C	0.984263	-0.636389	0.500117
C41	C	0.427043	-1.055796	0.000105
C42	C	0.927043	-0.555796	0.500105
C43	C	0.463127	-0.973441	0.000097
C44	C	0.963127	-0.473441	0.500097
C45	C	0.556426	-0.971685	0.000097
C46	C	1.056426	-0.471685	0.500097
C47	C	0.268664	-0.977108	0.000093
C48	C	0.768664	-0.477108	0.500093
C49	C	0.175359	-0.978864	0.000091
C50	C	0.675359	-0.478864	0.500091
C51	C	0.196501	-1.141812	0.000113
C52	C	0.696501	-0.641812	0.500113
C53	C	0.289800	-1.140055	0.000113
C54	C	0.789800	-0.640055	0.500113
C55	C	0.325878	-1.057700	0.000103
C56	C	0.825878	-0.557700	0.500103
N57	N	-0.123526	-1.056730	0.235462
N58	N	0.376474	-0.556730	0.735462
C59	C	-0.208612	-0.736707	0.000077
C60	C	0.291388	-0.236707	0.500077
C61	C	-0.206849	-0.643407	0.000092
C62	C	0.293151	-0.143407	0.500092
C63	C	-0.124496	-0.607329	0.000100
C64	C	0.375504	-0.107329	0.500100
C65	C	-0.043901	-0.664556	0.000104
C66	C	0.456099	-0.164556	0.500104
C67	C	-0.045665	-0.757853	0.000096
C68	C	0.454335	-0.257853	0.500096
C69	C	-0.040230	-0.470093	0.000118
C70	C	0.459770	0.029907	0.500118
C71	C	-0.038466	-0.376789	0.000124
C72	C	0.461534	0.123211	0.500124
C73	C	-0.201414	-0.355647	0.000113
C74	C	0.298586	0.144353	0.500113
C75	C	-0.203178	-0.448944	0.000106
C76	C	0.296822	0.051056	0.500106
C77	C	-0.122582	-0.506165	0.000107
C78	C	0.377418	-0.006165	0.500107
N79	N	-0.123544	-1.056773	-0.235252
N80	N	0.376456	-0.556773	0.264748
C81	C	-0.062809	-1.117487	0.287509
C82	C	0.437191	-0.617487	0.787509
C83	C	-0.062808	-1.117493	0.391613
C84	C	0.437192	-0.617493	0.891613
C85	C	-0.123530	-1.056744	0.443666
C86	C	0.376470	-0.556744	0.943666
C87	C	-0.184250	-0.995980	0.391611
C88	C	0.315750	-0.495980	0.891611
C89	C	-0.184246	-0.995971	0.287510
C90	C	0.315754	-0.495971	0.787510
C91	C	-0.184256	-0.996005	0.608591
C92	C	0.315744	-0.496005	1.108591
C93	C	-0.184262	-0.996015	0.712700
C94	C	0.315738	-0.496015	1.212700
C95	C	-0.062818	-1.117527	0.712694
C96	C	0.437182	-0.617527	1.212694
C97	C	-0.062814	-1.117518	0.608593
C98	C	0.437186	-0.617518	1.108593
C99	C	-0.123536	-1.056754	0.556545
C100	C	0.376464	-0.556754	1.056545
H101	H	0.624146	-1.200259	0.000111
H102	H	1.124146	-0.700259	0.500111
C103	C	-0.290069	-0.292712	0.000117
C104	C	0.209931	0.207288	0.500117
H105	H	-0.339367	-0.327562	0.000099
H106	H	0.160633	0.172438	0.500099
H107	H	-0.292770	-0.255881	0.057794
H108	H	0.207230	0.244119	0.557794
H109	H	-0.292767	-0.255875	-0.057559
H110	H	0.207233	0.244125	0.442441
H111	H	-0.233687	-0.946495	0.245134
H112	H	0.266313	-0.446495	0.745134
C113	C	-0.295496	-0.580469	0.000088
C114	C	0.204504	-0.080469	0.500088
H115	H	-0.344794	-0.615319	0.000069
H116	H	0.155206	-0.115319	0.500069
H117	H	-0.298197	-0.543638	0.057765
H118	H	0.201803	-0.043638	0.557765
H119	H	-0.298194	-0.543632	-0.057589
H120	H	0.201806	-0.043632	0.442411
H121	H	-0.233707	-0.946547	0.755077
H122	H	0.266293	-0.446547	1.255077
C123	C	0.444580	-1.226972	0.000117
C124	C	0.944580	-0.726972	0.500117
H125	H	0.492020	-1.274718	0.000110
H126	H	0.992020	-0.774718	0.500110
H127	H	0.408627	-1.231046	0.057789
H128	H	0.908627	-0.731046	0.557789
H129	H	0.408621	-1.231045	-0.057564
H130	H	0.908621	-0.731045	0.442436
H131	H	0.028593	-0.347417	0.000132
H132	H	0.528593	0.152583	0.500132
C133	C	0.003976	-1.184367	0.769937
C134	C	0.503976	-0.684367	1.269937
H135	H	0.040132	-1.220553	0.724026
H136	H	0.540132	-0.720553	1.224026
H137	H	0.041267	-1.152162	0.810558
H138	H	0.541267	-0.652162	1.310558
H139	H	-0.028273	-1.221636	0.810535
H140	H	0.471727	-0.721636	1.310535
C141	C	0.156820	-1.232401	0.000138
C142	C	0.656820	-0.732401	0.500138
H143	H	0.093060	-1.221908	0.000150
H144	H	0.593060	-0.721908	0.500150
H145	H	0.176444	-1.265600	-0.057529
H146	H	0.676444	-0.765600	0.442471
H147	H	0.176461	-1.265575	0.057824
H148	H	0.676461	-0.765575	0.557824
C149	C	0.042979	-0.820799	0.000096
C150	C	0.542979	-0.320799	0.500096
H151	H	0.030135	-0.881530	0.000100
H152	H	0.530135	-0.381530	0.500100
H153	H	0.076745	-0.809854	-0.057573
H154	H	0.576745	-0.309854	0.442427
H155	H	0.076742	-0.809853	0.057781
H156	H	0.576742	-0.309853	0.557781
C157	C	-0.251018	-0.929130	0.448863
C158	C	0.248982	-0.429130	0.948863
H159	H	-0.287165	-0.892930	0.402952
H160	H	0.212835	-0.392930	0.902952
H161	H	-0.288319	-0.961320	0.489478
H162	H	0.211681	-0.461320	0.989478
H163	H	-0.218749	-0.891875	0.489467
H164	H	0.281251	-0.391875	0.989467
C165	C	0.112419	-0.890215	0.000083
C166	C	0.612419	-0.390215	0.500083
H167	H	0.147266	-0.840916	0.000090
H168	H	0.647266	-0.340916	0.500090
H169	H	0.075582	-0.887520	-0.057592
H170	H	0.575582	-0.387520	0.442408
H171	H	0.075587	-0.887513	0.057761
H172	H	0.575587	-0.387513	0.557761
H173	H	-0.013366	-1.166959	0.245134
H174	H	0.486634	-0.666959	0.745134
H175	H	0.336387	-1.205681	0.000116
H176	H	0.836387	-0.705681	0.500116
C177	C	0.308349	-0.886519	0.000071
C178	C	0.808349	-0.386519	0.500071
H179	H	0.260910	-0.838772	0.000051
H180	H	0.760910	-0.338772	0.500051
H181	H	0.344312	-0.882430	0.057740
H182	H	0.844312	-0.382430	0.557740
H183	H	0.344298	-0.882464	-0.057614
H184	H	0.844298	-0.382464	0.442386
H185	H	0.025399	-0.516680	0.000121
H186	H	0.525399	-0.016680	0.500121
C187	C	0.596117	-0.881103	0.000084
C188	C	1.096117	-0.381103	0.500084
H189	H	0.659877	-0.891599	0.000096
H190	H	1.159877	-0.391599	0.500096
H191	H	0.576484	-0.847920	-0.057593
H192	H	1.076484	-0.347920	0.442407
H193	H	0.576487	-0.847912	0.057760
H194	H	1.076487	-0.347912	0.557760
C195	C	0.003973	-1.184334	0.448861
C196	C	0.503973	-0.684334	0.948861
H197	H	0.040127	-1.220522	0.402950
H198	H	0.540127	-0.720522	0.902950
H199	H	0.041265	-1.152133	0.489484
H200	H	0.541265	-0.652133	0.989484
H201	H	-0.028280	-1.221603	0.489457
H202	H	0.471720	-0.721603	0.989457
H203	H	-0.275673	-0.766074	0.000069
H204	H	0.224327	-0.266074	0.500069
H205	H	-0.270236	-0.478316	0.000089
H206	H	0.229764	0.021684	0.500089
H207	H	0.023152	-0.635173	0.000125
H208	H	0.523152	-0.135173	0.500125
H209	H	0.416531	-0.907821	0.000093
H210	H	0.916531	-0.407821	0.500093
H211	H	-0.013374	-1.166988	0.566211
H212	H	0.486626	-0.666988	1.066211
H213	H	-0.233699	-0.946522	0.566217
H214	H	0.266301	-0.446522	1.066217
