data_functionalizedCrystal
_audit_creation_method	'MofGen! by Chris Wilmer'
_symmetry_space_group_name_H-M	'P1'
_symmetry_Int_Tables_number	1
_symmetry_cell_setting	triclinic
loop_
_symmetry_equiv_pos_as_xyz
  x,y,z
_cell_length_a	14.044191
_cell_length_b	14.044190
_cell_length_c	15.455313
_cell_angle_alpha	92.904485
_cell_angle_beta	87.077556
_cell_angle_gamma	93.191777
loop_
_atom_site_label
_atom_site_type_symbol
_atom_site_fract_x
_atom_site_fract_y
_atom_site_fract_z
O1	O	1.281008	0.226380	-0.072106
O2	O	1.004336	0.218067	-0.072117
O3	O	1.138515	0.083888	-0.072095
O4	O	1.146830	0.360559	-0.072129
O5	O	1.130839	0.091526	0.072166
O6	O	0.996660	0.225705	0.072144
O7	O	1.273333	0.234018	0.072154
Cu8	Cu	1.134296	0.230559	0.085321
Cu9	Cu	1.143373	0.221526	-0.085284
O10	O	1.139154	0.368197	0.072132
C11	C	0.964876	0.218249	0.000013
C12	C	0.858733	0.207402	0.000009
C13	C	1.131041	0.052085	0.000038
C14	C	1.120193	-0.054058	0.000045
C15	C	1.177295	-0.299517	0.000013
C16	C	1.100378	-0.248393	0.000017
C17	C	1.111406	-0.140255	0.000033
C18	C	1.166269	-0.407664	-0.000003
C19	C	0.613276	0.264503	0.000011
C20	C	0.664399	0.187586	0.000019
C21	C	0.772537	0.198614	0.000014
C22	C	0.505129	0.253476	0.000016
C23	C	1.312793	0.233836	0.000023
C24	C	1.418936	0.244683	0.000021
C25	C	1.146629	0.400000	-0.000002
C26	C	1.157477	0.506143	-0.000015
N27	N	1.127918	0.236913	0.205316
N28	N	1.149758	0.215165	-0.205278
C29	C	1.184945	0.179934	0.250719
C30	C	1.180132	0.184748	0.341526
C31	C	1.118295	0.246547	0.386928
C32	C	1.061261	0.303529	0.341519
C33	C	1.066070	0.298709	0.250713
C34	C	1.097534	0.267327	0.658506
C35	C	1.092731	0.272145	0.749318
C36	C	1.211600	0.153362	0.749320
C37	C	1.216409	0.148552	0.658513
C38	C	1.159371	0.205529	0.613111
N39	N	1.113375	0.251472	0.479748
N40	N	1.164286	0.200599	0.520293
H41	H	1.251421	-0.262073	0.000025
H42	H	1.019631	0.345106	0.213746
H43	H	0.626957	0.113451	-0.000033
H44	H	0.650720	0.338629	-0.000001
O45	O	0.994574	0.370194	0.390485
H46	H	0.920039	0.350768	0.373083
H47	H	1.026246	-0.285839	0.000009
H48	H	1.266761	0.098230	0.621548
O49	O	1.251637	0.113274	0.201751
H50	H	1.290474	0.074455	0.248582
O51	O	1.241658	0.123311	0.390501
H52	H	1.285479	0.079545	0.343675
H53	H	1.258037	0.106972	0.786294
H54	H	1.042373	0.322473	0.786280
H55	H	1.051093	0.313722	0.621547
