data_functionalizedCrystal
_audit_creation_method	'MofGen! by Chris Wilmer'
_symmetry_space_group_name_H-M	'P1'
_symmetry_Int_Tables_number	1
_symmetry_cell_setting	triclinic
loop_
_symmetry_equiv_pos_as_xyz
  x,y,z
_cell_length_a	19.288864
_cell_length_b	14.971486
_cell_length_c	14.048226
_cell_angle_alpha	89.996181
_cell_angle_beta	89.981310
_cell_angle_gamma	83.375187
loop_
_atom_site_label
_atom_site_type_symbol
_atom_site_fract_x
_atom_site_fract_y
_atom_site_fract_z
O1	O	-0.921713	-0.111578	0.079466
O2	O	-0.588379	0.221755	0.412800
O3	O	-0.255046	0.555089	0.746133
O4	O	-0.719501	-0.126630	0.079401
O5	O	-0.386168	0.206703	0.412735
O6	O	-0.052834	0.540037	0.746068
O7	O	-0.826027	0.011125	0.079429
O8	O	-0.492693	0.344459	0.412762
O9	O	-0.159360	0.677792	0.746096
O10	O	-0.815187	-0.249333	0.079439
O11	O	-0.481854	0.084000	0.412772
O12	O	-0.148520	0.417333	0.746106
O13	O	-0.826016	0.011127	-0.078892
O14	O	-0.492683	0.344460	0.254441
O15	O	-0.159350	0.677793	0.587774
O16	O	-0.719491	-0.126629	-0.078920
O17	O	-0.386157	0.206704	0.254413
O18	O	-0.052824	0.540038	0.587747
O19	O	-0.921702	-0.111577	-0.078855
O20	O	-0.588369	0.221756	0.254478
O21	O	-0.255036	0.555090	0.587812
Zn22	Zn	-0.820595	-0.119103	-0.104024
Zn23	Zn	-0.487262	0.214231	0.229309
Zn24	Zn	-0.153928	0.547564	0.562642
Zn25	Zn	-0.820608	-0.119104	0.104571
Zn26	Zn	-0.487275	0.214229	0.437904
Zn27	Zn	-0.153942	0.547563	0.771238
O28	O	-0.815177	-0.249332	-0.078882
O29	O	-0.481843	0.084001	0.254451
O30	O	-0.148510	0.417334	0.587784
C31	C	-0.693618	-0.126145	0.000232
C32	C	-0.360285	0.207188	0.333566
C33	C	-0.026951	0.540522	0.666899
C34	C	-0.616510	-0.124691	0.000207
C35	C	-0.283176	0.208642	0.333541
C36	C	0.050157	0.541975	0.666874
C37	C	-0.825537	0.044448	0.000268
C38	C	-0.492203	0.377781	0.333602
C39	C	-0.158870	0.711115	0.666935
C40	C	-0.824084	0.143737	0.000269
C41	C	-0.490751	0.477071	0.333602
C42	C	-0.157417	0.810404	0.666935
C43	C	-0.947585	-0.112062	0.000316
C44	C	-0.614252	0.221272	0.333650
C45	C	-0.280919	0.554605	0.666983
C46	C	-1.024694	-0.113516	0.000347
C47	C	-0.691360	0.219818	0.333681
C48	C	-0.358027	0.553151	0.667014
C49	C	-0.572077	-0.205520	0.000226
C50	C	-0.238743	0.127813	0.333559
C51	C	0.094590	0.461147	0.666892
C52	C	-0.499625	-0.204154	0.000236
C53	C	-0.166292	0.129179	0.333569
C54	C	0.167041	0.462513	0.666903
C55	C	-0.471610	-0.121955	0.000247
C56	C	-0.138276	0.211378	0.333581
C57	C	0.195057	0.544712	0.666914
C58	C	-0.516052	-0.041116	0.000224
C59	C	-0.182719	0.292218	0.333557
C60	C	0.150614	0.625551	0.666891
C61	C	-0.588502	-0.042484	0.000204
C62	C	-0.255169	0.290849	0.333537
C63	C	0.078164	0.624183	0.666871
C64	C	-0.363141	-0.057338	0.055744
C65	C	-0.029807	0.275996	0.389077
C66	C	0.303526	0.609329	0.722411
C67	C	-0.290692	-0.055973	0.055770
C68	C	0.042642	0.277360	0.389103
C69	C	0.375975	0.610694	0.722436
C70	C	-0.248150	-0.117732	0.000305
C71	C	0.085183	0.215602	0.333638
C72	C	0.418516	0.548935	0.666972
C73	C	-0.278065	-0.180870	-0.055174
C74	C	0.055268	0.152463	0.278160
C75	C	0.388601	0.485796	0.611493
C76	C	-0.350515	-0.182239	-0.055194
C77	C	-0.017182	0.151095	0.278140
C78	C	0.316151	0.484428	0.611473
C79	C	-0.393051	-0.120462	0.000269
C80	C	-0.059718	0.212871	0.333602
C81	C	0.273616	0.546204	0.666935
C82	C	-0.125157	-0.197085	0.000333
C83	C	0.208177	0.136249	0.333666
C84	C	0.541510	0.469582	0.667000
C85	C	-0.052704	-0.195715	0.000338
C86	C	0.280629	0.137618	0.333671
C87	C	0.613962	0.470951	0.667004
C88	C	-0.069133	-0.032675	0.000335
C89	C	0.264200	0.300659	0.333668
C90	C	0.597534	0.633992	0.667002
C91	C	-0.141584	-0.034046	0.000321
C92	C	0.191749	0.299287	0.333654
C93	C	0.525083	0.632620	0.666988
C94	C	-0.169591	-0.116254	0.000324
C95	C	0.163742	0.217080	0.333658
C96	C	0.497075	0.550413	0.666991
C97	C	-0.815667	-0.282655	0.000280
C98	C	-0.482333	0.050678	0.333614
C99	C	-0.149000	0.384012	0.666947
C100	C	-0.817119	-0.381944	0.000286
C101	C	-0.483786	-0.048611	0.333619
C102	C	-0.150453	0.284723	0.666953
C103	C	-0.886665	0.201301	0.000288
C104	C	-0.553332	0.534634	0.333622
C105	C	-0.219998	0.867968	0.666955
C106	C	-0.885296	0.294593	0.000297
C107	C	-0.551962	0.627926	0.333631
C108	C	-0.218629	0.961260	0.666964
C109	C	-0.821345	0.330320	0.000280
C110	C	-0.488012	0.663653	0.333614
C111	C	-0.154678	0.996986	0.666947
C112	C	-0.758759	0.272749	0.000264
C113	C	-0.425426	0.606082	0.333597
C114	C	-0.092093	0.939415	0.666930
C115	C	-0.760129	0.179458	0.000261
C116	C	-0.426796	0.512792	0.333595
C117	C	-0.093463	0.846125	0.666928
C118	C	-0.755909	0.467196	0.000266
C119	C	-0.422575	0.800529	0.333599
C120	C	-0.089242	1.133862	0.666933
C121	C	-0.754538	0.560492	0.000267
C122	C	-0.421205	0.893826	0.333600
C123	C	-0.087872	1.227159	0.666933
C124	C	-0.881075	0.582330	0.000302
C125	C	-0.547742	0.915664	0.333636
C126	C	-0.214409	1.248997	0.666969
C127	C	-0.882445	0.489040	0.000300
C128	C	-0.549112	0.822373	0.333633
C129	C	-0.215778	1.155707	0.666967
C130	C	-0.819859	0.431475	0.000281
C131	C	-0.486526	0.764809	0.333615
C132	C	-0.153192	1.098142	0.666948
N133	N	-0.820591	-0.119101	-0.246385
N134	N	-0.487258	0.214232	0.086948
N135	N	-0.153924	0.547566	0.420282
C136	C	-0.862759	-0.173214	-0.296182
C137	C	-0.529426	0.160119	0.037151
C138	C	-0.196092	0.493452	0.370484
C139	C	-0.862768	-0.173210	-0.395840
C140	C	-0.529435	0.160123	-0.062507
C141	C	-0.196101	0.493456	0.270827
C142	C	-0.820605	-0.119097	-0.445698
C143	C	-0.487271	0.214236	-0.112365
C144	C	-0.153938	0.547569	0.220968
C145	C	-0.778435	-0.064978	-0.395894
C146	C	-0.445101	0.268355	-0.062561
C147	C	-0.111768	0.601689	0.270773
C148	C	-0.778430	-0.064978	-0.296238
C149	C	-0.445097	0.268355	0.037095
C150	C	-0.111763	0.601689	0.370428
C151	C	-0.778446	-0.064984	-0.603608
C152	C	-0.445113	0.268349	-0.270275
C153	C	-0.111780	0.601683	0.063058
C154	C	-0.778450	-0.064985	-0.703271
C155	C	-0.445117	0.268348	-0.369938
C156	C	-0.111783	0.601681	-0.036604
C157	C	-0.862784	-0.173217	-0.703210
C158	C	-0.529451	0.160117	-0.369877
C159	C	-0.196118	0.493450	-0.036543
C160	C	-0.862780	-0.173216	-0.603554
C161	C	-0.529446	0.160117	-0.270221
C162	C	-0.196113	0.493450	0.063112
C163	C	-0.820609	-0.119098	-0.553757
C164	C	-0.487275	0.214235	-0.220423
C165	C	-0.153942	0.547569	0.112910
N166	N	-0.820618	-0.119099	0.246932
N167	N	-0.487285	0.214235	0.580265
N168	N	-0.153951	0.547568	0.913598
H169	H	-0.594875	-0.272460	0.000230
H170	H	-0.261542	0.060874	0.333563
H171	H	0.071791	0.394207	0.666897
Br172	Br	-0.667747	0.608978	0.000239
Br173	Br	-0.334414	0.942312	0.333572
Br174	Br	-0.001081	1.275645	0.666906
Br175	Br	-0.721210	0.008477	-0.228655
Br176	Br	-0.387876	0.341811	0.104679
Br177	Br	-0.054543	0.675144	0.438012
Br178	Br	-0.969236	0.440554	0.000325
Br179	Br	-0.635903	0.773887	0.333659
Br180	Br	-0.302570	1.107221	0.666992
H181	H	-0.624680	0.023339	0.000190
H182	H	-0.291347	0.356672	0.333523
H183	H	0.041986	0.690005	0.666856
Br184	Br	-0.439312	-0.313858	0.000255
Br185	Br	-0.105978	0.019476	0.333588
Br186	Br	0.227355	0.352809	0.666921
Br187	Br	-0.721227	0.008481	-0.536026
Br188	Br	-0.387894	0.341814	-0.202693
Br189	Br	-0.054561	0.675147	0.130640
Br190	Br	-0.973460	0.152825	0.000298
Br191	Br	-0.640127	0.486158	0.333631
Br192	Br	-0.306793	0.819491	0.666964
H193	H	-0.374869	-0.233645	-0.100369
H194	H	-0.041536	0.099688	0.232964
H195	H	0.291797	0.433021	0.566297
Br196	Br	0.007600	-0.305422	0.000354
Br197	Br	0.340934	0.027912	0.333687
Br198	Br	0.674267	0.361245	0.667020
H199	H	-0.897107	-0.217273	-0.436381
H200	H	-0.563773	0.116060	-0.103047
H201	H	-0.230440	0.449394	0.230286
Br202	Br	-0.250099	0.029703	0.131074
Br203	Br	0.083235	0.363036	0.464407
Br204	Br	0.416568	0.696369	0.797741
H205	H	-0.897119	-0.217285	-0.743760
H206	H	-0.563785	0.116048	-0.410427
H207	H	-0.230452	0.449381	-0.077093
H208	H	-0.744116	-0.020923	-0.743863
H209	H	-0.410782	0.312410	-0.410530
H210	H	-0.077449	0.645744	-0.077197
H211	H	-0.177762	0.031773	0.000311
H212	H	0.155571	0.365107	0.333645
H213	H	0.488904	0.698440	0.666978
Br214	Br	-0.420869	0.026488	0.131022
Br215	Br	-0.087535	0.359821	0.464355
Br216	Br	0.245798	0.693154	0.797689
Br217	Br	-0.220340	-0.264695	-0.130450
Br218	Br	0.112994	0.068638	0.202883
Br219	Br	0.446327	0.401972	0.536217
Br220	Br	-0.721215	0.008466	-0.463558
Br221	Br	-0.387882	0.341799	-0.130225
Br222	Br	-0.054548	0.675132	0.203109
H223	H	-0.709169	0.132590	0.000246
H224	H	-0.375836	0.465923	0.333579
H225	H	-0.042503	0.799257	0.666912
Br226	Br	-0.031120	0.078884	0.000335
Br227	Br	0.302213	0.412217	0.333668
Br228	Br	0.635547	0.745550	0.667001
Br229	Br	-0.478033	0.070441	0.000230
Br230	Br	-0.144700	0.403775	0.333563
Br231	Br	0.188633	0.737108	0.666896
Br232	Br	-0.163171	-0.308649	0.000331
Br233	Br	0.170162	0.024685	0.333664
Br234	Br	0.503495	0.358018	0.666997
Br235	Br	-0.670970	0.389072	0.000245
Br236	Br	-0.337636	0.722406	0.333578
Br237	Br	-0.004303	1.055739	0.666911
Br238	Br	-0.970231	0.372713	0.000324
Br239	Br	-0.636898	0.706046	0.333657
Br240	Br	-0.303564	1.039379	0.666991
Br241	Br	-0.671968	0.321233	0.000256
Br242	Br	-0.338634	0.654567	0.333590
Br243	Br	-0.005301	0.987900	0.666923
Br244	Br	-0.919982	-0.246661	-0.228527
Br245	Br	-0.586648	0.086673	0.104806
Br246	Br	-0.253315	0.420006	0.438140
Br247	Br	-0.919982	-0.246682	-0.535889
Br248	Br	-0.586649	0.086652	-0.202556
Br249	Br	-0.253315	0.419985	0.130778
H250	H	-0.932035	0.629204	0.000320
H251	H	-0.598702	0.962538	0.333653
H252	H	-0.265368	1.295871	0.666987
