data_functionalizedCrystal
_audit_creation_method	'MofGen! by Chris Wilmer'
_symmetry_space_group_name_H-M	'P1'
_symmetry_Int_Tables_number	1
_symmetry_cell_setting	triclinic
loop_
_symmetry_equiv_pos_as_xyz
  x,y,z
_cell_length_a	15.625950
_cell_length_b	27.732048
_cell_length_c	14.750779
_cell_angle_alpha	77.459753
_cell_angle_beta	120.090508
_cell_angle_gamma	83.485104
loop_
_atom_site_label
_atom_site_type_symbol
_atom_site_fract_x
_atom_site_fract_y
_atom_site_fract_z
O1	O	1.285983	0.014909	0.367666
O2	O	0.998750	0.035532	0.267709
O3	O	1.151293	-0.045547	0.320812
O4	O	1.133441	0.095989	0.314563
O5	O	1.194414	-0.068465	0.495474
O6	O	1.041872	0.012614	0.442371
O7	O	1.329105	-0.008009	0.542327
Zn8	Zn	1.192335	-0.001336	0.520080
Zn9	Zn	1.135520	0.028860	0.289956
O10	O	1.176563	0.073071	0.489225
C11	C	0.983575	0.025409	0.342256
C12	C	0.874114	0.029382	0.304165
C13	C	0.631512	-0.019969	0.654799
C14	C	0.528642	-0.016219	0.618957
C15	C	0.481684	0.008763	0.428565
C16	C	0.584551	0.005018	0.464391
C17	C	0.659458	-0.009349	0.577509
C18	C	0.612497	0.015638	0.387101
C19	C	0.715357	0.011891	0.422925
C20	C	0.790270	-0.002477	0.536038
C21	C	0.762318	-0.013096	0.613333
C22	C	0.537589	0.030001	0.273984
C23	C	0.565535	0.040621	0.196695
C24	C	0.668395	0.036878	0.232518
C25	C	0.743308	0.022510	0.345631
C26	C	0.696347	0.047497	0.155223
C27	C	0.799206	0.043749	0.191047
C28	C	0.846168	0.018762	0.381455
C29	C	1.172480	-0.074998	0.408015
C30	C	1.171354	-0.128607	0.407631
C31	C	1.254381	-0.470849	0.436475
C32	C	1.250193	-0.672334	0.435004
O33	O	1.326116	-0.706724	0.461383
N34	N	1.159745	-0.687718	0.403530
C35	C	1.070335	-0.652726	0.372413
O36	O	0.993305	-0.670432	0.345598
C37	C	1.074522	-0.451241	0.373877
C38	C	1.164979	-0.435862	0.405365
C39	C	1.344830	-0.455469	0.467959
C40	C	1.345877	-0.405102	0.468332
C41	C	1.256475	-0.370114	0.437221
C42	C	1.166026	-0.385494	0.405738
C43	C	0.985112	-0.416249	0.342754
C44	C	0.986166	-0.365875	0.343120
C45	C	1.076623	-0.350496	0.374607
C46	C	1.077672	-0.300139	0.375000
N47	N	1.168120	-0.284756	0.406475
C48	C	1.257522	-0.319743	0.437585
C49	C	1.068144	-0.758509	0.371649
C50	C	1.067097	-0.808880	0.371285
C51	C	1.246955	-0.828485	0.433874
C52	C	1.248002	-0.778114	0.434246
C53	C	1.158592	-0.743125	0.403124
C54	C	1.259715	-0.213967	0.438367
C55	C	1.260756	-0.163595	0.438742
C56	C	1.080897	-0.143994	0.376148
C57	C	1.079858	-0.194362	0.375778
C58	C	1.169274	-0.229348	0.406887
O59	O	1.001787	-0.265722	0.348623
O60	O	1.334535	-0.302024	0.464374
C61	C	1.253333	-0.521217	0.436102
C62	C	1.162884	-0.536597	0.404618
C63	C	1.073483	-0.501609	0.373508
C64	C	1.161838	-0.586968	0.404254
C65	C	1.251239	-0.621955	0.435365
C66	C	1.341687	-0.606572	0.466840
C67	C	1.342735	-0.556204	0.467213
C68	C	0.983034	-0.516993	0.342033
C69	C	0.981995	-0.567362	0.341664
C70	C	1.071396	-0.602349	0.372774
C71	C	1.344280	0.002115	0.467778
C72	C	1.453739	-0.001857	0.505862
C73	C	1.155375	0.102522	0.402019
C74	C	1.156499	0.156133	0.402396
N75	N	1.231117	-0.021944	0.677137
N76	N	1.096746	0.049464	0.132903
C77	C	0.988434	0.106998	0.944473
C78	C	1.015617	0.092560	1.054435
C79	C	1.150721	0.020787	1.101430
C80	C	1.123546	0.035217	0.991468
C81	C	1.042403	0.078324	0.912998
C82	C	1.177514	0.006543	0.959993
C83	C	1.150345	0.020974	0.850043
C84	C	1.069207	0.064080	0.771567
C85	C	1.015233	0.092755	0.803047
C86	C	1.258662	-0.036561	1.038467
C87	C	1.312630	-0.065235	1.006992
C88	C	1.285456	-0.050806	0.897038
C89	C	1.204318	-0.007701	0.818562
C90	C	1.339430	-0.079481	0.865558
C91	C	1.312260	-0.065050	0.755607
C92	C	1.177149	0.006730	0.708612
H93	H	0.635345	0.059189	0.063123
H94	H	0.907161	0.007071	0.473566
H95	H	1.008110	-0.115499	0.350822
H96	H	1.280783	-0.048307	1.127995
H97	H	0.453835	0.033055	0.244820
H98	H	0.504533	0.052317	0.104594
H99	H	0.692505	-0.031660	0.746910
H100	H	0.971663	0.115914	1.080053
H101	H	1.356208	-0.088400	0.729982
H102	H	0.874024	-0.005528	0.565204
H103	H	1.416394	-0.543688	0.492853
H104	H	1.006208	-0.206888	0.350168
H105	H	0.505893	-0.024857	0.681903
H106	H	0.420682	0.020459	0.336464
H107	H	1.216791	-0.014310	1.165333
H108	H	0.949151	0.127853	0.739150
H109	H	1.417634	-0.483952	0.493291
H110	H	1.047089	0.075830	0.682040
H111	H	0.821958	0.052400	0.128109
H112	H	0.922352	0.142096	0.880575
H113	H	1.321660	-0.765596	0.459885
H114	H	0.910231	-0.488510	0.316696
H115	H	1.378701	-0.100332	1.070895
H116	H	1.111067	0.041829	0.644714
H117	H	1.405504	-0.114576	0.929464
H118	H	0.823311	-0.024788	0.705444
H119	H	1.332525	-0.242447	0.463696
H120	H	1.334420	-0.151077	0.464387
H121	H	1.419535	-0.392585	0.493968
H122	H	1.319749	-0.856980	0.459206
H123	H	0.993443	-0.821399	0.345663
H124	H	0.995331	-0.730024	0.346305
H125	H	0.911451	-0.428760	0.317107
H126	H	0.913356	-0.337388	0.317775
H127	H	0.908331	-0.579878	0.316030
H128	H	1.414482	-0.635068	0.492176
