data_functionalizedCrystal
_audit_creation_method	'MofGen! by Chris Wilmer'
_symmetry_space_group_name_H-M	'P1'
_symmetry_Int_Tables_number	1
_symmetry_cell_setting	triclinic
loop_
_symmetry_equiv_pos_as_xyz
  x,y,z
_cell_length_a	10.723022
_cell_length_b	10.654560
_cell_length_c	9.798715
_cell_angle_alpha	89.998646
_cell_angle_beta	89.996609
_cell_angle_gamma	84.478257
loop_
_atom_site_label
_atom_site_type_symbol
_atom_site_fract_x
_atom_site_fract_y
_atom_site_fract_z
O1	O	1.657221	0.176137	-0.113476
O2	O	1.294072	0.192999	-0.113480
O3	O	1.483989	0.001828	-0.113475
O4	O	1.467304	0.367308	-0.113481
O5	O	1.483975	0.001828	0.113507
O6	O	1.294058	0.192999	0.113502
O7	O	1.657207	0.176136	0.113506
Zn8	Zn	1.475630	0.184567	0.149542
Zn9	Zn	1.475649	0.184568	-0.149517
O10	O	1.467290	0.367307	0.113501
C11	C	1.247565	0.191772	0.000010
C12	C	1.109010	0.188102	0.000008
C13	C	1.482754	-0.044970	0.000014
C14	C	1.479080	-0.184412	0.000007
C15	C	0.890851	0.291275	0.000004
C16	C	1.034054	0.295071	0.000006
C17	C	1.473915	-0.380950	0.123736
C18	C	1.477351	-0.249927	0.123737
C19	C	1.477360	-0.249924	-0.123732
C20	C	1.473915	-0.380943	-0.123731
C21	C	1.472199	-0.446460	0.247473
C22	C	1.473916	-0.380957	0.371213
C23	C	1.477353	-0.249935	0.371214
C24	C	1.479072	-0.184415	0.247475
C25	C	1.703714	0.177363	0.000012
C26	C	1.842269	0.181033	0.000005
C27	C	1.468525	0.414105	0.000009
C28	C	1.472199	0.553547	0.000006
N29	N	1.475626	0.184566	0.353642
N30	N	1.475662	0.184559	-0.353616
C31	C	1.555367	0.103945	0.421421
C32	C	1.555387	0.103941	0.578584
H33	H	0.826425	0.382847	-0.000006
Cl34	Cl	1.044445	0.042361	0.000020
H35	H	1.469404	-0.553146	0.247486
Cl36	Cl	1.660802	-0.002624	0.668568
H37	H	1.407394	0.253591	0.588105
Cl38	Cl	1.479542	-0.167558	-0.279277
H39	H	1.472508	-0.434275	-0.224483
H40	H	1.407367	0.253581	0.411964
H41	H	0.906694	0.089462	-0.000001
Cl42	Cl	1.471737	-0.463319	0.526760
H43	H	1.075884	0.389459	0.000013
Cl44	Cl	1.479492	-0.167589	0.526768
H45	H	1.481848	-0.077725	0.247486
Cl46	Cl	1.660468	-0.002905	0.331385
