data_functionalizedCrystal
_audit_creation_method	'MofGen! by Chris Wilmer'
_symmetry_space_group_name_H-M	'P1'
_symmetry_Int_Tables_number	1
_symmetry_cell_setting	triclinic
loop_
_symmetry_equiv_pos_as_xyz
  x,y,z
_cell_length_a	13.339070
_cell_length_b	10.540535
_cell_length_c	12.376457
_cell_angle_alpha	101.390053
_cell_angle_beta	75.589755
_cell_angle_gamma	100.076468
loop_
_atom_site_label
_atom_site_type_symbol
_atom_site_fract_x
_atom_site_fract_y
_atom_site_fract_z
O1	O	1.366169	0.620434	-0.094060
O2	O	1.071036	0.536696	-0.094052
O3	O	1.225336	0.396157	-0.094045
O4	O	1.211869	0.760974	-0.094067
O5	O	1.186774	0.431230	0.093966
O6	O	1.032475	0.571770	0.093959
O7	O	1.327607	0.655508	0.093950
Zn8	Zn	1.173919	0.619207	0.123805
Zn9	Zn	1.224725	0.572997	-0.123907
O10	O	1.173308	0.796048	0.093943
C11	C	1.013964	0.540088	-0.000045
C12	C	0.901357	0.497925	-0.000041
C13	C	0.538937	0.825760	-0.000079
C14	C	0.644736	0.865378	-0.000087
C15	C	0.708897	0.773518	-0.000075
C16	C	0.667247	0.642034	-0.000057
C17	C	0.561439	0.602411	-0.000059
C18	C	0.731399	0.550169	-0.000054
C19	C	0.689749	0.418684	-0.000036
C20	C	0.583951	0.379068	-0.000037
C21	C	0.519790	0.470928	-0.000049
C22	C	0.837207	0.589792	-0.000052
C23	C	0.859709	0.366442	-0.000032
C24	C	0.753909	0.326825	-0.000025
C25	C	1.205046	0.366046	-0.000039
C26	C	1.202026	0.224069	-0.000037
C27	C	1.089368	0.148998	-0.000042
C28	C	1.086282	0.001231	-0.000489
C29	C	1.275436	0.012278	-0.107219
C30	C	1.277847	0.159848	-0.107289
C31	C	1.235633	0.200154	0.106522
C32	C	1.230138	0.052291	0.107910
C33	C	1.384680	0.652116	-0.000059
C34	C	1.497288	0.694277	-0.000070
C35	C	1.193598	0.826158	-0.000065
C36	C	1.196620	0.968133	-0.000074
N37	N	1.139252	0.650747	0.292862
N38	N	1.259400	0.541450	-0.292963
C39	C	1.339872	0.468212	0.647856
C40	C	1.364130	0.446136	0.529517
C41	C	1.307912	0.497286	0.470348
C42	C	1.227433	0.570518	0.529528
C43	C	1.203178	0.592605	0.647879
C44	C	1.171218	0.621679	0.470370
C45	C	1.090740	0.694911	0.529551
C46	C	1.066489	0.716994	0.647890
C47	C	1.122706	0.665843	0.707059
C48	C	1.195473	0.599592	0.352020
C49	C	1.058780	0.723985	0.352043
C50	C	1.034522	0.746061	0.470381
H51	H	0.719985	0.219766	-0.000019
C52	C	1.009631	0.205122	0.103742
H53	H	1.044326	0.274848	0.148005
H54	H	0.977600	0.138617	0.147861
H55	H	0.957779	0.236560	0.079385
H56	H	1.385643	0.426580	0.696040
H57	H	1.361372	0.210178	-0.111854
C58	C	1.004950	-0.039539	0.103241
H59	H	0.973499	0.034266	0.146031
H60	H	1.038331	-0.073249	0.148824
H61	H	0.952824	-0.104771	0.078856
H62	H	1.102953	0.683813	0.803421
H63	H	0.486691	0.900536	-0.000099
C64	C	1.053150	0.168801	-0.103673
H65	H	1.106390	0.222614	-0.146941
H66	H	0.991393	0.209484	-0.079183
H67	H	1.039341	0.086519	-0.148843
C68	C	1.047939	-0.077043	-0.104864
H69	H	1.034201	-0.018551	-0.147164
H70	H	0.985803	-0.133479	-0.081143
H71	H	1.100176	-0.127377	-0.150695
H72	H	1.260999	0.539967	0.303846
C73	C	1.248259	0.176198	-0.215890
H74	H	1.234876	0.092768	-0.259548
H75	H	1.304181	0.227335	-0.258635
H76	H	1.187444	0.218556	-0.196482
H77	H	1.357494	-0.008054	-0.110905
C78	C	1.244933	-0.067569	-0.215358
H79	H	1.184222	-0.127833	-0.195441
H80	H	1.300666	-0.113793	-0.258622
H81	H	1.231067	-0.010329	-0.258716
C82	C	0.538137	0.234439	-0.000038
H83	H	0.465939	0.223996	-0.000054
H84	H	0.546647	0.207268	0.065526
H85	H	0.573555	0.182825	-0.065609
C86	C	1.165617	0.261755	0.216278
H87	H	1.115229	0.302640	0.198137
H88	H	1.207327	0.324924	0.258405
H89	H	1.131072	0.195683	0.259992
H90	H	1.309340	0.031993	0.114700
C91	C	0.996941	0.780261	0.286969
H92	H	1.022906	0.756610	0.208012
H93	H	1.004593	0.872698	0.306354
H94	H	0.925174	0.746170	0.306377
H95	H	1.172517	0.024366	0.187178
H96	H	1.318305	0.250796	0.107564
H97	H	0.911950	0.291641	-0.000027
H98	H	0.871107	0.696847	-0.000062
C99	C	0.825271	0.817098	-0.000070
H100	H	0.840885	0.908562	-0.000071
H101	H	0.866819	0.772584	-0.065623
H102	H	0.839901	0.797057	0.065512
H103	H	1.327666	0.479308	0.373991
C104	C	0.403411	0.427344	-0.000046
H105	H	0.387792	0.335882	-0.000034
H106	H	0.388766	0.447397	-0.065610
H107	H	0.361872	0.471855	0.065525
H108	H	1.000966	0.776635	0.696075
C109	C	1.452642	0.365579	0.464427
H110	H	1.482643	0.338267	0.516612
H111	H	1.504650	0.417637	0.418245
H112	H	1.425232	0.291109	0.418277
C113	C	0.945981	0.826583	0.535483
H114	H	0.915958	0.853869	0.483302
H115	H	0.973355	0.901050	0.581653
H116	H	0.893985	0.774479	0.581645
C117	C	0.690542	1.009999	-0.000093
H118	H	0.637178	1.059035	-0.000087
H119	H	0.744799	1.017873	-0.065654
H120	H	0.717893	1.042323	0.065481
