data_functionalizedCrystal
_audit_creation_method	'MofGen! by Chris Wilmer'
_symmetry_space_group_name_H-M	'P1'
_symmetry_Int_Tables_number	1
_symmetry_cell_setting	triclinic
loop_
_symmetry_equiv_pos_as_xyz
  x,y,z
_cell_length_a	14.044191
_cell_length_b	10.723024
_cell_length_c	9.798715
_cell_angle_alpha	90.003391
_cell_angle_beta	90.000527
_cell_angle_gamma	91.170177
loop_
_atom_site_label
_atom_site_type_symbol
_atom_site_fract_x
_atom_site_fract_y
_atom_site_fract_z
O1	O	-0.133040	1.670502	0.113471
O2	O	0.366960	2.170502	0.613471
O3	O	-0.145775	1.308624	0.113475
O4	O	0.354225	1.808624	0.613475
O5	O	-0.001387	1.484127	0.113475
O6	O	0.498613	1.984127	0.613475
O7	O	-0.277427	1.494999	0.113470
O8	O	0.222573	1.994999	0.613470
O9	O	-0.001387	1.484112	-0.113507
O10	O	0.498613	1.984112	0.386493
O11	O	-0.145774	1.308610	-0.113508
O12	O	0.354226	1.808610	0.386492
O13	O	-0.133040	1.670488	-0.113511
O14	O	0.366960	2.170488	0.386489
Zn15	Zn	-0.139407	1.489546	-0.149548
Zn16	Zn	0.360593	1.989546	0.350452
Zn17	Zn	-0.139407	1.489565	0.149511
Zn18	Zn	0.360593	1.989565	0.649511
O19	O	-0.277427	1.494985	-0.113512
O20	O	0.222573	1.994985	0.386488
C21	C	-0.144848	1.262025	-0.000016
C22	C	0.355152	1.762025	0.499984
C23	C	-0.142075	1.123193	-0.000014
C24	C	0.357925	1.623193	0.499986
C25	C	-0.222867	1.056296	-0.000015
C26	C	0.277133	1.556296	0.499985
C27	C	-0.220003	0.912806	-0.000013
C28	C	0.279997	1.412806	0.499987
C29	C	-0.312773	1.499749	-0.000022
C30	C	0.187227	1.999749	0.499978
C31	C	-0.418091	1.513937	-0.000023
C32	C	0.081909	2.013937	0.499977
C33	C	-0.667892	1.439251	-0.000011
C34	C	-0.167892	1.939251	0.499989
C35	C	-0.610917	1.539855	-0.000014
C36	C	-0.110917	2.039855	0.499986
C37	C	-0.503619	1.525431	-0.000019
C38	C	-0.003619	2.025431	0.499981
C39	C	-0.775200	1.453674	-0.000006
C40	C	-0.275200	1.953674	0.499994
C41	C	0.033958	1.479363	-0.000012
C42	C	0.533958	1.979363	0.499988
C43	C	0.139277	1.465175	-0.000001
C44	C	0.639277	1.965175	0.499999
C45	C	-0.133967	1.717087	-0.000018
C46	C	0.366033	2.217087	0.499982
C47	C	-0.136739	1.855919	-0.000011
C48	C	0.363261	2.355919	0.499989
N49	N	-0.139406	1.489543	-0.353647
N50	N	0.360594	1.989543	0.146353
C51	C	-0.078515	1.563205	-0.421424
C52	C	0.421485	2.063205	0.078576
C53	C	-0.078511	1.563224	-0.578587
C54	C	0.421489	2.063224	-0.078587
N55	N	-0.139401	1.489578	0.353611
N56	N	0.360599	1.989578	0.853611
H57	H	-0.294155	1.105252	-0.000024
H58	H	0.205845	1.605252	0.499976
H59	H	-0.642723	1.636818	0.000084
H60	H	-0.142723	2.136818	0.500084
H61	H	-0.026381	1.626251	-0.363101
H62	H	0.473619	2.126251	0.136899
H63	H	-0.636088	1.342296	-0.000013
H64	H	-0.136088	1.842296	0.499987
H65	H	-0.026383	1.626294	-0.636872
H66	H	0.473617	2.126294	-0.136872
H67	H	-0.191539	1.426515	-0.588113
H68	H	0.308461	1.926515	-0.088113
H69	H	-0.289167	0.855295	-0.000008
H70	H	0.210833	1.355295	0.499992
H71	H	-0.191532	1.426487	-0.411972
H72	H	0.308468	1.926487	0.088028
H73	H	-0.067572	0.913422	-0.000001
H74	H	0.432428	1.413422	0.499999
H75	H	-0.070786	1.074236	0.000022
H76	H	0.429214	1.574236	0.500022
