data_functionalizedCrystal
_audit_creation_method	'MofGen! by Chris Wilmer'
_symmetry_space_group_name_H-M	'P1'
_symmetry_Int_Tables_number	1
_symmetry_cell_setting	triclinic
loop_
_symmetry_equiv_pos_as_xyz
  x,y,z
_cell_length_a	16.625548
_cell_length_b	17.077402
_cell_length_c	17.077396
_cell_angle_alpha	90.030619
_cell_angle_beta	89.982679
_cell_angle_gamma	89.976049
loop_
_atom_site_label
_atom_site_type_symbol
_atom_site_fract_x
_atom_site_fract_y
_atom_site_fract_z
Zn1	Zn	1.232652	0.312479	-0.443837
Zn2	Zn	1.732652	0.812479	0.056163
Zn3	Zn	1.232562	0.443756	-0.312568
Zn4	Zn	1.732562	0.943756	0.187432
Zn5	Zn	1.097822	0.312511	-0.312585
Zn6	Zn	1.597822	0.812511	0.187415
Zn7	Zn	1.097784	0.443710	-0.443792
Zn8	Zn	1.597784	0.943710	0.056208
O9	O	1.165205	0.378114	-0.378196
O10	O	1.665205	0.878114	0.121804
O11	O	1.345473	0.329900	-0.426436
O12	O	1.845473	0.829900	0.073564
O13	O	1.214667	0.426379	-0.202723
O14	O	1.714667	0.926379	0.297277
O15	O	1.115761	0.202660	-0.330022
O16	O	1.615761	0.702660	0.169978
O17	O	1.345407	0.426348	-0.329993
O18	O	1.845407	0.926348	0.170007
O19	O	1.214820	0.202637	-0.426452
O20	O	1.714820	0.702637	0.073548
O21	O	1.115674	0.329953	-0.202736
O22	O	1.615674	0.829953	0.297264
O23	O	0.984984	0.329908	-0.329978
O24	O	1.484984	0.829908	0.170022
O25	O	1.115696	0.426269	-0.553645
O26	O	1.615696	0.926269	-0.053645
O27	O	0.984956	0.426299	-0.426375
O28	O	1.484956	0.926299	0.073625
O29	O	1.214783	0.329855	-0.553678
O30	O	1.714783	0.829855	-0.053678
O31	O	1.214630	0.553597	-0.329949
O32	O	1.714630	1.053597	0.170051
O33	O	1.115609	0.553563	-0.426358
O34	O	1.615609	1.053563	0.073642
C35	C	1.165127	0.582062	-0.378164
C36	C	1.665127	1.082062	0.121836
C37	C	1.165168	0.669312	-0.378177
C38	C	1.665168	1.169312	0.121823
C39	C	0.955714	0.378103	-0.378174
C40	C	1.455714	0.878103	0.121826
C41	C	0.866093	0.378117	-0.378183
C42	C	1.366093	0.878117	0.121817
C43	C	1.165245	0.378053	-0.582940
C44	C	1.665245	0.878053	-0.082940
C45	C	1.165263	0.378027	-0.670190
C46	C	1.665263	0.878027	-0.170190
C47	C	0.537917	0.378122	-0.378216
C48	C	1.037917	0.878122	0.121784
C49	C	0.629226	0.378118	-0.378205
C50	C	1.129226	0.878118	0.121795
C51	C	0.702002	0.378120	-0.378199
C52	C	1.202002	0.878120	0.121801
C53	C	0.793317	0.378115	-0.378188
C54	C	1.293317	0.878115	0.121812
C55	C	1.375514	0.378126	-0.378218
C56	C	1.875514	0.878126	0.121782
C57	C	1.465135	0.378131	-0.378228
C58	C	1.965135	0.878131	0.121772
C59	C	1.165305	0.173370	-0.378244
C60	C	1.665305	0.673370	0.121756
C61	C	1.165348	0.086120	-0.378265
C62	C	1.665348	0.586120	0.121735
C63	C	1.216781	0.710293	-0.328031
C64	C	1.716781	1.210293	0.171969
C65	C	1.216820	0.792274	-0.328051
C66	C	1.716820	1.292274	0.171949
C67	C	1.165242	0.833271	-0.378214
C68	C	1.665242	1.333271	0.121786
C69	C	1.113626	0.792283	-0.428366
C70	C	1.613626	1.292283	0.071634
C71	C	1.113592	0.710304	-0.428349
C72	C	1.613592	1.210304	0.071651
C73	C	1.113701	0.963153	-0.428395
C74	C	1.613701	1.463153	0.071605
C75	C	1.113735	1.045138	-0.428411
C76	C	1.613735	1.545138	0.071589
C77	C	1.216930	1.045123	-0.328097
C78	C	1.716930	1.545123	0.171903
C79	C	1.216895	0.963144	-0.328080
C80	C	1.716895	1.463144	0.171920
C81	C	1.165278	0.922162	-0.378232
C82	C	1.665278	1.422162	0.121768
C83	C	1.113733	0.327812	-0.711186
C84	C	1.613733	0.827812	-0.211186
C85	C	1.113746	0.327795	-0.793166
C86	C	1.613746	0.827795	-0.293166
C87	C	1.165294	0.377988	-0.834149
C88	C	1.665294	0.877988	-0.334149
C89	C	1.216826	0.428208	-0.793148
C90	C	1.716826	0.928208	-0.293148
C91	C	1.216808	0.428230	-0.711169
C92	C	1.716808	0.928230	-0.211169
C93	C	1.216861	0.428159	-0.964018
C94	C	1.716861	0.928159	-0.464018
C95	C	1.216880	0.428137	-1.046002
C96	C	1.716880	0.928137	-0.546002
C97	C	1.113799	0.327724	-1.046015
C98	C	1.613799	0.827724	-0.546015
C99	C	1.113781	0.327746	-0.964036
C100	C	1.613781	0.827746	-0.464036
C101	C	1.165314	0.377965	-0.923040
C102	C	1.665314	0.877965	-0.423040
C103	C	1.165211	0.378118	-0.174248
C104	C	1.665211	0.878118	0.325752
C105	C	1.165350	0.377923	-0.086998
C106	C	1.665350	0.877923	0.413002
H107	H	1.258778	0.676919	-0.287179
H108	H	1.758778	1.176919	0.212821
F109	F	1.271756	0.835886	-0.274680
F110	F	1.771756	1.335886	0.225320
F111	F	1.058871	0.274385	-0.667576
F112	F	1.558871	0.774385	-0.167576
F113	F	1.271706	0.481612	-0.920389
F114	F	1.771706	0.981612	-0.420389
H115	H	1.071750	1.078515	-0.469273
H116	H	1.571750	1.578515	0.030727
H117	H	1.071564	0.676938	-0.469184
H118	H	1.571564	1.176938	0.030816
F119	F	1.271789	0.919513	-0.274691
F120	F	1.771789	1.419513	0.225309
H121	H	1.258793	0.469081	-0.826522
H122	H	1.758793	0.969081	-0.326522
F123	F	1.058923	0.274319	-0.920421
F124	F	1.558923	0.774319	-0.420421
F125	F	1.271747	0.481555	-1.089618
F126	F	1.771747	0.981555	-0.589618
F127	F	1.058737	0.835918	-0.481758
F128	F	1.558737	1.335918	0.018242
F129	F	1.058871	0.274378	-0.836794
F130	F	1.558871	0.774378	-0.336794
F131	F	1.058953	0.274276	-1.089647
F132	F	1.558953	0.774276	-0.589647
H133	H	1.258960	1.078494	-0.287265
H134	H	1.758960	1.578494	0.212735
H135	H	1.071672	0.929788	-0.469237
H136	H	1.571672	1.429788	0.030763
H137	H	1.258775	0.469114	-0.677791
H138	H	1.758775	0.969114	-0.177791
