data_functionalizedCrystal
_audit_creation_method	'MofGen! by Chris Wilmer'
_symmetry_space_group_name_H-M	'P1'
_symmetry_Int_Tables_number	1
_symmetry_cell_setting	triclinic
loop_
_symmetry_equiv_pos_as_xyz
  x,y,z
_cell_length_a	12.594517
_cell_length_b	12.594516
_cell_length_c	16.120297
_cell_angle_alpha	92.877768
_cell_angle_beta	92.877094
_cell_angle_gamma	90.015485
loop_
_atom_site_label
_atom_site_type_symbol
_atom_site_fract_x
_atom_site_fract_y
_atom_site_fract_z
Zn1	Zn	1.596737	-0.454305	-0.471444
Zn2	Zn	2.096737	0.045695	0.028556
Zn3	Zn	1.605655	-0.623273	-0.332046
Zn4	Zn	2.105655	-0.123273	0.167954
Zn5	Zn	1.427768	-0.445307	-0.332044
Zn6	Zn	1.927768	0.054693	0.167956
Zn7	Zn	1.418726	-0.632238	-0.471409
Zn8	Zn	1.918726	-0.132238	0.028591
O9	O	1.512222	-0.538781	-0.401736
O10	O	2.012222	-0.038781	0.098264
O11	O	1.746865	-0.476733	-0.452968
O12	O	2.246865	0.023267	0.047032
O13	O	1.589575	-0.592149	-0.215382
O14	O	2.089575	-0.092149	0.284618
O15	O	1.450235	-0.297556	-0.350550
O16	O	1.950235	0.202444	0.149450
O17	O	1.753417	-0.600873	-0.350552
O18	O	2.253417	-0.100873	0.149448
O19	O	1.574375	-0.304166	-0.452967
O20	O	2.074375	0.195834	0.047033
O21	O	1.458882	-0.461398	-0.215381
O22	O	1.958882	0.038602	0.284619
O23	O	1.277624	-0.470090	-0.350516
O24	O	1.777624	0.029910	0.149484
O25	O	1.434823	-0.616151	-0.588077
O26	O	1.934823	-0.116151	-0.088077
O27	O	1.270980	-0.607427	-0.452907
O28	O	1.770980	-0.107427	0.047093
O29	O	1.565607	-0.485425	-0.588103
O30	O	2.065607	0.014575	-0.088103
O31	O	1.580807	-0.773407	-0.350518
O32	O	2.080807	-0.273407	0.149482
O33	O	1.443470	-0.779993	-0.452908
O34	O	1.943470	-0.279993	0.047092
C35	C	1.235683	-0.538756	-0.401708
C36	C	1.735683	-0.038756	0.098292
C37	C	1.117377	-0.538772	-0.401716
C38	C	1.617377	-0.038772	0.098284
C39	C	0.980934	-0.464005	-0.346153
C40	C	1.480934	0.035995	0.153847
C41	C	1.046867	-0.443006	-0.422227
C42	C	1.546867	0.056994	0.077773
C43	C	1.053015	-0.559724	-0.325650
C44	C	1.553015	-0.059724	0.174350
C45	C	0.972517	-0.517771	-0.477891
C46	C	1.472517	-0.017771	0.022109
C47	C	0.978663	-0.634531	-0.381263
C48	C	1.478663	-0.134531	0.118737
C49	C	1.044560	-0.613572	-0.457389
C50	C	1.544560	-0.113572	0.042611
C51	C	1.512152	-0.815321	-0.401728
C52	C	2.012152	-0.315321	0.098272
C53	C	1.512218	-0.933628	-0.401752
C54	C	2.012218	-0.433628	0.098248
C55	C	1.437517	-1.006500	-0.457402
C56	C	1.937517	-0.506500	0.042598
C57	C	1.416510	-1.072430	-0.381330
C58	C	1.916510	-0.572430	0.118670
C59	C	1.533322	-1.078497	-0.477838
C60	C	2.033322	-0.578497	0.022162
C61	C	1.491163	-0.997998	-0.325639
C62	C	1.991163	-0.497998	0.174361
C63	C	1.608016	-1.004062	-0.422198
C64	C	2.108016	-0.504062	0.077802
C65	C	1.587050	-1.069958	-0.346073
C66	C	2.087050	-0.569958	0.153927
C67	C	1.789841	-0.538807	-0.401764
C68	C	2.289841	-0.038807	0.098236
C69	C	1.908145	-0.538818	-0.401776
C70	C	2.408145	-0.038818	0.098224
C71	C	1.498211	-0.552792	-0.619185
C72	C	1.998211	-0.052792	-0.119185
C73	C	1.492241	-0.558762	-0.711849
C74	C	1.992241	-0.058762	-0.211849
C75	C	1.512319	-0.261162	-0.401762
C76	C	2.012319	0.238838	0.098238
C77	C	1.512360	-0.142857	-0.401773
C78	C	2.012360	0.357143	0.098227
C79	C	1.481302	-0.569639	-0.881507
C80	C	1.981302	-0.069639	-0.381507
C81	C	1.543351	-0.507603	-0.922816
C82	C	2.043351	-0.007603	-0.422816
C83	C	1.537265	-0.513655	-1.017220
C84	C	2.037265	-0.013655	-0.517220
C85	C	1.487387	-0.563589	-0.787095
C86	C	1.987387	-0.063589	-0.287095
C87	C	1.526239	-0.524748	-0.185132
C88	C	2.026239	-0.024748	0.314868
C89	C	1.532415	-0.518477	-0.092469
C90	C	2.032415	-0.018477	0.407531
H91	H	0.937447	-0.499975	-0.542263
H92	H	1.437447	0.000025	-0.042263
N93	N	1.615720	-0.435274	-0.878234
N94	N	2.115720	0.064726	-0.378234
N95	N	1.620624	-0.430397	-0.800498
N96	N	2.120624	0.069603	-0.300498
H97	H	1.671733	-0.379318	-0.769007
H98	H	2.171733	0.120682	-0.269007
N99	N	1.358133	-0.971397	-0.516353
N100	N	1.858133	-0.471397	-0.016353
N101	N	1.262538	-0.993708	-0.508621
N102	N	1.762538	-0.493708	-0.008621
H103	H	1.206471	-0.968916	-0.550251
H104	H	1.706471	-0.468916	-0.050251
N105	N	1.408933	-0.641958	-0.926088
N106	N	1.908933	-0.141958	-0.426088
N107	N	1.404036	-0.646829	-1.003825
N108	N	1.904036	-0.146829	-0.503825
H109	H	1.352928	-0.697904	-1.035320
H110	H	1.852928	-0.197904	-0.535320
H111	H	1.688944	-0.973969	-0.439511
H112	H	2.188944	-0.473969	0.060489
H113	H	0.952879	-0.400716	-0.299198
H114	H	1.452879	0.099284	0.200802
N115	N	1.079495	-0.692918	-0.516439
N116	N	1.579495	-0.192918	-0.016439
N117	N	1.051784	-0.688176	-0.591709
N118	N	1.551784	-0.188176	-0.091709
H119	H	1.076457	-0.744210	-0.633416
H120	H	1.576457	-0.244210	-0.133416
N121	N	1.314951	-1.110146	-0.359644
N122	N	1.814951	-0.610146	0.140356
N123	N	1.233636	-1.090387	-0.403812
N124	N	1.733636	-0.590387	0.096188
H125	H	1.161907	-1.117019	-0.388502
H126	H	1.661907	-0.617019	0.111498
H127	H	0.948640	-0.715468	-0.363910
H128	H	1.448640	-0.215468	0.136090
H129	H	1.473277	-0.962928	-0.261285
H130	H	1.973277	-0.462928	0.238715
N131	N	1.084493	-0.341442	-0.443979
N132	N	1.584493	0.158558	0.056021
N133	N	1.019875	-0.268707	-0.458925
N134	N	1.519875	0.231293	0.041075
H135	H	1.046444	-0.196975	-0.474283
H136	H	1.546444	0.303025	0.025717
N137	N	1.097187	-0.581910	-0.244919
N138	N	1.597187	-0.081910	0.255081
N139	N	1.078440	-0.521350	-0.183599
N140	N	1.578440	-0.021350	0.316401
H141	H	1.109639	-0.537006	-0.126582
H142	H	1.609639	-0.037006	0.373418
H143	H	1.650287	-1.097741	-0.298966
H144	H	2.150287	-0.597741	0.201034
H145	H	1.551114	-1.113694	-0.542174
H146	H	2.051114	-0.613694	-0.042174
