data_functionalizedCrystal
_audit_creation_method	'MofGen! by Chris Wilmer'
_symmetry_space_group_name_H-M	'P1'
_symmetry_Int_Tables_number	1
_symmetry_cell_setting	triclinic
loop_
_symmetry_equiv_pos_as_xyz
  x,y,z
_cell_length_a	12.759394
_cell_length_b	10.685972
_cell_length_c	10.686551
_cell_angle_alpha	81.590232
_cell_angle_beta	94.406554
_cell_angle_gamma	85.620378
loop_
_atom_site_label
_atom_site_type_symbol
_atom_site_fract_x
_atom_site_fract_y
_atom_site_fract_z
Zn1	Zn	-0.235538	-1.995792	0.866748
Zn2	Zn	-0.425868	-1.979370	0.654481
Zn3	Zn	-0.264773	-1.767219	0.638207
Zn4	Zn	-0.425761	-1.783493	0.850387
O5	O	-0.337985	-1.881468	0.752456
O6	O	-0.248596	-2.171247	0.852249
O7	O	-0.416778	-1.937544	0.474690
O8	O	-0.113868	-1.797601	0.668559
O9	O	-0.388430	-2.159182	0.696297
O10	O	-0.092389	-1.965533	0.836467
O11	O	-0.298423	-1.781677	0.462733
O12	O	-0.298319	-1.591744	0.652695
O13	O	-0.388247	-1.825339	1.030190
O14	O	-0.416595	-1.603700	0.808583
O15	O	-0.248492	-1.981314	1.042210
O16	O	-0.572881	-1.953324	0.680433
O17	O	-0.572802	-1.809414	0.824364
C18	C	-0.360619	-1.551664	0.727098
C19	C	-0.370325	-1.410574	0.716280
C20	C	-0.610960	-1.881390	0.752419
C21	C	-0.727729	-1.881475	0.752455
C22	C	-0.727741	-2.031460	0.602711
C23	C	-0.782604	-2.106486	0.527856
C24	C	-0.892318	-2.106563	0.527896
C25	C	-0.947171	-2.031609	0.602802
C26	C	-0.892308	-1.956582	0.677657
C27	C	-0.782591	-1.956511	0.677605
C28	C	-0.892295	-1.806607	0.827406
C29	C	-0.782582	-1.806521	0.827361
C30	C	-0.947148	-1.731652	0.902312
C31	C	-0.892285	-1.656617	0.977162
C32	C	-0.782564	-1.656542	0.977117
C33	C	-0.727718	-1.731495	0.902216
C34	C	-0.063940	-1.881584	0.752523
C35	C	0.052842	-1.881633	0.752551
C36	C	-0.315096	-1.906973	1.083546
C37	C	-0.305342	-1.917842	1.224637
C38	C	-0.315257	-1.212560	0.777907
C39	C	-0.305555	-1.353651	0.788738
C40	C	-0.360704	-1.856135	0.422659
C41	C	-0.370145	-1.845513	0.281588
H42	H	-0.433206	-1.351363	0.645959
H43	H	-0.433090	-1.775277	1.222407
C44	C	-0.220604	-1.433631	0.883730
N45	N	-0.156618	-1.493881	0.955281
C46	C	-0.220302	-2.012738	1.304592
N47	N	-0.156249	-2.084210	1.364814
H48	H	-0.638408	-2.031387	0.602653
H49	H	-0.737933	-2.167516	0.466871
H50	H	-0.936987	-2.167663	0.466950
H51	H	-1.036505	-2.031690	0.602840
H52	H	-1.036482	-1.731726	0.902345
H53	H	-0.638384	-1.731432	0.902163
C54	C	-0.952630	-1.574174	1.059547
N55	N	-0.998086	-1.512072	1.121596
H56	H	-0.737899	-1.595452	1.038078
