data_functionalizedCrystal
_audit_creation_method	'MofGen! by Chris Wilmer'
_symmetry_space_group_name_H-M	'P1'
_symmetry_Int_Tables_number	1
_symmetry_cell_setting	triclinic
loop_
_symmetry_equiv_pos_as_xyz
  x,y,z
_cell_length_a	15.995350
_cell_length_b	13.339070
_cell_length_c	12.376457
_cell_angle_alpha	104.398083
_cell_angle_beta	78.710333
_cell_angle_gamma	99.560835
loop_
_atom_site_label
_atom_site_type_symbol
_atom_site_fract_x
_atom_site_fract_y
_atom_site_fract_z
O1	O	-1.152819	-0.111027	0.093902
O2	O	-0.912787	-0.127125	0.093925
O3	O	-1.005255	0.028188	0.093913
O4	O	-1.060352	-0.266339	0.093914
O5	O	-0.982137	-0.010588	-0.094096
O6	O	-0.889670	-0.165900	-0.094084
O7	O	-1.129701	-0.149802	-0.094107
Zn8	Zn	-1.006015	-0.164007	-0.123946
Zn9	Zn	-1.036474	-0.112919	0.123764
O10	O	-1.037234	-0.305114	-0.094095
C11	C	-0.869879	-0.145846	-0.000077
C12	C	-0.776467	-0.143848	-0.000068
C13	C	-1.172610	-0.131080	-0.000103
C14	C	-1.266023	-0.133076	-0.000104
C15	C	-0.984389	0.046490	-0.000089
C16	C	-0.956649	0.158793	-0.000082
C17	C	-0.437051	-0.136686	-0.000092
C18	C	-0.458736	-0.026160	-0.000512
C19	C	-0.555943	-0.028067	-0.000080
C20	C	-0.605439	-0.140239	-0.000081
C21	C	-0.590227	-0.172655	0.107278
C22	C	-0.492956	-0.169859	0.107360
C23	C	-0.466859	-0.216239	-0.106442
C24	C	-0.563625	-0.216504	-0.107853
C25	C	-0.700606	-0.142252	-0.000071
C26	C	-0.341886	-0.134675	-0.000094
C27	C	-1.058100	-0.323416	-0.000090
C28	C	-1.085841	-0.435718	-0.000090
N29	N	-0.985234	-0.198873	-0.293002
C30	C	-1.172350	0.523582	-0.000103
C31	C	-1.198415	0.418066	-0.000116
C32	C	-1.137976	0.353243	-0.000107
C33	C	-1.051467	0.393945	-0.000086
C34	C	-1.025397	0.499469	-0.000082
C35	C	-0.991023	0.329130	-0.000086
C36	C	-0.904514	0.369832	-0.000065
C37	C	-0.878449	0.475346	-0.000060
C38	C	-0.938889	0.540170	-0.000069
C39	C	-1.017093	0.223606	-0.000090
C40	C	-0.870140	0.199494	-0.000069
C41	C	-0.844075	0.305009	-0.000056
C42	C	-1.105495	0.002908	-0.648002
C43	C	-1.120035	0.027311	-0.529664
C44	C	-1.086336	-0.029233	-0.470493
C45	C	-1.038094	-0.110184	-0.529671
C46	C	-1.023558	-0.134594	-0.648021
C47	C	-1.004399	-0.166735	-0.470511
C48	C	-0.956158	-0.247686	-0.529689
C49	C	-0.941624	-0.272092	-0.648027
C50	C	-0.975323	-0.215548	-0.707199
C51	C	-1.018935	-0.142325	-0.352162
C52	C	-0.936999	-0.279827	-0.352180
C53	C	-0.922458	-0.304229	-0.470518
N54	N	-1.057260	-0.078046	0.292820
H55	H	-0.564946	-0.001054	-0.077039
H56	H	-1.087529	0.190477	-0.000108
H57	H	-0.808007	0.508480	-0.000051
N58	N	-1.164597	0.245458	-0.000136
N59	N	-1.199282	0.187401	-0.079398
H60	H	-1.218087	0.111275	-0.079417
H61	H	-0.963482	-0.235413	-0.803559
N62	N	-1.234082	0.589797	-0.000095
N63	N	-1.295936	0.602437	0.079149
H64	H	-1.339540	0.649203	0.079154
H65	H	-0.571923	-0.193057	-0.187276
N66	N	-0.632596	-0.274991	0.112311
N67	N	-0.688809	-0.288245	0.194932
H68	H	-0.718735	-0.360520	0.198486
N69	N	-0.470747	-0.099174	0.208016
N70	N	-0.395026	-0.084326	0.226273
H71	H	-0.379342	-0.034400	0.297362
N72	N	-0.476922	-0.270461	0.113516
N73	N	-0.445418	-0.280239	0.194582
H74	H	-0.434100	-0.351287	0.198941
H75	H	-0.597196	-0.299640	-0.114338
H76	H	-0.902351	-0.338014	-0.696210
H77	H	-0.820924	0.146713	-0.000068
N78	N	-0.755711	0.346607	-0.000055
N79	N	-0.715033	0.386460	-0.079301
H80	H	-0.652626	0.415841	-0.079303
N81	N	-1.286778	0.376508	-0.000141
N82	N	-1.340734	0.434393	-0.000148
H83	H	-1.403146	0.405044	-0.000165
H84	H	-0.619623	-0.118283	0.187176
N85	N	-0.912278	0.647960	-0.000041
N86	N	-0.966255	0.705822	-0.000035
H87	H	-0.947465	0.781952	-0.000013
H88	H	-0.427916	-0.196860	-0.187817
H89	H	-1.058214	-0.076415	-0.303989
N90	N	-1.101200	-0.004301	-0.349614
N91	N	-1.144275	0.067975	-0.296791
H92	H	-1.154775	0.085589	-0.211415
N93	N	-0.873181	-0.386910	-0.530990
N94	N	-0.860209	-0.408686	-0.636652
H95	H	-0.825406	-0.467078	-0.679364
N96	N	-0.450670	-0.318731	-0.107342
N97	N	-0.417330	-0.333259	-0.030081
H98	H	-0.405892	-0.405639	-0.030708
H99	H	-1.159313	0.093219	-0.481486
N100	N	-1.139930	0.060626	-0.708461
N101	N	-1.126958	0.038806	-0.814123
H102	H	-1.151286	0.079567	-0.856825
N103	N	-0.902586	-0.337607	-0.291753
N104	N	-0.951854	-0.386800	-0.225713
H105	H	-0.927556	-0.427607	-0.183030
N106	N	-0.410748	0.009321	-0.097141
N107	N	-0.330471	0.020777	-0.111837
H108	H	-0.296581	0.045812	-0.180103
N109	N	-0.433115	0.048866	0.095519
N110	N	-0.356124	0.065424	0.108707
H111	H	-0.338024	0.118408	0.176530
N112	N	-0.590194	0.046042	0.096636
N113	N	-0.542296	0.099330	0.164031
H114	H	-0.566485	0.151673	0.232343
