data_functionalizedCrystal
_audit_creation_method	'MofGen! by Chris Wilmer'
_symmetry_space_group_name_H-M	'P1'
_symmetry_Int_Tables_number	1
_symmetry_cell_setting	triclinic
loop_
_symmetry_equiv_pos_as_xyz
  x,y,z
_cell_length_a	18.050589
_cell_length_b	16.120530
_cell_length_c	18.050582
_cell_angle_alpha	87.088397
_cell_angle_beta	89.981795
_cell_angle_gamma	87.123928
loop_
_atom_site_label
_atom_site_type_symbol
_atom_site_fract_x
_atom_site_fract_y
_atom_site_fract_z
Zn1	Zn	-0.353358	1.274469	-0.477436
Zn2	Zn	-0.020024	1.607802	-0.144103
Zn3	Zn	0.313309	1.941136	0.189231
Zn4	Zn	-0.477536	1.274369	-0.353251
Zn5	Zn	-0.144203	1.607702	-0.019918
Zn6	Zn	0.189130	1.941035	0.313416
Zn7	Zn	-0.347063	1.135065	-0.346971
Zn8	Zn	-0.013730	1.468398	-0.013637
Zn9	Zn	0.319603	1.801731	0.319696
Zn10	Zn	-0.471202	1.135006	-0.471112
Zn11	Zn	-0.137868	1.468340	-0.137778
Zn12	Zn	0.195465	1.801673	0.195555
O13	O	-0.412290	1.204727	-0.412192
O14	O	-0.078956	1.538060	-0.078859
O15	O	0.254377	1.871394	0.254474
O16	O	-0.375115	1.391120	-0.466238
O17	O	-0.041782	1.724454	-0.132904
O18	O	0.291551	2.057787	0.200429
O19	O	-0.460246	1.255872	-0.248492
O20	O	-0.126912	1.589205	0.084841
O21	O	0.206421	1.922539	0.418174
O22	O	-0.243977	1.153623	-0.364295
O23	O	0.089357	1.486957	-0.030962
O24	O	0.422690	1.820290	0.302371
O25	O	-0.466349	1.391047	-0.374999
O26	O	-0.133016	1.724380	-0.041666
O27	O	0.200318	2.057713	0.291667
O28	O	-0.248601	1.256043	-0.460148
O29	O	0.084732	1.589376	-0.126815
O30	O	0.418066	1.922710	0.206519
O31	O	-0.364388	1.153526	-0.243878
O32	O	-0.031054	1.486859	0.089455
O33	O	0.302279	1.820193	0.422788
O34	O	-0.358245	1.018392	-0.358163
O35	O	-0.024912	1.351726	-0.024830
O36	O	0.308422	1.685059	0.308504
O37	O	-0.455552	1.153524	-0.575876
O38	O	-0.122219	1.486857	-0.242543
O39	O	0.211114	1.820191	0.090791
O40	O	-0.449449	1.018349	-0.449369
O41	O	-0.116116	1.351683	-0.116036
O42	O	0.217218	1.685016	0.217298
O43	O	-0.368973	1.255986	-0.580523
O44	O	-0.035640	1.589320	-0.247189
O45	O	0.297694	1.922653	0.086144
O46	O	-0.580618	1.255816	-0.368867
O47	O	-0.247284	1.589149	-0.035534
O48	O	0.086049	1.922482	0.297800
O49	O	-0.575964	1.153427	-0.455459
O50	O	-0.242630	1.486760	-0.122126
O51	O	0.090703	1.820093	0.211208
C52	C	-0.402477	0.988121	-0.402399
C53	C	-0.069144	1.321454	-0.069065
C54	C	0.264189	1.654788	0.264268
C55	C	-0.398297	0.895456	-0.398227
C56	C	-0.064964	1.228789	-0.064893
C57	C	0.268369	1.562122	0.268440
C58	C	-0.390648	0.725795	-0.390616
C59	C	-0.057315	1.059129	-0.057282
C60	C	0.276018	1.392462	0.276051
C61	C	-0.433986	0.684499	-0.433823
C62	C	-0.100652	1.017833	-0.100490
C63	C	0.232681	1.351166	0.232844
C64	C	-0.429730	0.590094	-0.429588
C65	C	-0.096396	0.923428	-0.096255
C66	C	0.236937	1.256761	0.237078
C67	C	-0.394903	0.820209	-0.394849
C68	C	-0.061570	1.153542	-0.061516
C69	C	0.271763	1.486875	0.271817
C70	C	-0.605237	1.204626	-0.412175
C71	C	-0.271904	1.537960	-0.078842
C72	C	0.061429	1.871293	0.254491
C73	C	-0.687785	1.204660	-0.412197
C74	C	-0.354451	1.537993	-0.078863
C75	C	-0.021118	1.871326	0.254470
C76	C	-0.884734	1.149035	-0.459270
C77	C	-0.551400	1.482369	-0.125937
C78	C	-0.218067	1.815702	0.207396
C79	C	-0.933249	1.128719	-0.390586
C80	C	-0.599915	1.462052	-0.057253
C81	C	-0.266582	1.795385	0.276080
C82	C	-0.838919	1.204742	-0.412210
C83	C	-0.505585	1.538075	-0.078877
C84	C	-0.172252	1.871408	0.254457
C85	C	-0.937487	1.225099	-0.480903
C86	C	-0.604154	1.558432	-0.147570
C87	C	-0.270820	1.891766	0.185763
C88	C	-0.984907	1.204819	-0.412229
C89	C	-0.651574	1.538152	-0.078895
C90	C	-0.318240	1.871486	0.254438
C91	C	-0.886344	1.184385	-0.343488
C92	C	-0.553011	1.517718	-0.010155
C93	C	-0.219678	1.851052	0.323178
C94	C	-0.890580	1.280801	-0.433853
C95	C	-0.557247	1.614134	-0.100519
C96	C	-0.223914	1.947467	0.232814
C97	C	-0.939074	1.260513	-0.365123
C98	C	-0.605741	1.593846	-0.031790
C99	C	-0.272407	1.927180	0.301543
C100	C	-0.754818	1.204695	-0.412200
C101	C	-0.421485	1.538028	-0.078867
C102	C	-0.088152	1.871361	0.254467
C103	C	-1.069006	1.204866	-0.412231
C104	C	-0.735672	1.538199	-0.078898
C105	C	-0.402339	1.871533	0.254436
C106	C	-0.218590	1.204851	-0.412227
C107	C	0.114744	1.538184	-0.078893
C108	C	0.448077	1.871518	0.254440
C109	C	-0.136046	1.204904	-0.412241
C110	C	0.197287	1.538237	-0.078908
C111	C	0.530620	1.871570	0.254426
C112	C	-0.412258	1.204760	-0.605899
C113	C	-0.078925	1.538093	-0.272566
C114	C	0.254408	1.871426	0.060767
C115	C	-0.412245	1.204774	-0.688446
C116	C	-0.078911	1.538107	-0.355113
C117	C	0.254422	1.871440	-0.021779
C118	C	-0.422141	1.422179	-0.422025
C119	C	-0.088808	1.755513	-0.088691
C120	C	0.244526	2.088846	0.244642
C121	C	-0.426339	1.514844	-0.426215
C122	C	-0.093006	1.848178	-0.092881
C123	C	0.240328	2.181511	0.240452
C124	C	-0.459261	1.149097	-0.885372
C125	C	-0.125928	1.482431	-0.552039
C126	C	0.207406	1.815764	-0.218705
C127	C	-0.480855	1.225159	-0.938196
C128	C	-0.147522	1.558492	-0.604863
C129	C	0.185812	1.891825	-0.271530
C130	C	-0.412190	1.204815	-0.839578
C131	C	-0.078857	1.538148	-0.506245
C132	C	0.254477	1.871482	-0.172912
C133	C	-0.390577	1.128795	-0.933837
C134	C	-0.057244	1.462129	-0.600504
C135	C	0.276090	1.795462	-0.267171
C136	C	-0.412138	1.204848	-0.985565
C137	C	-0.078805	1.538181	-0.652232
C138	C	0.254529	1.871515	-0.318898
C139	C	-0.433821	1.280916	-0.891317
C140	C	-0.100488	1.614249	-0.557984
C141	C	0.232845	1.947583	-0.224651
C142	C	-0.343510	1.184501	-0.886952
C143	C	-0.010176	1.517835	-0.553618
C144	C	0.323157	1.851168	-0.220285
C145	C	-0.365080	1.260615	-0.939756
C146	C	-0.031747	1.593949	-0.606423
C147	C	0.301586	1.927282	-0.273090
C148	C	-0.412222	1.204795	-0.755479
C149	C	-0.078888	1.538128	-0.422146
C150	C	0.254445	1.871461	-0.088812
C151	C	-0.412107	1.204877	-1.069663
C152	C	-0.078773	1.538210	-0.736329
C153	C	0.254560	1.871543	-0.402996
C154	C	-0.412270	1.204743	-0.219241
C155	C	-0.078936	1.538076	0.114092
C156	C	0.254397	1.871409	0.447426
C157	C	-0.412081	1.204890	-0.136702
C158	C	-0.078748	1.538224	0.196631
C159	C	0.254586	1.871557	0.529964
H160	H	-0.474283	0.720045	-0.473995
H161	H	-0.140949	1.053378	-0.140662
H162	H	0.192384	1.386711	0.192671
Cl163	Cl	-0.851847	1.157735	-0.253777
Cl164	Cl	-0.518514	1.491069	0.079556
Cl165	Cl	-0.185180	1.824402	0.412890
H166	H	-0.538915	1.242360	-0.960676
H167	H	-0.205582	1.575693	-0.627342
H168	H	0.127752	1.909027	-0.294009
Cl169	Cl	-0.328436	0.670919	-0.328596
Cl170	Cl	0.004897	1.004252	0.004737
Cl171	Cl	0.338231	1.337586	0.338070
Cl172	Cl	-0.848015	1.076200	-0.520619
Cl173	Cl	-0.514681	1.409534	-0.187286
Cl174	Cl	-0.181348	1.742867	0.146048
Cl175	Cl	-0.520803	1.076418	-0.848632
Cl176	Cl	-0.187470	1.409752	-0.515299
Cl177	Cl	0.145864	1.743085	-0.181966
Cl178	Cl	-0.861441	1.380029	-0.462140
Cl179	Cl	-0.528108	1.713362	-0.128806
Cl180	Cl	-0.194774	2.046696	0.204527
H181	H	-0.452145	1.345238	-0.872618
H182	H	-0.118812	1.678571	-0.539285
H183	H	0.214521	2.011904	-0.205951
Cl184	Cl	-0.962359	1.029464	-0.362328
Cl185	Cl	-0.629026	1.362798	-0.028995
Cl186	Cl	-0.295692	1.696131	0.304339
H187	H	-0.962716	1.307655	-0.325286
H188	H	-0.629383	1.640989	0.008048
H189	H	-0.296050	1.974322	0.341381
H190	H	-0.959920	1.242287	-0.538989
H191	H	-0.626587	1.575620	-0.205656
H192	H	-0.293254	1.908953	0.127677
Cl193	Cl	-0.303593	1.333465	-0.976295
Cl194	Cl	0.029741	1.666799	-0.642962
Cl195	Cl	0.363074	2.000132	-0.309628
Cl196	Cl	-0.253893	1.157910	-0.852215
Cl197	Cl	0.079440	1.491243	-0.518881
Cl198	Cl	0.412774	1.824577	-0.185548
H199	H	-0.372319	1.064493	-0.952629
H200	H	-0.038986	1.397826	-0.619296
H201	H	0.294348	1.731159	-0.285962
