data_functionalizedCrystal
_audit_creation_method	'MofGen! by Chris Wilmer'
_symmetry_space_group_name_H-M	'P1'
_symmetry_Int_Tables_number	1
_symmetry_cell_setting	triclinic
loop_
_symmetry_equiv_pos_as_xyz
  x,y,z
_cell_length_a	16.959455
_cell_length_b	16.120484
_cell_length_c	16.959447
_cell_angle_alpha	87.133411
_cell_angle_beta	90.017322
_cell_angle_gamma	92.924951
loop_
_atom_site_label
_atom_site_type_symbol
_atom_site_fract_x
_atom_site_fract_y
_atom_site_fract_z
Zn1	Zn	1.192418	-0.331902	0.462856
Zn2	Zn	1.185618	-0.471331	0.337374
Zn3	Zn	1.060239	-0.331935	0.330695
Zn4	Zn	1.053498	-0.471274	0.469509
O5	O	1.122943	-0.401611	0.400108
O6	O	1.302126	-0.350408	0.446222
O7	O	1.168962	-0.452877	0.225879
O8	O	1.083439	-0.215265	0.342647
O9	O	1.297131	-0.452845	0.354031
O10	O	1.180550	-0.215241	0.439745
O11	O	1.076846	-0.350463	0.220971
O12	O	0.948734	-0.350408	0.349097
O13	O	1.071950	-0.452749	0.579236
O14	O	0.943782	-0.452781	0.451084
O15	O	1.174014	-0.350353	0.574348
O16	O	1.162426	-0.587989	0.360481
O17	O	1.065357	-0.587947	0.457560
C18	C	0.917578	-0.401592	0.400088
C19	C	0.829721	-0.401605	0.400099
C20	C	0.785847	-0.454863	0.352024
C21	C	0.791040	-0.348353	0.448181
C22	C	0.708494	-0.348359	0.448191
C23	C	0.664620	-0.401618	0.400115
C24	C	0.703294	-0.454870	0.352030
C25	C	0.669815	-0.295102	0.496269
C26	C	0.587263	-0.295106	0.496280
C27	C	0.543389	-0.348370	0.448208
C28	C	0.582067	-0.401624	0.400122
C29	C	0.538194	-0.454883	0.352047
C30	C	0.576870	-0.508143	0.303964
C31	C	0.659419	-0.508133	0.303958
C32	C	0.460840	-0.348379	0.448214
C33	C	0.455640	-0.454889	0.352053
C34	C	1.112444	-0.618218	0.410485
C35	C	1.108024	-0.710884	0.414950
C36	C	1.099960	-0.880545	0.423119
C37	C	1.146068	-0.921835	0.377111
C38	C	1.141581	-1.016241	0.381656
C39	C	1.104446	-0.786131	0.418575
C40	C	1.329110	-0.401629	0.400129
C41	C	1.416967	-0.401637	0.400138
C42	C	1.122989	-0.401541	0.606273
C43	C	1.123008	-0.401512	0.694129
C44	C	1.133505	-0.184157	0.389709
C45	C	1.138006	-0.091491	0.385277
C46	C	1.122946	-0.401619	0.194743
C47	C	1.123091	-0.401414	0.106877
C48	C	1.075122	-0.348102	1.063051
C49	C	1.171043	-0.454746	1.068149
C50	C	1.171028	-0.454766	0.985604
C51	C	1.123059	-0.401453	0.941779
C52	C	1.075104	-0.348121	0.980499
C53	C	1.218976	-0.508102	0.946878
C54	C	1.218963	-0.508125	0.864328
C55	C	1.170997	-0.454807	0.820501
C56	C	1.123041	-0.401473	0.859226
C57	C	1.075071	-0.348160	0.815401
C58	C	1.027119	-0.294821	0.854124
C59	C	1.027138	-0.294804	0.936672
C60	C	1.170978	-0.454824	0.737954
C61	C	1.075053	-0.348180	0.732849
H62	H	0.419924	-0.498263	0.312907
O63	O	1.023420	-0.290561	1.104816
H64	H	0.981395	-0.327847	1.144208
O65	O	0.717133	-0.237656	0.548113
H66	H	0.752943	-0.275015	0.590065
H67	H	1.057120	-0.916094	0.465918
H68	H	0.988096	-0.251379	0.968208
O69	O	0.529548	-0.565583	0.252108
H70	H	0.465651	-0.556636	0.260195
O71	O	0.545548	-0.237670	0.548141
H72	H	0.589925	-0.200639	0.581572
H73	H	1.258008	-0.551558	0.832807
H74	H	1.035994	-0.304762	0.697171
O75	O	0.975383	-0.237316	0.806854
H76	H	0.983433	-0.246293	0.742949
O77	O	0.419119	-0.290940	0.500062
H78	H	0.434285	-0.305311	0.562767
O79	O	1.202819	-0.874754	0.320407
H80	H	1.197477	-0.806918	0.325684
O81	O	1.222695	-0.512341	0.696184
H82	H	1.256056	-0.549407	0.740527
H83	H	1.210091	-0.498157	1.103836
O84	O	1.270712	-0.565602	0.994142
H85	H	1.262675	-0.556619	1.058047
H86	H	0.817341	-0.498228	0.312878
O87	O	0.701131	-0.565563	0.252089
H88	H	0.765904	-0.556600	0.260153
H89	H	0.826766	-0.304988	0.487318
