data_functionalizedCrystal
_audit_creation_method	'MofGen! by Chris Wilmer'
_symmetry_space_group_name_H-M	'P1'
_symmetry_Int_Tables_number	1
_symmetry_cell_setting	triclinic
loop_
_symmetry_equiv_pos_as_xyz
  x,y,z
_cell_length_a	19.121063
_cell_length_b	19.121274
_cell_length_c	19.120915
_cell_angle_alpha	94.963843
_cell_angle_beta	85.261346
_cell_angle_gamma	90.075254
loop_
_atom_site_label
_atom_site_type_symbol
_atom_site_fract_x
_atom_site_fract_y
_atom_site_fract_z
Zn1	Zn	-0.339806	-1.043481	0.367080
Zn2	Zn	0.160194	-0.543481	0.867080
Zn3	Zn	-0.452456	-1.043398	0.254435
Zn4	Zn	0.047544	-0.543398	0.754435
Zn5	Zn	-0.330220	-0.931277	0.254024
Zn6	Zn	0.169780	-0.431277	0.754024
Zn7	Zn	-0.452410	-0.920766	0.377072
Zn8	Zn	0.047590	-0.420766	0.877072
O9	O	-0.393723	-0.984730	0.313152
O10	O	0.106277	-0.484730	0.813152
O11	O	-0.358781	-1.141750	0.348128
O12	O	0.141219	-0.641750	0.848128
O13	O	-0.432248	-1.032889	0.155742
O14	O	0.067752	-0.532889	0.655742
O15	O	-0.233210	-0.950594	0.264667
O16	O	0.266790	-0.450594	0.764667
O17	O	-0.441544	-1.141689	0.265368
O18	O	0.058456	-0.641689	0.765368
O19	O	-0.240254	-1.033030	0.347729
O20	O	0.259746	-0.533030	0.847729
O21	O	-0.342442	-0.950514	0.155440
O22	O	0.157558	-0.450514	0.655440
O23	O	-0.342397	-0.831603	0.274356
O24	O	0.157603	-0.331603	0.774356
O25	O	-0.441465	-0.932680	0.474385
O26	O	0.058535	-0.432680	0.974385
O27	O	-0.432170	-0.823881	0.364758
O28	O	0.067830	-0.323881	0.864758
O29	O	-0.358736	-1.022838	0.467044
O30	O	0.141264	-0.522838	0.967044
O31	O	-0.550731	-1.022697	0.275056
O32	O	-0.050731	-0.522697	0.775056
O33	O	-0.550697	-0.932600	0.365157
O34	O	-0.050697	-0.432600	0.865157
C35	C	-0.386239	-0.802259	0.320597
C36	C	0.113761	-0.302259	0.820597
C37	C	-0.383055	-0.724195	0.323799
C38	C	0.116945	-0.224195	0.823799
C39	C	-0.424573	-0.687492	0.282145
C40	C	0.075427	-0.187492	0.782145
C41	C	-0.421582	-0.614143	0.285163
C42	C	0.078418	-0.114143	0.785163
C43	C	-0.377068	-0.577498	0.329833
C44	C	0.122932	-0.077498	0.829833
C45	C	-0.335548	-0.614206	0.371492
C46	C	0.164452	-0.114206	0.871492
C47	C	-0.338543	-0.687553	0.368477
C48	C	0.161457	-0.187553	0.868477
C49	C	-0.365875	-0.356036	0.341099
C50	C	0.134125	0.143964	0.841099
C51	C	-0.362882	-0.282683	0.344109
C52	C	0.137118	0.217317	0.844109
C53	C	-0.448917	-0.282625	0.257781
C54	C	0.051083	0.217375	0.757781
C55	C	-0.451905	-0.355975	0.254766
C56	C	0.048095	0.144025	0.754766
C57	C	-0.410388	-0.392676	0.296428
C58	C	0.089612	0.107324	0.796428
C59	C	-0.374008	-0.502523	0.332917
C60	C	0.125992	-0.002523	0.832917
C61	C	-0.413452	-0.467649	0.293347
C62	C	0.086548	0.032351	0.793347
C63	C	-0.576198	-0.976517	0.321250
C64	C	-0.076198	-0.476517	0.821250
C65	C	-0.654266	-0.973067	0.324735
C66	C	-0.154266	-0.473067	0.824735
C67	C	-0.690939	-1.018388	0.279498
C68	C	-0.190939	-0.518388	0.779498
C69	C	-0.764292	-1.015147	0.282779
C70	C	-0.264292	-0.515147	0.782779
C71	C	-0.800970	-0.966581	0.331296
C72	C	-0.300970	-0.466581	0.831296
C73	C	-0.764291	-0.921258	0.376538
C74	C	-0.264291	-0.421258	0.876538
C75	C	-0.690940	-0.924503	0.373259
C76	C	-0.190940	-0.424503	0.873259
C77	C	-1.022444	-0.954438	0.343544
C78	C	-0.522444	-0.454438	0.843544
C79	C	-1.095800	-0.951195	0.346818
C80	C	-0.595800	-0.451195	0.846818
C81	C	-1.095795	-1.045085	0.253059
C82	C	-0.595795	-0.545085	0.753059
C83	C	-1.022442	-1.048323	0.249782
C84	C	-0.522442	-0.548323	0.749782
C85	C	-0.985771	-1.003002	0.295027
C86	C	-0.485771	-0.503002	0.795027
C87	C	-0.875948	-0.963265	0.334650
C88	C	-0.375948	-0.463265	0.834650
C89	C	-0.910794	-1.006322	0.291676
C90	C	-0.410794	-0.506322	0.791676
C91	C	-0.210536	-0.992994	0.305038
C92	C	0.289464	-0.492994	0.805038
C93	C	-0.132473	-0.996516	0.301580
C94	C	0.367527	-0.496516	0.801580
C95	C	-0.401165	-0.976596	0.497005
C96	C	0.098835	-0.476596	0.997005
C97	C	-0.404337	-0.973130	0.575353
C98	C	0.095663	-0.473130	1.075353
C99	C	-0.401227	-0.167915	0.305669
C100	C	0.098773	0.332085	0.805669
C101	C	-0.404400	-0.245980	0.302454
C102	C	0.095600	0.254020	0.802454
C103	C	-0.386261	-0.992876	0.130011
C104	C	0.113739	-0.492876	0.630011
C105	C	-0.382897	-0.996487	0.051650
C106	C	0.117103	-0.496487	0.551650
C107	C	-0.424473	-0.951175	1.018662
C108	C	0.075527	-0.451175	1.518662
C109	C	-0.421483	-0.954430	0.945046
C110	C	0.078517	-0.454430	1.445046
C111	C	-0.376919	-1.003001	0.904419
C112	C	0.123081	-0.503001	1.404419
C113	C	-0.335338	-1.048315	0.937413
C114	C	0.164662	-0.548315	1.437413
C115	C	-0.338325	-1.045056	1.011027
C116	C	0.161675	-0.545056	1.511027
C117	C	-0.365742	-1.015185	0.681960
C118	C	0.134258	-0.515185	1.181960
C119	C	-0.362760	-1.018442	0.608341
C120	C	0.137240	-0.518442	1.108341
C121	C	-0.448904	-0.924555	0.615979
C122	C	0.051096	-0.424555	1.115979
C123	C	-0.451891	-0.921304	0.689595
C124	C	0.048109	-0.421304	1.189595
C125	C	-0.410307	-0.966615	0.722581
C126	C	0.089693	-0.466615	1.222581
C127	C	-0.373863	-1.006330	0.829172
C128	C	0.126137	-0.506330	1.329172
C129	C	-0.413359	-0.963282	0.797827
C130	C	0.086641	-0.463282	1.297827
H131	H	-0.304734	-0.717436	0.402396
H132	H	0.195266	-0.217436	0.902396
H133	H	-1.125662	-0.911654	0.386337
H134	H	-0.625662	-0.411654	0.886337
H135	H	-0.661081	-0.887598	0.410097
H136	H	-0.161081	-0.387598	0.910097
H137	H	-0.460765	-0.911625	1.051735
H138	H	0.039235	-0.411625	1.551735
H139	H	-0.794148	-1.052052	0.245942
H140	H	-0.294148	-0.552052	0.745942
F141	F	-0.287895	-1.099995	0.894173
F142	F	0.212105	-0.599995	1.394173
F143	F	-0.465732	-0.906199	0.909941
F144	F	0.034268	-0.406199	1.409941
H145	H	-0.449699	-0.497488	0.256981
H146	H	0.050301	0.002512	0.756981
F147	F	-0.493101	-0.243560	0.213446
F148	F	0.006899	0.256440	0.713446
H149	H	-0.661080	-1.057933	0.239988
H150	H	-0.161080	-0.557933	0.739988
H151	H	-0.488180	-0.881752	0.722668
H152	H	0.011820	-0.381752	1.222668
F153	F	-0.315498	-0.243684	0.391651
F154	F	0.184502	0.256316	0.891651
H155	H	-0.449639	-0.923732	0.830908
H156	H	0.050361	-0.423732	1.330908
F157	F	-0.983424	-0.906202	0.391697
F158	F	-0.483424	-0.406202	0.891697
H159	H	-0.880929	-1.045867	0.252176
H160	H	-0.380929	-0.545867	0.752176
H161	H	-0.488152	-0.385806	0.218391
H162	H	0.011848	0.114194	0.718391
H163	H	-0.332070	-0.385909	0.375024
H164	H	0.167930	0.114091	0.875024
H165	H	-0.992581	-1.087869	0.210276
H166	H	-0.492581	-0.587869	0.710276
F167	F	-0.326635	-0.463516	0.380458
F168	F	0.173365	0.036484	0.880458
F169	F	-0.288178	-0.575203	0.419038
F170	F	0.211822	-0.075203	0.919038
F171	F	-1.134829	-1.093318	0.204913
F172	F	-0.634829	-0.593318	0.704913
F173	F	-0.803329	-0.869574	0.428177
F174	F	-0.303329	-0.369574	0.928177
F175	F	-0.914990	-0.911578	0.386282
F176	F	-0.414990	-0.411578	0.886282
H177	H	-0.326467	-1.057995	0.575264
H178	H	0.173533	-0.557995	1.075264
F179	F	-0.493155	-0.876332	0.580867
F180	F	0.006845	-0.376332	1.080867
F181	F	-0.321515	-1.063438	0.717058
F182	F	0.178485	-0.563438	1.217058
F183	F	-0.294066	-1.093278	1.046135
F184	F	0.205934	-0.593278	1.546135
H185	H	-0.460819	-0.717324	0.245767
H186	H	0.039181	-0.217324	0.745767
F187	F	-0.465759	-0.575085	0.240815
F188	F	0.034241	-0.075085	0.740815
H189	H	-0.337581	-1.045879	0.796086
H190	H	0.162419	-0.545879	1.296086
