data_functionalizedCrystal
_audit_creation_method	'MofGen! by Chris Wilmer'
_symmetry_space_group_name_H-M	'P1'
_symmetry_Int_Tables_number	1
_symmetry_cell_setting	triclinic
loop_
_symmetry_equiv_pos_as_xyz
  x,y,z
_cell_length_a	10.540510
_cell_length_b	9.616153
_cell_length_c	13.339070
_cell_angle_alpha	89.995659
_cell_angle_beta	79.928697
_cell_angle_gamma	90.002441
loop_
_atom_site_label
_atom_site_type_symbol
_atom_site_fract_x
_atom_site_fract_y
_atom_site_fract_z
O1	O	1.734573	0.115649	-0.142782
O2	O	1.369756	0.115650	-0.156280
O3	O	1.510295	0.115646	-0.001969
O4	O	1.594033	0.115654	-0.297094
O5	O	1.510283	-0.115646	-0.001958
O6	O	1.369744	-0.115642	-0.156269
O7	O	1.734561	-0.115642	-0.142772
Zn8	Zn	1.552151	-0.152364	-0.149519
Zn9	Zn	1.552166	0.152372	-0.149533
O10	O	1.594022	-0.115638	-0.297083
C11	C	1.322103	0.000004	-0.155269
C12	C	1.180128	0.000005	-0.152260
C13	C	0.999212	0.000539	-0.259459
C14	C	1.146901	0.000009	-0.262669
C15	C	1.116097	-0.132073	-0.095734
C16	C	0.968508	-0.132175	-0.093306
C17	C	0.967931	0.130847	-0.091019
C18	C	1.116057	0.132584	-0.096256
N19	N	1.552150	-0.360339	-0.149508
C20	C	1.627813	-0.580668	-0.067247
C21	C	1.627425	-0.419500	-0.066933
C22	C	1.411242	-0.418870	-0.125448
C23	C	1.411662	-0.580088	-0.124872
C24	C	1.616331	-0.580210	-0.256118
C25	C	1.619088	-0.418982	-0.255421
C26	C	1.782213	0.000007	-0.143783
C27	C	1.924189	0.000016	-0.146792
C28	C	1.496144	0.000002	0.035827
C29	C	1.453981	0.000007	0.148430
N30	N	1.552174	0.360347	-0.149535
C31	C	1.608173	0.000009	-0.334878
C32	C	1.650336	0.000013	-0.447481
C33	C	1.781819	0.000006	0.510882
C34	C	1.821437	-0.000007	0.405086
C35	C	1.729576	-0.000003	0.340917
C36	C	1.598091	0.000014	0.382554
C37	C	1.558468	0.000016	0.488360
C38	C	1.506226	0.000007	0.318395
C39	C	1.374740	0.000023	0.360031
C40	C	1.335125	0.000026	0.465827
C41	C	1.426986	0.000022	0.529996
C42	C	1.545848	0.000004	0.212589
C43	C	1.322498	0.000014	0.190066
C44	C	1.282880	0.000027	0.295862
H45	H	0.970277	-0.093642	-0.302221
F46	F	1.685780	-0.000014	0.168288
H47	H	0.971924	0.095259	-0.302478
H48	H	1.175822	0.000039	0.329778
F49	F	1.204969	0.123761	-0.320473
F50	F	1.568776	-0.369104	0.036427
F51	F	1.771745	-0.000012	0.228320
F52	F	1.344424	-0.366120	-0.024957
H53	H	1.856597	-0.000008	0.563137
H54	H	0.937256	0.230955	-0.125842
H55	H	1.731607	-0.619428	-0.081498
F56	F	1.195186	0.000025	0.510137
H57	H	1.394734	0.000038	0.616145
H58	H	1.352045	-0.380550	-0.183744
H59	H	1.247697	0.000010	0.137819
F60	F	0.902050	0.132008	0.017332
H61	H	1.190463	-0.094826	-0.307149
H62	H	1.160325	-0.230362	-0.134981
H63	H	0.941452	-0.230902	-0.131927
F64	F	1.333367	-0.631096	-0.200164
H65	H	0.917365	-0.138177	-0.010727
F66	F	1.171826	0.260302	-0.149987
H67	H	1.135781	-0.136987	-0.014453
H68	H	1.583362	-0.621200	0.011380
H69	H	1.137650	0.140558	-0.015650
H70	H	1.730965	-0.379925	-0.081400
F71	F	1.750404	-0.633327	-0.286037
F72	F	1.754819	-0.368969	-0.279264
F73	F	1.345201	-0.629264	-0.023235
F74	F	1.555484	-0.366342	-0.339303
H75	H	1.561612	-0.618363	-0.317366
F76	F	1.961367	-0.000001	0.360781
