data_functionalizedCrystal
_audit_creation_method	'MofGen! by Chris Wilmer'
_symmetry_space_group_name_H-M	'P1'
_symmetry_Int_Tables_number	1
_symmetry_cell_setting	triclinic
loop_
_symmetry_equiv_pos_as_xyz
  x,y,z
_cell_length_a	19.851628
_cell_length_b	18.426585
_cell_length_c	19.851628
_cell_angle_alpha	59.995271
_cell_angle_beta	89.998786
_cell_angle_gamma	59.997326
loop_
_atom_site_label
_atom_site_type_symbol
_atom_site_fract_x
_atom_site_fract_y
_atom_site_fract_z
Zr1	Zr	0.648976	0.794279	-0.088299
O2	O	0.541411	0.945706	-0.195874
O3	O	0.681950	0.642871	-0.055326
O4	O	0.681953	0.794288	-0.195862
O5	O	0.541405	0.794274	0.055524
O6	O	0.792815	0.794274	-0.195849
O7	O	0.541408	0.794288	-0.055338
O8	O	0.792810	0.523417	0.055545
O9	O	0.541410	1.065132	-0.195870
O10	O	0.778748	0.705130	-0.041248
O11	O	0.696011	0.705130	0.041476
O12	O	0.696015	0.883404	-0.123987
O13	O	0.613278	0.883404	-0.041262
Zr14	Zr	0.825783	0.794234	0.088534
Zr15	Zr	0.825787	0.794257	-0.088278
Zr16	Zr	0.648971	0.794257	0.088512
Zr17	Zr	0.648975	0.984750	-0.088293
Zr18	Zr	0.825784	0.603763	0.088527
O19	O	0.792808	0.945642	0.055560
O20	O	0.792814	0.945674	-0.195844
O21	O	0.541404	0.945674	0.055529
O22	O	0.933348	0.642808	0.196108
O23	O	0.933354	0.642839	-0.055295
O24	O	0.681944	0.642839	0.196078
O25	O	0.933353	0.794239	-0.055290
O26	O	0.792805	0.794225	0.196097
O27	O	0.681943	0.794239	0.196083
O28	O	0.933351	0.794225	0.055572
O29	O	0.681952	1.065114	-0.195853
O30	O	0.792806	0.523399	0.196087
O31	O	0.933348	0.523381	0.196104
O32	O	0.933352	0.523399	0.055562
O33	O	0.541407	1.065114	-0.055328
O34	O	0.681949	1.065097	-0.055311
O35	O	0.778744	0.705109	0.124221
O36	O	0.861481	0.705109	0.041497
O37	O	0.778747	0.883383	-0.041242
O38	O	0.696010	0.883383	0.041483
C39	C	0.737380	0.556006	0.000109
C40	C	0.737381	0.475146	0.000106
C41	C	0.737376	0.179036	0.000130
C42	C	0.737375	0.261423	0.000125
C43	C	0.737378	0.327089	0.000118
C44	C	0.737378	0.409480	0.000114
C45	C	0.516215	0.794285	0.000090
C46	C	0.441153	0.794294	0.000081
C47	C	0.214699	0.891474	-0.045004
C48	C	0.192338	0.842892	-0.077696
C49	C	0.303747	0.794268	0.000105
C50	C	0.192366	0.842856	0.032782
C51	C	0.171015	0.794249	0.000127
C52	C	0.282375	0.745685	-0.032633
C53	C	0.282401	0.745663	0.077888
C54	C	0.260094	0.697010	0.045215
C55	C	0.380209	0.794281	0.000090
C56	C	0.094558	0.794228	0.000141
C57	C	0.958544	0.794229	0.000144
C58	C	1.033605	0.794219	0.000153
C59	C	0.737385	0.794285	-0.221047
C60	C	0.737387	0.794294	-0.296109
C61	C	0.737378	1.032507	0.000125
C62	C	0.737378	1.113368	0.000128
C63	C	0.692265	0.891474	-0.522566
C64	C	0.770055	0.842878	-0.544923
C65	C	0.737384	0.794268	-0.433515
C66	C	0.659599	0.842870	-0.544900
C67	C	0.737374	0.794249	-0.566247
C68	C	0.815220	0.745671	-0.454883
C69	C	0.704707	0.745677	-0.454862
C70	C	0.782544	0.697010	-0.477166
C71	C	0.737388	0.794281	-0.357053
C72	C	0.737378	0.794228	-0.642705
C73	C	0.737374	0.794229	0.221282
C74	C	0.737372	0.794219	0.296343
C75	C	0.958545	0.555978	0.000136
C76	C	1.033607	0.475108	0.000142
C77	C	0.737375	0.555978	0.221273
C78	C	0.737373	0.475108	0.296332
C79	C	0.958539	0.555950	0.221300
C80	C	1.033599	0.475071	0.296368
C81	C	0.516219	1.032563	-0.221066
C82	C	0.441159	1.113442	-0.296134
C83	C	0.516214	1.032535	0.000099
C84	C	0.441152	1.113405	0.000092
C85	C	0.737384	1.032535	-0.221039
C86	C	0.737385	1.113405	-0.296098
C87	C	1.025671	0.437142	-0.043054
C88	C	1.096192	0.361167	-0.043065
C89	C	1.174649	0.323154	0.000126
C90	C	1.182583	0.361128	0.043324
C91	C	1.112062	0.437107	0.043329
C92	C	0.780558	0.437120	0.374780
C93	C	0.780554	0.361145	0.445312
C94	C	0.737368	0.323155	0.437394
C95	C	0.694178	0.361150	0.358938
C96	C	0.694178	0.437129	0.288408
C97	C	1.112043	0.437089	0.288439
C98	C	1.182576	0.361105	0.358966
C99	C	1.174664	0.323099	0.437421
C100	C	1.096212	0.361088	0.445349
C101	C	1.025680	0.437076	0.374822
C102	C	0.362715	1.151433	-0.288205
C103	C	0.292182	1.227441	-0.358732
C104	C	0.300095	1.265451	-0.437187
C105	C	0.378547	1.227457	-0.445115
C106	C	0.449079	1.151456	-0.374588
C107	C	0.449088	1.151379	0.043281
C108	C	0.378566	1.227375	0.043272
C109	C	0.300110	1.265391	0.000079
C110	C	0.292175	1.227413	-0.043116
C111	C	0.362696	1.151424	-0.043111
C112	C	0.780579	1.151372	-0.288154
C113	C	0.780596	1.227347	-0.358672
C114	C	0.737415	1.265360	-0.437134
C115	C	0.694220	1.227386	-0.445076
C116	C	0.694208	1.151406	-0.374558
H117	H	0.196248	0.973667	-0.083205
F118	F	1.266090	0.320659	0.089290
H119	H	0.228310	1.258363	-0.352261
F120	F	1.120521	0.477500	0.089313
H121	H	0.356257	1.120490	-0.224329
H122	H	0.659015	0.468049	0.224535
F123	F	1.087731	0.320763	-0.089041
F124	F	1.120483	0.477529	0.204947
H125	H	0.961793	0.468091	-0.078236
H126	H	0.242657	1.327336	-0.494608
H127	H	1.246449	0.330182	0.352497
F128	F	1.249697	0.242289	0.000114
H129	H	0.153564	0.883952	0.060408
F130	F	0.386955	1.267919	-0.528619
F131	F	0.737434	1.346227	-0.512179
H132	H	0.659063	1.258348	-0.508969
H133	H	0.797691	0.883957	-0.583733
H134	H	0.278699	0.614750	0.083363
F135	F	0.648226	1.111015	-0.383026
F136	F	0.532581	1.110937	0.089255
F137	F	0.141611	0.896598	-0.163663
H138	H	0.815725	0.468044	0.381242
F139	F	1.087803	0.320629	0.528854
H140	H	0.881029	0.704606	-0.416181
H141	H	0.737375	0.261288	0.494831
F142	F	0.832477	0.589491	-0.452844
F143	F	1.249738	0.242224	0.512476
H144	H	0.961810	0.467991	0.381290
H145	H	0.512949	1.120524	-0.381054
F146	F	0.387028	1.267777	0.089251
H147	H	0.815727	0.330218	0.509187
F148	F	0.648221	0.320706	0.350525
F149	F	0.225062	1.346265	0.000082
F150	F	0.208669	1.267880	-0.089080
H151	H	0.356223	1.120507	-0.078279
H152	H	0.815742	1.120433	-0.224273
H153	H	0.815770	1.258257	-0.352190
H154	H	0.321071	0.704637	-0.060335
H155	H	0.321207	0.704609	0.143646
F156	F	0.642481	0.998903	-0.546681
F157	F	0.573623	0.896599	-0.595621
F158	F	0.668558	0.692032	-0.404138
