data_functionalizedCrystal
_audit_creation_method	'MofGen! by Chris Wilmer'
_symmetry_space_group_name_H-M	'P1'
_symmetry_Int_Tables_number	1
_symmetry_cell_setting	triclinic
loop_
_symmetry_equiv_pos_as_xyz
  x,y,z
_cell_length_a	18.215407
_cell_length_b	18.050583
_cell_length_c	18.215405
_cell_angle_alpha	90.038858
_cell_angle_beta	89.977656
_cell_angle_gamma	89.986780
loop_
_atom_site_label
_atom_site_type_symbol
_atom_site_fract_x
_atom_site_fract_y
_atom_site_fract_z
Zn1	Zn	1.125045	-0.419844	0.292981
Zn2	Zn	1.625045	0.080156	0.792981
Zn3	Zn	1.124962	-0.295648	0.416071
Zn4	Zn	1.624962	0.204352	0.916071
Zn5	Zn	1.001986	-0.295674	0.293017
Zn6	Zn	1.501986	0.204326	0.793017
Zn7	Zn	1.001944	-0.419803	0.416005
Zn8	Zn	1.501944	0.080197	0.916005
O9	O	1.063484	-0.357742	0.354519
O10	O	1.563484	0.142258	0.854519
O11	O	1.228018	-0.403375	0.309322
O12	O	1.728018	0.096625	0.809322
O13	O	1.108631	-0.191727	0.399789
O14	O	1.608631	0.308273	0.899789
O15	O	1.018362	-0.312173	0.190028
O16	O	1.518362	0.187827	0.690028
O17	O	1.227957	-0.312129	0.399755
O18	O	1.727957	0.187871	0.899755
O19	O	1.108774	-0.403400	0.190002
O20	O	1.608774	0.096600	0.690002
O21	O	1.018281	-0.191746	0.309382
O22	O	1.518281	0.308254	0.809382
O23	O	0.898996	-0.312133	0.309319
O24	O	1.398996	0.187867	0.809319
O25	O	1.018291	-0.523733	0.399644
O26	O	1.518291	-0.023733	0.899644
O27	O	0.898965	-0.403330	0.399678
O28	O	1.398965	0.096670	0.899678
O29	O	1.108733	-0.523763	0.309259
O30	O	1.608733	-0.023763	0.809259
O31	O	1.108590	-0.312090	0.519046
O32	O	1.608590	0.187910	1.019046
O33	O	1.018210	-0.403305	0.518998
O34	O	1.518210	0.096695	1.018998
C35	C	0.872278	-0.357731	0.354496
C36	C	1.372278	0.142269	0.854496
C37	C	0.790479	-0.357743	0.354504
C38	C	1.290479	0.142257	0.854504
C39	C	0.525424	-0.405163	0.401646
C40	C	1.025424	0.094837	0.901646
C41	C	0.602283	-0.405160	0.401640
C42	C	1.102283	0.094840	0.901640
C43	C	0.602285	-0.310334	0.307408
C44	C	1.102285	0.189666	0.807408
C45	C	0.525427	-0.310335	0.307418
C46	C	1.025427	0.189665	0.807418
C47	C	0.486999	-0.357753	0.354536
C48	C	0.986999	0.142247	0.854536
C49	C	0.640715	-0.357749	0.354519
C50	C	1.140715	0.142251	0.854519
C51	C	0.724049	-0.357745	0.354512
C52	C	1.224049	0.142255	0.854512
C53	C	0.403660	-0.357757	0.354545
C54	C	0.903660	0.142243	0.854545
C55	C	1.063517	-0.551448	0.354440
C56	C	1.563517	-0.051448	0.854440
C57	C	1.063530	-0.633994	0.354407
C58	C	1.563530	-0.133994	0.854407
C59	C	1.112762	-0.833461	0.305231
C60	C	1.612762	-0.333461	0.805231
C61	C	1.045640	-0.882860	0.287217
C62	C	1.545640	-0.382860	0.787217
C63	C	1.063560	-0.785124	0.354394
C64	C	1.563560	-0.285124	0.854394
C65	C	1.130709	-0.882807	0.372362
C66	C	1.630709	-0.382807	0.872362
C67	C	1.063594	-0.931109	0.354380
C68	C	1.563594	-0.431109	0.854380
C69	C	0.996402	-0.833436	0.336344
C70	C	1.496402	-0.333436	0.836344
C71	C	1.081516	-0.833379	0.421521
C72	C	1.581516	-0.333379	0.921521
C73	C	1.014348	-0.882755	0.403532
C74	C	1.514348	-0.382755	0.903532
C75	C	1.063541	-0.701026	0.354400
C76	C	1.563541	-0.201026	0.854400
C77	C	1.063606	-1.015206	0.354374
C78	C	1.563606	-0.515206	0.854374
C79	C	1.255437	-0.357754	0.354542
C80	C	1.755437	0.142246	0.854542
C81	C	1.337236	-0.357759	0.354552
C82	C	1.837236	0.142241	0.854552
C83	C	1.063406	-0.357706	0.545725
C84	C	1.563406	0.142294	1.045725
C85	C	1.063440	-0.357716	0.627524
C86	C	1.563440	0.142284	1.127524
C87	C	1.063494	-0.164790	0.354544
C88	C	1.563494	0.335210	0.854544
C89	C	1.063623	-0.082245	0.354370
C90	C	1.563623	0.417755	0.854370
C91	C	1.063582	-0.357794	0.162566
C92	C	1.563582	0.142206	0.662566
C93	C	1.063624	-0.357816	0.080767
C94	C	1.563624	0.142184	0.580767
C95	C	1.110612	-0.310307	0.815718
C96	C	1.610612	0.189693	1.315718
C97	C	1.110645	-0.310325	0.892577
C98	C	1.610645	0.189675	1.392577
C99	C	1.016450	-0.405230	0.892567
C100	C	1.516450	0.094770	1.392567
C101	C	1.016421	-0.405216	0.815710
C102	C	1.516421	0.094784	1.315710
C103	C	1.063501	-0.357750	0.777287
C104	C	1.563501	0.142250	1.277287
C105	C	1.063563	-0.357783	0.931003
C106	C	1.563563	0.142217	1.431003
C107	C	1.063598	-0.357802	1.014337
C108	C	1.563598	0.142198	1.514337
C109	C	1.063467	-0.357731	0.693948
C110	C	1.563467	0.142269	1.193948
H111	H	0.494141	-0.271724	0.269055
H112	H	0.994141	0.228276	0.769055
H113	H	0.494139	-0.443774	0.440012
H114	H	0.994139	0.056226	0.940012
H115	H	1.154303	-0.811814	0.263630
H116	H	1.654303	-0.311814	0.763630
H117	H	0.978058	-0.443853	0.784417
H118	H	1.478058	0.056147	1.284417
H119	H	0.939614	-0.811840	0.321075
H120	H	1.439614	-0.311840	0.821075
H121	H	0.633566	-0.443765	0.440002
H122	H	1.133566	0.056235	0.940002
H123	H	0.633582	-0.271729	0.269045
H124	H	1.133582	0.228271	0.769045
H125	H	0.972706	-0.904263	0.445101
H126	H	1.472706	-0.404263	0.945101
H127	H	1.030463	-0.904594	0.230443
H128	H	1.530463	-0.404594	0.730443
Br129	Br	1.106846	-0.797124	0.516122
Br130	Br	1.606846	-0.297124	1.016122
H131	H	1.187481	-0.904497	0.387564
H132	H	1.687481	-0.404497	0.887564
H133	H	1.148948	-0.271659	0.784436
H134	H	1.648948	0.228341	1.284436
H135	H	1.149008	-0.271694	0.923864
H136	H	1.649008	0.228306	1.423864
H137	H	0.978118	-0.443874	0.923860
H138	H	1.478118	0.056126	1.423860
