data_functionalizedCrystal
_audit_creation_method	'MofGen! by Chris Wilmer'
_symmetry_space_group_name_H-M	'P1'
_symmetry_Int_Tables_number	1
_symmetry_cell_setting	triclinic
loop_
_symmetry_equiv_pos_as_xyz
  x,y,z
_cell_length_a	11.792241
_cell_length_b	11.792241
_cell_length_c	10.268362
_cell_angle_alpha	90.001488
_cell_angle_beta	90.000426
_cell_angle_gamma	84.193416
loop_
_atom_site_label
_atom_site_type_symbol
_atom_site_fract_x
_atom_site_fract_y
_atom_site_fract_z
O1	O	1.506910	0.155562	0.108174
O2	O	1.756910	0.405562	0.358174
O3	O	2.006910	0.655562	0.608174
O4	O	2.256910	0.905562	0.858174
O5	O	1.176568	0.171595	0.108205
O6	O	1.426568	0.421595	0.358205
O7	O	1.676568	0.671595	0.608205
O8	O	1.926568	0.921595	0.858205
O9	O	1.349755	-0.001592	0.108180
O10	O	1.599755	0.248408	0.358180
O11	O	1.849755	0.498408	0.608180
O12	O	2.099755	0.748408	0.858180
O13	O	1.333723	0.328749	0.108199
O14	O	1.583723	0.578749	0.358199
O15	O	1.833723	0.828749	0.608199
O16	O	2.083723	1.078749	0.858199
O17	O	1.349739	-0.001586	-0.108421
O18	O	1.599739	0.248414	0.141579
O19	O	1.849739	0.498414	0.391579
O20	O	2.099739	0.748414	0.641579
O21	O	1.176552	0.171601	-0.108396
O22	O	1.426552	0.421601	0.141604
O23	O	1.676552	0.671601	0.391604
O24	O	1.926552	0.921601	0.641604
O25	O	1.506893	0.155568	-0.108426
O26	O	1.756893	0.405568	0.141574
O27	O	2.006893	0.655568	0.391574
O28	O	2.256893	0.905568	0.641574
Cu29	Cu	1.341721	0.163585	-0.128188
Cu30	Cu	1.591721	0.413585	0.121812
Cu31	Cu	1.841721	0.663585	0.371812
Cu32	Cu	2.091721	0.913585	0.621812
Cu33	Cu	1.341741	0.163578	0.127967
Cu34	Cu	1.591741	0.413578	0.377967
Cu35	Cu	1.841741	0.663578	0.627967
Cu36	Cu	2.091741	0.913578	0.877967
O37	O	1.333706	0.328755	-0.108401
O38	O	1.583706	0.578755	0.141599
O39	O	1.833706	0.828755	0.391599
O40	O	2.083706	1.078755	0.641599
C41	C	1.134269	0.170591	-0.000092
C42	C	1.384269	0.420591	0.249908
C43	C	1.634269	0.670591	0.499908
C44	C	1.884269	0.920591	0.749908
C45	C	1.008255	0.167576	-0.000080
C46	C	1.258255	0.417576	0.249920
C47	C	1.508255	0.667576	0.499920
C48	C	1.758255	0.917576	0.749920
C49	C	1.348740	-0.043880	-0.000120
C50	C	1.598740	0.206120	0.249880
C51	C	1.848740	0.456120	0.499880
C52	C	2.098740	0.706120	0.749880
C53	C	1.345726	-0.169894	-0.000119
C54	C	1.595726	0.080106	0.249881
C55	C	1.845726	0.330106	0.499881
C56	C	2.095726	0.580106	0.749881
C57	C	0.777543	0.162034	-0.000118
C58	C	1.027543	0.412034	0.249882
C59	C	1.277543	0.662034	0.499882
C60	C	1.527543	0.912034	0.749882
C61	C	0.905928	0.165113	-0.000097
C62	C	1.155928	0.415113	0.249903
C63	C	1.405928	0.665113	0.499903
C64	C	1.655928	0.915113	0.749903
C65	C	1.340183	-0.400606	-0.000096
C66	C	1.590183	-0.150606	0.249904
C67	C	1.840183	0.099394	0.499904
C68	C	2.090183	0.349394	0.749904
C69	C	1.343262	-0.272221	-0.000108
C70	C	1.593262	-0.022221	0.249892
C71	C	1.843262	0.227779	0.499892
C72	C	2.093262	0.477779	0.749892
C73	C	1.549192	0.156572	-0.000127
C74	C	1.799192	0.406572	0.249873
C75	C	2.049192	0.656572	0.499873
C76	C	2.299192	0.906572	0.749873
C77	C	1.675206	0.159587	-0.000130
C78	C	1.925206	0.409587	0.249870
C79	C	2.175206	0.659587	0.499870
C80	C	2.425206	0.909587	0.749870
C81	C	1.334721	0.371043	-0.000099
C82	C	1.584721	0.621043	0.249901
C83	C	1.834721	0.871043	0.499901
C84	C	2.084721	1.121043	0.749901
C85	C	1.337736	0.497057	-0.000092
C86	C	1.587736	0.747057	0.249908
C87	C	1.837736	0.997057	0.499908
C88	C	2.087736	1.247057	0.749908
N89	N	1.341715	0.163589	-0.308354
N90	N	1.591715	0.413589	-0.058354
N91	N	1.841715	0.663589	0.191646
N92	N	2.091715	0.913589	0.441646
C93	C	1.341724	0.163590	-0.426197
C94	C	1.591724	0.413590	-0.176197
C95	C	1.841724	0.663590	0.073803
C96	C	2.091724	0.913590	0.323803
C97	C	1.341738	0.163580	-0.574035
C98	C	1.591738	0.413580	-0.324035
C99	C	1.841738	0.663580	-0.074035
C100	C	2.091738	0.913580	0.175965
N101	N	1.341755	0.163565	0.308133
N102	N	1.591755	0.413565	0.558133
N103	N	1.841755	0.663565	0.808133
N104	N	2.091755	0.913565	1.058133
