data_functionalizedCrystal
_audit_creation_method	'MofGen! by Chris Wilmer'
_symmetry_space_group_name_H-M	'P1'
_symmetry_Int_Tables_number	1
_symmetry_cell_setting	triclinic
loop_
_symmetry_equiv_pos_as_xyz
  x,y,z
_cell_length_a	16.109302
_cell_length_b	14.853567
_cell_length_c	14.586319
_cell_angle_alpha	90.000002
_cell_angle_beta	89.994552
_cell_angle_gamma	83.548356
loop_
_atom_site_label
_atom_site_type_symbol
_atom_site_fract_x
_atom_site_fract_y
_atom_site_fract_z
O1	O	1.103293	0.115884	-0.076274
O2	O	1.603293	0.615884	0.423726
O3	O	0.861252	0.130304	-0.076266
O4	O	1.361252	0.630304	0.423734
O5	O	0.988738	-0.008146	-0.076273
O6	O	1.488738	0.491854	0.423727
O7	O	0.975807	0.254334	-0.076267
O8	O	1.475807	0.754334	0.423733
O9	O	0.988729	-0.008148	0.076208
O10	O	1.488729	0.491852	0.576208
O11	O	0.861243	0.130302	0.076215
O12	O	1.361243	0.630302	0.576215
O13	O	1.103284	0.115882	0.076207
O14	O	1.603284	0.615882	0.576207
Cu15	Cu	0.982263	0.123092	0.090134
Cu16	Cu	1.482263	0.623092	0.590134
Cu17	Cu	0.982273	0.123094	-0.090192
Cu18	Cu	1.482273	0.623094	0.409808
O19	O	0.975798	0.254332	0.076214
O20	O	1.475798	0.754332	0.576214
C21	C	0.830271	0.129719	-0.000024
C22	C	1.330271	0.629719	0.499976
C23	C	0.737974	0.127967	-0.000021
C24	C	1.237974	0.627967	0.499979
C25	C	0.525622	0.123916	0.083087
C26	C	1.025622	0.623916	0.583087
C27	C	0.438900	0.122261	0.083083
C28	C	0.938900	0.622261	0.583083
C29	C	0.438920	0.122267	-0.083160
C30	C	0.938920	0.622267	0.416840
C31	C	0.525642	0.123916	-0.083155
C32	C	1.025642	0.623916	0.416845
C33	C	0.568990	0.124745	-0.000030
C34	C	1.068990	0.624745	0.499970
C35	C	0.395546	0.121441	-0.000037
C36	C	0.895546	0.621441	0.499963
C37	C	0.301518	0.119646	-0.000041
C38	C	0.801518	0.619646	0.499959
C39	C	0.663024	0.126539	-0.000025
C40	C	1.163024	0.626539	0.499975
C41	C	0.988147	-0.041735	-0.000035
C42	C	1.488147	0.458265	0.499965
C43	C	0.986392	-0.141816	-0.000043
C44	C	1.486392	0.358184	0.499957
C45	C	0.903240	-0.554213	-0.000022
C46	C	1.403240	-0.054213	0.499978
C47	C	1.054697	-0.575743	-0.000028
C48	C	1.554697	-0.075743	0.499972
C49	C	1.056348	-0.481712	-0.000033
C50	C	1.556348	0.018288	0.499967
C51	C	0.981444	-0.423927	-0.000032
C52	C	1.481444	0.076073	0.499968
C53	C	0.904889	-0.460173	-0.000025
C54	C	1.404889	0.039827	0.499975
C55	C	1.132901	-0.445459	-0.000031
C56	C	1.632901	0.054541	0.499969
C57	C	1.134555	-0.351423	-0.000035
C58	C	1.634555	0.148577	0.499965
C59	C	1.059650	-0.293636	-0.000040
C60	C	1.559650	0.206364	0.499960
C61	C	0.983092	-0.329887	-0.000035
C62	C	1.483092	0.170113	0.499965
C63	C	0.908188	-0.272102	-0.000033
C64	C	1.408188	0.227898	0.499967
C65	C	0.831630	-0.308351	-0.000034
C66	C	1.331630	0.191649	0.499966
C67	C	0.829984	-0.402385	-0.000031
C68	C	1.329984	0.097615	0.499969
C69	C	1.061296	-0.199601	-0.000044
C70	C	1.561296	0.300399	0.499956
C71	C	0.909837	-0.178062	-0.000036
C72	C	1.409837	0.321938	0.499964
C73	C	1.134264	0.116467	-0.000036
C74	C	1.634264	0.616467	0.499964
C75	C	1.226562	0.118219	-0.000045
C76	C	1.726562	0.618219	0.499955
C77	C	0.976389	0.287921	-0.000026
C78	C	1.476389	0.787921	0.499974
C79	C	0.978144	0.388002	-0.000024
C80	C	1.478144	0.888002	0.499976
N81	N	0.982261	0.123090	0.216966
N82	N	1.482261	0.623090	0.716966
N83	N	0.982281	0.123089	-0.217024
N84	N	1.482281	0.623089	0.282976
C85	C	1.038731	0.061804	0.451969
C86	C	1.538731	0.561804	0.951969
C87	C	1.038733	0.061802	0.547950
C88	C	1.538733	0.561802	1.047950
C89	C	0.925805	0.184378	0.547966
C90	C	1.425805	0.684378	1.047966
C91	C	0.925800	0.184375	0.451986
C92	C	1.425800	0.684375	0.951986
C93	C	0.982267	0.123089	0.403990
C94	C	1.482267	0.623089	0.903990
C95	C	0.982275	0.123090	0.595951
C96	C	1.482275	0.623090	1.095951
C97	C	0.982277	0.123088	0.700018
C98	C	1.482277	0.623088	1.200018
C99	C	0.982264	0.123090	0.299917
C100	C	1.482264	0.623090	0.799917
H101	H	0.403615	0.121594	-0.150838
H102	H	0.903615	0.621594	0.349162
H103	H	0.879816	0.234281	0.412920
H104	H	1.379816	0.734281	0.912920
Cl105	Cl	1.109718	-0.015247	0.608263
Cl106	Cl	1.609718	0.484753	1.108263
Cl107	Cl	1.157532	-0.154034	-0.000026
Cl108	Cl	1.657532	0.345966	0.499974
H109	H	0.879832	0.234276	0.587054
H110	H	1.379832	0.734276	1.087054
Cl111	Cl	0.733748	-0.447962	-0.000034
Cl112	Cl	1.233748	0.052038	0.499966
H113	H	1.115680	-0.622797	-0.000021
H114	H	1.615680	-0.122797	0.499979
Cl115	Cl	0.580115	0.124952	0.187587
Cl116	Cl	1.080115	0.624952	0.687587
Cl117	Cl	1.227059	-0.518106	-0.000012
Cl118	Cl	1.727059	-0.018106	0.499988
Cl119	Cl	1.109715	-0.015244	0.391635
Cl120	Cl	1.609715	0.484756	0.891635
H121	H	0.403594	0.121586	0.150765
H122	H	0.903594	0.621586	0.650765
Cl123	Cl	0.580166	0.124952	-0.187653
Cl124	Cl	1.080166	0.624952	0.312347
H125	H	0.848840	-0.131018	-0.000039
H126	H	1.348840	0.368982	0.499961
H127	H	0.770643	-0.261290	-0.000027
H128	H	1.270643	0.238710	0.499973
Cl129	Cl	0.807000	-0.599780	-0.000032
Cl130	Cl	1.307000	-0.099780	0.499968
Cl131	Cl	1.230798	-0.305861	-0.000049
Cl132	Cl	1.730798	0.194139	0.499951
