data_functionalizedCrystal
_audit_creation_method	'MofGen! by Chris Wilmer'
_symmetry_space_group_name_H-M	'P1'
_symmetry_Int_Tables_number	1
_symmetry_cell_setting	triclinic
loop_
_symmetry_equiv_pos_as_xyz
  x,y,z
_cell_length_a	10.654562
_cell_length_b	10.654550
_cell_length_c	9.730223
_cell_angle_alpha	89.999807
_cell_angle_beta	89.996961
_cell_angle_gamma	84.487503
loop_
_atom_site_label
_atom_site_type_symbol
_atom_site_fract_x
_atom_site_fract_y
_atom_site_fract_z
O1	O	1.667825	0.176469	-0.114377
O2	O	1.302348	0.193259	-0.114359
O3	O	1.493489	0.002125	-0.114363
O4	O	1.476683	0.367603	-0.114373
O5	O	1.493487	0.002130	0.114217
O6	O	1.302346	0.193264	0.114221
O7	O	1.667822	0.176474	0.114203
Zn8	Zn	1.485084	0.184870	0.150504
Zn9	Zn	1.485087	0.184863	-0.150660
O10	O	1.476681	0.367608	0.114207
C11	C	1.255549	0.192025	-0.000067
C12	C	1.116107	0.188327	-0.000060
C13	C	1.050575	0.186604	0.124528
C14	C	0.919553	0.183139	0.124505
C15	C	0.919605	0.183125	-0.124705
C16	C	1.050626	0.186581	-0.124681
C17	C	1.050543	0.186618	0.268408
C18	C	0.919521	0.183153	0.268385
C19	C	1.492254	-0.044671	-0.000075
C20	C	1.488563	-0.184114	-0.000079
C21	C	1.601103	-0.263595	-0.000081
C22	C	1.597627	-0.394615	-0.000090
C23	C	1.369059	-0.366662	-0.000091
C24	C	1.372537	-0.235644	-0.000092
C25	C	1.733066	-0.279734	-0.000074
C26	C	1.729589	-0.410755	-0.000083
C27	C	1.714621	0.177708	-0.000092
C28	C	1.854064	0.181406	-0.000108
C29	C	1.477916	0.414403	-0.000084
C30	C	1.481608	0.553847	-0.000088
N31	N	1.485091	0.184873	0.356040
N32	N	1.485089	0.184850	-0.356196
C33	C	1.569750	0.100268	0.427965
C34	C	1.569747	0.100253	0.571848
C35	C	1.400421	0.269459	0.571869
C36	C	1.400419	0.269467	0.427989
C37	C	1.667513	0.002582	0.427953
C38	C	1.667510	0.002567	0.571836
H39	H	1.103980	0.187964	-0.226133
H40	H	0.866275	0.181703	-0.226167
H41	H	1.758696	0.033175	0.383322
O42	O	1.263247	-0.158387	-0.000350
C43	C	1.134570	0.005801	-0.118753
C44	C	1.258379	-0.081639	-0.118644
H45	H	1.130605	0.067892	-0.214369
H46	H	1.051005	-0.053480	-0.118850
H47	H	1.130480	0.067786	-0.023052
H48	H	1.262592	-0.143641	-0.214328
H49	H	1.341886	-0.022283	-0.118476
H50	H	1.636997	-0.088657	0.616456
O51	O	1.105542	0.082978	0.334305
C52	C	1.074106	-0.109248	0.454509
C53	C	1.011659	0.008049	0.379892
H54	H	0.998229	-0.169847	0.491412
H55	H	1.140501	-0.166277	0.380921
H56	H	1.129828	-0.078401	0.546524
H57	H	0.955871	-0.022686	0.287881
H58	H	0.945335	0.065051	0.453571
H59	H	1.080117	0.278215	0.313049
O60	O	1.783204	-0.237408	0.117750
C61	C	1.964114	-0.245695	0.267241
C62	C	1.907639	-0.293641	0.133645
H63	H	2.064718	-0.291159	0.280150
H64	H	1.964767	-0.138864	0.262073
H65	H	1.904618	-0.271633	0.358462
H66	H	1.967088	-0.267793	0.042354
H67	H	1.906963	-0.400464	0.138932
H68	H	0.889932	0.091560	0.313033
O69	O	1.256280	-0.416573	0.000085
C70	C	1.059883	-0.432835	0.118540
C71	C	1.187551	-0.376210	0.118495
H72	H	1.004291	-0.400245	0.214279
H73	H	1.004131	-0.400141	0.022945
H74	H	1.076756	-0.540128	0.118467
H75	H	1.170793	-0.268914	0.118616
H76	H	1.243262	-0.409003	0.214082
H77	H	0.873234	0.269951	0.323618
H78	H	1.784682	-0.250376	-0.095730
H79	H	1.769471	-0.456398	-0.098780
O80	O	1.789059	-0.460669	0.113897
C81	C	1.958643	-0.603263	0.203545
C82	C	1.891446	-0.546811	0.074352
H83	H	2.041420	-0.672940	0.171619
H84	H	1.994711	-0.524486	0.267359
H85	H	1.889476	-0.654219	0.267312
H86	H	1.960538	-0.495866	0.010479
H87	H	1.855355	-0.625641	0.010642
O88	O	1.318004	0.351504	0.641704
C89	C	1.100270	0.423089	0.685678
C90	C	1.193468	0.330080	0.606534
H91	H	0.999563	0.405818	0.657251
H92	H	1.114700	0.408547	0.800885
H93	H	1.117564	0.523830	0.657418
H94	H	1.176231	0.229302	0.634679
H95	H	1.179017	0.344732	0.491347
H96	H	1.331472	0.338348	0.369430
O97	O	1.641856	-0.112629	0.381585
C98	C	1.595276	-0.322610	0.441657
C99	C	1.624292	-0.192190	0.494355
H100	H	1.581094	-0.386979	0.532804
H101	H	1.505883	-0.312051	0.376625
H102	H	1.677471	-0.365377	0.376511
H103	H	1.542176	-0.149349	0.559558
H104	H	1.713728	-0.202829	0.559312
O105	O	1.782698	0.028305	0.618198
C106	C	1.992628	0.075043	0.558115
C107	C	1.862234	0.045943	0.505424
H108	H	2.056978	0.089286	0.466965
H109	H	1.982012	0.164426	0.623168
H110	H	2.035454	-0.007136	0.623238
H111	H	1.819336	0.128044	0.440245
H112	H	1.872932	-0.043482	0.440446
