data_functionalizedCrystal
_audit_creation_method	'MofGen! by Chris Wilmer'
_symmetry_space_group_name_H-M	'P1'
_symmetry_Int_Tables_number	1
_symmetry_cell_setting	triclinic
loop_
_symmetry_equiv_pos_as_xyz
  x,y,z
_cell_length_a	12.759401
_cell_length_b	12.594516
_cell_length_c	12.759393
_cell_angle_alpha	90.030800
_cell_angle_beta	90.018496
_cell_angle_gamma	90.011977
loop_
_atom_site_label
_atom_site_type_symbol
_atom_site_fract_x
_atom_site_fract_y
_atom_site_fract_z
Zn1	Zn	1.606276	-0.423675	0.593987
Zn2	Zn	1.606180	-0.601694	0.418309
Zn3	Zn	1.430578	-0.423730	0.418326
Zn4	Zn	1.430576	-0.601612	0.593951
O5	O	1.518403	-0.512678	0.506143
O6	O	1.753285	-0.447300	0.570691
O7	O	1.582846	-0.578144	0.271291
O8	O	1.453927	-0.274777	0.441650
O9	O	1.753213	-0.578090	0.441621
O10	O	1.583011	-0.274736	0.570707
O11	O	1.453833	-0.447395	0.271303
O12	O	1.283557	-0.447316	0.441615
O13	O	1.453922	-0.577951	0.740977
O14	O	1.283555	-0.578005	0.570646
O15	O	1.583009	-0.447221	0.741003
O16	O	1.582844	-0.750629	0.441586
O17	O	1.453829	-0.750569	0.570629
C18	C	1.245435	-0.512658	0.506129
C19	C	1.128659	-0.512676	0.506148
C20	C	1.073823	-0.580834	0.573223
C21	C	0.964099	-0.580848	0.573234
C22	C	0.964056	-0.444541	0.439087
C23	C	1.073778	-0.444523	0.439081
C24	C	1.128704	-0.648987	0.640290
C25	C	1.073868	-0.717152	0.707369
C26	C	0.964144	-0.717165	0.707381
C27	C	0.909256	-0.649014	0.640313
C28	C	1.518354	-0.789219	0.506125
C29	C	1.518429	-0.907524	0.506152
C30	C	1.588682	-0.976771	0.436041
C31	C	1.614358	-1.047463	0.531933
C32	C	1.492885	-1.047632	0.410321
C33	C	1.544154	-0.976657	0.602095
C34	C	1.422637	-0.976820	0.480418
C35	C	1.448276	-1.047480	0.576377
C36	C	1.792436	-0.512698	0.506158
C37	C	1.909212	-0.512707	0.506165
C38	C	1.518476	-0.512570	0.780177
C39	C	1.518507	-0.512525	0.896954
C40	C	1.518480	-0.235057	0.506185
C41	C	1.518513	-0.116752	0.506202
C42	C	1.518390	-0.512708	0.233176
C43	C	1.518562	-0.512454	0.116400
C44	C	1.585732	-0.444447	0.951831
C45	C	1.585757	-0.444409	1.061555
C46	C	1.451330	-0.580534	1.061515
C47	C	1.451300	-0.580567	0.951793
C48	C	1.652939	-0.376405	0.896992
C49	C	1.720170	-0.308323	0.951870
C50	C	1.720195	-0.308284	1.061594
C51	C	1.652989	-0.376328	1.116440
H52	H	1.118426	-0.389014	0.384471
C53	C	1.723835	-1.089397	0.561380
H54	H	1.719049	-1.130842	0.623385
H55	H	1.750210	-1.131989	0.505876
H56	H	1.769786	-1.031219	0.573061
C57	C	0.903828	-0.792133	0.781172
H58	H	0.952231	-0.832720	0.821107
H59	H	0.861048	-0.751478	0.827022
H60	H	0.861005	-0.838471	0.740903
C61	C	1.653019	-0.376286	1.237135
H62	H	1.702685	-0.326000	1.261965
H63	H	1.585233	-0.357870	1.261960
H64	H	1.671182	-0.444971	1.261938
C65	C	1.794142	-0.233398	1.121957
H66	H	1.834167	-0.192888	1.073579
H67	H	1.753984	-0.187001	1.164768
H68	H	1.839919	-0.274115	1.164751
H69	H	1.774880	-0.252918	0.907207
H70	H	1.396614	-0.635932	1.106179
C71	C	1.377396	-0.655491	0.891423
H72	H	1.337396	-0.696032	0.939796
H73	H	1.331610	-0.614819	0.848607
H74	H	1.417604	-0.701874	0.848633
C75	C	1.573525	-0.934730	0.711635
H76	H	1.573353	-0.859302	0.710938
H77	H	1.523966	-0.959505	0.761497
H78	H	1.641397	-0.959505	0.730037
H79	H	1.218047	-0.648985	0.640286
H80	H	1.341614	-0.945764	0.458595
C81	C	0.788562	-0.649006	0.640350
H82	H	0.763762	-0.699356	0.689907
H83	H	0.763774	-0.580339	0.658640
H84	H	0.763691	-0.667336	0.572525
C85	C	1.668947	-0.934816	0.356020
H86	H	1.737007	-0.959003	0.374499
H87	H	1.651441	-0.960157	0.288098
H88	H	1.667923	-0.859394	0.356117
H89	H	1.388901	-1.078331	0.635758
C90	C	1.134236	-0.792109	0.781145
H91	H	1.085860	-0.832696	0.821102
H92	H	1.177019	-0.838432	0.740875
H93	H	1.177058	-0.751436	0.826991
H94	H	1.471245	-1.078806	0.329257
H95	H	1.652929	-0.376431	0.807649
H96	H	0.919357	-0.389056	0.384482
