data_functionalizedCrystal
_audit_creation_method	'MofGen! by Chris Wilmer'
_symmetry_space_group_name_H-M	'P1'
_symmetry_Int_Tables_number	1
_symmetry_cell_setting	triclinic
loop_
_symmetry_equiv_pos_as_xyz
  x,y,z
_cell_length_a	12.759401
_cell_length_b	12.759400
_cell_length_c	12.759393
_cell_angle_alpha	90.031564
_cell_angle_beta	90.019559
_cell_angle_gamma	90.012834
loop_
_atom_site_label
_atom_site_type_symbol
_atom_site_fract_x
_atom_site_fract_y
_atom_site_fract_z
Zn1	Zn	-1.606255	0.418256	-0.594011
Zn2	Zn	-1.606150	0.593975	-0.418331
Zn3	Zn	-1.430557	0.418305	-0.418347
Zn4	Zn	-1.430546	0.593888	-0.593969
O5	O	-1.518377	0.506106	-0.506165
O6	O	-1.753262	0.441582	-0.570718
O7	O	-1.582818	0.570729	-0.271312
O8	O	-1.453913	0.271278	-0.441674
O9	O	-1.753185	0.570682	-0.441646
O10	O	-1.582998	0.271242	-0.570733
O11	O	-1.453811	0.441665	-0.271324
O12	O	-1.283535	0.441581	-0.441633
O13	O	-1.453894	0.570533	-0.740996
O14	O	-1.283527	0.570581	-0.570662
O15	O	-1.582987	0.441497	-0.741027
O16	O	-1.582807	0.740985	-0.441606
O17	O	-1.453791	0.740921	-0.570647
C18	C	-1.245410	0.506077	-0.506145
C19	C	-1.128633	0.506090	-0.506162
C20	C	-1.073794	0.573366	-0.573235
C21	C	-0.964070	0.573375	-0.573245
C22	C	-0.964034	0.438830	-0.439099
C23	C	-1.073756	0.438816	-0.439095
C24	C	-1.073815	0.651048	-0.650680
C25	C	-0.964091	0.651058	-0.650690
C26	C	-1.518315	0.779073	-0.506143
C27	C	-1.518384	0.895850	-0.506169
C28	C	-1.518451	0.506000	-0.780198
C29	C	-1.518482	0.505955	-0.896975
C30	C	-0.792410	0.506127	-0.506180
C31	C	-0.909187	0.506113	-0.506175
C32	C	-1.518468	0.232073	-0.506210
C33	C	-1.518507	0.115296	-0.506229
C34	C	-1.585637	0.950710	-0.439051
C35	C	-1.585702	1.060435	-0.439084
C36	C	-1.451252	1.060428	-0.573354
C37	C	-1.451193	0.950706	-0.573326
C38	C	-1.663258	0.950715	-0.361529
C39	C	-1.663322	1.060439	-0.361561
C40	C	-1.585710	0.438759	-0.951855
C41	C	-1.585735	0.438722	-1.061579
C42	C	-1.451301	0.573083	-1.061534
C43	C	-1.451272	0.573115	-0.951812
C44	C	-1.663328	0.361190	-0.951881
C45	C	-1.663353	0.361152	-1.061606
C46	C	-1.518364	0.506136	-0.233197
C47	C	-1.518537	0.505885	-0.116421
H48	H	-1.103623	0.629350	-0.732088
H49	H	-1.107829	0.728301	-0.621396
N50	N	-1.634505	0.253416	-0.912453
H51	H	-1.621656	0.205300	-0.973999
H52	H	-1.568871	0.258167	-0.868439
N53	N	-1.765686	0.399809	-0.906790
H54	H	-1.761928	0.398422	-0.827734
H55	H	-1.778979	0.473885	-0.931269
H56	H	-1.634133	0.916767	-0.284202
N57	N	-0.919001	0.612580	-0.753122
H58	H	-0.874443	0.548506	-0.739965
H59	H	-0.977966	0.594028	-0.802599
N60	N	-0.904841	0.366291	-0.366750
H61	H	-0.859333	0.317658	-0.409525
H62	H	-0.859360	0.409023	-0.318012
N63	N	-1.765732	1.105420	-0.400205
H64	H	-1.815165	1.046451	-0.418860
H65	H	-1.798019	1.150000	-0.343315
H66	H	-1.634239	0.283842	-1.095653
N67	N	-1.771122	0.390041	-1.101073
H68	H	-1.799936	0.330846	-1.145073
H69	H	-1.819123	0.402984	-1.039492
H70	H	-0.934295	0.732406	-0.628757
H71	H	-1.396440	0.906040	-0.627987
H72	H	-1.396548	1.105105	-0.628031
N73	N	-1.634539	1.100003	-0.253766
H74	H	-1.634584	1.179160	-0.253744
H75	H	-1.687327	1.073560	-0.201071
H76	H	-1.118401	0.384027	-0.384485
H77	H	-1.744601	0.920860	-0.383382
H78	H	-1.396525	0.627829	-0.907133
N79	N	-1.378799	0.645504	-1.120679
H80	H	-1.389011	0.635282	-1.198516
H81	H	-1.395105	0.720552	-1.101493
