data_functionalizedCrystal
_audit_creation_method	'MofGen! by Chris Wilmer'
_symmetry_space_group_name_H-M	'P1'
_symmetry_Int_Tables_number	1
_symmetry_cell_setting	triclinic
loop_
_symmetry_equiv_pos_as_xyz
  x,y,z
_cell_length_a	17.699077
_cell_length_b	12.811415
_cell_length_c	16.176319
_cell_angle_alpha	84.562354
_cell_angle_beta	89.993140
_cell_angle_gamma	83.663755
loop_
_atom_site_label
_atom_site_type_symbol
_atom_site_fract_x
_atom_site_fract_y
_atom_site_fract_z
O1	O	1.004676	0.132702	-0.078683
O2	O	0.784375	0.149978	-0.079982
O3	O	0.900067	-0.011467	-0.067872
O4	O	0.888984	0.294147	-0.090792
O5	O	0.900051	-0.011478	0.069621
O6	O	0.784359	0.149967	0.057512
O7	O	1.004660	0.132692	0.058811
Cu8	Cu	0.894508	0.141329	0.070716
Cu9	Cu	0.894527	0.141341	-0.091886
O10	O	0.888968	0.294137	0.046702
C11	C	0.756167	0.149355	-0.011189
C12	C	0.672140	0.147501	-0.011051
C13	C	0.632660	0.146622	0.063963
C14	C	0.553710	0.144863	0.064096
C15	C	0.514240	0.143991	-0.010787
C16	C	0.553726	0.144867	-0.085807
C17	C	0.632676	0.146618	-0.085938
C18	C	0.235331	0.137804	-0.085279
C19	C	0.156376	0.136056	-0.085142
C20	C	0.156365	0.136049	0.064755
C21	C	0.235315	0.137800	0.064624
C22	C	0.274794	0.138670	-0.010395
C23	C	0.360401	0.140575	-0.010538
C24	C	0.428634	0.142094	-0.010646
C25	C	0.899438	-0.050575	0.003805
C26	C	0.897577	-0.167089	0.012538
C27	C	0.894084	-0.386008	-0.120966
C28	C	0.892336	-0.495483	-0.112765
C29	C	0.892326	-0.495516	0.037140
C30	C	0.894075	-0.386040	0.028939
C31	C	0.894955	-0.331291	-0.050117
C32	C	0.896709	-0.221815	-0.058317
C33	C	0.896694	-0.221848	0.091587
C34	C	0.894945	-0.331323	0.099788
C35	C	1.032868	0.133315	-0.009983
C36	C	1.116895	0.135169	-0.010126
C37	C	0.889597	0.333245	-0.024977
C38	C	0.891458	0.449759	-0.033715
N39	N	0.894500	0.141320	0.185082
N40	N	0.894541	0.141342	-0.206252
C41	C	0.945744	0.069861	0.233706
C42	C	0.945748	0.069860	0.320253
C43	C	0.894511	0.141323	0.358174
C44	C	0.843261	0.212785	0.309544
C45	C	0.843254	0.212781	0.222999
C46	C	0.843287	0.212805	0.658571
C47	C	0.843300	0.212806	0.745122
C48	C	0.945781	0.069884	0.755825
C49	C	0.945774	0.069879	0.669280
C50	C	0.894522	0.141337	0.620658
C51	C	0.894518	0.141336	0.526814
C52	C	0.894518	0.141330	0.452016
H53	H	0.521570	0.144130	0.125181
N54	N	0.113790	0.135092	0.145676
H55	H	0.122442	0.199710	0.174087
H56	H	0.057678	0.135272	0.134236
N57	N	0.277885	0.138751	0.145389
H58	H	0.240894	0.137927	0.192932
H59	H	0.316576	0.074437	0.153478
N60	N	0.897631	-0.162834	0.168011
H61	H	0.944188	-0.190526	0.202847
H62	H	0.898846	-0.085187	0.150756
N63	N	1.001057	-0.007193	0.808273
H64	H	0.992115	-0.081675	0.798803
H65	H	1.054781	0.004902	0.792270
H66	H	0.801573	0.271003	0.775996
N67	N	0.113802	0.135112	-0.165912
H68	H	0.150792	0.135925	-0.213456
H69	H	0.086978	0.069345	-0.164235
N70	N	0.788007	0.289868	0.606135
H71	H	0.755552	0.335139	0.643293
H72	H	0.817115	0.336222	0.566734
N73	N	1.001030	-0.007211	0.628383
H74	H	0.993248	0.003629	0.566179
H75	H	1.054761	0.004812	0.642591
H76	H	0.987471	0.011672	0.202836
N77	N	0.895020	-0.326896	-0.206208
H78	H	0.941575	-0.354530	-0.236929
H79	H	0.847821	-0.337310	-0.238127
H80	H	0.891624	-0.540030	-0.170459
N81	N	0.897607	-0.162715	-0.143567
H82	H	0.945180	-0.125893	-0.149690
H83	H	0.896743	-0.214022	-0.187175
N84	N	0.891392	-0.554578	0.122400
H85	H	0.890157	-0.632233	0.116841
H86	H	0.938566	-0.544075	0.154326
N87	N	0.787992	0.289858	0.350441
H88	H	0.795772	0.279021	0.412645
H89	H	0.796962	0.364303	0.329720
N90	N	0.894006	-0.390378	0.185051
H91	H	0.892770	-0.468034	0.179497
H92	H	0.941179	-0.379874	0.216979
H93	H	0.801525	0.270968	0.183410
N94	N	0.675227	0.147573	0.144730
H95	H	0.638234	0.146748	0.192271
H96	H	0.713919	0.083259	0.152820
N97	N	0.277908	0.138734	-0.166187
H98	H	0.240921	0.137918	-0.213603
H99	H	0.304736	0.204497	-0.174393
H100	H	0.521584	0.144150	-0.146778
N101	N	1.001044	-0.007177	0.372696
H102	H	1.033514	-0.052432	0.335539
H103	H	1.034615	0.032993	0.405564
H104	H	0.664819	0.147336	-0.147023
