data_functionalizedCrystal
_audit_creation_method	'MofGen! by Chris Wilmer'
_symmetry_space_group_name_H-M	'P1'
_symmetry_Int_Tables_number	1
_symmetry_cell_setting	triclinic
loop_
_symmetry_equiv_pos_as_xyz
  x,y,z
_cell_length_a	19.188930
_cell_length_b	18.266242
_cell_length_c	19.188924
_cell_angle_alpha	90.009637
_cell_angle_beta	83.143372
_cell_angle_gamma	90.013084
loop_
_atom_site_label
_atom_site_type_symbol
_atom_site_fract_x
_atom_site_fract_y
_atom_site_fract_z
O1	O	0.926137	0.061120	0.087171
O2	O	0.722825	0.061070	0.098906
O3	O	0.830351	0.061088	-0.008617
O4	O	0.818611	0.061102	0.194695
O5	O	0.830353	-0.060674	-0.008628
O6	O	0.722828	-0.060692	0.098895
O7	O	0.926139	-0.060642	0.087161
Zn8	Zn	0.824484	-0.080000	0.093027
Zn9	Zn	0.824481	0.080427	0.093040
O10	O	0.818614	-0.060660	0.194684
C11	C	0.696815	0.000182	0.098521
C12	C	0.619311	0.000163	0.097380
N13	N	0.824491	-0.189487	0.093017
C14	C	0.829973	0.000206	-0.034634
C15	C	0.828834	0.000204	-0.112138
C16	C	0.574385	0.000179	0.160471
C17	C	0.501562	0.000187	0.159399
C18	C	0.473667	0.000194	0.095233
C19	C	0.518602	0.000174	0.032134
C20	C	0.591424	0.000158	0.033207
N21	N	0.365687	0.041661	0.046189
N22	N	0.296508	0.041677	0.045174
C23	C	0.254258	0.000238	0.091995
N24	N	0.283798	-0.041208	0.139880
N25	N	0.352983	-0.041221	0.140898
C26	C	0.394704	0.000210	0.094062
C27	C	0.130368	0.000262	0.153928
C28	C	0.057543	0.000265	0.152854
C29	C	0.074585	0.000259	0.025586
C30	C	0.147409	0.000248	0.026663
C31	C	0.175295	0.000253	0.090835
C32	C	0.952149	0.000247	0.087546
C33	C	1.029654	0.000271	0.088687
N34	N	0.824479	0.189914	0.093044
C35	C	0.872176	0.228231	0.045526
C36	C	0.872182	0.304876	0.045524
C37	C	0.824480	0.343201	0.093035
C38	C	0.776779	0.304875	0.140563
C39	C	0.776779	0.228231	0.140567
N40	N	0.762672	0.463525	0.101961
N41	N	0.762675	0.536333	0.101952
C42	C	0.824478	0.574123	0.093024
N43	N	0.886282	0.536355	0.084092
N44	N	0.886279	0.463540	0.084097
C45	C	0.824475	0.426308	0.093035
C46	C	0.872186	0.695547	0.045502
C47	C	0.872193	0.772194	0.045505
C48	C	0.776784	0.772191	0.140540
C49	C	0.776783	0.695546	0.140540
C50	C	0.824483	0.657229	0.093017
C51	C	0.828301	0.066576	-0.148532
C52	C	0.827221	0.066581	-0.221354
C53	C	0.826688	0.000210	-0.257783
C54	C	0.827217	-0.066171	-0.221380
C55	C	0.828290	-0.066174	-0.148558
N56	N	0.864737	-0.049179	-0.377450
N57	N	0.863719	-0.049171	-0.446629
C58	C	0.823454	0.000217	-0.477192
N59	N	0.784254	0.049607	-0.435965
N60	N	0.785275	0.049602	-0.366781
C61	C	0.825524	0.000207	-0.336746
C62	C	0.821749	0.066599	-0.592548
C63	C	0.820665	0.066602	-0.665371
C64	C	0.820668	-0.066152	-0.665397
C65	C	0.821745	-0.066153	-0.592574
C66	C	0.822289	0.000225	-0.556154
C67	C	0.818992	0.000223	0.220700
C68	C	0.820131	0.000230	0.298205
H69	H	0.597086	0.000184	0.212725
H70	H	0.826781	-0.120211	-0.251045
C71	C	0.452135	0.000213	0.228807
N72	N	0.414908	0.000237	0.281085
C73	C	0.828880	-0.139193	-0.108525
N74	N	0.829327	-0.194191	-0.078371
H75	H	0.737940	0.336083	0.179247
C76	C	0.008124	0.000272	0.222263
N77	N	-0.029099	0.000275	0.274543
C78	C	0.161046	0.000258	0.224519
N79	N	0.184151	0.000254	0.277688
C80	C	0.640845	0.000146	-0.036201
N81	N	0.678069	0.000139	-0.088481
C82	C	0.196829	0.000239	-0.042744
N83	N	0.234053	0.000231	-0.095024
H84	H	0.737938	0.197033	0.179264
H85	H	0.737946	0.803395	0.179226
H86	H	0.911029	0.664348	0.006808
C87	C	0.924667	0.814342	-0.006772
N88	N	0.964189	0.846088	-0.046150
C89	C	0.724305	0.653396	0.192807
N90	N	0.684775	0.621649	0.232178
C91	C	0.828893	0.139594	-0.108473
N92	N	0.829337	0.194592	-0.078300
C93	C	0.822337	0.139616	-0.552482
N94	N	0.822778	0.194612	-0.522307
H95	H	0.822185	-0.120201	-0.562943
H96	H	0.820228	0.120653	-0.695001
H97	H	0.051874	0.000310	-0.026659
H98	H	0.826783	0.120631	-0.250991
C99	C	0.820081	-0.139161	-0.705464
N100	N	0.819638	-0.194154	-0.735646
H101	H	0.495885	0.000189	-0.020111
H102	H	0.911018	0.197035	0.006832
C103	C	0.924651	0.347033	-0.006756
N104	N	0.964169	0.378783	-0.046135
