data_functionalizedCrystal
_audit_creation_method	'MofGen! by Chris Wilmer'
_symmetry_space_group_name_H-M	'P1'
_symmetry_Int_Tables_number	1
_symmetry_cell_setting	triclinic
loop_
_symmetry_equiv_pos_as_xyz
  x,y,z
_cell_length_a	12.827893
_cell_length_b	16.959454
_cell_length_c	16.959447
_cell_angle_alpha	90.023171
_cell_angle_beta	90.016444
_cell_angle_gamma	90.020046
loop_
_atom_site_label
_atom_site_type_symbol
_atom_site_fract_x
_atom_site_fract_y
_atom_site_fract_z
Zn1	Zn	1.597608	-0.314694	0.446906
Zn2	Zn	1.597496	-0.446879	0.314736
Zn3	Zn	1.422858	-0.314718	0.314746
Zn4	Zn	1.422821	-0.446835	0.446877
O5	O	1.510196	-0.380781	0.380816
O6	O	1.743830	-0.332237	0.429382
O7	O	1.574299	-0.429375	0.204126
O8	O	1.446101	-0.204104	0.332294
O9	O	1.743747	-0.429353	0.332277
O10	O	1.574490	-0.204087	0.429391
O11	O	1.445993	-0.332278	0.204134
O12	O	1.276617	-0.332235	0.332266
O13	O	1.446038	-0.429278	0.557492
O14	O	1.276590	-0.429301	0.429342
O15	O	1.574454	-0.332195	0.557513
O16	O	1.574263	-0.557484	0.332248
O17	O	1.445929	-0.557451	0.429332
C18	C	1.238686	-0.380766	0.380802
C19	C	1.122533	-0.380779	0.380815
C20	C	1.070708	-0.428760	0.332700
C21	C	0.950657	-0.428774	0.332712
C22	C	1.510108	-0.586148	0.380803
C23	C	1.510166	-0.674004	0.380824
C24	C	1.443470	-1.045493	0.431362
C25	C	1.577213	-1.045467	0.330351
C26	C	1.577177	-0.962921	0.330344
C27	C	1.510284	-0.921657	0.380846
C28	C	1.443429	-0.962939	0.431355
C29	C	1.644023	-0.921632	0.279830
C30	C	1.643989	-0.839081	0.279820
C31	C	1.577101	-0.797816	0.330326
C32	C	1.510244	-0.839104	0.380838
C33	C	1.443352	-0.797840	0.431340
C34	C	1.376499	-0.839126	0.481857
C35	C	1.376541	-0.921674	0.481861
C36	C	1.577059	-0.715268	0.330322
C37	C	1.443311	-0.715287	0.431333
C38	C	1.782766	-0.380797	0.380831
C39	C	1.898919	-0.380804	0.380838
C40	C	1.510254	-0.380729	0.586985
C41	C	1.510279	-0.380706	0.674841
C42	C	1.510312	-0.174613	0.380847
C43	C	1.510362	-0.086757	0.380860
C44	C	1.510198	-0.380777	0.175450
C45	C	1.510375	-0.380577	0.087594
C46	C	1.443432	-0.431243	0.716106
C47	C	1.577144	-0.330143	0.716131
C48	C	1.577166	-0.330118	0.798677
C49	C	1.510318	-0.380654	0.839941
C50	C	1.443450	-0.431217	0.798659
C51	C	1.644026	-0.279550	0.839964
C52	C	1.644049	-0.279521	0.922515
C53	C	1.577207	-0.330063	0.963781
C54	C	1.510336	-0.380628	0.922494
C55	C	1.443489	-0.431165	0.963759
C56	C	1.376623	-0.481735	0.922474
C57	C	1.376607	-0.481759	0.839925
C58	C	1.577222	-0.330040	1.046330
C59	C	1.443506	-0.431139	1.046312
H60	H	1.388843	-0.681695	0.472461
C61	C	0.890451	-0.484272	0.277060
N62	N	0.845100	-0.526076	0.235143
H63	H	1.322030	-0.805520	0.522972
H64	H	0.943481	-0.339720	0.422029
C65	C	1.062411	-0.325291	0.436474
N66	N	1.017128	-0.283493	0.478396
H67	H	1.322112	-0.955297	0.522988
C68	C	1.369930	-1.090907	0.486925
N69	N	1.314538	-1.125115	0.528773
C70	C	1.369880	-0.486865	0.670692
N71	N	1.314478	-0.528759	0.636485
C72	C	1.369967	-0.486735	1.091696
N73	N	1.314575	-0.528608	1.125879
C74	C	1.130830	-0.484241	0.277034
N75	N	1.176113	-0.526029	0.235102
C76	C	1.650780	-1.090859	0.274794
N77	N	1.706192	-1.125053	0.232946
C78	C	1.717584	-0.967027	0.224270
N79	N	1.772990	-1.001222	0.182418
C80	C	1.650594	-0.669857	0.274758
N81	N	1.705987	-0.635655	0.232907
H82	H	1.698425	-0.805471	0.238688
C83	C	1.303085	-0.537318	0.967875
N84	N	1.247697	-0.579181	1.002075
H85	H	1.322167	-0.522929	0.806303
C86	C	1.650770	-0.274416	1.091739
N87	N	1.706173	-0.232519	1.125941
H88	H	1.631563	-0.288995	0.682528
H89	H	1.698445	-0.238403	0.806361
C90	C	1.717609	-0.223899	0.967921
N91	N	1.773019	-0.182006	1.002122
