data_functionalizedCrystal
_audit_creation_method	'MofGen! by Chris Wilmer'
_symmetry_space_group_name_H-M	'P1'
_symmetry_Int_Tables_number	1
_symmetry_cell_setting	triclinic
loop_
_symmetry_equiv_pos_as_xyz
  x,y,z
_cell_length_a	29.839134
_cell_length_b	29.839131
_cell_length_c	17.077396
_cell_angle_alpha	89.968087
_cell_angle_beta	89.970675
_cell_angle_gamma	90.036281
loop_
_atom_site_label
_atom_site_type_symbol
_atom_site_fract_x
_atom_site_fract_y
_atom_site_fract_z
Zn1	Zn	0.686752	-0.178915	-0.444030
Zn2	Zn	1.186752	0.321085	0.055970
Zn3	Zn	0.686675	-0.254046	-0.312756
Zn4	Zn	1.186675	0.245954	0.187244
Zn5	Zn	0.611625	-0.178924	-0.312755
Zn6	Zn	1.111625	0.321076	0.187245
Zn7	Zn	0.611583	-0.254012	-0.443957
Zn8	Zn	1.111583	0.245988	0.056043
O9	O	0.649159	-0.216474	-0.378374
O10	O	1.149159	0.283526	0.121626
O11	O	0.749609	-0.188892	-0.426647
O12	O	1.249609	0.311108	0.073353
O13	O	0.676705	-0.244098	-0.202909
O14	O	1.176705	0.255902	0.297091
O15	O	0.621641	-0.116055	-0.330199
O16	O	1.121641	0.383945	0.169801
O17	O	0.749552	-0.244090	-0.330200
O18	O	1.249552	0.255910	0.169800
O19	O	0.676837	-0.116049	-0.426646
O20	O	1.176837	0.383951	0.073354
O21	O	0.621566	-0.188906	-0.202908
O22	O	1.121566	0.311094	0.297092
O23	O	0.548753	-0.188874	-0.330129
O24	O	1.048753	0.311126	0.169871
O25	O	0.621569	-0.244032	-0.553813
O26	O	1.121569	0.255968	-0.053813
O27	O	0.548721	-0.244041	-0.426522
O28	O	1.048721	0.255959	0.073478
O29	O	0.676795	-0.188859	-0.553867
O30	O	1.176795	0.311141	-0.053867
O31	O	0.676663	-0.316908	-0.330130
O32	O	1.176663	0.183092	0.169870
O33	O	0.621494	-0.316883	-0.426523
O34	O	1.121494	0.183117	0.073477
C35	C	0.532436	-0.216455	-0.378318
C36	C	1.032436	0.283545	0.121682
C37	C	0.482502	-0.216458	-0.378312
C38	C	0.982502	0.283542	0.121688
C39	C	0.172852	-0.245242	-0.428505
C40	C	0.672852	0.254758	0.071495
C41	C	-0.014822	-0.245255	-0.428540
C42	C	0.485178	0.254745	0.071460
O43	O	-0.039092	-0.269707	-0.471182
O44	O	0.460908	0.230293	0.028818
N45	N	-0.038283	-0.216490	-0.378433
N46	N	0.461717	0.283510	0.121567
C47	C	-0.014824	-0.187719	-0.328318
C48	C	0.485176	0.312281	0.171682
O49	O	-0.039086	-0.163250	-0.285707
O50	O	0.460914	0.336750	0.214293
C51	C	0.172848	-0.187704	-0.328288
C52	C	0.672848	0.312296	0.171712
C53	C	0.196308	-0.216474	-0.378392
C54	C	0.696308	0.283526	0.121608
C55	C	0.196311	-0.274008	-0.478605
C56	C	0.696311	0.225992	0.021395
C57	C	0.243226	-0.274007	-0.478593
C58	C	0.743226	0.225993	0.021407
C59	C	0.266682	-0.245238	-0.428480
C60	C	0.766682	0.254762	0.071520
C61	C	0.243223	-0.216472	-0.378380
C62	C	0.743223	0.283528	0.121620
C63	C	0.196307	-0.158931	-0.278178
C64	C	0.696307	0.341069	0.221822
C65	C	0.243228	-0.158929	-0.278176
C66	C	0.743228	0.341071	0.221824
C67	C	0.266687	-0.187698	-0.328280
C68	C	0.766687	0.312302	0.171720
C69	C	0.313595	-0.187702	-0.328255
C70	C	0.813595	0.312298	0.171745
N71	N	0.337056	-0.216466	-0.378361
N72	N	0.837056	0.283534	0.121639
C73	C	0.313600	-0.245234	-0.428474
C74	C	0.813600	0.254766	0.071526
C75	C	-0.113355	-0.187729	-0.328337
C76	C	0.386645	0.312271	0.171663
C77	C	-0.160272	-0.187733	-0.328343
C78	C	0.339728	0.312267	0.171657
C79	C	-0.160267	-0.245269	-0.428566
C80	C	0.339733	0.254731	0.071434
C81	C	-0.113348	-0.245266	-0.428555
C82	C	0.386652	0.254734	0.071445
C83	C	-0.089893	-0.216493	-0.378443
C84	C	0.410107	0.283507	0.121557
C85	C	0.412126	-0.245229	-0.428444
C86	C	0.912126	0.254771	0.071556
C87	C	0.459046	-0.245226	-0.428425
C88	C	0.959046	0.254774	0.071575
C89	C	0.459036	-0.187689	-0.328206
C90	C	0.959036	0.312311	0.171794
C91	C	0.412120	-0.187694	-0.328221
C92	C	0.912120	0.312306	0.171779
C93	C	0.388667	-0.216465	-0.378347
C94	C	0.888667	0.283535	0.121653
O95	O	0.337894	-0.163259	-0.285641
O96	O	0.837894	0.336741	0.214359
O97	O	0.337870	-0.269692	-0.471092
O98	O	0.837870	0.230308	0.028908
C99	C	0.125936	-0.245244	-0.428517
C100	C	0.625936	0.254756	0.071483
C101	C	0.102477	-0.216477	-0.378417
C102	C	0.602477	0.283523	0.121583
C103	C	0.125933	-0.187709	-0.328304
C104	C	0.625933	0.312291	0.171696
C105	C	0.055559	-0.216481	-0.378423
C106	C	0.555559	0.283519	0.121577
C107	C	0.032103	-0.245250	-0.428536
C108	C	0.532103	0.254750	0.071464
C109	C	0.055565	-0.274014	-0.478642
C110	C	0.555565	0.225986	0.021358
C111	C	0.102480	-0.274012	-0.478630
C112	C	0.602480	0.225988	0.021370
C113	C	0.102471	-0.158945	-0.278198
C114	C	0.602471	0.341055	0.221802
C115	C	0.055555	-0.158949	-0.278213
C116	C	0.555555	0.341051	0.221787
C117	C	0.032099	-0.187717	-0.328326
C118	C	0.532099	0.312283	0.171674
C119	C	0.649078	-0.333197	-0.378335
C120	C	1.149078	0.166803	0.121665
C121	C	0.649084	-0.383131	-0.378345
C122	C	1.149084	0.116869	0.121655
C123	C	0.677938	-0.692775	-0.328256
C124	C	1.177938	-0.192775	0.171744
C125	C	0.677993	-0.880448	-0.328286
C126	C	1.177993	-0.380448	0.171714
O127	O	0.702462	-0.904713	-0.285669
O128	O	1.202462	-0.404713	0.214331
N129	N	0.649252	-0.903916	-0.378434
N130	N	1.149252	-0.403916	0.121566
C131	C	0.620497	-0.880463	-0.428580
C132	C	1.120497	-0.380463	0.071420
O133	O	0.596055	-0.904731	-0.471240
O134	O	1.096055	-0.404731	0.028760
C135	C	0.620444	-0.692791	-0.428553
C136	C	1.120444	-0.192791	0.071447
C137	C	0.649184	-0.669325	-0.378397
C138	C	1.149184	-0.169325	0.121603
C139	C	0.706676	-0.669309	-0.278105
C140	C	1.206676	-0.169309	0.221895
C141	C	0.706660	-0.622393	-0.278094
C142	C	1.206660	-0.122393	0.221906
C143	C	0.677906	-0.598944	-0.328236
C144	C	1.177906	-0.098944	0.171764
C145	C	0.649168	-0.622410	-0.378387
C146	C	1.149168	-0.122410	0.121613
C147	C	0.591691	-0.669339	-0.478703
C148	C	1.091691	-0.169339	0.021297
C149	C	0.591681	-0.622418	-0.478693
C150	C	1.091681	-0.122418	0.021307
C151	C	0.620421	-0.598952	-0.428537
C152	C	1.120421	-0.098952	0.071463
C153	C	0.620398	-0.552045	-0.428518
C154	C	1.120398	-0.052045	0.071482
N155	N	0.649140	-0.528576	-0.378371
N156	N	1.149140	-0.028576	0.121629
C157	C	0.677894	-0.552026	-0.328230
C158	C	1.177894	-0.052026	0.171770
C159	C	0.620526	-0.978994	-0.428590
C160	C	1.120526	-0.478994	0.071410
C161	C	0.620538	-1.025912	-0.428596
C162	C	1.120538	-0.525912	0.071404
C163	C	0.678036	-1.025893	-0.328303
C164	C	1.178036	-0.525893	0.171697
C165	C	0.678021	-0.978974	-0.328293
C166	C	1.178021	-0.478974	0.171707
C167	C	0.649267	-0.955525	-0.378443
C168	C	1.149267	-0.455525	0.121557
C169	C	0.677858	-0.453500	-0.328212
C170	C	1.177858	0.046500	0.171788
C171	C	0.677838	-0.406580	-0.328204
C172	C	1.177838	0.093420	0.171796
C173	C	0.620343	-0.406603	-0.428499
C174	C	1.120343	0.093397	0.071501
C175	C	0.620360	-0.453519	-0.428505
C176	C	1.120360	0.046481	0.071495
C177	C	0.649122	-0.476966	-0.378358
C178	C	1.149122	0.023034	0.121642
O179	O	0.595946	-0.527751	-0.471119
O180	O	1.095946	-0.027751	0.028881
O181	O	0.702339	-0.527750	-0.285589
O182	O	1.202339	-0.027750	0.214411
C183	C	0.677954	-0.739690	-0.328266
C184	C	1.177954	-0.239690	0.171734
C185	C	0.649216	-0.763156	-0.378417
C186	C	1.149216	-0.263156	0.121583
C187	C	0.620462	-0.739707	-0.428559
C188	C	1.120462	-0.239707	0.071441
C189	C	0.649228	-0.810074	-0.378423
C190	C	1.149228	-0.310074	0.121577
C191	C	0.677982	-0.833523	-0.328282
C192	C	1.177982	-0.333523	0.171718
C193	C	0.706724	-0.810055	-0.278135
C194	C	1.206724	-0.310055	0.221865
C195	C	0.706708	-0.763139	-0.278125
C196	C	1.206708	-0.263139	0.221875
C197	C	0.591720	-0.763175	-0.478706
C198	C	1.091720	-0.263175	0.021294
C199	C	0.591738	-0.810090	-0.478711
C200	C	1.091738	-0.310090	0.021289
C201	C	0.620492	-0.833540	-0.428570
C202	C	1.120492	-0.333540	0.071430
C203	C	0.766337	-0.216493	-0.378432
C204	C	1.266337	0.283507	0.121568
C205	C	0.816272	-0.216502	-0.378456
C206	C	1.316272	0.283498	0.121544
C207	C	0.649186	-0.216441	-0.583119
C208	C	1.149186	0.283559	-0.083119
C209	C	0.649198	-0.216427	-0.670369
C210	C	1.149198	0.283573	-0.170369
C211	C	0.649252	-0.099296	-0.378431
C212	C	1.149252	0.400704	0.121569
C213	C	0.649292	-0.049361	-0.378455
C214	C	1.149292	0.450639	0.121545
C215	C	0.677955	-0.187696	-0.711388
C216	C	1.177955	0.312304	-0.211388
C217	C	0.677961	-0.187681	-0.793368
C218	C	1.177961	0.312319	-0.293368
C219	C	0.649210	-0.216399	-0.834328
C220	C	1.149210	0.283601	-0.334328
C221	C	0.620450	-0.245132	-0.793303
C222	C	1.120450	0.254868	-0.293303
C223	C	0.620442	-0.245144	-0.711324
C224	C	1.120442	0.254856	-0.211324
C225	C	0.620468	-0.245105	-0.964173
C226	C	1.120468	0.254895	-0.464173
C227	C	0.620475	-0.245093	-1.046158
C228	C	1.120475	0.254907	-0.546158
C229	C	0.677986	-0.187641	-1.046218
C230	C	1.177986	0.312359	-0.546218
C231	C	0.677979	-0.187654	-0.964239
C232	C	1.177979	0.312346	-0.464239
C233	C	0.649218	-0.216387	-0.923219
C234	C	1.149218	0.283613	-0.423219
C235	C	0.649158	-0.216475	-0.174426
C236	C	1.149158	0.283525	0.325574
C237	C	0.649233	-0.216362	-0.087177
C238	C	1.149233	0.283638	0.412823
H239	H	0.121564	-0.135518	-0.237389
H240	H	0.621564	0.364482	0.262611
Cl241	Cl	0.272711	-0.122755	-0.215175
Cl242	Cl	0.772711	0.377245	0.284825
H243	H	0.568331	-0.829192	-0.519554
H244	H	1.068331	-0.329192	-0.019554
Cl245	Cl	0.584304	-0.281234	-0.844795
Cl246	Cl	1.084304	0.218766	-0.344795
Cl247	Cl	0.742842	-0.733646	-0.215071
Cl248	Cl	1.242842	-0.233646	0.284929
H249	H	0.730135	-0.829156	-0.237306
H250	H	1.230135	-0.329156	0.262694
Cl251	Cl	0.714125	-0.151552	-0.912747
Cl252	Cl	1.214125	0.348448	-0.412747
H253	H	0.730064	-0.603290	-0.237255
H254	H	1.230064	-0.103290	0.262745
H255	H	0.036458	-0.297439	-0.519443
H256	H	0.536458	0.202561	-0.019443
H257	H	0.568306	-0.744086	-0.519538
H258	H	1.068306	-0.244086	-0.019538
Cl259	Cl	0.584287	-0.281264	-0.659757
Cl260	Cl	1.084287	0.218736	-0.159757
Cl261	Cl	0.714142	-0.151520	-1.097784
Cl262	Cl	1.214142	0.348480	-0.597784
H263	H	0.701368	-0.164311	-0.678044
H264	H	1.201368	0.335689	-0.178044
Cl265	Cl	0.488535	-0.281396	-0.491416
Cl266	Cl	0.988535	0.218604	0.008584
Cl267	Cl	0.555532	-0.592943	-0.541744
Cl268	Cl	1.055532	-0.092943	-0.041744
H269	H	0.597064	-0.268478	-1.079505
H270	H	1.097064	0.231522	-0.579505
Cl271	Cl	0.714134	-0.151580	-0.844932
Cl272	Cl	1.214134	0.348420	-0.344932
H273	H	0.730093	-0.688396	-0.237273
H274	H	1.230093	-0.188396	0.262727
H275	H	0.393019	-0.164268	-0.287421
H276	H	0.893019	0.335732	0.212579
Cl277	Cl	0.584311	-0.281227	-0.912607
Cl278	Cl	1.084311	0.218773	-0.412607
H279	H	0.393036	-0.268656	-0.469263
H280	H	0.893036	0.231344	0.030737
Cl281	Cl	0.714183	-1.055381	-0.265267
Cl282	Cl	1.214183	-0.555381	0.234733
Cl283	Cl	0.272711	-0.310173	-0.541589
Cl284	Cl	0.772711	0.189827	-0.041589
H285	H	0.121577	-0.297439	-0.519430
H286	H	0.621577	0.202561	-0.019430
Cl287	Cl	0.714014	-0.482969	-0.265168
Cl288	Cl	1.214014	0.017031	0.234832
Cl289	Cl	0.166832	-0.310180	-0.541613
Cl290	Cl	0.666832	0.189820	-0.041613
H291	H	-0.094251	-0.268692	-0.469355
H292	H	0.405749	0.231308	0.030645
Cl293	Cl	0.488532	-0.151525	-0.265211
Cl294	Cl	0.988532	0.348475	0.234789
Cl295	Cl	0.713971	-0.377083	-0.265146
Cl296	Cl	1.213971	0.122917	0.234854
Cl297	Cl	-0.189763	-0.281431	-0.491570
Cl298	Cl	0.310237	0.218569	0.008430
H299	H	-0.179369	-0.164311	-0.287536
H300	H	0.320631	0.335689	0.212464
H301	H	0.177214	-0.135505	-0.237375
H302	H	0.677214	0.364495	0.262625
H303	H	0.036459	-0.135522	-0.237405
H304	H	0.536459	0.364478	0.262595
Cl305	Cl	-0.083875	-0.151554	-0.265332
Cl306	Cl	0.416125	0.348446	0.234668
H307	H	0.597131	-1.045014	-0.469431
H308	H	1.097131	-0.545014	0.030569
Cl309	Cl	0.714153	-0.949479	-0.265239
Cl310	Cl	1.214153	-0.449479	0.234761
Cl311	Cl	0.584220	-0.483020	-0.491543
Cl312	Cl	1.084220	0.016980	0.008457
Cl313	Cl	0.584374	-0.949522	-0.491640
Cl314	Cl	1.084374	-0.449522	0.008360
H315	H	0.568286	-0.688437	-0.519542
H316	H	1.068286	-0.188437	-0.019542
H317	H	0.596930	-0.387504	-0.469322
H318	H	1.096930	0.112496	0.030678
