data_functionalizedCrystal
_audit_creation_method	'MofGen! by Chris Wilmer'
_symmetry_space_group_name_H-M	'P1'
_symmetry_Int_Tables_number	1
_symmetry_cell_setting	triclinic
loop_
_symmetry_equiv_pos_as_xyz
  x,y,z
_cell_length_a	17.640280
_cell_length_b	12.827893
_cell_length_c	12.827885
_cell_angle_alpha	90.021189
_cell_angle_beta	78.769256
_cell_angle_gamma	101.201443
loop_
_atom_site_label
_atom_site_type_symbol
_atom_site_fract_x
_atom_site_fract_y
_atom_site_fract_z
Zn1	Zn	-0.314671	-1.681797	-0.506873
Zn2	Zn	-0.446866	-1.717033	-0.296832
Zn3	Zn	-0.314705	-1.507048	-0.332131
Zn4	Zn	-0.446803	-1.542349	-0.471543
O5	O	-0.380761	-1.612057	-0.401845
O6	O	-0.332219	-1.832710	-0.479023
O7	O	-0.429375	-1.689151	-0.155267
O8	O	-0.204093	-1.500708	-0.384870
O9	O	-0.429342	-1.858598	-0.324707
O10	O	-0.204068	-1.629096	-0.513252
O11	O	-0.332277	-1.534875	-0.181202
O12	O	-0.332216	-1.365491	-0.350612
O13	O	-0.429234	-1.560875	-0.622476
O14	O	-0.429268	-1.391427	-0.453037
O15	O	-0.332158	-1.663326	-0.648433
O16	O	-0.557464	-1.723382	-0.290449
O17	O	-0.557418	-1.595042	-0.418808
C18	C	-0.380739	-1.340541	-0.401821
C19	C	-0.380749	-1.224391	-0.401831
C20	C	-0.332774	-1.159818	-0.478267
C21	C	-0.332783	-1.039770	-0.478278
C22	C	-0.586121	-1.666894	-0.346987
C23	C	-0.673974	-1.690450	-0.323554
C24	C	-0.962931	-1.433538	-0.580245
C25	C	-1.045483	-1.455674	-0.558193
C26	C	-1.045466	-1.589397	-0.424667
C27	C	-0.962912	-1.567276	-0.446712
C28	C	-0.921651	-1.489344	-0.524501
C29	C	-0.921632	-1.623082	-0.390968
C30	C	-0.839086	-1.600959	-0.413008
C31	C	-0.797820	-1.523029	-0.490791
C32	C	-0.839105	-1.467221	-0.546541
C33	C	-0.962895	-1.701008	-0.313174
C34	C	-0.921615	-1.756815	-0.257430
C35	C	-0.839067	-1.734697	-0.279475
C36	C	-0.797801	-1.656767	-0.357258
C37	C	-0.797781	-1.790505	-0.223725
C38	C	-0.715235	-1.768381	-0.245765
C39	C	-0.715254	-1.634643	-0.379298
C40	C	-0.174600	-1.557034	-0.456939
C41	C	-0.086746	-1.533586	-0.480417
C42	C	-0.380685	-1.612108	-0.674435
C43	C	-0.380653	-1.612129	-0.790597
C44	C	-0.380777	-0.884631	-0.401862
C45	C	-0.380767	-1.000782	-0.401852
C46	C	-0.332607	-1.662830	-0.855229
C47	C	-0.332572	-1.662854	-0.975288
C48	C	-0.380780	-1.612051	-0.130330
C49	C	-0.380589	-1.612172	-0.014228
H50	H	-0.421828	-1.190798	-0.336399
H51	H	-0.805509	-1.403769	-0.609892
O52	O	-0.283651	-1.199803	-0.556252
C53	C	-0.204837	-1.152120	-0.554689
H54	H	-0.200749	-1.120918	-0.472336
H55	H	-0.165839	-1.213531	-0.574125
H56	H	-0.184192	-1.083356	-0.616340
H57	H	-0.681658	-1.571191	-0.442649
H58	H	-0.291712	-0.984289	-0.543720
H59	H	-0.421847	-1.056259	-0.336414
H60	H	-0.730605	-1.505010	-0.508727
O61	O	-0.922966	-1.357783	-0.655826
C62	C	-0.977099	-1.313296	-0.700337
H63	H	-1.035960	-1.325456	-0.641815
H64	H	-0.953282	-1.224577	-0.717787
H65	H	-0.985827	-1.353877	-0.777399
H66	H	-1.079090	-1.410236	-0.603604
O67	O	-1.043081	-1.722408	-0.291599
C68	C	-1.070720	-1.703054	-0.184037
H69	H	-1.023196	-1.644779	-0.153481
H70	H	-1.125969	-1.667750	-0.176729
H71	H	-1.085346	-1.780980	-0.134924
H72	H	-1.079072	-1.652846	-0.361328
O73	O	-0.429809	-1.560444	-0.830465
C74	C	-0.508614	-1.604305	-0.782833
H75	H	-0.510331	-1.644844	-0.703104
H76	H	-0.544055	-1.538341	-0.769729
H77	H	-0.535180	-1.665193	-0.837147
O78	O	-0.961740	-1.832624	-0.182002
C79	C	-1.009450	-1.912850	-0.228813
H80	H	-0.984538	-1.912598	-0.317775
H81	H	-1.010369	-1.993535	-0.190837
H82	H	-1.072023	-1.897293	-0.215679
H83	H	-0.291441	-1.706264	-1.030820
O84	O	-0.837906	-1.866313	-0.148295
C85	C	-0.885618	-1.946540	-0.195101
H86	H	-0.860708	-1.946291	-0.284064
H87	H	-0.886536	-2.027224	-0.157124
H88	H	-0.948190	-1.930982	-0.181965
O89	O	-0.675253	-1.822718	-0.191550
C90	C	-0.729371	-1.896227	-0.118147
H91	H	-0.788193	-1.915596	-0.145248
H92	H	-0.705473	-1.972160	-0.113452
H93	H	-0.738207	-1.860368	-0.036388
O94	O	-0.429633	-1.560232	-0.948120
C95	C	-0.412353	-1.451447	-0.979299
H96	H	-0.381994	-1.441124	-1.066682
H97	H	-0.469397	-1.419817	-0.967681
H98	H	-0.371695	-1.405434	-0.928749
O99	O	-0.283526	-1.714443	-0.815107
C100	C	-0.232517	-1.641261	-0.765614
H101	H	-0.260400	-1.569486	-0.741914
H102	H	-0.222007	-1.680931	-0.691629
H103	H	-0.173899	-1.614190	-0.823275
