data_functionalizedCrystal
_audit_creation_method	'MofGen! by Chris Wilmer'
_symmetry_space_group_name_H-M	'P1'
_symmetry_Int_Tables_number	1
_symmetry_cell_setting	triclinic
loop_
_symmetry_equiv_pos_as_xyz
  x,y,z
_cell_length_a	10.654550
_cell_length_b	9.065218
_cell_length_c	9.730223
_cell_angle_alpha	90.000469
_cell_angle_beta	89.996251
_cell_angle_gamma	84.750394
loop_
_atom_site_label
_atom_site_type_symbol
_atom_site_fract_x
_atom_site_fract_y
_atom_site_fract_z
O1	O	1.668655	0.207228	-0.114397
O2	O	1.303254	0.226972	-0.114374
O3	O	1.493507	0.002417	-0.114383
O4	O	1.478402	0.431784	-0.114388
O5	O	1.493505	0.002422	0.114197
O6	O	1.303252	0.226978	0.114206
O7	O	1.668653	0.207234	0.114183
Zn8	Zn	1.485952	0.217107	0.150486
Zn9	Zn	1.485955	0.217099	-0.150678
O10	O	1.478400	0.431790	0.114192
C11	C	1.256450	0.225525	-0.000082
C12	C	1.116989	0.221188	-0.000073
C13	C	1.492055	-0.052559	-0.000096
C14	C	1.487714	-0.216378	-0.000102
C15	C	1.038027	0.353403	-0.000095
C16	C	0.906990	0.349319	-0.000118
C17	C	0.933890	0.080793	-0.000105
C18	C	1.064925	0.084879	-0.000071
C19	C	1.022496	0.508434	-0.000108
C20	C	0.891459	0.504350	-0.000132
C21	C	1.715457	0.208681	-0.000113
C22	C	1.854918	0.213018	-0.000130
C23	C	1.479852	0.486766	-0.000099
C24	C	1.484193	0.650585	-0.000102
N25	N	1.485959	0.217111	0.356023
N26	N	1.485958	0.217084	-0.356214
C27	C	1.570225	0.117712	0.427945
C28	C	1.570222	0.117694	0.571828
C29	C	1.401682	0.316488	0.571854
C30	C	1.401681	0.316497	0.427973
C31	C	1.667534	0.002944	0.427931
C32	C	1.667531	0.002926	0.571814
H33	H	1.129212	-0.022783	-0.000034
C34	C	1.877048	0.057769	0.512602
C35	C	1.797948	0.037045	0.624536
H36	H	1.957556	0.078838	0.545154
H37	H	1.885617	-0.029688	0.458362
H38	H	1.841623	0.138230	0.458389
H39	H	1.833369	-0.043423	0.678744
H40	H	1.789383	0.124512	0.678798
C41	C	1.231125	0.346611	0.733678
C42	C	1.309053	0.425732	0.650952
H43	H	1.173946	0.414059	0.782514
H44	H	1.185258	0.284719	0.677543
H45	H	1.281325	0.287413	0.797099
H46	H	1.258853	0.484922	0.587524
H47	H	1.354924	0.487650	0.707092
H48	H	0.891483	-0.030185	-0.000124
H49	H	1.052066	0.569069	0.095557
H50	H	1.058348	0.557796	-0.098796
H51	H	1.758860	0.038880	0.383298
C52	C	0.923350	0.613313	0.220591
C53	C	0.830040	0.567604	0.133078
H54	H	0.885427	0.652367	0.302824
H55	H	0.981773	0.531048	0.242020
H56	H	0.966117	0.687543	0.176285
H57	H	0.787278	0.493365	0.177382
H58	H	0.771595	0.649879	0.111651
H59	H	0.849958	0.562761	-0.095800
H60	H	1.333054	0.397423	0.369416
H61	H	1.645642	-0.110463	0.388879
H62	H	1.636593	-0.104243	0.616432
