data_functionalizedCrystal
_audit_creation_method	'MofGen! by Chris Wilmer'
_symmetry_space_group_name_H-M	'P1'
_symmetry_Int_Tables_number	1
_symmetry_cell_setting	triclinic
loop_
_symmetry_equiv_pos_as_xyz
  x,y,z
_cell_length_a	15.944545
_cell_length_b	15.944551
_cell_length_c	15.021413
_cell_angle_alpha	89.996935
_cell_angle_beta	90.004532
_cell_angle_gamma	83.497455
loop_
_atom_site_label
_atom_site_type_symbol
_atom_site_fract_x
_atom_site_fract_y
_atom_site_fract_z
O1	O	1.114532	0.108296	0.073976
O2	O	1.364532	0.358296	0.323976
O3	O	1.614532	0.608296	0.573976
O4	O	1.864532	0.858296	0.823976
O5	O	0.869982	0.121657	0.073991
O6	O	1.119982	0.371657	0.323991
O7	O	1.369982	0.621657	0.573991
O8	O	1.619982	0.871657	0.823991
O9	O	0.998935	-0.007298	0.073975
O10	O	1.248935	0.242702	0.323975
O11	O	1.498935	0.492702	0.573975
O12	O	1.748935	0.742702	0.823975
O13	O	0.985579	0.237252	0.073992
O14	O	1.235579	0.487252	0.323992
O15	O	1.485579	0.737252	0.573992
O16	O	1.735579	0.987252	0.823992
O17	O	0.998915	-0.007280	-0.074089
O18	O	1.248915	0.242720	0.175911
O19	O	1.498915	0.492720	0.425911
O20	O	1.748915	0.742720	0.675911
O21	O	0.869961	0.121676	-0.074073
O22	O	1.119961	0.371676	0.175927
O23	O	1.369961	0.621676	0.425927
O24	O	1.619961	0.871676	0.675927
O25	O	1.114512	0.108314	-0.074088
O26	O	1.364512	0.358314	0.175912
O27	O	1.614512	0.608314	0.425912
O28	O	1.864512	0.858314	0.675912
Zn29	Zn	0.992233	0.114998	-0.097589
Zn30	Zn	1.242233	0.364998	0.152411
Zn31	Zn	1.492233	0.614998	0.402411
Zn32	Zn	1.742233	0.864998	0.652411
Zn33	Zn	0.992260	0.114974	0.097492
Zn34	Zn	1.242260	0.364974	0.347492
Zn35	Zn	1.492260	0.614974	0.597492
Zn36	Zn	1.742260	0.864974	0.847492
O37	O	0.985558	0.237270	-0.074072
O38	O	1.235558	0.487270	0.175928
O39	O	1.485558	0.737270	0.425928
O40	O	1.735558	0.987270	0.675928
C41	C	0.838677	0.121113	-0.000039
C42	C	1.088677	0.371113	0.249961
C43	C	1.338677	0.621113	0.499961
C44	C	1.588677	0.871113	0.749961
C45	C	0.745431	0.119453	-0.000034
C46	C	0.995431	0.369453	0.249966
C47	C	1.245431	0.619453	0.499966
C48	C	1.495431	0.869453	0.749966
C49	C	0.998370	-0.038583	-0.000057
C50	C	1.248370	0.211417	0.249943
C51	C	1.498370	0.461417	0.499943
C52	C	1.748370	0.711417	0.749943
C53	C	0.996708	-0.131829	-0.000057
C54	C	1.246708	0.118171	0.249943
C55	C	1.496708	0.368171	0.499943
C56	C	1.746708	0.618171	0.749943
C57	C	0.474798	0.034559	-0.000049
C58	C	0.724798	0.284559	0.249951
C59	C	0.974798	0.534559	0.499951
C60	C	1.224798	0.784559	0.749951
C61	C	0.525370	0.075497	-0.073052
C62	C	0.775370	0.325497	0.176948
C63	C	1.025370	0.575497	0.426948
C64	C	1.275370	0.825497	0.676948
C65	C	0.409787	0.113532	-0.000050
C66	C	0.659787	0.363532	0.249950
C67	C	0.909787	0.613532	0.499950
C68	C	1.159787	0.863532	0.749950
C69	C	0.525371	0.075500	0.072928
C70	C	0.775371	0.325500	0.322928
C71	C	1.025371	0.575500	0.572928
C72	C	1.275371	0.825500	0.822928
C73	C	0.574701	0.116437	-0.000040
C74	C	0.824701	0.366437	0.249960
C75	C	1.074701	0.616437	0.499960
C76	C	1.324701	0.866437	0.749960
C77	C	0.459131	0.154449	-0.073113
C78	C	0.709131	0.404449	0.176887
C79	C	0.959131	0.654449	0.426887
C80	C	1.209131	0.904449	0.676887
C81	C	0.459128	0.154440	0.072933
C82	C	0.709128	0.404440	0.322933
C83	C	0.959128	0.654440	0.572933
C84	C	1.209128	0.904440	0.822933
C85	C	0.509667	0.195436	-0.000088
C86	C	0.759667	0.445436	0.249912
C87	C	1.009667	0.695436	0.499912
C88	C	1.259667	0.945436	0.749912
C89	C	0.314785	0.111856	-0.000056
C90	C	0.564785	0.361856	0.249944
C91	C	0.814785	0.611856	0.499944
C92	C	1.064785	0.861856	0.749944
C93	C	0.669700	0.118119	-0.000041
C94	C	0.919700	0.368119	0.249959
C95	C	1.169700	0.618119	0.499959
C96	C	1.419700	0.868119	0.749959
C97	C	0.912803	-0.346684	-0.000040
C98	C	1.162803	-0.096684	0.249960
C99	C	1.412803	0.153316	0.499960
C100	C	1.662803	0.403316	0.749960
C101	C	0.951756	-0.407693	-0.073047
C102	C	1.201756	-0.157693	0.176953
C103	C	1.451756	0.092307	0.426953
C104	C	1.701756	0.342307	0.676953
C105	C	0.993701	-0.302555	-0.000050
C106	C	1.243701	-0.052555	0.249950
C107	C	1.493701	0.197445	0.499950
C108	C	1.743701	0.447445	0.749950
C109	C	0.951795	-0.407695	0.072933
C110	C	1.201795	-0.157695	0.322933
C111	C	1.451795	0.092305	0.572933
C112	C	1.701795	0.342305	0.822933
C113	C	0.990790	-0.467468	-0.000040
C114	C	1.240790	-0.217468	0.249960
C115	C	1.490790	0.032532	0.499960
C116	C	1.740790	0.282532	0.749960
C117	C	1.032675	-0.362336	-0.073118
C118	C	1.282675	-0.112336	0.176882
C119	C	1.532675	0.137664	0.426882
C120	C	1.782675	0.387664	0.676882
C121	C	1.032703	-0.362331	0.072928
C122	C	1.282703	-0.112331	0.322928
C123	C	1.532703	0.137669	0.572928
C124	C	1.782703	0.387669	0.822928
C125	C	1.071715	-0.423322	-0.000097
C126	C	1.321715	-0.173322	0.249903
C127	C	1.571715	0.076678	0.499903
C128	C	1.821715	0.326678	0.749903
C129	C	0.995375	-0.207553	-0.000057
C130	C	1.245375	0.042447	0.249943
C131	C	1.495375	0.292447	0.499943
C132	C	1.745375	0.542447	0.749943
C133	C	0.989122	-0.562469	-0.000039
C134	C	1.239122	-0.312469	0.249961
C135	C	1.489122	-0.062469	0.499961
C136	C	1.739122	0.187531	0.749961
C137	C	1.145816	0.108859	-0.000056
C138	C	1.395816	0.358859	0.249944
C139	C	1.645816	0.608859	0.499944
C140	C	1.895816	0.858859	0.749944
C141	C	1.239062	0.110519	-0.000055
C142	C	1.489062	0.360519	0.249945
C143	C	1.739062	0.610519	0.499945
C144	C	1.989062	0.860519	0.749945
C145	C	0.986123	0.268555	-0.000038
C146	C	1.236123	0.518555	0.249962
C147	C	1.486123	0.768555	0.499962
C148	C	1.736123	1.018555	0.749962
C149	C	0.987785	0.361801	-0.000032
C150	C	1.237785	0.611801	0.249968
C151	C	1.487785	0.861801	0.499968
C152	C	1.737785	1.111801	0.749968
N153	N	0.992221	0.115014	-0.230727
N154	N	1.242221	0.365014	0.019273
N155	N	1.492221	0.615014	0.269273
N156	N	1.742221	0.865014	0.519273
C157	C	0.932584	0.174615	-0.470402
C158	C	1.182584	0.424615	-0.220402
C159	C	1.432584	0.674615	0.029598
C160	C	1.682584	0.924615	0.279598
C161	C	1.008484	0.190920	-0.529740
C162	C	1.258484	0.440920	-0.279740
C163	C	1.508484	0.690920	-0.029740
C164	C	1.758484	0.940920	0.220260
C165	C	0.992242	0.114993	-0.412333
C166	C	1.242242	0.364993	-0.162333
C167	C	1.492242	0.614993	0.087667
C168	C	1.742242	0.864993	0.337667
C169	C	0.916362	0.098706	-0.529737
C170	C	1.166362	0.348706	-0.279737
C171	C	1.416362	0.598706	-0.029737
C172	C	1.666362	0.848706	0.220263
C173	C	0.992256	0.114975	-0.587757
C174	C	1.242256	0.364975	-0.337757
C175	C	1.492256	0.614975	-0.087757
C176	C	1.742256	0.864975	0.162243
C177	C	1.068181	0.131336	-0.470365
C178	C	1.318181	0.381336	-0.220365
C179	C	1.568181	0.631336	0.029635
C180	C	1.818181	0.881336	0.279635
C181	C	0.976009	0.039089	-0.470357
C182	C	1.226009	0.289089	-0.220357
C183	C	1.476009	0.539089	0.029643
C184	C	1.726009	0.789089	0.279643
C185	C	1.051965	0.055362	-0.529668
C186	C	1.301965	0.305362	-0.279668
C187	C	1.551965	0.555362	-0.029668
C188	C	1.801965	0.805362	0.220332
C189	C	0.992233	0.115006	-0.311276
C190	C	1.242233	0.365006	-0.061276
C191	C	1.492233	0.615006	0.188724
C192	C	1.742233	0.865006	0.438724
C193	C	0.992274	0.114961	-0.688813
C194	C	1.242274	0.364961	-0.438813
C195	C	1.492274	0.614961	-0.188813
C196	C	1.742274	0.864961	0.061187
N197	N	0.992279	0.114951	0.230630
N198	N	1.242279	0.364951	0.480630
N199	N	1.492279	0.614951	0.730630
N200	N	1.742279	0.864951	0.980630
H201	H	0.459145	-0.033453	-0.000125
H202	H	0.709145	0.216547	0.249875
H203	H	0.959145	0.466547	0.499875
H204	H	1.209145	0.716547	0.749875
O205	O	0.563718	0.031286	0.154656
O206	O	0.813718	0.281286	0.404656
O207	O	1.063718	0.531286	0.654656
O208	O	1.313718	0.781286	0.904656
H209	H	0.596139	0.076393	0.194782
H210	H	0.846139	0.326393	0.444782
H211	H	1.096139	0.576393	0.694782
H212	H	1.346139	0.826393	0.944782
H213	H	0.525159	0.263501	-0.000126
H214	H	0.775159	0.513501	0.249874
H215	H	1.025159	0.763501	0.499874
H216	H	1.275159	1.013501	0.749874
H217	H	1.022227	0.255103	-0.555824
H218	H	1.272227	0.505103	-0.305824
H219	H	1.522227	0.755103	-0.055824
H220	H	1.772227	1.005103	0.194176
H221	H	1.138922	-0.456483	-0.000142
H222	H	1.388922	-0.206483	0.249858
H223	H	1.638922	0.043517	0.499858
H224	H	1.888922	0.293517	0.749858
H225	H	0.882183	0.225076	-0.444381
H226	H	1.132183	0.475076	-0.194381
H227	H	1.382183	0.725076	0.055619
H228	H	1.632183	0.975076	0.305619
O229	O	0.420775	0.198566	0.154688
O230	O	0.670775	0.448566	0.404688
O231	O	0.920775	0.698566	0.654688
O232	O	1.170775	0.948566	0.904688
H233	H	0.447431	0.165632	0.215201
H234	H	0.697431	0.415632	0.465201
H235	H	0.947431	0.665632	0.715201
H236	H	1.197431	0.915632	0.965201
H237	H	1.132371	0.145180	-0.444394
H238	H	1.382371	0.395180	-0.194394
H239	H	1.632371	0.645180	0.055606
H240	H	1.882371	0.895180	0.305606
H241	H	1.102477	0.004931	-0.555526
H242	H	1.352477	0.254931	-0.305526
H243	H	1.602477	0.504931	-0.055526
H244	H	1.852477	0.754931	0.194474
H245	H	0.917531	-0.427793	-0.134765
H246	H	1.167531	-0.177793	0.115235
H247	H	1.417531	0.072207	0.365235
H248	H	1.667531	0.322207	0.615235
H249	H	1.066854	-0.342338	-0.134907
H250	H	1.316854	-0.092338	0.115093
H251	H	1.566854	0.157662	0.365093
H252	H	1.816854	0.407662	0.615093
O253	O	1.078001	-0.335663	0.154678
O254	O	1.328001	-0.085663	0.404678
O255	O	1.578001	0.164337	0.654678
O256	O	1.828001	0.414337	0.904678
H257	H	1.044297	-0.353615	0.215195
H258	H	1.294297	-0.103615	0.465195
H259	H	1.544297	0.146385	0.715195
H260	H	1.794297	0.396385	0.965195
H261	H	0.430313	0.187784	-0.134897
H262	H	0.680313	0.437784	0.115103
H263	H	0.930313	0.687784	0.365103
H264	H	1.180313	0.937784	0.615103
H265	H	0.962243	-0.025073	-0.444252
H266	H	1.212243	0.224927	-0.194252
H267	H	1.462243	0.474927	0.055748
H268	H	1.712243	0.724927	0.305748
H269	H	0.917577	-0.427778	0.134659
H270	H	1.167577	-0.177778	0.384659
H271	H	1.417577	0.072222	0.634659
H272	H	1.667577	0.322222	0.884659
H273	H	0.554292	0.042152	-0.134775
H274	H	0.804292	0.292152	0.115225
H275	H	1.054292	0.542152	0.365225
H276	H	1.304292	0.792152	0.615225
O277	O	0.831359	0.080461	-0.564290
O278	O	1.081359	0.330461	-0.314290
O279	O	1.331359	0.580461	-0.064290
O280	O	1.581359	0.830461	0.185710
H281	H	0.788826	0.071975	-0.507298
H282	H	1.038826	0.321975	-0.257298
H283	H	1.288826	0.571975	-0.007298
H284	H	1.538826	0.821975	0.242702
O285	O	0.823864	-0.302549	-0.000125
O286	O	1.073864	-0.052549	0.249875
O287	O	1.323864	0.197451	0.499875
O288	O	1.573864	0.447451	0.749875
H289	H	0.790475	-0.320590	-0.060818
H290	H	1.040475	-0.070590	0.189182
H291	H	1.290475	0.179410	0.439182
H292	H	1.540475	0.429410	0.689182
