data_functionalizedCrystal
_audit_creation_method	'MofGen! by Chris Wilmer'
_symmetry_space_group_name_H-M	'P1'
_symmetry_Int_Tables_number	1
_symmetry_cell_setting	triclinic
loop_
_symmetry_equiv_pos_as_xyz
  x,y,z
_cell_length_a	16.120297
_cell_length_b	12.759401
_cell_length_c	12.759400
_cell_angle_alpha	89.984446
_cell_angle_beta	92.876661
_cell_angle_gamma	87.120011
loop_
_atom_site_label
_atom_site_type_symbol
_atom_site_fract_x
_atom_site_fract_y
_atom_site_fract_z
Zn1	Zn	-0.471371	-1.576124	-0.448372
Zn2	Zn	-0.138038	-1.242791	-0.115038
Zn3	Zn	0.195296	-0.909457	0.218295
Zn4	Zn	-0.331969	-1.584933	-0.615156
Zn5	Zn	0.001364	-1.251599	-0.281823
Zn6	Zn	0.334697	-0.918266	0.051510
Zn7	Zn	-0.331978	-1.409338	-0.439497
Zn8	Zn	0.001355	-1.076004	-0.106164
Zn9	Zn	0.334688	-0.742671	0.227169
Zn10	Zn	-0.471340	-1.400419	-0.624012
Zn11	Zn	-0.138007	-1.067085	-0.290679
Zn12	Zn	0.195327	-0.733752	0.042655
O13	O	-0.401665	-1.492703	-0.531759
O14	O	-0.068331	-1.159370	-0.198426
O15	O	0.265002	-0.826037	0.134907
O16	O	-0.452888	-1.724313	-0.470504
O17	O	-0.119555	-1.390980	-0.137171
O18	O	0.213778	-1.057646	0.196163
O19	O	-0.215307	-1.569059	-0.584435
O20	O	0.118026	-1.235726	-0.251101
O21	O	0.451360	-0.902392	0.082232
O22	O	-0.350486	-1.431509	-0.293654
O23	O	-0.017152	-1.098175	0.039679
O24	O	0.316181	-0.764842	0.373012
O25	O	-0.350470	-1.730785	-0.593040
O26	O	-0.017137	-1.397451	-0.259707
O27	O	0.316196	-1.064118	0.073627
O28	O	-0.452897	-1.554046	-0.300175
O29	O	-0.119564	-1.220712	0.033159
O30	O	0.213770	-0.887379	0.366492
O31	O	-0.215314	-1.440050	-0.455379
O32	O	0.118020	-1.106717	-0.122045
O33	O	0.451353	-0.773383	0.211288
O34	O	-0.350456	-1.261134	-0.463966
O35	O	-0.017122	-0.927801	-0.130632
O36	O	0.316211	-0.594468	0.202701
O37	O	-0.588008	-1.416307	-0.608133
O38	O	-0.254674	-1.082974	-0.274800
O39	O	0.078659	-0.749640	0.058534
O40	O	-0.452844	-1.254581	-0.599528
O41	O	-0.119511	-0.921248	-0.266194
O42	O	0.213822	-0.587915	0.067139
O43	O	-0.588030	-1.545397	-0.479091
O44	O	-0.254697	-1.212064	-0.145758
O45	O	0.078636	-0.878730	0.187576
O46	O	-0.350441	-1.560410	-0.763351
O47	O	-0.017107	-1.227077	-0.430018
O48	O	0.316226	-0.893744	-0.096684
O49	O	-0.452836	-1.424849	-0.769857
O50	O	-0.119502	-1.091515	-0.436524
O51	O	0.213831	-0.758182	-0.103191
C52	C	-0.401648	-1.219737	-0.531745
C53	C	-0.068315	-0.886404	-0.198412
C54	C	0.265019	-0.553070	0.134921
C55	C	-0.401661	-1.102960	-0.531766
C56	C	-0.068327	-0.769626	-0.198433
C57	C	0.265006	-0.436293	0.134901
C58	C	-0.619114	-1.478875	-0.545590
C59	C	-0.285781	-1.145541	-0.212256
C60	C	0.047552	-0.812208	0.121077
C61	C	-0.711778	-1.472982	-0.551483
C62	C	-0.378445	-1.139648	-0.218150
C63	C	-0.045112	-0.806315	0.115183
C64	C	-0.401652	-1.492645	-0.804726
C65	C	-0.068319	-1.159312	-0.471393
C66	C	0.265015	-0.825978	-0.138059
C67	C	-0.401674	-1.492714	-0.921504
C68	C	-0.068341	-1.159381	-0.588171
C69	C	0.264992	-0.826048	-0.254837
C70	C	-0.881437	-1.462184	-0.562220
C71	C	-0.548103	-1.128851	-0.228887
C72	C	-0.214770	-0.795517	0.104446
C73	C	-0.922744	-1.523430	-0.500984
C74	C	-0.589411	-1.190096	-0.167650
C75	C	-0.256078	-0.856763	0.165683
C76	C	-1.017148	-1.517422	-0.506958
C77	C	-0.683815	-1.184088	-0.173624
C78	C	-0.350481	-0.850755	0.159709
C79	C	-0.787024	-1.468190	-0.556248
C80	C	-0.453691	-1.134857	-0.222914
C81	C	-0.120358	-0.801524	0.110419
C82	C	-0.185061	-1.506539	-0.517907
C83	C	0.148272	-1.173205	-0.184574
C84	C	0.481606	-0.839872	0.148760
C85	C	-0.092397	-1.512635	-0.511717
C86	C	0.240936	-1.179302	-0.178384
C87	C	0.574269	-0.845968	0.154949
C88	C	-0.401682	-1.766735	-0.531774
C89	C	-0.068348	-1.433402	-0.198441
C90	C	0.264985	-1.100069	0.134893
C91	C	-0.401689	-1.883512	-0.531780
C92	C	-0.068356	-1.550178	-0.198447
C93	C	0.264978	-1.216845	0.134886
C94	C	-0.454891	-1.044718	-0.602450
C95	C	-0.121557	-0.711385	-0.269117
C96	C	0.211776	-0.378052	0.064217
C97	C	-0.454907	-0.934993	-0.602455
C98	C	-0.121574	-0.601660	-0.269122
C99	C	0.211760	-0.268327	0.064212
C100	C	-0.348457	-0.941761	-0.461089
C101	C	-0.015124	-0.608427	-0.127755
C102	C	0.318210	-0.275094	0.205578
C103	C	-0.348445	-1.051483	-0.461079
C104	C	-0.015112	-0.718150	-0.127746
C105	C	0.318221	-0.384817	0.205587
C106	C	-0.455063	-1.556538	-1.089412
C107	C	-0.121730	-1.223204	-0.756079
C108	C	0.211603	-0.889871	-0.422745
C109	C	-0.455044	-1.556485	-0.979687
C110	C	-0.121711	-1.223152	-0.646353
C111	C	0.211622	-0.889818	-0.313020
C112	C	-0.348314	-1.429000	-0.973051
C113	C	-0.014981	-1.095667	-0.639718
C114	C	0.318353	-0.762333	-0.306385
C115	C	-0.348329	-1.429059	-1.082775
C116	C	-0.014996	-1.095726	-0.749441
C117	C	0.318337	-0.762392	-0.416108
C118	C	-0.401696	-1.492789	-0.257728
C119	C	-0.068362	-1.159456	0.075605
C120	C	0.264971	-0.826123	0.408939
C121	C	-0.401709	-1.492826	-0.140952
C122	C	-0.068376	-1.159493	0.192381
C123	C	0.264958	-0.826159	0.525714
H124	H	-0.887210	-1.580375	-0.444069
H125	H	-0.553876	-1.247041	-0.110736
H126	H	-0.220543	-0.913708	0.222597
H127	H	-0.498532	-1.608457	-1.136777
H128	H	-0.165199	-1.275123	-0.803444
H129	H	0.168135	-0.941790	-0.470111
H130	H	-0.916969	-1.405243	-0.619130
H131	H	-0.583636	-1.071910	-0.285796
H132	H	-0.250303	-0.738577	0.047537
F133	F	-0.511830	-1.624298	-0.924839
F134	F	-0.178497	-1.290964	-0.591505
F135	F	0.154836	-0.957631	-0.258172
F136	F	-0.291536	-1.361249	-1.137630
F137	F	0.041797	-1.027915	-0.804297
F138	F	0.375131	-0.694582	-0.470964
F139	F	-0.511530	-1.099499	-0.677678
F140	F	-0.178196	-0.766166	-0.344345
F141	F	0.155137	-0.432833	-0.011011
F142	F	-0.511563	-0.873013	-0.677685
F143	F	-0.178230	-0.539680	-0.344352
F144	F	0.155103	-0.206347	-0.011018
F145	F	-0.291510	-1.361135	-0.911126
F146	F	0.041824	-1.027801	-0.577793
F147	F	0.375157	-0.694468	-0.244459
H148	H	-0.305129	-0.899835	-0.403540
H149	H	0.028204	-0.566502	-0.070206
H150	H	0.361537	-0.233169	0.263127
F151	F	-0.291792	-1.113472	-0.385838
F152	F	0.041541	-0.780138	-0.052505
F153	F	0.374875	-0.446805	0.280828
