data_functionalizedCrystal
_audit_creation_method	'MofGen! by Chris Wilmer'
_symmetry_space_group_name_H-M	'P1'
_symmetry_Int_Tables_number	1
_symmetry_cell_setting	triclinic
loop_
_symmetry_equiv_pos_as_xyz
  x,y,z
_cell_length_a	19.188925
_cell_length_b	10.654550
_cell_length_c	9.130313
_cell_angle_alpha	89.999890
_cell_angle_beta	89.998826
_cell_angle_gamma	83.813726
loop_
_atom_site_label
_atom_site_type_symbol
_atom_site_fract_x
_atom_site_fract_y
_atom_site_fract_z
O1	O	0.927168	0.156742	-0.121827
O2	O	0.723995	0.177854	-0.121823
O3	O	0.830253	-0.015540	-0.121820
O4	O	0.820910	0.350136	-0.121830
O5	O	0.830252	-0.015535	0.121779
O6	O	0.723993	0.177859	0.121776
O7	O	0.927167	0.156747	0.121772
Cu8	Cu	0.825580	0.167303	0.144016
Cu9	Cu	0.825582	0.167297	-0.144068
O10	O	0.820909	0.350141	0.121768
C11	C	0.829566	-0.062321	-0.000022
C12	C	0.827514	-0.201721	-0.000027
C13	C	0.697978	0.177174	-0.000023
C14	C	0.620460	0.175125	-0.000021
C15	C	0.890077	-0.282533	-0.000024
C16	C	0.888144	-0.413513	-0.000034
C17	C	0.761080	-0.382856	-0.000044
C18	C	0.763013	-0.251879	-0.000045
C19	C	0.954578	-0.232375	-0.000007
C20	C	1.017146	-0.313188	-0.000002
C21	C	1.015213	-0.444168	-0.000012
C22	C	0.950712	-0.494335	-0.000027
C23	C	0.059343	0.274883	-0.000028
C24	C	0.132178	0.276819	-0.000036
C25	C	0.176371	0.163341	-0.000030
C26	C	0.147722	0.047919	-0.000053
C27	C	0.074887	0.045986	-0.000060
N28	N	0.296510	0.081190	0.082896
N29	N	0.365699	0.083034	0.082905
C30	C	0.395818	0.169158	-0.000012
N31	N	0.354132	0.253388	-0.082922
N32	N	0.284936	0.251548	-0.082924
C33	C	0.255349	0.165425	-0.000023
C34	C	0.503435	0.286673	-0.000008
C35	C	0.576273	0.288604	-0.000025
C36	C	0.591815	0.059701	-0.000028
C37	C	0.518979	0.057773	-0.000025
C38	C	0.474793	0.171262	-0.000008
C39	C	0.953183	0.157427	-0.000032
C40	C	1.030701	0.159476	-0.000043
C41	C	0.821595	0.396922	-0.000033
C42	C	0.823648	0.536322	-0.000037
N43	N	0.825584	0.167307	0.346639
N44	N	0.825583	0.167284	-0.346690
C45	C	0.872647	0.081701	0.423292
C46	C	0.872645	0.081686	0.576629
C47	C	0.778515	0.252894	0.576646
C48	C	0.778514	0.252902	0.423312
C49	C	0.919718	-0.003895	0.346619
C50	C	0.966785	-0.089507	0.423273
C51	C	0.966783	-0.089522	0.576610
C52	C	0.919714	-0.003925	0.653293
H53	H	0.956158	-0.125726	0.000006
H54	H	0.051569	-0.047995	-0.000073
O55	O	1.012403	-0.172808	0.651138
C56	C	0.974646	-0.250110	0.739852
H57	H	0.919578	-0.251988	0.693644
H58	H	1.002654	-0.350051	0.741578
H59	H	0.971174	-0.210802	0.856066
H60	H	0.467457	0.379083	0.000003
H61	H	0.599590	0.382586	-0.000024
O62	O	0.634835	-0.050418	0.000036
C63	C	0.705264	-0.023968	-0.000001
H64	H	0.708533	0.074651	0.046125
H65	H	0.737908	-0.096330	0.070715
H66	H	0.726301	-0.028837	-0.116869
O67	O	0.016453	0.385158	-0.000286
C68	C	0.029545	0.455269	-0.126425
H69	H	0.054115	0.388835	-0.214604
H70	H	-0.021876	0.505920	-0.168780
H71	H	0.066979	0.527745	-0.097892
O72	O	1.075941	-0.522799	0.000177
C73	C	1.078629	-0.599464	0.126352
H74	H	1.023179	-0.605780	0.168409
H75	H	1.104159	-0.698053	0.097973
H76	H	1.110724	-0.556554	0.214702
H77	H	0.495660	-0.036205	-0.000029
H78	H	0.740190	0.322610	0.360900
O79	O	0.160045	0.388898	-0.000265
C80	C	0.201733	0.396866	-0.126395
H81	H	0.184194	0.331359	-0.214598
H82	H	0.195694	0.498119	-0.168718
H83	H	0.259018	0.367568	-0.097865
O84	O	0.190718	-0.062230	-0.000240
C85	C	0.233307	-0.067969	-0.126414
H86	H	0.237472	0.031690	-0.168468
H87	H	0.287813	-0.115047	-0.098034
H88	H	0.209077	-0.125190	-0.214765
O89	O	1.012396	-0.172749	0.348657
C90	C	0.974615	-0.250068	0.260019
H91	H	0.920238	-0.199769	0.237023
H92	H	1.003661	-0.270122	0.152204
H93	H	0.969398	-0.342832	0.319151
O94	O	0.732769	0.335872	0.651295
C95	C	0.689366	0.268803	0.739963
H96	H	0.716700	0.170409	0.762920
H97	H	0.678577	0.321261	0.847795
H98	H	0.637725	0.260506	0.680877
O99	O	0.919850	-0.003893	0.197670
C100	C	0.986237	0.021384	0.146453
H101	H	1.027244	-0.004537	0.234817
H102	H	1.000254	-0.036924	0.043865
H103	H	0.984895	0.126049	0.119261
H104	H	1.069660	-0.272333	-0.000026
H105	H	0.949144	-0.600989	-0.000051
H106	H	0.708566	-0.423713	-0.000054
H107	H	0.712069	-0.186079	-0.000045
H108	H	0.919712	-0.003953	0.778150
