data_functionalizedCrystal
_audit_creation_method	'MofGen! by Chris Wilmer'
_symmetry_space_group_name_H-M	'P1'
_symmetry_Int_Tables_number	1
_symmetry_cell_setting	triclinic
loop_
_symmetry_equiv_pos_as_xyz
  x,y,z
_cell_length_a	10.908937
_cell_length_b	11.026607
_cell_length_c	9.482900
_cell_angle_alpha	78.637021
_cell_angle_beta	82.984439
_cell_angle_gamma	95.664014
loop_
_atom_site_label
_atom_site_type_symbol
_atom_site_fract_x
_atom_site_fract_y
_atom_site_fract_z
O1	O	-0.498728	1.528430	-0.120863
O2	O	-0.440226	1.186931	-0.120872
O3	O	-0.293012	1.402948	-0.120862
O4	O	-0.645943	1.312413	-0.120873
O5	O	-0.323068	1.359039	0.120929
O6	O	-0.470282	1.143022	0.120919
O7	O	-0.528784	1.484521	0.120927
Cu8	Cu	-0.502278	1.309762	0.143000
Cu9	Cu	-0.466733	1.361690	-0.142945
O10	O	-0.675999	1.268504	0.120917
C11	C	-0.444461	1.121944	0.000022
C12	C	-0.412288	0.993723	0.000019
C13	C	-0.262154	1.389455	0.000032
C14	C	-0.125427	1.414653	0.000027
C15	C	-0.524549	1.549509	0.000030
C16	C	-0.556721	1.677732	0.000024
C17	C	-0.706856	1.281998	0.000021
C18	C	-0.843582	1.256802	0.000016
C19	C	0.086152	1.348743	0.000020
C20	C	-0.055163	1.322698	0.000023
N21	N	-0.527279	1.273248	0.344119
C22	C	-0.467886	1.769464	0.000025
C23	C	-0.501135	1.901990	0.000018
N24	N	-0.441724	1.398215	-0.344063
C25	C	-0.474099	1.350913	0.416322
C26	C	-0.494912	1.320539	0.583738
H27	H	0.130613	1.446739	0.000030
H28	H	-0.099620	1.224693	0.000031
H29	H	-0.367220	1.749882	0.000052
Cl30	Cl	-0.656574	1.932194	0.000021
Cl31	Cl	-0.056802	1.565965	0.000033
H32	H	-0.657391	1.697308	0.000027
H33	H	0.111955	1.158803	0.000024
H34	H	-0.311600	1.974171	-0.000071
H35	H	-0.413155	1.439889	0.354198
Cl36	Cl	-0.588995	1.183148	0.679639
Cl37	Cl	-0.621358	1.135863	0.440026
H38	H	-0.380776	1.487196	0.593816
