data_functionalizedCrystal
_audit_creation_method	'MofGen! by Chris Wilmer'
_symmetry_space_group_name_H-M	'P1'
_symmetry_Int_Tables_number	1
_symmetry_cell_setting	triclinic
loop_
_symmetry_equiv_pos_as_xyz
  x,y,z
_cell_length_a	18.101395
_cell_length_b	13.032951
_cell_length_c	13.032268
_cell_angle_alpha	89.114265
_cell_angle_beta	97.146252
_cell_angle_gamma	97.166904
loop_
_atom_site_label
_atom_site_type_symbol
_atom_site_fract_x
_atom_site_fract_y
_atom_site_fract_z
Zn1	Zn	-0.500170	-1.498315	-0.780838
Zn2	Zn	-0.610505	-1.520022	-0.608850
Zn3	Zn	-0.469228	-1.348184	-0.587077
Zn4	Zn	-0.606494	-1.326272	-0.758970
O5	O	-0.546599	-1.423198	-0.683934
O6	O	-0.529433	-1.645110	-0.776287
O7	O	-0.580494	-1.515482	-0.462047
O8	O	-0.369711	-1.368185	-0.612820
O9	O	-0.610496	-1.661058	-0.649928
O10	O	-0.392443	-1.478485	-0.755175
O11	O	-0.476699	-1.389233	-0.446050
O12	O	-0.472810	-1.201362	-0.591615
O13	O	-0.603660	-1.330840	-0.905786
O14	O	-0.573658	-1.185263	-0.717904
O15	O	-0.525544	-1.457239	-0.921853
O16	O	-0.713594	-1.494235	-0.628724
O17	O	-0.710647	-1.351888	-0.739017
C18	C	-0.519442	-1.155997	-0.650025
C19	C	-0.507843	-1.041684	-0.635543
C20	C	-0.552635	-0.982794	-0.691478
C21	C	-0.540648	-0.864645	-0.676512
C22	C	-0.738993	-1.423065	-0.683886
C23	C	-0.821313	-1.423097	-0.683912
C24	C	-1.120431	-1.423316	-0.683996
C25	C	-1.087317	-1.333914	-0.753610
C26	C	-1.001641	-1.333569	-0.753313
C27	C	-0.972035	-1.423207	-0.683955
C28	C	-0.991698	-1.407637	-0.571850
C29	C	-1.077329	-1.407065	-0.572262
C30	C	-1.102005	-1.528583	-0.725555
C31	C	-1.016475	-1.527641	-0.727851
C32	C	-0.888167	-1.423148	-0.683926
C33	C	-1.204297	-1.423373	-0.684018
C34	C	-0.353458	-1.423358	-0.684008
C35	C	-0.271153	-1.423426	-0.684039
C36	C	-0.567606	-1.389174	-0.952179
C37	C	-0.576558	-1.374674	-1.066488
C38	C	-0.573854	-0.691444	-0.717969
C39	C	-0.585446	-0.805757	-0.732455
C40	C	-0.541899	-1.430750	-1.125401
C41	C	-0.551150	-1.415765	-1.243546
C42	C	-0.525626	-1.457150	-0.416740
C43	C	-0.516486	-1.471849	-0.302456
H44	H	-0.493421	-0.827598	-0.617544
H45	H	-0.505374	-1.489848	-1.088370
H46	H	-1.116039	-1.341845	-0.836541
H47	H	-1.004621	-1.539633	-0.810422
Br48	Br	-0.984273	-1.642698	-0.651343
Br49	Br	-0.612021	-1.317241	-1.305247
H50	H	-0.632668	-0.842801	-0.791434
H51	H	-1.132368	-1.545463	-0.806634
Br52	Br	-1.138181	-1.639321	-0.641346
H53	H	-0.599854	-1.019844	-0.750450
Br54	Br	-0.429128	-0.979940	-0.537263
H55	H	-0.988750	-1.341715	-0.836007
H56	H	-1.099336	-1.256070	-0.725287
H57	H	-1.098839	-1.470103	-0.517885
H58	H	-0.479957	-1.530949	-1.265432
H59	H	-0.971583	-1.255264	-0.724697
Br60	Br	-0.939607	-1.281557	-0.515314
Br61	Br	-1.094199	-1.279495	-0.516254
Br62	Br	-0.637426	-1.276154	-1.128194
H63	H	-0.972222	-1.471311	-0.517966
