data_functionalizedCrystal
_audit_creation_method	'MofGen! by Chris Wilmer'
_symmetry_space_group_name_H-M	'P1'
_symmetry_Int_Tables_number	1
_symmetry_cell_setting	triclinic
loop_
_symmetry_equiv_pos_as_xyz
  x,y,z
_cell_length_a	21.295420
_cell_length_b	21.295417
_cell_length_c	19.805399
_cell_angle_alpha	89.967749
_cell_angle_beta	89.984007
_cell_angle_gamma	90.026289
loop_
_atom_site_label
_atom_site_type_symbol
_atom_site_fract_x
_atom_site_fract_y
_atom_site_fract_z
Zn1	Zn	0.962302	-0.250686	-0.382688
Zn2	Zn	0.962220	-0.355957	-0.269493
Zn3	Zn	0.857041	-0.250698	-0.269514
Zn4	Zn	0.856995	-0.355913	-0.382642
O5	O	0.909639	-0.303314	-0.326084
O6	O	1.050380	-0.264664	-0.367683
O7	O	0.948253	-0.342018	-0.174780
O8	O	0.871058	-0.162607	-0.284555
O9	O	1.050320	-0.342006	-0.284519
O10	O	0.948392	-0.162598	-0.367704
O11	O	0.870978	-0.264684	-0.174795
O12	O	0.768945	-0.264642	-0.284511
O13	O	0.870979	-0.341931	-0.477365
O14	O	0.768911	-0.341943	-0.367625
O15	O	0.948347	-0.264621	-0.477399
O16	O	0.948208	-0.444041	-0.284475
O17	O	0.870899	-0.444009	-0.367604
C18	C	0.746088	-0.303290	-0.326065
C19	C	0.676120	-0.303294	-0.326073
C20	C	0.176692	-0.263136	-0.369468
C21	C	0.242435	-0.263132	-0.369468
C22	C	0.275280	-0.303333	-0.326100
C23	C	0.242378	-0.343553	-0.282741
C24	C	0.176636	-0.343561	-0.282747
N25	N	0.378478	-0.308079	-0.266834
N26	N	0.440930	-0.308067	-0.266830
C27	C	0.473355	-0.303312	-0.326080
N28	N	0.440969	-0.298556	-0.385336
N29	N	0.378512	-0.298564	-0.385339
C30	C	0.346566	-0.303329	-0.326089
C31	C	0.577535	-0.263092	-0.369440
C32	C	0.643279	-0.263092	-0.369441
C33	C	0.643220	-0.343510	-0.282708
C34	C	0.577478	-0.343514	-0.282713
C35	C	0.544639	-0.303302	-0.326078
C36	C	0.909557	-0.466865	-0.326047
C37	C	0.909579	-0.536833	-0.326054
C38	C	0.949870	-0.569696	-0.282812
C39	C	0.949899	-0.635438	-0.282828
C40	C	0.909627	-0.668316	-0.326077
C41	C	0.869334	-0.635445	-0.369327
C42	C	0.869310	-0.569704	-0.369315
N43	N	0.854559	-0.771578	-0.331230
N44	N	0.854584	-0.834029	-0.331238
C45	C	0.909697	-0.866391	-0.326116
N46	N	0.964787	-0.833941	-0.320973
N47	N	0.964762	-0.771484	-0.320963
C48	C	0.909649	-0.739601	-0.326095
C49	C	0.950023	-0.970539	-0.282889
C50	C	0.950054	-1.036282	-0.282909
C51	C	0.869483	-1.036288	-0.369404
C52	C	0.869458	-0.970546	-0.369388
C53	C	0.909727	-0.937675	-0.326126
C54	C	1.073830	-0.303338	-0.326104
C55	C	1.143798	-0.303349	-0.326112
C56	C	0.909739	-0.139123	-0.326137
C57	C	0.909782	-0.069155	-0.326159
C58	C	0.909667	-0.303270	-0.502627
C59	C	0.909679	-0.303251	-0.577859
C60	C	0.869453	-0.262980	-0.613211
C61	C	0.869462	-0.262968	-0.683899
C62	C	0.909700	-0.303224	-0.719235
C63	C	0.949927	-0.343500	-0.683878
C64	C	0.949915	-0.343515	-0.613191
C65	C	0.949977	-0.343441	-0.968952
C66	C	0.949987	-0.343422	-1.039644
C67	C	0.869524	-0.262894	-1.039660
C68	C	0.869512	-0.262909	-0.968973
C69	C	0.909736	-0.303187	-0.933622
C70	C	0.909726	-0.303200	-0.856974
C71	C	0.909714	-0.303208	-0.795882
C72	C	0.909648	-0.303312	-0.150229
C73	C	0.909758	-0.303153	-0.074997
H74	H	0.550796	-0.230349	-0.404750
O75	O	0.826136	-0.219454	-1.077792
H76	H	0.798161	-0.191458	-1.041345
O77	O	0.541993	-0.386882	-0.235945
H78	H	0.512036	-0.358668	-0.201572
H79	H	0.982755	-0.376206	-1.068412
O80	O	0.993517	-1.071725	-0.236267
H81	H	1.025545	-1.101621	-0.266598
O82	O	0.993309	-0.534241	-0.236164
H83	H	1.021336	-0.568141	-0.206103
O84	O	0.993351	-0.670896	-0.236182
H85	H	1.021345	-0.636994	-0.206094
O86	O	0.678636	-0.386868	-0.235926
H87	H	0.708592	-0.418925	-0.266152
O88	O	0.141277	-0.219768	-0.416244
H89	H	0.090036	-0.226524	-0.408963
O90	O	0.993306	-0.386944	-0.575056
H91	H	1.021294	-0.414929	-0.611501
O92	O	0.826058	-0.219555	-0.575101
H93	H	0.776647	-0.230342	-0.588653
H94	H	0.836695	-1.063056	-0.404622
H95	H	0.836647	-0.943787	-0.404596
H96	H	0.982686	-0.376281	-0.712654
O97	O	0.277924	-0.219755	-0.416230
H98	H	0.307877	-0.187698	-0.385986
H99	H	0.269125	-0.376287	-0.247433
O100	O	0.826082	-0.219527	-0.722032
H101	H	0.798108	-0.191530	-0.685585
O102	O	0.141154	-0.386928	-0.235973
H103	H	0.153758	-0.436346	-0.247478
O104	O	0.678763	-0.219714	-0.416200
H105	H	0.644881	-0.191749	-0.446347
O106	O	0.825889	-0.670900	-0.415969
H107	H	0.832667	-0.722136	-0.408705
O108	O	0.825840	-0.534253	-0.415943
H109	H	0.797836	-0.568157	-0.446016
O110	O	0.993462	-0.935077	-0.236241
H111	H	1.021493	-0.968977	-0.206182
H112	H	0.836748	-0.230126	-0.940206
O113	O	0.993375	-0.386865	-0.930827
H114	H	1.021365	-0.414844	-0.967276
