data_functionalizedCrystal
_audit_creation_method	'MofGen! by Chris Wilmer'
_symmetry_space_group_name_H-M	'P1'
_symmetry_Int_Tables_number	1
_symmetry_cell_setting	triclinic
loop_
_symmetry_equiv_pos_as_xyz
  x,y,z
_cell_length_a	10.723024
_cell_length_b	22.610064
_cell_length_c	10.723022
_cell_angle_alpha	89.994714
_cell_angle_beta	95.532452
_cell_angle_gamma	89.991371
loop_
_atom_site_label
_atom_site_type_symbol
_atom_site_fract_x
_atom_site_fract_y
_atom_site_fract_z
O1	O	-1.657196	0.049188	0.175011
O2	O	-1.157196	0.549188	0.675011
O3	O	-1.294044	0.049188	0.191764
O4	O	-0.794044	0.549188	0.691764
O5	O	-1.483997	0.049186	0.001811
O6	O	-0.983997	0.549186	0.501811
O7	O	-1.467242	0.049190	0.364963
O8	O	-0.967242	0.549190	0.864963
O9	O	-1.483964	-0.049184	0.001839
O10	O	-0.983964	0.450816	0.501839
O11	O	-1.294010	-0.049182	0.191791
O12	O	-0.794010	0.450818	0.691791
O13	O	-1.657162	-0.049181	0.175038
O14	O	-1.157162	0.450819	0.675038
Zn15	Zn	-1.475581	-0.064800	0.183419
Zn16	Zn	-0.975581	0.435200	0.683419
Zn17	Zn	-1.475625	0.064806	0.183383
Zn18	Zn	-0.975625	0.564806	0.683383
O19	O	-1.467208	-0.049179	0.364991
O20	O	-0.967208	0.450821	0.864991
C21	C	-1.247527	0.000003	0.190558
C22	C	-0.747527	0.500003	0.690558
C23	C	-1.108973	0.000003	0.186911
C24	C	-0.608973	0.500003	0.686911
N25	N	-1.475560	-0.153252	0.183443
N26	N	-0.975560	0.346748	0.683443
C27	C	-1.033990	0.000004	0.293199
C28	C	-0.533990	0.500004	0.793199
C29	C	-0.890786	0.000004	0.289431
C30	C	-0.390786	0.500004	0.789431
C31	C	-1.559741	-0.561895	0.099285
C32	C	-1.059741	-0.061895	0.599285
C33	C	-1.559747	-0.623814	0.099276
C34	C	-1.059747	-0.123814	0.599276
O35	O	-1.631268	-0.655834	0.027739
O36	O	-1.131268	-0.155834	0.527739
N37	N	-1.475624	-0.654789	0.183357
N38	N	-0.975624	-0.154789	0.683357
C39	C	-1.391481	-0.623841	0.267444
C40	C	-0.891481	-0.123841	0.767444
O41	O	-1.319927	-0.655873	0.338960
O42	O	-0.819927	-0.155873	0.838960
C43	C	-1.391469	-0.561922	0.267446
C44	C	-0.891469	-0.061922	0.767446
C45	C	-1.475606	-0.530951	0.183368
C46	C	-0.975606	-0.030951	0.683368
C47	C	-1.643870	-0.530923	0.015212
C48	C	-1.143870	-0.030923	0.515212
C49	C	-1.643865	-0.469007	0.015223
C50	C	-1.143865	0.030993	0.515223
C51	C	-1.559731	-0.438063	0.099306
C52	C	-1.059731	0.061937	0.599306
C53	C	-1.475601	-0.469035	0.183379
C54	C	-0.975601	0.030965	0.683379
C55	C	-1.307321	-0.530975	0.351526
C56	C	-0.807321	-0.030975	0.851526
C57	C	-1.307316	-0.469052	0.351520
C58	C	-0.807316	0.030948	0.851520
C59	C	-1.391453	-0.438081	0.267442
C60	C	-0.891453	0.061919	0.767442
C61	C	-1.391462	-0.376175	0.267473
C62	C	-0.891462	0.123825	0.767473
N63	N	-1.475585	-0.345201	0.183392
N64	N	-0.975585	0.154799	0.683392
C65	C	-1.559719	-0.376144	0.099308
C66	C	-1.059719	0.123856	0.599308
C67	C	-1.391509	-0.753875	0.267432
C68	C	-0.891509	-0.253875	0.767432
C69	C	-1.391526	-0.815792	0.267437
C70	C	-0.891526	-0.315792	0.767437
C71	C	-1.559791	-0.815761	0.099267
C72	C	-1.059791	-0.315761	0.599267
C73	C	-1.559779	-0.753843	0.099269
C74	C	-1.059779	-0.253843	0.599269
C75	C	-1.475632	-0.722900	0.183351
C76	C	-0.975632	-0.222900	0.683351
C77	C	-1.559703	-0.246117	0.099338
C78	C	-1.059703	0.253883	0.599338
C79	C	-1.559694	-0.184196	0.099360
C80	C	-1.059694	0.315804	0.599360
C81	C	-1.391425	-0.184232	0.267525
C82	C	-0.891425	0.315768	0.767525
C83	C	-1.391438	-0.246148	0.267509
C84	C	-0.891438	0.253852	0.767509
C85	C	-1.475582	-0.277089	0.183405
C86	C	-0.975582	0.222911	0.683405
O87	O	-1.319974	-0.344117	0.338970
O88	O	-0.819974	0.155883	0.838970
O89	O	-1.631250	-0.344105	0.027793
O90	O	-1.131250	0.155895	0.527793
C91	C	-0.703679	0.000003	0.176243
C92	C	-0.203679	0.500003	0.676243
C93	C	-0.842233	0.000003	0.179891
C94	C	-0.342233	0.500003	0.679891
C95	C	-1.482762	0.000002	-0.044675
C96	C	-0.982762	0.500002	0.455325
C97	C	-1.479115	0.000004	-0.183229
C98	C	-0.979115	0.500004	0.316771
N99	N	-1.475656	0.153258	0.183349
N100	N	-0.975656	0.653258	0.683349
C101	C	-1.369575	0.000005	-0.231790
C102	C	-0.869575	0.500005	0.268210
C103	C	-1.365803	0.000007	-0.374993
C104	C	-0.865803	0.500007	0.125007
C105	C	-1.468444	0.000006	0.411477
C106	C	-0.968444	0.500006	0.911477
C107	C	-1.472091	0.000008	0.550031
C108	C	-0.972091	0.500008	1.050031
H109	H	-1.075811	0.000002	0.386984
H110	H	-0.575811	0.500002	0.886984
Br111	Br	-0.783401	0.000013	0.441098
Br112	Br	-0.283401	0.500013	0.941098
H113	H	-1.278586	0.000001	-0.167348
H114	H	-0.778586	0.500001	0.332652
H115	H	-1.628290	-0.728629	0.030805
H116	H	-1.128290	-0.228629	0.530805
Br117	Br	-0.949611	0.000008	0.028219
Br118	Br	-0.449611	0.500008	0.528219
H119	H	-1.067151	0.000017	0.093125
H120	H	-0.567151	0.500017	0.593125
H121	H	-1.272016	0.000011	-0.416805
H122	H	-0.772016	0.500011	0.083195
Br123	Br	-1.673892	-0.142166	-0.014748
Br124	Br	-1.173892	0.357834	0.485252
H125	H	-1.570103	0.000002	-0.247672
H126	H	-1.070103	0.500002	0.252328
H127	H	-1.628219	-0.271302	0.030852
H128	H	-1.128219	0.228698	0.530852
H129	H	-1.712373	-0.443794	-0.053244
H130	H	-1.212373	0.056206	0.446756
H131	H	-1.565883	0.000029	-0.408165
H132	H	-1.065883	0.500029	0.091835
H133	H	-1.322938	-0.271366	0.335985
H134	H	-0.822938	0.228634	0.835985
Br135	Br	-1.758065	-0.572908	-0.098917
Br136	Br	-1.258065	-0.072908	0.401083
Br137	Br	-1.277250	-0.142227	0.381638
Br138	Br	-0.777250	0.357773	0.881638
Br139	Br	-1.673973	-0.857770	-0.014846
Br140	Br	-1.173973	-0.357770	0.485154
H141	H	-1.323027	-0.841005	0.335914
H142	H	-0.823027	-0.341005	0.835914
H143	H	-1.322990	-0.728684	0.335912
H144	H	-0.822990	-0.228684	0.835912
H145	H	-1.238789	-0.443861	0.419989
H146	H	-0.738789	0.056139	0.919989
Br147	Br	-1.193129	-0.572996	0.465637
Br148	Br	-0.693129	-0.072996	0.965637
