data_functionalizedCrystal
_audit_creation_method	'MofGen! by Chris Wilmer'
_symmetry_space_group_name_H-M	'P1'
_symmetry_Int_Tables_number	1
_symmetry_cell_setting	triclinic
loop_
_symmetry_equiv_pos_as_xyz
  x,y,z
_cell_length_a	16.120484
_cell_length_b	16.120566
_cell_length_c	16.120256
_cell_angle_alpha	89.874858
_cell_angle_beta	95.616173
_cell_angle_gamma	89.831930
loop_
_atom_site_label
_atom_site_type_symbol
_atom_site_fract_x
_atom_site_fract_y
_atom_site_fract_z
Zn1	Zn	-0.422272	-1.224983	-0.554882
Zn2	Zn	-0.554952	-1.224879	-0.422186
Zn3	Zn	-0.408184	-1.093723	-0.408117
Zn4	Zn	-0.554189	-1.078876	-0.554112
O5	O	-0.484899	-1.155615	-0.484824
O6	O	-0.446087	-1.341005	-0.543490
O7	O	-0.529906	-1.213651	-0.303687
O8	O	-0.293422	-1.117392	-0.422020
O9	O	-0.543566	-1.340928	-0.445999
O10	O	-0.303772	-1.213828	-0.529848
O11	O	-0.422076	-1.117291	-0.293350
O12	O	-0.421337	-0.975718	-0.421273
O13	O	-0.542267	-1.092088	-0.670847
O14	O	-0.528607	-0.964810	-0.528535
O15	O	-0.445348	-1.199432	-0.671413
O16	O	-0.671482	-1.199254	-0.445252
O17	O	-0.670921	-1.091987	-0.542177
C18	C	-0.473361	-0.940177	-0.473294
C19	C	-0.468446	-0.848010	-0.468382
C20	C	-0.459453	-0.679259	-0.459420
C21	C	-0.510417	-0.632808	-0.510238
C22	C	-0.505414	-0.538909	-0.505252
C23	C	-0.464456	-0.773166	-0.464405
C24	C	-0.701445	-1.144020	-0.495177
C25	C	-0.794089	-1.139133	-0.499638
C26	C	-0.963712	-1.130216	-0.507800
C27	C	-1.005254	-1.181162	-0.461870
C28	C	-1.099639	-1.176201	-0.466412
C29	C	-0.869320	-1.135177	-0.503260
C30	C	-0.267511	-1.167278	-0.474450
C31	C	-0.174872	-1.172248	-0.470030
C32	C	-0.495294	-1.144115	-0.702217
C33	C	-0.499723	-1.139215	-0.794857
C34	C	-0.496485	-0.371895	-0.496387
C35	C	-0.501427	-0.464062	-0.501279
C36	C	-0.461779	-1.181171	-1.006024
C37	C	-0.507774	-1.130241	-0.964463
C38	C	-0.503293	-1.135236	-0.870085
C39	C	-0.466259	-1.176178	-1.100410
C40	C	-0.474488	-1.167121	-0.268277
C41	C	-0.469832	-1.172195	-0.175635
H42	H	-0.412068	-0.648508	-0.412172
H43	H	-0.550513	-1.082884	-0.999760
C44	C	-0.404045	-1.245147	-0.958346
C45	C	-0.399599	-1.250115	-0.862604
C46	C	-0.341871	-1.314093	-0.814915
C47	C	-0.288589	-1.373103	-0.862969
C48	C	-0.293034	-1.368136	-0.958717
C49	C	-0.350762	-1.304158	-1.006405
H50	H	-0.439043	-1.206431	-0.827027
H51	H	-0.338581	-1.317769	-0.744036
H52	H	-0.245855	-1.420463	-0.827667
H53	H	-0.253589	-1.411821	-0.994294
H54	H	-0.354051	-1.300482	-1.077285
H55	H	-0.557806	-0.663560	-0.557491
H56	H	-0.969934	-1.228504	-0.419137
C57	C	-1.011420	-1.066259	-0.565523
C58	C	-1.107169	-1.061327	-0.570034
C59	C	-1.154888	-0.997369	-0.627754
C60	C	-1.106857	-0.938344	-0.680964
C61	C	-1.011102	-0.943274	-0.676454
C62	C	-0.963383	-1.007231	-0.618734
H63	H	-1.142730	-1.105023	-0.530644
H64	H	-1.225773	-0.993720	-0.631092
H65	H	-1.142181	-0.890998	-0.723692
H66	H	-0.975541	-0.899578	-0.715844
H67	H	-0.892498	-1.010881	-0.615396
