data_functionalizedCrystal
_audit_creation_method	'MofGen! by Chris Wilmer'
_symmetry_space_group_name_H-M	'P1'
_symmetry_Int_Tables_number	1
_symmetry_cell_setting	triclinic
loop_
_symmetry_equiv_pos_as_xyz
  x,y,z
_cell_length_a	21.395364
_cell_length_b	18.050589
_cell_length_c	21.395356
_cell_angle_alpha	89.977927
_cell_angle_beta	89.976411
_cell_angle_gamma	90.043172
loop_
_atom_site_label
_atom_site_type_symbol
_atom_site_fract_x
_atom_site_fract_y
_atom_site_fract_z
Zn1	Zn	0.957864	-0.295382	-0.354286
Zn2	Zn	0.957773	-0.419574	-0.249519
Zn3	Zn	0.853081	-0.295434	-0.249523
Zn4	Zn	0.853053	-0.419567	-0.354259
O5	O	0.905443	-0.357489	-0.301897
O6	O	1.045530	-0.311837	-0.340398
O7	O	0.943859	-0.403131	-0.161841
O8	O	0.867030	-0.191503	-0.263433
O9	O	1.045463	-0.403080	-0.263426
O10	O	0.944014	-0.191464	-0.340402
O11	O	0.866942	-0.311926	-0.161844
O12	O	0.765399	-0.311920	-0.263406
O13	O	0.866983	-0.403069	-0.441940
O14	O	0.765379	-0.403120	-0.340356
O15	O	0.943987	-0.311831	-0.441960
O16	O	0.943832	-0.523497	-0.263400
O17	O	0.866894	-0.523493	-0.340352
C18	C	0.742655	-0.357525	-0.301879
C19	C	0.673014	-0.357559	-0.301886
C20	C	0.640358	-0.310126	-0.342028
C21	C	0.574923	-0.310107	-0.342030
C22	C	0.542145	-0.357533	-0.301898
C23	C	0.574809	-0.404968	-0.261749
C24	C	0.640243	-0.404982	-0.261743
C25	C	0.438424	-0.424414	-0.296866
C26	C	0.372991	-0.424402	-0.296876
C27	C	0.340325	-0.357492	-0.301912
C28	C	0.373100	-0.290591	-0.306951
C29	C	0.438534	-0.290604	-0.306945
C30	C	0.471193	-0.357523	-0.301899
C31	C	0.236716	-0.310034	-0.342058
C32	C	0.171280	-0.310013	-0.342056
C33	C	0.171168	-0.404881	-0.261778
C34	C	0.236603	-0.404896	-0.261776
C35	C	0.269373	-0.357473	-0.301920
C36	C	0.905367	-0.550442	-0.301886
C37	C	0.905392	-0.632987	-0.301903
C38	C	0.863595	-0.832462	-0.343735
C39	C	0.848317	-0.881905	-0.286561
C40	C	0.905454	-0.784118	-0.301911
C41	C	0.920762	-0.881756	-0.359090
C42	C	0.905512	-0.930103	-0.301924
C43	C	0.890146	-0.832474	-0.244707
C44	C	0.962617	-0.832320	-0.317275
C45	C	0.947362	-0.881741	-0.260062
C46	C	0.905418	-0.700019	-0.301904
C47	C	0.905547	-1.014199	-0.301924
C48	C	1.068866	-0.357454	-0.301915
C49	C	1.138507	-0.357438	-0.301922
C50	C	0.905536	-0.163784	-0.301921
C51	C	0.905575	-0.081238	-0.301931
C52	C	0.905492	-0.357443	-0.465320
C53	C	0.905513	-0.357424	-0.534961
C54	C	0.865473	-0.309928	-0.567666
C55	C	0.865471	-0.309914	-0.633101
C56	C	0.905520	-0.357388	-0.665830
C57	C	0.945563	-0.404893	-0.633117
C58	C	0.945559	-0.404911	-0.567683
C59	C	0.961972	-0.363210	-0.769516
C60	C	0.961977	-0.363187	-0.834949
C61	C	0.905530	-0.357338	-0.867650
C62	C	0.849078	-0.351497	-0.834910
C63	C	0.849074	-0.351515	-0.769476
C64	C	0.905528	-0.357375	-0.736782
C65	C	0.865485	-0.309825	-0.971308
C66	C	0.865481	-0.309817	-1.036744
C67	C	0.945579	-0.404792	-1.036759
C68	C	0.945576	-0.404804	-0.971323
C69	C	0.905530	-0.357317	-0.938602
C70	C	0.905430	-0.357482	-0.139109
C71	C	0.905530	-0.357292	-0.069468
H72	H	0.666831	-0.443608	-0.229054
H73	H	0.933686	-0.903404	-0.407442
C74	C	0.337523	-0.497107	-0.291366
C75	C	0.380133	-0.555704	-0.286927
C76	C	0.347484	-0.622690	-0.281841
H77	H	0.312007	-0.503796	-0.327248
H78	H	0.311993	-0.496112	-0.255034
H79	H	0.405652	-0.556699	-0.323256
H80	H	0.405650	-0.549039	-0.251046
H81	H	0.321954	-0.621696	-0.245509
H82	H	0.321970	-0.629372	-0.317724
H83	H	0.376390	-0.662456	-0.278823
C84	C	0.816229	-0.803643	-0.390746
C85	C	0.756494	-0.828758	-0.374370
C86	C	0.712844	-0.802215	-0.417654
H87	H	0.826601	-0.821225	-0.431282
H88	H	0.816762	-0.751013	-0.390671
H89	H	0.755963	-0.881376	-0.374452
H90	H	0.746103	-0.811178	-0.333842
H91	H	0.713377	-0.749585	-0.417580
H92	H	0.723221	-0.819799	-0.458188
H93	H	0.672308	-0.819246	-0.406546
H94	H	0.978183	-0.443478	-0.944695
H95	H	0.832872	-0.271142	-1.063372
H96	H	0.978167	-0.443587	-0.541055
H97	H	1.007944	-0.367939	-0.861601
H98	H	0.832862	-0.271263	-0.541028
H99	H	0.144481	-0.443496	-0.229101
H100	H	0.144692	-0.271383	-0.374743
C101	C	0.787824	-0.345303	-0.733850
C102	C	0.779846	-0.408117	-0.696262
C103	C	0.723433	-0.402420	-0.663428
H104	H	0.754150	-0.341849	-0.762620
H105	H	0.788650	-0.302284	-0.708292
H106	H	0.779015	-0.451124	-0.721818
H107	H	0.813506	-0.411583	-0.667480
H108	H	0.724259	-0.359401	-0.637871
H109	H	0.689763	-0.398965	-0.692203
H110	H	0.718015	-0.445035	-0.637917
H111	H	0.667036	-0.271510	-0.374715
H112	H	0.832867	-0.271234	-0.659735
H113	H	0.803114	-0.346729	-0.861534
H114	H	0.800003	-0.903702	-0.273578
H115	H	0.877166	-0.810915	-0.196343
H116	H	0.978189	-0.443444	-1.063405
H117	H	0.982785	-0.903242	-0.224658
C118	C	1.023329	-0.369532	-0.734129
C119	C	1.072768	-0.374617	-0.776804
C120	C	1.129297	-0.380435	-0.744229
H121	H	1.022583	-0.412585	-0.708595
H122	H	1.028891	-0.326963	-0.708624
H123	H	1.067209	-0.417182	-0.802298
H124	H	1.073535	-0.331569	-0.802339
H125	H	1.134858	-0.337866	-0.718723
H126	H	1.128544	-0.423488	-0.718696
H127	H	1.162849	-0.383879	-0.773178
H128	H	0.548329	-0.271478	-0.374717
C129	C	1.027001	-0.803292	-0.334749
C130	C	1.042758	-0.828202	-0.394682
C131	C	1.102060	-0.801467	-0.410811
H132	H	1.056926	-0.820881	-0.305520
H133	H	1.026612	-0.750665	-0.334276
H134	H	1.043152	-0.880818	-0.395150
H135	H	1.012849	-0.810615	-0.423925
H136	H	1.101670	-0.748839	-0.410337
H137	H	1.131979	-0.819057	-0.381577
H138	H	1.112756	-0.818358	-0.451478
H139	H	0.832876	-0.271159	-0.944664
H140	H	0.978171	-0.443547	-0.659768
H141	H	0.465217	-0.236132	-0.311046
H142	H	0.263399	-0.271415	-0.374741
C143	C	0.337681	-0.217927	-0.312549
C144	C	0.353642	-0.183190	-0.368865
C145	C	0.321019	-0.116257	-0.374050
H146	H	0.348390	-0.186554	-0.278560
H147	H	0.294010	-0.227464	-0.311864
H148	H	0.397303	-0.173649	-0.369544
H149	H	0.342931	-0.214541	-0.402864
H150	H	0.277348	-0.125794	-0.373366
H151	H	0.331731	-0.084890	-0.340058
H152	H	0.331840	-0.092682	-0.412263
H153	H	0.263192	-0.443523	-0.229091
C154	C	0.473969	-0.497019	-0.291500
C155	C	0.511565	-0.506530	-0.344466
C156	C	0.544324	-0.573397	-0.339541
H157	H	0.445153	-0.536926	-0.288532
H158	H	0.499514	-0.496012	-0.255199
H159	H	0.486022	-0.507544	-0.380757
H160	H	0.540392	-0.466640	-0.347444
H161	H	0.569869	-0.572389	-0.303240
H162	H	0.515504	-0.613298	-0.336572
H163	H	0.569842	-0.579855	-0.375474
C164	C	0.539306	-0.456583	-0.218213
C165	C	0.555187	-0.530085	-0.231738
C166	C	0.522500	-0.577651	-0.191638
H167	H	0.495648	-0.449885	-0.223927
H168	H	0.550029	-0.445694	-0.176119
H169	H	0.544460	-0.540969	-0.273822
H170	H	0.598838	-0.536806	-0.226021
H171	H	0.533223	-0.566762	-0.149544
H172	H	0.478845	-0.570946	-0.197354
H173	H	0.533275	-0.627526	-0.200805
