data_functionalizedCrystal
_audit_creation_method	'MofGen! by Chris Wilmer'
_symmetry_space_group_name_H-M	'P1'
_symmetry_Int_Tables_number	1
_symmetry_cell_setting	triclinic
loop_
_symmetry_equiv_pos_as_xyz
  x,y,z
_cell_length_a	11.792254
_cell_length_b	11.792241
_cell_length_c	12.376457
_cell_angle_alpha	101.354533
_cell_angle_beta	78.628102
_cell_angle_gamma	84.196007
loop_
_atom_site_label
_atom_site_type_symbol
_atom_site_fract_x
_atom_site_fract_y
_atom_site_fract_z
O1	O	1.528533	0.134016	-0.094004
O2	O	1.198194	0.150034	-0.094007
O3	O	1.371378	-0.023143	-0.093998
O4	O	1.355349	0.307193	-0.094014
O5	O	1.328097	0.020092	0.094012
O6	O	1.154914	0.193269	0.094003
O7	O	1.485252	0.177251	0.094005
Zn8	Zn	1.313211	0.192124	0.123855
Zn9	Zn	1.370235	0.135160	-0.123856
O10	O	1.312068	0.350428	0.093996
C11	C	1.134263	0.170642	-0.000002
C12	C	1.008250	0.167622	-0.000003
C13	C	1.348731	-0.043817	0.000007
C14	C	1.345717	-0.169831	0.000006
C15	C	0.905915	0.165167	-0.000008
C16	C	0.777528	0.162098	-0.000008
C17	C	1.340178	-0.400548	-0.000013
C18	C	1.343255	-0.272160	-0.000003
C19	C	1.549184	0.156642	-0.000002
C20	C	1.675198	0.159661	-0.000008
C21	C	1.334716	0.371101	-0.000011
C22	C	1.337732	0.497114	-0.000017
N23	N	1.274302	0.231000	0.292911
N24	N	1.409154	0.096276	-0.292912
C25	C	1.499475	0.006010	0.647908
C26	C	1.526701	-0.021199	0.529570
C27	C	1.463603	0.041848	0.470399
C28	C	1.373275	0.132110	0.529579
C29	C	1.346052	0.159328	0.647929
C30	C	1.310180	0.195166	0.470420
C31	C	1.219852	0.285428	0.529599
C32	C	1.192633	0.312641	0.647938
C33	C	1.255731	0.249594	0.707108
C34	C	1.337404	0.167948	0.352070
C35	C	1.183981	0.321265	0.352090
C36	C	1.156755	0.348475	0.470429
H37	H	1.410949	0.094457	0.303896
O38	O	1.560730	-0.055411	0.705266
C39	C	1.617620	-0.243973	0.741561
C40	C	1.548221	-0.174553	0.676508
H41	H	1.607511	-0.340309	0.718351
H42	H	1.714002	-0.234027	0.718264
H43	H	1.582656	-0.208951	0.836300
H44	H	1.583085	-0.209529	0.581754
H45	H	1.451849	-0.184499	0.699899
O46	O	1.069086	0.436156	0.528097
C47	C	0.959116	0.545974	0.710425
C48	C	1.058444	0.446667	0.645258
H49	H	0.950464	0.554488	0.805161
H50	H	0.979789	0.631680	0.687237
H51	H	0.873497	0.525215	0.687109
H52	H	1.144104	0.467314	0.668539
H53	H	1.037671	0.360991	0.668451
H54	H	1.132603	0.372607	0.303915
H55	H	1.485775	0.019690	0.374043
H56	H	1.119092	0.386146	0.696122
H57	H	1.233561	0.271744	0.803469
O58	O	1.614096	-0.109235	0.472145
C59	C	1.667297	-0.295252	0.339182
C60	C	1.568351	-0.195427	0.404005
H61	H	1.630344	-0.364976	0.284093
H62	H	1.737349	-0.259212	0.283505
H63	H	1.707442	-0.335508	0.402030
H64	H	1.528113	-0.155131	0.341238
H65	H	1.498374	-0.231533	0.459699
