data_functionalizedCrystal
_audit_creation_method	'MofGen! by Chris Wilmer'
_symmetry_space_group_name_H-M	'P1'
_symmetry_Int_Tables_number	1
_symmetry_cell_setting	triclinic
loop_
_symmetry_equiv_pos_as_xyz
  x,y,z
_cell_length_a	6.817900
_cell_length_b	11.102244
_cell_length_c	9.582880
_cell_angle_alpha	90.972146
_cell_angle_beta	111.207034
_cell_angle_gamma	108.604870
loop_
_atom_site_label
_atom_site_type_symbol
_atom_site_fract_x
_atom_site_fract_y
_atom_site_fract_z
V1	V	-4.142609	-0.175302	-0.466597
O2	O	-4.101056	0.008976	-0.457719
O3	O	-4.119167	-0.348125	-0.463402
O4	O	-4.132947	-0.172364	-0.670098
O5	O	-4.087181	-0.168003	-0.249592
V6	V	-4.617983	-0.153289	-0.440642
O7	O	-4.421742	-0.223590	-0.523532
O8	O	-4.789047	-0.105001	-0.383708
O9	O	-4.418218	0.019534	-0.443837
O10	O	-4.776932	-0.337567	-0.449520
O11	O	-4.790808	-0.160588	-0.657647
O12	O	-4.404438	-0.156228	-0.237141
C13	C	-3.968986	-0.390264	-0.456041
C14	C	-4.031364	-0.531547	-0.454785
C15	C	-3.991368	-0.579940	-0.317155
C16	C	-4.049996	-0.712694	-0.315993
C17	C	-4.188606	-0.748651	-0.590101
C18	C	-4.129994	-0.615900	-0.591263
C19	C	-3.911334	-0.559181	-0.158901
C20	C	-3.969961	-0.691935	-0.157738
C21	C	-3.986562	-0.166060	-0.719700
C22	C	-4.060111	-0.164801	-0.886063
C23	C	-4.231742	0.061666	-0.451195
C24	C	-4.148604	0.202948	-0.452461
C25	C	-4.214164	-0.162535	-0.187532
C26	C	-4.119852	-0.163788	-0.021167
H27	H	-3.813490	-0.715031	-0.090939
H28	H	-4.006348	-0.520149	-0.104179
H29	H	-4.162583	-0.576506	-0.703334
C30	C	-4.297085	-0.841441	-0.740220
C31	C	-4.361568	-0.987464	-0.738952
C32	C	-4.470045	-1.080251	-0.889075
C33	C	-4.514038	-1.027016	-1.040466
C34	C	-4.449554	-0.880987	-1.041740
C35	C	-4.341078	-0.788199	-0.891617
H36	H	-4.329003	-1.026878	-0.626878
H37	H	-4.517780	-1.188352	-0.888131
H38	H	-4.594339	-1.095703	-1.151596
H39	H	-4.482120	-0.841572	-1.153814
H40	H	-4.293342	-0.680098	-0.892561
C41	C	-3.655794	-0.487926	-0.085061
C42	C	-3.500333	-0.521037	-0.150391
C43	C	-3.244791	-0.449782	-0.076556
C44	C	-3.144712	-0.345417	0.062609
C45	C	-3.300176	-0.312300	0.127946
C46	C	-3.555717	-0.383555	0.054111
H47	H	-3.574416	-0.598299	-0.253415
H48	H	-3.129707	-0.474298	-0.124923
H49	H	-2.955545	-0.292670	0.117266
H50	H	-3.226093	-0.235038	0.230971
H51	H	-3.670801	-0.359039	0.102479
H52	H	-4.109462	-0.731786	-0.114179
