data_functionalizedCrystal
_audit_creation_method	'MofGen! by Chris Wilmer'
_symmetry_space_group_name_H-M	'P1'
_symmetry_Int_Tables_number	1
_symmetry_cell_setting	triclinic
loop_
_symmetry_equiv_pos_as_xyz
  x,y,z
_cell_length_a	14.971486
_cell_length_b	15.995350
_cell_length_c	14.048226
_cell_angle_alpha	89.995798
_cell_angle_beta	89.998499
_cell_angle_gamma	83.553252
loop_
_atom_site_label
_atom_site_type_symbol
_atom_site_fract_x
_atom_site_fract_y
_atom_site_fract_z
O1	O	1.186822	0.109116	-0.079046
O2	O	1.686822	0.609116	0.420954
O3	O	0.926407	0.122183	-0.079072
O4	O	1.426407	0.622183	0.420928
O5	O	1.063733	-0.006231	-0.079057
O6	O	1.563733	0.493769	0.420943
O7	O	1.049496	0.237530	-0.079061
O8	O	1.549496	0.737530	0.420939
O9	O	1.063717	-0.006238	0.079264
O10	O	1.563717	0.493762	0.579264
O11	O	0.926391	0.122176	0.079250
O12	O	1.426391	0.622176	0.579250
O13	O	1.186806	0.109109	0.079275
O14	O	1.686806	0.609109	0.579275
Zn15	Zn	1.056596	0.115641	0.104399
Zn16	Zn	1.556596	0.615641	0.604399
Zn17	Zn	1.056617	0.115651	-0.104196
Zn18	Zn	1.556617	0.615651	0.395804
O19	O	1.049480	0.237523	0.079261
O20	O	1.549480	0.737523	0.579261
C21	C	0.893075	0.121595	0.000086
C22	C	1.393075	0.621595	0.500086
C23	C	0.793780	0.119844	0.000076
C24	C	1.293780	0.619844	0.500076
C25	C	1.063137	-0.037430	0.000101
C26	C	1.563137	0.462570	0.500101
C27	C	1.061372	-0.130382	0.000096
C28	C	1.561372	0.369618	0.500096
C29	C	0.736468	0.195284	0.000076
C30	C	1.236468	0.695284	0.500076
C31	C	0.643171	0.193633	0.000090
C32	C	1.143171	0.693633	0.500090
C33	C	0.607187	0.116542	0.000098
C34	C	1.107187	0.616542	0.500098
C35	C	0.664505	0.041097	0.000100
C36	C	1.164505	0.541097	0.500100
C37	C	0.757801	0.042748	0.000093
C38	C	1.257801	0.542748	0.500093
C39	C	0.470047	0.037660	0.000113
C40	C	0.970047	0.537660	0.500113
C41	C	0.376745	0.036008	0.000119
C42	C	0.876745	0.536008	0.500119
C43	C	0.355417	0.188545	0.000111
C44	C	0.855417	0.688545	0.500111
C45	C	0.448712	0.190197	0.000104
C46	C	0.948712	0.690197	0.500104
C47	C	0.506025	0.114751	0.000104
C48	C	1.006025	0.614751	0.500104
C49	C	1.055035	-0.468136	0.000098
C50	C	1.555035	0.031864	0.500098
C51	C	0.957234	-0.420800	-0.000266
C52	C	1.457234	0.079200	0.499734
C53	C	0.958999	-0.324108	0.000091
C54	C	1.458999	0.175892	0.500091
C55	C	1.058178	-0.300572	0.000097
C56	C	1.558178	0.199428	0.500097
C57	C	1.106408	-0.341606	0.090509
C58	C	1.606408	0.158394	0.590509
C59	C	1.103951	-0.438244	0.090584
C60	C	1.603951	0.061756	0.590584
C61	C	1.105990	-0.438591	-0.089456
C62	C	1.605990	0.061409	0.410544
C63	C	1.105967	-0.341646	-0.090651
C64	C	1.605967	0.158354	0.409349
C65	C	1.059960	-0.205873	0.000099
C66	C	1.559960	0.294127	0.500099
C67	C	1.053256	-0.562835	0.000103
C68	C	1.553256	-0.062835	0.500103
C69	C	1.220138	0.109697	0.000116
C70	C	1.720138	0.609697	0.500116
C71	C	1.319433	0.111448	0.000119
C72	C	1.819433	0.611448	0.500119
C73	C	1.050077	0.268722	0.000100
C74	C	1.550077	0.768722	0.500100
C75	C	1.051841	0.361674	0.000099
C76	C	1.551841	0.861674	0.500099
N77	N	1.056587	0.115634	0.246760
N78	N	1.556587	0.615634	0.746760
N79	N	1.056633	0.115652	-0.246557
N80	N	1.556633	0.615652	0.253443
C81	C	1.117414	0.058795	0.296584
C82	C	1.617414	0.558795	0.796584
C83	C	1.117421	0.058795	0.396242
C84	C	1.617421	0.558795	0.896242
C85	C	1.056603	0.115637	0.446073
C86	C	1.556603	0.615637	0.946073
C87	C	0.995769	0.172478	0.396242
C88	C	1.495769	0.672478	0.896242
C89	C	0.995760	0.172474	0.296586
C90	C	1.495760	0.672474	0.796586
C91	C	0.995795	0.172484	0.603956
C92	C	1.495795	0.672484	1.103956
C93	C	0.995806	0.172490	0.703619
C94	C	1.495806	0.672490	1.203619
C95	C	1.117456	0.058805	0.703612
C96	C	1.617456	0.558805	1.203612
C97	C	1.117446	0.058801	0.603956
C98	C	1.617446	0.558801	1.103956
C99	C	1.056614	0.115643	0.554132
C100	C	1.556614	0.615643	1.054132
H101	H	0.765759	0.258060	0.000070
H102	H	1.265759	0.758060	0.500070
C103	C	0.525876	0.280264	-0.081301
C104	C	1.025876	0.780264	0.418699
C105	C	0.580175	0.276560	0.000081
C106	C	1.080175	0.776560	0.500081
H107	H	0.486983	0.331461	-0.081303
H108	H	0.986983	0.831461	0.418697
H109	H	0.562713	0.277735	-0.136503
H110	H	1.062713	0.777735	0.363497
H111	H	0.491094	0.234114	-0.081279
H112	H	0.991094	0.734114	0.418721
H113	H	0.614962	0.322707	0.000055
H114	H	1.114962	0.822707	0.500055
H115	H	0.543333	0.279098	0.055297
H116	H	1.043333	0.779098	0.555297
C117	C	0.874896	-0.351149	0.140125
C118	C	1.374896	0.148851	0.640125
C119	C	0.907474	-0.286541	0.087733
C120	C	1.407474	0.213459	0.587733
H121	H	0.843093	-0.327956	0.194239
H122	H	1.343093	0.172044	0.694239
H123	H	0.835653	-0.379233	0.101405
H124	H	1.335653	0.120767	0.601405
H125	H	0.923851	-0.390068	0.160277
H126	H	1.423851	0.109932	0.660277
H127	H	0.858517	-0.247625	0.067575
H128	H	1.358517	0.252375	0.567575
H129	H	0.946718	-0.258444	0.126460
H130	H	1.446718	0.241556	0.626460
C131	C	1.239097	0.040755	0.184447
C132	C	1.739097	0.540755	0.684447
C133	C	1.184227	-0.003709	0.241789
C134	C	1.684227	0.496291	0.741789
H135	H	1.280334	0.002157	0.150619
H136	H	1.780334	0.502157	0.650619
H137	H	1.202869	0.074617	0.140532
H138	H	1.702869	0.574617	0.640532
H139	H	1.271312	0.075635	0.223307
H140	H	1.771312	0.575635	0.723307
H141	H	1.152006	-0.038584	0.202929
H142	H	1.652006	0.461416	0.702929
H143	H	1.220459	-0.037586	0.285709
H144	H	1.720459	0.462414	0.785709
C145	C	0.875557	0.284870	0.613968
C146	C	1.375557	0.784870	1.113968
C147	C	0.928932	0.234970	0.549187
C148	C	1.428932	0.734970	1.049187
H149	H	0.834287	0.323450	0.580154
H150	H	1.334287	0.823450	1.080154
H151	H	0.843387	0.249970	0.652843
H152	H	1.343387	0.749970	1.152843
H153	H	0.912801	0.315042	0.652832
H154	H	1.412801	0.815042	1.152832
H155	H	0.891688	0.204793	0.510328
H156	H	1.391688	0.704793	1.010328
H157	H	0.961104	0.269875	0.510296
H158	H	1.461104	0.769875	1.010296
H159	H	1.070705	-0.314429	-0.157536
H160	H	1.570705	0.185571	0.342464
H161	H	1.166950	0.012513	0.436809
H162	H	1.666950	0.512513	0.936809
H163	H	0.308748	0.249976	0.000115
H164	H	0.808748	0.749976	0.500115
C165	C	0.587342	-0.048991	0.081495
C166	C	1.087342	0.451009	0.581495
C167	C	0.533044	-0.045273	0.000112
C168	C	1.033044	0.454727	0.500112
H169	H	0.626229	-0.100192	0.081491
H170	H	1.126229	0.399808	0.581491
H171	H	0.622123	-0.002850	0.081485
H172	H	1.122123	0.497150	0.581485
H173	H	0.550497	-0.046468	0.136702
H174	H	1.050497	0.453532	0.636702
H175	H	0.569889	-0.047789	-0.055095
H176	H	1.069889	0.452211	0.444905
H177	H	0.498261	-0.091427	0.000113
H178	H	0.998261	0.408573	0.500113
H179	H	0.478007	0.252971	0.000089
H180	H	0.978007	0.752971	0.500089
C181	C	0.366191	-0.094518	-0.081246
C182	C	0.866191	0.405482	0.418754
C183	C	0.337186	-0.048729	0.000133
C184	C	0.837186	0.451271	0.500133
H185	H	0.341771	-0.146833	-0.081233
H186	H	0.841771	0.353167	0.418767
H187	H	0.346518	-0.063454	-0.136450
H188	H	0.846518	0.436546	0.363550
H189	H	0.429957	-0.104334	-0.081236
H190	H	0.929957	0.395666	0.418764
H191	H	0.273419	-0.038908	0.000120
H192	H	0.773419	0.461092	0.500120
H193	H	0.356853	-0.079800	0.055351
H194	H	0.856853	0.420200	0.555351
C195	C	1.136568	-0.055305	0.492177
C196	C	1.636568	0.444695	0.992177
C197	C	1.184184	-0.003884	0.549309
C198	C	1.684184	0.496116	1.049309
H199	H	1.177736	-0.094062	0.458476
H200	H	1.677736	0.405938	0.958476
H201	H	1.099229	-0.085268	0.531156
H202	H	1.599229	0.414732	1.031156
H203	H	1.100455	-0.021455	0.448142
H204	H	1.600455	0.478545	0.948142
H205	H	1.220292	-0.037734	0.593349
H206	H	1.720292	0.462266	1.093349
H207	H	1.221538	0.026082	0.510326
H208	H	1.721538	0.526082	1.010326
H209	H	1.166988	0.012522	0.744185
H210	H	1.666988	0.512522	1.244185
C211	C	0.874109	0.190449	0.815725
C212	C	1.374109	0.690449	1.315725
C213	C	0.928952	0.234961	0.758406
C214	C	1.428952	0.734961	1.258406
H215	H	0.832841	0.229017	0.849554
H216	H	1.332841	0.729017	1.349554
H217	H	0.841937	0.155551	0.776857
H218	H	1.341937	0.655551	1.276857
H219	H	0.910358	0.156600	0.859649
H220	H	1.410358	0.656600	1.359649
H221	H	0.892704	0.268805	0.714477
H222	H	1.392704	0.768805	1.214477
H223	H	0.961127	0.269873	0.797277
H224	H	1.461127	0.769873	1.297277
H225	H	0.635200	-0.021672	0.000119
H226	H	1.135200	0.478328	0.500119
C227	C	1.028199	-0.366958	0.235048
C228	C	1.528199	0.133042	0.735048
C229	C	1.061170	-0.303354	0.181338
C230	C	1.561170	0.196646	0.681338
H231	H	1.000273	-0.343343	0.291123
H232	H	1.500273	0.156657	0.791123
H233	H	0.985484	-0.392727	0.198470
H234	H	1.485484	0.107273	0.698470
H235	H	1.076485	-0.407932	0.251991
H236	H	1.576485	0.092068	0.751991
H237	H	1.012883	-0.262382	0.164389
H238	H	1.512883	0.237618	0.664389
H239	H	1.103889	-0.277571	0.217923
H240	H	1.603889	0.222429	0.717923
H241	H	0.804464	-0.018683	0.000092
H242	H	1.304464	0.481317	0.500092
C243	C	1.222744	-0.270449	-0.020775
C244	C	1.722744	0.229551	0.479225
C245	C	1.203610	-0.320819	-0.098017
C246	C	1.703610	0.179181	0.401983
H247	H	1.283029	-0.257598	-0.025316
H248	H	1.783029	0.242402	0.474684
H249	H	1.183033	-0.219783	-0.021547
H250	H	1.683033	0.280217	0.478453
H251	H	1.215160	-0.299812	0.036922
H252	H	1.715160	0.200188	0.536922
H253	H	1.211187	-0.291453	-0.155715
H254	H	1.711187	0.208547	0.344285
H255	H	1.243332	-0.371494	-0.097255
H256	H	1.743332	0.128506	0.402745
H257	H	0.921086	-0.295721	-0.064720
H258	H	1.421086	0.204279	0.435280
H259	H	0.918150	-0.439368	-0.065103
H260	H	1.418150	0.060632	0.434897
H261	H	0.946246	0.218758	0.436821
H262	H	1.446246	0.718758	0.936821
C263	C	1.260903	-0.420628	0.099397
C264	C	1.760903	0.079372	0.599397
C265	C	1.200878	-0.481687	0.096145
C266	C	1.700878	0.018313	0.596145
H267	H	1.320739	-0.447447	0.102840
H268	H	1.820739	0.052553	0.602840
H269	H	1.254133	-0.386904	0.043654
H270	H	1.754133	0.113096	0.543654
H271	H	1.248552	-0.386130	0.153916
H272	H	1.748552	0.113870	0.653916
H273	H	1.213225	-0.516181	0.041622
H274	H	1.713225	-0.016181	0.541622
H275	H	1.207653	-0.515425	0.151895
H276	H	1.707653	-0.015425	0.651895
H277	H	0.918310	-0.440436	0.064202
H278	H	1.418310	0.059564	0.564202
H279	H	1.068768	-0.456584	0.158165
H280	H	1.568768	0.043416	0.658165
H281	H	0.946227	0.218756	0.256020
H282	H	1.446227	0.718756	0.756020
C283	C	0.989855	-0.510391	-0.159700
C284	C	1.489855	-0.010391	0.340300
C285	C	1.062832	-0.466349	-0.181968
C286	C	1.562832	0.033651	0.318032
H287	H	0.963202	-0.527521	-0.216810
H288	H	1.463202	-0.027521	0.283190
H289	H	1.010161	-0.558560	-0.122798
H290	H	1.510161	-0.058560	0.377202
H291	H	0.946702	-0.474953	-0.124401
H292	H	1.446702	0.025047	0.375599
H293	H	1.105989	-0.501789	-0.217261
H294	H	1.605989	-0.001789	0.282739
H295	H	1.042527	-0.418173	-0.218886
H296	H	1.542527	0.081827	0.281114
H297	H	1.178098	-0.470280	-0.090060
H298	H	1.678098	0.029720	0.409940
H299	H	1.179272	-0.327407	0.093875
H300	H	1.679272	0.172593	0.593875
