data_functionalizedCrystal
_audit_creation_method	'MofGen! by Chris Wilmer'
_symmetry_space_group_name_H-M	'P1'
_symmetry_Int_Tables_number	1
_symmetry_cell_setting	triclinic
loop_
_symmetry_equiv_pos_as_xyz
  x,y,z
_cell_length_a	17.699104
_cell_length_b	27.731996
_cell_length_c	26.809956
_cell_angle_alpha	89.989402
_cell_angle_beta	89.983055
_cell_angle_gamma	82.956452
loop_
_atom_site_label
_atom_site_type_symbol
_atom_site_fract_x
_atom_site_fract_y
_atom_site_fract_z
O1	O	1.003521	0.061174	-0.041496
O2	O	0.783073	0.069116	-0.041496
O3	O	0.900164	-0.005228	-0.041485
O4	O	0.886430	0.135519	-0.041507
O5	O	0.900129	-0.005228	0.041474
O6	O	0.783037	0.069116	0.041463
O7	O	1.003486	0.061174	0.041463
Zn8	Zn	0.893256	0.065145	0.054635
Zn9	Zn	0.893303	0.065145	-0.054668
O10	O	0.886394	0.135519	0.041452
C11	C	0.754861	0.068830	-0.000016
C12	C	0.670852	0.067971	-0.000015
C13	C	0.145627	0.106766	-0.000027
C14	C	0.224564	0.107570	-0.000028
C15	C	0.273579	0.063927	-0.000021
C16	C	0.243654	0.019477	-0.000018
C17	C	0.164719	0.018673	-0.000020
C18	C	0.561990	0.022717	-0.000011
C19	C	0.640930	0.023524	-0.000007
C20	C	0.621835	0.111614	-0.000019
C21	C	0.542900	0.110810	-0.000021
C22	C	0.512982	0.066360	-0.000020
C23	C	0.427390	0.065489	-0.000019
C24	C	0.359169	0.064798	-0.000019
C25	C	0.899864	-0.023237	-0.000004
C26	C	0.899015	-0.076896	0.000001
C27	C	0.893688	-0.409632	-0.045244
C28	C	0.890460	-0.611302	-0.045253
O29	O	0.890027	-0.637374	-0.083712
N30	N	0.890040	-0.636520	-0.000032
C31	C	0.890422	-0.611318	0.045194
O32	O	0.889982	-0.637395	0.083656
C33	C	0.893643	-0.409649	0.045202
C34	C	0.894071	-0.384433	-0.000022
C35	C	0.894115	-0.384416	-0.090464
C36	C	0.894925	-0.334002	-0.090462
C37	C	0.895309	-0.308803	-0.045239
C38	C	0.894882	-0.334019	-0.000019
C39	C	0.894019	-0.384447	0.090427
C40	C	0.894823	-0.334026	0.090425
C41	C	0.895251	-0.308811	0.045202
C42	C	0.896077	-0.258406	0.045206
N43	N	0.896497	-0.233188	-0.000014
C44	C	0.896113	-0.258386	-0.045237
C45	C	0.888732	-0.717198	0.045186
C46	C	0.887928	-0.767615	0.045184
C47	C	0.887965	-0.767595	-0.045263
C48	C	0.888775	-0.717177	-0.045260
C49	C	0.889152	-0.691979	-0.000035
C50	C	0.897817	-0.152513	-0.045228
C51	C	0.898631	-0.102095	-0.045221
C52	C	0.898589	-0.102119	0.045225
C53	C	0.897779	-0.152533	0.045219
C54	C	0.897391	-0.177729	-0.000012
O55	O	0.896502	-0.232302	0.083645
O56	O	0.896536	-0.232299	-0.083694
C57	C	0.892877	-0.460046	-0.045247
C58	C	0.892450	-0.485261	-0.000027
C59	C	0.892833	-0.460063	0.045196
C60	C	0.891645	-0.535679	-0.000029
C61	C	0.891262	-0.560877	-0.045252
C62	C	0.891682	-0.535659	-0.090472
C63	C	0.892493	-0.485244	-0.090470
C64	C	0.892413	-0.485281	0.090416
C65	C	0.891603	-0.535696	0.090410
C66	C	0.891219	-0.560894	0.045187
C67	C	1.031698	0.061460	-0.000018
C68	C	1.115707	0.062319	-0.000022
C69	C	0.886694	0.153527	-0.000030
C70	C	0.887544	0.207187	-0.000038
N71	N	0.893229	0.065145	0.129231
N72	N	0.893336	0.065142	-0.129264
C73	C	0.938843	0.094423	0.473852
C74	C	0.938867	0.094422	0.682730
O75	O	0.977629	0.119310	0.709730
N76	N	0.893321	0.065140	0.708858
C77	C	0.847769	0.035854	0.682763
O78	O	0.809036	0.010944	0.709780
C79	C	0.847750	0.035852	0.473887
C80	C	0.893293	0.065140	0.447761
C81	C	0.984383	0.123708	0.447727
C82	C	0.984373	0.123709	0.395510
C83	C	0.938823	0.094426	0.369419
C84	C	0.893283	0.065142	0.395545
C85	C	0.802202	0.006563	0.447793
C86	C	0.802203	0.006565	0.395571
C87	C	0.847746	0.035852	0.369445
C88	C	0.847723	0.035860	0.317238
N89	N	0.893270	0.065142	0.291110
C90	C	0.938819	0.094425	0.317200
C91	C	0.847782	0.035858	0.792427
C92	C	0.847786	0.035859	0.844646
C93	C	0.938885	0.094427	0.844608
C94	C	0.938876	0.094428	0.792388
C95	C	0.893328	0.065140	0.766299
C96	C	0.938795	0.094427	0.207543
C97	C	0.938779	0.094428	0.155322
C98	C	0.847683	0.035858	0.155363
C99	C	0.847696	0.035859	0.207580
C100	C	0.893258	0.065145	0.233668
O101	O	0.808988	0.010981	0.290206
O102	O	0.977560	0.119323	0.290175
C103	C	0.938852	0.094421	0.526068
C104	C	0.893312	0.065136	0.552194
C105	C	0.847762	0.035853	0.526103
C106	C	0.893316	0.065137	0.604413
C107	C	0.938866	0.094420	0.630504
C108	C	0.984412	0.123702	0.604375
C109	C	0.984402	0.123704	0.552159
C110	C	0.802216	0.006571	0.552231
C111	C	0.802229	0.006572	0.604447
C112	C	0.847779	0.035855	0.630538
H113	H	0.897496	-0.173021	-0.082059
O114	O	1.028603	0.152221	0.526841
C115	C	1.007028	0.201302	0.539593
H116	H	0.977646	0.203394	0.577511
H117	H	1.059778	0.221059	0.541371
H118	H	0.966215	0.219141	0.510208
H119	H	0.889122	-0.696650	-0.082085
O120	O	0.899145	-0.077577	-0.089135
C121	C	0.965161	-0.053941	-0.091851
H122	H	1.010771	-0.073022	-0.066213
H123	H	0.987160	-0.055205	-0.131856
H124	H	0.950935	-0.014484	-0.079680
H125	H	0.680838	-0.012018	-0.000003
O126	O	0.650863	0.154806	0.000063
C127	C	0.625733	0.181409	0.043018
H128	H	0.609607	0.155415	0.073052
H129	H	0.673306	0.201917	0.057437
H130	H	0.573966	0.208405	0.033301
O131	O	0.098048	0.149175	-0.000122
C132	C	0.111566	0.176171	-0.043085
H133	H	0.138865	0.150619	-0.073110
H134	H	0.055334	0.195622	-0.057513
H135	H	0.151429	0.204101	-0.033375
H136	H	0.248920	0.143763	-0.000037
H137	H	0.975866	0.118280	0.134053
H138	H	0.975896	0.118274	0.228777
O139	O	0.983048	0.122943	0.869936
C140	C	0.961512	0.172026	0.857168
H141	H	0.900424	0.176754	0.842823
H142	H	0.965640	0.195798	0.891507
H143	H	1.001057	0.183216	0.826850
O144	O	1.028577	0.152225	0.370193
C145	C	1.007006	0.201306	0.382944
H146	H	0.977621	0.203400	0.420862
H147	H	1.059758	0.221061	0.384725
H148	H	0.966197	0.219147	0.353559
O149	O	0.533060	-0.020502	0.000018
C150	C	0.593251	-0.058848	0.000016
H151	H	0.646710	-0.045359	0.015720
H152	H	0.577112	-0.089885	0.024108
H153	H	0.604603	-0.072308	-0.039780
O154	O	0.291372	-0.022874	0.000010
C155	C	0.367459	-0.012635	0.000000
H156	H	0.370028	0.025328	0.015701
H157	H	0.403541	-0.040460	0.024091
H158	H	0.390334	-0.014495	-0.039798
O159	O	0.895292	-0.309507	0.134329
C160	C	0.961341	-0.285908	0.137052
H161	H	0.983346	-0.280193	0.097791
H162	H	0.947150	-0.249212	0.156198
H163	H	1.006934	-0.309234	0.159367
H164	H	0.140360	-0.017520	-0.000017
O165	O	0.895297	-0.309582	-0.134437
C166	C	0.894801	-0.342645	-0.174346
H167	H	0.870255	-0.376555	-0.161082
H168	H	0.858284	-0.324965	-0.205975
H169	H	0.955463	-0.353148	-0.188254
O170	O	0.495212	0.153174	-0.000096
C171	C	0.449020	0.155347	-0.043070
H172	H	0.445491	0.116984	-0.057386
H173	H	0.389467	0.173424	-0.033414
H174	H	0.474748	0.177391	-0.073159
O175	O	0.803327	0.007469	0.130035
C176	C	0.726345	0.020904	0.142814
H177	H	0.718547	0.059890	0.157167
H178	H	0.689151	0.018115	0.108478
H179	H	0.709087	-0.004429	0.173129
H180	H	0.893799	-0.404927	-0.127292
H181	H	0.897438	-0.173065	0.082044
O182	O	0.887453	-0.792088	-0.089180
C183	C	0.821421	-0.815708	-0.091870
H184	H	0.775828	-0.796634	-0.066205
H185	H	0.799409	-0.814414	-0.131865
H186	H	0.835632	-0.855174	-0.079717
O187	O	1.028750	0.152075	0.629748
C188	C	1.080732	0.122555	0.659954
H189	H	1.089318	0.084087	0.644216
H190	H	1.137557	0.137957	0.660535
H191	H	1.057355	0.121752	0.699534
O192	O	0.757908	-0.021816	0.370173
C193	C	0.705889	0.007697	0.339987
H194	H	0.729005	0.043547	0.332148
H195	H	0.697683	-0.011729	0.303273
H196	H	0.648915	0.015140	0.360128
H197	H	0.810601	0.012017	0.228852
H198	H	1.021479	0.147553	0.468964
H199	H	0.765135	-0.017276	0.625714
H200	H	0.887591	-0.788142	0.082010
H201	H	0.892727	-0.464770	0.127243
H202	H	0.975961	0.118277	0.771121
H203	H	0.893672	-0.404968	0.127253
H204	H	0.810691	0.012016	0.865912
H205	H	0.889043	-0.696686	0.082016
H206	H	0.898905	-0.081593	0.082044
H207	H	0.892841	-0.464719	-0.127295
H208	H	0.810689	0.012007	0.771189
O209	O	0.757894	-0.021887	0.526968
C210	C	0.717716	-0.047738	0.561232
H211	H	0.713075	-0.027723	0.598452
H212	H	0.658233	-0.050690	0.546167
H213	H	0.749350	-0.085706	0.566785
H214	H	0.765117	-0.017286	0.469055
O215	O	0.891170	-0.560155	-0.134387
C216	C	0.825135	-0.583772	-0.137076
H217	H	0.779542	-0.564693	-0.111414
H218	H	0.803125	-0.582482	-0.177071
H219	H	0.839341	-0.623237	-0.124918
O220	O	0.891156	-0.560109	0.134388
C221	C	0.891686	-0.527052	0.174300
H222	H	0.868305	-0.489082	0.161037
H223	H	0.854672	-0.538506	0.205927
H224	H	0.952507	-0.526839	0.188209
