data_functionalizedCrystal
_audit_creation_method	'MofGen! by Chris Wilmer'
_symmetry_space_group_name_H-M	'P1'
_symmetry_Int_Tables_number	1
_symmetry_cell_setting	triclinic
loop_
_symmetry_equiv_pos_as_xyz
  x,y,z
_cell_length_a	18.101395
_cell_length_b	18.101398
_cell_length_c	21.395355
_cell_angle_alpha	89.966328
_cell_angle_beta	90.015727
_cell_angle_gamma	89.973721
loop_
_atom_site_label
_atom_site_type_symbol
_atom_site_fract_x
_atom_site_fract_y
_atom_site_fract_z
Zn1	Zn	-0.295011	-1.132162	0.354426
Zn2	Zn	-0.418834	-1.132045	0.249654
Zn3	Zn	-0.295000	-1.008309	0.249646
Zn4	Zn	-0.418804	-1.008271	0.354377
O5	O	-0.356912	-1.070197	0.302026
O6	O	-0.311453	-1.235779	0.340551
O7	O	-0.402415	-1.115598	0.161975
O8	O	-0.191369	-1.024802	0.263563
O9	O	-0.402425	-1.235694	0.263575
O10	O	-0.191376	-1.115796	0.340544
O11	O	-0.311435	-1.024689	0.161969
O12	O	-0.311407	-0.904671	0.263515
O13	O	-0.402375	-1.024739	0.442062
O14	O	-0.402365	-0.904643	0.340461
O15	O	-0.311424	-1.115760	0.442097
O16	O	-0.522463	-1.115562	0.263528
O17	O	-0.522441	-1.024626	0.340468
C18	C	-0.356882	-0.877786	0.301982
C19	C	-0.356887	-0.795472	0.301978
C20	C	-0.356895	-0.644764	0.301999
C21	C	-0.299583	-0.613402	0.253666
C22	C	-0.299364	-0.527784	0.253821
C23	C	-0.356904	-0.496381	0.302019
C24	C	-0.336087	-0.527529	0.368125
C25	C	-0.335667	-0.613173	0.367835
C26	C	-0.435170	-0.613158	0.284807
C27	C	-0.434754	-0.527506	0.283362
C28	C	-0.356910	-0.412522	0.302034
C29	C	-0.356888	-0.728623	0.301989
C30	C	-0.549323	-1.070098	0.302007
C31	C	-0.631637	-1.070123	0.302020
C32	C	-0.930728	-1.070285	0.302054
C33	C	-0.899420	-1.013203	0.350583
C34	C	-0.813802	-1.012932	0.350431
C35	C	-0.782345	-1.070205	0.302038
C36	C	-0.813479	-1.049068	0.236002
C37	C	-0.899124	-1.048700	0.236292
C38	C	-0.899082	-1.148629	0.318980
C39	C	-0.813432	-1.148169	0.320428
C40	C	-0.698486	-1.070161	0.302025
C41	C	-1.014587	-1.070328	0.302063
C42	C	-0.163750	-1.070316	0.302058
C43	C	-0.081436	-1.070367	0.302072
C44	C	-0.356897	-1.070258	0.465449
C45	C	-0.356891	-1.070284	0.535090
C46	C	-0.356932	-0.263359	0.302057
C47	C	-0.356912	-0.345673	0.302039
C48	C	-0.356874	-1.070178	0.139238
C49	C	-0.356672	-1.070295	0.069597
C50	C	-0.309531	-1.117677	0.567823
C51	C	-0.309499	-1.117676	0.633259
C52	C	-0.356841	-1.070290	0.665959
C53	C	-0.404204	-1.022888	0.633218
C54	C	-0.404229	-1.022885	0.567784
C55	C	-0.423521	-1.064408	0.769626
C56	C	-0.423497	-1.064416	0.835059
C57	C	-0.356762	-1.070295	0.867780
C58	C	-0.290049	-1.076181	0.835059
C59	C	-0.290074	-1.076178	0.769625
C60	C	-0.356818	-1.070288	0.736911
C61	C	-0.309364	-1.117689	0.971465
C62	C	-0.309331	-1.117683	1.036902
C63	C	-0.404042	-1.022898	1.036860
C64	C	-0.404069	-1.022901	0.971424
C65	C	-0.356730	-1.070300	0.938731
H66	H	-0.375613	-0.633924	0.405093
H67	H	-0.235754	-1.080968	0.742986
N68	N	-0.455310	-0.971755	0.532484
H69	H	-0.508222	-0.983217	0.543879
H70	H	-0.448084	-0.978961	0.486080
H71	H	-0.479715	-0.506122	0.315973
H72	H	-0.312349	-0.506721	0.204812
N73	N	-0.786733	-0.936016	0.335569
H74	H	-0.730939	-0.935519	0.335410
H75	H	-0.805545	-0.900444	0.368253
N76	N	-0.786482	-1.102396	0.186795
H77	H	-0.807171	-1.087749	0.144727
H78	H	-0.803457	-1.153980	0.197623
H79	H	-0.312422	-0.633938	0.204496
H80	H	-0.270984	-1.156273	0.541208
H81	H	-0.792751	-1.026157	0.399396
H82	H	-0.477819	-1.059628	0.861695
H83	H	-0.241911	-0.634951	0.264934
N84	N	-0.927994	-0.936746	0.335923
H85	H	-0.983729	-0.936638	0.338111
H86	H	-0.911726	-0.922003	0.292524
N87	N	-0.258416	-1.168794	0.668574
H88	H	-0.228431	-1.198820	0.637934
H89	H	-0.288563	-1.203044	0.695739
H90	H	-0.376558	-0.507192	0.405132
H91	H	-0.235707	-1.080969	0.861698
N92	N	-0.926660	-1.030535	0.415654
H93	H	-0.883087	-1.040571	0.443912
H94	H	-0.959570	-1.075544	0.414253
H95	H	-0.793081	-1.164108	0.369027
N96	N	-0.455254	-0.971766	0.668483
H97	H	-0.448050	-0.978957	0.714902
H98	H	-0.508154	-0.983248	0.657056
N99	N	-0.785063	-1.207491	0.277029
H100	H	-0.751510	-1.184565	0.244685
H101	H	-0.828140	-1.232161	0.255499
H102	H	-0.919159	-0.991431	0.221955
H103	H	-0.279512	-0.506110	0.382911
N104	N	-0.222538	-0.500672	0.268929
H105	H	-0.188683	-0.544357	0.275519
H106	H	-0.224073	-0.469821	0.308224
H107	H	-0.278460	-0.633180	0.382366
H108	H	-0.919836	-1.088472	0.198901
N109	N	-0.258308	-1.168807	0.936197
H110	H	-0.228295	-1.198827	0.966865
H111	H	-0.224044	-1.138683	0.909029
H112	H	-0.454185	-0.634713	0.237409
N113	N	-0.491727	-0.640026	0.331431
H114	H	-0.493571	-0.695784	0.330690
H115	H	-0.541873	-0.619495	0.320126
H116	H	-0.442639	-0.984313	0.944773
N117	N	-0.455560	-0.500541	0.218917
H118	H	-0.414734	-0.468295	0.201874
H119	H	-0.502828	-0.471028	0.221440
H120	H	-0.792086	-0.992406	0.221408
H121	H	-0.920643	-1.167898	0.366314
H122	H	-0.477851	-1.059423	0.742991
H123	H	-0.919327	-1.191157	0.283635
N124	N	-0.258234	-1.168789	1.072210
H125	H	-0.228249	-1.198811	1.041567
H126	H	-0.288366	-1.203042	1.099383
H127	H	-0.442581	-0.984308	1.063484
