data_functionalizedCrystal
_audit_creation_method	'MofGen! by Chris Wilmer'
_symmetry_space_group_name_H-M	'P1'
_symmetry_Int_Tables_number	1
_symmetry_cell_setting	triclinic
loop_
_symmetry_equiv_pos_as_xyz
  x,y,z
_cell_length_a	14.908571
_cell_length_b	12.759394
_cell_length_c	14.908308
_cell_angle_alpha	86.731597
_cell_angle_beta	89.824947
_cell_angle_gamma	86.711101
loop_
_atom_site_label
_atom_site_type_symbol
_atom_site_fract_x
_atom_site_fract_y
_atom_site_fract_z
Zn1	Zn	1.345341	-0.548282	0.587592
Zn2	Zn	1.845341	-0.048282	1.087592
Zn3	Zn	1.353935	-0.714462	0.437236
Zn4	Zn	1.853935	-0.214462	0.937236
Zn5	Zn	1.203654	-0.528102	0.428590
Zn6	Zn	1.703654	-0.028102	0.928590
Zn7	Zn	1.194963	-0.713213	0.578887
Zn8	Zn	1.694963	-0.213213	1.078887
O9	O	1.274473	-0.626015	0.508076
O10	O	1.774473	-0.126015	1.008076
O11	O	1.472308	-0.579294	0.574908
O12	O	1.972308	-0.079294	1.074908
O13	O	1.341234	-0.681818	0.310264
O14	O	1.841234	-0.181818	0.810264
O15	O	1.222490	-0.383762	0.449706
O16	O	1.722490	0.116238	0.949706
O17	O	1.478622	-0.701385	0.464442
O18	O	1.978622	-0.201385	0.964442
O19	O	1.326587	-0.398588	0.566525
O20	O	1.826587	0.101412	1.066525
O21	O	1.230824	-0.544900	0.303912
O22	O	1.730824	-0.044900	0.803912
O23	O	1.076675	-0.543690	0.441266
O24	O	1.576675	-0.043690	0.941266
O25	O	1.207676	-0.699258	0.705867
O26	O	1.707676	-0.199258	1.205867
O27	O	1.070289	-0.679690	0.551688
O28	O	1.570289	-0.179690	1.051688
O29	O	1.318159	-0.578083	0.712262
O30	O	1.818159	-0.078083	1.212262
O31	O	1.332806	-0.861313	0.456001
O32	O	1.832806	-0.361313	0.956001
O33	O	1.216010	-0.860396	0.560072
O34	O	1.716010	-0.360396	1.060072
C35	C	1.040856	-0.609365	0.494595
C36	C	1.540856	-0.109365	0.994595
C37	C	0.940913	-0.602270	0.488849
C38	C	1.440913	-0.102270	0.988849
C39	C	0.746516	-0.730752	0.592880
C40	C	1.246516	-0.230752	1.092880
C41	C	0.652610	-0.724088	0.587484
C42	C	1.152610	-0.224088	1.087484
C43	C	0.659192	-0.582274	0.472666
C44	C	1.159192	-0.082274	0.972666
C45	C	0.753098	-0.588938	0.478062
C46	C	1.253098	-0.088938	0.978062
C47	C	0.796757	-0.663180	0.538170
C48	C	1.296757	-0.163180	1.038170
C49	C	0.890665	-0.669848	0.543561
C50	C	1.390665	-0.169848	1.043561
C51	C	0.897246	-0.528030	0.428748
C52	C	1.397246	-0.028030	0.928748
C53	C	0.803340	-0.521366	0.423352
C54	C	1.303340	-0.021366	0.923352
C55	C	1.274420	-0.898977	0.508051
C56	C	1.774420	-0.398977	1.008051
C57	C	1.274478	-1.015759	0.508075
C58	C	1.774478	-0.515759	1.008075
C59	C	1.396180	-1.016672	0.399798
C60	C	1.896180	-0.516672	0.899798
C61	C	1.457053	-1.071992	0.345671
C62	C	1.957053	-0.571992	0.845671
C63	C	1.457105	-1.181719	0.345698
C64	C	1.957105	-0.681719	0.845698
C65	C	1.396278	-1.236129	0.399860
C66	C	1.896278	-0.736129	0.899860
C67	C	1.335404	-1.180809	0.453987
C68	C	1.835404	-0.680809	0.953987
C69	C	1.335358	-1.071079	0.453952
C70	C	1.835358	-0.571079	0.953952
C71	C	1.213709	-1.179897	0.562269
C72	C	1.713709	-0.679897	1.062269
C73	C	1.213651	-1.070169	0.562238
C74	C	1.713651	-0.570169	1.062238
C75	C	1.152882	-1.234306	0.616431
C76	C	1.652882	-0.734306	1.116431
C77	C	1.092002	-1.178986	0.670555
C78	C	1.592002	-0.678986	1.170555
C79	C	1.091953	-1.069252	0.670524
C80	C	1.591953	-0.569252	1.170524
C81	C	1.152778	-1.014849	0.616365
C82	C	1.652778	-0.514849	1.116365
C83	C	1.509002	-0.642730	0.521611
C84	C	2.009002	-0.142730	1.021611
C85	C	1.608945	-0.649853	0.527378
C86	C	2.108945	-0.149853	1.027378
C87	C	1.260989	-0.640782	0.742602
C88	C	1.760989	-0.140782	1.242602
C89	C	1.255243	-0.647075	0.842543
C90	C	1.755243	-0.147075	1.342543
C91	C	1.274549	-0.351989	0.508122
C92	C	1.774549	0.148011	1.008122
C93	C	1.274582	-0.235216	0.508142
C94	C	1.774582	0.264784	1.008142
C95	C	1.287956	-0.611232	0.274466
C96	C	1.787956	-0.111232	0.774466
C97	C	1.293877	-0.604656	0.174536
C98	C	1.793877	-0.104656	0.674536
C99	C	1.359488	-0.532697	1.037003
C100	C	1.859488	-0.032697	1.537003
C101	C	1.354092	-0.538606	1.130907
C102	C	1.854092	-0.038606	1.630907
C103	C	1.239051	-0.664798	1.124254
C104	C	1.739051	-0.164798	1.624254
C105	C	1.244447	-0.658888	1.030351
C106	C	1.744447	-0.158888	1.530351
C107	C	1.304669	-0.592837	0.986729
C108	C	1.804669	-0.092837	1.486729
C109	C	1.310069	-0.586934	0.892824
C110	C	1.810069	-0.086934	1.392824
C111	C	1.195024	-0.713118	0.886173
C112	C	1.695024	-0.213118	1.386173
C113	C	1.189627	-0.719028	0.980077
C114	C	1.689627	-0.219028	1.480077
H115	H	0.926210	-0.730302	0.592502
H116	H	1.426210	-0.230302	1.092502
H117	H	1.398730	-0.489631	1.171837
H118	H	1.898730	0.010369	1.671837
C119	C	1.396121	-0.895969	0.399754
C120	C	1.896121	-0.395969	0.899754
N121	N	1.396079	-0.805053	0.399719
N122	N	1.896079	-0.305053	0.899719
C123	C	0.794542	-0.812421	0.658995
C124	C	1.294542	-0.312421	1.158995
N125	N	0.830714	-0.873936	0.708795
N126	N	1.330714	-0.373936	1.208795
C127	C	0.597348	-0.798429	0.647664
C128	C	1.097348	-0.298429	1.147664
N129	N	0.555725	-0.854427	0.692992
N130	N	1.055725	-0.354427	1.192992
C131	C	0.611151	-0.500604	0.406562
C132	C	1.111151	-0.000604	0.906562
N133	N	0.574965	-0.439088	0.356773
N134	N	1.074965	0.060912	0.856773
C135	C	1.025099	-1.238843	0.730125
C136	C	1.525099	-0.738843	1.230125
N137	N	0.974703	-1.283932	0.774991
N138	N	1.474703	-0.783932	1.274991
H139	H	1.150388	-0.762092	0.845230
H140	H	1.650388	-0.262092	1.345230
C141	C	1.123381	-0.791672	1.028071
C142	C	1.623381	-0.291672	1.528071
N143	N	1.073482	-0.846389	1.064220
N144	N	1.573482	-0.346389	1.564220
C145	C	0.755305	-0.439704	0.357237
C146	C	1.255305	0.060296	0.857237
N147	N	0.719126	-0.378196	0.307436
N148	N	1.219126	0.121804	0.807436
H149	H	0.938162	-0.473010	0.384197
H150	H	1.438162	0.026990	0.884197
H151	H	1.506677	-1.226761	0.301628
H152	H	2.006677	-0.726761	0.801628
C153	C	1.396342	-1.356832	0.399892
C154	C	1.896342	-0.856832	0.899892
N155	N	1.396389	-1.447747	0.399915
N156	N	1.896389	-0.947747	0.899915
C157	C	1.523957	-1.012133	0.286092
C158	C	2.023957	-0.512133	0.786092
N159	N	1.574349	-0.967050	0.241218
N160	N	2.074349	-0.467050	0.741218
C161	C	1.024992	-1.008410	0.730077
C162	C	1.524992	-0.508410	1.230077
N163	N	0.974558	-0.962588	0.774935
N164	N	1.474558	-0.462588	1.274935
H165	H	1.152931	-1.323652	0.616454
H166	H	1.652931	-0.823652	1.116454
C167	C	1.152734	-0.894147	0.616331
C168	C	1.652734	-0.394147	1.116331
N169	N	1.152707	-0.803234	0.616307
N170	N	1.652707	-0.303234	1.116307
C171	C	1.172790	-0.737420	1.172254
C172	C	1.672790	-0.237420	1.672254
N173	N	1.122876	-0.792113	1.208408
N174	N	1.622876	-0.292113	1.708408
C175	C	1.425736	-0.460046	0.989017
C176	C	1.925736	0.039954	1.489017
N177	N	1.475634	-0.405323	0.952875
N178	N	1.975634	0.094677	1.452875
H179	H	1.359106	-0.533153	0.857308
H180	H	1.859106	-0.033153	1.357308
