data_functionalizedCrystal
_audit_creation_method	'MofGen! by Chris Wilmer'
_symmetry_space_group_name_H-M	'P1'
_symmetry_Int_Tables_number	1
_symmetry_cell_setting	triclinic
loop_
_symmetry_equiv_pos_as_xyz
  x,y,z
_cell_length_a	16.109302
_cell_length_b	10.654550
_cell_length_c	14.586319
_cell_angle_alpha	89.998997
_cell_angle_beta	90.007794
_cell_angle_gamma	83.973342
loop_
_atom_site_label
_atom_site_type_symbol
_atom_site_fract_x
_atom_site_fract_y
_atom_site_fract_z
O1	O	1.104093	0.161416	0.076279
O2	O	1.604093	0.661416	0.576279
O3	O	0.862151	0.181504	0.076272
O4	O	1.362151	0.681504	0.576272
O5	O	0.988685	-0.011355	0.076272
O6	O	1.488685	0.488645	0.576272
O7	O	0.977560	0.354275	0.076279
O8	O	1.477560	0.854275	0.576279
O9	O	0.988669	-0.011343	-0.076209
O10	O	1.488669	0.488657	0.423791
O11	O	0.862135	0.181515	-0.076209
O12	O	1.362135	0.681515	0.423791
O13	O	1.104078	0.161428	-0.076202
O14	O	1.604078	0.661428	0.423798
Cu15	Cu	0.983105	0.171472	-0.090128
Cu16	Cu	1.483105	0.671472	0.409872
Cu17	Cu	0.983124	0.171459	0.090198
Cu18	Cu	1.483124	0.671459	0.590198
O19	O	0.977544	0.354286	-0.076202
O20	O	1.477544	0.854286	0.423798
C21	C	0.831164	0.180695	0.000030
C22	C	1.331164	0.680695	0.500030
C23	C	0.738854	0.178255	0.000028
C24	C	1.238854	0.678255	0.500028
C25	C	0.526471	0.172620	-0.083081
C26	C	1.026471	0.672620	0.416919
C27	C	0.439737	0.170314	-0.083078
C28	C	0.939737	0.670314	0.416922
C29	C	0.439765	0.170308	0.083165
C30	C	0.939765	0.670308	0.583165
C31	C	0.526497	0.172605	0.083161
C32	C	1.026497	0.672605	0.583161
C33	C	0.569848	0.173767	0.000035
C34	C	1.069848	0.673767	0.500035
C35	C	0.396381	0.169164	0.000043
C36	C	0.896381	0.669164	0.500043
C37	C	0.302341	0.166664	0.000047
C38	C	0.802341	0.666664	0.500047
C39	C	0.663895	0.176265	0.000031
C40	C	1.163895	0.676265	0.500031
C41	C	0.987860	-0.058136	0.000033
C42	C	1.487860	0.441864	0.500033
C43	C	0.985416	-0.197546	0.000036
C44	C	1.485416	0.302454	0.500036
C45	C	1.059918	-0.278042	0.000036
C46	C	1.559918	0.221958	0.500036
C47	C	1.057616	-0.409032	0.000042
C48	C	1.557616	0.090968	0.500042
C49	C	0.906306	-0.379016	0.000045
C50	C	1.406306	0.120984	0.500045
C51	C	0.908608	-0.248029	0.000046
C52	C	1.408608	0.251971	0.500046
C53	C	1.136726	-0.227559	0.000026
C54	C	1.636726	0.272441	0.500026
C55	C	1.211233	-0.308057	0.000025
C56	C	1.711233	0.191943	0.500025
C57	C	1.208932	-0.439046	0.000031
C58	C	1.708932	0.060954	0.500031
C59	C	1.132123	-0.489538	0.000039
C60	C	1.632123	0.010462	0.500039
C61	C	1.135065	0.162236	0.000042
C62	C	1.635065	0.662236	0.500042
C63	C	1.227375	0.164676	0.000051
C64	C	1.727375	0.664676	0.500051
C65	C	0.978369	0.401067	0.000039
C66	C	1.478369	0.901067	0.500039
C67	C	0.980813	0.540477	0.000042
C68	C	1.480813	1.040477	0.500042
N69	N	0.983098	0.171481	-0.216960
N70	N	1.483098	0.671481	0.283040
C71	C	1.033974	0.247653	-0.451963
C72	C	1.533974	0.747653	0.048037
C73	C	1.033983	0.247644	-0.547944
C74	C	1.533983	0.747644	-0.047944
C75	C	0.932259	0.095260	-0.547960
C76	C	1.432259	0.595260	-0.047960
C77	C	0.932256	0.095263	-0.451981
C78	C	1.432256	0.595263	0.048019
C79	C	0.983112	0.171466	-0.403985
C80	C	1.483112	0.671466	0.096015
C81	C	0.983124	0.171455	-0.595945
C82	C	1.483124	0.671455	-0.095945
C83	C	0.983133	0.171445	-0.700012
C84	C	1.483133	0.671445	-0.200012
C85	C	0.983104	0.171475	-0.299911
C86	C	1.483104	0.671475	0.200089
N87	N	0.983137	0.171440	0.217030
N88	N	1.483137	0.671440	0.717030
H89	H	1.138608	-0.120902	0.000018
H90	H	1.638608	0.379098	0.500018
H91	H	0.561816	0.173536	0.150849
H92	H	1.061816	0.673536	0.650849
H93	H	0.890837	0.033216	-0.412915
H94	H	1.390837	0.533216	0.087085
O95	O	0.877399	0.013085	-0.599726
O96	O	1.377399	0.513085	-0.099726
H97	H	0.885938	0.025892	-0.674527
H98	H	1.385938	0.525892	-0.174527
O99	O	1.294074	-0.253605	0.000030
O100	O	1.794074	0.246395	0.500030
H101	H	1.329908	-0.285953	-0.062111
H102	H	1.829908	0.214047	0.437889
O103	O	0.573231	0.173876	-0.172733
O104	O	1.073231	0.673876	0.327267
H105	H	0.528494	0.172684	-0.230527
H106	H	1.028494	0.672684	0.269473
H107	H	1.269599	-0.504584	0.000039
H108	H	1.769599	-0.004584	0.500039
O109	O	0.393015	0.169335	-0.172779
O110	O	0.893015	0.669335	0.327221
H111	H	0.346647	0.253920	-0.176672
H112	H	0.846647	0.753920	0.323328
H113	H	0.404458	0.169363	0.150843
H114	H	0.904458	0.669363	0.650843
O115	O	1.129635	-0.630820	0.000044
O116	O	1.629635	-0.130820	0.500044
H117	H	1.194345	-0.678316	0.000038
H118	H	1.694345	-0.178316	0.500038
O119	O	0.823465	-0.433467	0.000036
O120	O	1.323465	0.066533	0.500036
H121	H	0.834381	-0.538074	0.000023
H122	H	1.334381	-0.038074	0.500023
O123	O	0.828253	-0.161202	0.000035
O124	O	1.328253	0.338798	0.500035
H125	H	0.825686	-0.100815	0.062187
H126	H	1.325686	0.399185	0.562187
O127	O	1.088829	0.329829	-0.400191
O128	O	1.588829	0.829829	0.099809
H129	H	1.124204	0.382795	-0.449683
H130	H	1.624204	0.882795	0.050317
H131	H	1.075401	0.309681	-0.587004
H132	H	1.575401	0.809681	-0.087004
