data_functionalizedCrystal
_audit_creation_method	'MofGen! by Chris Wilmer'
_symmetry_space_group_name_H-M	'P1'
_symmetry_Int_Tables_number	1
_symmetry_cell_setting	triclinic
loop_
_symmetry_equiv_pos_as_xyz
  x,y,z
_cell_length_a	13.262390
_cell_length_b	23.532357
_cell_length_c	11.804365
_cell_angle_alpha	101.747256
_cell_angle_beta	62.657606
_cell_angle_gamma	83.660309
loop_
_atom_site_label
_atom_site_type_symbol
_atom_site_fract_x
_atom_site_fract_y
_atom_site_fract_z
O1	O	1.519178	0.008376	-0.591066
O2	O	1.190578	0.029020	-0.484644
O3	O	1.364811	-0.064554	-0.541047
O4	O	1.344945	0.101951	-0.534663
O5	O	1.318942	-0.039943	-0.328143
O6	O	1.144709	0.053631	-0.271739
O7	O	1.473310	0.032988	-0.378161
Cu8	Cu	1.304821	0.045557	-0.305511
Cu9	Cu	1.359066	0.016451	-0.557295
O10	O	1.299077	0.126562	-0.321758
C11	C	1.125612	0.042432	-0.364579
C12	C	1.000370	0.045722	-0.324017
C13	C	0.747361	0.001322	-0.673916
C14	C	0.865032	-0.001772	-0.712028
C15	C	0.898873	0.010101	-0.615029
C16	C	0.815030	0.025069	-0.479910
C17	C	0.697348	0.028158	-0.441794
C18	C	0.848860	0.036938	-0.382907
C19	C	0.765017	0.051905	-0.247788
C20	C	0.647347	0.054994	-0.209679
C21	C	0.613507	0.043121	-0.306678
C22	C	0.966542	0.033848	-0.421023
C23	C	0.916529	0.060685	-0.188901
C24	C	0.798858	0.063778	-0.150789
C25	C	1.341378	-0.073449	-0.434430
C26	C	1.339881	-0.136617	-0.433934
C27	C	1.355515	-0.541748	-0.547018
C28	C	1.354095	-0.601103	-0.546565
O29	O	1.374586	-0.643204	-0.645015
N30	N	1.328388	-0.617376	-0.430284
C31	C	1.304087	-0.574289	-0.314445
O32	O	1.282090	-0.593581	-0.215497
C33	C	1.305499	-0.514935	-0.314897
C34	C	1.331219	-0.498668	-0.431189
C35	C	1.381232	-0.525479	-0.663301
C36	C	1.382653	-0.466129	-0.663754
C37	C	1.358357	-0.423048	-0.547924
C38	C	1.332640	-0.439318	-0.431642
C39	C	1.281190	-0.471849	-0.199056
C40	C	1.282603	-0.412492	-0.199517
C41	C	1.308323	-0.396225	-0.315810
C42	C	1.309766	-0.336887	-0.316266
N43	N	1.335473	-0.320614	-0.432547
C44	C	1.359769	-0.363695	-0.548376
C45	C	1.301123	-0.698937	-0.313505
C46	C	1.299719	-0.758291	-0.313055
C47	C	1.349725	-0.785100	-0.545175
C48	C	1.351137	-0.725746	-0.545626
C49	C	1.326830	-0.682664	-0.429786
C50	C	1.362753	-0.239054	-0.549319
C51	C	1.364177	-0.179698	-0.549763
C52	C	1.314165	-0.152894	-0.317642
C53	C	1.312747	-0.212245	-0.317199
C54	C	1.337039	-0.255325	-0.433046
O55	O	1.289282	-0.294753	-0.217866
O56	O	1.381748	-0.344393	-0.647303
C57	C	1.538277	0.019575	-0.498230
C58	C	1.663520	0.016285	-0.538800
C59	C	1.322510	0.135456	-0.428378
C60	C	1.324009	0.198624	-0.428883
N61	N	1.266677	0.066028	-0.128422
N62	N	1.397220	-0.004025	-0.734387
C63	C	1.488820	-0.053193	0.173614
C64	C	1.517675	-0.068682	0.039611
C65	C	1.454927	-0.035006	-0.002404
C66	C	1.363321	0.014161	0.089598
C67	C	1.334468	0.029654	0.223612
C68	C	1.300576	0.047842	0.047594
C69	C	1.208969	0.097009	0.139595
C70	C	1.180121	0.112499	0.273596
C71	C	1.242869	0.078823	0.315611
C72	C	1.329428	0.032349	-0.086420
C73	C	1.175077	0.115196	-0.036423
C74	C	1.146222	0.130685	0.097580
H75	H	1.385125	-0.166458	-0.644467
H76	H	1.071634	0.170718	0.172504
F77	F	1.388608	-0.284895	-0.672617
H78	H	1.369505	-0.820187	-0.639488
F79	F	1.253810	-0.489148	-0.075278
H80	H	1.403593	-0.452890	-0.758450
F81	F	1.256731	-0.366644	-0.076220
F82	F	1.275259	-0.653090	-0.190206
H83	H	1.123984	0.142620	-0.070629
F84	F	1.285393	-0.229561	-0.193435
H85	H	1.034796	0.021663	-0.531037
F86	F	0.558118	0.070921	-0.065873
F87	F	1.407092	-0.571323	-0.786593
F88	F	0.488266	0.046417	-0.266121
F89	F	0.709614	0.079707	-0.006988
H90	H	1.404015	-0.007683	-0.161317
F91	F	0.954256	-0.017703	-0.855825
F92	F	0.952538	0.073318	-0.085660
H93	H	1.105538	0.152538	0.348502
H94	H	1.294389	-0.117807	-0.223338
F95	F	1.378510	-0.708438	-0.669398
F96	F	1.024110	0.006810	-0.655595
H97	H	1.278792	-0.771531	-0.218363
H98	H	1.478425	-0.047619	-0.111516
F99	F	1.615165	-0.121006	-0.058298
H100	H	1.539906	-0.080605	0.207832
H101	H	0.719796	-0.008349	-0.752878
F102	F	1.212154	0.095305	0.458235
