data_functionalizedCrystal
_audit_creation_method	'MofGen! by Chris Wilmer'
_symmetry_space_group_name_H-M	'P1'
_symmetry_Int_Tables_number	1
_symmetry_cell_setting	triclinic
loop_
_symmetry_equiv_pos_as_xyz
  x,y,z
_cell_length_a	19.188930
_cell_length_b	14.519709
_cell_length_c	12.996460
_cell_angle_alpha	90.007090
_cell_angle_beta	90.019467
_cell_angle_gamma	83.412462
loop_
_atom_site_label
_atom_site_type_symbol
_atom_site_fract_x
_atom_site_fract_y
_atom_site_fract_z
O1	O	-0.926556	-0.115137	-0.085900
O2	O	-0.676556	0.134863	0.164100
O3	O	-0.426556	0.384863	0.414100
O4	O	-0.176556	0.634863	0.664100
O5	O	-0.723300	-0.130636	-0.085830
O6	O	-0.473300	0.119364	0.164170
O7	O	-0.223300	0.369364	0.414170
O8	O	0.026700	0.619364	0.664170
O9	O	-0.830317	0.011385	-0.085857
O10	O	-0.580317	0.261385	0.164143
O11	O	-0.330317	0.511385	0.414143
O12	O	-0.080317	0.761385	0.664143
O13	O	-0.819539	-0.257159	-0.085872
O14	O	-0.569539	-0.007159	0.164128
O15	O	-0.319539	0.242841	0.414128
O16	O	-0.069539	0.492841	0.664128
O17	O	-0.830306	0.011393	0.085276
O18	O	-0.580306	0.261393	0.335276
O19	O	-0.330306	0.511393	0.585276
O20	O	-0.080306	0.761393	0.835276
O21	O	-0.723288	-0.130629	0.085304
O22	O	-0.473288	0.119371	0.335304
O23	O	-0.223288	0.369371	0.585304
O24	O	0.026712	0.619371	0.835304
O25	O	-0.926545	-0.115129	0.085234
O26	O	-0.676545	0.134871	0.335234
O27	O	-0.426545	0.384871	0.585234
O28	O	-0.176545	0.634871	0.835234
Cu29	Cu	-0.824915	-0.122878	0.100895
Cu30	Cu	-0.574915	0.127122	0.350895
Cu31	Cu	-0.324915	0.377122	0.600895
Cu32	Cu	-0.074915	0.627122	0.850895
Cu33	Cu	-0.824929	-0.122887	-0.101491
Cu34	Cu	-0.574929	0.127113	0.148509
Cu35	Cu	-0.324929	0.377113	0.398509
Cu36	Cu	-0.074929	0.627113	0.648509
O37	O	-0.819527	-0.257151	0.085262
O38	O	-0.569527	-0.007151	0.335262
O39	O	-0.319527	0.242849	0.585262
O40	O	-0.069527	0.492849	0.835262
C41	C	-0.697281	-0.130131	-0.000254
C42	C	-0.447281	0.119869	0.249746
C43	C	-0.197281	0.369869	0.499746
C44	C	0.052719	0.619869	0.749746
C45	C	-0.619771	-0.128624	-0.000227
C46	C	-0.369771	0.121376	0.249773
C47	C	-0.119771	0.371376	0.499773
C48	C	0.130229	0.621376	0.749773
C49	C	-0.829809	0.045746	-0.000290
C50	C	-0.579809	0.295746	0.249710
C51	C	-0.329809	0.545746	0.499710
C52	C	-0.079809	0.795746	0.749710
C53	C	-0.828304	0.148118	-0.000289
C54	C	-0.578304	0.398118	0.249711
C55	C	-0.328304	0.648118	0.499711
C56	C	-0.078304	0.898118	0.749711
C57	C	-0.952563	-0.115635	-0.000344
C58	C	-0.702563	0.134365	0.249656
C59	C	-0.452563	0.384365	0.499656
C60	C	-0.202563	0.634365	0.749656
C61	C	-1.030073	-0.117142	-0.000378
C62	C	-0.780073	0.132858	0.249622
C63	C	-0.530073	0.382858	0.499622
C64	C	-0.280073	0.632858	0.749622
C65	C	-0.575144	-0.211957	-0.000247
C66	C	-0.325144	0.038043	0.249753
C67	C	-0.075144	0.288043	0.499753
C68	C	0.174856	0.538043	0.749753
C69	C	-0.502315	-0.210542	-0.000259
C70	C	-0.252315	0.039458	0.249741
C71	C	-0.002315	0.289458	0.499741
C72	C	0.247685	0.539458	0.749741
C73	C	-0.474117	-0.125788	-0.000270
C74	C	-0.224117	0.124212	0.249730
C75	C	0.025883	0.374212	0.499730
C76	C	0.275883	0.624212	0.749730
C77	C	-0.518754	-0.042444	-0.000243
C78	C	-0.268754	0.207556	0.249757
C79	C	-0.018754	0.457556	0.499757
C80	C	0.231246	0.707556	0.749757
C81	C	-0.591581	-0.043861	-0.000222
C82	C	-0.341581	0.206139	0.249778
C83	C	-0.091581	0.456139	0.499778
C84	C	0.158419	0.706139	0.749778
N85	N	-0.365910	-0.061007	-0.058552
N86	N	-0.115910	0.188993	0.191448
N87	N	0.134090	0.438993	0.441448
N88	N	0.384090	0.688993	0.691448
N89	N	-0.296727	-0.059666	-0.058575
N90	N	-0.046727	0.190334	0.191425
N91	N	0.203273	0.440334	0.441425
N92	N	0.453273	0.690334	0.691425
C93	C	-0.254693	-0.121511	-0.000332
C94	C	-0.004693	0.128489	0.249668
C95	C	0.245307	0.378489	0.499668
C96	C	0.495307	0.628489	0.749668
N97	N	-0.284455	-0.184762	0.057920
N98	N	-0.034455	0.065238	0.307920
N99	N	0.215545	0.315238	0.557920
N100	N	0.465545	0.565238	0.807920
N101	N	-0.353645	-0.186106	0.057938
N102	N	-0.103645	0.063894	0.307938
N103	N	0.146355	0.313894	0.557938
N104	N	0.396355	0.563894	0.807938
C105	C	-0.395149	-0.124241	-0.000292
C106	C	-0.145149	0.125759	0.249708
C107	C	0.104851	0.375759	0.499708
C108	C	0.354851	0.625759	0.749708
C109	C	-0.131096	-0.203315	-0.000364
C110	C	0.118904	0.046685	0.249636
C111	C	0.368904	0.296685	0.499636
C112	C	0.618904	0.546685	0.749636
C113	C	-0.058266	-0.201896	-0.000369
C114	C	0.191734	0.048104	0.249631
C115	C	0.441734	0.298104	0.499631
C116	C	0.691734	0.548104	0.749631
C117	C	-0.074706	-0.033796	-0.000364
C118	C	0.175294	0.216204	0.249636
C119	C	0.425294	0.466204	0.499636
C120	C	0.675294	0.716204	0.749636
C121	C	-0.147535	-0.035217	-0.000348
C122	C	0.102465	0.214783	0.249652
C123	C	0.352465	0.464783	0.499652
C124	C	0.602465	0.714783	0.749652
C125	C	-0.175725	-0.119980	-0.000353
C126	C	0.074275	0.130020	0.249647
C127	C	0.324275	0.380020	0.499647
C128	C	0.574275	0.630020	0.749647
C129	C	-0.820035	-0.291511	-0.000308
C130	C	-0.570035	-0.041511	0.249692
C131	C	-0.320035	0.208489	0.499692
C132	C	-0.070035	0.458489	0.749692
C133	C	-0.821541	-0.393883	-0.000316
C134	C	-0.571541	-0.143883	0.249684
C135	C	-0.321541	0.106117	0.499684
C136	C	-0.071541	0.356117	0.749684
N137	N	-0.824911	-0.122871	0.243242
N138	N	-0.574911	0.127129	0.493242
N139	N	-0.324911	0.377129	0.743242
N140	N	-0.074911	0.627129	0.993242
C141	C	-0.822762	0.522979	-0.000314
C142	C	-0.572762	0.772979	0.249686
C143	C	-0.322762	1.022979	0.499686
C144	C	-0.072762	1.272979	0.749686
C145	C	-0.824301	0.418681	-0.000307
C146	C	-0.574301	0.668681	0.249693
C147	C	-0.324301	0.918681	0.499693
C148	C	-0.074301	1.168681	0.749693
C149	C	-0.825533	0.335552	-0.000300
C150	C	-0.575533	0.585552	0.249700
C151	C	-0.325533	0.835552	0.499700
C152	C	-0.075533	1.085552	0.749700
C153	C	-0.827072	0.231247	-0.000295
C154	C	-0.577072	0.481247	0.249705
C155	C	-0.327072	0.731247	0.499705
C156	C	-0.077072	0.981247	0.749705
N157	N	-0.824938	-0.122887	-0.243838
N158	N	-0.574938	0.127113	0.006162
N159	N	-0.324938	0.377113	0.256162
N160	N	-0.074938	0.627113	0.506162
C161	C	-0.824928	-0.122888	0.663056
C162	C	-0.574928	0.127112	0.913056
C163	C	-0.324928	0.377112	1.163056
C164	C	-0.074928	0.627112	1.413056
C165	C	-0.824921	-0.122887	0.546251
C166	C	-0.574921	0.127113	0.796251
C167	C	-0.324921	0.377113	1.046251
C168	C	-0.074921	0.627113	1.296251
C169	C	-0.824920	-0.122880	0.453153
C170	C	-0.574920	0.127120	0.703153
C171	C	-0.324920	0.377120	0.953153
C172	C	-0.074920	0.627120	1.203153
C173	C	-0.824913	-0.122877	0.336340
C174	C	-0.574913	0.127123	0.586340
C175	C	-0.324913	0.377123	0.836340
C176	C	-0.074913	0.627123	1.086340
H177	H	-0.598091	-0.280978	-0.000253
H178	H	-0.348091	-0.030978	0.249747
H179	H	-0.098091	0.219022	0.499747
H180	H	0.151909	0.469022	0.749747
H181	H	-0.154049	-0.272334	-0.000353
H182	H	0.095951	-0.022334	0.249647
H183	H	0.345951	0.227666	0.499647
H184	H	0.595951	0.477666	0.749647
Cl185	Cl	-0.002162	-0.306669	-0.000390
Cl186	Cl	0.247838	-0.056669	0.249610
Cl187	Cl	0.497838	0.193331	0.499610
Cl188	Cl	0.747838	0.443331	0.749610
H189	H	-0.495790	0.026564	-0.000266
H190	H	-0.245790	0.276564	0.249734
H191	H	0.004210	0.526564	0.499734
H192	H	0.254210	0.776564	0.749734
Cl193	Cl	-0.039264	0.072753	-0.000366
Cl194	Cl	0.210736	0.322753	0.249634
Cl195	Cl	0.460736	0.572753	0.499634
Cl196	Cl	0.710736	0.822753	0.749634
Cl197	Cl	-0.203641	0.069552	-0.000329
Cl198	Cl	0.046359	0.319552	0.249671
Cl199	Cl	0.296359	0.569552	0.499671
Cl200	Cl	0.546359	0.819552	0.749671
Cl201	Cl	-0.446202	-0.315312	-0.000282
Cl202	Cl	-0.196202	-0.065312	0.249718
Cl203	Cl	0.053798	0.184688	0.499718
Cl204	Cl	0.303798	0.434688	0.749718
Cl205	Cl	-0.647687	0.060910	-0.000197
Cl206	Cl	-0.397687	0.310910	0.249803
Cl207	Cl	-0.147687	0.560910	0.499803
Cl208	Cl	0.102313	0.810910	0.749803
