data_functionalizedCrystal
_audit_creation_method	'MofGen! by Chris Wilmer'
_symmetry_space_group_name_H-M	'P1'
_symmetry_Int_Tables_number	1
_symmetry_cell_setting	triclinic
loop_
_symmetry_equiv_pos_as_xyz
  x,y,z
_cell_length_a	18.426585
_cell_length_b	14.560438
_cell_length_c	14.560438
_cell_angle_alpha	60.001579
_cell_angle_beta	90.000739
_cell_angle_gamma	60.001046
loop_
_atom_site_label
_atom_site_type_symbol
_atom_site_fract_x
_atom_site_fract_y
_atom_site_fract_z
Zr1	Zr	0.699111	1.005312	-0.120528
O2	O	0.583233	1.196906	-0.267168
O3	O	0.734633	0.813713	-0.075578
O4	O	0.734631	1.005313	-0.267177
O5	O	0.583237	1.005306	0.075570
O6	O	0.854057	1.005320	-0.267181
O7	O	0.583235	1.005306	-0.075570
O8	O	0.854061	0.662582	0.075555
O9	O	0.583233	1.348044	-0.267165
O10	O	0.838910	0.892527	-0.056407
O11	O	0.749785	0.892523	0.056389
O12	O	0.749783	1.118107	-0.169193
O13	O	0.660658	1.118103	-0.056397
Zr14	Zr	0.889584	1.005323	0.120515
Zr15	Zr	0.889581	1.005322	-0.120535
Zr16	Zr	0.699114	1.005313	0.120521
Zr17	Zr	0.699111	1.246359	-0.120524
Zr18	Zr	0.889584	0.764275	0.120511
O19	O	0.854062	1.196922	0.075565
O20	O	0.854057	1.196920	-0.267177
O21	O	0.583237	1.196907	0.075573
O22	O	1.005462	0.813729	0.267155
O23	O	1.005458	0.813728	-0.075587
O24	O	0.734638	0.813714	0.267164
O25	O	1.005458	1.005328	-0.075583
O26	O	0.854064	1.005321	0.267163
O27	O	0.734638	1.005315	0.267167
O28	O	1.005460	1.005329	0.075556
O29	O	0.734632	1.348052	-0.267170
O30	O	0.854063	0.662583	0.267157
O31	O	1.005462	0.662591	0.267152
O32	O	1.005459	0.662590	0.075550
O33	O	0.583236	1.348044	-0.075563
O34	O	0.734634	1.348053	-0.075568
O35	O	0.838912	0.892528	0.169180
O36	O	0.928037	0.892532	0.056384
O37	O	0.838910	1.118112	-0.056403
O38	O	0.749785	1.118108	0.056394
C39	C	0.794347	0.703804	-0.000012
C40	C	0.794347	0.601473	-0.000014
C41	C	0.840867	0.553399	-0.058893
C42	C	0.840871	0.457239	-0.058882
C43	C	0.747826	0.457240	0.058887
C44	C	0.747829	0.553391	0.058882
C45	C	0.556098	1.005305	0.000001
C46	C	0.475238	1.005300	0.000004
C47	C	0.179123	1.005339	-0.000016
C48	C	0.261509	1.005334	-0.000014
C49	C	0.327178	1.005320	-0.000007
C50	C	0.409570	1.005314	-0.000003
C51	C	1.032597	1.005330	-0.000014
C52	C	1.113457	1.005334	-0.000017
C53	C	0.794344	1.005316	-0.301523
C54	C	0.794343	1.005316	-0.403855
C55	C	0.794348	1.306831	-0.000001
C56	C	0.794348	1.409162	0.000001
C57	C	0.728556	1.005315	-0.548092
C58	C	0.728552	1.005309	-0.451937
C59	C	0.860146	1.005316	-0.451927
C60	C	0.860152	1.005312	-0.548075
C61	C	0.794351	1.005318	0.301510
C62	C	0.794352	1.005319	0.403842
C63	C	1.032597	0.703816	-0.000020
C64	C	1.113456	0.601490	-0.000025
C65	C	0.794351	0.703805	0.301504
C66	C	0.794352	0.601474	0.403834
C67	C	1.032600	0.703817	0.301496
C68	C	1.113461	0.601491	0.403824
C69	C	0.556095	1.306817	-0.301510
C70	C	0.475234	1.409144	-0.403837
C71	C	0.556098	1.306818	0.000007
C72	C	0.475239	1.409145	0.000011
C73	C	0.794344	1.306830	-0.301517
C74	C	0.794343	1.409161	-0.403847
C75	C	1.104905	0.553433	-0.058912
C76	C	1.180874	0.457300	-0.058939
C77	C	1.265393	0.409218	-0.000071
C78	C	1.273942	0.457284	0.058819
C79	C	1.197974	0.553422	0.058838
C80	C	1.197964	0.553440	0.392999
C81	C	1.273949	0.457307	0.489137
C82	C	1.265428	0.409220	0.596099
C83	C	1.180916	0.457281	0.606922
C84	C	1.104933	0.553419	0.510784
C85	C	0.390731	1.457207	-0.393013
C86	C	0.314746	1.553370	-0.489151
C87	C	0.323267	1.601461	-0.596113
C88	C	0.407779	1.553394	-0.606935
C89	C	0.483762	1.457240	-0.510798
C90	C	0.483790	1.457212	0.058889
C91	C	0.407821	1.553372	0.058889
C92	C	0.323302	1.601457	0.000017
C93	C	0.314753	1.553386	-0.058868
C94	C	0.390721	1.457235	-0.058874
C95	C	0.840875	0.553399	0.510784
C96	C	0.840866	0.457258	0.606931
C97	C	0.747809	0.457270	0.489162
C98	C	0.747814	0.553416	0.393018
H99	H	0.674978	1.005318	-0.587237
H100	H	0.913736	1.005311	-0.587212
C101	C	0.239742	1.707216	0.000034
H102	H	0.188177	1.728982	-0.043464
H103	H	0.239749	1.675695	0.075051
H104	H	0.239747	1.782233	-0.031493
H105	H	0.414706	1.592563	-0.694035
C106	C	1.207355	0.606322	0.275354
H107	H	1.268569	0.563935	0.282693
H108	H	1.179657	0.590559	0.235394
H109	H	1.179647	0.697102	0.235404
H110	H	0.878753	0.418099	-0.106825
C111	C	0.656172	1.005314	-0.399071
H112	H	0.616984	1.005327	-0.441486
H113	H	0.683193	0.929986	-0.323900
H114	H	0.623670	1.080655	-0.399234
H115	H	0.383746	1.418102	-0.106816
H116	H	0.709945	0.592532	0.106833
C117	C	1.171454	0.404431	-0.123706
H118	H	1.110236	0.446823	-0.158742
H119	H	1.199143	0.420196	-0.179438
H120	H	1.199159	0.313651	-0.072882
H121	H	0.245927	1.592552	-0.106799
H122	H	1.342756	0.418185	0.480306
H123	H	0.878766	0.592530	0.519597
H124	H	0.878749	0.418122	0.694011
H125	H	0.709952	0.418082	0.106837
H126	H	0.913718	1.005313	-0.412769
H127	H	0.709921	0.418128	0.480370
H128	H	1.036092	0.592581	-0.106864
C129	C	0.696631	0.606307	0.275366
H130	H	0.668922	0.563907	0.282693
H131	H	0.652611	0.697081	0.235421
H132	H	0.736791	0.590545	0.235407
C133	C	1.348950	0.303457	-0.000090
H134	H	1.331744	0.281719	-0.043585
H135	H	1.383328	0.334957	-0.031612
H136	H	1.383317	0.228428	0.074925
C137	C	1.366916	0.404374	0.123579
H138	H	1.410928	0.340225	0.115138
H139	H	1.373599	0.473381	0.094522
H140	H	1.373585	0.366843	0.201046
H141	H	1.036130	0.592530	0.519614
H142	H	1.204949	0.592537	0.106798
C143	C	0.381340	1.404337	-0.275367
H144	H	0.320126	1.446758	-0.282706
H145	H	0.409036	1.313564	-0.235404
H146	H	0.409050	1.420107	-0.235422
H147	H	0.552566	1.418108	-0.519625
C148	C	0.576751	1.404334	0.123654
H149	H	0.570951	1.446752	0.158706
H150	H	0.608324	1.313562	0.179373
H151	H	0.608324	1.420097	0.072828
H152	H	1.327306	0.330938	0.674371
C153	C	0.892041	0.606281	-0.123665
H154	H	0.885374	0.670439	-0.115246
H155	H	0.953248	0.537258	-0.094593
H156	H	0.869058	0.643791	-0.201128
C157	C	0.417241	1.606219	0.123678
H158	H	0.478459	1.563788	0.158752
H159	H	0.389551	1.696990	0.072873
H160	H	0.389537	1.590454	0.179399
C161	C	1.171555	0.404365	0.724582
H162	H	1.228915	0.340216	0.780279
H163	H	1.139989	0.473369	0.733043
H164	H	1.139999	0.366831	0.733021
H165	H	0.245940	1.592489	-0.480317
H166	H	0.261389	1.679756	-0.674384
