data_functionalizedCrystal
_audit_creation_method	'MofGen! by Chris Wilmer'
_symmetry_space_group_name_H-M	'P1'
_symmetry_Int_Tables_number	1
_symmetry_cell_setting	triclinic
loop_
_symmetry_equiv_pos_as_xyz
  x,y,z
_cell_length_a	14.044209
_cell_length_b	10.540539
_cell_length_c	13.101039
_cell_angle_alpha	86.610474
_cell_angle_beta	86.334262
_cell_angle_gamma	91.143278
loop_
_atom_site_label
_atom_site_type_symbol
_atom_site_fract_x
_atom_site_fract_y
_atom_site_fract_z
O1	O	-0.128498	1.705793	-0.085173
O2	O	0.204836	2.039127	0.248160
O3	O	0.538169	2.372460	0.581494
O4	O	-0.141093	1.337655	-0.085186
O5	O	0.192241	1.670988	0.248147
O6	O	0.525574	2.004321	0.581480
O7	O	0.003226	1.516199	-0.085165
O8	O	0.336559	1.849532	0.248168
O9	O	0.669893	2.182865	0.581501
O10	O	-0.272816	1.527249	-0.085194
O11	O	0.060517	1.860583	0.248139
O12	O	0.393850	2.193916	0.581473
O13	O	-0.007146	1.503390	0.085263
O14	O	0.326187	1.836724	0.418596
O15	O	0.659521	2.170057	0.751930
O16	O	-0.151465	1.324846	0.085242
O17	O	0.181869	1.658180	0.418575
O18	O	0.515202	1.991513	0.751909
O19	O	-0.138870	1.692985	0.085255
O20	O	0.194464	2.026318	0.418589
O21	O	0.527797	2.359652	0.751922
Zn22	Zn	-0.146814	1.506882	0.112308
Zn23	Zn	0.186519	1.840215	0.445641
Zn24	Zn	0.519853	2.173549	0.778975
Zn25	Zn	-0.133148	1.523758	-0.112239
Zn26	Zn	0.200185	1.857091	0.221095
Zn27	Zn	0.533518	2.190424	0.554428
O28	O	-0.283188	1.514441	0.085234
O29	O	0.050145	1.847774	0.418568
O30	O	0.383478	2.181108	0.751901
C31	C	-0.145334	1.283852	0.000026
C32	C	0.187999	1.617185	0.333360
C33	C	0.521333	1.950519	0.666693
C34	C	-0.142508	1.142619	0.000022
C35	C	0.190826	1.475952	0.333355
C36	C	0.524159	1.809285	0.666689
C37	C	0.033387	1.504957	0.000050
C38	C	0.366721	1.838290	0.333384
C39	C	0.700054	2.171624	0.666717
C40	C	0.138711	1.490528	0.000054
C41	C	0.472044	1.823861	0.333388
C42	C	0.805377	2.157195	0.666721
C43	C	-0.034243	0.948214	0.000431
C44	C	0.299090	1.281548	0.333764
C45	C	0.632424	1.614881	0.667098
C46	C	-0.037084	1.095152	0.000036
C47	C	0.296250	1.428485	0.333369
C48	C	0.629583	1.761818	0.666703
C49	C	-0.187319	1.093389	-0.097303
C50	C	0.146014	1.426722	0.236031
C51	C	0.479347	1.760056	0.569364
C52	C	-0.183717	0.946486	-0.097373
C53	C	0.149616	1.279819	0.235960
C54	C	0.482950	1.613153	0.569294
C55	C	-0.197657	0.931649	0.096436
C56	C	0.135677	1.264982	0.429769
C57	C	0.469010	1.598316	0.763102
C58	C	-0.198705	1.078633	0.097711
C59	C	0.134628	1.411967	0.431045
C60	C	0.467961	1.745300	0.764378
C61	C	0.331551	1.464150	0.000045
C62	C	0.664885	1.797483	0.333378
C63	C	0.998218	2.130817	0.666712
C64	C	0.388492	1.566493	0.000047
C65	C	0.721825	1.899826	0.333381
C66	C	1.055158	2.233160	0.666714
C67	C	0.495795	1.551816	0.000042
C68	C	0.829128	1.885149	0.333375
C69	C	1.162462	2.218482	0.666709
C70	C	0.224238	1.478825	0.000050
C71	C	0.557571	1.812159	0.333384
C72	C	0.890905	2.145492	0.666717
C73	C	0.686650	1.525685	0.000025
C74	C	1.019984	1.859018	0.333358
C75	C	1.353317	2.192351	0.666691
C76	C	0.581327	1.540121	0.000038
C77	C	0.914660	1.873454	0.333371
C78	C	1.247993	2.206787	0.666705
C79	C	-0.134628	1.746788	0.000040
C80	C	0.198705	2.080121	0.333374
C81	C	0.532038	2.413454	0.666707
C82	C	-0.137454	1.888022	0.000038
C83	C	0.195879	2.221355	0.333372
C84	C	0.529212	2.554688	0.666705
N85	N	-0.156140	1.495374	0.265555
N86	N	0.177194	1.828707	0.598888
N87	N	0.510527	2.162041	0.932222
N88	N	-0.123815	1.535275	-0.265486
N89	N	0.209518	1.868608	0.067847
N90	N	0.542852	2.201941	0.401181
C91	C	-0.168837	1.479718	0.474596
C92	C	0.164497	1.813051	0.807929
C93	C	0.497830	2.146385	1.141262
C94	C	-0.111121	1.550927	0.525480
C95	C	0.222212	1.884260	0.858813
C96	C	0.555545	2.217594	1.192147
C97	C	-0.118186	1.542216	0.641797
C98	C	0.215147	1.875549	0.975131
C99	C	0.548481	2.208882	1.308464
C100	C	-0.161773	1.488428	0.358268
C101	C	0.171560	1.821761	0.691601
C102	C	0.504894	2.155094	1.024935
H103	H	-0.001409	1.128487	0.069803
H104	H	0.331924	1.461820	0.403136
H105	H	0.665257	1.795154	0.736470
Cl106	Cl	-0.306500	1.140442	-0.102932
Cl107	Cl	0.026833	1.473775	0.230401
Cl108	Cl	0.360167	1.807108	0.563735
H109	H	-0.056405	1.618434	0.481686
H110	H	0.276929	1.951767	0.815019
H111	H	0.610262	2.285101	1.148352
Cl112	Cl	0.339338	1.718789	0.000062
Cl113	Cl	0.672672	2.052122	0.333396
Cl114	Cl	1.006005	2.385455	0.666729
H115	H	0.003158	0.910173	0.070228
H116	H	0.336491	1.243507	0.403562
H117	H	0.669825	1.576840	0.736895
Cl118	Cl	-0.253315	1.375503	0.542205
Cl119	Cl	0.080018	1.708836	0.875538
Cl120	Cl	0.413352	2.042170	1.208871
H121	H	0.011453	0.919031	-0.068969
H122	H	0.344786	1.252364	0.264364
H123	H	0.678120	1.585697	0.597698
H124	H	0.007371	1.138085	-0.069843
H125	H	0.340704	1.471418	0.263490
H126	H	0.674037	1.804752	0.596824
H127	H	-0.141792	0.919952	-0.170116
H128	H	0.191541	1.253285	0.163217
H129	H	0.524874	1.586619	0.496550
Cl130	Cl	-0.300357	0.884766	-0.104208
Cl131	Cl	0.032976	1.218099	0.229126
Cl132	Cl	0.366309	1.551433	0.562459
H133	H	0.363389	1.365516	0.000040
H134	H	0.696722	1.698850	0.333373
H135	H	1.030055	2.032183	0.666707
Cl136	Cl	-0.151909	0.869069	0.210333
Cl137	Cl	0.181425	1.202402	0.543667
Cl138	Cl	0.514758	1.535736	0.877000
Cl139	Cl	-0.126102	1.162038	-0.209122
Cl140	Cl	0.207231	1.495371	0.124211
Cl141	Cl	0.540565	1.828705	0.457544
H142	H	-0.275924	1.110188	0.103579
H143	H	0.057409	1.443521	0.436913
H144	H	0.390743	1.776855	0.770246
Cl145	Cl	-0.148151	1.127568	0.208874
Cl146	Cl	0.185182	1.460902	0.542208
Cl147	Cl	0.518515	1.794235	0.875541
H148	H	-0.273844	0.892071	0.097085
H149	H	0.059490	1.225404	0.430418
H150	H	0.392823	1.558737	0.763752
