data_functionalizedCrystal
_audit_creation_method	'MofGen! by Chris Wilmer'
_symmetry_space_group_name_H-M	'P1'
_symmetry_Int_Tables_number	1
_symmetry_cell_setting	triclinic
loop_
_symmetry_equiv_pos_as_xyz
  x,y,z
_cell_length_a	13.185407
_cell_length_b	13.101018
_cell_length_c	13.262975
_cell_angle_alpha	70.747204
_cell_angle_beta	68.869614
_cell_angle_gamma	92.211659
loop_
_atom_site_label
_atom_site_type_symbol
_atom_site_fract_x
_atom_site_fract_y
_atom_site_fract_z
O1	O	1.457303	0.165311	-0.287559
O2	O	1.957303	0.665311	0.212441
O3	O	1.138166	0.134974	-0.178655
O4	O	1.638166	0.634974	0.321345
O5	O	1.308807	0.194416	-0.392019
O6	O	1.808807	0.694416	0.107981
O7	O	1.286662	0.105869	-0.074195
O8	O	1.786662	0.605869	0.425805
O9	O	1.296549	0.019717	-0.376696
O10	O	1.796549	0.519717	0.123304
O11	O	1.125909	-0.039725	-0.163332
O12	O	1.625909	0.460275	0.336668
O13	O	1.445046	-0.009388	-0.272236
O14	O	1.945046	0.490612	0.227764
Zn15	Zn	1.283531	-0.052294	-0.215351
Zn16	Zn	1.783531	0.447706	0.284649
Zn17	Zn	1.299681	0.177880	-0.235540
Zn18	Zn	1.799681	0.677880	0.264460
O19	O	1.274405	-0.068831	-0.058872
O20	O	1.774405	0.431169	0.441128
C21	C	1.091242	0.044549	-0.159952
C22	C	1.591242	0.544549	0.340048
C23	C	0.969687	0.035389	-0.127068
C24	C	1.469687	0.535389	0.372932
C25	C	0.685158	0.122823	-0.440910
C26	C	1.185158	0.622823	0.059090
C27	C	0.799365	0.131424	-0.471809
C28	C	1.299365	0.631424	0.028191
C29	C	0.841952	0.107416	-0.385627
C30	C	1.341952	0.607416	0.114373
C31	C	0.770319	0.074806	-0.268539
C32	C	1.270319	0.574806	0.231461
C33	C	0.656100	0.066196	-0.237635
C34	C	1.156100	0.566196	0.262365
C35	C	0.812893	0.050789	-0.182353
C36	C	1.312893	0.550789	0.317647
C37	C	0.741260	0.018179	-0.065265
C38	C	1.241260	0.518179	0.434735
C39	C	0.627053	0.009572	-0.034367
C40	C	1.127053	0.509572	0.465633
C41	C	0.584467	0.033579	-0.120549
C42	C	1.084467	0.533579	0.379451
C43	C	0.927112	0.059399	-0.213256
C44	C	1.427112	0.559399	0.286744
C45	C	0.898054	0.002772	-0.009982
C46	C	1.398054	0.502772	0.490018
C47	C	0.783847	-0.005829	0.020918
C48	C	1.283847	0.494171	0.520918
N49	N	1.272517	-0.209381	-0.201576
N50	N	1.772517	0.290619	0.298424
C51	C	1.325682	-0.450765	-0.268070
C52	C	1.825682	0.049235	0.231930
C53	C	1.257542	-0.423638	-0.182836
C54	C	1.757542	0.076362	0.317164
C55	C	1.265877	-0.304414	-0.193266
C56	C	1.765877	0.195586	0.306734
C57	C	1.317349	-0.570000	-0.257643
C58	C	1.817349	-0.070000	0.242357
C59	C	1.491969	0.081039	-0.290939
C60	C	1.991969	0.581039	0.209061
C61	C	1.613525	0.090206	-0.323824
C62	C	2.113525	0.590206	0.176176
C63	C	1.302560	0.118163	-0.424178
C64	C	1.802560	0.618163	0.075822
C65	C	1.302196	0.151227	-0.542828
C66	C	1.802196	0.651227	-0.042828
N67	N	1.310703	0.334970	-0.249326
N68	N	1.810703	0.834970	0.250674
C69	C	1.308721	0.261998	-0.606902
C70	C	1.808721	0.761998	-0.106902
C71	C	1.308393	0.293088	-0.718387
C72	C	1.808393	0.793088	-0.218387
C73	C	1.301549	0.213411	-0.765812
C74	C	1.801549	0.713411	-0.265812
C75	C	1.295032	0.102638	-0.701741
C76	C	1.795032	0.602638	-0.201741
C77	C	1.295351	0.071544	-0.590241
C78	C	1.795351	0.571544	-0.090241
C79	C	1.288180	0.022957	-0.749151
C80	C	1.788180	0.522957	-0.249151
C81	C	1.281663	-0.087816	-0.685080
C82	C	1.781663	0.412184	-0.185080
C83	C	1.281983	-0.118905	-0.573592
C84	C	1.781983	0.381095	-0.073592
C85	C	1.288826	-0.039228	-0.526167
C86	C	1.788826	0.460772	-0.026167
C87	C	1.287861	0.054051	-0.860650
C88	C	1.787861	0.554051	-0.360650
C89	C	1.274491	-0.136403	-0.843989
C90	C	1.774491	0.363597	-0.343989
C91	C	1.274819	-0.167493	-0.732505
C92	C	1.774819	0.332507	-0.232505
C93	C	1.280652	0.007425	-0.026713
C94	C	1.780652	0.507425	0.473287
C95	C	1.281016	-0.025632	0.091936
C96	C	1.781016	0.474368	0.591936
H97	H	0.985425	0.085952	-0.308590
H98	H	1.485425	0.585952	0.191410
H99	H	0.568731	-0.016993	0.060975
H100	H	1.068731	0.483007	0.560975
F101	F	0.462914	0.024440	-0.087670
F102	F	0.962914	0.524440	0.412330
H103	H	1.390274	-0.384455	-0.348869
H104	H	1.890274	0.115545	0.151131
F105	F	1.294797	0.171940	-0.928827
F106	F	1.794797	0.671940	-0.428827
H107	H	0.934945	0.114421	-0.410793
H108	H	1.434945	0.614421	0.089207
H109	H	0.857681	0.157971	-0.567142
H110	H	1.357681	0.657971	-0.067142
H111	H	1.314286	0.326858	-0.568275
H112	H	1.814286	0.826858	-0.068275
F113	F	0.943370	-0.022788	0.081747
F114	F	1.443370	0.477212	0.581747
F115	F	1.289181	-0.072311	-0.407513
F116	F	1.789181	0.427689	0.092487
F117	F	1.301202	0.246503	-0.884465
F118	F	1.801202	0.746503	-0.384465
H119	H	1.313702	0.383279	-0.770547
H120	H	1.813702	0.883279	-0.270547
H121	H	1.276671	-0.209104	-0.521426
H122	H	1.776671	0.290896	-0.021426
F123	F	0.707598	-0.040533	0.145528
F124	F	1.207598	0.459467	0.645528
F125	F	1.267882	-0.285383	-0.664303
F126	F	1.767882	0.214617	-0.164303
H127	H	1.268914	-0.201284	-0.882600
H128	H	1.768914	0.298716	-0.382600
H129	H	0.650471	0.142337	-0.511064
H130	H	1.150471	0.642337	-0.011064
H131	H	1.192947	-0.489955	-0.102031
H132	H	1.692947	0.010045	0.397969
