data_functionalizedCrystal
_audit_creation_method	'MofGen! by Chris Wilmer'
_symmetry_space_group_name_H-M	'P1'
_symmetry_Int_Tables_number	1
_symmetry_cell_setting	triclinic
loop_
_symmetry_equiv_pos_as_xyz
  x,y,z
_cell_length_a	8.559649
_cell_length_b	23.532407
_cell_length_c	7.088929
_cell_angle_alpha	83.810936
_cell_angle_beta	95.325015
_cell_angle_gamma	76.313671
loop_
_atom_site_label
_atom_site_type_symbol
_atom_site_fract_x
_atom_site_fract_y
_atom_site_fract_z
O1	O	2.103931	-0.012759	-0.158953
O2	O	1.638258	0.016674	-0.158972
O3	O	1.885141	-0.081561	-0.158927
O4	O	1.857049	0.085477	-0.158998
O5	O	1.918135	-0.094716	0.159054
O6	O	1.671252	0.003519	0.159009
O7	O	2.136925	-0.025913	0.159028
Cu8	Cu	1.907101	-0.012398	0.188053
Cu9	Cu	1.868082	0.003159	-0.187997
O10	O	1.890043	0.072322	0.158983
C11	C	1.595190	0.012327	0.000017
C12	C	1.417704	0.018967	0.000011
C13	C	1.900923	-0.109325	0.000069
C14	C	1.898774	-0.172453	0.000083
C15	C	2.031375	-0.577085	-0.000016
C16	C	2.029376	-0.636401	-0.000031
O17	O	2.152300	-0.678272	-0.000096
N18	N	1.882606	-0.652904	-0.000035
C19	C	1.737825	-0.610085	-0.000045
O20	O	1.612802	-0.629568	-0.000052
C21	C	1.739824	-0.550769	-0.000044
C22	C	1.886605	-0.534272	-0.000020
C23	C	2.178143	-0.560586	0.000006
C24	C	2.180142	-0.501274	0.000024
C25	C	2.035372	-0.458461	0.000020
C26	C	1.888603	-0.474960	-0.000002
C27	C	1.595042	-0.507952	-0.000067
C28	C	1.597054	-0.448633	-0.000067
C29	C	1.743835	-0.432135	-0.000043
C30	C	1.745832	-0.372834	0.000013
N31	N	1.892601	-0.356332	0.000017
C32	C	2.037371	-0.399145	0.000021
C33	C	1.733637	-0.734653	-0.000050
C34	C	1.731637	-0.793968	-0.000037
C35	C	2.023189	-0.820279	-0.000027
C36	C	2.025188	-0.760964	-0.000026
C37	C	1.880406	-0.718150	-0.000045
C38	C	2.041558	-0.274584	0.000061
C39	C	2.043544	-0.215266	0.000087
C40	C	1.751993	-0.188959	0.000066
C41	C	1.750006	-0.248272	0.000050
C42	C	1.894801	-0.291084	0.000041
O43	O	1.622971	-0.330931	0.000071
O44	O	2.162371	-0.379652	0.000003
C45	C	2.179993	-0.021566	0.000035
C46	C	2.357478	-0.028205	0.000029
C47	C	1.874260	0.100086	-0.000016
C48	C	1.876407	0.163214	-0.000044
N49	N	1.934557	-0.023341	0.452546
N50	N	1.840639	0.014096	-0.452490
H51	H	2.163076	-0.201838	0.000111
H52	H	1.630491	-0.261707	0.000084
C53	C	2.066060	-0.075753	0.562866
H54	H	2.064180	-0.075005	0.696373
H55	H	2.169337	-0.072924	0.530131
H56	H	2.045764	-0.111670	0.530174
C57	C	2.182438	-0.867378	-0.000037
H58	H	2.270147	-0.849062	-0.000017
H59	H	2.176201	-0.886471	-0.110927
H60	H	2.199218	-0.895657	0.110861
H61	H	1.441697	-0.073670	0.000038
H62	H	1.333473	0.064435	-0.000018
H63	H	2.296039	-0.595440	0.000002
C64	C	2.200830	-0.321670	0.000067
H65	H	2.288516	-0.303341	0.000100
H66	H	2.194627	-0.340765	-0.110820
H67	H	2.217618	-0.349947	0.110968
H68	H	1.743305	0.052893	0.465846
C69	C	1.570186	-0.812113	-0.000042
H70	H	1.589714	-0.853571	-0.000037
H71	H	1.499114	-0.792389	-0.110927
H72	H	1.522133	-0.801579	0.110861
H73	H	2.299665	-0.487847	0.000036
C74	C	2.186643	-0.742821	-0.000018
H75	H	2.272567	-0.776818	-0.000025
H76	H	2.204997	-0.724819	0.110865
H77	H	2.181980	-0.715640	-0.110923
C78	C	1.574370	-0.687563	-0.000035
H79	H	1.486686	-0.705892	-0.000020
H80	H	1.557565	-0.659282	-0.110916
H81	H	1.580597	-0.668473	0.110872
H82	H	1.475517	-0.521372	-0.000098
C83	C	1.437794	-0.401539	-0.000087
H84	H	1.459993	-0.363847	-0.000091
H85	H	1.389068	-0.410447	0.110787
H86	H	1.366077	-0.401262	-0.111001
C87	C	1.592758	-0.141858	0.000051
H88	H	1.614980	-0.104170	0.000042
H89	H	1.544020	-0.150759	0.110923
H90	H	1.521040	-0.141578	-0.110865
