data_functionalizedCrystal
_audit_creation_method	'MofGen! by Chris Wilmer'
_symmetry_space_group_name_H-M	'P1'
_symmetry_Int_Tables_number	1
_symmetry_cell_setting	triclinic
loop_
_symmetry_equiv_pos_as_xyz
  x,y,z
_cell_length_a	16.109301
_cell_length_b	17.699083
_cell_length_c	14.586319
_cell_angle_alpha	89.995320
_cell_angle_beta	89.999213
_cell_angle_gamma	83.372248
loop_
_atom_site_label
_atom_site_type_symbol
_atom_site_fract_x
_atom_site_fract_y
_atom_site_fract_z
O1	O	1.102963	0.097285	-0.076184
O2	O	1.602963	0.597285	0.423816
O3	O	0.860880	0.109391	-0.076199
O4	O	1.360880	0.609391	0.423801
O5	O	0.988761	-0.006841	-0.076183
O6	O	1.488761	0.493159	0.423817
O7	O	0.975082	0.213517	-0.076200
O8	O	1.475082	0.713517	0.423800
O9	O	0.988752	-0.006843	0.076298
O10	O	1.488752	0.493157	0.576298
O11	O	0.860872	0.109390	0.076282
O12	O	1.360872	0.609390	0.576282
O13	O	1.102954	0.097283	0.076297
O14	O	1.602954	0.597283	0.576297
Cu15	Cu	0.981912	0.103336	0.090212
Cu16	Cu	1.481912	0.603336	0.590212
Cu17	Cu	0.981923	0.103338	-0.090114
Cu18	Cu	1.481923	0.603338	0.409886
O19	O	0.975074	0.213516	0.076281
O20	O	1.475074	0.713516	0.576281
C21	C	0.829902	0.108900	0.000040
C22	C	1.329902	0.608900	0.500040
C23	C	0.737609	0.107430	0.000034
C24	C	1.237609	0.607430	0.500034
C25	C	0.988267	-0.035040	0.000057
C26	C	1.488267	0.464960	0.500057
C27	C	0.986796	-0.119060	0.000058
C28	C	1.486796	0.380940	0.500058
C29	C	0.515224	0.172981	0.000040
C30	C	1.015224	0.672981	0.500040
C31	C	0.428506	0.171594	0.000046
C32	C	0.928506	0.671594	0.500046
C33	C	0.448618	0.033688	0.000053
C34	C	0.948618	0.533688	0.500053
C35	C	0.535334	0.035076	0.000053
C36	C	1.035334	0.535076	0.500053
C37	C	0.568635	0.104725	0.000042
C38	C	1.068635	0.604725	0.500042
C39	C	0.395200	0.101949	0.000047
C40	C	0.895200	0.601949	0.500047
C41	C	0.301177	0.100445	0.000054
C42	C	0.801177	0.600445	0.500054
C43	C	0.662664	0.106230	0.000037
C44	C	1.162664	0.606230	0.500037
C45	C	1.061860	-0.167574	0.000064
C46	C	1.561860	0.332426	0.500064
C47	C	1.060473	-0.246519	0.000055
C48	C	1.560473	0.253481	0.500055
C49	C	0.984022	-0.276949	0.000048
C50	C	1.484022	0.223051	0.500048
C51	C	0.908953	-0.228429	0.000039
C52	C	1.408953	0.271571	0.500039
C53	C	0.910341	-0.149485	0.000041
C54	C	1.410341	0.350515	0.500041
C55	C	0.903356	-0.546800	0.000031
C56	C	1.403356	-0.046800	0.500031
C57	C	0.901974	-0.625750	0.000033
C58	C	1.401974	-0.125750	0.500033
C59	C	1.053488	-0.643834	0.000046
C60	C	1.553488	-0.143834	0.500046
C61	C	1.054876	-0.564890	0.000048
C62	C	1.554876	-0.064890	0.500048
C63	C	0.979807	-0.516377	0.000034
C64	C	1.479807	-0.016377	0.500034
C65	C	0.981312	-0.430776	0.000041
C66	C	1.481312	0.069224	0.500041
C67	C	0.982517	-0.362549	0.000047
C68	C	1.482517	0.137451	0.500047
C69	C	1.133933	0.097774	0.000056
C70	C	1.633933	0.597774	0.500056
C71	C	1.226226	0.099244	0.000055
C72	C	1.726226	0.599244	0.500055
C73	C	0.975568	0.241714	0.000038
C74	C	1.475568	0.741714	0.500038
C75	C	0.977039	0.325734	0.000032
C76	C	1.477039	0.825734	0.500032
N77	N	0.981911	0.103334	0.217044
N78	N	1.481911	0.603334	0.717044
N79	N	0.981931	0.103334	-0.216946
N80	N	1.481931	0.603334	0.283054
C81	C	1.038555	0.051884	0.452057
C82	C	1.538555	0.551884	0.952057
C83	C	1.038558	0.051882	0.548038
C84	C	1.538558	0.551882	1.048038
C85	C	0.925280	0.154787	0.548034
C86	C	1.425280	0.654787	1.048034
C87	C	0.925274	0.154785	0.452054
C88	C	1.425274	0.654785	0.952054
C89	C	0.981917	0.103334	0.404068
C90	C	1.481917	0.603334	0.904068
C91	C	0.981925	0.103334	0.596029
C92	C	1.481925	0.603334	1.096029
C93	C	0.981927	0.103333	0.700096
C94	C	1.481927	0.603333	1.200096
C95	C	0.981914	0.103334	0.299995
C96	C	1.481914	0.603334	0.799995
H97	H	0.542334	0.229694	0.000038
H98	H	1.042334	0.729694	0.500038
H99	H	0.578824	-0.020510	0.000058
H100	H	1.078824	0.479490	0.500058
H101	H	0.385022	0.227175	0.000046
H102	H	0.885022	0.727175	0.500046
H103	H	0.839715	-0.650523	0.000028
H104	H	1.339715	-0.150523	0.500028
H105	H	0.879149	0.196682	0.412979
H106	H	1.379149	0.696682	0.912979
H107	H	0.842230	-0.507310	0.000021
H108	H	1.342230	-0.007310	0.500021
O109	O	0.834761	-0.258112	0.000072
O110	O	1.334761	0.241888	0.500072
C111	C	0.849630	-0.338193	0.000052
C112	C	1.349630	0.161807	0.500052
H113	H	0.914547	-0.356750	0.028925
H114	H	1.414547	0.143250	0.528925
H115	H	0.800717	-0.362421	0.044319
H116	H	1.300717	0.137579	0.544319
H117	H	0.845649	-0.360164	-0.073100
H118	H	1.345649	0.139836	0.426900
O119	O	1.136053	-0.137892	0.000111
O120	O	1.636053	0.362108	0.500111
C121	C	1.121185	-0.057811	0.000088
C122	C	1.621185	0.442189	0.500088
H123	H	1.056266	-0.039256	0.028954
H124	H	1.556266	0.460744	0.528954
H125	H	1.170095	-0.033589	0.044359
H126	H	1.670095	0.466411	0.544359
H127	H	1.125173	-0.035832	-0.073064
H128	H	1.625173	0.464168	0.426936
O129	O	0.416129	-0.033900	0.000015
O130	O	0.916129	0.466100	0.500015
C131	C	0.328138	-0.020491	0.000035
C132	C	0.828138	0.479509	0.500035
H133	H	0.307653	0.038579	-0.028835
H134	H	0.807653	0.538579	0.471165
H135	H	0.301605	-0.065053	-0.044234
H136	H	0.801605	0.434947	0.455766
H137	H	0.304003	-0.024157	0.073187
H138	H	0.804003	0.475843	0.573187
H139	H	0.879165	0.196679	0.587113
H140	H	1.379165	0.696679	1.087113
H141	H	1.084677	0.009985	0.587108
H142	H	1.584677	0.509985	1.087108
O143	O	1.133446	-0.293566	-0.000057
O144	O	1.633446	0.206434	0.499943
C145	C	1.179873	-0.279779	-0.079030
C146	C	1.679873	0.220221	0.420970
H147	H	1.159336	-0.219888	-0.105359
H148	H	1.659336	0.280112	0.394641
H149	H	1.249224	-0.285348	-0.061258
H150	H	1.749224	0.214652	0.438742
H151	H	1.168603	-0.322952	-0.134333
H152	H	1.668603	0.177048	0.365667
O153	O	1.129213	-0.535457	0.000014
O154	O	1.629213	-0.035457	0.500014
C155	C	1.195171	-0.595207	0.000039
C156	C	1.695171	-0.095207	0.500039
H157	H	1.171975	-0.648828	-0.028830
H158	H	1.671975	-0.148828	0.471170
H159	H	1.248557	-0.578719	-0.044229
H160	H	1.748557	-0.078719	0.455771
H161	H	1.218315	-0.606388	0.073192
H162	H	1.718315	-0.106388	0.573192
O163	O	0.837347	-0.102464	0.000076
O164	O	1.337347	0.397536	0.500076
C165	C	0.769571	-0.146249	0.000045
C166	C	1.269571	0.353751	0.500045
H167	H	0.790788	-0.205175	0.028919
H168	H	1.290788	0.294825	0.528919
H169	H	0.716981	-0.117114	0.044306
H170	H	1.216981	0.382886	0.544306
H171	H	0.746138	-0.151861	-0.073110
H172	H	1.246138	0.348139	0.426890
O173	O	1.093601	0.001829	0.405585
O174	O	1.593601	0.501829	0.905585
C175	C	1.143604	-0.043571	0.468528
C176	C	1.643604	0.456429	0.968528
H177	H	1.109524	-0.044430	0.536948
H178	H	1.609524	0.455570	1.036948
H179	H	1.156407	-0.104013	0.440805
H180	H	1.656407	0.395987	0.940805
H181	H	1.205315	-0.018981	0.478727
H182	H	1.705315	0.481019	0.978727
H183	H	1.114613	-0.683343	0.000052
H184	H	1.614613	-0.183343	0.500052
