data_functionalizedCrystal
_audit_creation_method	'MofGen! by Chris Wilmer'
_symmetry_space_group_name_H-M	'P1'
_symmetry_Int_Tables_number	1
_symmetry_cell_setting	triclinic
loop_
_symmetry_equiv_pos_as_xyz
  x,y,z
_cell_length_a	6.817900
_cell_length_b	11.102244
_cell_length_c	17.078481
_cell_angle_alpha	95.110868
_cell_angle_beta	99.306161
_cell_angle_gamma	108.604870
loop_
_atom_site_label
_atom_site_type_symbol
_atom_site_fract_x
_atom_site_fract_y
_atom_site_fract_z
V1	V	-4.005695	-0.175542	-0.247360
O2	O	-3.966748	0.008741	-0.242653
O3	O	-3.983190	-0.348363	-0.245666
O4	O	-3.936320	-0.172708	-0.355243
O5	O	-4.013943	-0.168131	-0.132318
V6	V	-4.488685	-0.153515	-0.233600
O7	O	-4.268122	-0.223859	-0.277543
O8	O	-4.676456	-0.105198	-0.203417
O9	O	-4.287983	0.019306	-0.235294
O10	O	-4.645029	-0.337798	-0.238306
O11	O	-4.597834	-0.160926	-0.348642
O12	O	-4.334854	-0.156349	-0.125717
C13	C	-3.835169	-0.390498	-0.241763
C14	C	-3.897916	-0.531781	-0.241097
C15	C	-3.898305	-0.580103	-0.168135
C16	C	-3.957274	-0.712856	-0.167519
C17	C	-4.015453	-0.748954	-0.312833
C18	C	-3.956500	-0.616204	-0.313449
C19	C	-3.864708	-0.559263	-0.084239
C20	C	-3.923676	-0.692016	-0.083622
C21	C	-3.775380	-0.166430	-0.381538
C22	C	-3.800114	-0.165256	-0.469733
C23	C	-3.994016	-0.171049	-0.515209
C24	C	-4.017243	-0.169945	-0.598077
C25	C	-3.846570	-0.163058	-0.635469
C26	C	-3.652650	-0.157261	-0.589986
C27	C	-3.629421	-0.158355	-0.507119
C28	C	-3.896492	-0.159096	-0.882872
C29	C	-3.919739	-0.158006	-0.965746
C30	C	-4.284330	-0.170688	-0.973830
C31	C	-4.261087	-0.171790	-0.890962
C32	C	-4.067167	-0.165986	-0.845486
N33	N	-3.870309	-0.161934	-0.720173
N34	N	-4.043426	-0.167101	-0.760782
C35	C	-4.099347	0.061434	-0.239194
C36	C	-4.015838	0.202716	-0.239865
C37	C	-4.159137	-0.162631	-0.099417
C38	C	-4.113641	-0.163799	-0.011222
H39	H	-3.691586	-0.506496	-0.055264
O40	O	-4.072661	-0.831102	-0.383065
C41	C	-4.346319	-1.008023	-0.470486
C42	C	-4.281791	-0.915096	-0.390915
H43	H	-4.515418	-1.075938	-0.476867
H44	H	-4.235545	-1.066206	-0.470807
H45	H	-4.335796	-0.950649	-0.522726
H46	H	-4.292325	-0.972369	-0.338632
H47	H	-4.392572	-0.856911	-0.390664
H48	H	-3.738616	-0.154415	-0.845860
O49	O	-3.754010	-0.151141	-1.002145
C50	C	-3.516041	-0.031906	-1.080223
C51	C	-3.703748	-0.039534	-1.039049
H52	H	-3.475318	0.058335	-1.110055
H53	H	-3.560233	-0.120362	-1.127557
H54	H	-3.373501	-0.028007	-1.033482
H55	H	-3.846365	-0.043392	-1.085731
H56	H	-3.659381	0.048920	-0.991700
H57	H	-4.442212	-0.175411	-1.010865
H58	H	-3.513683	-0.151645	-0.620437
H59	H	-3.471512	-0.153607	-0.470090
O60	O	-4.205586	-0.175740	-0.642347
C61	C	-4.496068	-0.292500	-0.751325
C62	C	-4.282755	-0.286082	-0.701269
H63	H	-4.558545	-0.381718	-0.798964
H64	H	-4.473679	-0.203018	-0.781685
H65	H	-4.613980	-0.297553	-0.710337
H66	H	-4.164734	-0.281071	-0.742201
H67	H	-4.305312	-0.375562	-0.670900
O68	O	-3.956497	-0.569431	-0.384382
C69	C	-4.161533	-0.565772	-0.512505
C70	C	-4.161814	-0.618856	-0.432210
H71	H	-4.327524	-0.605688	-0.551189
H72	H	-4.047636	-0.595852	-0.545238
H73	H	-4.109239	-0.456389	-0.500502
H74	H	-4.214157	-0.728240	-0.444141
H75	H	-4.275663	-0.588675	-0.399501
O76	O	-3.997449	-0.512873	-0.049642
C77	C	-4.298362	-0.561694	0.014115
C78	C	-4.148228	-0.614405	-0.025066
H79	H	-4.420276	-0.643751	0.034010
H80	H	-4.382372	-0.515660	-0.031104
H81	H	-4.203469	-0.486613	0.068498
H82	H	-4.242964	-0.689531	-0.079442
H83	H	-4.064212	-0.660358	0.020204
O84	O	-4.105137	-0.739636	-0.055958
C85	C	-4.270416	-0.850187	0.044045
C86	C	-4.064800	-0.796359	0.012777
H87	H	-4.237865	-0.896036	0.099631
H88	H	-4.394234	-0.925595	-0.004490
H89	H	-4.331350	-0.768685	0.060169
H90	H	-4.003679	-0.877773	-0.003341
H91	H	-3.941117	-0.720917	0.061331
O92	O	-4.159859	-0.177967	-0.478875
C93	C	-4.397726	-0.297120	-0.400736
C94	C	-4.209927	-0.289464	-0.441860
H95	H	-4.438235	-0.387244	-0.370784
H96	H	-4.540410	-0.301153	-0.447450
H97	H	-4.353459	-0.208563	-0.353477
H98	H	-4.253991	-0.377998	-0.489115
H99	H	-4.067295	-0.285367	-0.395099
H100	H	-3.786806	-0.715077	-0.048210
O101	O	-4.426642	-0.178308	-0.854531
C102	C	-4.559474	-0.076285	-0.754924
C103	C	-4.371804	-0.068743	-0.796103
H104	H	-4.515220	0.012300	-0.707688
H105	H	-4.600145	-0.166403	-0.724969
H106	H	-4.702066	-0.080300	-0.801678
H107	H	-4.229092	-0.064678	-0.749400
H108	H	-4.331315	0.021361	-0.826075
