data_functionalizedCrystal
_audit_creation_method	'MofGen! by Chris Wilmer'
_symmetry_space_group_name_H-M	'P1'
_symmetry_Int_Tables_number	1
_symmetry_cell_setting	triclinic
loop_
_symmetry_equiv_pos_as_xyz
  x,y,z
_cell_length_a	17.699083
_cell_length_b	15.944551
_cell_length_c	16.776229
_cell_angle_alpha	89.992397
_cell_angle_beta	89.998886
_cell_angle_gamma	83.390877
loop_
_atom_site_label
_atom_site_type_symbol
_atom_site_fract_x
_atom_site_fract_y
_atom_site_fract_z
O1	O	1.004260	0.106222	-0.066178
O2	O	0.783905	0.120042	-0.066204
O3	O	0.900100	-0.009156	-0.066183
O4	O	0.888065	0.235419	-0.066199
O5	O	0.900084	-0.009164	0.066393
O6	O	0.783890	0.120034	0.066372
O7	O	1.004244	0.106214	0.066398
Zn8	Zn	0.894065	0.113123	0.087435
Zn9	Zn	0.894085	0.113133	-0.087241
O10	O	0.888050	0.235411	0.066377
C11	C	0.755700	0.119542	0.000080
C12	C	0.671679	0.118057	0.000071
C13	C	0.623187	0.193893	0.000066
C14	C	0.544242	0.192492	0.000076
C15	C	0.513789	0.115254	0.000086
C16	C	0.562287	0.039412	0.000093
C17	C	0.641231	0.040814	0.000088
C18	C	0.243914	0.033758	0.000113
C19	C	0.164964	0.032362	0.000115
C20	C	0.146925	0.185436	0.000101
C21	C	0.225869	0.186837	0.000096
C22	C	0.274360	0.110996	0.000108
C23	C	0.359962	0.112516	0.000098
C24	C	0.428189	0.113733	0.000090
C25	C	0.899593	-0.040453	0.000105
C26	C	0.898095	-0.133696	0.000105
C27	C	0.822492	-0.348393	0.000085
C28	C	0.857592	-0.409488	0.065458
C29	C	0.895385	-0.304416	0.000099
C30	C	0.857624	-0.409464	-0.065252
C31	C	0.892762	-0.469323	0.000089
C32	C	0.930505	-0.364283	0.065525
C33	C	0.930527	-0.364252	-0.065244
C34	C	0.965680	-0.425329	0.000145
C35	C	0.896894	-0.209417	0.000105
C36	C	0.891259	-0.564321	0.000089
C37	C	1.032450	0.106713	0.000112
C38	C	1.116471	0.108199	0.000116
C39	C	0.888557	0.266708	0.000087
C40	C	0.890055	0.359951	0.000082
N41	N	0.894056	0.113115	0.206646
N42	N	0.894099	0.113134	-0.206452
C43	C	0.945523	0.055930	0.248372
C44	C	0.945527	0.055929	0.331824
C45	C	0.894068	0.113118	0.373549
C46	C	0.842595	0.170306	0.331816
C47	C	0.842588	0.170302	0.248366
C48	C	0.842623	0.170323	0.668364
C49	C	0.842636	0.170324	0.751820
C50	C	0.945562	0.055949	0.751822
C51	C	0.945555	0.055945	0.668372
C52	C	0.894080	0.113130	0.626647
C53	C	0.894075	0.113129	0.536158
C54	C	0.894076	0.113124	0.464036
H55	H	0.504763	0.254246	0.000072
H56	H	0.800728	0.216896	0.785791
O57	O	0.099742	0.259056	-0.000008
C58	C	0.053547	0.262837	-0.068677
H59	H	0.049549	0.196174	-0.091559
H60	H	-0.005783	0.294248	-0.053233
H61	H	0.079518	0.301146	-0.116764
H62	H	0.987435	0.009364	0.365798
O63	O	0.135471	-0.042724	0.000024
C64	C	0.160233	-0.088941	-0.068641
H65	H	0.214988	-0.066167	-0.091538
H66	H	0.171182	-0.158912	-0.053187
H67	H	0.114552	-0.079118	-0.116722
H68	H	0.987430	0.009363	0.214406
H69	H	0.250659	0.249732	0.000085
O70	O	0.291085	-0.039858	0.000008
C71	C	0.337273	-0.043637	-0.068667
H72	H	0.341275	0.023028	-0.091560
H73	H	0.396603	-0.075056	-0.053227
H74	H	0.311293	-0.081936	-0.116745
O75	O	0.792598	0.225954	0.627963
C76	C	0.747172	0.276418	0.682687
H77	H	0.778211	0.277324	0.742168
H78	H	0.735623	0.343515	0.658568
H79	H	0.690952	0.249221	0.691578
O80	O	0.532670	-0.035596	-0.000039
C81	C	0.487530	-0.040973	-0.068690
H82	H	0.506201	0.002884	-0.116685
H83	H	0.494612	-0.108682	-0.091732
H84	H	0.425276	-0.021472	-0.053166
O85	O	0.820945	-0.433462	-0.131209
C86	C	0.871106	-0.489441	-0.176813
H87	H	0.918387	-0.520513	-0.136856
H88	H	0.838569	-0.540084	-0.204052
H89	H	0.896923	-0.452994	-0.226407
O90	O	1.037965	-0.464928	0.000089
C91	C	1.076553	-0.440825	-0.068227
H92	H	1.048145	-0.377469	-0.090793
H93	H	1.138364	-0.434904	-0.052447
H94	H	1.074355	-0.490609	-0.116683
H95	H	0.987460	0.009380	0.634402
H96	H	0.961338	-0.344183	-0.120506
H97	H	0.800692	0.216868	0.365793
H98	H	0.987473	0.009384	0.785804
O99	O	0.688230	-0.032931	0.000053
C100	C	0.644426	-0.101405	0.000080
H101	H	0.585505	-0.079965	-0.025018
H102	H	0.673544	-0.154528	-0.038408
H103	H	0.638806	-0.125091	0.063686
H104	H	0.826754	-0.429535	0.120718
H105	H	0.800678	0.216867	0.214393
O106	O	0.750299	-0.308537	0.000291
C107	C	0.712134	-0.331459	0.069328
H108	H	0.755577	-0.353544	0.117265
H109	H	0.673200	-0.274594	0.092135
H110	H	0.676765	-0.384773	0.054409
H111	H	0.647975	0.256789	0.000058
H112	H	0.961304	-0.344360	0.120853
