data_functionalizedCrystal
_audit_creation_method	'MofGen! by Chris Wilmer'
_symmetry_space_group_name_H-M	'P1'
_symmetry_Int_Tables_number	1
_symmetry_cell_setting	triclinic
loop_
_symmetry_equiv_pos_as_xyz
  x,y,z
_cell_length_a	21.295420
_cell_length_b	21.295417
_cell_length_c	19.120904
_cell_angle_alpha	92.408338
_cell_angle_beta	92.422698
_cell_angle_gamma	90.028757
loop_
_atom_site_label
_atom_site_type_symbol
_atom_site_fract_x
_atom_site_fract_y
_atom_site_fract_z
Zn1	Zn	0.947123	-0.265835	-0.397096
Zn2	Zn	1.280456	0.067498	-0.063763
Zn3	Zn	1.613789	0.400832	0.269571
Zn4	Zn	0.951531	-0.366613	-0.279640
Zn5	Zn	1.284864	-0.033280	0.053693
Zn6	Zn	1.618197	0.300054	0.387027
Zn7	Zn	0.846351	-0.261359	-0.279662
Zn8	Zn	1.179684	0.071974	0.053672
Zn9	Zn	1.513017	0.405307	0.387005
Zn10	Zn	0.841817	-0.371065	-0.397048
Zn11	Zn	1.175150	-0.037732	-0.063714
Zn12	Zn	1.508484	0.295602	0.269619
O13	O	0.896705	-0.316218	-0.338361
O14	O	1.230039	0.017115	-0.005028
O15	O	1.563372	0.350449	0.328305
O16	O	1.035796	-0.279213	-0.381526
O17	O	1.369130	0.054120	-0.048193
O18	O	1.702463	0.387453	0.285140
O19	O	0.941320	-0.348915	-0.181361
O20	O	1.274654	-0.015581	0.151972
O21	O	1.607987	0.317752	0.485306
O22	O	0.859771	-0.173865	-0.295269
O23	O	1.193104	0.159469	0.038065
O24	O	1.526437	0.492802	0.371398
O25	O	1.039035	-0.353254	-0.295232
O26	O	1.372368	-0.019921	0.038101
O27	O	1.705701	0.313412	0.371435
O28	O	0.933807	-0.177153	-0.381547
O29	O	1.267141	0.156180	-0.048214
O30	O	1.600474	0.489514	0.285120
O31	O	0.864045	-0.271585	-0.181377
O32	O	1.197378	0.061748	0.151957
O33	O	1.530712	0.395081	0.485290
O34	O	0.757660	-0.275902	-0.295222
O35	O	1.090994	0.057431	0.038111
O36	O	1.424327	0.390764	0.371445
O37	O	0.852044	-0.360842	-0.495336
O38	O	1.185377	-0.027509	-0.162003
O39	O	1.518711	0.305824	0.171330
O40	O	0.754329	-0.356503	-0.381465
O41	O	1.087663	-0.023169	-0.048132
O42	O	1.420996	0.310164	0.285202
O43	O	0.929411	-0.283530	-0.495372
O44	O	1.262745	0.049803	-0.162038
O45	O	1.596078	0.383136	0.171295
O46	O	0.936924	-0.455292	-0.295185
O47	O	1.270258	-0.121959	0.038148
O48	O	1.603591	0.211375	0.371481
O49	O	0.856318	-0.458563	-0.381444
O50	O	1.189652	-0.125230	-0.048111
O51	O	1.522985	0.208104	0.285223
C52	C	0.733154	-0.316200	-0.338341
C53	C	1.066488	0.017133	-0.005008
C54	C	1.399821	0.350466	0.328325
C55	C	0.663186	-0.316208	-0.338349
C56	C	0.996519	0.017125	-0.005016
C57	C	1.329853	0.350458	0.328317
C58	C	0.162011	-0.358259	-0.383224
C59	C	0.495345	-0.024926	-0.049891
C60	C	0.828678	0.308407	0.283442
C61	C	0.227754	-0.358259	-0.383217
C62	C	0.561087	-0.024926	-0.049884
C63	C	0.894421	0.308408	0.283450
C64	C	0.262345	-0.316233	-0.338383
C65	C	0.595679	0.017100	-0.005050
C66	C	0.929012	0.350433	0.328283
C67	C	0.231189	-0.274215	-0.293541
C68	C	0.564522	0.059118	0.039792
C69	C	0.897855	0.392451	0.373126
C70	C	0.165447	-0.274221	-0.293545
C71	C	0.498781	0.059113	0.039789
C72	C	0.832114	0.392446	0.373122
N73	N	0.365788	-0.260915	-0.333103
N74	N	0.699122	0.072419	0.000230
N75	N	1.032455	0.405752	0.333563
N76	N	0.428240	-0.260911	-0.333104
N77	N	0.761573	0.072422	0.000230
N78	N	1.094907	0.405755	0.333563
C79	C	0.460420	-0.316215	-0.338368
C80	C	0.793754	0.017118	-0.005035
C81	C	1.127087	0.350452	0.328298
N82	N	0.427790	-0.371524	-0.343646
N83	N	0.761123	-0.038190	-0.010313
N84	N	1.094457	0.295143	0.323020
N85	N	0.365333	-0.371526	-0.343649
N86	N	0.698666	-0.038193	-0.010316
N87	N	1.031999	0.295140	0.323017
C88	C	0.333631	-0.316223	-0.338374
C89	C	0.666964	0.017111	-0.005041
C90	C	1.000298	0.350444	0.328293
C91	C	0.562855	-0.358233	-0.383197
C92	C	0.896189	-0.024900	-0.049863
C93	C	1.229522	0.308433	0.283470
C94	C	0.628599	-0.358234	-0.383184
C95	C	0.961933	-0.024901	-0.049851
C96	C	1.295266	0.308433	0.283482
C97	C	0.632033	-0.274185	-0.293512
C98	C	0.965366	0.059149	0.039822
C99	C	1.298699	0.392482	0.373155
C100	C	0.566290	-0.274189	-0.293520
C101	C	0.899623	0.059144	0.039813
C102	C	1.232956	0.392477	0.373146
C103	C	0.531705	-0.316213	-0.338367
C104	C	0.865038	0.017120	-0.005033
C105	C	1.198372	0.350454	0.328300
C106	C	0.896624	-0.479768	-0.338322
C107	C	1.229957	-0.146435	-0.004989
C108	C	1.563291	0.186898	0.328344
C109	C	0.896646	-0.549737	-0.338329
C110	C	1.229980	-0.216403	-0.004996
C111	C	1.563313	0.116930	0.328337
C112	C	0.938652	-0.580881	-0.293460
C113	C	1.271985	-0.247548	0.039873
C114	C	1.605318	0.085786	0.373206
C115	C	0.938681	-0.646624	-0.293476
C116	C	1.272014	-0.313291	0.039857
C117	C	1.605347	0.020043	0.373191
C118	C	0.896693	-0.681220	-0.338354
C119	C	1.230026	-0.347887	-0.005020
C120	C	1.563360	-0.014553	0.328313
C121	C	0.854684	-0.650068	-0.383231
C122	C	1.188018	-0.316735	-0.049898
C123	C	1.521351	0.016599	0.283435
C124	C	0.854661	-0.584326	-0.383219
C125	C	1.187994	-0.250993	-0.049886
C126	C	1.521328	0.082340	0.283448
N127	N	0.841421	-0.784689	-0.343701
N128	N	1.174754	-0.451355	-0.010368
N129	N	1.508088	-0.118022	0.322966
N130	N	0.841445	-0.847140	-0.343708
N131	N	1.174778	-0.513807	-0.010375
N132	N	1.508112	-0.180474	0.322958
C133	C	0.896762	-0.879296	-0.338394
C134	C	1.230095	-0.545963	-0.005060
C135	C	1.563429	-0.212630	0.328273
N136	N	0.952056	-0.846641	-0.333058
N137	N	1.285389	-0.513307	0.000276
N138	N	1.618722	-0.179974	0.333609
N139	N	0.952031	-0.784183	-0.333047
N140	N	1.285364	-0.450850	0.000287
N141	N	1.618697	-0.117516	0.333620
C142	C	0.896714	-0.752506	-0.338372
C143	C	1.230047	-0.419173	-0.005039
C144	C	1.563381	-0.085839	0.328295
C145	C	0.938802	-0.981727	-0.293540
C146	C	1.272136	-0.648393	0.039794
C147	C	1.605469	-0.315060	0.373127
C148	C	0.938832	-1.047471	-0.293560
C149	C	1.272166	-0.714138	0.039773
C150	C	1.605499	-0.380805	0.373106
C151	C	0.854830	-1.050914	-0.383312
C152	C	1.188164	-0.717580	-0.049978
C153	C	1.521497	-0.384247	0.283355
C154	C	0.854806	-0.985171	-0.383295
C155	C	1.188139	-0.651837	-0.049961
C156	C	1.521473	-0.318504	0.283372
C157	C	0.896791	-0.950581	-0.338405
C158	C	1.230125	-0.617248	-0.005071
C159	C	1.563458	-0.283914	0.328262
C160	C	1.060895	-0.316236	-0.338382
C161	C	1.394228	0.017097	-0.005049
C162	C	1.727561	0.350430	0.328285
C163	C	1.130862	-0.316244	-0.338391
C164	C	1.464196	0.017089	-0.005057
C165	C	1.797529	0.350422	0.328276
C166	C	0.889730	-0.323182	-0.521550
C167	C	1.223064	0.010151	-0.188217
C168	C	1.556397	0.343485	0.145117
C169	C	0.886758	-0.326150	-0.599614
C170	C	1.220091	0.007184	-0.266281
C171	C	1.553425	0.340517	0.067053
C172	C	0.896803	-0.152030	-0.338416
C173	C	1.230136	0.181303	-0.005082
C174	C	1.563470	0.514637	0.328251
C175	C	0.896845	-0.082063	-0.338439
C176	C	1.230178	0.251271	-0.005106
C177	C	1.563511	0.584604	0.328228
C178	C	0.925641	-0.287293	-0.636308
C179	C	1.258974	0.046040	-0.302975
C180	C	1.592307	0.379373	0.030359
C181	C	0.922840	-0.290080	-0.709658
C182	C	1.256173	0.043254	-0.376324
C183	C	1.589507	0.376587	-0.042991
C184	C	0.881160	-0.331725	-0.746311
C185	C	1.214493	0.001608	-0.412978
C186	C	1.547826	0.334941	-0.079645
C187	C	0.842273	-0.370583	-0.709612
C188	C	1.175606	-0.037250	-0.376279
C189	C	1.508940	0.296083	-0.042946
C190	C	0.845071	-0.367794	-0.636264
C191	C	1.178404	-0.034460	-0.302931
C192	C	1.511737	0.298873	0.030403
C193	C	0.870694	-0.342159	-0.967774
C194	C	1.204028	-0.008826	-0.634441
C195	C	1.537361	0.324508	-0.301108
C196	C	0.867901	-0.344947	-1.041128
C197	C	1.201234	-0.011614	-0.707794
C198	C	1.534568	0.321720	-0.374461
C199	C	0.948468	-0.264442	-1.041168
C200	C	1.281801	0.068891	-0.707835
C201	C	1.615134	0.402225	-0.374501
C202	C	0.951264	-0.261659	-0.967818
C203	C	1.284598	0.071674	-0.634485
C204	C	1.617931	0.405008	-0.301152
C205	C	0.912375	-0.300514	-0.931126
C206	C	1.245709	0.032819	-0.597792
C207	C	1.579042	0.366152	-0.264459
C208	C	0.878298	-0.334576	-0.821286
C209	C	1.211631	-0.001242	-0.487953
C210	C	1.544964	0.332091	-0.154620
C211	C	0.915235	-0.297661	-0.856152
C212	C	1.248568	0.035673	-0.522819
C213	C	1.581901	0.369006	-0.189485
C214	C	0.903689	-0.309236	-0.155885
C215	C	1.237023	0.024098	0.177448
C216	C	1.570356	0.357431	0.510781
C217	C	0.906784	-0.306091	-0.077822
C218	C	1.240117	0.027242	0.255511
C219	C	1.573450	0.360576	0.588845
H220	H	0.259357	-0.239998	-0.257036
H221	H	0.592690	0.093335	0.076297
H222	H	0.926024	0.426668	0.409631
H223	H	0.820646	-1.079081	-0.419855
H224	H	1.153979	-0.745748	-0.086522
H225	H	1.487312	-0.412415	0.246812
H226	H	0.534695	-0.392452	-0.419712
H227	H	0.868028	-0.059119	-0.086379
H228	H	1.201361	0.274215	0.246955
H229	H	0.972991	-0.953563	-0.256990
H230	H	1.306325	-0.620229	0.076344
H231	H	1.639658	-0.286896	0.409677
Br232	Br	0.995851	-1.089740	-0.232668
Br233	Br	1.329185	-0.756407	0.100665
Br234	Br	1.662518	-0.423074	0.433998
H235	H	0.972840	-0.552720	-0.256910
H236	H	1.306173	-0.219387	0.076423
H237	H	1.639507	0.113947	0.409756
Br238	Br	1.007835	-0.205139	-0.918079
Br239	Br	1.341168	0.128194	-0.584745
Br240	Br	1.674501	0.461527	-0.251412
H241	H	0.839037	-0.373807	-0.937908
H242	H	1.172370	-0.040474	-0.604575
H243	H	1.505704	0.292859	-0.271241
H244	H	0.980128	-0.232807	-1.071051
H245	H	1.313462	0.100526	-0.737718
H246	H	1.646795	0.433859	-0.404385
Br247	Br	0.524013	-0.217162	-0.232676
Br248	Br	0.857346	0.116171	0.100658
Br249	Br	1.190679	0.449505	0.433991
Br250	Br	0.811329	-0.401468	-1.090872
Br251	Br	1.144662	-0.068135	-0.757539
Br252	Br	1.477995	0.265199	-0.424206
H253	H	0.660196	-0.239968	-0.257005
H254	H	0.993529	0.093365	0.076328
H255	H	1.326863	0.426698	0.409662
Br256	Br	0.797705	-0.697018	-0.444142
Br257	Br	1.131038	-0.363685	-0.110809
Br258	Br	1.464372	-0.030351	0.222524
H259	H	0.808333	-0.404490	-0.739462
H260	H	1.141667	-0.071157	-0.406128
H261	H	1.475000	0.262177	-0.072795
H262	H	0.140086	-0.240005	-0.257035
H263	H	0.473420	0.093328	0.076298
H264	H	0.806753	0.426661	0.409631
H265	H	0.820599	-0.959811	-0.419828
H266	H	1.153932	-0.626478	-0.086495
H267	H	1.487265	-0.293145	0.246838
H268	H	0.820454	-0.558968	-0.419758
H269	H	1.153788	-0.225635	-0.086424
H270	H	1.487121	0.107698	0.246909
Br271	Br	0.982215	-0.230776	-0.586571
Br272	Br	1.315548	0.102557	-0.253237
Br273	Br	1.648881	0.435891	0.080096
Br274	Br	0.975641	-0.237373	-0.759454
Br275	Br	1.308975	0.095961	-0.426121
Br276	Br	1.642308	0.429294	-0.092788
Br277	Br	0.792295	-0.420525	-0.586464
Br278	Br	1.125629	-0.087192	-0.253130
Br279	Br	1.458962	0.246141	0.080203
Br280	Br	0.821734	-0.391095	-0.871037
Br281	Br	1.155068	-0.057762	-0.537704
Br282	Br	1.488401	0.275572	-0.204370
H283	H	0.133856	-0.392480	-0.419739
H284	H	0.467190	-0.059147	-0.086406
H285	H	0.800523	0.274186	0.246927
H286	H	0.949168	-0.263750	-0.826305
H287	H	1.282501	0.069583	-0.492972
H288	H	1.615835	0.402917	-0.159639
H289	H	0.653960	-0.392452	-0.419691
H290	H	0.987293	-0.059119	-0.086358
H291	H	1.320626	0.274215	0.246975
H292	H	0.253120	-0.392473	-0.419728
H293	H	0.586454	-0.059139	-0.086395
H294	H	0.919787	0.274194	0.246938
H295	H	0.972889	-0.671987	-0.256939
H296	H	1.306222	-0.338653	0.076395
H297	H	1.639556	-0.005320	0.409728
