data_functionalizedCrystal
_audit_creation_method	'MofGen! by Chris Wilmer'
_symmetry_space_group_name_H-M	'P1'
_symmetry_Int_Tables_number	1
_symmetry_cell_setting	triclinic
loop_
_symmetry_equiv_pos_as_xyz
  x,y,z
_cell_length_a	12.759401
_cell_length_b	16.625545
_cell_length_c	12.759393
_cell_angle_alpha	90.032830
_cell_angle_beta	90.019676
_cell_angle_gamma	90.025984
loop_
_atom_site_label
_atom_site_type_symbol
_atom_site_fract_x
_atom_site_fract_y
_atom_site_fract_z
Zn1	Zn	1.606187	-0.320953	0.593968
Zn2	Zn	1.606045	-0.455808	0.418281
Zn3	Zn	1.430486	-0.320994	0.418307
Zn4	Zn	1.430444	-0.455749	0.593922
O5	O	1.518291	-0.388376	0.506119
O6	O	1.753189	-0.338850	0.570671
O7	O	1.582714	-0.437966	0.271263
O8	O	1.453870	-0.208156	0.441639
O9	O	1.753085	-0.437927	0.441594
O10	O	1.582957	-0.208126	0.570696
O11	O	1.453732	-0.338919	0.271282
O12	O	1.283459	-0.338862	0.441594
O13	O	1.453799	-0.437826	0.740949
O14	O	1.283429	-0.437865	0.570618
O15	O	1.582917	-0.338793	0.740983
O16	O	1.582674	-0.568632	0.441550
O17	O	1.453661	-0.568589	0.570592
C18	C	1.245323	-0.388362	0.506104
C19	C	1.128547	-0.388376	0.506123
C20	C	1.073740	-0.336879	0.573437
C21	C	0.964016	-0.336888	0.573444
C22	C	0.963915	-0.439895	0.438820
C23	C	1.073637	-0.439882	0.438809
C24	C	1.518176	-0.597867	0.506086
C25	C	1.518224	-0.687488	0.506107
C26	C	1.518264	-0.760270	0.506128
C27	C	1.518326	-0.851579	0.506151
C28	C	1.518380	-0.924355	0.506164
C29	C	1.518440	-1.015669	0.506186
C30	C	1.792324	-0.388390	0.506135
C31	C	1.909100	-0.388397	0.506141
C32	C	1.518369	-0.388299	0.780153
C33	C	1.518403	-0.388266	0.896929
C34	C	1.518434	-0.178067	0.506175
C35	C	1.518495	-0.088446	0.506199
C36	C	1.518273	-0.388395	0.233152
C37	C	1.518443	-0.388201	0.116376
C38	C	1.585639	-0.336691	0.951811
C39	C	1.585657	-0.336656	1.061535
C40	C	1.451199	-0.439778	1.061487
C41	C	1.451177	-0.439808	0.951765
H42	H	1.640376	-0.294719	0.907167
H43	H	1.118262	-0.481817	0.383988
H44	H	1.640406	-0.294657	1.106214
H45	H	1.118444	-0.294937	0.628245
C46	C	1.377220	-0.496549	0.891391
H47	H	1.337198	-0.527250	0.939762
H48	H	1.331457	-0.465716	0.848587
H49	H	1.417389	-0.531695	0.848588
C50	C	0.903732	-0.280246	0.647494
H51	H	0.952152	-0.249576	0.687585
H52	H	0.860926	-0.245079	0.607396
H53	H	0.860939	-0.311144	0.693205
C54	C	0.903511	-0.496555	0.364790
H55	H	0.830315	-0.489194	0.374445
H56	H	0.921463	-0.484690	0.294224
H57	H	0.921482	-0.550744	0.380049
H58	H	1.396468	-0.481744	1.106147
