data_functionalizedCrystal
_audit_creation_method	'MofGen! by Chris Wilmer'
_symmetry_space_group_name_H-M	'P1'
_symmetry_Int_Tables_number	1
_symmetry_cell_setting	triclinic
loop_
_symmetry_equiv_pos_as_xyz
  x,y,z
_cell_length_a	14.044191
_cell_length_b	10.967926
_cell_length_c	10.065875
_cell_angle_alpha	93.120479
_cell_angle_beta	80.402461
_cell_angle_gamma	91.144370
loop_
_atom_site_label
_atom_site_type_symbol
_atom_site_fract_x
_atom_site_fract_y
_atom_site_fract_z
O1	O	-0.165924	1.630688	0.270048
O2	O	0.334076	2.130688	0.770048
O3	O	-0.168641	1.280936	0.187786
O4	O	0.331359	1.780936	0.687786
O5	O	-0.029112	1.450558	0.227679
O6	O	0.470888	1.950558	0.727679
O7	O	-0.305454	1.461066	0.230156
O8	O	0.194546	1.961066	0.730156
O9	O	-0.055830	1.418225	0.447063
O10	O	0.444170	1.918225	0.947063
O11	O	-0.195360	1.248603	0.407171
O12	O	0.304640	1.748603	0.907171
O13	O	-0.192643	1.598356	0.489433
O14	O	0.307357	2.098356	0.989433
Zn15	Zn	-0.198243	1.418346	0.483134
Zn16	Zn	0.301757	1.918346	0.983134
Zn17	Zn	-0.163041	1.460945	0.194085
Zn18	Zn	0.336959	1.960945	0.694085
O19	O	-0.332172	1.428733	0.449540
O20	O	0.167828	1.928733	0.949540
C21	C	-0.179784	1.219738	0.286887
C22	C	0.320216	1.719738	0.786887
C23	C	-0.173168	1.085558	0.255327
C24	C	0.326832	1.585558	0.755327
C25	C	-0.184059	1.008987	0.354905
C26	C	0.315941	1.508987	0.854905
C27	C	-0.177222	0.870305	0.322289
C28	C	0.322778	1.370305	0.822289
C29	C	-0.354290	1.449496	0.340930
C30	C	0.145710	1.949496	0.840930
C31	C	-0.460001	1.463209	0.344156
C32	C	0.039999	1.963209	0.844156
C33	C	-0.707733	1.391027	0.327167
C34	C	-0.207733	1.891027	0.827167
C35	C	-0.653544	1.488260	0.350039
C36	C	-0.153544	1.988260	0.850039
C37	C	-0.545847	1.474318	0.346765
C38	C	-0.045847	1.974318	0.846765
C39	C	-0.815440	1.404967	0.330441
C40	C	-0.315440	1.904967	0.830441
C41	C	-0.006994	1.429795	0.336287
C42	C	0.493006	1.929795	0.836287
C43	C	0.098719	1.416084	0.333051
C44	C	0.598719	1.916084	0.833051
C45	C	-0.181500	1.659553	0.390329
C46	C	0.318500	2.159553	0.890329
C47	C	-0.188115	1.793735	0.421880
C48	C	0.311885	2.293735	0.921880
N49	N	-0.222268	1.389281	0.680404
N50	N	0.277732	1.889281	1.180404
N51	N	-0.139009	1.490019	-0.003183
N52	N	0.360991	1.990019	0.496817
C53	C	-0.171393	1.450825	0.762657
C54	C	0.328607	1.950825	1.262657
C55	C	-0.189891	1.428466	0.914566
C56	C	0.310109	1.928466	1.414566
H57	H	-0.198440	1.046103	0.464303
H58	H	0.301560	1.546103	0.964303
H59	H	-0.247141	1.359214	0.956599
H60	H	0.252859	1.859214	1.456599
Br61	Br	-0.043815	1.605744	0.926842
Br62	Br	0.456185	2.105744	1.426842
H63	H	-0.673246	1.297320	0.305131
H64	H	-0.173246	1.797320	0.805131
H65	H	-0.279513	1.320034	0.722444
H66	H	0.220487	1.820034	1.222444
Br67	Br	-0.212077	0.855573	0.604234
Br68	Br	0.287923	1.355573	1.104234
Br69	Br	-0.153230	0.808465	0.139936
Br70	Br	0.346770	1.308465	0.639936
Br71	Br	-0.075721	1.565907	0.692521
Br72	Br	0.424279	2.065907	1.192521
H73	H	-0.688022	1.581988	0.371985
H74	H	-0.188022	2.081988	0.871985
H75	H	-0.158779	1.048443	0.145929
H76	H	0.341221	1.548443	0.645929
