data_functionalizedCrystal
_audit_creation_method	'MofGen! by Chris Wilmer'
_symmetry_space_group_name_H-M	'P1'
_symmetry_Int_Tables_number	1
_symmetry_cell_setting	triclinic
loop_
_symmetry_equiv_pos_as_xyz
  x,y,z
_cell_length_a	12.759401
_cell_length_b	16.959454
_cell_length_c	12.759393
_cell_angle_alpha	89.970360
_cell_angle_beta	89.979062
_cell_angle_gamma	90.021600
loop_
_atom_site_label
_atom_site_type_symbol
_atom_site_fract_x
_atom_site_fract_y
_atom_site_fract_z
Zn1	Zn	1.606227	-0.314611	-0.594026
Zn2	Zn	1.606102	-0.446810	-0.418349
Zn3	Zn	1.430526	-0.314653	-0.418362
Zn4	Zn	1.430501	-0.446755	-0.593986
O5	O	1.518339	-0.380707	-0.506181
O6	O	1.753232	-0.332153	-0.570734
O7	O	1.582769	-0.429320	-0.271330
O8	O	1.453896	-0.204037	-0.441686
O9	O	1.753139	-0.429279	-0.441665
O10	O	1.582983	-0.204006	-0.570746
O11	O	1.453774	-0.332225	-0.271339
O12	O	1.283502	-0.332171	-0.441647
O13	O	1.453854	-0.429185	-0.741013
O14	O	1.283484	-0.429226	-0.570678
O15	O	1.582959	-0.332100	-0.741042
O16	O	1.582745	-0.557414	-0.441626
O17	O	1.453732	-0.557373	-0.570666
C18	C	1.245372	-0.380698	-0.506160
C19	C	1.128595	-0.380713	-0.506176
C20	C	1.073751	-0.431326	-0.573257
C21	C	0.964027	-0.431329	-0.573277
C22	C	0.964000	-0.330103	-0.439128
C23	C	1.073722	-0.330097	-0.439113
C24	C	0.814128	-0.459691	-0.697138
C25	C	0.759280	-0.510317	-0.764210
C26	C	0.794868	-0.587456	-0.780159
C27	C	0.885302	-0.613985	-0.729022
C28	C	0.940144	-0.563363	-0.661943
C29	C	0.904557	-0.486213	-0.646013
C30	C	1.223624	-0.301743	-0.315251
C31	C	1.278468	-0.251125	-0.248166
C32	C	1.242882	-0.173984	-0.232205
C33	C	1.152445	-0.147458	-0.283324
C34	C	1.097601	-0.198076	-0.350409
C35	C	1.133194	-0.275216	-0.366371
C36	C	1.518251	-0.586074	-0.506163
C37	C	1.518309	-0.673930	-0.506190
C38	C	1.451259	-1.045415	-0.573365
C39	C	1.585711	-1.045397	-0.439104
C40	C	1.585675	-0.962851	-0.439094
C41	C	1.518428	-0.921583	-0.506220
C42	C	1.451218	-0.962861	-0.573355
C43	C	1.652875	-0.921567	-0.371953
C44	C	1.652841	-0.839016	-0.371940
C45	C	1.585599	-0.797747	-0.439071
C46	C	1.518387	-0.839030	-0.506210
C47	C	1.451141	-0.797762	-0.573335
C48	C	1.383934	-0.839043	-0.640480
C49	C	1.383977	-0.921592	-0.640486
C50	C	1.585556	-0.715198	-0.439065
C51	C	1.451100	-0.715208	-0.573326
C52	C	1.792372	-0.380718	-0.506202
C53	C	1.909149	-0.380722	-0.506212
C54	C	1.518418	-0.380632	-0.780214
C55	C	1.518451	-0.380599	-0.896991
C56	C	1.518456	-0.174539	-0.506222
C57	C	1.518506	-0.086683	-0.506239
C58	C	1.585681	-0.330039	-0.951870
C59	C	1.585699	-0.330005	-1.061594
C60	C	1.451254	-0.431098	-1.061551
C61	C	1.451232	-0.431128	-0.951829
C62	C	1.623323	-0.236746	-1.211570
C63	C	1.690569	-0.186193	-1.266453
C64	C	1.793083	-0.174072	-1.230861
C65	C	1.828372	-0.212516	-1.140389
C66	C	1.761131	-0.263076	-1.085512
C67	C	1.658602	-0.275181	-1.121102
C68	C	1.413619	-0.524387	-0.801850
C69	C	1.346382	-0.574951	-0.746971
C70	C	1.243866	-0.587080	-0.782561
C71	C	1.208581	-0.548650	-0.873037
C72	C	1.275818	-0.498086	-0.927916
C73	C	1.378333	-0.485956	-0.892319
C74	C	1.518321	-0.380726	-0.233213
C75	C	1.518491	-0.380536	-0.116437
H76	H	1.013773	-0.584963	-0.620307
H77	H	1.640270	-0.681591	-0.384392
H78	H	0.785150	-0.396876	-0.684169
H79	H	0.914264	-0.676802	-0.742005
F80	F	1.379722	-0.484874	-1.119922
F81	F	1.514209	-0.249633	-1.249448
F82	F	1.312456	-0.965531	-0.711939
H83	H	1.352107	-0.272729	-0.206541
H84	H	1.640413	-0.288893	-0.907225
H85	H	0.919310	-0.288895	-0.384526
F86	F	1.657275	-1.089319	-0.367668
F87	F	1.001344	-0.169844	-0.404810
H88	H	1.497094	-0.514510	-0.772859
H89	H	1.118425	-0.472539	-0.627866
F90	F	1.724374	-0.795089	-0.300486
H91	H	1.247080	-0.466794	-1.001587
H92	H	0.750204	-0.628675	-0.834771
F93	F	1.798682	-0.303991	-0.989231
F94	F	1.937489	-0.199623	-1.102525
H95	H	1.396544	-1.079030	-0.628035
H96	H	1.847836	-0.132909	-1.275555
F97	F	0.663039	-0.482079	-0.818635
H98	H	1.661827	-0.154891	-1.340116
H99	H	1.707616	-0.955173	-0.317295
F100	F	1.383943	-0.615860	-0.650684
F101	F	1.099473	-0.561560	-0.910920
H102	H	1.287541	-0.132774	-0.177570
F103	F	1.114562	-0.065359	-0.266332
F104	F	1.261430	-0.383877	-0.332130
H105	H	1.396343	-0.681613	-0.627992
H106	H	1.189127	-0.628261	-0.737873
F107	F	1.312363	-0.795114	-0.711913
