data_functionalizedCrystal
_audit_creation_method	'MofGen! by Chris Wilmer'
_symmetry_space_group_name_H-M	'P1'
_symmetry_Int_Tables_number	1
_symmetry_cell_setting	triclinic
loop_
_symmetry_equiv_pos_as_xyz
  x,y,z
_cell_length_a	14.519709
_cell_length_b	15.995292
_cell_length_c	12.996460
_cell_angle_alpha	89.997047
_cell_angle_beta	90.000034
_cell_angle_gamma	83.574380
loop_
_atom_site_label
_atom_site_type_symbol
_atom_site_fract_x
_atom_site_fract_y
_atom_site_fract_z
O1	O	1.223644	0.109763	-0.085425
O2	O	0.955141	0.122689	-0.085456
O3	O	1.096760	-0.005654	-0.085441
O4	O	1.082025	0.238106	-0.085440
O5	O	1.096745	-0.005661	0.085692
O6	O	0.955126	0.122682	0.085678
O7	O	1.223629	0.109756	0.085708
Cu8	Cu	1.089376	0.116218	0.101319
Cu9	Cu	1.089394	0.116227	-0.101067
O10	O	1.082010	0.238099	0.085694
C11	C	0.920775	0.122083	0.000107
C12	C	0.818397	0.120278	0.000095
C13	C	1.096153	-0.036854	0.000123
C14	C	1.094355	-0.129810	0.000115
C15	C	0.443515	0.113632	0.000142
C16	C	0.547819	0.115478	0.000128
C17	C	0.630953	0.116955	0.000117
C18	C	0.735264	0.118801	0.000106
C19	C	1.087745	-0.467558	0.000124
C20	C	1.189962	-0.444093	0.000518
C21	C	1.191905	-0.347414	0.000128
C22	C	1.091025	-0.299997	0.000120
C23	C	1.039930	-0.329171	-0.097609
C24	C	1.038699	-0.425963	-0.097687
C25	C	1.036595	-0.425831	0.096924
C26	C	1.040383	-0.329333	0.098212
C27	C	1.092873	-0.205298	0.000114
C28	C	1.085894	-0.562257	0.000122
C29	C	1.257995	0.110362	0.000143
C30	C	1.360373	0.112167	0.000149
C31	C	1.082617	0.269299	0.000127
C32	C	1.084415	0.362254	0.000129
N33	N	1.089371	0.116212	0.243666
N34	N	1.089407	0.116226	-0.243414
C35	C	1.089393	0.116227	0.663480
C36	C	1.089384	0.116226	0.546675
C37	C	1.089382	0.116220	0.453577
C38	C	1.089373	0.116217	0.336764
H39	H	1.231922	-0.328332	0.070183
C40	C	0.940907	-0.284948	0.106184
C41	C	0.903751	-0.221004	0.023390
C42	C	0.804271	-0.176617	0.031354
C43	C	0.741947	-0.196174	0.122112
C44	C	0.779102	-0.260121	0.204913
C45	C	0.878582	-0.304508	0.196949
H46	H	0.949889	-0.206524	-0.043801
H47	H	0.776768	-0.129280	-0.029941
H48	H	0.668306	-0.163317	0.128007
H49	H	0.732965	-0.274601	0.272104
H50	H	0.906086	-0.351845	0.258244
C51	C	1.243194	-0.481851	0.095186
C52	C	1.194504	-0.534456	0.173295
C53	C	1.247738	-0.572225	0.267964
C54	C	1.349663	-0.557390	0.284523
C55	C	1.398359	-0.504783	0.206411
C56	C	1.345125	-0.467013	0.111742
H57	H	1.119048	-0.545440	0.161040
H58	H	1.211690	-0.611168	0.325787
H59	H	1.389070	-0.585349	0.354602
H60	H	1.473815	-0.493799	0.218667
H61	H	1.381173	-0.428070	0.053919
C62	C	1.087879	-0.302005	-0.195857
C63	C	1.190340	-0.333709	-0.216189
C64	C	1.238296	-0.306546	-0.314434
C65	C	1.183791	-0.247680	-0.392349
C66	C	1.081324	-0.215973	-0.372020
C67	C	1.033368	-0.243136	-0.273774
H68	H	1.230694	-0.377288	-0.158510
H69	H	1.314149	-0.330018	-0.329483
H70	H	1.219290	-0.227572	-0.465076
H71	H	1.040971	-0.172393	-0.429699
H72	H	0.957515	-0.219664	-0.258725
C73	C	0.934953	-0.444886	0.097819
C74	C	0.912353	-0.536628	0.101734
C75	C	0.810716	-0.555689	0.102621
C76	C	0.731680	-0.483008	0.099592
C77	C	0.754278	-0.391261	0.095676
C78	C	0.855915	-0.372200	0.094790
H79	H	0.970862	-0.590435	0.103977
H80	H	0.793988	-0.623606	0.105520
H81	H	0.656442	-0.497119	0.100248
H82	H	0.695769	-0.337453	0.093434
H83	H	0.872643	-0.304282	0.091891
H84	H	0.965696	-0.297414	-0.101248
C85	C	1.079785	-0.463928	0.197029
C86	C	1.182660	-0.457693	0.220983
C87	C	1.225834	-0.495787	0.321097
C88	C	1.166134	-0.540116	0.397257
C89	C	1.063253	-0.546354	0.373305
C90	C	1.020079	-0.508260	0.273191
H91	H	1.226859	-0.424876	0.164604
H92	H	1.301994	-0.491169	0.338828
H93	H	1.198094	-0.568315	0.471367
H94	H	1.019054	-0.579171	0.429685
H95	H	0.943919	-0.512877	0.255460
H96	H	1.077588	-0.310715	0.170511
C97	C	1.246289	-0.322459	-0.094673
C98	C	1.348484	-0.358123	-0.108781
C99	C	1.402866	-0.333169	-0.203592
C100	C	1.355052	-0.272552	-0.284295
C101	C	1.252851	-0.236884	-0.270189
C102	C	1.198470	-0.261838	-0.175379
H103	H	1.383884	-0.402998	-0.049038
H104	H	1.478522	-0.359573	-0.214033
H105	H	1.395309	-0.254080	-0.354479
H106	H	1.217452	-0.192009	-0.329932
H107	H	1.122813	-0.235434	-0.164937
H108	H	1.229149	-0.473049	-0.069166
H109	H	1.074098	-0.452723	-0.170734
H110	H	0.963753	-0.440625	-0.102121
