data_functionalizedCrystal
_audit_creation_method	'MofGen! by Chris Wilmer'
_symmetry_space_group_name_H-M	'P1'
_symmetry_Int_Tables_number	1
_symmetry_cell_setting	triclinic
loop_
_symmetry_equiv_pos_as_xyz
  x,y,z
_cell_length_a	10.540539
_cell_length_b	13.339070
_cell_length_c	12.376457
_cell_angle_alpha	104.410245
_cell_angle_beta	101.393660
_cell_angle_gamma	79.922607
loop_
_atom_site_label
_atom_site_type_symbol
_atom_site_fract_x
_atom_site_fract_y
_atom_site_fract_z
O1	O	0.620442	-1.366170	-0.094026
O2	O	0.536703	-1.071037	-0.094022
O3	O	0.396162	-1.225337	-0.094023
O4	O	0.760984	-1.211871	-0.094026
O5	O	0.431235	-1.186775	0.093989
O6	O	0.571777	-1.032476	0.093990
O7	O	0.655516	-1.327609	0.093986
Zn8	Zn	0.619215	-1.173920	0.123839
Zn9	Zn	0.573004	-1.224726	-0.123875
O10	O	0.796058	-1.173309	0.093987
C11	C	0.540095	-1.013965	-0.000016
C12	C	0.497931	-0.901358	-0.000014
C13	C	0.366051	-1.205046	-0.000019
C14	C	0.224072	-1.202026	-0.000025
N15	N	0.650755	-1.139253	0.292897
C16	C	0.001104	-1.086335	-0.000445
C17	C	0.148845	-1.089311	-0.000022
C18	C	0.200932	-1.234249	0.107338
C19	C	0.053093	-1.230384	0.107429
C20	C	0.013471	-1.276528	-0.106376
C21	C	0.160541	-1.277857	-0.107796
C22	C	0.826168	-1.193600	-0.000020
C23	C	0.968146	-1.196622	-0.000021
C24	C	0.652124	-1.384681	-0.000023
C25	C	0.694286	-1.497290	-0.000032
C26	C	0.825771	-0.538938	-0.000035
C27	C	0.865389	-0.644738	-0.000040
C28	C	0.773528	-0.708898	-0.000033
C29	C	0.642042	-0.667248	-0.000022
C30	C	0.602418	-0.561440	-0.000026
C31	C	0.550175	-0.731400	-0.000024
C32	C	0.418690	-0.689750	-0.000014
C33	C	0.379073	-0.583951	-0.000017
C34	C	0.470934	-0.519791	-0.000024
C35	C	0.589799	-0.837208	-0.000020
C36	C	0.366447	-0.859710	-0.000012
C37	C	0.326829	-0.753910	-0.000007
N38	N	0.541457	-1.259401	-0.292934
C39	C	0.468218	-1.339873	0.647881
C40	C	0.446141	-1.364130	0.529541
C41	C	0.497292	-1.307913	0.470375
C42	C	0.570525	-1.227434	0.529559
C43	C	0.592613	-1.203180	0.647911
C44	C	0.621687	-1.171220	0.470404
C45	C	0.694920	-1.090741	0.529589
C46	C	0.717003	-1.066490	0.647929
C47	C	0.665852	-1.122707	0.707096
C48	C	0.599599	-1.195474	0.352053
C49	C	0.723994	-1.058781	0.352082
C50	C	0.746071	-1.034523	0.470422
H51	H	0.162543	-1.062415	-0.076985
H52	H	-0.057036	-1.057601	-0.077437
H53	H	0.479314	-1.327667	0.374017
H54	H	0.426586	-1.385643	0.696063
H55	H	0.438683	-0.433639	-0.000019
Br56	Br	-0.085130	-1.243534	-0.242008
H57	H	0.211563	-1.361364	-0.114280
H58	H	0.765649	-1.013005	0.303909
H59	H	0.291645	-0.911950	-0.000011
H60	H	0.805792	-0.795045	-0.000039
Br61	Br	-0.019215	-1.412469	-0.107584
Br62	Br	0.500218	-1.304692	0.271745
Br63	Br	0.346764	-1.473348	0.449221
Br64	Br	0.768237	-0.893721	-0.000037
Br65	Br	1.043823	-0.701258	-0.000063
H66	H	0.900547	-0.486692	-0.000050
H67	H	0.683822	-1.102955	0.803458
Br68	Br	0.218004	-0.991314	0.128465
Br69	Br	0.020702	-1.363821	0.115560
H70	H	0.173055	-1.254458	-0.187220
H71	H	0.776645	-1.000967	0.696117
H72	H	-0.029936	-1.026288	0.076117
Br73	Br	0.008263	-1.136129	0.241194
Br74	Br	0.845453	-0.925303	0.550755
H75	H	0.252244	-1.316205	0.111329
Br76	Br	0.200620	-0.527437	-0.000048
Br77	Br	0.148389	-0.697372	0.000010
H78	H	0.245593	-1.180182	0.187236
