data_functionalizedCrystal
_audit_creation_method	'MofGen! by Chris Wilmer'
_symmetry_space_group_name_H-M	'P1'
_symmetry_Int_Tables_number	1
_symmetry_cell_setting	triclinic
loop_
_symmetry_equiv_pos_as_xyz
  x,y,z
_cell_length_a	6.817900
_cell_length_b	16.418049
_cell_length_c	17.078481
_cell_angle_alpha	96.278060
_cell_angle_beta	99.306161
_cell_angle_gamma	103.389670
loop_
_atom_site_label
_atom_site_type_symbol
_atom_site_fract_x
_atom_site_fract_y
_atom_site_fract_z
V1	V	-3.979125	-0.115690	-0.247640
V2	V	-3.479125	0.384310	0.252360
O3	O	-3.968071	0.005761	-0.242639
O4	O	-3.468071	0.505761	0.257361
O5	O	-3.930462	-0.229588	-0.246223
O6	O	-3.430462	0.270412	0.253777
O7	O	-3.910179	-0.113822	-0.355519
O8	O	-3.410179	0.386178	0.144481
O9	O	-3.988494	-0.110806	-0.132587
O10	O	-3.488494	0.389194	0.367413
V11	V	-4.465449	-0.101174	-0.233846
V12	V	-3.965449	0.398826	0.266154
O13	O	-4.234238	-0.147533	-0.277901
O14	O	-3.734238	0.352467	0.222099
O15	O	-4.660533	-0.069331	-0.203585
O16	O	-4.160533	0.430669	0.296415
O17	O	-4.290905	0.012724	-0.235263
O18	O	-3.790905	0.512724	0.264737
O19	O	-4.593900	-0.222625	-0.238847
O20	O	-4.093900	0.277375	0.261153
O21	O	-4.573476	-0.106058	-0.348899
O22	O	-4.073476	0.393942	0.151101
O23	O	-4.311188	-0.103042	-0.125967
O24	O	-3.811188	0.396958	0.374033
C25	C	-3.776063	-0.257356	-0.242388
C26	C	-3.276063	0.242644	0.257612
C27	C	-3.817426	-0.350469	-0.241948
C28	C	-3.317426	0.149531	0.258052
C29	C	-4.093892	-0.568956	-0.244920
C30	C	-3.593892	-0.068956	0.255080
C31	C	-4.132743	-0.656445	-0.244514
C32	C	-3.632743	-0.156445	0.255486
C33	C	-3.770039	-0.647907	-0.236571
C34	C	-3.270039	-0.147907	0.263429
C35	C	-3.731192	-0.560420	-0.236983
C36	C	-3.231192	-0.060420	0.263017
C37	C	-3.893124	-0.520946	-0.241154
C38	C	-3.393124	-0.020946	0.258846
C39	C	-3.970822	-0.695923	-0.240335
C40	C	-3.470822	-0.195923	0.259665
C41	C	-4.012945	-0.790783	-0.239895
C42	C	-3.512945	-0.290783	0.260105
C43	C	-3.851000	-0.426080	-0.241595
C44	C	-3.351000	0.073920	0.258405
C45	C	-3.750190	-0.109685	-0.381804
C46	C	-3.250190	0.390315	0.118196
C47	C	-3.775100	-0.108911	-0.469997
C48	C	-3.275100	0.391089	0.030003
C49	C	-3.968126	-0.112729	-0.515482
C50	C	-3.468126	0.387271	-0.015482
C51	C	-3.991520	-0.112002	-0.598349
C52	C	-3.491520	0.387998	-0.098349
C53	C	-3.821889	-0.107463	-0.635730
C54	C	-3.321889	0.392537	-0.135730
C55	C	-3.628847	-0.103642	-0.590238
C56	C	-3.128847	0.396358	-0.090238
C57	C	-3.605452	-0.104364	-0.507372
C58	C	-3.105452	0.395636	-0.007372
C59	C	-3.872411	-0.104852	-0.883126
C60	C	-3.372411	0.395148	-0.383126
C61	C	-3.895823	-0.104133	-0.965999
C62	C	-3.395823	0.395867	-0.465999
C63	C	-4.258494	-0.112491	-0.974103
C64	C	-3.758494	0.387509	-0.474103
C65	C	-4.235085	-0.113217	-0.891237
C66	C	-3.735085	0.386783	-0.391237
C67	C	-4.042044	-0.109392	-0.845752
C68	C	-3.542044	0.390608	-0.345752
N69	N	-3.845799	-0.106722	-0.720433
N70	N	-3.345799	0.393278	-0.220433
N71	N	-4.018134	-0.110127	-0.761049
N72	N	-3.518134	0.389873	-0.261049
C73	C	-4.108646	0.040488	-0.239096
C74	C	-3.608646	0.540488	0.260904
C75	C	-4.046521	0.133599	-0.239541
C76	C	-3.546521	0.633599	0.260459
C77	C	-4.134521	-0.107182	-0.099677
C78	C	-3.634521	0.392818	0.400323
C79	C	-4.088848	-0.107951	-0.011484
C80	C	-3.588848	0.392049	0.488516
H81	H	-3.567697	-0.521330	-0.233918
H82	H	-3.067697	-0.021330	0.266082
F83	F	-4.148679	-0.117566	-0.475708
F84	F	-3.648679	0.382434	0.024292
F85	F	-3.715268	-0.099302	-1.005780
F86	F	-3.215268	0.400698	-0.505780
H87	H	-4.148696	-0.115106	-0.635379
H88	H	-3.648696	0.384894	-0.135379
F89	F	-3.597712	-0.689926	-0.232129
F90	F	-3.097712	-0.189926	0.267871
H91	H	-4.225750	-0.536819	-0.248315
H92	H	-3.725750	-0.036819	0.251685
F93	F	-4.463931	-0.116560	-1.022517
F94	F	-3.963931	0.383440	-0.522517
H95	H	-4.296225	-0.695531	-0.247583
H96	H	-3.796225	-0.195531	0.252417
F97	F	-4.415634	-0.118051	-0.851460
F98	F	-3.915634	0.381949	-0.351460
H99	H	-3.715243	-0.101767	-0.846107
H100	H	-3.215243	0.398233	-0.346107
F101	F	-3.448313	-0.098811	-0.630024
F102	F	-2.948313	0.401189	-0.130024
H103	H	-3.448262	-0.101234	-0.470336
H104	H	-2.948262	0.398766	0.029664
