data_functionalizedCrystal
_audit_creation_method	'MofGen! by Chris Wilmer'
_symmetry_space_group_name_H-M	'P1'
_symmetry_Int_Tables_number	1
_symmetry_cell_setting	triclinic
loop_
_symmetry_equiv_pos_as_xyz
  x,y,z
_cell_length_a	14.519709
_cell_length_b	10.540510
_cell_length_c	12.996460
_cell_angle_alpha	89.997788
_cell_angle_beta	90.000602
_cell_angle_gamma	84.096728
loop_
_atom_site_label
_atom_site_type_symbol
_atom_site_fract_x
_atom_site_fract_y
_atom_site_fract_z
O1	O	1.224754	0.166391	0.085427
O2	O	0.956381	0.185987	0.085458
O3	O	1.096705	-0.008582	0.085441
O4	O	1.084431	0.360961	0.085443
O5	O	1.096687	-0.008571	-0.085693
O6	O	0.956363	0.185998	-0.085676
O7	O	1.224736	0.166402	-0.085707
Cu8	Cu	1.090548	0.176201	-0.101317
Cu9	Cu	1.090569	0.176188	0.101068
O10	O	1.084412	0.360972	-0.085690
C11	C	0.922008	0.185079	-0.000105
C12	C	0.819612	0.182343	-0.000093
C13	C	0.444662	0.172268	-0.000140
C14	C	0.548985	0.175066	-0.000127
C15	C	0.632134	0.177305	-0.000116
C16	C	0.736463	0.180103	-0.000104
C17	C	1.095781	-0.055871	-0.000123
C18	C	1.093044	-0.196793	-0.000117
C19	C	1.190527	-0.415244	-0.000520
C20	C	1.193446	-0.268678	-0.000129
C21	C	1.041659	-0.241033	0.097613
C22	C	1.039451	-0.387772	0.097689
C23	C	1.037340	-0.387546	-0.096921
C24	C	1.042102	-0.241254	-0.098208
C25	C	1.259110	0.167310	-0.000142
C26	C	1.361505	0.170047	-0.000147
C27	C	1.085336	0.408261	-0.000123
C28	C	1.088073	0.549183	-0.000123
N29	N	1.090539	0.176210	-0.243664
C30	C	1.090544	0.176213	-0.336770
C31	C	1.090552	0.176205	-0.453575
C32	C	1.090564	0.176191	-0.546674
C33	C	1.090573	0.176183	-0.663486
N34	N	1.090585	0.176169	0.243415
H35	H	1.233652	-0.239740	-0.070185
O36	O	1.084119	-0.204508	0.184404
C37	C	1.020941	-0.123564	0.242974
H38	H	0.963819	-0.077909	0.190662
H39	H	0.989201	-0.181482	0.305331
C40	C	1.142127	-0.074653	0.357635
C41	C	1.071972	-0.018570	0.293383
H42	H	1.173605	-0.009891	0.388733
H43	H	1.184691	-0.129190	0.318177
H44	H	1.115666	-0.122917	0.409590
H45	H	1.098435	0.029678	0.241422
H46	H	1.029414	0.035977	0.332833
H47	H	1.229634	-0.457593	-0.070607
H48	H	1.229424	-0.459151	0.069162
O49	O	1.241573	-0.235107	0.083626
C50	C	1.183836	-0.150865	0.145647
H51	H	1.125409	-0.101879	0.096775
H52	H	1.153340	-0.206643	0.210228
C53	C	1.312647	-0.109833	0.252200
C54	C	1.240891	-0.049660	0.192173
H55	H	1.347841	-0.047409	0.280904
H56	H	1.351546	-0.166592	0.210418
H57	H	1.287223	-0.156313	0.306010
H58	H	1.266316	-0.003196	0.138358
H59	H	1.201998	0.007109	0.233947
H60	H	1.074583	-0.428351	0.170736
H61	H	0.964357	-0.410001	0.102126
H62	H	0.967746	-0.192890	0.101255
H63	H	1.069238	-0.430049	-0.171000
O64	O	1.086784	-0.207420	-0.184363
C65	C	1.163807	-0.143887	-0.156126
H66	H	1.152507	-0.101936	-0.075721
H67	H	1.228837	-0.214404	-0.156499
C68	C	1.189242	-0.087422	-0.332149
C69	C	1.175359	-0.035888	-0.233396
H70	H	1.196371	-0.020807	-0.379814
H71	H	1.137352	-0.130229	-0.351174
H72	H	1.243432	-0.146186	-0.332445
H73	H	1.121163	0.022862	-0.233099
H74	H	1.227240	0.006932	-0.214373
O75	O	0.947376	-0.412890	-0.097840
C76	C	0.902560	-0.355732	-0.184968
H77	H	0.941289	-0.273162	-0.212195
H78	H	0.901709	-0.429350	-0.249131
C79	C	0.754870	-0.406800	-0.123245
C80	C	0.802434	-0.305379	-0.156681
H81	H	0.693106	-0.375744	-0.105800
H82	H	0.785063	-0.445313	-0.064547
H83	H	0.754171	-0.468140	-0.176720
H84	H	0.803142	-0.244049	-0.103202
H85	H	0.772238	-0.266854	-0.215370
O86	O	0.954664	-0.181753	-0.105069
C87	C	0.937571	-0.098170	-0.020955
H88	H	0.986150	-0.130429	0.045046
H89	H	0.950010	0.002609	-0.045192
C90	C	0.776807	-0.059808	-0.066553
C91	C	0.836468	-0.099436	0.014514
H92	H	0.714441	-0.060583	-0.044676
H93	H	0.788323	-0.116115	-0.123225
H94	H	0.787184	0.024171	-0.086743
H95	H	0.826098	-0.183419	0.034694
H96	H	0.824948	-0.043142	0.071190
