data_functionalizedCrystal
_audit_creation_method	'MofGen! by Chris Wilmer'
_symmetry_space_group_name_H-M	'P1'
_symmetry_Int_Tables_number	1
_symmetry_cell_setting	triclinic
loop_
_symmetry_equiv_pos_as_xyz
  x,y,z
_cell_length_a	21.295419
_cell_length_b	21.295416
_cell_length_c	16.959447
_cell_angle_alpha	90.029154
_cell_angle_beta	89.981387
_cell_angle_gamma	89.954868
loop_
_atom_site_label
_atom_site_type_symbol
_atom_site_fract_x
_atom_site_fract_y
_atom_site_fract_z
Zn1	Zn	0.962320	0.250370	-0.446919
Zn2	Zn	1.295653	0.583704	-0.113586
Zn3	Zn	1.628986	0.917037	0.219747
Zn4	Zn	0.962233	0.355641	-0.314735
Zn5	Zn	1.295566	0.688974	0.018598
Zn6	Zn	1.628900	1.022307	0.351931
Zn7	Zn	0.857054	0.250416	-0.314754
Zn8	Zn	1.190387	0.583750	0.018579
Zn9	Zn	1.523720	0.917083	0.351912
Zn10	Zn	0.857012	0.355633	-0.446871
Zn11	Zn	1.190346	0.688966	-0.113538
Zn12	Zn	1.523679	1.022299	0.219795
O13	O	0.909655	0.303015	-0.380820
O14	O	1.242988	0.636348	-0.047487
O15	O	1.576321	0.969682	0.285847
O16	O	1.050397	0.264319	-0.429397
O17	O	1.383731	0.597652	-0.096064
O18	O	1.717064	0.930985	0.237270
O19	O	0.948262	0.341705	-0.204127
O20	O	1.281595	0.675038	0.129207
O21	O	1.614929	1.008371	0.462540
O22	O	0.871071	0.162321	-0.332314
O23	O	1.204404	0.495654	0.001019
O24	O	1.537737	0.828987	0.334352
O25	O	1.050334	0.341660	-0.332282
O26	O	1.383667	0.674994	0.001051
O27	O	1.717001	1.008327	0.334385
O28	O	0.948409	0.162287	-0.429415
O29	O	1.281742	0.495620	-0.096082
O30	O	1.615076	0.828954	0.237251
O31	O	0.870987	0.264397	-0.204141
O32	O	1.204320	0.597730	0.129193
O33	O	1.537654	0.931064	0.462526
O34	O	0.768959	0.264390	-0.332268
O35	O	1.102292	0.597723	0.001066
O36	O	1.435625	0.931056	0.334399
O37	O	0.871001	0.341647	-0.557489
O38	O	1.204334	0.674980	-0.224155
O39	O	1.537667	1.008314	0.109178
O40	O	0.768929	0.341692	-0.429333
O41	O	1.102262	0.675025	-0.096000
O42	O	1.435595	1.008358	0.237333
O43	O	0.948369	0.264311	-0.557524
O44	O	1.281703	0.597644	-0.224191
O45	O	1.615036	0.930978	0.109143
O46	O	0.948222	0.443729	-0.332235
O47	O	1.281555	0.777062	0.001098
O48	O	1.614889	1.110396	0.334431
O49	O	0.870917	0.443723	-0.429315
O50	O	1.204250	0.777057	-0.095982
O51	O	1.537583	1.110390	0.237352
C52	C	0.746103	0.303045	-0.380798
C53	C	1.079436	0.636379	-0.047464
C54	C	1.412770	0.969712	0.285869
C55	C	0.676135	0.303073	-0.380807
C56	C	1.009468	0.636407	-0.047474
C57	C	1.342802	0.969740	0.285860
C58	C	0.643324	0.262867	-0.431453
C59	C	0.976657	0.596201	-0.098120
C60	C	1.309990	0.929534	0.235214
C61	C	0.577581	0.262850	-0.431456
C62	C	0.910915	0.596184	-0.098123
C63	C	1.244248	0.929517	0.235211
C64	C	0.544652	0.303051	-0.380821
C65	C	0.877986	0.636384	-0.047488
C66	C	1.211319	0.969717	0.285845
C67	C	0.577472	0.343259	-0.330166
C68	C	0.910805	0.676593	0.003168
C69	C	1.244138	1.009926	0.336501
C70	C	0.643213	0.343271	-0.330158
C71	C	0.976546	0.676604	0.003175
C72	C	1.309879	1.009937	0.336508
N73	N	0.441378	0.358129	-0.374647
N74	N	0.774711	0.691462	-0.041314
N75	N	1.108044	1.024796	0.292020
N76	N	0.378926	0.358116	-0.374658
N77	N	0.712260	0.691450	-0.041325
N78	N	1.045593	1.024783	0.292008
C79	C	0.346578	0.303018	-0.380839
C80	C	0.679911	0.636351	-0.047506
C81	C	1.013244	0.969685	0.285828
N82	N	0.379040	0.247932	-0.387023
N83	N	0.712373	0.581265	-0.053690
N84	N	1.045707	0.914598	0.279644
N85	N	0.441497	0.247945	-0.387016
N86	N	0.774830	0.581278	-0.053682
N87	N	1.108164	0.914612	0.279651
C88	C	0.473367	0.303043	-0.380823
C89	C	0.806700	0.636376	-0.047490
C90	C	1.140034	0.969709	0.285843
C91	C	0.242481	0.262790	-0.431491
C92	C	0.575814	0.596124	-0.098158
C93	C	0.909148	0.929457	0.235176
C94	C	0.176737	0.262772	-0.431488
C95	C	0.510071	0.596106	-0.098155
C96	C	0.843404	0.929439	0.235178
C97	C	0.176629	0.343187	-0.330202
C98	C	0.509962	0.676520	0.003131
C99	C	0.843296	1.009854	0.336465
C100	C	0.242371	0.343199	-0.330200
C101	C	0.575705	0.676533	0.003133
C102	C	0.909038	1.009866	0.336466
C103	C	0.275293	0.303002	-0.380849
C104	C	0.608627	0.636335	-0.047516
C105	C	0.941960	0.969669	0.285818
C106	C	0.909573	0.466567	-0.380785
C107	C	1.242906	0.799900	-0.047452
C108	C	1.576239	1.133233	0.285882
C109	C	0.909595	0.536535	-0.380797
C110	C	1.242928	0.869868	-0.047463
C111	C	1.576262	1.203201	0.285870
C112	C	0.949884	0.569383	-0.330301
C113	C	1.283217	0.902717	0.003033
C114	C	1.616551	1.236050	0.336366
C115	C	0.949914	0.635126	-0.330322
C116	C	1.283247	0.968459	0.003011
C117	C	1.616580	1.301793	0.336345
C118	C	0.909643	0.668017	-0.380831
C119	C	1.242977	1.001351	-0.047498
C120	C	1.576310	1.334684	0.285836
C121	C	0.869352	0.635161	-0.431337
C122	C	1.202685	0.968494	-0.098003
C123	C	1.536018	1.301827	0.235330
C124	C	0.869328	0.569419	-0.431319
C125	C	1.202661	0.902753	-0.097986
C126	C	1.535994	1.236086	0.235347
N127	N	0.854576	0.771297	-0.386855
N128	N	1.187909	1.104631	-0.053522
N129	N	1.521243	1.437964	0.279812
N130	N	0.854601	0.833749	-0.386867
N131	N	1.187934	1.167082	-0.053533
N132	N	1.521267	1.500415	0.279800
C133	C	0.909714	0.866092	-0.380887
C134	C	1.243048	1.199425	-0.047554
C135	C	1.576381	1.532759	0.285780
N136	N	0.964804	0.833624	-0.374880
N137	N	1.298137	1.166958	-0.041546
N138	N	1.631470	1.500291	0.291787
N139	N	0.964778	0.771167	-0.374864
N140	N	1.298112	1.104501	-0.041531
N141	N	1.631445	1.437834	0.291803
C142	C	0.909665	0.739303	-0.380856
C143	C	1.242999	1.072636	-0.047522
C144	C	1.576332	1.405969	0.285811
C145	C	0.950039	0.970226	-0.330412
C146	C	1.283372	1.303559	0.002922
C147	C	1.616705	1.636893	0.336255
C148	C	0.950069	1.035970	-0.330439
C149	C	1.283403	1.369303	0.002895
C150	C	1.616736	1.702636	0.336228
C151	C	0.869502	1.036003	-0.431449
C152	C	1.202836	1.369337	-0.098116
C153	C	1.536169	1.702670	0.235218
C154	C	0.869477	0.970261	-0.431426
C155	C	1.202810	1.303594	-0.098093
C156	C	1.536144	1.636927	0.235241
C157	C	0.909744	0.937376	-0.380903
C158	C	1.243078	1.270709	-0.047570
C159	C	1.576411	1.604043	0.285763
C160	C	1.073845	0.302985	-0.380843
C161	C	1.407178	0.636318	-0.047509
C162	C	1.740512	0.969652	0.285824
C163	C	1.143813	0.302972	-0.380852
C164	C	1.477146	0.636306	-0.047519
C165	C	1.810480	0.969639	0.285814
C166	C	0.909690	0.302973	-0.586988
C167	C	1.243023	0.636306	-0.253655
C168	C	1.576357	0.969640	0.079678
C169	C	0.909705	0.302955	-0.674845
C170	C	1.243038	0.636289	-0.341512
C171	C	1.576372	0.969622	-0.008178
C172	C	0.909755	1.138825	-0.380886
C173	C	1.243088	1.472158	-0.047553
C174	C	1.576422	1.805491	0.285781
C175	C	0.909800	1.068857	-0.380949
C176	C	1.243133	1.402190	-0.047615
C177	C	1.576466	1.735523	0.285718
C178	C	0.869431	0.343213	-0.716102
C179	C	1.202764	0.676546	-0.382769
C180	C	1.536097	1.009879	-0.049435
C181	C	0.949990	0.262677	-0.716141
C182	C	1.283323	0.596010	-0.382808
C183	C	1.616657	0.929344	-0.049475
C184	C	0.950003	0.262656	-0.798687
C185	C	1.283336	0.595990	-0.465354
C186	C	1.616670	0.929323	-0.132021
C187	C	0.909729	0.302914	-0.839944
C188	C	1.243062	0.636247	-0.506611
C189	C	1.576395	0.969581	-0.173278
C190	C	0.869441	0.343192	-0.798656
C191	C	1.202774	0.676525	-0.465322
C192	C	1.536108	1.009859	-0.131989
C193	C	0.990285	0.222374	-0.839982
C194	C	1.323619	0.555708	-0.506649
C195	C	1.656952	0.889041	-0.173316
C196	C	0.990300	0.222352	-0.922533
C197	C	1.323633	0.555685	-0.589200
C198	C	1.656966	0.889018	-0.255867
C199	C	0.950028	0.262613	-0.963792
C200	C	1.283361	0.595946	-0.630459
C201	C	1.616694	0.929280	-0.297125
C202	C	0.909739	0.302893	-0.922498
C203	C	1.243072	0.636227	-0.589165
C204	C	1.576406	0.969560	-0.255831
C205	C	0.869465	0.343151	-0.963755
C206	C	1.202798	0.676484	-0.630422
C207	C	1.536131	1.009817	-0.297089
C208	C	0.829179	0.383435	-0.922463
C209	C	1.162512	0.716768	-0.589129
C210	C	1.495845	1.050101	-0.255796
C211	C	0.829169	0.383453	-0.839914
C212	C	1.162503	0.716787	-0.506581
C213	C	1.495836	1.050120	-0.173248
C214	C	0.950037	0.262594	-1.046340
C215	C	1.283370	0.595928	-0.713007
C216	C	1.616704	0.929261	-0.379674
C217	C	0.869475	0.343130	-1.046309
C218	C	1.202809	0.676463	-0.712975
C219	C	1.536142	1.009797	-0.379642
C220	C	0.909656	0.303011	-0.175454
C221	C	1.242989	0.636345	0.157880
C222	C	1.576322	0.969678	0.491213
C223	C	0.909763	0.302852	-0.087598
C224	C	1.243096	0.636185	0.245736
C225	C	1.576429	0.969518	0.579069
H226	H	0.269288	0.230055	-0.472727
H227	H	0.602621	0.563389	-0.139394
H228	H	0.935954	0.896722	0.193940
O229	O	0.993531	1.071397	-0.275972
O230	O	1.326864	1.404730	0.057362
O231	O	1.660198	1.738064	0.390695
H232	H	1.025560	1.101283	-0.311394
H233	H	1.358893	1.434616	0.021939
H234	H	1.692227	1.767950	0.355272
H235	H	0.982673	0.542611	-0.289164
H236	H	1.316007	0.875944	0.044169
H237	H	1.649340	1.209277	0.377503
O238	O	0.993484	0.219153	-1.090880
O239	O	1.326817	0.552487	-0.757547
O240	O	1.660150	0.885820	-0.424214
H241	H	1.021488	0.191165	-1.048323
H242	H	1.354821	0.524498	-0.714990
H243	H	1.688155	0.857831	-0.381657
O244	O	1.033749	0.178909	-0.967073
O245	O	1.367082	0.512243	-0.633740
O246	O	1.700416	0.845576	-0.300406
H247	H	1.083146	0.189701	-0.951241
H248	H	1.416479	0.523034	-0.617907
H249	H	1.749813	0.856368	-0.284574
O250	O	0.678834	0.219502	-0.486064
O251	O	1.012168	0.552835	-0.152730
O252	O	1.345501	0.886169	0.180603
H253	H	0.644969	0.191535	-0.521274
H254	H	0.978303	0.524868	-0.187941
H255	H	1.311636	0.858202	0.145392
H256	H	0.550657	0.375990	-0.288938
H257	H	0.883990	0.709324	0.044395
H258	H	1.217323	1.042657	0.377729
H259	H	0.150024	0.230028	-0.472729
H260	H	0.483357	0.563362	-0.139396
H261	H	0.816690	0.896695	0.193937
H262	H	0.669927	0.376012	-0.288915
H263	H	1.003261	0.709346	0.044418
H264	H	1.336594	1.042679	0.377752
H265	H	0.149819	0.375919	-0.288974
H266	H	0.483152	0.709252	0.044359
H267	H	0.816486	1.042586	0.377692
H268	H	0.836668	0.943514	-0.472541
H269	H	1.170001	1.276847	-0.139208
H270	H	1.503334	1.610180	0.194125
H271	H	0.269086	0.375942	-0.288962
H272	H	0.602420	0.709275	0.044371
H273	H	0.935753	1.042609	0.377704
H274	H	0.982777	0.229898	-0.682545
H275	H	1.316110	0.563232	-0.349212
H276	H	1.649443	0.896565	-0.015878
H277	H	0.982724	0.661877	-0.289202
H278	H	1.316057	0.995210	0.044131
H279	H	1.649390	1.328543	0.377464
O280	O	0.826063	1.071468	-0.485926
O281	O	1.159396	1.404801	-0.152592
O282	O	1.492729	1.738135	0.180741
H283	H	0.832844	1.122701	-0.477451
H284	H	1.166177	1.456035	-0.144118
H285	H	1.499511	1.789368	0.189215
O286	O	0.993485	0.934748	-0.275948
O287	O	1.326818	1.268081	0.057385
O288	O	1.660151	1.601414	0.390718
H289	H	0.965328	0.904850	-0.235683
H290	H	1.298662	1.238183	0.097650
H291	H	1.631995	1.571517	0.430983
H292	H	0.836565	0.661945	-0.472463
H293	H	1.169898	0.995278	-0.139129
H294	H	1.503231	1.328612	0.194204
O295	O	0.826033	0.386548	-1.090808
O296	O	1.159366	0.719881	-0.757475
O297	O	1.492699	1.053215	-0.424141
H298	H	0.798016	0.414556	-1.048225
H299	H	1.131350	0.747890	-0.714891
H300	H	1.464683	1.081223	-0.381558
H301	H	0.796384	0.416209	-0.956065
H302	H	1.129717	0.749542	-0.622732
H303	H	1.463050	1.082875	-0.289398
O304	O	0.825858	0.533990	-0.485774
O305	O	1.159192	0.867323	-0.152441
O306	O	1.492525	1.200656	0.180893
H307	H	0.836621	0.546559	-0.547829
H308	H	1.169954	0.879893	-0.214495
H309	H	1.503288	1.213226	0.118838
O310	O	0.542179	0.219489	-0.486089
O311	O	0.875513	0.552822	-0.152755
O312	O	1.208846	0.886156	0.180578
H313	H	0.576117	0.191543	-0.521310
H314	H	0.909450	0.524876	-0.187976
H315	H	1.242784	0.858209	0.145357
H316	H	0.796370	0.416250	-0.806287
H317	H	1.129703	0.749583	-0.472953
H318	H	1.463037	1.082916	-0.139620
O319	O	0.825976	0.386658	-0.671574
O320	O	1.159310	0.719991	-0.338241
O321	O	1.492643	1.053325	-0.004908
H322	H	0.832730	0.379909	-0.607241
H323	H	1.166063	0.713243	-0.273908
H324	H	1.499396	1.046576	0.059426
H325	H	1.023072	0.189597	-0.806385
H326	H	1.356406	0.522930	-0.473051
H327	H	1.689739	0.856264	-0.139718
