data_functionalizedCrystal
_audit_creation_method	'MofGen! by Chris Wilmer'
_symmetry_space_group_name_H-M	'P1'
_symmetry_Int_Tables_number	1
_symmetry_cell_setting	triclinic
loop_
_symmetry_equiv_pos_as_xyz
  x,y,z
_cell_length_a	19.805406
_cell_length_b	19.805407
_cell_length_c	19.805398
_cell_angle_alpha	89.979507
_cell_angle_beta	90.015373
_cell_angle_gamma	90.000119
loop_
_atom_site_label
_atom_site_type_symbol
_atom_site_fract_x
_atom_site_fract_y
_atom_site_fract_z
Zn1	Zn	0.269503	1.034832	-0.382853
Zn2	Zn	0.769503	1.534832	0.117147
Zn3	Zn	0.382689	1.034805	-0.269685
Zn4	Zn	0.882689	1.534805	0.230315
Zn5	Zn	0.269517	0.921654	-0.269668
Zn6	Zn	0.769517	1.421654	0.230332
Zn7	Zn	0.382654	0.921661	-0.382823
Zn8	Zn	0.882654	1.421661	0.117177
O9	O	0.326091	0.978238	-0.326257
O10	O	0.826091	1.478238	0.173743
O11	O	0.284526	1.129545	-0.367861
O12	O	0.784526	1.629545	0.132139
O13	O	0.367696	1.019781	-0.174967
O14	O	0.867696	1.519781	0.325033
O15	O	0.174799	0.936676	-0.284688
O16	O	0.674799	1.436676	0.215312
O17	O	0.367683	1.129525	-0.284717
O18	O	0.867683	1.629525	0.215283
O19	O	0.174789	1.019827	-0.367844
O20	O	0.674789	1.519827	0.132156
O21	O	0.284550	0.936650	-0.174954
O22	O	0.784550	1.436650	0.325046
O23	O	0.284517	0.826939	-0.284659
O24	O	0.784517	1.326939	0.215341
O25	O	0.367625	0.936688	-0.477544
O26	O	0.867625	1.436688	0.022456
O27	O	0.367638	0.826944	-0.367793
O28	O	0.867638	1.326944	0.132207
O29	O	0.284493	1.019834	-0.477565
O30	O	0.784493	1.519834	0.022435
O31	O	0.477401	1.019788	-0.284688
O32	O	0.977401	1.519788	0.215312
O33	O	0.477375	0.936662	-0.367810
O34	O	0.977375	1.436662	0.132190
C35	C	0.326076	0.802382	-0.326221
C36	C	0.826076	1.302382	0.173779
C37	C	0.326085	0.727150	-0.326222
C38	C	0.826085	1.227150	0.173778
C39	C	0.369454	0.265380	-0.369521
C40	C	0.869454	0.765380	0.130479
C41	C	0.369452	0.336068	-0.369506
C42	C	0.869452	0.836068	0.130494
C43	C	0.326107	0.371388	-0.326284
C44	C	0.826107	0.871388	0.173716
C45	C	0.282765	0.336017	-0.283068
C46	C	0.782765	0.836017	0.216932
C47	C	0.282770	0.265330	-0.283079
C48	C	0.782770	0.765330	0.216921
C49	C	0.282745	0.621090	-0.283020
C50	C	0.782745	1.121090	0.216980
C51	C	0.282741	0.691782	-0.283014
C52	C	0.782741	1.191782	0.216986
C53	C	0.369427	0.691829	-0.369447
C54	C	0.869427	1.191829	0.130553
C55	C	0.369432	0.621141	-0.369459
C56	C	0.869432	1.121141	0.130541
C57	C	0.326093	0.585776	-0.326241
C58	C	0.826093	1.085776	0.173759
C59	C	0.326095	0.509127	-0.326256
C60	C	0.826095	1.009127	0.173744
C61	C	0.326101	0.448036	-0.326272
C62	C	0.826101	0.948036	0.173728
C63	C	0.149548	0.978254	-0.326267
C64	C	0.649548	1.478254	0.173733
C65	C	0.074316	0.978260	-0.326271
C66	C	0.574316	1.478260	0.173729
C67	C	0.038961	0.934983	-0.369548
C68	C	0.538961	1.434983	0.130452
C69	C	-0.031728	0.934991	-0.369553
C70	C	0.468272	1.434991	0.130447
C71	C	-0.067059	0.978274	-0.326278
C72	C	0.432941	1.478274	0.173722
C73	C	-0.031699	1.021556	-0.282999
C74	C	0.468301	1.521556	0.217001
C75	C	0.038988	1.021551	-0.282998
C76	C	0.538988	1.521551	0.217002
C77	C	-0.316772	1.021578	-0.283004
C78	C	0.183228	1.521578	0.216996
C79	C	-0.387464	1.021579	-0.283007
C80	C	0.112536	1.521579	0.216993
C81	C	-0.387488	0.935019	-0.369558
C82	C	0.112512	1.435019	0.130442
C83	C	-0.316801	0.935014	-0.369557
C84	C	0.183199	1.435014	0.130443
C85	C	-0.281447	0.978298	-0.326282
C86	C	0.218553	1.478298	0.173718
C87	C	-0.204798	0.978290	-0.326278
C88	C	0.295202	1.478290	0.173722
C89	C	-0.143706	0.978279	-0.326278
C90	C	0.356294	1.478279	0.173722
C91	C	0.501947	0.978241	-0.326262
C92	C	1.001947	1.478241	0.173738
C93	C	0.577179	0.978304	-0.326287
C94	C	1.077179	1.478304	0.173713
C95	C	0.326053	0.978265	-0.502800
C96	C	0.826053	1.478265	-0.002800
C97	C	0.326037	0.978276	-0.578032
C98	C	0.826037	1.478276	-0.078032
C99	C	0.326107	1.154781	-0.326294
C100	C	0.826107	1.654781	0.173706
C101	C	0.326113	1.230013	-0.326310
C102	C	0.826113	1.730013	0.173690
C103	C	0.282631	1.021652	-1.039836
C104	C	0.782631	1.521652	-0.539836
C105	C	0.282652	1.021641	-0.969147
C106	C	0.782652	1.521641	-0.469147
C107	C	0.325943	0.978345	-0.933794
C108	C	0.825943	1.478345	-0.433794
C109	C	0.369222	0.935062	-0.969133
C110	C	0.869222	1.435062	-0.469133
C111	C	0.369204	0.935077	-1.039820
C112	C	0.869204	1.435077	-0.539820
C113	C	0.369295	0.935003	-0.684059
C114	C	0.869295	1.435003	-0.184059
C115	C	0.369308	0.934991	-0.613367
C116	C	0.869308	1.434991	-0.113367
C117	C	0.282743	1.021568	-0.613387
C118	C	0.782743	1.521568	-0.113387
C119	C	0.282725	1.021582	-0.684074
C120	C	0.782725	1.521582	-0.184074
C121	C	0.326006	0.978302	-0.719407
C122	C	0.826006	1.478302	-0.219407
C123	C	0.325984	0.978315	-0.796055
C124	C	0.825984	1.478315	-0.296055
C125	C	0.325962	0.978329	-0.857147
C126	C	0.825962	1.478329	-0.357147
C127	C	0.326079	0.978251	-0.150401
C128	C	0.826079	1.478251	0.349599
C129	C	0.325905	0.978371	-0.075170
C130	C	0.825905	1.478371	0.424830
H131	H	0.404725	0.592387	-0.404658
H132	H	0.904725	1.092387	0.095342
H133	H	-0.416281	0.899776	-0.404798
H134	H	0.083719	1.399776	0.095202
O135	O	0.240737	1.063710	-0.579137
O136	O	0.740737	1.563710	-0.079137
C137	C	0.255537	1.131173	-0.596409
C138	C	0.755537	1.631173	-0.096409
H139	H	0.281543	1.132585	-0.647733
H140	H	0.781543	1.632585	-0.147733
H141	H	0.206688	1.161524	-0.598834
H142	H	0.706688	1.661524	-0.098834
H143	H	0.290346	1.153963	-0.556629
H144	H	0.790346	1.653963	-0.056629
O145	O	0.240578	0.586847	-0.241023
O146	O	0.740578	1.086847	0.258977
C147	C	0.202331	0.633182	-0.202864
C148	C	0.702331	1.133182	0.297136
H149	H	0.200024	0.683583	-0.230587
H150	H	0.700024	1.183583	0.269413
H151	H	0.148993	0.612753	-0.195734
H152	H	0.648993	1.112753	0.304266
H153	H	0.227047	0.640677	-0.151418
H154	H	0.727047	1.140677	0.348582
O155	O	-0.421682	1.063693	-0.240948
O156	O	0.078318	1.563693	0.259052
C157	C	-0.375321	1.101885	-0.202740
C158	C	0.124679	1.601885	0.297260
H159	H	-0.324939	1.104231	-0.230462
H160	H	0.175061	1.604231	0.269538
H161	H	-0.395744	1.155212	-0.195536
H162	H	0.104256	1.655212	0.304464
H163	H	-0.367791	1.077095	-0.151327
H164	H	0.132209	1.577095	0.348673
O165	O	0.411524	0.231145	-0.411604
O166	O	0.911524	0.731145	0.088396
C167	C	0.396807	0.248441	-0.479084
C168	C	0.896807	0.748441	0.020916
H169	H	0.370788	0.299764	-0.480519
H170	H	0.870788	0.799764	0.019481
H171	H	0.445695	0.250877	-0.509358
H172	H	0.945695	0.750877	-0.009358
H173	H	0.362039	0.208668	-0.501943
H174	H	0.862039	0.708668	-0.001943
O175	O	0.411212	0.893026	-0.934688
O176	O	0.911212	1.393026	-0.434688
C177	C	0.401960	0.902303	-0.864721
C178	C	0.901960	1.402303	-0.364721
H179	H	0.349730	0.924473	-0.855071
H180	H	0.849730	1.424473	-0.355071
H181	H	0.406553	0.851598	-0.837849
H182	H	0.906553	1.351598	-0.337849
H183	H	0.442116	0.938340	-0.844664
H184	H	0.942116	1.438340	-0.344664
O185	O	0.411217	0.893096	-1.074250
O186	O	0.911217	1.393096	-0.574250
C187	C	0.401909	0.902382	-1.144221
C188	C	0.901909	1.402382	-0.644221
H189	H	0.379741	0.954620	-1.153883
H190	H	0.879741	1.454620	-0.653883
H191	H	0.452601	0.897795	-1.171083
H192	H	0.952601	1.397795	-0.671083
H193	H	0.365858	0.862240	-1.164277
H194	H	0.865858	1.362240	-0.664277
O195	O	0.411439	0.726258	-0.411460
O196	O	0.911439	1.226258	0.088540
C197	C	0.372958	0.767155	-0.455241
C198	C	0.872958	1.267155	0.044759
H199	H	0.321634	0.777732	-0.431447
H200	H	0.821634	1.277732	0.068553
H201	H	0.400539	0.816868	-0.464262
H202	H	0.900539	1.316868	0.035738
H203	H	0.365586	0.739938	-0.505416
H204	H	0.865586	1.239938	-0.005416
O205	O	-0.282459	1.063787	-0.241114
O206	O	0.217541	1.563787	0.258886
C207	C	-0.241642	1.107494	-0.279741
C208	C	0.258358	1.607494	0.220259
H209	H	-0.262956	1.111532	-0.333063
H210	H	0.237044	1.611532	0.166937
H211	H	-0.240936	1.159632	-0.255380
H212	H	0.259064	1.659632	0.244620
H213	H	-0.188031	1.086663	-0.282014
H214	H	0.311969	1.586663	0.217986
H215	H	0.247470	1.056836	-0.712855
H216	H	0.747470	1.556836	-0.212855
O217	O	0.411401	0.893030	-0.578948
O218	O	0.911401	1.393030	-0.078948
C219	C	0.455133	0.931564	-0.538076
C220	C	0.955133	1.431564	-0.038076
H221	H	0.431260	0.982855	-0.527501
H222	H	0.931260	1.482855	-0.027501
H223	H	0.464212	0.903988	-0.488361
H224	H	0.964212	1.403988	0.011639
H225	H	0.505288	0.939006	-0.565313
H226	H	1.005288	1.439006	-0.065313
O227	O	-0.282376	0.892993	-0.411533
O228	O	0.217624	1.392993	0.088467
C229	C	-0.212404	0.902282	-0.402265
C230	C	0.287596	1.402282	0.097735
H231	H	-0.202735	0.924437	-0.350033
H232	H	0.297265	1.424437	0.149967
H233	H	-0.185541	0.851584	-0.406850
H234	H	0.314459	1.351584	0.093150
H235	H	-0.192354	0.938335	-0.442417
H236	H	0.307646	1.438335	0.057583
O237	O	-0.066050	1.063503	-0.240890
O238	O	0.433950	1.563503	0.259110
C239	C	-0.106941	1.024963	-0.197177
C240	C	0.393059	1.524963	0.302823
H241	H	-0.085639	0.971653	-0.192985
H242	H	0.414361	1.471653	0.307015
H243	H	-0.107729	1.049435	-0.145093
H244	H	0.392271	1.549435	0.354907
H245	H	-0.160518	1.022636	-0.218105
H246	H	0.339482	1.522636	0.281895
H247	H	0.247442	0.720538	-0.247815
H248	H	0.747442	1.220538	0.252185
O249	O	0.411431	0.892991	-0.718294
O250	O	0.911431	1.392991	-0.218294
C251	C	0.478892	0.907790	-0.701022
C252	C	0.978892	1.407790	-0.201022
H253	H	0.480298	0.933806	-0.649706
H254	H	0.980298	1.433806	-0.149706
H255	H	0.509240	0.858939	-0.698582
H256	H	1.009240	1.358939	-0.198582
H257	H	0.501690	0.942590	-0.740811
H258	H	1.001690	1.442590	-0.240811
O259	O	0.411455	0.370495	-0.411521
O260	O	0.911455	0.870495	0.088479
C261	C	0.372971	0.411390	-0.455301
C262	C	0.872971	0.911390	0.044699
H263	H	0.321649	0.421968	-0.431503
H264	H	0.821649	0.921968	0.068497
H265	H	0.400551	0.461101	-0.464328
H266	H	0.900551	0.961101	0.035672
H267	H	0.365594	0.384170	-0.505474
H268	H	0.865594	0.884170	-0.005474
O269	O	0.073309	0.892866	-0.411490
O270	O	0.573309	1.392866	0.088510
C271	C	0.114217	0.849149	-0.372949
C272	C	0.614217	1.349149	0.127051
H273	H	0.092930	0.844960	-0.319639
H274	H	0.592930	1.344960	0.180361
H275	H	0.115008	0.797065	-0.397420
H276	H	0.615008	1.297065	0.102580
H277	H	0.167792	0.870072	-0.370622
H278	H	0.667792	1.370072	0.129378
H279	H	0.247477	0.236535	-0.247894
H280	H	0.747477	0.736535	0.252106
O281	O	0.240681	0.370429	-0.241144
O282	O	0.740681	0.870429	0.258856
C283	C	0.249979	0.440404	-0.250389
C284	C	0.749979	0.940404	0.249611
H285	H	0.272216	0.450087	-0.302586
H286	H	0.772216	0.950087	0.197414
H287	H	0.199272	0.467262	-0.245875
H288	H	0.699272	0.967262	0.254125
H289	H	0.285968	0.460447	-0.210180
H290	H	0.785968	0.960447	0.289820
H291	H	0.247416	1.056887	-0.940382
H292	H	0.747416	1.556887	-0.440382
O293	O	0.073230	1.063611	-0.240895
O294	O	0.573230	1.563611	0.259105
C295	C	0.026889	1.101826	-0.202710
C296	C	0.526889	1.601826	0.297290
H297	H	-0.023500	1.074105	-0.200359
H298	H	0.476500	1.574105	0.299641
H299	H	0.047328	1.109039	-0.149384
H300	H	0.547328	1.609039	0.350616
H301	H	0.019368	1.153235	-0.227509
H302	H	0.519368	1.653235	0.272491
H303	H	-0.060514	0.899752	-0.404792
H304	H	0.439486	1.399752	0.095208
O305	O	0.240555	1.063773	-1.074071
O306	O	0.740555	1.563773	-0.574071
C307	C	0.202354	1.101960	-1.027722
C308	C	0.702354	1.601960	-0.527722
H309	H	0.230091	1.104290	-0.977334
H310	H	0.730091	1.604290	-0.477334
H311	H	0.195133	1.155294	-1.048153
H312	H	0.695133	1.655294	-0.548153
H313	H	0.150948	1.077177	-1.020200
H314	H	0.650948	1.577177	-0.520200
