data_functionalizedCrystal
_audit_creation_method	'MofGen! by Chris Wilmer'
_symmetry_space_group_name_H-M	'P1'
_symmetry_Int_Tables_number	1
_symmetry_cell_setting	triclinic
loop_
_symmetry_equiv_pos_as_xyz
  x,y,z
_cell_length_a	11.026607
_cell_length_b	10.868271
_cell_length_c	11.026607
_cell_angle_alpha	89.997918
_cell_angle_beta	71.413983
_cell_angle_gamma	90.003487
loop_
_atom_site_label
_atom_site_type_symbol
_atom_site_fract_x
_atom_site_fract_y
_atom_site_fract_z
O1	O	1.726733	0.102311	-0.533624
O2	O	2.226733	0.602311	-0.033624
O3	O	1.360153	0.102314	-0.472861
O4	O	1.860153	0.602314	0.027139
O5	O	1.513061	0.102311	-0.319952
O6	O	2.013061	0.602311	0.180048
O7	O	1.573825	0.102314	-0.686532
O8	O	2.073825	0.602314	-0.186532
O9	O	1.513044	-0.102334	-0.319941
O10	O	2.013044	0.397666	0.180059
O11	O	1.360135	-0.102331	-0.472850
O12	O	1.860135	0.397669	0.027150
O13	O	1.726715	-0.102334	-0.533613
O14	O	2.226715	0.397666	-0.033613
Zn15	Zn	1.543423	-0.134824	-0.503230
Zn16	Zn	2.043423	0.365176	-0.003230
Zn17	Zn	1.543446	0.134804	-0.503244
Zn18	Zn	2.043446	0.634804	-0.003244
O19	O	1.573807	-0.102331	-0.686521
O20	O	2.073807	0.397669	-0.186521
C21	C	1.312485	-0.000008	-0.461645
C22	C	1.812485	0.499992	0.038355
C23	C	1.170471	-0.000007	-0.428228
C24	C	1.670471	0.499993	0.071772
C25	C	1.116821	-0.000005	-0.520498
C26	C	1.616821	0.499995	-0.020498
C27	C	0.970043	-0.000004	-0.485962
C28	C	1.470043	0.499996	0.014038
N29	N	1.543416	-0.318838	-0.503221
N30	N	2.043416	0.181162	-0.003221
C31	C	1.543439	-0.569844	-0.503240
C32	C	2.043439	-0.069844	-0.003240
C33	C	1.543423	-0.430167	-0.503232
C34	C	2.043423	0.069833	-0.003232
C35	C	1.774384	-0.000009	-0.544828
C36	C	2.274384	0.499991	-0.044828
C37	C	1.916398	-0.000002	-0.578245
C38	C	2.416398	0.499998	-0.078245
N39	N	1.543461	0.318818	-0.503245
N40	N	2.043461	0.818818	-0.003245
C41	C	1.585026	-0.000008	-0.734187
C42	C	2.085026	0.499992	-0.234187
C43	C	1.618443	-0.000007	-0.876200
C44	C	2.118443	0.499993	-0.376200
C45	C	1.526173	-0.000005	-0.929850
C46	C	2.026173	0.499995	-0.429850
C47	C	1.560709	-0.000004	-1.076628
C48	C	2.060709	0.499996	-0.576628
C49	C	1.501843	-0.000009	-0.272287
C50	C	2.001843	0.499991	0.227713
C51	C	1.468426	-0.000002	-0.130273
C52	C	1.968426	0.499998	0.369727
H53	H	0.907314	0.000027	-0.381393
H54	H	1.407314	0.500027	0.118607
N55	N	0.999462	-0.000003	-0.716767
N56	N	1.499462	0.499997	-0.216767
H57	H	1.055271	-0.075865	-0.734755
H58	H	1.555271	0.424135	-0.234755
H59	H	1.055204	0.075909	-0.734672
H60	H	1.555204	0.575909	-0.234672
N61	N	1.087390	-0.000023	-0.289718
N62	N	1.587390	0.499977	0.210282
H63	H	0.994312	-0.000025	-0.284681
H64	H	1.494312	0.499975	0.215319
H65	H	1.106206	0.075839	-0.245914
H66	H	1.606206	0.575839	0.254086
H67	H	1.421610	0.000002	-0.867117
H68	H	1.921610	0.500002	-0.367117
N69	N	1.699226	-0.000005	-1.159705
N70	N	2.199226	0.499995	-0.659705
H71	H	1.704263	-0.000006	-1.252783
H72	H	2.204263	0.499994	-0.752783
H73	H	1.743015	-0.075873	-1.140884
H74	H	2.243015	0.424127	-0.640884
H75	H	1.363855	0.000004	-1.067546
H76	H	1.863855	0.500004	-0.567546
H77	H	1.723006	0.000037	-0.938934
H78	H	2.223006	0.500037	-0.438934
H79	H	1.179555	-0.000011	-0.625061
H80	H	1.679555	0.499989	-0.125061
