data_functionalizedCrystal
_audit_creation_method	'MofGen! by Chris Wilmer'
_symmetry_space_group_name_H-M	'P1'
_symmetry_Int_Tables_number	1
_symmetry_cell_setting	triclinic
loop_
_symmetry_equiv_pos_as_xyz
  x,y,z
_cell_length_a	22.010155
_cell_length_b	8.559649
_cell_length_c	8.559649
_cell_angle_alpha	69.778664
_cell_angle_beta	90.005257
_cell_angle_gamma	89.992933
loop_
_atom_site_label
_atom_site_type_symbol
_atom_site_fract_x
_atom_site_fract_y
_atom_site_fract_z
O1	O	0.050516	-2.126896	0.055059
O2	O	0.050518	-1.651411	-0.028722
O3	O	0.050516	-1.931044	0.250911
O4	O	0.050518	-1.847263	-0.224574
O5	O	-0.050534	-1.930994	0.250868
O6	O	-0.050532	-1.651361	-0.028765
O7	O	-0.050535	-2.126846	0.055016
Cu8	Cu	-0.059760	-1.889099	0.013122
Cu9	Cu	0.059743	-1.889158	0.013172
O10	O	-0.050533	-1.847213	-0.224617
C11	C	-0.000007	-1.591077	-0.035093
C12	C	-0.000006	-1.411378	-0.053992
N13	N	-0.143813	-1.889070	0.013088
C14	C	-0.000008	-1.937369	0.311198
C15	C	-0.000005	-1.956268	0.490898
C16	C	-0.563593	-2.012984	0.136979
C17	C	-0.627201	-2.012993	0.136991
O18	O	-0.660093	-2.118282	0.242298
N19	N	-0.659020	-1.889161	0.013206
C20	C	-0.627228	-1.765303	-0.110589
O21	O	-0.660134	-1.659974	-0.215876
C22	C	-0.563622	-1.765289	-0.110593
C23	C	-0.531806	-1.889138	0.013190
C24	C	-0.531777	-2.136823	0.260753
C25	C	-0.468174	-2.136815	0.260739
C26	C	-0.436387	-2.012969	0.136950
C27	C	-0.468203	-1.889131	0.013176
C28	C	-0.531831	-1.641425	-0.234380
C29	C	-0.468220	-1.641421	-0.234372
C30	C	-0.436405	-1.765270	-0.110589
C31	C	-0.372812	-1.765277	-0.110627
N32	N	-0.340993	-1.889109	0.013158
C33	C	-0.372780	-2.012955	0.136947
C34	C	-0.760806	-1.765341	-0.110570
C35	C	-0.824411	-1.765360	-0.110575
C36	C	-0.824379	-2.013049	0.137008
C37	C	-0.760773	-2.013035	0.137004
C38	C	-0.728987	-1.889172	0.013215
C39	C	-0.239209	-2.012930	0.136906
C40	C	-0.175600	-2.012916	0.136877
C41	C	-0.175637	-1.765223	-0.110699
C42	C	-0.239241	-1.765242	-0.110676
C43	C	-0.271025	-1.889103	0.013141
O44	O	-0.339880	-1.660038	-0.215877
O45	O	-0.339867	-2.118253	0.242228
N46	N	0.143796	-1.889202	0.013220
C47	C	-0.000009	-2.187180	0.061387
C48	C	-0.000006	-2.366879	0.080286
C49	C	-0.000007	-1.840889	-0.284904
C50	C	-0.000007	-1.821990	-0.464604
H51	H	-0.149697	-2.113775	0.237677
F52	F	-0.000007	-1.652825	0.405504
H53	H	-0.000003	-1.466258	0.209705
F54	F	-0.565681	-1.509606	-0.366125
H55	H	-0.000010	-2.085696	0.590286
F56	F	-0.565599	-2.268646	0.392518
H57	H	-0.000002	-1.311990	-0.183420
H58	H	-0.734872	-2.113883	0.237800
H59	H	-0.265080	-2.113788	0.237731
H60	H	-0.442273	-2.237660	0.361538
F61	F	-0.858222	-2.144855	0.268757
H62	H	-0.850311	-1.664526	-0.211385
F63	F	-0.726982	-1.633510	-0.242342
H64	H	-0.442343	-1.540552	-0.335176
F65	F	-0.141798	-1.633425	-0.242442
F66	F	-0.273101	-1.633440	-0.242437
