data_functionalizedCrystal
_audit_creation_method	'MofGen! by Chris Wilmer'
_symmetry_space_group_name_H-M	'P1'
_symmetry_Int_Tables_number	1
_symmetry_cell_setting	triclinic
loop_
_symmetry_equiv_pos_as_xyz
  x,y,z
_cell_length_a	21.395362
_cell_length_b	18.050589
_cell_length_c	21.395355
_cell_angle_alpha	89.987098
_cell_angle_beta	89.956060
_cell_angle_gamma	90.044101
loop_
_atom_site_label
_atom_site_type_symbol
_atom_site_fract_x
_atom_site_fract_y
_atom_site_fract_z
Zn1	Zn	0.957870	-0.295431	-0.354610
Zn2	Zn	1.457870	0.204569	0.145390
Zn3	Zn	0.957777	-0.419603	-0.249843
Zn4	Zn	1.457777	0.080397	0.250157
Zn5	Zn	0.853085	-0.295465	-0.249811
Zn6	Zn	1.353085	0.204535	0.250189
Zn7	Zn	0.853059	-0.419618	-0.354548
Zn8	Zn	1.353059	0.080382	0.145452
O9	O	0.905448	-0.357529	-0.302203
O10	O	1.405448	0.142471	0.197797
O11	O	1.045536	-0.311882	-0.340752
O12	O	1.545536	0.188118	0.159248
O13	O	0.943862	-0.403144	-0.162161
O14	O	1.443862	0.096856	0.337839
O15	O	0.867035	-0.191536	-0.263726
O16	O	1.367035	0.308464	0.236274
O17	O	1.045468	-0.403110	-0.263780
O18	O	1.545468	0.096890	0.236220
O19	O	0.944020	-0.191511	-0.340721
O20	O	1.444020	0.308489	0.159279
O21	O	0.866945	-0.311940	-0.162138
O22	O	1.366945	0.188060	0.337862
O23	O	0.765404	-0.311955	-0.263665
O24	O	1.265404	0.188045	0.236335
O25	O	0.866990	-0.403136	-0.442234
O26	O	1.366990	0.096864	0.057766
O27	O	0.765385	-0.403170	-0.340615
O28	O	1.265385	0.096830	0.159385
O29	O	0.943995	-0.311896	-0.442280
O30	O	1.443995	0.188104	0.057720
O31	O	0.943836	-0.523529	-0.263719
O32	O	1.443836	-0.023529	0.236281
O33	O	0.866900	-0.523540	-0.340645
O34	O	1.366900	-0.023540	0.159355
C35	C	0.742660	-0.357568	-0.302130
C36	C	1.242660	0.142432	0.197870
C37	C	0.673019	-0.357603	-0.302114
C38	C	1.173019	0.142397	0.197886
C39	C	0.640312	-0.405161	-0.342121
C40	C	1.140312	0.094839	0.157879
C41	C	0.574877	-0.405143	-0.342149
C42	C	1.074877	0.094857	0.157851
C43	C	0.542151	-0.357574	-0.302159
C44	C	1.042151	0.142426	0.197841
C45	C	0.574865	-0.310007	-0.262148
C46	C	1.074865	0.189993	0.237852
C47	C	0.640300	-0.310021	-0.262126
C48	C	1.140300	0.189979	0.237874
C49	C	0.438426	-0.351592	-0.245753
C50	C	0.938426	0.148408	0.254247
C51	C	0.372993	-0.351583	-0.245774
C52	C	0.872993	0.148417	0.254226
C53	C	0.340330	-0.357526	-0.302228
C54	C	0.840330	0.142474	0.197772
C55	C	0.373108	-0.363494	-0.358662
C56	C	0.873108	0.136506	0.141338
C57	C	0.438542	-0.363508	-0.358640
C58	C	0.938542	0.136492	0.141360
C59	C	0.471198	-0.357553	-0.302179
C60	C	0.971198	0.142447	0.197821
C61	C	0.236671	-0.405067	-0.342269
C62	C	0.736671	0.094933	0.157731
C63	C	0.171234	-0.405044	-0.342298
C64	C	0.671234	0.094956	0.157702
C65	C	0.171224	-0.309911	-0.262291
C66	C	0.671224	0.190089	0.237709
C67	C	0.236659	-0.309931	-0.262268
C68	C	0.736659	0.190069	0.237732
C69	C	0.269379	-0.357513	-0.302256
C70	C	0.769379	0.142487	0.197744
C71	C	0.905372	-0.550481	-0.302192
C72	C	1.405372	-0.050481	0.197808
C73	C	0.905397	-0.633027	-0.302209
C74	C	1.405397	-0.133027	0.197791
C75	C	0.863601	-0.832511	-0.344027
C76	C	1.363601	-0.332511	0.155973
C77	C	0.848322	-0.881943	-0.286848
C78	C	1.348322	-0.381943	0.213152
C79	C	0.905459	-0.784157	-0.302217
C80	C	1.405459	-0.284157	0.197783
C81	C	0.920768	-0.881806	-0.359402
C82	C	1.420768	-0.381806	0.140598
C83	C	0.905517	-0.930142	-0.302230
C84	C	1.405517	-0.430142	0.197770
C85	C	0.890151	-0.832503	-0.245009
C86	C	1.390151	-0.332503	0.254991
C87	C	0.962623	-0.832361	-0.317601
C88	C	1.462623	-0.332361	0.182399
C89	C	0.947366	-0.881772	-0.260383
C90	C	1.447366	-0.381772	0.239617
C91	C	0.905424	-0.700059	-0.302211
C92	C	1.405424	-0.200059	0.197789
C93	C	0.905552	-1.014239	-0.302230
C94	C	1.405552	-0.514239	0.197770
C95	C	1.068871	-0.357490	-0.302276
C96	C	1.568871	0.142510	0.197724
C97	C	1.138513	-0.357474	-0.302307
C98	C	1.638513	0.142526	0.197693
C99	C	0.905500	-0.357514	-0.465626
C100	C	1.405500	0.142486	0.034374
C101	C	0.905522	-0.357508	-0.535268
C102	C	1.405522	0.142492	-0.035268
C103	C	0.905541	-0.163823	-0.302227
C104	C	1.405541	0.336177	0.197773
C105	C	0.905581	-0.081278	-0.302237
C106	C	1.405581	0.418722	0.197763
C107	C	0.945617	-0.309997	-0.568006
C108	C	1.445617	0.190003	-0.068006
C109	C	0.945616	-0.309965	-0.633441
C110	C	1.445616	0.190035	-0.133441
C111	C	0.905527	-0.357457	-0.666136
C112	C	1.405527	0.142543	-0.166136
C113	C	0.865425	-0.404971	-0.633390
C114	C	1.365425	0.095029	-0.133390
C115	C	0.865422	-0.404996	-0.567956
C116	C	1.365422	0.095004	-0.067956
C117	C	0.900554	-0.424328	-0.769805
C118	C	1.400554	0.075672	-0.269805
C119	C	0.900560	-0.424304	-0.835238
C120	C	1.400560	0.075696	-0.335238
C121	C	0.905531	-0.357379	-0.867957
C122	C	1.405531	0.142621	-0.367957
C123	C	0.910508	-0.290475	-0.835234
C124	C	1.410508	0.209525	-0.335234
C125	C	0.910505	-0.290501	-0.769800
C126	C	1.410505	0.209499	-0.269800
C127	C	0.905525	-0.357435	-0.737088
C128	C	1.405525	0.142565	-0.237088
C129	C	0.945627	-0.309829	-0.971647
C130	C	1.445627	0.190171	-0.471647
C131	C	0.945621	-0.309796	-1.037084
C132	C	1.445621	0.190204	-0.537084
C133	C	0.865434	-0.404809	-1.037032
C134	C	1.365434	0.095191	-0.537032
C135	C	0.865436	-0.404835	-0.971596
C136	C	1.365436	0.095165	-0.471596
C137	C	0.905535	-0.357347	-0.938908
C138	C	1.405535	0.142653	-0.438908
C139	C	0.905432	-0.357490	-0.139415
C140	C	1.405432	0.142510	0.360585
C141	C	0.905531	-0.357288	-0.069774
C142	C	1.405531	0.142712	0.430226
H143	H	0.263312	-0.443807	-0.374833
H144	H	0.763312	0.056193	0.125167
H145	H	0.978264	-0.271272	-0.660102
H146	H	1.478264	0.228728	-0.160102
H147	H	0.465228	-0.368366	-0.404590
H148	H	0.965228	0.131634	0.095410
C149	C	0.915972	-0.216916	-0.733804
C150	C	1.415972	0.283084	-0.233804
H151	H	0.915262	-0.226520	-0.690149
H152	H	1.415262	0.273480	-0.190149
H153	H	0.881904	-0.185681	-0.744500
H154	H	1.381904	0.314319	-0.244500
H155	H	0.954131	-0.193154	-0.744551
H156	H	1.454131	0.306846	-0.244551
H157	H	0.832782	-0.443637	-0.660014
H158	H	1.332782	0.056363	-0.160014
H159	H	0.465014	-0.346749	-0.199778
H160	H	0.965014	0.153251	0.300222
H161	H	0.548242	-0.443870	-0.374731
H162	H	1.048242	0.056130	0.125269
C163	C	0.821320	-0.457262	-0.531940
C164	C	1.321320	0.042738	-0.031940
H165	H	0.827059	-0.450473	-0.488287
H166	H	1.327059	0.049527	0.011713
H167	H	0.830463	-0.507154	-0.542675
H168	H	1.330463	-0.007154	-0.042675
H169	H	0.779226	-0.446392	-0.542629
H170	H	1.279226	0.053608	-0.042629
H171	H	0.933693	-0.903463	-0.407758
H172	H	1.433693	-0.403463	0.092242
C173	C	0.538870	-0.257683	-0.218160
C174	C	1.038870	0.242317	0.281840
H175	H	0.495215	-0.264491	-0.223898
H176	H	0.995215	0.235509	0.276102
H177	H	0.549643	-0.207803	-0.227398
H178	H	1.049643	0.292197	0.272602
H179	H	0.549539	-0.268484	-0.176040
H180	H	1.049539	0.231516	0.323960
C181	C	0.989728	-0.257591	-0.935685
C182	C	1.489728	0.242409	-0.435685
H183	H	0.983990	-0.264418	-0.892025
H184	H	1.483990	0.235582	-0.392025
H185	H	0.980583	-0.207690	-0.946395
H186	H	1.480583	0.292310	-0.446395
H187	H	1.031822	-0.268450	-0.946443
H188	H	1.531822	0.231550	-0.446443
C189	C	0.989734	-0.257542	-1.073099
C190	C	1.489734	0.242458	-0.573099
H191	H	0.983990	-0.264323	-1.116751
H192	H	1.483990	0.235677	-0.616751
H193	H	1.031823	-0.268418	-1.062405
H194	H	1.531823	0.231582	-0.562405
H195	H	0.980595	-0.207643	-1.062366
H196	H	1.480595	0.292357	-0.562366
H197	H	0.666948	-0.443905	-0.374684
H198	H	1.166948	0.056095	0.125316
C199	C	0.989720	-0.257756	-0.532052
C200	C	1.489720	0.242244	-0.032052
H201	H	1.013595	-0.229451	-0.560925
H202	H	1.513595	0.270549	-0.060925
H203	H	1.017004	-0.286166	-0.506547
H204	H	1.517004	0.213834	-0.006547
H205	H	0.965763	-0.225408	-0.506508
H206	H	1.465763	0.274592	-0.006508
C207	C	0.915975	-0.216852	-0.871212
C208	C	1.415975	0.283148	-0.371212
H209	H	0.918943	-0.177014	-0.842353
H210	H	1.418943	0.322986	-0.342353
H211	H	0.880071	-0.210320	-0.896710
H212	H	1.380071	0.289680	-0.396710
H213	H	0.952297	-0.217799	-0.896766
H214	H	1.452297	0.282201	-0.396766
C215	C	0.337188	-0.370029	-0.420765
C216	C	0.837188	0.129971	0.079235
H217	H	0.293524	-0.369157	-0.412699
H218	H	0.793524	0.130843	0.087301
H219	H	0.347895	-0.415278	-0.440732
H220	H	0.847895	0.084722	0.059268
H221	H	0.347977	-0.329673	-0.447172
H222	H	0.847977	0.170327	0.052828
H223	H	0.828150	-0.810879	-0.379334
H224	H	1.328150	-0.310879	0.120666
C225	C	0.135254	-0.457357	-0.386309
C226	C	0.635254	0.042643	0.113691
H227	H	0.091597	-0.450529	-0.380602
H228	H	0.591597	0.049471	0.119398
H229	H	0.145924	-0.507242	-0.377062
H230	H	0.645924	-0.007242	0.122938
H231	H	0.146035	-0.446563	-0.428421
H232	H	0.646035	0.053437	0.071579
H233	H	0.144579	-0.271177	-0.229733
H234	H	0.644579	0.228823	0.270267
H235	H	0.832786	-0.443470	-1.063651
H236	H	1.332786	0.056530	-0.563651
H237	H	0.800008	-0.903738	-0.273849
H238	H	1.300008	-0.403738	0.226151
H239	H	0.896338	-0.478812	-0.743171
H240	H	1.396338	0.021188	-0.243171
C241	C	0.272639	-0.257626	-0.218251
C242	C	0.772639	0.242374	0.281749
H243	H	0.243778	-0.229297	-0.194433
H244	H	0.743778	0.270703	0.305567
H245	H	0.298219	-0.225315	-0.242253
H246	H	0.798219	0.274685	0.257747
H247	H	0.298108	-0.286000	-0.190900
H248	H	0.798108	0.214000	0.309100
H249	H	0.832790	-0.443528	-0.944941
H250	H	1.332790	0.056472	-0.444941
H251	H	0.666929	-0.271291	-0.229547
H252	H	1.166929	0.228709	0.270453
H253	H	1.010926	-0.810569	-0.330628
H254	H	1.510926	-0.310569	0.169372
C255	C	0.895094	-0.497891	-0.871230
C256	C	1.395094	0.002109	-0.371230
H257	H	0.895817	-0.488293	-0.914886
H258	H	1.395817	0.011707	-0.414886
H259	H	0.856939	-0.521653	-0.860485
H260	H	1.356939	-0.021653	-0.360485
H261	H	0.929166	-0.529124	-0.860530
H262	H	1.429166	-0.029124	-0.360530
C263	C	0.336940	-0.345071	-0.183698
C264	C	0.836940	0.154929	0.316302
H265	H	0.293292	-0.345938	-0.191794
H266	H	0.793292	0.154062	0.308206
H267	H	0.347660	-0.299837	-0.163699
H268	H	0.847660	0.200163	0.336301
H269	H	0.347620	-0.385447	-0.157306
H270	H	0.847620	0.114553	0.342694
C271	C	0.995217	-0.910817	-0.212575
C272	C	1.495217	-0.410817	0.287425
H273	H	0.984261	-0.893845	-0.171994
H274	H	1.484261	-0.393845	0.328006
H275	H	1.035682	-0.893090	-0.223151
H276	H	1.535682	-0.393090	0.276849
H277	H	0.995219	-0.963444	-0.213076
H278	H	1.495219	-0.463444	0.286924
C279	C	0.872608	-0.803373	-0.179668
C280	C	1.372608	-0.303373	0.320332
H281	H	0.872671	-0.750744	-0.180068
H282	H	1.372671	-0.250744	0.319932
H283	H	0.902174	-0.820633	-0.149948
H284	H	1.402174	-0.320633	0.350052
H285	H	0.832144	-0.820764	-0.168685
H286	H	1.332144	-0.320764	0.331315
