data_functionalizedCrystal
_audit_creation_method	'MofGen! by Chris Wilmer'
_symmetry_space_group_name_H-M	'P1'
_symmetry_Int_Tables_number	1
_symmetry_cell_setting	triclinic
loop_
_symmetry_equiv_pos_as_xyz
  x,y,z
_cell_length_a	11.169409
_cell_length_b	17.077404
_cell_length_c	17.077402
_cell_angle_alpha	90.023108
_cell_angle_beta	90.037992
_cell_angle_gamma	90.023076
loop_
_atom_site_label
_atom_site_type_symbol
_atom_site_fract_x
_atom_site_fract_y
_atom_site_fract_z
Zn1	Zn	-0.678600	-1.200082	0.312440
Zn2	Zn	-0.178600	-0.700082	0.812440
Zn3	Zn	-0.477897	-1.199981	0.443733
Zn4	Zn	0.022103	-0.699981	0.943733
Zn5	Zn	-0.477923	-1.068806	0.312486
Zn6	Zn	0.022077	-0.568806	0.812486
Zn7	Zn	-0.678530	-1.068782	0.443668
Zn8	Zn	-0.178530	-0.568782	0.943668
O9	O	-0.578237	-1.134413	0.378082
O10	O	-0.078237	-0.634413	0.878082
O11	O	-0.651994	-1.309916	0.329864
O12	O	-0.151994	-0.809916	0.829864
O13	O	-0.309950	-1.182548	0.426370
O14	O	0.190050	-0.682548	0.926370
O15	O	-0.504583	-1.086272	0.202633
O16	O	-0.004583	-0.586272	0.702633
O17	O	-0.504539	-1.309842	0.426325
O18	O	-0.004539	-0.809842	0.926325
O19	O	-0.652019	-1.182721	0.202599
O20	O	-0.152019	-0.682721	0.702599
O21	O	-0.309969	-1.086174	0.329943
O22	O	0.190031	-0.586174	0.829943
O23	O	-0.504515	-0.958956	0.329880
O24	O	-0.004515	-0.458956	0.829880
O25	O	-0.846489	-1.086232	0.426214
O26	O	-0.346489	-0.586232	0.926214
O27	O	-0.651901	-0.958938	0.426259
O28	O	-0.151901	-0.458938	0.926259
O29	O	-0.846540	-1.182697	0.329801
O30	O	-0.346540	-0.682697	0.829801
O31	O	-0.504471	-1.182525	0.553572
O32	O	-0.004471	-0.682525	1.053572
O33	O	-0.651876	-1.086134	0.553524
O34	O	-0.151876	-0.586134	1.053524
C35	C	-0.578189	-1.134337	0.582030
C36	C	-0.078189	-0.634337	1.082030
C37	C	-0.578209	-1.134377	0.669280
C38	C	-0.078209	-0.634377	1.169280
C39	C	-0.578204	-0.930465	0.378068
C40	C	-0.078204	-0.430465	0.878068
C41	C	-0.578218	-0.843215	0.378081
C42	C	-0.078218	-0.343215	0.878081
C43	C	-0.891280	-1.134473	0.377995
C44	C	-0.391280	-0.634473	0.877995
C45	C	-1.024680	-1.134499	0.377958
C46	C	-0.524680	-0.634499	0.877958
C47	C	-0.266413	-1.134398	0.378112
C48	C	0.233587	-0.634398	0.878112
C49	C	-0.133013	-1.134524	0.377928
C50	C	0.366987	-0.634524	0.877928
C51	C	-0.578271	-1.339157	0.378097
C52	C	-0.078271	-0.839157	0.878097
C53	C	-0.578286	-1.426407	0.378103
C54	C	-0.078286	-0.926407	0.878103
C55	C	-0.654839	-0.802237	0.428341
C56	C	-0.154839	-0.302237	0.928341
C57	C	-0.654858	-0.720256	0.428342
C58	C	-0.154858	-0.220256	0.928342
C59	C	-0.578250	-0.679256	0.378087
C60	C	-0.078250	-0.179256	0.878087
C61	C	-0.501626	-0.720240	0.327822
C62	C	-0.001626	-0.220240	0.827822
C63	C	-0.501614	-0.802219	0.327816
C64	C	-0.001614	-0.302219	0.827816
C65	C	-0.501655	-0.549370	0.327837
C66	C	-0.001655	-0.049370	0.827837
C67	C	-0.501665	-0.467386	0.327843
C68	C	-0.001665	0.032614	0.827843
C69	C	-0.654899	-0.467407	0.428363
C70	C	-0.154899	0.032593	0.928363
C71	C	-0.654887	-0.549386	0.428358
C72	C	-0.154887	-0.049386	0.928358
C73	C	-0.578261	-0.590365	0.378093
C74	C	-0.078261	-0.090365	0.878093
C75	C	-0.578312	-1.134510	0.173338
C76	C	-0.078312	-0.634510	0.673338
C77	C	-0.578343	-1.134552	0.086088
C78	C	-0.078343	-0.634552	0.586088
C79	C	-0.501538	-1.184619	0.710269
C80	C	-0.001538	-0.684619	1.210269
C81	C	-0.501569	-1.184657	0.792249
C82	C	-0.001569	-0.684657	1.292249
C83	C	-0.578265	-1.134449	0.833239
C84	C	-0.078265	-0.634449	1.333239
C85	C	-0.654945	-1.084204	0.792244
C86	C	-0.154945	-0.584204	1.292244
C87	C	-0.654919	-1.084170	0.710265
C88	C	-0.154919	-0.584170	1.210265
C89	C	-0.654990	-1.084277	0.963114
C90	C	-0.154990	-0.584277	1.463114
C91	C	-0.655015	-1.084310	1.045099
C92	C	-0.155015	-0.584310	1.545099
C93	C	-0.501640	-1.184764	1.045098
C94	C	-0.001640	-0.684764	1.545098
C95	C	-0.501614	-1.184730	0.963119
C96	C	-0.001614	-0.684730	1.463119
C97	C	-0.578292	-1.134484	0.922130
C98	C	-0.078292	-0.634484	1.422130
H99	H	-0.717249	-0.686895	0.469270
H100	H	-0.217249	-0.186895	0.969270
H101	H	-0.439269	-0.582733	0.286899
H102	H	0.060731	-0.082733	0.786899
H103	H	-0.717219	-0.835613	0.469267
H104	H	-0.217219	-0.335613	0.969267
H105	H	-0.439209	-1.225678	1.078475
H106	H	0.060791	-0.725678	1.578475
H107	H	-0.717398	-1.043327	0.825625
H108	H	-0.217398	-0.543327	1.325625
O109	O	-0.737748	-1.030167	1.089314
O110	O	-0.237748	-0.530167	1.589314
H111	H	-0.791078	-0.995232	1.047041
H112	H	-0.291078	-0.495232	1.547041
O113	O	-0.737618	-1.029979	0.666056
O114	O	-0.237618	-0.529979	1.166056
H115	H	-0.724726	-1.038396	0.602165
H116	H	-0.224726	-0.538396	1.102165
H117	H	-0.439078	-1.225501	0.676900
H118	H	0.060922	-0.725501	1.176900
O119	O	-0.418861	-1.238842	0.836457
O120	O	0.081139	-0.738842	1.336457
H121	H	-0.472639	-1.278787	0.873737
H122	H	0.027361	-0.778787	1.373737
O123	O	-0.737680	-1.030078	0.918899
O124	O	-0.237680	-0.530078	1.418899
H125	H	-0.791004	-0.995161	0.961173
H126	H	-0.291004	-0.495161	1.461173
O127	O	-0.737513	-0.593609	0.482562
O128	O	-0.237513	-0.093609	0.982562
H129	H	-0.798654	-0.630994	0.447467
H130	H	-0.298654	-0.130994	0.947467
O131	O	-0.418978	-0.676011	0.273637
O132	O	0.081022	-0.176011	0.773637
H133	H	-0.472791	-0.638676	0.233747
H134	H	0.027209	-0.138676	0.733747
H135	H	-0.717294	-0.434038	0.469288
H136	H	-0.217294	0.065962	0.969288
H137	H	-0.439298	-0.434005	0.286911
H138	H	0.060702	0.065995	0.786911
H139	H	-0.439228	-0.835583	0.286885
H140	H	0.060772	-0.335583	0.786885
O141	O	-0.418899	-1.238884	0.918903
O142	O	0.081101	-0.738884	1.418903
H143	H	-0.365594	-1.273836	0.961176
H144	H	0.134406	-0.773836	1.461176
