data_functionalizedCrystal
_audit_creation_method	'MofGen! by Chris Wilmer'
_symmetry_space_group_name_H-M	'P1'
_symmetry_Int_Tables_number	1
_symmetry_cell_setting	triclinic
loop_
_symmetry_equiv_pos_as_xyz
  x,y,z
_cell_length_a	15.944557
_cell_length_b	14.421503
_cell_length_c	15.944551
_cell_angle_alpha	89.998474
_cell_angle_beta	96.499947
_cell_angle_gamma	89.994361
loop_
_atom_site_label
_atom_site_type_symbol
_atom_site_fract_x
_atom_site_fract_y
_atom_site_fract_z
O1	O	-1.114525	0.077074	0.108348
O2	O	-0.869977	0.077085	0.121699
O3	O	-0.998929	0.077071	-0.007251
O4	O	-0.985573	0.077088	0.237298
O5	O	-0.998909	-0.077153	-0.007236
O6	O	-0.869956	-0.077139	0.121714
O7	O	-1.114505	-0.077150	0.108363
Cu8	Cu	-0.992229	-0.091226	0.115040
Cu9	Cu	-0.992253	0.091161	0.115022
O10	O	-0.985552	-0.077136	0.237313
C11	C	-0.838672	-0.000026	0.121151
C12	C	-0.745427	-0.000022	0.119487
C13	C	-0.474796	-0.000043	0.034581
C14	C	-0.525367	-0.076081	0.075519
C15	C	-0.409785	-0.000044	0.113551
C16	C	-0.525368	0.075971	0.075526
C17	C	-0.574697	-0.000032	0.116463
C18	C	-0.459128	-0.076146	0.154468
C19	C	-0.459125	0.075975	0.154463
C20	C	-0.509664	-0.000082	0.195460
C21	C	-0.314783	-0.000052	0.111871
C22	C	-0.669696	-0.000030	0.118149
N23	N	-0.992218	-0.219507	0.115051
C24	C	-0.145811	-0.000042	0.108900
C25	C	-0.239061	-0.000053	0.110530
C26	C	-0.933082	-0.530954	0.175145
C27	C	-0.916086	-0.469130	0.099475
C28	C	-0.992252	-0.591396	0.115018
C29	C	-1.009192	-0.469126	0.190702
C30	C	-0.992233	-0.408675	0.115039
C31	C	-0.975219	-0.530933	0.039311
C32	C	-1.068357	-0.530935	0.130587
C33	C	-1.051393	-0.469139	0.054862
C34	C	-0.992261	-0.696657	0.115008
C35	C	-0.992225	-0.303416	0.115041
C36	C	-0.998364	-0.000041	-0.038538
C37	C	-0.996702	-0.000042	-0.131784
N38	N	-0.992271	0.219442	0.115004
C39	C	-0.912798	-0.000025	-0.346642
C40	C	-0.951750	-0.076068	-0.407651
C41	C	-0.993695	-0.000034	-0.302510
C42	C	-0.951789	0.075984	-0.407649
C43	C	-0.990784	-0.000023	-0.467422
C44	C	-1.032669	-0.076140	-0.362290
C45	C	-1.032697	0.075980	-0.362282
C46	C	-1.071708	-0.000082	-0.423274
C47	C	-0.995369	-0.000042	-0.207507
C48	C	-0.989116	-0.000023	-0.562423
C49	C	-0.986117	-0.000022	0.268600
C50	C	-0.987779	-0.000015	0.361846
H51	H	-0.430188	0.140267	0.187779
C52	C	-0.823220	0.000026	-0.302342
C53	C	-0.780643	0.078904	-0.326350
C54	C	-0.698121	0.078972	-0.285567
H55	H	-0.824777	0.000626	-0.242966
H56	H	-0.794560	-0.054031	-0.317781
H57	H	-0.809296	0.132948	-0.310905
H58	H	-0.779063	0.078321	-0.385719
H59	H	-0.669461	0.024914	-0.301007
H60	H	-0.699687	0.079569	-0.226193
H61	H	-0.669220	0.132484	-0.301857
C62	C	-1.161373	0.000004	-0.467355
C63	C	-1.203845	0.078928	-0.443267
C64	C	-1.286452	0.079027	-0.483837
H65	H	-1.159978	0.000563	-0.526753
H66	H	-1.190001	-0.054023	-0.451802
H67	H	-1.175225	0.132941	-0.458825
H68	H	-1.205263	0.078385	-0.383875
H69	H	-1.315079	0.025000	-0.468285
H70	H	-1.285049	0.079583	-0.543234
H71	H	-1.315282	0.132570	-0.467493
C72	C	-1.078177	-0.161926	-0.335462
C73	C	-1.079150	-0.160962	-0.247769
C74	C	-1.121050	-0.239978	-0.223021
H75	H	-1.134486	-0.162231	-0.362305
H76	H	-1.049618	-0.215881	-0.351304
H77	H	-1.107710	-0.107021	-0.231935
H78	H	-1.022853	-0.160671	-0.220905
H79	H	-1.092491	-0.293933	-0.238864
H80	H	-1.177356	-0.240276	-0.249870
H81	H	-1.121709	-0.239339	-0.163519
C82	C	-1.154114	-0.567351	0.148114
C83	C	-1.153196	-0.664424	0.147078
C84	C	-1.232183	-0.698004	0.163219
H85	H	-1.166162	-0.546327	0.201925
H86	H	-1.196272	-0.545317	0.105940
H87	H	-1.111051	-0.686450	0.189249
H88	H	-1.141163	-0.685473	0.093274
H89	H	-1.274341	-0.675970	0.121045
H90	H	-1.244224	-0.676974	0.217029
H91	H	-1.231572	-0.763871	0.162510
C92	C	-0.866205	-0.567098	0.242756
C93	C	-0.786646	-0.535797	0.226061
C94	C	-0.725018	-0.569083	0.288317
H95	H	-0.877603	-0.545046	0.296448
H96	H	-0.866961	-0.632970	0.242608
H97	H	-0.785893	-0.469938	0.226218
H98	H	-0.775222	-0.557846	0.172381
H99	H	-0.725774	-0.634955	0.288169
H100	H	-0.736424	-0.547028	0.342005
H101	H	-0.671030	-0.547857	0.276993
H102	H	-0.960808	-0.557969	-0.024699
C103	C	-0.454090	-0.000195	-0.056162
C104	C	-0.529129	-0.001098	-0.111041
C105	C	-0.510088	-0.001257	-0.194636
H106	H	-0.422621	0.053832	-0.066140
H107	H	-0.421749	-0.053732	-0.065667
H108	H	-0.561456	0.052434	-0.101540
H109	H	-0.560608	-0.055122	-0.101090
H110	H	-0.477748	-0.054794	-0.204141
H111	H	-0.478618	0.052771	-0.204606
H112	H	-0.560998	-0.001879	-0.231882
C113	C	-1.028141	-0.432853	0.276064
C114	C	-0.960655	-0.378149	0.311382
C115	C	-0.978068	-0.344725	0.390020
H116	H	-1.078152	-0.396542	0.269077
H117	H	-1.035705	-0.483607	0.312444
H118	H	-0.953100	-0.327403	0.275009
H119	H	-0.910637	-0.414440	0.318389
H120	H	-0.985632	-0.395478	0.426400
H121	H	-1.028080	-0.308417	0.383025
H122	H	-0.932279	-0.307612	0.413996
C123	C	-1.078150	0.161811	-0.335465
C124	C	-1.035518	0.241219	-0.358164
C125	C	-1.077351	0.320311	-0.333461
H126	H	-1.134288	0.162485	-0.362741
H127	H	-1.079294	0.160928	-0.276026
H128	H	-1.034384	0.242102	-0.417592
H129	H	-0.979383	0.240576	-0.330891
H130	H	-1.078494	0.319428	-0.274022
H131	H	-1.133487	0.320975	-0.360739
H132	H	-1.048427	0.374198	-0.348852
C133	C	-0.564093	-0.161768	0.031130
C134	C	-0.651537	-0.161056	0.033962
C135	C	-0.687234	-0.239978	-0.006916
H136	H	-0.552517	-0.161772	-0.026013
H137	H	-0.540574	-0.215790	0.058637
H138	H	-0.675048	-0.107049	0.006454
H139	H	-0.663136	-0.161066	0.091095
H140	H	-0.663715	-0.293999	0.020591
H141	H	-0.675652	-0.239974	-0.064057
H142	H	-0.746567	-0.239509	-0.004993
H143	H	-0.851719	-0.441976	0.086313
H144	H	-0.917525	-0.140354	-0.427754
H145	H	-0.554293	0.140253	0.042155
H146	H	-0.430310	-0.140501	0.187800
C147	C	-0.906157	0.161625	-0.434606
C148	C	-0.905851	0.160912	-0.522381
C149	C	-0.863806	0.239777	-0.547238
H150	H	-0.934299	0.215690	-0.418395
H151	H	-0.849690	0.161532	-0.408147
H152	H	-0.962307	0.161013	-0.548831
H153	H	-0.877702	0.106865	-0.538614
H154	H	-0.807338	0.239685	-0.520779
H155	H	-0.891952	0.293836	-0.531021
H156	H	-0.863585	0.239300	-0.606794
C157	C	-1.118001	-0.433218	-0.013120
C158	C	-1.099857	-0.464687	-0.092158
C159	C	-1.161187	-0.431603	-0.154805
H160	H	-1.171967	-0.455295	-0.002639
H161	H	-1.117935	-0.367344	-0.012493
H162	H	-1.099932	-0.530547	-0.092784
H163	H	-1.045903	-0.442612	-0.102666
H164	H	-1.161121	-0.365729	-0.154177
H165	H	-1.215149	-0.453683	-0.144315
H166	H	-1.148880	-0.452943	-0.208439
H167	H	-0.525155	-0.000122	0.263525
