data_functionalizedCrystal
_audit_creation_method	'MofGen! by Chris Wilmer'
_symmetry_space_group_name_H-M	'P1'
_symmetry_Int_Tables_number	1
_symmetry_cell_setting	triclinic
loop_
_symmetry_equiv_pos_as_xyz
  x,y,z
_cell_length_a	12.594516
_cell_length_b	18.215407
_cell_length_c	18.215399
_cell_angle_alpha	90.017777
_cell_angle_beta	89.977894
_cell_angle_gamma	89.988327
loop_
_atom_site_label
_atom_site_type_symbol
_atom_site_fract_x
_atom_site_fract_y
_atom_site_fract_z
Zn1	Zn	-0.423877	-1.125117	-0.416105
Zn2	Zn	0.076123	-0.625117	0.083895
Zn3	Zn	-0.601875	-1.125044	-0.293052
Zn4	Zn	-0.101875	-0.625044	0.206948
Zn5	Zn	-0.423897	-1.002050	-0.293057
Zn6	Zn	0.076103	-0.502050	0.206943
Zn7	Zn	-0.601801	-1.002035	-0.416081
Zn8	Zn	-0.101801	-0.502035	0.083919
O9	O	-0.512863	-1.063561	-0.354574
O10	O	-0.012863	-0.563561	0.145426
O11	O	-0.447512	-1.228092	-0.399790
O12	O	0.052488	-0.728092	0.100210
O13	O	-0.578305	-1.108705	-0.190068
O14	O	-0.078305	-0.608705	0.309932
O15	O	-0.274949	-1.018412	-0.309392
O16	O	0.225051	-0.518412	0.190608
O17	O	-0.578286	-1.228038	-0.309383
O18	O	-0.078286	-0.728038	0.190617
O19	O	-0.274934	-1.108829	-0.399795
O20	O	0.225066	-0.608829	0.100205
O21	O	-0.447546	-1.018341	-0.190072
O22	O	0.052454	-0.518341	0.309928
O23	O	-0.447474	-0.899063	-0.309369
O24	O	0.052526	-0.399063	0.190631
O25	O	-0.578159	-1.018386	-0.519068
O26	O	-0.078159	-0.518386	-0.019068
O27	O	-0.578179	-0.899052	-0.399754
O28	O	-0.078179	-0.399052	0.100246
O29	O	-0.447440	-1.108814	-0.519086
O30	O	0.052560	-0.608814	-0.019086
O31	O	-0.750811	-1.108690	-0.309359
O32	O	-0.250811	-0.608690	0.190641
O33	O	-0.750756	-1.018315	-0.399748
O34	O	-0.250756	-0.518315	0.100252
C35	C	-0.512821	-0.872355	-0.354560
C36	C	-0.012821	-0.372355	0.145440
C37	C	-0.512829	-0.790556	-0.354571
C38	C	-0.012829	-0.290556	0.145429
C39	C	-0.444866	-0.602389	-0.401719
C40	C	0.055134	-0.102389	0.098281
C41	C	-0.444872	-0.525530	-0.401721
C42	C	0.055128	-0.025530	0.098279
C43	C	-0.580843	-0.525486	-0.307434
C44	C	-0.080843	-0.025486	0.192566
C45	C	-0.580831	-0.602343	-0.307429
C46	C	-0.080831	-0.102343	0.192571
C47	C	-0.512844	-0.640793	-0.354576
C48	C	-0.012844	-0.140793	0.145424
C49	C	-0.512862	-0.487077	-0.354583
C50	C	-0.012862	0.012923	0.145417
C51	C	-0.512868	-0.403743	-0.354585
C52	C	-0.012868	0.096257	0.145415
C53	C	-0.512836	-0.724132	-0.354573
C54	C	-0.012836	-0.224132	0.145427
C55	C	-0.789404	-1.063513	-0.354567
C56	C	-0.289404	-0.563513	0.145433
C57	C	-0.907709	-1.063560	-0.354588
C58	C	-0.407709	-0.563560	0.145412
C59	C	-0.976971	-1.014400	-0.403716
C60	C	-0.476971	-0.514400	0.096284
C61	C	-1.047828	-0.996471	-0.336564
C62	C	-0.547828	-0.496471	0.163436
C63	C	-1.047652	-1.081556	-0.421752
C64	C	-0.547652	-0.581556	0.078248
C65	C	-0.977007	-1.045595	-0.287400
C66	C	-0.477007	-0.545595	0.212600
C67	C	-0.976825	-1.130712	-0.372634
C68	C	-0.476825	-0.630712	0.127366
C69	C	-1.047649	-1.112808	-0.305435
C70	C	-0.547649	-0.612808	0.194565
C71	C	-0.235242	-1.063630	-0.354597
C72	C	0.264758	-0.563630	0.145403
C73	C	-0.116936	-1.063659	-0.354607
C74	C	0.383064	-0.563659	0.145393
C75	C	-0.512789	-1.063606	-0.546527
C76	C	-0.012789	-0.563606	-0.046527
C77	C	-0.512758	-1.063625	-0.628326
C78	C	-0.012758	-0.563625	-0.128326
C79	C	-0.512893	-0.255514	-0.354587
C80	C	-0.012893	0.244486	0.145413
C81	C	-0.512877	-0.337313	-0.354588
C82	C	-0.012877	0.162687	0.145412
C83	C	-0.444629	-1.110728	-0.816530
C84	C	0.055371	-0.610728	-0.316530
C85	C	-0.444598	-1.110737	-0.893389
C86	C	0.055402	-0.610737	-0.393389
C87	C	-0.580723	-1.016574	-0.893359
C88	C	-0.080723	-0.516574	-0.393359
C89	C	-0.580747	-1.016563	-0.816502
C90	C	-0.080747	-0.516563	-0.316502
C91	C	-0.512702	-1.063644	-0.778089
C92	C	-0.012702	-0.563644	-0.278089
C93	C	-0.512646	-1.063664	-0.931805
C94	C	-0.012646	-0.563664	-0.431805
C95	C	-0.512613	-1.063674	-1.015139
C96	C	-0.012613	-0.563674	-0.515139
C97	C	-0.512733	-1.063634	-0.694750
C98	C	-0.012733	-0.563634	-0.194750
C99	C	-0.512859	-1.063559	-0.163368
C100	C	-0.012859	-0.563559	0.336632
C101	C	-0.512590	-1.063683	-0.081569
C102	C	-0.012590	-0.563683	0.418431
H103	H	-0.389504	-0.633693	-0.440106
H104	H	0.110496	-0.133693	0.059894
H105	H	-0.389516	-0.494266	-0.440108
H106	H	0.110484	0.005734	0.059892
H107	H	-0.389164	-1.149077	-0.924684
H108	H	0.110836	-0.649077	-0.424684
H109	H	-1.078488	-1.154423	-0.263849
H110	H	-0.578488	-0.654423	0.236151
H111	H	-0.389219	-1.149063	-0.785257
H112	H	0.110781	-0.649063	-0.285257
C113	C	-0.934641	-1.207345	-0.393282
C114	C	-0.434641	-0.707345	0.106718
N115	N	-0.902860	-1.265064	-0.408845
N116	N	-0.402860	-0.765064	0.091155
C117	C	-0.655631	-0.483184	-0.255581
C118	C	-0.155631	0.016816	0.244419
N119	N	-0.711965	-0.451323	-0.216526
N120	N	-0.211965	0.048677	0.283474
C121	C	-0.935033	-0.958138	-0.459758
C122	C	-0.435033	-0.458138	0.040242
N123	N	-0.903442	-0.915760	-0.501964
N124	N	-0.403442	-0.415760	-0.001964
C125	C	-0.655615	-0.644590	-0.255565
C126	C	-0.155615	-0.144590	0.244435
N127	N	-0.711939	-0.676410	-0.216502
N128	N	-0.211939	-0.176410	0.283498
H129	H	-1.079039	-0.939728	-0.321316
H130	H	-0.579039	-0.439728	0.178684
C131	C	-0.935262	-1.024993	-0.210656
C132	C	-0.435262	-0.524993	0.289344
N133	N	-0.903817	-1.009473	-0.152854
N134	N	-0.403817	-0.509473	0.347146
H135	H	-1.078683	-1.096738	-0.478544
H136	H	-0.578683	-0.596738	0.021456
H137	H	-0.636125	-0.978244	-0.924644
H138	H	-0.136125	-0.478244	-0.424644
H139	H	-0.636180	-0.978215	-0.785202
H140	H	-0.136180	-0.478215	-0.285202
