data_functionalizedCrystal
_audit_creation_method	'MofGen! by Chris Wilmer'
_symmetry_space_group_name_H-M	'P1'
_symmetry_Int_Tables_number	1
_symmetry_cell_setting	triclinic
loop_
_symmetry_equiv_pos_as_xyz
  x,y,z
_cell_length_a	10.654556
_cell_length_b	14.519709
_cell_length_c	9.130313
_cell_angle_alpha	90.003947
_cell_angle_beta	90.002077
_cell_angle_gamma	84.083841
loop_
_atom_site_label
_atom_site_type_symbol
_atom_site_fract_x
_atom_site_fract_y
_atom_site_fract_z
O1	O	1.666590	0.129558	0.121747
O2	O	2.166590	0.629558	0.621747
O3	O	1.300994	0.141893	0.121763
O4	O	1.800994	0.641893	0.621763
O5	O	1.493485	0.001538	0.121742
O6	O	1.993485	0.501538	0.621742
O7	O	1.474098	0.269914	0.121769
O8	O	1.974098	0.769914	0.621769
O9	O	1.493470	0.001538	-0.121857
O10	O	1.993470	0.501538	0.378143
O11	O	1.300979	0.141893	-0.121836
O12	O	1.800979	0.641893	0.378164
O13	O	1.666575	0.129558	-0.121851
O14	O	2.166575	0.629558	0.378149
Cu15	Cu	1.483776	0.135726	-0.144086
Cu16	Cu	1.983776	0.635726	0.355914
Cu17	Cu	1.483793	0.135726	0.143998
Cu18	Cu	1.983793	0.635726	0.643998
O19	O	1.474084	0.269914	-0.121830
O20	O	1.974084	0.769914	0.378170
C21	C	1.254197	0.140986	-0.000035
C22	C	1.754197	0.640986	0.499965
C23	C	1.114781	0.138273	-0.000029
C24	C	1.614781	0.638273	0.499971
C25	C	0.918280	0.134452	0.132745
C26	C	1.418280	0.634452	0.632745
C27	C	1.049278	0.136996	0.132754
C28	C	1.549278	0.636996	0.632754
C29	C	1.049280	0.136996	-0.132831
C30	C	1.549280	0.636996	0.367169
C31	C	0.918286	0.134446	-0.132838
C32	C	1.418286	0.634446	0.367162
C33	C	1.492574	-0.032827	-0.000058
C34	C	1.992574	0.467173	0.499942
C35	C	1.489867	-0.135222	-0.000059
C36	C	1.989867	0.364778	0.499941
C37	C	1.479900	-0.510170	-0.000020
C38	C	1.979900	-0.010170	0.499980
C39	C	1.482667	-0.405848	-0.000031
C40	C	1.982667	0.094152	0.499969
C41	C	1.484883	-0.322699	-0.000041
C42	C	1.984883	0.177301	0.499959
C43	C	1.487651	-0.218370	-0.000049
C44	C	1.987651	0.281630	0.499951
C45	C	1.713372	0.130465	-0.000051
C46	C	2.213372	0.630465	0.499949
C47	C	1.852788	0.133179	-0.000046
C48	C	2.352788	0.633179	0.499954
C49	C	1.474995	0.304278	-0.000027
C50	C	1.974995	0.804278	0.499973
C51	C	1.477702	0.406673	-0.000017
C52	C	1.977702	0.906673	0.499983
N53	N	1.483773	0.135725	-0.346709
N54	N	1.983773	0.635725	0.153291
C55	C	1.560061	0.192182	-0.423353
C56	C	2.060061	0.692182	0.076647
C57	C	1.560081	0.192177	-0.576690
C58	C	2.060081	0.692177	-0.076690
C59	C	1.407515	0.079255	-0.576725
C60	C	1.907515	0.579255	-0.076725
C61	C	1.407502	0.079257	-0.423391
C62	C	1.907502	0.579257	0.076609
N63	N	1.483806	0.135719	0.346620
N64	N	1.983806	0.635719	0.846620
H65	H	0.864956	0.133419	0.240873
H66	H	1.364956	0.633419	0.740873
O67	O	1.119927	0.138374	-0.276049
O68	O	1.619927	0.638374	0.223951
H69	H	1.083721	0.200629	-0.339715
H70	H	1.583721	0.700629	0.160285
H71	H	1.622204	0.238149	-0.639086
H72	H	2.122204	0.738149	-0.139086
O73	O	1.325262	0.018350	-0.659442
O74	O	1.825262	0.518350	-0.159442
H75	H	1.272225	-0.020918	-0.580381
H76	H	1.772225	0.479082	-0.080381
O77	O	0.847496	0.133142	-0.275984
O78	O	1.347496	0.633142	0.224016
H79	H	0.883565	0.070912	-0.339801
H80	H	1.383565	0.570912	0.160199
H81	H	1.622166	0.238162	-0.360923
H82	H	2.122166	0.738162	0.139077
H83	H	1.345378	0.033278	-0.360986
H84	H	1.845378	0.533278	0.139014
H85	H	1.102595	0.138032	0.240886
H86	H	1.602595	0.638032	0.740886
