data_functionalizedCrystal
_audit_creation_method	'MofGen! by Chris Wilmer'
_symmetry_space_group_name_H-M	'P1'
_symmetry_Int_Tables_number	1
_symmetry_cell_setting	triclinic
loop_
_symmetry_equiv_pos_as_xyz
  x,y,z
_cell_length_a	18.050591
_cell_length_b	18.215405
_cell_length_c	18.215399
_cell_angle_alpha	89.969449
_cell_angle_beta	90.025700
_cell_angle_gamma	89.979109
loop_
_atom_site_label
_atom_site_type_symbol
_atom_site_fract_x
_atom_site_fract_y
_atom_site_fract_z
Zn1	Zn	1.135345	0.293070	0.416218
Zn2	Zn	1.135252	0.416141	0.293146
Zn3	Zn	1.011154	0.293085	0.293152
Zn4	Zn	1.011119	0.416091	0.416158
O5	O	1.073217	0.354597	0.354669
O6	O	1.239257	0.309411	0.399914
O7	O	1.118766	0.399845	0.190162
O8	O	1.027681	0.190099	0.309505
O9	O	1.239189	0.399831	0.309494
O10	O	1.118924	0.190088	0.399921
O11	O	1.027591	0.309436	0.190167
O12	O	0.907224	0.309387	0.309447
O13	O	1.027622	0.399745	0.519150
O14	O	0.907199	0.399759	0.399819
O15	O	1.118890	0.309362	0.519194
O16	O	1.118733	0.519119	0.309436
O17	O	1.027533	0.519082	0.399813
C18	C	0.880265	0.354569	0.354628
C19	C	0.797720	0.354575	0.354628
C20	C	1.073139	0.545803	0.354633
C21	C	1.073173	0.627602	0.354643
C22	C	1.073263	0.354546	0.546622
C23	C	1.073282	0.354524	0.628420
C24	C	0.598261	0.305374	0.305597
C25	C	0.548844	0.372499	0.287483
C26	C	0.646589	0.354598	0.354661
C27	C	0.548925	0.287496	0.372773
C28	C	0.500604	0.354613	0.354692
C29	C	0.598259	0.421758	0.336512
C30	C	0.598344	0.336710	0.421833
C31	C	0.548949	0.403881	0.403745
C32	C	0.730687	0.354588	0.354642
C33	C	0.416508	0.354631	0.354712
C34	C	1.266923	0.354625	0.354710
C35	C	1.349469	0.354637	0.354727
C36	C	1.073316	0.162644	0.354720
C37	C	1.073359	0.080845	0.354742
C38	C	1.120773	0.815791	0.307670
C39	C	1.120806	0.892650	0.307688
C40	C	1.025757	0.892651	0.401720
C41	C	1.025728	0.815794	0.401705
C42	C	1.073235	0.777365	0.354676
C43	C	1.073297	0.931082	0.354709
C44	C	1.073333	1.014415	0.354728
C45	C	1.073201	0.694027	0.354657
C46	C	1.073215	0.354594	0.163462
C47	C	1.073340	0.354409	0.081664
C48	C	1.120822	0.307418	0.816639
C49	C	1.120831	0.307397	0.893497
C50	C	1.025794	0.401517	0.893440
C51	C	1.025782	0.401534	0.816583
C52	C	1.073300	0.354486	0.778184
C53	C	1.073321	0.354447	0.931900
C54	C	1.073331	0.354424	1.015234
C55	C	1.073290	0.354508	0.694845
H56	H	0.619913	0.263792	0.264060
H57	H	0.987078	0.923948	0.440008
O58	O	1.166948	0.261779	0.779223
C59	C	1.156735	0.271870	0.703140
H60	H	1.132391	0.328667	0.692616
H61	H	1.117198	0.228223	0.681334
C62	C	1.261773	0.195374	0.676630
C63	C	1.231878	0.265135	0.663704
H64	H	1.308123	0.191216	0.652303
H65	H	1.268652	0.188572	0.727889
H66	H	1.228818	0.159008	0.658459
H67	H	1.264828	0.301498	0.681883
H68	H	1.225006	0.271942	0.612447
H69	H	0.987108	0.439824	0.924714
O70	O	1.166960	0.778381	0.262094
C71	C	1.214895	0.733871	0.304036
H72	H	1.188662	0.722333	0.359776
H73	H	1.269936	0.763446	0.312189
C74	C	1.260562	0.675057	0.195082
C75	C	1.228340	0.660881	0.263540
H76	H	1.268859	0.630034	0.170101
H77	H	1.228270	0.705046	0.166824
H78	H	1.306426	0.699705	0.201885
H79	H	1.182473	0.636242	0.256736
H80	H	1.260625	0.630886	0.291796
H81	H	0.987079	0.439862	0.785273
O82	O	0.623873	0.489536	0.318188
C83	C	0.563473	0.536949	0.305375
H84	H	0.512478	0.515255	0.335225
H85	H	0.551699	0.539764	0.243943
C86	C	0.644916	0.640893	0.297381
C87	C	0.582285	0.614250	0.334048
H88	H	0.656521	0.688576	0.315064
H89	H	0.685609	0.608949	0.306010
H90	H	0.635097	0.643232	0.246190
H91	H	0.592109	0.611903	0.385236
H92	H	0.541594	0.646195	0.325427
H93	H	0.527102	0.387640	0.230690
O94	O	0.979477	0.778576	0.447393
C95	C	0.937561	0.828973	0.488914
H96	H	0.935025	0.883783	0.458780
H97	H	0.964727	0.837087	0.544836
C98	C	0.861621	0.731702	0.536445
C99	C	0.858500	0.799020	0.499431
H100	H	0.812853	0.713225	0.542936
H101	H	0.889862	0.697748	0.508474
H102	H	0.884262	0.738473	0.583043
H103	H	0.835868	0.792246	0.452830
H104	H	0.830254	0.832972	0.527394
O105	O	0.523399	0.453658	0.453268
C106	C	0.583841	0.488803	0.487440
H107	H	0.634637	0.484893	0.450479
H108	H	0.596066	0.460940	0.542180
C109	C	0.502348	0.574914	0.546144
C110	C	0.564734	0.570118	0.500746
H111	H	0.490562	0.625072	0.554356
H112	H	0.461626	0.551235	0.523125
H113	H	0.512544	0.551691	0.591756
H114	H	0.554535	0.593332	0.455132
H115	H	0.605454	0.593803	0.523758
H116	H	0.527215	0.230750	0.388054
H117	H	1.159527	0.269068	0.924803
H118	H	1.159517	0.923932	0.269412
H119	H	0.620104	0.321548	0.478609
