data_functionalizedCrystal
_audit_creation_method	'MofGen! by Chris Wilmer'
_symmetry_space_group_name_H-M	'P1'
_symmetry_Int_Tables_number	1
_symmetry_cell_setting	triclinic
loop_
_symmetry_equiv_pos_as_xyz
  x,y,z
_cell_length_a	12.594517
_cell_length_b	19.121063
_cell_length_c	19.120915
_cell_angle_alpha	94.738654
_cell_angle_beta	92.424673
_cell_angle_gamma	92.468805
loop_
_atom_site_label
_atom_site_type_symbol
_atom_site_fract_x
_atom_site_fract_y
_atom_site_fract_z
Zn1	Zn	1.581412	-0.297094	-0.409775
Zn2	Zn	1.581286	-0.409747	-0.297126
Zn3	Zn	1.411365	-0.292100	-0.292128
Zn4	Zn	1.395435	-0.414720	-0.414746
O5	O	1.492375	-0.353415	-0.353444
O6	O	1.730340	-0.312046	-0.394844
O7	O	1.565360	-0.389969	-0.198003
O8	O	1.440641	-0.194300	-0.303562
O9	O	1.730247	-0.394811	-0.312081
O10	O	1.565574	-0.197969	-0.389997
O11	O	1.440519	-0.303535	-0.194331
O12	O	1.260307	-0.308358	-0.308381
O13	O	1.413492	-0.403289	-0.512546
O14	O	1.248604	-0.398446	-0.398468
O15	O	1.550128	-0.316869	-0.508894
O16	O	1.549914	-0.508869	-0.316901
O17	O	1.413370	-0.512523	-0.403315
C18	C	1.215836	-0.353400	-0.353422
C19	C	1.097529	-0.353412	-0.353431
C20	C	1.034609	-0.304352	-0.304519
C21	C	0.960622	-0.367795	-0.289942
C22	C	0.960714	-0.290000	-0.368021
C23	C	1.025100	-0.416887	-0.338822
C24	C	1.025200	-0.339050	-0.416928
C25	C	0.951240	-0.402539	-0.402377
C26	C	1.479927	-0.536227	-0.361205
C27	C	1.474698	-0.614435	-0.364549
C28	C	1.543383	-0.649254	-0.321166
C29	C	1.538471	-0.722739	-0.324315
C30	C	1.464868	-0.761405	-0.370844
C31	C	1.396181	-0.726582	-0.414232
C32	C	1.401098	-0.653098	-0.411086
C33	C	1.446465	-0.983376	-0.382595
C34	C	1.441550	-1.056865	-0.385737
C35	C	1.583843	-1.053017	-0.295820
C36	C	1.588750	-0.979532	-0.292675
C37	C	1.520066	-0.944715	-0.336066
C38	C	1.459844	-0.836519	-0.374062
C39	C	1.525096	-0.869603	-0.332850
C40	C	1.769993	-0.353431	-0.353465
C41	C	1.888297	-0.353438	-0.353475
C42	C	1.480047	-0.361191	-0.536964
C43	C	1.474793	-0.364504	-0.615169
C44	C	1.504898	-0.169891	-0.345667
C45	C	1.510235	-0.091683	-0.342353
C46	C	1.441520	-0.385540	-1.057580
C47	C	1.446453	-0.382416	-0.984097
C48	C	1.520063	-0.335864	-0.945458
C49	C	1.588738	-0.292428	-0.980305
C50	C	1.583800	-0.295548	-1.053786
C51	C	1.538529	-0.324188	-0.723497
C52	C	1.543465	-0.321073	-0.650011
C53	C	1.401178	-0.411060	-0.653808
C54	C	1.396250	-0.414179	-0.727291
C55	C	1.464921	-0.370741	-0.762131
C56	C	1.525110	-0.332672	-0.870347
C57	C	1.459869	-0.373930	-0.837241
C58	C	1.504719	-0.345620	-0.170635
C59	C	1.510192	-0.342108	-0.092422
H60	H	1.053359	-0.470537	-0.326440
H61	H	0.915034	-0.444084	-0.443761
H62	H	1.603408	-0.283160	-0.618553
H63	H	1.594401	-0.751085	-0.288987
H64	H	0.932274	-0.236370	-0.380319
H65	H	1.390544	-0.417790	-0.955732
C66	C	1.624350	-0.606728	-0.269978
N67	N	1.685339	-0.574699	-0.231423
C68	C	1.378871	-0.879058	-0.425236
N69	N	1.317881	-0.911102	-0.463778
C70	C	1.315267	-0.465386	-0.769788
N71	N	1.254269	-0.503955	-0.801797
C72	C	1.063711	-0.322588	-0.489421
N73	N	1.092724	-0.310179	-0.544021
H74	H	1.585028	-0.838119	-0.294969
H75	H	1.648683	-0.948052	-0.254787
C76	C	1.325636	-0.458833	-0.615477
N77	N	1.268730	-0.494814	-0.586606
H78	H	1.390538	-0.955034	-0.417924
C79	C	1.614076	-0.276408	-0.761813
N80	N	1.670983	-0.240419	-0.790674
H81	H	1.639763	-1.081373	-0.260495
H82	H	1.381626	-1.088345	-0.423638
C83	C	1.669708	-0.241218	-0.937800
N84	N	1.730698	-0.202648	-0.905785
C85	C	1.083789	-0.248356	-0.248578
N86	N	1.120833	-0.206183	-0.206441
C87	C	1.659346	-0.247772	-1.092112
N88	N	1.716249	-0.211784	-1.120978
C89	C	0.922151	-0.384225	-0.217426
N90	N	0.893176	-0.396594	-0.162805
H91	H	1.399930	-0.411828	-0.868704
H92	H	1.336256	-0.758070	-0.452120
H93	H	1.345169	-0.624750	-0.446414
H94	H	1.381583	-0.423450	-1.089035
H95	H	1.585046	-0.294771	-0.838879
