data_functionalizedCrystal
_audit_creation_method	'MofGen! by Chris Wilmer'
_symmetry_space_group_name_H-M	'P1'
_symmetry_Int_Tables_number	1
_symmetry_cell_setting	triclinic
loop_
_symmetry_equiv_pos_as_xyz
  x,y,z
_cell_length_a	14.519731
_cell_length_b	14.519731
_cell_length_c	14.586319
_cell_angle_alpha	89.995223
_cell_angle_beta	89.996401
_cell_angle_gamma	83.688853
loop_
_atom_site_label
_atom_site_type_symbol
_atom_site_fract_x
_atom_site_fract_y
_atom_site_fract_z
O1	O	1.223863	0.120982	-0.076244
O2	O	0.955390	0.135198	-0.076246
O3	O	1.096735	-0.006146	-0.076237
O4	O	1.082519	0.262327	-0.076254
O5	O	1.096725	-0.006148	0.076244
O6	O	0.955380	0.135196	0.076235
O7	O	1.223854	0.120980	0.076236
Cu8	Cu	1.089616	0.128088	0.090158
Cu9	Cu	1.089628	0.128091	-0.090168
O10	O	1.082509	0.262325	0.076227
C11	C	0.921026	0.134531	-0.000006
C12	C	0.818645	0.132535	-0.000006
C13	C	0.735501	0.130913	-0.000010
C14	C	0.631192	0.128887	-0.000010
C15	C	0.548053	0.127278	-0.000010
C16	C	0.443738	0.125252	-0.000012
C17	C	1.096064	-0.040507	0.000004
C18	C	1.094068	-0.142887	0.000004
C19	C	1.092446	-0.226031	0.000002
C20	C	1.090419	-0.330340	-0.000005
C21	C	1.088811	-0.413479	-0.000011
C22	C	1.086785	-0.517795	-0.000016
C23	C	1.258218	0.121648	-0.000006
C24	C	1.360598	0.123643	-0.000012
C25	C	1.083180	0.296685	-0.000015
C26	C	1.085176	0.399066	-0.000022
N27	N	1.089615	0.128086	0.216990
N28	N	1.089637	0.128086	-0.217000
C29	C	1.152223	0.065519	0.452001
C30	C	1.152225	0.065517	0.547982
C31	C	1.027022	0.190655	0.547983
C32	C	1.027015	0.190652	0.452004
C33	C	1.089621	0.128085	0.404015
C34	C	1.089630	0.128086	0.595976
C35	C	1.089633	0.128084	0.700043
C36	C	1.089618	0.128086	0.299941
H37	H	1.203200	0.014569	0.587049
H38	H	0.976051	0.241597	0.587065
C39	C	0.958150	0.259479	0.399211
C40	C	0.889320	0.328336	0.451990
C41	C	0.820455	0.397156	0.399197
C42	C	0.820421	0.397121	0.293623
C43	C	0.889254	0.328262	0.240837
C44	C	0.958119	0.259441	0.293631
H45	H	0.889343	0.328364	0.530148
H46	H	0.769501	0.448130	0.438273
H47	H	0.769444	0.448066	0.254542
H48	H	0.889232	0.328233	0.162680
H49	H	1.009073	0.208467	0.254555
C50	C	1.221080	-0.003309	0.399212
C51	C	1.289936	-0.072134	0.452001
C52	C	1.358794	-0.140967	0.399216
C53	C	1.358795	-0.140975	0.293643
C54	C	1.289936	-0.072148	0.240848
C55	C	1.221079	-0.003315	0.293633
H56	H	1.289938	-0.072130	0.530159
H57	H	1.409767	-0.191917	0.438299
H58	H	1.409767	-0.191929	0.254568
H59	H	1.289935	-0.072151	0.162691
H60	H	1.170105	0.047636	0.254550
