data_functionalizedCrystal
_audit_creation_method	'MofGen! by Chris Wilmer'
_symmetry_space_group_name_H-M	'P1'
_symmetry_Int_Tables_number	1
_symmetry_cell_setting	triclinic
loop_
_symmetry_equiv_pos_as_xyz
  x,y,z
_cell_length_a	13.635800
_cell_length_b	11.168144
_cell_length_c	17.982934
_cell_angle_alpha	102.190757
_cell_angle_beta	102.451471
_cell_angle_gamma	71.491160
loop_
_atom_site_label
_atom_site_type_symbol
_atom_site_fract_x
_atom_site_fract_y
_atom_site_fract_z
V1	V	1.979670	-0.394222	-0.105423
O2	O	2.038343	-0.386180	0.005055
O3	O	1.893843	-0.392044	-0.209025
O4	O	1.968970	-0.565920	-0.103806
O5	O	1.962696	-0.211100	-0.100893
V6	V	2.227721	-0.372257	-0.092208
O7	O	2.096505	-0.442406	-0.134411
O8	O	2.335985	-0.324073	-0.063220
O9	O	2.201945	-0.374435	0.011394
O10	O	2.227747	-0.380299	-0.202686
O11	O	2.303394	-0.555379	-0.096738
O12	O	2.126817	-0.200559	-0.093825
V13	V	2.479670	-0.394222	-0.105423
O14	O	2.538343	-0.386180	0.005055
O15	O	2.393843	-0.392044	-0.209025
O16	O	2.468970	-0.565920	-0.103806
O17	O	2.462696	-0.211100	-0.100893
V18	V	2.727721	-0.372257	-0.092208
O19	O	2.596505	-0.442406	-0.134411
O20	O	2.835985	-0.324073	-0.063220
O21	O	2.701945	-0.374435	0.011394
O22	O	2.727747	-0.380299	-0.202686
O23	O	2.803394	-0.555379	-0.096738
O24	O	2.626817	-0.200559	-0.093825
C25	C	1.896747	-0.607753	-0.100063
C26	C	1.928232	-0.748120	-0.099426
C27	C	1.923334	-0.828169	-0.165449
C28	C	1.955876	-0.973246	-0.164793
C29	C	1.800914	-0.385959	-0.234281
C30	C	1.771474	-0.385322	-0.318977
C31	C	2.126542	-0.380517	0.036646
C32	C	2.145602	-0.381162	0.121342
C33	C	2.030710	-0.158719	-0.097571
C34	C	1.988846	-0.018351	-0.098203
C35	C	2.300914	-0.385959	-0.234281
C36	C	2.271474	-0.385322	-0.318977
C37	C	1.846873	-0.391351	-0.362637
C38	C	1.819228	-0.390773	-0.442220
C39	C	1.716181	-0.384156	-0.478142
C40	C	1.640778	-0.378130	-0.434477
C41	C	1.668425	-0.378718	-0.354896
C42	C	2.242690	-0.375141	0.165013
C43	C	2.260587	-0.375726	0.244595
C44	C	2.181397	-0.382341	0.280504
C45	C	2.084299	-0.388359	0.236827
C46	C	2.066401	-0.387764	0.157247
C47	C	2.156479	-0.390754	0.557764
C48	C	2.174386	-0.391352	0.637349
C49	C	2.350665	-0.378716	0.645112
C50	C	2.332767	-0.378122	0.565532
C51	C	2.235670	-0.384132	0.521863
C52	C	2.216264	-0.383495	0.435571
C53	C	2.200804	-0.382988	0.366793
C54	C	2.396747	-0.607753	-0.100063
C55	C	2.428232	-0.748120	-0.099426
C56	C	2.626542	-0.380517	0.036646
C57	C	2.645602	-0.381162	0.121342
C58	C	2.530710	-0.158719	-0.097571
C59	C	2.488846	-0.018351	-0.098203
C60	C	2.742696	-0.375136	0.165001
C61	C	2.760613	-0.375721	0.244584
C62	C	2.681437	-0.382341	0.280505
C63	C	2.584333	-0.388363	0.236841
C64	C	2.566415	-0.387769	0.157260
C65	C	2.527109	-0.816829	-0.102756
C66	C	2.559653	-0.961906	-0.102099
H67	H	1.951730	-1.042018	-0.221316
H68	H	2.696041	-0.382823	0.345306
H69	H	1.930783	-0.396732	-0.333399
H70	H	2.519873	-0.393752	0.266101
H71	H	2.644357	-1.020971	-0.104953
H72	H	2.587669	-0.768247	-0.106089
C73	C	2.374411	-0.938578	-0.094351
C74	C	2.348580	-0.828591	-0.027254
C75	C	2.234139	-0.748808	-0.023404
C76	C	2.145529	-0.779011	-0.086650
C77	C	2.171358	-0.889003	-0.153752
C78	C	2.285799	-0.968786	-0.157602
H79	H	2.414176	-0.806228	0.019569
H80	H	2.215020	-0.667385	0.026269
H81	H	2.060814	-0.719951	-0.083800
H82	H	2.105762	-0.911366	-0.200575
H83	H	2.304918	-1.050209	-0.207275
H84	H	1.895055	-0.789297	-0.222460
C85	C	1.966441	-0.800619	-0.022404
C86	C	1.907205	-0.880150	0.000748
C87	C	1.945414	-0.932644	0.077773
C88	C	2.042859	-0.905608	0.131647
C89	C	2.102101	-0.826073	0.108496
C90	C	2.063892	-0.773579	0.031471
H91	H	1.835065	-0.900167	-0.039133
H92	H	1.901558	-0.991521	0.094911
H93	H	2.071144	-0.944467	0.188666
H94	H	2.174242	-0.806056	0.148378
H95	H	2.107748	-0.714702	0.014334
H96	H	1.992980	-0.949585	-0.041676
H97	H	2.367675	-0.796700	-0.096084
H98	H	1.880638	-0.395676	-0.477761
H99	H	1.693683	-0.383678	-0.542943
C100	C	1.997192	-0.395645	0.276326
C101	C	1.952361	-0.510989	0.251811
C102	C	1.865255	-0.518285	0.291308
C103	C	1.822980	-0.410237	0.355321
C104	C	1.867812	-0.294884	0.379840
C105	C	1.954918	-0.287588	0.340342
H106	H	1.983655	-0.590981	0.204422
H107	H	1.832067	-0.603677	0.273158
H108	H	1.758499	-0.415638	0.384559
H109	H	1.836518	-0.214893	0.427229
H110	H	1.988105	-0.202196	0.358493
H111	H	1.607018	-0.373801	-0.319354
H112	H	1.556876	-0.372742	-0.463737
H113	H	2.839685	-0.370818	0.280124
H114	H	2.307181	-0.369761	0.135782
H115	H	2.339646	-0.370828	0.280149
H116	H	2.487353	-0.392687	0.121718
H117	H	2.397255	-0.372741	0.536299
H118	H	2.429727	-0.373815	0.680677
H119	H	2.077408	-0.395611	0.522221
H120	H	1.987350	-0.392694	0.121688
H121	H	2.807178	-0.369746	0.135764
H122	H	2.109894	-0.396739	0.666583
