data_functionalizedCrystal
_audit_creation_method	'MofGen! by Chris Wilmer'
_symmetry_space_group_name_H-M	'P1'
_symmetry_Int_Tables_number	1
_symmetry_cell_setting	triclinic
loop_
_symmetry_equiv_pos_as_xyz
  x,y,z
_cell_length_a	16.625548
_cell_length_b	21.295417
_cell_length_c	16.625539
_cell_angle_alpha	89.967674
_cell_angle_beta	89.979432
_cell_angle_gamma	90.030770
loop_
_atom_site_label
_atom_site_type_symbol
_atom_site_fract_x
_atom_site_fract_y
_atom_site_fract_z
Zn1	Zn	1.232640	-0.250590	-0.455887
Zn2	Zn	1.482640	-0.000590	-0.205887
Zn3	Zn	1.732640	0.249410	0.044113
Zn4	Zn	1.982640	0.499410	0.294113
Zn5	Zn	1.232526	-0.355864	-0.321045
Zn6	Zn	1.482526	-0.105864	-0.071045
Zn7	Zn	1.732526	0.144136	0.178955
Zn8	Zn	1.982526	0.394136	0.428955
Zn9	Zn	1.097802	-0.250614	-0.321067
Zn10	Zn	1.347802	-0.000614	-0.071067
Zn11	Zn	1.597802	0.249386	0.178933
Zn12	Zn	1.847802	0.499386	0.428933
Zn13	Zn	1.097755	-0.355827	-0.455834
Zn14	Zn	1.347755	-0.105827	-0.205834
Zn15	Zn	1.597755	0.144173	0.044166
Zn16	Zn	1.847755	0.394173	0.294166
O17	O	1.165181	-0.303224	-0.388458
O18	O	1.415181	-0.053224	-0.138458
O19	O	1.665181	0.196776	0.111542
O20	O	1.915181	0.446776	0.361542
O21	O	1.345457	-0.264560	-0.438012
O22	O	1.595457	-0.014560	-0.188012
O23	O	1.845457	0.235440	0.061988
O24	O	2.095457	0.485440	0.311988
O25	O	1.214627	-0.341927	-0.208215
O26	O	1.464627	-0.091927	0.041785
O27	O	1.714627	0.158073	0.291785
O28	O	1.964627	0.408073	0.541785
O29	O	1.115755	-0.162522	-0.338983
O30	O	1.365755	0.087478	-0.088983
O31	O	1.615755	0.337478	0.161017
O32	O	1.865755	0.587478	0.411017
O33	O	1.345374	-0.341904	-0.338944
O34	O	1.595374	-0.091904	-0.088944
O35	O	1.845374	0.158096	0.161056
O36	O	2.095374	0.408096	0.411056
O37	O	1.214820	-0.162504	-0.438034
O38	O	1.464820	0.087496	-0.188034
O39	O	1.714820	0.337496	0.061966
O40	O	1.964820	0.587496	0.311966
O41	O	1.115645	-0.264601	-0.208232
O42	O	1.365645	-0.014601	0.041768
O43	O	1.615645	0.235399	0.291768
O44	O	1.865645	0.485399	0.541768
O45	O	0.984963	-0.264566	-0.338932
O46	O	1.234963	-0.014566	-0.088932
O47	O	1.484963	0.235434	0.161068
O48	O	1.734963	0.485434	0.411068
O49	O	1.115676	-0.341842	-0.568674
O50	O	1.365676	-0.091842	-0.318674
O51	O	1.615676	0.158158	-0.068674
O52	O	1.865676	0.408158	0.181326
O53	O	0.984929	-0.341866	-0.437945
O54	O	1.234929	-0.091866	-0.187945
O55	O	1.484929	0.158134	0.062055
O56	O	1.734929	0.408134	0.312055
O57	O	1.214775	-0.264525	-0.568712
O58	O	1.464775	-0.014525	-0.318712
O59	O	1.714775	0.235475	-0.068712
O60	O	1.964775	0.485475	0.181288
O61	O	1.214581	-0.443948	-0.338893
O62	O	1.464581	-0.193948	-0.088893
O63	O	1.714581	0.056052	0.161107
O64	O	1.964581	0.306052	0.411107
O65	O	1.115566	-0.443922	-0.437923
O66	O	1.365566	-0.193922	-0.187923
O67	O	1.615566	0.056078	0.062077
O68	O	1.865566	0.306078	0.312077
C69	C	0.955690	-0.303215	-0.388436
C70	C	1.205690	-0.053215	-0.138436
C71	C	1.455690	0.196785	0.111564
C72	C	1.705690	0.446785	0.361564
C73	C	0.866069	-0.303226	-0.388445
C74	C	1.116069	-0.053226	-0.138445
C75	C	1.366069	0.196774	0.111555
C76	C	1.616069	0.446774	0.361555
C77	C	0.537893	-0.303230	-0.388480
C78	C	0.787893	-0.053230	-0.138480
C79	C	1.037893	0.196770	0.111520
C80	C	1.287893	0.446770	0.361520
C81	C	0.629202	-0.303227	-0.388468
C82	C	0.879202	-0.053227	-0.138468
C83	C	1.129202	0.196773	0.111532
C84	C	1.379202	0.446773	0.361532
C85	C	0.701978	-0.303229	-0.388462
C86	C	0.951978	-0.053229	-0.138462
C87	C	1.201978	0.196771	0.111538
C88	C	1.451978	0.446771	0.361538
C89	C	0.793292	-0.303225	-0.388451
C90	C	1.043292	-0.053225	-0.138451
C91	C	1.293292	0.196775	0.111549
C92	C	1.543292	0.446775	0.361549
C93	C	1.165078	-0.466775	-0.388417
C94	C	1.415078	-0.216775	-0.138417
C95	C	1.665078	0.033225	0.111583
C96	C	1.915078	0.283225	0.361583
C97	C	1.165108	-0.536744	-0.388427
C98	C	1.415108	-0.286744	-0.138427
C99	C	1.665108	-0.036744	0.111573
C100	C	1.915108	0.213256	0.361573
C101	C	1.216661	-0.569544	-0.440040
C102	C	1.466661	-0.319544	-0.190040
C103	C	1.716661	-0.069544	0.059960
C104	C	1.966661	0.180456	0.309960
C105	C	1.216690	-0.635286	-0.440060
C106	C	1.466690	-0.385286	-0.190060
C107	C	1.716690	-0.135286	0.059940
C108	C	1.966690	0.114714	0.309940
C109	C	1.165173	-0.668226	-0.388452
C110	C	1.415173	-0.418226	-0.138452
C111	C	1.665173	-0.168226	0.111548
C112	C	1.915173	0.081774	0.361548
C113	C	1.113609	-0.635418	-0.336836
C114	C	1.363609	-0.385418	-0.086836
C115	C	1.613609	-0.135418	0.163164
C116	C	1.863609	0.114582	0.413164
C117	C	1.113577	-0.569677	-0.336823
C118	C	1.363577	-0.319677	-0.086823
C119	C	1.613577	-0.069677	0.163177
C120	C	1.863577	0.180323	0.413177
N121	N	1.159082	-0.771490	-0.317887
N122	N	1.409082	-0.521490	-0.067887
N123	N	1.659082	-0.271490	0.182113
N124	N	1.909082	-0.021490	0.432113
N125	N	1.159117	-0.833941	-0.317901
N126	N	1.409117	-0.583941	-0.067901
N127	N	1.659117	-0.333941	0.182099
N128	N	1.909117	-0.083941	0.432099
C129	C	1.165267	-0.866301	-0.388489
C130	C	1.415267	-0.616301	-0.138489
C131	C	1.665267	-0.366301	0.111511
C132	C	1.915267	-0.116301	0.361511
N133	N	1.171396	-0.833850	-0.459063
N134	N	1.421396	-0.583850	-0.209063
N135	N	1.671396	-0.333850	0.040937
N136	N	1.921396	-0.083850	0.290937
N137	N	1.171364	-0.771392	-0.459047
N138	N	1.421364	-0.521392	-0.209047
N139	N	1.671364	-0.271392	0.040953
N140	N	1.921364	-0.021392	0.290953
C141	C	1.165203	-0.739511	-0.388461
C142	C	1.415203	-0.489511	-0.138461
C143	C	1.665203	-0.239511	0.111539
C144	C	1.915203	0.010489	0.361539
C145	C	1.216855	-0.970387	-0.440128
C146	C	1.466855	-0.720387	-0.190128
C147	C	1.716855	-0.470387	0.059872
C148	C	1.966855	-0.220387	0.309872
C149	C	1.216877	-1.036130	-0.440149
C150	C	1.466877	-0.786130	-0.190149
C151	C	1.716877	-0.536130	0.059851
C152	C	1.966877	-0.286130	0.309851
C153	C	1.113801	-1.036260	-0.336918
C154	C	1.363801	-0.786260	-0.086918
C155	C	1.613801	-0.536260	0.163082
C156	C	1.863801	-0.286260	0.413082
C157	C	1.113774	-0.970518	-0.336904
C158	C	1.363774	-0.720518	-0.086904
C159	C	1.613774	-0.470518	0.163096
C160	C	1.863774	-0.220518	0.413096
C161	C	1.165305	-0.937585	-0.388508
C162	C	1.415305	-0.687585	-0.138508
C163	C	1.665305	-0.437585	0.111492
C164	C	1.915305	-0.187585	0.361492
C165	C	1.375490	-0.303233	-0.388481
C166	C	1.625490	-0.053233	-0.138481
C167	C	1.875490	0.196767	0.111519
C168	C	2.125490	0.446767	0.361519
C169	C	1.465111	-0.303237	-0.388491
C170	C	1.715111	-0.053237	-0.138491
C171	C	1.965111	0.196763	0.111509
C172	C	2.215111	0.446763	0.361509
C173	C	1.165233	-0.303177	-0.598767
C174	C	1.415233	-0.053177	-0.348767
C175	C	1.665233	0.196823	-0.098767
C176	C	1.915233	0.446823	0.151233
C177	C	1.165256	-0.303157	-0.688388
C178	C	1.415256	-0.053157	-0.438388
C179	C	1.665256	0.196843	-0.188388
C180	C	1.915256	0.446843	0.061612
C181	C	1.165306	-0.139033	-0.388517
C182	C	1.415306	0.110967	-0.138517
C183	C	1.665306	0.360967	0.111483
C184	C	1.915306	0.610967	0.361483
C185	C	1.165359	-0.069065	-0.388542
C186	C	1.415359	0.180935	-0.138542
C187	C	1.665359	0.430935	0.111458
C188	C	1.915359	0.680935	0.361458
C189	C	1.165293	-0.303086	-1.016564
C190	C	1.415293	-0.053086	-0.766564
C191	C	1.665293	0.196914	-0.516564
C192	C	1.915293	0.446914	-0.266564
C193	C	1.165280	-0.303108	-0.925256
C194	C	1.415280	-0.053108	-0.675256
C195	C	1.665280	0.196892	-0.425256
C196	C	1.915280	0.446892	-0.175256
C197	C	1.165275	-0.303122	-0.852479
C198	C	1.415275	-0.053122	-0.602479
C199	C	1.665275	0.196878	-0.352479
C200	C	1.915275	0.446878	-0.102479
C201	C	1.165261	-0.303143	-0.761165
C202	C	1.415261	-0.053143	-0.511165
C203	C	1.665261	0.196857	-0.261165
C204	C	1.915261	0.446857	-0.011165
C205	C	1.165175	-0.303225	-0.178967
C206	C	1.415175	-0.053225	0.071033
C207	C	1.665175	0.196775	0.321033
C208	C	1.915175	0.446775	0.571033
C209	C	1.165309	-0.303068	-0.089347
C210	C	1.415309	-0.053068	0.160653
C211	C	1.665309	0.196932	0.410653
C212	C	1.915309	0.446932	0.660653
H213	H	1.258619	-0.542732	-0.482061
H214	H	1.508619	-0.292732	-0.232061
H215	H	1.758619	-0.042732	0.017939
H216	H	2.008619	0.207268	0.267939
H217	H	1.258812	-0.943571	-0.482149
H218	H	1.508812	-0.693571	-0.232149
H219	H	1.758812	-0.443571	0.017851
H220	H	2.008812	-0.193571	0.267851
H221	H	1.071662	-0.662241	-0.294819
H222	H	1.321662	-0.412241	-0.044819
H223	H	1.571662	-0.162241	0.205181
H224	H	1.821662	0.087759	0.455181
H225	H	1.258664	-0.661998	-0.482098
H226	H	1.508664	-0.411998	-0.232098
H227	H	1.758664	-0.161998	0.017902
H228	H	2.008664	0.088002	0.267902
H229	H	1.071595	-0.542970	-0.294793
H230	H	1.321595	-0.292970	-0.044793
H231	H	1.571595	-0.042970	0.205207
H232	H	1.821595	0.207030	0.455207
H233	H	1.071798	-0.943810	-0.294872
H234	H	1.321798	-0.693810	-0.044872
H235	H	1.571798	-0.443810	0.205128
H236	H	1.821798	-0.193810	0.455128
H237	H	1.258858	-1.062835	-0.482182
H238	H	1.508858	-0.812835	-0.232182
H239	H	1.758858	-0.562835	0.017818
H240	H	2.008858	-0.312835	0.267818
H241	H	1.071850	-1.063079	-0.294903
H242	H	1.321850	-0.813079	-0.044903
H243	H	1.571850	-0.563079	0.205097
H244	H	1.821850	-0.313079	0.455097
