data_functionalizedCrystal
_audit_creation_method	'MofGen! by Chris Wilmer'
_symmetry_space_group_name_H-M	'P1'
_symmetry_Int_Tables_number	1
_symmetry_cell_setting	triclinic
loop_
_symmetry_equiv_pos_as_xyz
  x,y,z
_cell_length_a	16.109301
_cell_length_b	12.837942
_cell_length_c	14.586319
_cell_angle_alpha	89.996741
_cell_angle_beta	89.999213
_cell_angle_gamma	89.145211
loop_
_atom_site_label
_atom_site_type_symbol
_atom_site_fract_x
_atom_site_fract_y
_atom_site_fract_z
O1	O	1.113716	0.133240	-0.076181
O2	O	1.613716	0.633240	0.423819
O3	O	0.872971	0.149822	-0.076196
O4	O	1.372971	0.649822	0.423804
O5	O	0.988005	-0.009370	-0.076183
O6	O	1.488005	0.490630	0.423817
O7	O	0.998682	0.292432	-0.076194
O8	O	1.498682	0.792432	0.423806
O9	O	0.987996	-0.009372	0.076298
O10	O	1.487996	0.490628	0.576298
O11	O	0.872962	0.149819	0.076285
O12	O	1.372962	0.649819	0.576285
O13	O	1.113707	0.133238	0.076299
O14	O	1.613707	0.633238	0.576299
Cu15	Cu	0.993333	0.141528	0.090215
Cu16	Cu	1.493333	0.641528	0.590215
Cu17	Cu	0.993344	0.141531	-0.090111
Cu18	Cu	1.493344	0.641531	0.409889
O19	O	0.998673	0.292430	0.076287
O20	O	1.498673	0.792430	0.576287
C21	C	0.841938	0.149149	0.000043
C22	C	1.341938	0.649149	0.500043
C23	C	0.749483	0.147135	0.000037
C24	C	1.249483	0.647135	0.500037
C25	C	0.534343	0.236914	0.000045
C26	C	1.034343	0.736914	0.500045
C27	C	0.447471	0.235014	0.000051
C28	C	0.947471	0.735014	0.500051
C29	C	0.452341	0.046138	0.000054
C30	C	0.952341	0.546138	0.500054
C31	C	0.539211	0.048040	0.000054
C32	C	1.039211	0.548040	0.500054
C33	C	0.580209	0.143431	0.000045
C34	C	1.080209	0.643431	0.500045
C35	C	0.406468	0.139629	0.000050
C36	C	0.906468	0.639629	0.500050
C37	C	0.312278	0.137568	0.000057
C38	C	0.812278	0.637568	0.500057
C39	C	0.674405	0.145492	0.000040
C40	C	1.174405	0.645492	0.500040
C41	C	0.984394	-0.047991	0.000056
C42	C	1.484394	0.452009	0.500056
C43	C	0.973637	-0.163064	0.000054
C44	C	1.473637	0.336936	0.500054
C45	C	1.102954	-0.404066	0.000043
C46	C	1.602954	0.095934	0.500043
C47	C	1.092851	-0.512188	0.000041
C48	C	1.592851	-0.012188	0.500041
C49	C	0.943328	-0.487433	0.000041
C50	C	1.443328	0.012567	0.500041
C51	C	0.953431	-0.379311	0.000043
C52	C	1.453431	0.120689	0.500043
C53	C	1.033247	-0.337632	0.000046
C54	C	1.533247	0.162368	0.500046
C55	C	1.043349	-0.229507	0.000054
C56	C	1.543349	0.270493	0.500054
C57	C	0.893827	-0.204754	0.000048
C58	C	1.393827	0.295246	0.500048
C59	C	0.883724	-0.312876	0.000046
C60	C	1.383724	0.187124	0.500046
C61	C	1.144739	0.133911	0.000059
C62	C	1.644739	0.633911	0.500059
C63	C	1.237195	0.135924	0.000058
C64	C	1.737195	0.635924	0.500058
C65	C	1.002284	0.331050	0.000045
C66	C	1.502284	0.831050	0.500045
C67	C	1.013041	0.446124	0.000041
C68	C	1.513041	0.946124	0.500041
N69	N	0.993332	0.141526	0.217047
N70	N	1.493332	0.641526	0.717047
N71	N	0.993352	0.141526	-0.216943
N72	N	1.493352	0.641526	0.283057
C73	C	1.044290	0.071059	0.452059
C74	C	1.544290	0.571059	0.952059
C75	C	1.044292	0.071057	0.548040
C76	C	1.544292	0.571057	1.048040
C77	C	0.942388	0.211995	0.548038
C78	C	1.442388	0.711995	1.048038
C79	C	0.942382	0.211992	0.452059
C80	C	1.442382	0.711992	0.952059
C81	C	0.993338	0.141525	0.404071
C82	C	1.493338	0.641525	0.904071
C83	C	0.993346	0.141526	0.596032
C84	C	1.493346	0.641526	1.096032
C85	C	0.993348	0.141524	0.700099
C86	C	1.493348	0.641524	1.200099
C87	C	0.993335	0.141526	0.299998
C88	C	1.493335	0.641526	0.799998
H89	H	0.418949	-0.031526	0.000066
H90	H	0.918949	0.468474	0.500066
N91	N	0.588686	-0.052796	0.000046
N92	N	1.088686	0.447204	0.500046
H93	H	0.649938	-0.037115	0.000048
H94	H	1.149938	0.462885	0.500048
H95	H	0.574565	-0.094372	0.056572
H96	H	1.074565	0.405628	0.556572
N97	N	1.099234	-0.004943	0.400287
N98	N	1.599234	0.495057	0.900287
H99	H	1.159189	0.007007	0.416980
H100	H	1.659189	0.507007	0.916980
H101	H	1.083758	-0.078484	0.417014
H102	H	1.583758	0.421516	0.917014
N103	N	1.189035	-0.359105	0.000057
N104	N	1.689035	0.140895	0.500057
H105	H	1.196549	-0.314806	0.056587
H106	H	1.696549	0.185194	0.556587
H107	H	1.231607	-0.417659	0.000028
H108	H	1.731607	0.082341	0.500028
H109	H	0.900903	0.269370	0.587119
H110	H	1.400903	0.769370	1.087119
H111	H	1.085780	0.013676	0.587108
H112	H	1.585780	0.513676	1.087108
N113	N	1.129431	-0.184547	0.000062
N114	N	1.629431	0.315453	0.500062
H115	H	1.172056	-0.243044	0.000058
H116	H	1.672056	0.256956	0.500058
H117	H	1.136880	-0.140219	-0.056462
H118	H	1.636880	0.359781	0.443538
H119	H	0.567721	0.314588	0.000044
H120	H	1.067721	0.814588	0.500044
H121	H	1.149614	-0.566277	0.000036
H122	H	1.649614	-0.066277	0.500036
N123	N	0.887417	0.287990	0.400293
N124	N	1.387417	0.787990	0.900293
H125	H	0.855141	0.332634	0.445255
H126	H	1.355141	0.832634	0.945255
H127	H	0.922869	0.333827	0.360459
H128	H	1.422869	0.833827	0.860459
H129	H	0.410130	0.311138	0.000052
H130	H	0.910130	0.811138	0.500052
H131	H	0.878346	-0.521388	0.000030
H132	H	1.378346	-0.021388	0.500030
H133	H	0.818741	-0.346827	0.000041
H134	H	1.318741	0.153173	0.500041
H135	H	0.837067	-0.150651	0.000058
H136	H	1.337067	0.349349	0.500058
