data_functionalizedCrystal
_audit_creation_method	'MofGen! by Chris Wilmer'
_symmetry_space_group_name_H-M	'P1'
_symmetry_Int_Tables_number	1
_symmetry_cell_setting	triclinic
loop_
_symmetry_equiv_pos_as_xyz
  x,y,z
_cell_length_a	12.827893
_cell_length_b	16.120484
_cell_length_c	12.827885
_cell_angle_alpha	92.863938
_cell_angle_beta	89.980538
_cell_angle_gamma	92.925621
loop_
_atom_site_label
_atom_site_type_symbol
_atom_site_fract_x
_atom_site_fract_y
_atom_site_fract_z
Zn1	Zn	1.576506	-0.331862	-0.611895
Zn2	Zn	1.909839	0.001471	-0.278562
Zn3	Zn	2.243173	0.334805	0.054772
Zn4	Zn	1.567507	-0.471297	-0.445998
Zn5	Zn	1.900840	-0.137964	-0.112665
Zn6	Zn	2.234173	0.195369	0.220669
Zn7	Zn	1.401744	-0.331903	-0.437171
Zn8	Zn	1.735077	0.001430	-0.103838
Zn9	Zn	2.068411	0.334764	0.229495
Zn10	Zn	1.392844	-0.471236	-0.620694
Zn11	Zn	1.726177	-0.137902	-0.287361
Zn12	Zn	2.059510	0.195431	0.045972
O13	O	1.484650	-0.401575	-0.528940
O14	O	1.817983	-0.068241	-0.195606
O15	O	2.151317	0.265092	0.137727
O16	O	1.721548	-0.350367	-0.589900
O17	O	2.054881	-0.017034	-0.256567
O18	O	2.388214	0.316300	0.076767
O19	O	1.545476	-0.452849	-0.298594
O20	O	1.878810	-0.119516	0.034740
O21	O	2.212143	0.213817	0.368073
O22	O	1.432418	-0.215232	-0.452972
O23	O	1.765751	0.118101	-0.119639
O24	O	2.099085	0.451434	0.213695
O25	O	1.714936	-0.452810	-0.468016
O26	O	2.048269	-0.119476	-0.134683
O27	O	2.381602	0.213857	0.198650
O28	O	1.560815	-0.215202	-0.581341
O29	O	1.894148	0.118131	-0.248008
O30	O	2.227481	0.451464	0.085326
O31	O	1.423692	-0.350437	-0.292109
O32	O	1.757025	-0.017104	0.041225
O33	O	2.090358	0.316230	0.374558
O34	O	1.254328	-0.350377	-0.461504
O35	O	1.587661	-0.017044	-0.128171
O36	O	1.920995	0.316289	0.205162
O37	O	1.417248	-0.452705	-0.765760
O38	O	1.750582	-0.119371	-0.432427
O39	O	2.083915	0.213962	-0.099094
O40	O	1.247789	-0.452744	-0.596338
O41	O	1.581122	-0.119411	-0.263005
O42	O	1.914455	0.213922	0.070329
O43	O	1.552184	-0.350307	-0.759296
O44	O	1.885517	-0.016974	-0.425962
O45	O	2.218851	0.316359	-0.092629
O46	O	1.536846	-0.587955	-0.476549
O47	O	1.870179	-0.254621	-0.143215
O48	O	2.203513	0.078712	0.190118
O49	O	1.408522	-0.587909	-0.604897
O50	O	1.741855	-0.254576	-0.271564
O51	O	2.075189	0.078757	0.061770
C52	C	1.213141	-0.401559	-0.528919
C53	C	1.546474	-0.068226	-0.195585
C54	C	1.879808	0.265107	0.137748
C55	C	1.096987	-0.401573	-0.528936
C56	C	1.430321	-0.068239	-0.195603
C57	C	1.763654	0.265094	0.137731
C58	C	1.048468	-0.350971	-0.589353
C59	C	1.381802	-0.017638	-0.256019
C60	C	1.715135	0.315696	0.077314
C61	C	0.928417	-0.350984	-0.589372
C62	C	1.261750	-0.017650	-0.256038
C63	C	1.595084	0.315683	0.077295
C64	C	1.470770	-0.618182	-0.542658
C65	C	1.804103	-0.284849	-0.209325
C66	C	2.137437	0.048485	0.124008
C67	C	1.464927	-0.710847	-0.548562
C68	C	1.798261	-0.377514	-0.215229
C69	C	2.131594	-0.044181	0.118105
C70	C	1.454267	-0.880508	-0.559362
C71	C	1.787600	-0.547175	-0.226029
C72	C	2.120934	-0.213842	0.107304
C73	C	1.515221	-0.921800	-0.498534
C74	C	1.848554	-0.588467	-0.165201
C75	C	2.181887	-0.255134	0.168132
C76	C	1.509289	-1.016205	-0.504544
C77	C	1.842622	-0.682872	-0.171210
C78	C	2.175956	-0.349539	0.162123
C79	C	1.460197	-0.786095	-0.553354
C80	C	1.793530	-0.452761	-0.220021
C81	C	2.126864	-0.119428	0.113312
C82	C	1.757219	-0.401591	-0.528961
C83	C	2.090552	-0.068257	-0.195628
C84	C	2.423886	0.265076	0.137705
C85	C	1.873372	-0.401597	-0.528970
C86	C	2.206705	-0.068264	-0.195637
C87	C	2.540039	0.265069	0.137696
C88	C	1.484727	-0.401495	-0.801505
C89	C	1.818061	-0.068161	-0.468172
C90	C	2.151394	0.265172	-0.134838
C91	C	1.484760	-0.401460	-0.917656
C92	C	1.818093	-0.068127	-0.584323
C93	C	2.151427	0.265206	-0.250989
C94	C	1.498613	-0.184121	-0.515190
C95	C	1.831946	0.149212	-0.181857
C96	C	2.165280	0.482545	0.151476
C97	C	1.504563	-0.091456	-0.509331
C98	C	1.837896	0.241877	-0.175998
C99	C	2.171230	0.575211	0.157335
C100	C	1.424518	-0.350774	-0.966231
C101	C	1.757851	-0.017440	-0.632898
C102	C	2.091185	0.315893	-0.299564
C103	C	1.424551	-0.350737	-1.086279
C104	C	1.757884	-0.017404	-0.752946
C105	C	2.091217	0.315929	-0.419612
C106	C	1.484637	-0.401594	-0.257431
C107	C	1.817971	-0.068261	0.075902
C108	C	2.151304	0.265072	0.409236
C109	C	1.484822	-0.401393	-0.141266
C110	C	1.818155	-0.068060	0.192068
C111	C	2.151488	0.265273	0.525401
H112	H	1.095807	-0.307636	-0.641059
H113	H	1.429140	0.025697	-0.307726
H114	H	1.762474	0.359030	0.025607
Cl115	Cl	1.602663	-0.866919	-0.411159
Cl116	Cl	1.935997	-0.533585	-0.077825
Cl117	Cl	2.269330	-0.200252	0.255508
Cl118	Cl	1.366823	-0.935391	-0.646725
Cl119	Cl	1.700156	-0.602058	-0.313391
Cl120	Cl	2.033490	-0.268724	0.019942
H121	H	1.372914	-0.307409	-0.918943
H122	H	1.706247	0.025924	-0.585610
H123	H	2.039581	0.359257	-0.252276
Cl124	Cl	1.564424	-0.468425	-0.990657
Cl125	Cl	1.897757	-0.135092	-0.657323
Cl126	Cl	2.231091	0.198241	-0.323990
Cl127	Cl	1.344924	-0.283731	-1.150787
Cl128	Cl	1.678257	0.049603	-0.817453
Cl129	Cl	2.011590	0.382936	-0.484120
H130	H	0.886679	-0.307664	-0.641100
H131	H	1.220013	0.025669	-0.307767
H132	H	1.553346	0.359002	0.025567
Cl133	Cl	0.937798	-0.468494	-0.449110
Cl134	Cl	1.271131	-0.135161	-0.115777
Cl135	Cl	1.604465	0.198173	0.217557
H136	H	1.049649	-0.444903	-0.477223
H137	H	1.382982	-0.111569	-0.143890
H138	H	1.716315	0.221764	0.189444
H139	H	1.536404	-0.444787	-1.099487
H140	H	1.869738	-0.111454	-0.766153
H141	H	2.203071	0.221879	-0.432820
