data_functionalizedCrystal
_audit_creation_method	'MofGen! by Chris Wilmer'
_symmetry_space_group_name_H-M	'P1'
_symmetry_Int_Tables_number	1
_symmetry_cell_setting	triclinic
loop_
_symmetry_equiv_pos_as_xyz
  x,y,z
_cell_length_a	17.699104
_cell_length_b	9.130313
_cell_length_c	17.699083
_cell_angle_alpha	89.997869
_cell_angle_beta	96.712734
_cell_angle_gamma	90.001115
loop_
_atom_site_label
_atom_site_type_symbol
_atom_site_fract_x
_atom_site_fract_y
_atom_site_fract_z
O1	O	1.004062	0.121832	-0.095783
O2	O	0.783685	0.121829	-0.108219
O3	O	0.900100	0.121817	0.008188
O4	O	0.887647	0.121843	-0.212190
O5	O	0.900098	-0.121781	0.008185
O6	O	0.783684	-0.121770	-0.108222
O7	O	1.004060	-0.121767	-0.095786
Cu8	Cu	0.893872	-0.144011	-0.102004
Cu9	Cu	0.893874	0.144073	-0.102001
O10	O	0.887646	-0.121756	-0.212193
C11	C	0.755488	0.000029	-0.107772
C12	C	0.671471	0.000027	-0.106427
N13	N	0.893876	-0.346634	-0.102006
C14	C	0.146600	0.000050	-0.167171
C15	C	0.225543	0.000054	-0.168430
C16	C	0.274161	0.000046	-0.100095
C17	C	0.243831	0.000048	-0.030496
C18	C	0.164889	0.000054	-0.029238
C19	C	0.562197	0.000025	-0.035569
C20	C	0.641144	0.000014	-0.036833
C21	C	0.622852	0.000025	-0.174762
C22	C	0.543909	0.000031	-0.173503
C23	C	0.513587	0.000041	-0.103905
C24	C	0.427987	0.000039	-0.102541
C25	C	0.359759	0.000037	-0.101459
C26	C	0.945437	-0.423291	-0.050479
C27	C	0.945435	-0.576628	-0.050470
C28	C	0.842309	-0.576637	-0.153522
C29	C	0.842307	-0.423303	-0.153527
C30	C	0.997006	-0.346622	0.001042
C31	C	1.048572	-0.423279	0.052573
C32	C	1.048570	-0.576615	0.052582
C33	C	0.997002	-0.653295	0.001060
C34	C	1.032258	0.000036	-0.096233
C35	C	1.116275	0.000047	-0.097578
C36	C	0.899653	0.000018	0.036383
C37	C	0.898314	0.000017	0.120402
N38	N	0.893875	0.346695	-0.101992
C39	C	0.888093	0.000047	-0.240388
C40	C	0.889431	0.000057	-0.324406
C41	C	0.966647	0.000016	0.169017
C42	C	0.965385	0.000029	0.247961
C43	C	0.895789	0.000033	0.278287
C44	C	0.827451	0.000038	0.229665
C45	C	0.828714	0.000036	0.150723
C46	C	0.822356	0.000050	0.548028
C47	C	0.821098	0.000048	0.626976
C48	C	0.959026	0.000043	0.645266
C49	C	0.960289	0.000041	0.566324
C50	C	0.891952	0.000054	0.517709
C51	C	0.893321	0.000043	0.432110
C52	C	0.894419	0.000033	0.363885
H53	H	0.107020	0.000045	-0.222818
H54	H	1.021028	0.000025	0.287541
C55	C	0.656209	0.000037	-0.251320
H56	H	0.710187	0.000049	-0.242286
H57	H	0.639513	-0.084908	-0.279451
H58	H	0.639513	0.084999	-0.279447
C59	C	1.105295	-0.338938	0.109240
H60	H	1.097919	-0.236638	0.101850
H61	H	1.097179	-0.364054	0.159748
H62	H	1.155788	-0.364077	0.101068
C63	C	1.036842	0.000031	0.532966
H64	H	1.027807	0.000016	0.478988
H65	H	1.064976	0.084977	0.549658
H66	H	1.064969	-0.084930	0.549664
H67	H	0.800321	-0.360888	-0.195485
C68	C	0.297308	0.000035	0.044671
H69	H	0.348667	0.000015	0.033956
H70	H	0.288133	0.084979	0.073217
H71	H	0.288122	-0.084928	0.073210
H72	H	1.023320	0.000004	0.144333
H73	H	0.504328	0.000030	-0.229149
C74	C	0.997009	-0.177957	0.001030
H75	H	0.958918	-0.143283	-0.037041
H76	H	0.986751	-0.143253	0.049391
H77	H	1.045363	-0.143281	-0.009285
H78	H	1.014670	0.000040	0.684858
H79	H	1.090552	-0.639028	0.094546
C80	C	0.785578	-0.660974	-0.210183
H81	H	0.754861	-0.593358	-0.240864
H82	H	0.812728	-0.720806	-0.241661
H83	H	0.754131	-0.720773	-0.182970
H84	H	0.773070	0.000037	0.111140
H85	H	0.764421	0.000048	0.651664
H86	H	0.766711	0.000060	0.508455
H87	H	0.680728	0.000012	0.018817
C88	C	0.750897	0.000038	0.263021
H89	H	0.759930	0.000023	0.316999
H90	H	0.722765	0.084984	0.246325
H91	H	0.722770	-0.084923	0.246325
H92	H	0.997000	-0.778152	0.001077
H93	H	0.140200	0.000055	0.027432
C94	C	0.258898	0.000038	-0.244983
H95	H	0.218637	0.000021	-0.285500
H96	H	0.289316	0.084981	-0.248349
H97	H	0.289309	-0.084926	-0.248335
C98	C	0.528851	0.000011	0.040985
H99	H	0.569114	-0.000015	0.081500
H100	H	0.498438	0.084958	0.044352
H101	H	0.498435	-0.084949	0.044339
