data_functionalizedCrystal
_audit_creation_method	'MofGen! by Chris Wilmer'
_symmetry_space_group_name_H-M	'P1'
_symmetry_Int_Tables_number	1
_symmetry_cell_setting	triclinic
loop_
_symmetry_equiv_pos_as_xyz
  x,y,z
_cell_length_a	10.908878
_cell_length_b	19.188924
_cell_length_c	10.065875
_cell_angle_alpha	98.757069
_cell_angle_beta	83.443480
_cell_angle_gamma	71.613377
loop_
_atom_site_label
_atom_site_type_symbol
_atom_site_fract_x
_atom_site_fract_y
_atom_site_fract_z
O1	O	1.723318	-0.120358	-0.113457
O2	O	1.349147	-0.065801	-0.113470
O3	O	1.547032	-0.195970	-0.113447
O4	O	1.525433	0.009811	-0.113480
O5	O	1.509298	-0.171066	0.113538
O6	O	1.311413	-0.040897	0.113515
O7	O	1.685584	-0.095454	0.113527
Zn8	Zn	1.492507	-0.064222	0.149560
Zn9	Zn	1.542224	-0.097033	-0.149502
O10	O	1.487698	0.034715	0.113505
C11	C	1.282410	-0.048250	0.000021
C12	C	1.139772	-0.033066	0.000017
C13	C	1.091076	-0.088470	0.000025
C14	C	0.943652	-0.072778	0.000021
C15	C	1.527467	-0.209449	0.000047
C16	C	1.525370	-0.286713	0.000050
C17	C	1.544961	-0.336575	-0.123679
C18	C	1.542976	-0.409172	-0.123690
C19	C	1.521424	-0.431907	0.000036
C20	C	1.501823	-0.382034	0.123782
C21	C	1.503796	-0.309437	0.123789
N22	N	1.576137	-0.549481	0.092125
N23	N	1.574267	-0.618447	0.092110
C24	C	1.515474	-0.650637	0.000023
N25	N	1.458642	-0.611261	-0.092070
N26	N	1.460519	-0.542291	-0.092058
C27	C	1.519281	-0.510625	0.000043
C28	C	1.532911	-0.779217	-0.123726
C29	C	1.530917	-0.851812	-0.123732
C30	C	1.489776	-0.824675	0.123744
C31	C	1.491759	-0.752079	0.123746
C32	C	1.513333	-0.729355	0.000007
C33	C	1.752322	-0.113005	0.000034
C34	C	1.894961	-0.128190	0.000029
C35	C	1.507265	0.048194	0.000008
C36	C	1.509362	0.125457	-0.000004
N37	N	1.458586	-0.041830	0.353661
N38	N	1.576155	-0.119431	-0.353604
C39	C	1.530414	-0.089246	0.421449
C40	C	1.504317	-0.072009	0.578613
H41	H	1.562525	-0.318079	-0.224437
H42	H	0.876206	-0.013724	0.000005
H43	H	0.962408	-0.187246	0.000029
Br44	Br	1.711163	-0.208240	0.549220
Br45	Br	1.027364	0.065358	-0.000016
Br46	Br	1.472557	-0.412884	0.291698
H47	H	1.550471	-0.760713	-0.224482
H48	H	1.558922	-0.449776	-0.224448
H49	H	1.158528	-0.147521	0.000028
Br50	Br	1.477200	-0.241761	0.291721
H51	H	1.611224	-0.142604	0.363134
H52	H	1.546864	-0.892410	-0.224491
Br53	Br	1.460513	-0.855520	0.291662
Br54	Br	1.465163	-0.684403	0.291674
Br55	Br	1.369600	0.016924	0.675794
Br56	Br	1.323875	0.047099	0.450848
