data_functionalizedCrystal
_audit_creation_method	'MofGen! by Chris Wilmer'
_symmetry_space_group_name_H-M	'P1'
_symmetry_Int_Tables_number	1
_symmetry_cell_setting	triclinic
loop_
_symmetry_equiv_pos_as_xyz
  x,y,z
_cell_length_a	14.971486
_cell_length_b	15.944551
_cell_length_c	14.048226
_cell_angle_alpha	89.992615
_cell_angle_beta	89.998499
_cell_angle_gamma	83.556434
loop_
_atom_site_label
_atom_site_type_symbol
_atom_site_fract_x
_atom_site_fract_y
_atom_site_fract_z
O1	O	1.186829	0.109463	-0.079053
O2	O	0.926415	0.122572	-0.079079
O3	O	1.063733	-0.006251	-0.079057
O4	O	1.049510	0.238286	-0.079076
O5	O	1.063717	-0.006258	0.079264
O6	O	0.926398	0.122564	0.079242
O7	O	1.186812	0.109456	0.079268
Zn8	Zn	1.056603	0.116009	0.104392
Zn9	Zn	1.056624	0.116019	-0.104203
O10	O	1.049494	0.238278	0.079246
C11	C	0.893082	0.121982	0.000078
C12	C	0.793787	0.120225	0.000068
C13	C	0.736480	0.195904	0.000064
C14	C	0.643182	0.194249	0.000078
C15	C	0.607194	0.116913	0.000090
C16	C	0.664508	0.041227	0.000097
C17	C	0.757804	0.042884	0.000090
C18	C	0.470049	0.037780	0.000111
C19	C	0.376747	0.036123	0.000116
C20	C	0.355428	0.189145	0.000099
C21	C	0.448724	0.190801	0.000092
C22	C	0.506032	0.115116	0.000097
C23	C	1.063134	-0.037549	0.000104
C24	C	1.061364	-0.130797	0.000104
C25	C	0.972017	-0.345738	0.000082
C26	C	1.013499	-0.406720	0.078148
C27	C	1.058162	-0.301526	0.000096
C28	C	1.013535	-0.406696	-0.077944
C29	C	1.055062	-0.466441	0.000085
C30	C	1.099667	-0.361279	0.078227
C31	C	1.099692	-0.361248	-0.077935
C32	C	1.141236	-0.422212	0.000150
C33	C	1.059945	-0.206522	0.000104
C34	C	1.053286	-0.561444	0.000084
C35	C	1.220145	0.110046	0.000109
C36	C	1.319440	0.111802	0.000112
C37	C	1.050093	0.269576	0.000083
C38	C	1.051863	0.362824	0.000076
N39	N	1.056594	0.116001	0.246753
N40	N	1.056640	0.116019	-0.246564
C41	C	1.117418	0.058982	0.296581
C42	C	1.117424	0.058982	0.396238
C43	C	1.056610	0.116005	0.446066
C44	C	0.995780	0.173027	0.396231
C45	C	0.995770	0.173022	0.296575
C46	C	0.995806	0.173033	0.603945
C47	C	0.995816	0.173038	0.703608
C48	C	1.117459	0.058992	0.703608
C49	C	1.117450	0.058988	0.603952
C50	C	1.056621	0.116011	0.554124
H51	H	0.596526	0.255875	0.000074
H52	H	0.516708	-0.023852	0.000117
H53	H	1.166951	0.012552	0.436808
H54	H	0.946259	0.219453	0.436807
H55	H	1.136103	-0.341080	-0.143930
H56	H	0.308763	0.250771	0.000099
H57	H	1.166988	0.012562	0.744184
C58	C	1.148267	-0.334763	0.166365
C59	C	1.176808	-0.406189	0.221052
C60	C	1.221588	-0.381794	0.302243
H61	H	1.108635	-0.296793	0.202958
H62	H	1.198930	-0.307745	0.147747
H63	H	1.126152	-0.433194	0.239670
H64	H	1.216452	-0.444166	0.184487
H65	H	1.272251	-0.354776	0.283626
H66	H	1.181950	-0.343824	0.338828
H67	H	1.240965	-0.430253	0.339354
H68	H	0.635199	-0.021741	0.000121
H69	H	0.977056	-0.426866	0.144140
C70	C	0.819878	-0.039375	0.000041
C71	C	0.768394	-0.107458	0.000025
C72	C	0.825545	-0.183249	-0.000030
H73	H	0.856739	-0.042032	0.055233
H74	H	0.856700	-0.041952	-0.055195
H75	H	0.731588	-0.104882	0.055255
H76	H	0.731535	-0.104829	-0.055163
H77	H	0.862367	-0.185826	-0.055265
H78	H	0.862403	-0.185898	0.055163
H79	H	0.790622	-0.229453	-0.000049
C80	C	1.236731	-0.466174	0.000274
C81	C	1.297541	-0.405565	0.001120
C82	C	1.385518	-0.446027	0.001257
H83	H	1.246186	-0.500103	-0.055171
H84	H	1.245711	-0.500798	0.055253
H85	H	1.288565	-0.370956	-0.053853
H86	H	1.288115	-0.371633	0.056560
H87	H	1.394498	-0.480650	0.056236
H88	H	1.394963	-0.479955	-0.054188
H89	H	1.426788	-0.404910	0.001840
H90	H	1.166973	0.012560	0.563383
C91	C	0.487626	0.274851	0.000125
C92	C	0.417473	0.340779	0.000149
C93	C	0.453275	0.418217	0.000196
H94	H	0.523563	0.278797	-0.055072
H95	H	0.523555	0.278718	0.055355
H96	H	0.381559	0.336914	-0.055075
H97	H	0.381530	0.336860	0.055343
H98	H	0.489204	0.422084	0.055425
H99	H	0.489212	0.422155	-0.055003
H100	H	0.405682	0.462958	0.000220
H101	H	0.977095	-0.426804	-0.143948
C102	C	0.929837	0.235067	0.242522
C103	C	0.944358	0.317634	0.266723
C104	C	0.883642	0.374810	0.216940
H105	H	0.870108	0.225965	0.258825
H106	H	0.938544	0.226953	0.176026
H107	H	0.935645	0.325744	0.333204
H108	H	1.004076	0.326762	0.250418
H109	H	0.892348	0.366696	0.150444
H110	H	0.823916	0.365701	0.233246
H111	H	0.893492	0.430838	0.233346
C112	C	0.775376	0.279957	0.000099
C113	C	0.705215	0.345879	0.000124
C114	C	0.741008	0.423322	0.000172
H115	H	0.811311	0.283909	-0.055100
H116	H	0.811304	0.283827	0.055328
H117	H	0.669301	0.342011	-0.055099
H118	H	0.669274	0.341956	0.055319
H119	H	0.776936	0.427192	0.055401
H120	H	0.776942	0.427264	-0.055027
H121	H	0.693410	0.468059	0.000198
C122	C	0.876659	-0.301454	0.000367
C123	C	0.831959	-0.324355	0.082289
C124	C	0.744121	-0.283568	0.082594
H125	H	0.845645	-0.317621	-0.054464
H126	H	0.878412	-0.242078	-0.000149
H127	H	0.830202	-0.383718	0.082796
H128	H	0.862946	-0.308187	0.137132
H129	H	0.745874	-0.224191	0.082078
H130	H	0.713116	-0.299738	0.027760
H131	H	0.713785	-0.299094	0.138181
H132	H	0.347448	-0.026851	0.000127
C133	C	0.929675	0.234972	0.757538
C134	C	0.876375	0.284885	0.692573
C135	C	0.815423	0.341935	0.742218
H136	H	0.961735	0.270076	0.796410
H137	H	0.892409	0.204703	0.796400
H138	H	0.913636	0.315151	0.653727
H139	H	0.844295	0.249804	0.653699
H140	H	0.778158	0.311667	0.781081
H141	H	0.847491	0.377034	0.781089
H142	H	0.779247	0.375803	0.698148
H143	H	0.946269	0.219464	0.563379
H144	H	1.166943	0.012551	0.256017
