data_functionalizedCrystal
_audit_creation_method	'MofGen! by Chris Wilmer'
_symmetry_space_group_name_H-M	'P1'
_symmetry_Int_Tables_number	1
_symmetry_cell_setting	triclinic
loop_
_symmetry_equiv_pos_as_xyz
  x,y,z
_cell_length_a	6.817900
_cell_length_b	16.418049
_cell_length_c	17.982968
_cell_angle_alpha	95.670566
_cell_angle_beta	102.451960
_cell_angle_gamma	103.389670
loop_
_atom_site_label
_atom_site_type_symbol
_atom_site_fract_x
_atom_site_fract_y
_atom_site_fract_z
V1	V	-4.014612	-0.116671	-0.237819
V2	V	-3.514612	0.383329	0.262181
O3	O	-4.002841	0.004799	-0.233015
O4	O	-3.502841	0.504799	0.266985
O5	O	-3.965746	-0.230563	-0.236458
O6	O	-3.465746	0.269437	0.263542
O7	O	-3.961125	-0.115231	-0.341418
O8	O	-3.461125	0.384769	0.158582
O9	O	-4.007494	-0.111332	-0.127328
O10	O	-3.507494	0.388668	0.372672
V11	V	-4.498960	-0.102100	-0.224571
V12	V	-3.998960	0.397900	0.275429
O13	O	-4.274062	-0.148635	-0.266879
O14	O	-3.774062	0.351365	0.233121
O15	O	-4.689707	-0.070137	-0.195511
O16	O	-4.189707	0.429863	0.304489
O17	O	-4.324619	0.011792	-0.225932
O18	O	-3.824619	0.511792	0.274068
O19	O	-4.628127	-0.223571	-0.229374
O20	O	-4.128127	0.276429	0.270626
O21	O	-4.623474	-0.107440	-0.335061
O22	O	-4.123474	0.392560	0.164939
O23	O	-4.329240	-0.103541	-0.120971
O24	O	-3.829240	0.396459	0.379029
C25	C	-3.810798	-0.258317	-0.232774
C26	C	-3.310798	0.241683	0.267226
C27	C	-3.852097	-0.351427	-0.232352
C28	C	-3.352097	0.148573	0.267648
C29	C	-4.128990	-0.569926	-0.235206
C30	C	-3.628990	-0.069926	0.264794
C31	C	-4.167783	-0.657414	-0.234816
C32	C	-3.667783	-0.157414	0.265184
C33	C	-3.803940	-0.648845	-0.227188
C34	C	-3.303940	-0.148845	0.272812
C35	C	-3.765153	-0.561359	-0.227584
C36	C	-3.265153	-0.061359	0.272416
C37	C	-3.927682	-0.521902	-0.231589
C38	C	-3.427682	-0.021902	0.268411
C39	C	-4.005263	-0.696875	-0.230803
C40	C	-3.505263	-0.196875	0.269197
C41	C	-4.047323	-0.791734	-0.230380
C42	C	-3.547323	-0.291734	0.269620
C43	C	-3.885621	-0.427038	-0.232013
C44	C	-3.385621	0.072962	0.267987
C45	C	-3.804903	-0.111198	-0.366661
C46	C	-3.304903	0.388802	0.133339
C47	C	-3.842452	-0.110774	-0.451356
C48	C	-3.342452	0.389226	0.048644
C49	C	-4.041996	-0.114772	-0.495037
C50	C	-3.541996	0.385228	0.004963
C51	C	-4.077265	-0.114373	-0.574617
C52	C	-3.577265	0.385627	-0.074617
C53	C	-3.912991	-0.109982	-0.610515
C54	C	-3.412991	0.390018	-0.110515
C55	C	-3.713429	-0.105981	-0.566828
C56	C	-3.213429	0.394019	-0.066828
C57	C	-3.678160	-0.106374	-0.487249
C58	C	-3.178160	0.393626	0.012751
C59	C	-3.855663	-0.104395	-0.887761
C60	C	-3.355663	0.395605	-0.387761
C61	C	-3.890951	-0.104005	-0.967347
C62	C	-3.390951	0.395995	-0.467347
C63	C	-4.254768	-0.112394	-0.975129
C64	C	-3.754768	0.387606	-0.475129
C65	C	-4.219499	-0.112787	-0.895550
C66	C	-3.719499	0.387213	-0.395550
C67	C	-4.019939	-0.108781	-0.851869
C68	C	-3.519939	0.391219	-0.351869
C69	C	-3.981698	-0.109212	-0.765580
C70	C	-3.481698	0.390788	-0.265580
C71	C	-3.951233	-0.109557	-0.696804
C72	C	-3.451233	0.390443	-0.196804
C73	C	-4.142909	0.039541	-0.229613
C74	C	-3.642909	0.539541	0.270387
C75	C	-4.080848	0.132650	-0.230040
C76	C	-3.580848	0.632650	0.269960
C77	C	-4.148805	-0.107577	-0.095724
C78	C	-3.648805	0.392423	0.404276
C79	C	-4.090494	-0.107997	-0.011028
C80	C	-3.590494	0.392003	0.488972
H81	H	-4.175774	-0.118353	-0.465816
H82	H	-3.675774	0.381647	0.034184
H83	H	-4.417261	-0.115651	-1.010704
H84	H	-3.917261	0.384349	-0.510704
H85	H	-4.261334	-0.537802	-0.238467
H86	H	-3.761334	-0.037802	0.261533
C87	C	-4.389232	-0.710237	-0.238793
C88	C	-3.889232	-0.210237	0.261207
N89	N	-4.556037	-0.750023	-0.241788
N90	N	-4.056037	-0.250023	0.258212
H91	H	-4.353273	-0.116366	-0.866327
H92	H	-3.853273	0.383634	-0.366327
C93	C	-3.543688	-0.508529	-0.223602
C94	C	-3.043688	-0.008529	0.276398
N95	N	-3.376887	-0.468737	-0.220604
N96	N	-2.876887	0.031263	0.279396
C97	C	-4.296771	-0.118761	-0.622661
C98	C	-3.796771	0.381239	-0.122661
N99	N	-4.462110	-0.122062	-0.658847
N100	N	-3.962110	0.377938	-0.158847
C101	C	-3.710221	-0.099166	-1.006831
C102	C	-3.210221	0.400834	-0.506831
N103	N	-3.574102	-0.095521	-1.036571
N104	N	-3.074102	0.404479	-0.536571
C105	C	-3.636157	-0.100008	-0.839725
C106	C	-3.136157	0.399992	-0.339725
N107	N	-3.470816	-0.096709	-0.803543
N108	N	-2.970816	0.403291	-0.303543
C109	C	-3.458649	-0.101979	-0.439200
C110	C	-2.958649	0.398021	0.060800
N111	N	-3.293307	-0.098667	-0.403011
N112	N	-2.793307	0.401333	0.096989
H113	H	-3.671619	-0.680982	-0.223925
H114	H	-3.171619	-0.180982	0.276075
H115	H	-3.579675	-0.102401	-0.596062
H116	H	-3.079675	0.397599	-0.096062
