data_functionalizedCrystal
_audit_creation_method	'MofGen! by Chris Wilmer'
_symmetry_space_group_name_H-M	'P1'
_symmetry_Int_Tables_number	1
_symmetry_cell_setting	triclinic
loop_
_symmetry_equiv_pos_as_xyz
  x,y,z
_cell_length_a	14.519709
_cell_length_b	14.519731
_cell_length_c	14.586319
_cell_angle_alpha	89.995223
_cell_angle_beta	90.002108
_cell_angle_gamma	83.684499
loop_
_atom_site_label
_atom_site_type_symbol
_atom_site_fract_x
_atom_site_fract_y
_atom_site_fract_z
O1	O	1.223876	0.120889	-0.076123
O2	O	0.955400	0.135125	-0.076151
O3	O	1.096746	-0.006230	-0.076128
O4	O	1.082530	0.262244	-0.076146
O5	O	1.096736	-0.006232	0.076353
O6	O	0.955390	0.135123	0.076329
O7	O	1.223866	0.120887	0.076358
Cu8	Cu	1.089627	0.128005	0.090266
Cu9	Cu	1.089639	0.128007	-0.090060
O10	O	1.082520	0.262242	0.076335
C11	C	0.921035	0.134461	0.000086
C12	C	0.818654	0.132473	0.000075
C13	C	1.096075	-0.040591	0.000112
C14	C	1.094079	-0.142971	0.000113
C15	C	0.443757	0.125153	0.000117
C16	C	0.548065	0.127186	0.000105
C17	C	0.631202	0.128813	0.000095
C18	C	0.735517	0.130846	0.000085
C19	C	1.092457	-0.226115	0.000110
C20	C	1.090430	-0.330424	0.000103
C21	C	1.088822	-0.413563	0.000097
C22	C	1.086795	-0.517878	0.000092
C23	C	1.258230	0.121551	0.000119
C24	C	1.360612	0.123539	0.000123
C25	C	1.083191	0.296603	0.000092
C26	C	1.085187	0.398983	0.000086
N27	N	1.089625	0.128002	0.217098
N28	N	1.089647	0.128002	-0.216892
C29	C	1.152234	0.065431	0.452115
C30	C	1.152237	0.065429	0.548096
C31	C	1.027032	0.190576	0.548085
C32	C	1.027026	0.190573	0.452105
C33	C	1.089632	0.128002	0.404123
C34	C	1.089641	0.128003	0.596084
C35	C	1.089643	0.128001	0.700151
C36	C	1.089629	0.128003	0.300049
H37	H	1.203211	0.014481	0.413050
C38	C	1.206130	-0.094101	0.577651
C39	C	1.221055	-0.003349	0.600847
H40	H	1.248621	-0.136563	0.610214
H41	H	1.144576	-0.104249	0.593388
H42	H	1.215086	-0.103042	0.513620
H43	H	1.212092	0.005594	0.664878
H44	H	1.282623	0.006803	0.585116
C45	C	0.971455	0.246157	0.695211
C46	C	0.958226	0.259361	0.600831
H47	H	0.928981	0.288630	0.727770
H48	H	0.961331	0.184595	0.710945
H49	H	1.033023	0.256308	0.710925
H50	H	0.896659	0.249204	0.585116
H51	H	0.968343	0.320938	0.585090
H52	H	0.976043	0.241526	0.413028
