data_functionalizedCrystal
_audit_creation_method	'MofGen! by Chris Wilmer'
_symmetry_space_group_name_H-M	'P1'
_symmetry_Int_Tables_number	1
_symmetry_cell_setting	triclinic
loop_
_symmetry_equiv_pos_as_xyz
  x,y,z
_cell_length_a	6.817900
_cell_length_b	10.992469
_cell_length_c	10.992410
_cell_angle_alpha	91.830594
_cell_angle_beta	108.764651
_cell_angle_gamma	108.765624
loop_
_atom_site_label
_atom_site_type_symbol
_atom_site_fract_x
_atom_site_fract_y
_atom_site_fract_z
V1	V	-4.114252	-0.177761	-0.400575
O2	O	-4.072376	0.008542	-0.392968
O3	O	-4.091835	-0.352470	-0.397817
O4	O	-4.091844	-0.175026	-0.575288
O5	O	-4.072367	-0.170130	-0.214269
V6	V	-4.591146	-0.155477	-0.378293
O7	O	-4.390054	-0.226642	-0.449451
O8	O	-4.765541	-0.106595	-0.329417
O9	O	-4.390356	0.019232	-0.381051
O10	O	-4.750419	-0.341780	-0.385900
O11	O	-4.750428	-0.163108	-0.564599
O12	O	-4.390347	-0.158211	-0.203581
C13	C	-3.942316	-0.395060	-0.391493
C14	C	-4.005448	-0.537887	-0.390403
C15	C	-3.807069	-0.584385	-0.382247
C16	C	-3.872923	-0.733022	-0.381616
C17	C	-4.270158	-0.764535	-0.515760
C18	C	-4.203032	-0.615889	-0.516930
C19	C	-4.079366	-0.577587	-0.271579
C20	C	-4.140104	-0.725808	-0.268700
C21	C	-3.942326	-0.168712	-0.617873
C22	C	-4.005461	-0.167632	-0.760701
C23	C	-3.872583	-0.157796	-0.955826
C24	C	-3.807033	-0.159451	-0.807342
C25	C	-4.203480	-0.294312	-0.837792
C26	C	-4.267793	-0.293192	-0.986359
C27	C	-4.145553	-0.047893	-0.948352
C28	C	-4.074844	-0.047293	-0.799339
C29	C	-4.203218	0.061816	-0.387371
C30	C	-4.119326	0.204641	-0.388470
C31	C	-4.203207	-0.164530	-0.160989
C32	C	-4.119310	-0.165603	-0.018159
H33	H	-4.027648	-0.744010	-0.174605
H34	H	-4.227052	-0.548039	-0.276362
H35	H	-3.942891	-0.523031	-0.176097
H36	H	-4.314806	-0.767458	-0.266277
H37	H	-3.749855	-0.245201	-0.782519
H38	H	-3.657894	-0.531792	-0.291257
C39	C	-4.253591	-0.830506	-0.635944
H40	H	-4.345464	-0.811279	-0.712497
H41	H	-4.104649	-0.799053	-0.632753
H42	H	-4.300475	-0.921894	-0.636733
H43	H	-3.847648	-0.242371	-1.003809
H44	H	-4.042637	0.048305	-0.968721
H45	H	-4.353047	-0.586514	-0.528115
H46	H	-3.658576	-0.068362	-0.754011
C47	C	-4.515288	-0.820977	-0.528825
H48	H	-4.527851	-0.863950	-0.456596
H49	H	-4.572610	-0.752589	-0.531143
H50	H	-4.596627	-0.881239	-0.606794
H51	H	-3.755378	-0.066081	-0.974664
H52	H	-3.847754	-0.779329	-0.467026
C53	C	-4.141690	-0.415019	-0.803199
H54	H	-4.262593	-0.491198	-0.850338
H55	H	-4.016279	-0.411118	-0.825273
H56	H	-4.108109	-0.417218	-0.712635
H57	H	-4.252233	-0.382320	-1.032620
C58	C	-4.513662	-0.308090	-1.043959
H59	H	-4.573837	-0.314808	-0.976542
H60	H	-4.526920	-0.234398	-1.083997
H61	H	-4.591925	-0.384292	-1.106859
C62	C	-4.406624	-0.308595	-0.798878
H63	H	-4.372390	-0.237259	-0.735113
H64	H	-4.527164	-0.310011	-0.873223
H65	H	-4.445615	-0.387324	-0.764263
C66	C	-3.881324	0.079308	-0.728632
H67	H	-3.758751	0.058926	-0.675775
H68	H	-3.840231	0.129927	-0.790805
H69	H	-3.925595	0.127165	-0.675666
H70	H	-4.216957	-0.045805	-0.766828
H71	H	-4.157387	-0.592854	-0.606780
C72	C	-4.387333	-0.054102	-1.003526
H73	H	-4.471931	-0.128024	-1.068784
H74	H	-4.446438	-0.060482	-0.935663
H75	H	-4.392788	0.022362	-1.040201
H76	H	-3.756357	-0.752659	-0.290140
C77	C	-3.729527	-0.548372	-0.497559
H78	H	-3.817530	-0.505125	-0.550654
H79	H	-3.578943	-0.492631	-0.465817
H80	H	-3.744321	-0.625155	-0.547365
