data_functionalizedCrystal
_audit_creation_method	'MofGen! by Chris Wilmer'
_symmetry_space_group_name_H-M	'P1'
_symmetry_Int_Tables_number	1
_symmetry_cell_setting	triclinic
loop_
_symmetry_equiv_pos_as_xyz
  x,y,z
_cell_length_a	12.759395
_cell_length_b	13.897448
_cell_length_c	12.759387
_cell_angle_alpha	90.032712
_cell_angle_beta	90.020509
_cell_angle_gamma	90.019229
loop_
_atom_site_label
_atom_site_type_symbol
_atom_site_fract_x
_atom_site_fract_y
_atom_site_fract_z
Zn1	Zn	1.606247	-0.383924	0.593991
Zn2	Zn	2.106247	0.116076	1.093991
Zn3	Zn	1.606128	-0.545252	0.418306
Zn4	Zn	2.106128	-0.045252	0.918306
Zn5	Zn	1.430545	-0.383977	0.418328
Zn6	Zn	1.930545	0.116023	0.918328
Zn7	Zn	1.430528	-0.545184	0.593945
Zn8	Zn	1.930528	-0.045184	1.093945
O9	O	1.518362	-0.464584	0.506142
O10	O	2.018362	0.035416	1.006142
O11	O	1.753252	-0.405332	0.570696
O12	O	2.253252	0.094668	1.070696
O13	O	1.582794	-0.523909	0.271287
O14	O	2.082794	-0.023909	0.771287
O15	O	1.453909	-0.248988	0.441659
O16	O	1.953909	0.251012	0.941659
O17	O	1.753165	-0.523858	0.441621
O18	O	2.253165	-0.023858	0.941621
O19	O	1.582996	-0.248950	0.570718
O20	O	2.082996	0.251050	1.070718
O21	O	1.453794	-0.405421	0.271304
O22	O	1.953794	0.094579	0.771304
O23	O	1.283522	-0.405355	0.441614
O24	O	1.783522	0.094645	0.941614
O25	O	1.453880	-0.523741	0.740972
O26	O	1.953880	-0.023741	1.240972
O27	O	1.283509	-0.523792	0.570639
O28	O	1.783509	-0.023792	1.070639
O29	O	1.582980	-0.405265	0.741006
O30	O	2.082980	0.094735	1.241006
O31	O	1.582778	-0.680225	0.441576
O32	O	2.082778	-0.180225	0.941576
O33	O	1.453765	-0.680174	0.570617
O34	O	1.953765	-0.180174	1.070617
C35	C	1.245395	-0.464573	0.506124
C36	C	1.745395	0.035427	1.006124
C37	C	1.128618	-0.464591	0.506142
C38	C	1.628618	0.035409	1.006142
C39	C	1.128644	-0.588119	0.640278
C40	C	1.628644	-0.088119	1.140278
C41	C	1.073796	-0.649891	0.707349
C42	C	1.573796	-0.149891	1.207349
C43	C	0.964074	-0.649903	0.707362
C44	C	1.464074	-0.149903	1.207362
C45	C	0.909198	-0.588134	0.640299
C46	C	1.409198	-0.088134	1.140299
C47	C	0.964046	-0.526362	0.573227
C48	C	1.464046	-0.026362	1.073227
C49	C	1.073770	-0.526359	0.573220
C50	C	1.573770	-0.026359	1.073220
C51	C	0.964020	-0.402830	0.439098
C52	C	1.464020	0.097170	0.939098
C53	C	1.073742	-0.402822	0.439078
C54	C	1.573742	0.097178	0.939078
C55	C	0.909144	-0.341061	0.372035
C56	C	1.409144	0.158939	0.872035
C57	C	0.963992	-0.279293	0.304957
C58	C	1.463992	0.220707	0.804957
C59	C	1.073720	-0.279284	0.304946
C60	C	1.573720	0.220716	0.804946
C61	C	1.128590	-0.341050	0.372007
C62	C	1.628590	0.158950	0.872007
C63	C	1.518285	-0.715199	0.506112
C64	C	2.018285	-0.215199	1.006112
C65	C	1.518349	-0.822413	0.506134
C66	C	2.018349	-0.322413	1.006134
C67	C	1.518459	-1.018708	0.506200
C68	C	2.018459	-0.518708	1.006200
C69	C	1.518395	-0.909475	0.506167
C70	C	2.018395	-0.409475	1.006167
C71	C	1.792395	-0.464597	0.506161
C72	C	2.292395	0.035403	1.006161
C73	C	1.909172	-0.464602	0.506169
C74	C	2.409172	0.035398	1.006169
C75	C	1.518441	-0.464490	0.780176
C76	C	2.018441	0.035510	1.280176
C77	C	1.518475	-0.464449	0.896953
C78	C	2.018475	0.035551	1.396953
C79	C	1.518468	-0.212991	0.506196
C80	C	2.018468	0.287009	1.006196
C81	C	1.518513	-0.105777	0.506219
C82	C	2.018513	0.394223	1.006219
C83	C	1.518344	-0.464609	0.233175
C84	C	2.018344	0.035391	0.733175
C85	C	1.518513	-0.464377	0.116399
C86	C	2.018513	0.035623	0.616399
C87	C	1.652916	-0.341088	0.897008
C88	C	2.152916	0.158912	1.397008
C89	C	1.720151	-0.279393	0.951896
C90	C	2.220151	0.220607	1.451896
C91	C	1.720176	-0.279358	1.061618
C92	C	2.220176	0.220642	1.561618
C93	C	1.652958	-0.341022	1.116454
C94	C	2.152958	0.158978	1.616454
C95	C	1.585723	-0.402718	1.061565
C96	C	2.085723	0.097282	1.561565
C97	C	1.585707	-0.402748	0.951841
C98	C	2.085707	0.097252	1.451841
C99	C	1.451278	-0.526072	1.061510
C100	C	1.951278	-0.026072	1.561510
C101	C	1.451256	-0.526114	0.951789
C102	C	1.951256	-0.026114	1.451789
C103	C	1.384059	-0.587737	1.116346
C104	C	1.884059	-0.087737	1.616346
C105	C	1.316828	-0.649438	1.061458
C106	C	1.816828	-0.149438	1.561458
C107	C	1.316806	-0.649472	0.951729
C108	C	1.816806	-0.149472	1.451729
C109	C	1.384021	-0.587809	0.896900
C110	C	1.884021	-0.087809	1.396900
H111	H	0.919303	-0.229001	0.250364
H112	H	1.419303	0.270999	0.750364
Cl113	Cl	1.384004	-0.587850	0.758963
Cl114	Cl	1.884004	-0.087850	1.258963
H115	H	1.774918	-0.229114	1.106308
H116	H	2.274918	0.270886	1.606308
Cl117	Cl	1.232271	-0.727031	0.882736
Cl118	Cl	1.732271	-0.227031	1.382736
Cl119	Cl	1.652904	-0.341141	0.759071
Cl120	Cl	2.152904	0.158859	1.259071
H121	H	1.118371	-0.228975	0.250335
H122	H	1.618371	0.271025	0.750335
Cl123	Cl	1.804625	-0.201853	0.882956
Cl124	Cl	2.304625	0.298147	1.382956
Cl125	Cl	1.142787	-0.727546	0.791645
Cl126	Cl	1.642787	-0.227546	1.291645
H127	H	1.262098	-0.699636	1.106114
H128	H	1.762098	-0.199636	1.606114
Cl129	Cl	0.771207	-0.341070	0.372057
Cl130	Cl	1.271207	0.158930	0.872057
Cl131	Cl	1.384091	-0.587693	1.254283
Cl132	Cl	1.884091	-0.087693	1.754283
Cl133	Cl	1.266526	-0.341049	0.371995
Cl134	Cl	1.766526	0.158951	0.871995
Cl135	Cl	0.895119	-0.727554	0.791686
Cl136	Cl	1.395119	-0.227554	1.291686
Cl137	Cl	0.771261	-0.588137	0.640332
Cl138	Cl	1.271261	-0.088137	1.140332
Cl139	Cl	1.266580	-0.588123	0.640252
Cl140	Cl	1.766580	-0.088123	1.140252
Cl141	Cl	1.652982	-0.340967	1.254391
Cl142	Cl	2.152982	0.159033	1.754391
