data_functionalizedCrystal
_audit_creation_method	'MofGen! by Chris Wilmer'
_symmetry_space_group_name_H-M	'P1'
_symmetry_Int_Tables_number	1
_symmetry_cell_setting	triclinic
loop_
_symmetry_equiv_pos_as_xyz
  x,y,z
_cell_length_a	15.072220
_cell_length_b	14.853567
_cell_length_c	14.853567
_cell_angle_alpha	96.365070
_cell_angle_beta	89.997324
_cell_angle_gamma	89.990469
loop_
_atom_site_label
_atom_site_type_symbol
_atom_site_fract_x
_atom_site_fract_y
_atom_site_fract_z
O1	O	0.073714	-1.196376	0.117698
O2	O	0.073728	-0.933916	0.131720
O3	O	0.073723	-1.072157	-0.006521
O4	O	0.073718	-1.058135	0.255939
O5	O	-0.073842	-1.072123	-0.006513
O6	O	-0.073837	-0.933882	0.131727
O7	O	-0.073851	-1.196342	0.117706
Zn8	Zn	-0.097273	-1.065106	0.124718
Zn9	Zn	0.097150	-1.065152	0.124708
O10	O	-0.073847	-1.058101	0.255946
C11	C	-0.000053	-0.900311	0.131088
C12	C	-0.000047	-0.800227	0.129184
N13	N	-0.229962	-1.065082	0.124724
C14	C	-0.000057	-1.071504	-0.040106
C15	C	-0.000049	-1.069601	-0.140189
C16	C	-0.589164	-1.065150	0.124704
C17	C	-0.551554	-0.990931	0.198425
C18	C	-0.448728	-0.991102	0.198695
C19	C	-0.410960	-1.065115	0.124714
C20	C	-0.448257	-1.159209	0.145377
C21	C	-0.551115	-1.158793	0.145902
C22	C	-0.551261	-1.046114	0.030102
C23	C	-0.448398	-1.043956	0.030730
C24	C	-0.310246	-1.065102	0.124718
C25	C	-0.689877	-1.065169	0.124702
N26	N	0.229839	-1.065183	0.124694
C27	C	-0.000069	-1.229947	0.118337
C28	C	-0.000069	-1.330031	0.120241
C29	C	-0.000065	-0.387693	0.039019
C30	C	-0.000067	-0.366412	0.203251
C31	C	-0.000064	-0.460446	0.205042
C32	C	-0.000061	-0.518108	0.123819
C33	C	-0.000060	-0.481736	0.040806
C34	C	-0.000056	-0.496825	0.288053
C35	C	-0.000052	-0.590864	0.289846
C36	C	-0.000055	-0.648528	0.208623
C37	C	-0.000055	-0.612150	0.125607
C38	C	-0.000051	-0.669812	0.044384
C39	C	-0.000058	-0.633437	-0.038633
C40	C	-0.000062	-0.539399	-0.040417
C41	C	-0.000051	-0.742565	0.210407
C42	C	-0.000046	-0.763855	0.046172
C43	C	-0.000061	-0.979435	-0.552723
C44	C	-0.000070	-1.143668	-0.574004
C45	C	-0.000065	-1.145458	-0.479971
C46	C	-0.000059	-1.064235	-0.422309
C47	C	-0.000059	-0.981223	-0.458680
C48	C	-0.000074	-1.228469	-0.443591
C49	C	-0.000070	-1.230262	-0.349552
C50	C	-0.000058	-1.149039	-0.291889
C51	C	-0.000057	-1.066023	-0.328266
C52	C	-0.000051	-0.984800	-0.270604
C53	C	-0.000043	-0.901783	-0.306979
C54	C	-0.000047	-0.899999	-0.401017
C55	C	-0.000055	-1.150823	-0.197851
C56	C	-0.000048	-0.986588	-0.176561
C57	C	-0.000065	-1.058754	0.289531
C58	C	-0.000067	-1.060657	0.389615
H59	H	-0.423513	-0.921164	0.186366
N60	N	-0.000070	-1.240351	-0.158618
H61	H	-0.054774	-1.244733	-0.120072
H62	H	-0.000048	-1.291479	-0.209467
N63	N	-0.000084	-0.348468	-0.050518
H64	H	-0.000093	-0.280146	-0.039331
H65	H	0.054620	-0.369555	-0.086073
H66	H	-0.423790	-1.215761	0.093116
N67	N	-0.000062	-0.304226	0.290852
H68	H	-0.000062	-0.239134	0.277123
H69	H	-0.054767	-0.316005	0.327026
N70	N	-0.585651	-0.957176	0.003840
H71	H	-0.534121	-0.915342	-0.004179
H72	H	-0.619731	-0.968350	-0.054877
H73	H	-0.000045	-0.835652	-0.260019
N74	N	-0.000092	-1.316062	-0.505790
H75	H	0.054611	-1.318993	-0.545285
H76	H	-0.000134	-1.368876	-0.468423
H77	H	-0.000050	-0.449870	0.354180
H78	H	-0.576311	-0.920768	0.186298
H79	H	-0.422691	-1.094493	-0.026709
N80	N	-0.585769	-1.006829	0.290894
H81	H	-0.561293	-0.958865	0.337852
H82	H	-0.652707	-1.003696	0.291152
H83	H	-0.000041	-0.832411	-0.430643
N84	N	-0.000048	-0.889898	-0.591948
H85	H	-0.000048	-0.901085	-0.660270
H86	H	-0.054750	-0.854339	-0.570859
N87	N	-0.000040	-0.630095	0.379380
H88	H	-0.000039	-0.579296	0.430561
H89	H	-0.054742	-0.668641	0.383707
N90	N	-0.584073	-1.234161	0.077505
H91	H	-0.651082	-1.234481	0.077314
H92	H	-0.561613	-1.224258	0.015302
H93	H	-0.000047	-0.772178	0.277998
N94	N	-0.000086	-1.231263	-0.636199
H95	H	0.054612	-1.234192	-0.675699
H96	H	-0.000121	-1.284074	-0.598828
N97	N	-0.000060	-0.695629	-0.126238
H98	H	0.054639	-0.683925	-0.162457
H99	H	-0.000086	-0.760694	-0.112430
N100	N	-0.000035	-0.898982	-0.114371
H101	H	-0.000029	-0.846125	-0.151686
H102	H	-0.054739	-0.896130	-0.074887
H103	H	-0.000075	-1.297860	-0.319944
H104	H	-0.575098	-1.175549	0.214898
N105	N	-0.416116	-1.006977	0.291747
H106	H	-0.468559	-1.013923	0.332741
H107	H	-0.378944	-1.063880	0.287196
H108	H	-0.422490	-1.176362	0.213588
H109	H	-0.424021	-0.974740	0.015051
N110	N	-0.583471	-1.117800	-0.042574
H111	H	-0.622424	-1.162398	-0.014408
H112	H	-0.618639	-1.088232	-0.089160
H113	H	-0.000046	-0.810798	-0.019971
H114	H	-0.000089	-0.509774	-0.108005
