data_functionalizedCrystal
_audit_creation_method	'MofGen! by Chris Wilmer'
_symmetry_space_group_name_H-M	'P1'
_symmetry_Int_Tables_number	1
_symmetry_cell_setting	triclinic
loop_
_symmetry_equiv_pos_as_xyz
  x,y,z
_cell_length_a	9.065218
_cell_length_b	19.188930
_cell_length_c	7.540329
_cell_angle_alpha	89.991297
_cell_angle_beta	89.996962
_cell_angle_gamma	84.080333
loop_
_atom_site_label
_atom_site_type_symbol
_atom_site_fract_x
_atom_site_fract_y
_atom_site_fract_z
O1	O	1.956847	0.102369	-0.147510
O2	O	1.527271	0.110766	-0.147515
O3	O	1.754456	0.005009	-0.147478
O4	O	1.729662	0.208127	-0.147547
O5	O	1.754442	0.005007	0.147487
O6	O	1.527257	0.110765	0.147450
O7	O	1.956833	0.102368	0.147455
Cu8	Cu	1.742044	0.106566	0.174385
Cu9	Cu	1.742060	0.106568	-0.174445
O10	O	1.729649	0.208126	0.147418
C11	C	1.472305	0.109959	-0.000032
C12	C	1.308546	0.107546	-0.000033
C13	C	1.753646	-0.021009	0.000010
C14	C	1.751236	-0.098533	0.000025
C15	C	1.884540	-0.142421	0.000035
C16	C	1.882276	-0.215262	0.000006
C17	C	1.746699	-0.244212	0.000004
C18	C	1.613377	-0.200314	-0.000016
C19	C	1.615646	-0.127474	-0.000006
N20	N	1.643063	-0.353023	0.100385
N21	N	1.640917	-0.422218	0.100379
C22	C	1.739858	-0.463674	-0.000032
N23	N	1.841047	-0.433322	-0.100414
N24	N	1.843197	-0.364120	-0.100400
C25	C	1.744225	-0.323194	-0.000009
C26	C	1.870716	-0.586546	-0.000056
C27	C	1.868446	-0.659388	-0.000095
C28	C	1.599544	-0.644438	-0.000100
C29	C	1.601818	-0.571598	-0.000078
C30	C	1.737408	-0.542656	-0.000048
C31	C	2.011799	0.103176	-0.000032
C32	C	2.175558	0.105589	-0.000043
C33	C	1.730458	0.234144	-0.000074
C34	C	1.732869	0.311667	-0.000101
N35	N	1.742044	0.106565	0.419734
N36	N	1.742072	0.106564	-0.419794
H37	H	1.994948	-0.118862	0.000054
O38	O	2.002327	-0.558342	-0.000285
C39	C	2.160975	-0.484794	-0.153137
C40	C	2.011863	-0.516673	-0.153073
H41	H	2.168747	-0.451109	-0.276671
H42	H	2.168779	-0.451032	-0.029769
H43	H	2.255845	-0.528688	-0.153066
H44	H	1.916907	-0.472824	-0.153206
H45	H	2.004188	-0.550452	-0.276430
O46	O	1.997847	-0.702097	0.000142
C47	C	2.151363	-0.792999	0.152992
C48	C	2.004747	-0.744682	0.152926
H49	H	2.157003	-0.827432	0.276523
H50	H	2.157052	-0.827509	0.029621
H51	H	2.248633	-0.759786	0.152929
H52	H	1.907394	-0.777841	0.153051
H53	H	1.999187	-0.710169	0.276286
O54	O	1.481549	-0.228317	-0.000096
C55	C	1.215079	-0.205804	-0.000009
C56	C	1.364275	-0.173999	0.000053
H57	H	1.120224	-0.161903	0.000149
H58	H	1.207204	-0.239499	-0.123483
H59	H	1.207366	-0.239564	0.123402
H60	H	1.372089	-0.140207	-0.123273
H61	H	1.372086	-0.140345	0.123610
O62	O	1.467805	-0.672517	-0.000419
C63	C	1.237255	-0.681976	-0.153191
C64	C	1.386416	-0.650141	-0.153062
H65	H	1.171397	-0.663886	-0.276571
H66	H	1.258439	-0.741580	-0.153317
H67	H	1.171457	-0.663991	-0.029692
H68	H	1.452291	-0.668072	-0.276540
H69	H	1.365128	-0.590542	-0.152844
H70	H	1.990832	-0.251003	0.000007
H71	H	1.493266	-0.535863	-0.000076
O72	O	1.486244	-0.084766	0.000230
C73	C	1.332703	0.006105	0.153110
C74	C	1.479319	-0.042212	0.153040
H75	H	1.327042	0.040511	0.276662
H76	H	1.327034	0.040640	0.029761
H77	H	1.235433	-0.027109	0.153009
H78	H	1.576672	-0.009054	0.153204
H79	H	1.484858	-0.076752	0.276379
