data_functionalizedCrystal
_audit_creation_method	'MofGen! by Chris Wilmer'
_symmetry_space_group_name_H-M	'P1'
_symmetry_Int_Tables_number	1
_symmetry_cell_setting	triclinic
loop_
_symmetry_equiv_pos_as_xyz
  x,y,z
_cell_length_a	18.050591
_cell_length_b	18.050590
_cell_length_c	18.050582
_cell_angle_alpha	90.023337
_cell_angle_beta	90.010544
_cell_angle_gamma	90.017393
loop_
_atom_site_label
_atom_site_type_symbol
_atom_site_fract_x
_atom_site_fract_y
_atom_site_fract_z
Zn1	Zn	1.135342	-0.295730	0.419822
Zn2	Zn	1.135274	-0.419913	0.295630
Zn3	Zn	1.011162	-0.295739	0.295655
Zn4	Zn	1.011131	-0.419880	0.419788
O5	O	1.073227	-0.357815	0.357724
O6	O	1.239258	-0.312213	0.403351
O7	O	1.118795	-0.403459	0.191709
O8	O	1.027676	-0.191813	0.312151
O9	O	1.239208	-0.403450	0.312108
O10	O	1.118911	-0.191806	0.403376
O11	O	1.027610	-0.312228	0.191727
O12	O	0.907233	-0.312196	0.312118
O13	O	1.027623	-0.403393	0.523717
O14	O	0.907210	-0.403402	0.403318
O15	O	1.118881	-0.312181	0.523742
O16	O	1.118764	-0.523833	0.312075
O17	O	1.027557	-0.523809	0.403294
C18	C	0.880275	-0.357797	0.357718
C19	C	0.797729	-0.357807	0.357733
C20	C	0.548913	-0.407508	0.407260
C21	C	0.598286	-0.425579	0.339473
C22	C	0.500609	-0.357831	0.357731
C23	C	0.598317	-0.339783	0.425514
C24	C	0.646594	-0.357821	0.357736
C25	C	0.548895	-0.375937	0.289909
C26	C	0.548922	-0.290110	0.375996
C27	C	0.598273	-0.308155	0.308163
C28	C	0.416511	-0.357838	0.357730
C29	C	0.730690	-0.357813	0.357730
C30	C	1.073170	-0.550767	0.357694
C31	C	1.073214	-0.633313	0.357706
C32	C	1.122915	-0.832750	0.308171
C33	C	1.141051	-0.882089	0.375950
C34	C	1.073256	-0.784444	0.357736
C35	C	1.055196	-0.882186	0.289988
C36	C	1.073298	-0.930429	0.357759
C37	C	1.091426	-0.832695	0.425550
C38	C	1.005539	-0.832788	0.339543
C39	C	1.023649	-0.882105	0.407368
C40	C	1.073233	-0.700345	0.357722
C41	C	1.073320	-1.014525	0.357780
C42	C	1.266933	-0.357834	0.357730
C43	C	1.349478	-0.357842	0.357733
C44	C	1.073256	-0.357782	0.551430
C45	C	1.073269	-0.357768	0.633975
C46	C	1.073305	-0.164110	0.357770
C47	C	1.073338	-0.081564	0.357789
C48	C	1.073241	-0.357794	0.164772
C49	C	1.073372	-0.357599	0.082226
C50	C	1.023680	-0.407302	0.833413
C51	C	1.091439	-0.425457	0.882799
C52	C	1.073305	-0.357712	0.785106
C53	C	1.005584	-0.339536	0.882802
C54	C	1.073335	-0.357658	0.931091
C55	C	1.141099	-0.375902	0.833405
C56	C	1.055199	-0.289950	0.833403
C57	C	1.123004	-0.308079	0.882767
C58	C	1.073287	-0.357744	0.701008
C59	C	1.073360	-0.357626	1.015188
H60	H	0.619969	-0.482845	0.324021
C61	C	1.034901	-0.911069	0.213516
C62	C	1.087045	-0.886045	0.161844
C63	C	1.068375	-0.912626	0.091389
H64	H	1.034632	-0.963689	0.214083
H65	H	0.987132	-0.893441	0.200203
H66	H	1.134801	-0.903676	0.175154
H67	H	1.087322	-0.833428	0.161254
H68	H	1.020607	-0.894999	0.078076
H69	H	1.068106	-0.965245	0.091963
H70	H	1.103748	-0.895646	0.056320
C71	C	0.520151	-0.463631	0.463045
C72	C	0.580090	-0.498992	0.497281
C73	C	0.553623	-0.550706	0.548663
H74	H	0.491218	-0.438988	0.499443
H75	H	0.490480	-0.499378	0.438273
H76	H	0.609748	-0.463251	0.522053
H77	H	0.609029	-0.523650	0.460903
H78	H	0.523951	-0.586452	0.523891
H79	H	0.524689	-0.526056	0.585055
H80	H	0.594286	-0.574709	0.571893
C81	C	1.217448	-0.396609	0.804560
C82	C	1.212157	-0.460881	0.761429
C83	C	1.282473	-0.479987	0.734853
H84	H	1.236401	-0.357284	0.775185
H85	H	1.249780	-0.405310	0.845170
H86	H	1.179836	-0.452176	0.720825
H87	H	1.193216	-0.500220	0.790788
H88	H	1.314805	-0.488688	0.775462
H89	H	1.301420	-0.440657	0.705481
H90	H	1.278893	-0.523600	0.705591
H91	H	1.165031	-0.266119	0.904300
H92	H	0.527277	-0.391267	0.232572
C93	C	1.178860	-0.803702	0.252348
C94	C	1.177639	-0.726145	0.252578
C95	C	1.229158	-0.699360	0.201160
H96	H	1.227003	-0.820503	0.265339
H97	H	1.166482	-0.821333	0.204314
H98	H	1.190022	-0.708522	0.300601
H99	H	1.129508	-0.709325	0.239579
H100	H	1.216780	-0.716991	0.153127
H101	H	1.277298	-0.716166	0.214156
H102	H	1.228332	-0.646736	0.201305
C103	C	1.217367	-0.911110	0.396531
C104	C	1.216201	-0.988667	0.396951
C105	C	1.286487	-1.015419	0.415918
H106	H	1.252654	-0.894295	0.361306
H107	H	1.230545	-0.893469	0.444348
H108	H	1.203033	-1.006300	0.349141
H109	H	1.180928	-1.005501	0.432177
H110	H	1.299665	-0.997779	0.463736
H111	H	1.321769	-0.998599	0.380692
H112	H	1.285703	-1.068043	0.416213
C113	C	0.967787	-0.463224	0.804365
C114	C	0.968015	-0.462055	0.726808
C115	C	0.916534	-0.513554	0.700023
H116	H	0.980720	-0.511366	0.821200
H117	H	0.919769	-0.450799	0.821963
H118	H	1.016022	-0.474484	0.709218
H119	H	0.955074	-0.413925	0.709953
H120	H	0.868516	-0.501129	0.717621
H121	H	0.929471	-0.561692	0.716863
H122	H	0.916677	-0.512763	0.647399
H123	H	1.106662	-0.811049	0.482903
C124	C	0.627410	-0.319476	0.501901
C125	C	0.704967	-0.319106	0.500725
C126	C	0.731790	-0.300419	0.571082
H127	H	0.609862	-0.271704	0.515284
H128	H	0.610552	-0.354835	0.537043
H129	H	0.721818	-0.283749	0.465595
H130	H	0.722534	-0.366871	0.487355
H131	H	0.714932	-0.335778	0.606223
H132	H	0.714237	-0.252648	0.584459
H133	H	0.784414	-0.300172	0.570295
H134	H	0.619809	-0.266140	0.266232
H135	H	0.981672	-0.903639	0.449342
C136	C	0.520019	-0.213801	0.396775
C137	C	0.545001	-0.195196	0.467827
C138	C	0.518381	-0.124911	0.487006
H139	H	0.537637	-0.178309	0.362158
H140	H	0.467390	-0.214241	0.396218
H141	H	0.597619	-0.194750	0.468378
H142	H	0.527385	-0.230669	0.502460
H143	H	0.465752	-0.125351	0.486449
H144	H	0.536000	-0.089425	0.452384
H145	H	0.535322	-0.112281	0.535218
C146	C	0.929206	-0.803921	0.318829
C147	C	0.910560	-0.828939	0.247799
C148	C	0.840251	-0.802352	0.228680
H149	H	0.893745	-0.821538	0.353482
H150	H	0.929627	-0.751292	0.319376
H151	H	0.910133	-0.881557	0.247257
H152	H	0.946002	-0.811325	0.213130
H153	H	0.840673	-0.749724	0.229227
H154	H	0.804796	-0.819971	0.263337
H155	H	0.827594	-0.819318	0.180482
H156	H	1.106771	-0.482739	0.904496
C157	C	1.034578	-0.213620	0.804481
C158	C	0.963572	-0.194904	0.829449
C159	C	0.944538	-0.124600	0.802811
H160	H	1.069276	-0.178173	0.822096
H161	H	1.035122	-0.214079	0.751853
H162	H	0.963034	-0.194440	0.882067
H163	H	0.928859	-0.230333	0.811837
H164	H	0.945083	-0.125059	0.750182
H165	H	0.979241	-0.089159	0.820427
H166	H	0.896357	-0.111895	0.819742
C167	C	0.929140	-0.319165	0.911633
C168	C	0.877401	-0.371287	0.886610
C169	C	0.806971	-0.352547	0.913145
H170	H	0.929710	-0.318862	0.964253
H171	H	0.915884	-0.271398	0.893973
H172	H	0.890653	-0.419041	0.904274
H173	H	0.876808	-0.371597	0.833993
H174	H	0.793716	-0.304780	0.895484
H175	H	0.807550	-0.352244	0.965764
H176	H	0.771857	-0.387904	0.896165
