data_functionalizedCrystal
_audit_creation_method	'MofGen! by Chris Wilmer'
_symmetry_space_group_name_H-M	'P1'
_symmetry_Int_Tables_number	1
_symmetry_cell_setting	triclinic
loop_
_symmetry_equiv_pos_as_xyz
  x,y,z
_cell_length_a	29.839134
_cell_length_b	29.839131
_cell_length_c	10.686551
_cell_angle_alpha	94.418204
_cell_angle_beta	94.398506
_cell_angle_gamma	90.015800
loop_
_atom_site_label
_atom_site_type_symbol
_atom_site_fract_x
_atom_site_fract_y
_atom_site_fract_z
Zn1	Zn	0.706285	-0.159574	0.713405
Zn2	Zn	0.700443	-0.240477	0.502347
Zn3	Zn	0.625387	-0.165335	0.502410
Zn4	Zn	0.631121	-0.234655	0.713296
O5	O	0.665809	-0.200010	0.607865
O6	O	0.768378	-0.170331	0.685427
O7	O	0.685642	-0.235357	0.325770
O8	O	0.636164	-0.101701	0.530471
O9	O	0.764085	-0.229771	0.530363
O10	O	0.695599	-0.097469	0.685488
O11	O	0.630499	-0.180150	0.325817
O12	O	0.563280	-0.174505	0.530365
O13	O	0.645936	-0.219848	0.889896
O14	O	0.567493	-0.225434	0.685302
O15	O	0.701159	-0.164686	0.889976
O16	O	0.691202	-0.302574	0.530258
O17	O	0.640271	-0.298296	0.685241
C18	C	0.549085	-0.199963	0.607830
C19	C	0.499151	-0.199953	0.607845
C20	C	0.665737	-0.316736	0.607758
C21	C	0.665749	-0.366670	0.607755
C22	C	0.144800	-0.169116	0.688765
C23	C	0.332472	-0.169080	0.688736
O24	O	0.358638	-0.142804	0.757531
N25	N	0.353707	-0.199981	0.607874
C26	C	0.328021	-0.230895	0.527020
O27	O	0.350389	-0.257181	0.458251
C28	C	0.140350	-0.230932	0.527056
C29	C	0.119117	-0.200026	0.607914
C30	C	0.123567	-0.138212	0.769617
C31	C	0.076652	-0.138220	0.769619
C32	C	0.050969	-0.169131	0.688768
C33	C	0.072202	-0.200034	0.607916
C34	C	0.114664	-0.261848	0.446209
C35	C	0.067744	-0.261855	0.446228
C36	C	0.046512	-0.230949	0.527086
C37	C	-0.000396	-0.230952	0.527067
N38	N	-0.021631	-0.200051	0.607928
C39	C	0.004052	-0.169140	0.688779
C40	C	0.426551	-0.230873	0.527005
C41	C	0.473469	-0.230863	0.526994
C42	C	0.477917	-0.169049	0.688712
C43	C	0.430998	-0.169057	0.688715
C44	C	0.405316	-0.199972	0.607866
C45	C	-0.094474	-0.169158	0.688776
C46	C	-0.141394	-0.169167	0.688766
C47	C	-0.145838	-0.230983	0.527054
C48	C	-0.098923	-0.230973	0.527058
C49	C	-0.073242	-0.200059	0.607929
O50	O	-0.026589	-0.257218	0.458317
O51	O	-0.018324	-0.142865	0.757558
C52	C	0.191715	-0.169108	0.688763
C53	C	0.212948	-0.200011	0.607911
C54	C	0.187265	-0.230922	0.527060
C55	C	0.259866	-0.200002	0.607900
C56	C	0.285548	-0.169091	0.688751
C57	C	0.264314	-0.138190	0.769612
C58	C	0.217398	-0.138197	0.769614
C59	C	0.208500	-0.261823	0.446199
C60	C	0.255416	-0.261813	0.446203
C61	C	0.281098	-0.230902	0.527053
C62	C	0.696754	-0.674069	0.688697
C63	C	0.696805	-0.861740	0.688773
O64	O	0.723097	-0.884098	0.757514
N65	N	0.665889	-0.887448	0.608005
C66	C	0.634957	-0.866237	0.527217
O67	O	0.608659	-0.892409	0.458530
C68	C	0.634904	-0.678566	0.527149
C69	C	0.665825	-0.652860	0.607913
C70	C	0.727672	-0.648362	0.769456
C71	C	0.727660	-0.601448	0.769431
C72	C	0.696731	-0.580239	0.688648
C73	C	0.665813	-0.605945	0.607889
C74	C	0.603970	-0.657355	0.446369
C75	C	0.603959	-0.610434	0.446362
C76	C	0.634879	-0.584728	0.527126
C77	C	0.634873	-0.537822	0.527081
N78	N	0.665788	-0.512113	0.607849
C79	C	0.696717	-0.533322	0.688632
C80	C	0.634987	-0.964766	0.527257
C81	C	0.635000	-1.011683	0.527273
C82	C	0.696848	-1.007183	0.688830
C83	C	0.696836	-0.960265	0.688807
C84	C	0.665903	-0.939057	0.608026
C85	C	0.696691	-0.434797	0.688574
C86	C	0.696678	-0.387879	0.688538
C87	C	0.634829	-0.392383	0.526986
C88	C	0.634844	-0.439298	0.527017
C89	C	0.665776	-0.460503	0.607821
O90	O	0.608591	-0.515433	0.458386
O91	O	0.723005	-0.507140	0.757329
C92	C	0.696765	-0.720983	0.688722
C93	C	0.665847	-0.746689	0.607963
C94	C	0.634918	-0.725481	0.527179
C95	C	0.665861	-0.793607	0.607978
C96	C	0.696790	-0.814816	0.688761
C97	C	0.727706	-0.789107	0.769530
C98	C	0.727695	-0.742192	0.769505
C99	C	0.604003	-0.751190	0.446411
C100	C	0.604017	-0.798104	0.446441
C101	C	0.634946	-0.819313	0.527225
C102	C	0.782988	-0.200058	0.607900
C103	C	0.832923	-0.200078	0.607916
C104	C	0.674839	-0.190975	0.937002
C105	C	0.678687	-0.187124	1.077261
C106	C	0.665894	-0.082828	0.607999
C107	C	0.665930	-0.032892	0.608056
C108	C	0.656840	-0.208978	0.280007
C109	C	0.653079	-0.212702	0.139749
H110	H	-0.158679	-0.143998	0.754610
F111	F	0.620575	-0.245177	1.069426
H112	H	0.405645	-0.256049	0.461163
H113	H	0.609669	-0.460229	0.461242
F114	F	0.137251	-0.294738	0.360132
H115	H	0.609648	-0.375108	0.461209
F116	F	0.711197	-0.154652	1.147590
H117	H	0.578838	-0.819031	0.380661
H118	H	0.285233	-0.113019	0.835439
H119	H	-0.073570	-0.143985	0.754628
H120	H	0.752858	-0.665625	0.835247
H121	H	0.609796	-0.947502	0.461472
H122	H	0.059369	-0.113055	0.835467
F123	F	0.040414	-0.294763	0.360182
H124	H	0.144474	-0.113041	0.835462
H125	H	0.413714	-0.143890	0.754556
F126	F	0.602096	-1.039038	0.441296
F127	F	0.496060	-0.263751	0.440913
F128	F	0.505258	-0.136151	0.774758
H129	H	0.722033	-1.024459	0.754606
F130	F	0.181172	-0.294721	0.360131
H131	H	-0.081635	-0.256136	0.461205
H132	H	0.752873	-0.721265	0.835271
H133	H	0.752891	-0.806383	0.835302
H134	H	-0.166758	-0.256149	0.461222
H135	H	0.272698	-0.286980	0.380346
F136	F	0.194807	-0.105303	0.855677
H137	H	0.721859	-0.366950	0.754306
F138	F	0.729614	-0.457359	0.774573
H139	H	0.752837	-0.580520	0.835200
F140	F	0.571058	-0.684704	0.360410
H141	H	0.578767	-0.593169	0.380581
F142	F	0.729746	-0.932911	0.774768
H143	H	0.578816	-0.733926	0.380629
