data_functionalizedCrystal
_audit_creation_method	'MofGen! by Chris Wilmer'
_symmetry_space_group_name_H-M	'P1'
_symmetry_Int_Tables_number	1
_symmetry_cell_setting	triclinic
loop_
_symmetry_equiv_pos_as_xyz
  x,y,z
_cell_length_a	12.594517
_cell_length_b	21.295417
_cell_length_c	12.594510
_cell_angle_alpha	89.957633
_cell_angle_beta	89.978880
_cell_angle_gamma	90.030306
loop_
_atom_site_label
_atom_site_type_symbol
_atom_site_fract_x
_atom_site_fract_y
_atom_site_fract_z
Zn1	Zn	1.627158	-0.250556	-0.601801
Zn2	Zn	2.127158	0.249444	-0.101801
Zn3	Zn	1.627004	-0.355845	-0.423797
Zn4	Zn	2.127004	0.144155	0.076203
Zn5	Zn	1.449162	-0.250594	-0.423830
Zn6	Zn	1.949162	0.249406	0.076170
Zn7	Zn	1.449099	-0.355790	-0.601727
Zn8	Zn	1.949099	0.144210	-0.101727
O9	O	1.538106	-0.303196	-0.512789
O10	O	2.038106	0.196804	-0.012789
O11	O	1.776083	-0.264530	-0.578205
O12	O	2.276083	0.235470	-0.078205
O13	O	1.603376	-0.341923	-0.274856
O14	O	2.103376	0.158077	0.225144
O15	O	1.472865	-0.162499	-0.447482
O16	O	1.972865	0.337501	0.052518
O17	O	1.775971	-0.341886	-0.447427
O18	O	2.275971	0.158114	0.052573
O19	O	1.603637	-0.162471	-0.578237
O20	O	2.103637	0.337529	-0.078237
O21	O	1.472716	-0.264595	-0.274879
O22	O	1.972716	0.235405	0.225121
O23	O	1.300208	-0.264541	-0.447411
O24	O	1.800208	0.235459	0.052589
O25	O	1.472757	-0.341792	-0.750683
O26	O	1.972757	0.158208	-0.250683
O27	O	1.300162	-0.341829	-0.578112
O28	O	1.800162	0.158171	-0.078112
O29	O	1.603576	-0.264476	-0.750737
O30	O	2.103576	0.235524	-0.250737
O31	O	1.603314	-0.443928	-0.447356
O32	O	2.103314	0.056072	0.052644
O33	O	1.472608	-0.443887	-0.578080
O34	O	1.972608	0.056113	-0.078080
C35	C	1.261565	-0.303184	-0.512757
C36	C	1.761565	0.196816	-0.012757
C37	C	1.143260	-0.303193	-0.512769
C38	C	1.643260	0.196807	-0.012769
C39	C	1.074001	-0.261099	-0.441817
C40	C	1.574001	0.238901	0.058183
C41	C	1.003165	-0.318521	-0.415623
C42	C	1.503165	0.181479	0.084377
C43	C	1.003296	-0.245800	-0.538981
C44	C	1.503296	0.254200	-0.038981
C45	C	1.073982	-0.360645	-0.486525
C46	C	1.573982	0.139355	0.013475
C47	C	1.074119	-0.287885	-0.609928
C48	C	1.574119	0.212115	-0.109928
C49	C	1.003316	-0.345347	-0.583771
C50	C	1.503316	0.154653	-0.083771
C51	C	1.537966	-0.466748	-0.512730
C52	C	2.037966	0.033252	-0.012730
C53	C	1.538004	-0.536716	-0.512740
C54	C	2.038004	-0.036716	-0.012740
C55	C	1.606123	-0.569583	-0.444742
C56	C	2.106123	-0.069583	0.055258
C57	C	1.606173	-0.635325	-0.444766
C58	C	2.106173	-0.135325	0.055234
C59	C	1.538085	-0.668199	-0.512777
C60	C	2.038085	-0.168199	-0.012777
C61	C	1.469961	-0.635324	-0.580789
C62	C	1.969961	-0.135324	-0.080789
C63	C	1.469920	-0.569583	-0.580770
C64	C	1.969920	-0.069583	-0.080770
N65	N	1.444974	-0.771463	-0.520881
N66	N	1.944974	-0.271463	-0.020881
N67	N	1.445016	-0.833915	-0.520892
N68	N	1.945016	-0.333915	-0.020892
C69	C	1.538204	-0.866273	-0.512838
C70	C	2.038204	-0.366273	-0.012838
N71	N	1.631352	-0.833821	-0.504752
N72	N	2.131352	-0.333821	-0.004752
N73	N	1.631309	-0.771364	-0.504735
N74	N	2.131309	-0.271364	-0.004735
C75	C	1.538122	-0.739484	-0.512805
C76	C	2.038122	-0.239484	-0.012805
C77	C	1.606383	-0.970426	-0.444862
C78	C	2.106383	-0.470426	0.055138
C79	C	1.606435	-1.036169	-0.444893
C80	C	2.106435	-0.536169	0.055107
C81	C	1.470213	-1.036166	-0.580911
C82	C	1.970213	-0.536166	-0.080911
C83	C	1.470171	-0.970424	-0.580885
C84	C	1.970171	-0.470424	-0.080885
C85	C	1.538254	-0.937557	-0.512855
C86	C	2.038254	-0.437557	-0.012855
C87	C	1.815727	-0.303209	-0.512821
C88	C	2.315727	0.196791	-0.012821
C89	C	1.934032	-0.303215	-0.512835
C90	C	2.434032	0.196785	-0.012835
C91	C	1.538176	-0.303124	-0.790410
C92	C	2.038176	0.196876	-0.290410
C93	C	1.538206	-0.303093	-0.908715
C94	C	2.038206	0.196907	-0.408715
C95	C	1.538275	-0.139006	-0.512871
C96	C	2.038275	0.360994	-0.012871
C97	C	1.538347	-0.069038	-0.512906
C98	C	2.038347	0.430962	-0.012906
C99	C	1.609380	-0.261038	-0.977998
C100	C	2.109380	0.238962	-0.477998
C101	C	1.512310	-0.245629	-1.048792
C102	C	2.012310	0.254371	-0.548792
C103	C	1.635333	-0.318457	-1.048720
C104	C	2.135333	0.181543	-0.548720
C105	C	1.441085	-0.287655	-0.977952
C106	C	1.941085	0.212345	-0.477952
C107	C	1.564173	-0.360509	-0.977873
C108	C	2.064173	0.139491	-0.477873
C109	C	1.467036	-0.345123	-1.048636
C110	C	1.967036	0.154877	-0.548636
C111	C	1.538097	-0.303223	-0.236248
C112	C	2.038097	0.196777	0.263752
C113	C	1.538274	-0.303077	-0.117943
C114	C	2.038274	0.196923	0.382057
H115	H	1.105309	-0.274907	-0.692040
H116	H	1.605309	0.225093	-0.192040
N117	N	1.675958	-0.936852	-0.375404
N118	N	2.175958	-0.436852	0.124596
N119	N	1.743739	-0.900115	-0.412915
N120	N	2.243739	-0.400115	0.087085
H121	H	1.792882	-0.876405	-0.363863
H122	H	2.292882	-0.376405	0.136137
H123	H	1.414525	-0.662093	-0.636166
H124	H	1.914525	-0.162093	-0.136166
N125	N	1.400659	-1.069746	-0.650369
N126	N	1.900659	-0.569746	-0.150369
N127	N	1.332880	-1.106487	-0.612865
N128	N	1.832880	-0.606487	-0.112865
H129	H	1.283756	-1.130207	-0.661923
H130	H	1.783756	-0.630207	-0.161923
H131	H	0.972475	-0.380995	-0.643801
H132	H	1.472475	0.119005	-0.143801
H133	H	0.972001	-0.331482	-0.333486
H134	H	1.472001	0.168518	0.166514
N135	N	1.391501	-0.389739	-1.087312
N136	N	1.891501	0.110261	-0.587312
N137	N	1.400277	-0.446448	-1.063206
N138	N	1.900277	0.053552	-0.563206
H139	H	1.346929	-0.477957	-1.090523
H140	H	1.846929	0.022043	-0.590523
N141	N	1.400333	-0.535997	-0.650217
N142	N	1.900333	-0.035997	-0.150217
N143	N	1.400304	-0.477300	-0.650187
N144	N	1.900304	0.022700	-0.150187
H145	H	1.351156	-0.453578	-0.699234
H146	H	1.851156	0.046422	-0.199234
H147	H	1.490371	-0.197067	-1.079944
H148	H	1.990371	0.302933	-0.579944
N149	N	1.676041	-1.069734	-0.375436
N150	N	2.176041	-0.569734	0.124564
N151	N	1.736824	-1.040378	-0.314710
N152	N	2.236824	-0.540378	0.185290
H153	H	1.785988	-1.064084	-0.265656
H154	H	2.285988	-0.564084	0.234344
H155	H	1.669463	-0.225452	-0.946978
H156	H	2.169463	0.274548	-0.446978
H157	H	1.586142	-0.409058	-0.946701
H158	H	2.086142	0.090942	-0.446701
N159	N	1.400579	-0.936857	-0.650350
N160	N	1.900579	-0.436857	-0.150350
N161	N	1.339793	-0.966213	-0.711074
N162	N	1.839793	-0.466213	-0.211074
H163	H	1.290643	-0.942507	-0.760140
H164	H	1.790643	-0.442507	-0.260140
N165	N	0.964342	-0.184898	-0.566747
N166	N	1.464342	0.315102	-0.066747
N167	N	0.987004	-0.138496	-0.510399
N168	N	1.487004	0.361504	-0.010399
H169	H	0.959496	-0.095482	-0.530000
H170	H	1.459496	0.404518	-0.030000
H171	H	1.717442	-0.331457	-1.079810
H172	H	2.217442	0.168543	-0.579810
H173	H	1.358951	-0.274597	-0.946996
H174	H	1.858951	0.225403	-0.446996
N175	N	1.112965	-0.216494	-0.366456
N176	N	1.612965	0.283506	0.133544
N177	N	1.210723	-0.209013	-0.354889
N178	N	1.710723	0.290987	0.145111
H179	H	1.238244	-0.177513	-0.301664
H180	H	1.738244	0.322487	0.198336
N181	N	1.112779	-0.421558	-0.458610
N182	N	1.612779	0.078442	0.041390
N183	N	1.170049	-0.428300	-0.378375
N184	N	1.670049	0.071700	0.121625
H185	H	1.197453	-0.471318	-0.358656
H186	H	1.697453	0.028682	0.141344
N187	N	1.675674	-0.536021	-0.375247
N188	N	2.175674	-0.036021	0.124753
N189	N	1.736492	-0.565380	-0.314539
N190	N	2.236492	-0.065380	0.185461
H191	H	1.785615	-0.541677	-0.265457
H192	H	2.285615	-0.041677	0.234543
H193	H	1.661648	-0.662091	-0.389393
H194	H	2.161648	-0.162091	0.110607
