data_functionalizedCrystal
_audit_creation_method	'MofGen! by Chris Wilmer'
_symmetry_space_group_name_H-M	'P1'
_symmetry_Int_Tables_number	1
_symmetry_cell_setting	triclinic
loop_
_symmetry_equiv_pos_as_xyz
  x,y,z
_cell_length_a	6.817900
_cell_length_b	10.943925
_cell_length_c	10.943624
_cell_angle_alpha	91.772910
_cell_angle_beta	108.838799
_cell_angle_gamma	108.844289
loop_
_atom_site_label
_atom_site_type_symbol
_atom_site_fract_x
_atom_site_fract_y
_atom_site_fract_z
V1	V	-4.115532	-0.178599	-0.402534
O2	O	-4.073202	0.008617	-0.394889
O3	O	-4.093518	-0.354165	-0.399763
O4	O	-4.093494	-0.175837	-0.578100
O5	O	-4.073227	-0.170946	-0.215317
V6	V	-4.592325	-0.156208	-0.380143
O7	O	-4.391553	-0.227716	-0.451649
O8	O	-4.766501	-0.107090	-0.331028
O9	O	-4.391132	0.019359	-0.382914
O10	O	-4.752051	-0.343424	-0.387788
O11	O	-4.752026	-0.163861	-0.567359
O12	O	-4.391156	-0.158970	-0.204576
C13	C	-3.944085	-0.396965	-0.393408
C14	C	-4.007548	-0.540493	-0.392314
C15	C	-4.274915	-0.717225	-0.397745
C16	C	-4.085582	-0.611235	-0.288089
C17	C	-4.196062	-0.644571	-0.501935
C18	C	-3.931139	-0.690208	-0.280609
C19	C	-4.041699	-0.723567	-0.494552
C20	C	-3.852230	-0.617606	-0.384865
C21	C	-3.944052	-0.169487	-0.620894
C22	C	-4.007492	-0.168390	-0.764420
C23	C	-3.852320	-0.161003	-0.841568
C24	C	-4.041701	-0.270649	-0.947548
C25	C	-3.931176	-0.056802	-0.914182
C26	C	-4.196083	-0.278139	-0.868523
C27	C	-4.085478	-0.064195	-0.835134
C28	C	-4.274995	-0.173872	-0.941083
C29	C	-4.203907	0.062152	-0.389265
C30	C	-4.119684	0.205678	-0.390368
C31	C	-4.203939	-0.165324	-0.161776
C32	C	-4.119737	-0.166414	-0.018248
H33	H	-4.454119	-0.760720	-0.403043
H34	H	-4.103473	-0.562326	-0.200807
O35	O	-3.638184	-0.565979	-0.378113
C36	C	-3.498650	-0.588800	-0.261370
H37	H	-3.585389	-0.604730	-0.186818
H38	H	-3.338287	-0.500806	-0.220916
H39	H	-3.459440	-0.679312	-0.281975
O40	O	-4.329254	-0.620006	-0.613499
C41	C	-4.551069	-0.670901	-0.619830
H42	H	-4.570847	-0.752003	-0.556971
H43	H	-4.664140	-0.712004	-0.725378
H44	H	-4.597586	-0.589853	-0.582263
O45	O	-3.638647	-0.154861	-0.789595
C46	C	-3.631254	-0.266149	-0.729384
H47	H	-3.785782	-0.308503	-0.702851
H48	H	-3.477836	-0.237499	-0.637036
H49	H	-3.624166	-0.342432	-0.799575
O50	O	-4.020619	-0.374914	-1.005823
C51	C	-4.158367	-0.491334	-0.981328
H52	H	-4.193804	-0.470215	-0.889526
H53	H	-4.071918	-0.566027	-0.966736
H54	H	-4.320760	-0.531901	-1.067912
H55	H	-4.454311	-0.179339	-0.984327
H56	H	-4.023893	-0.772507	-0.581841
O57	O	-4.328730	-0.389820	-0.843788
C58	C	-4.266809	-0.389543	-0.707739
H59	H	-4.087613	-0.321860	-0.657650
H60	H	-4.283688	-0.492818	-0.685698
H61	H	-4.379053	-0.353731	-0.669856
H62	H	-3.819723	-0.710753	-0.186971
H63	H	-4.103238	0.023090	-0.786158
H64	H	-3.819808	0.036718	-0.934953
