data_functionalizedCrystal
_audit_creation_method	'MofGen! by Chris Wilmer'
_symmetry_space_group_name_H-M	'P1'
_symmetry_Int_Tables_number	1
_symmetry_cell_setting	triclinic
loop_
_symmetry_equiv_pos_as_xyz
  x,y,z
_cell_length_a	12.645331
_cell_length_b	12.645330
_cell_length_c	11.169409
_cell_angle_alpha	90.031378
_cell_angle_beta	89.976490
_cell_angle_gamma	89.973599
loop_
_atom_site_label
_atom_site_type_symbol
_atom_site_fract_x
_atom_site_fract_y
_atom_site_fract_z
Zn1	Zn	1.620676	0.421947	-0.678669
Zn2	Zn	1.620529	0.599258	-0.477989
Zn3	Zn	1.443388	0.422010	-0.477990
Zn4	Zn	1.443346	0.599170	-0.678621
O5	O	1.531985	0.510596	-0.578317
O6	O	1.769004	0.445479	-0.652068
O7	O	1.596987	0.575809	-0.310039
O8	O	1.466985	0.273654	-0.504631
O9	O	1.768896	0.575748	-0.504629
O10	O	1.597237	0.273608	-0.652069
O11	O	1.466843	0.445586	-0.310040
O12	O	1.295035	0.445500	-0.504585
O13	O	1.466913	0.575598	-0.846577
O14	O	1.295004	0.575659	-0.651987
O15	O	1.597196	0.445393	-0.846612
O16	O	1.596946	0.747594	-0.504583
O17	O	1.466771	0.747529	-0.651986
C18	C	1.256555	0.510577	-0.578282
C19	C	1.138725	0.510594	-0.578295
C20	C	1.093827	0.428584	-0.485715
C21	C	0.971268	0.428281	-0.486032
C22	C	0.970902	0.480788	-0.704989
C23	C	1.093499	0.480175	-0.704411
C24	C	1.093493	0.622656	-0.545376
C25	C	0.970885	0.622071	-0.542630
C26	C	1.531867	0.786026	-0.578305
C27	C	1.531913	0.903856	-0.578340
C28	C	1.450332	1.071423	-0.671361
C29	C	1.449933	0.948864	-0.671060
C30	C	1.501660	0.948465	-0.451856
C31	C	1.501144	1.071063	-0.452423
C32	C	1.644190	1.070941	-0.610785
C33	C	1.643520	0.948334	-0.613549
C34	C	1.808490	0.510617	-0.578354
C35	C	1.926320	0.510625	-0.578369
C36	C	1.532095	1.234091	-0.578360
C37	C	1.532047	1.116261	-0.578389
C38	C	1.532066	0.510479	-0.891360
C39	C	1.532101	0.510429	-1.024760
C40	C	1.531965	0.510637	-0.266492
C41	C	1.532135	0.510389	-0.133093
H42	H	0.941120	0.446898	-0.392160
Cl43	Cl	1.376424	0.901218	-0.408716
H44	H	1.559299	0.919314	-0.380691
Cl45	Cl	0.923691	0.721411	-0.639137
H46	H	1.468862	0.918699	-0.764847
H47	H	1.671776	1.101775	-0.701451
Cl48	Cl	1.322780	1.119158	-0.638675
Cl49	Cl	0.926028	0.300093	-0.519790
Cl50	Cl	0.925888	0.656827	-0.398757
H51	H	1.666334	0.919173	-0.706634
H52	H	1.122524	0.683752	-0.612807
Cl53	Cl	1.742488	0.901017	-0.516621
Cl54	Cl	1.738189	1.115730	-0.506259
Cl55	Cl	1.139258	0.456961	-0.340295
H56	H	1.366805	0.919632	-0.649596
Cl57	Cl	1.141132	0.664713	-0.405189
Cl58	Cl	1.137708	0.353728	-0.747373
H59	H	1.123206	0.537334	-0.775779
H60	H	1.124666	0.346019	-0.507290
Cl61	Cl	1.374579	1.115371	-0.410055
Cl62	Cl	0.925966	0.570201	-0.814452
Cl63	Cl	1.589032	1.116869	-0.341818
Cl64	Cl	0.923556	0.355743	-0.748726
Cl65	Cl	1.479267	1.116820	-0.816643
