data_functionalizedCrystal
_audit_creation_method	'MofGen! by Chris Wilmer'
_symmetry_space_group_name_H-M	'P1'
_symmetry_Int_Tables_number	1
_symmetry_cell_setting	triclinic
loop_
_symmetry_equiv_pos_as_xyz
  x,y,z
_cell_length_a	34.571875
_cell_length_b	34.571051
_cell_length_c	34.567439
_cell_angle_alpha	60.004367
_cell_angle_beta	60.008842
_cell_angle_gamma	59.994195
loop_
_atom_site_label
_atom_site_type_symbol
_atom_site_fract_x
_atom_site_fract_y
_atom_site_fract_z
O1	O	0.053721	-0.565181	0.472559
O2	O	0.387054	-0.231848	0.805892
O3	O	0.720388	0.101486	1.139225
O4	O	0.020283	-0.440038	0.380761
O5	O	0.353616	-0.106705	0.714094
O6	O	0.686950	0.226629	1.047427
O7	O	0.099534	-0.519209	0.380676
O8	O	0.432867	-0.185875	0.714010
O9	O	0.766201	0.147458	1.047343
O10	O	-0.025530	-0.486010	0.472643
O11	O	0.307803	-0.152677	0.805976
O12	O	0.641137	0.180657	1.139310
O13	O	0.125831	-0.492917	0.406885
O14	O	0.459165	-0.159584	0.740218
O15	O	0.792498	0.173750	1.073552
O16	O	0.046580	-0.413746	0.406969
O17	O	0.379914	-0.080413	0.740303
O18	O	0.713247	0.252920	1.073636
O19	O	0.080018	-0.538889	0.498767
O20	O	0.413352	-0.205556	0.832101
O21	O	0.746685	0.127777	1.165434
Zn22	Zn	0.067475	-0.472143	0.457030
Zn23	Zn	0.400808	-0.138810	0.790363
Zn24	Zn	0.734141	0.194523	1.123696
Zn25	Zn	0.032827	-0.506784	0.422498
Zn26	Zn	0.366160	-0.173450	0.755832
Zn27	Zn	0.699493	0.159883	1.089165
O28	O	0.000767	-0.459718	0.498852
O29	O	0.334100	-0.126385	0.832185
O30	O	0.667434	0.206948	1.165518
N31	N	0.091122	-0.448505	0.480598
N32	N	0.424455	-0.115172	0.813932
N33	N	0.757788	0.218161	1.147265
N34	N	0.009184	-0.530426	0.398930
N35	N	0.342517	-0.197093	0.732263
N36	N	0.675850	0.136241	1.065596
C37	C	0.124402	-0.415465	0.717633
C38	C	0.457735	-0.082131	1.050967
C39	C	0.791069	0.251202	1.384300
C40	C	0.328327	-0.415388	0.513477
C41	C	0.661661	-0.082055	0.846810
C42	C	0.994994	0.251279	1.180143
C43	C	0.124221	-0.415437	0.513630
C44	C	0.457554	-0.082103	0.846963
C45	C	0.790888	0.251230	1.180297
C46	C	0.124201	-0.211364	0.513624
C47	C	0.457535	0.121969	0.846957
C48	C	0.790868	0.455303	1.180290
C49	C	0.157075	-0.309853	0.546423
C50	C	0.490408	0.023480	0.879756
C51	C	0.823741	0.356813	1.213090
C52	C	0.157084	-0.382601	0.546423
C53	C	0.490418	-0.049268	0.879756
C54	C	0.823751	0.284065	1.213089
C55	C	0.175289	-0.364414	0.564591
C56	C	0.508622	-0.031080	0.897924
C57	C	0.841955	0.302253	1.231257
C58	C	0.254624	-0.350722	0.522790
C59	C	0.587958	-0.017388	0.856124
C60	C	0.921291	0.315945	1.189457
C61	C	0.304220	-0.367243	0.506229
C62	C	0.637553	-0.033909	0.839562
C63	C	0.970887	0.299424	1.172896
C64	C	0.304249	-0.447494	0.536832
C65	C	0.637583	-0.114161	0.870165
C66	C	0.970916	0.219173	1.203498
C67	C	0.254655	-0.430972	0.553394
C68	C	0.587988	-0.097639	0.886728
C69	C	0.921321	0.235695	1.220061
C70	C	0.169014	-0.285043	0.497667
C71	C	0.502347	0.048291	0.831000
C72	C	0.835681	0.381624	1.164333
C73	C	0.152454	-0.235444	0.481153
C74	C	0.485787	0.097890	0.814486
C75	C	0.819121	0.431223	1.147820
C76	C	0.112020	-0.235469	0.562154
C77	C	0.445353	0.097864	0.895487
C78	C	0.778686	0.431197	1.228821
C79	C	0.128580	-0.285068	0.578668
C80	C	0.461913	0.048265	0.912001
C81	C	0.795246	0.381598	1.245334
C82	C	0.108321	-0.370634	0.558439
C83	C	0.441654	-0.037300	0.891773
C84	C	0.774987	0.296033	1.225106
C85	C	0.091776	-0.387168	0.541918
C86	C	0.425109	-0.053834	0.875251
C87	C	0.758443	0.279499	1.208585
C88	C	0.172754	-0.427637	0.501375
C89	C	0.506088	-0.094304	0.834708
C90	C	0.839421	0.239030	1.168042
C91	C	0.189301	-0.411103	0.517891
C92	C	0.522634	-0.077770	0.851224
C93	C	0.855968	0.255564	1.184557
C94	C	0.108399	-0.370649	0.643978
C95	C	0.441732	-0.037315	0.977311
C96	C	0.775066	0.296018	1.310644
C97	C	0.091911	-0.387197	0.693575
C98	C	0.425244	-0.053864	1.026909
C99	C	0.758578	0.279469	1.360242
C100	C	0.172928	-0.427676	0.693511
C101	C	0.506261	-0.094343	1.026844
C102	C	0.839595	0.238991	1.360178
C103	C	0.189415	-0.411128	0.643912
C104	C	0.522748	-0.077795	0.977245
C105	C	0.856081	0.255538	1.310579
C106	C	0.157149	-0.382613	0.619147
C107	C	0.490482	-0.049280	0.952480
C108	C	0.823816	0.284053	1.285814
C109	C	0.229844	-0.382585	0.546371
C110	C	0.563177	-0.049252	0.879705
C111	C	0.896510	0.284081	1.213038
C112	C	0.105624	-0.433333	0.772186
C113	C	0.438957	-0.100000	1.105519
C114	C	0.772290	0.233333	1.438852
C115	C	0.382878	-0.432925	0.495007
C116	C	0.716211	-0.099592	0.828340
C117	C	1.049544	0.233741	1.161673
C118	C	0.105380	-0.433313	0.495792
C119	C	0.438713	-0.099980	0.829125
C120	C	0.772046	0.233354	1.162458
C121	C	0.105683	-0.156808	0.496094
C122	C	0.439017	0.176525	0.829427
C123	C	0.772350	0.509859	1.162761
C124	C	-0.023527	-0.563458	0.161535
C125	C	0.309806	-0.230125	0.494868
C126	C	0.643139	0.103208	0.828202
C127	C	-0.023851	-0.767445	0.365663
C128	C	0.309483	-0.434112	0.698996
C129	C	0.642816	-0.100778	1.032329
C130	C	-0.023821	-0.563448	0.365756
C131	C	0.309512	-0.230114	0.699090
C132	C	0.642846	0.103219	1.032423
C133	C	-0.227785	-0.563229	0.365355
C134	C	0.105549	-0.229896	0.698689
C135	C	0.438882	0.103438	1.032022
C136	C	-0.129302	-0.596153	0.332678
C137	C	0.204031	-0.262820	0.666011
C138	C	0.537365	0.070513	0.999345
C139	C	-0.056593	-0.596234	0.332823
C140	C	0.276740	-0.262901	0.666157
C141	C	0.610074	0.070433	0.999490
C142	C	-0.074746	-0.614396	0.314578
C143	C	0.258588	-0.281062	0.647911
C144	C	0.591921	0.052271	0.981244
C145	C	-0.088477	-0.693710	0.356299
C146	C	0.244856	-0.360377	0.689632
C147	C	0.578190	-0.027044	1.022966
C148	C	-0.071982	-0.743310	0.372851
C149	C	0.261351	-0.409976	0.706185
C150	C	0.594685	-0.076643	1.039518
C151	C	0.008266	-0.743392	0.342376
C152	C	0.341600	-0.410058	0.675710
C153	C	0.674933	-0.076725	1.009043
C154	C	-0.008230	-0.693794	0.325823
C155	C	0.325103	-0.360460	0.659156
C156	C	0.658437	-0.027127	0.992490
C157	C	-0.154162	-0.608103	0.381422
C158	C	0.179172	-0.274769	0.714755
C159	C	0.512505	0.058564	1.048089
C160	C	-0.203757	-0.591517	0.397874
C161	C	0.129576	-0.258184	0.731208
C162	C	0.462909	0.075150	1.064541
C163	C	-0.203630	-0.551037	0.316836
C164	C	0.129703	-0.217704	0.650169
C165	C	0.463037	0.115630	0.983503
C166	C	-0.154034	-0.567623	0.300384
C167	C	0.179299	-0.234289	0.633717
C168	C	0.512632	0.099044	0.967050
C169	C	-0.068543	-0.547475	0.320829
C170	C	0.264790	-0.214141	0.654162
C171	C	0.598123	0.119192	0.987496
C172	C	-0.052041	-0.530969	0.337421
C173	C	0.281292	-0.197635	0.670754
C174	C	0.614625	0.135698	1.004088
C175	C	-0.011639	-0.611977	0.377990
C176	C	0.321695	-0.278644	0.711323
C177	C	0.655028	0.054690	1.044657
C178	C	-0.028141	-0.628485	0.361404
C179	C	0.305193	-0.295152	0.694737
C180	C	0.638526	0.038182	1.028071
C181	C	-0.068417	-0.547482	0.235199
C182	C	0.264917	-0.214148	0.568533
C183	C	0.598250	0.119185	0.901866
C184	C	-0.051814	-0.530977	0.185602
C185	C	0.281519	-0.197644	0.518935
C186	C	0.614853	0.135689	0.852268
C187	C	-0.011349	-0.611990	0.185649
C188	C	0.321984	-0.278657	0.518982
C189	C	0.655317	0.054676	0.852316
C190	C	-0.027951	-0.628493	0.235248
C191	C	0.305382	-0.295160	0.568581
C192	C	0.638715	0.038173	0.901914
C193	C	-0.056486	-0.596238	0.260022
C194	C	0.276847	-0.262905	0.593355
C195	C	0.610180	0.070429	0.926688
C196	C	-0.056602	-0.668955	0.332787
C197	C	0.276731	-0.335621	0.666120
C198	C	0.610064	-0.002288	0.999453
C199	C	-0.005599	-0.544662	0.106983
C200	C	0.327735	-0.211329	0.440316
C201	C	0.661068	0.122005	0.773650
C202	C	-0.006342	-0.821999	0.384121
C203	C	0.326992	-0.488665	0.717455
C204	C	0.660325	-0.155332	1.050788
C205	C	-0.005979	-0.544649	0.383673
C206	C	0.327354	-0.211316	0.717006
C207	C	0.660688	0.122018	1.050339
C208	C	-0.282336	-0.544682	0.382817
C209	C	0.050998	-0.211349	0.716150
C210	C	0.384331	0.121985	1.049484
N211	N	0.427518	-0.448428	0.480350
N212	N	0.760851	-0.115095	0.813683
N213	N	1.094185	0.218239	1.147016
O214	O	0.589573	-0.456297	0.363634
O215	O	0.922907	-0.122964	0.696968
O216	O	1.256240	0.210369	1.030301
O217	O	0.589761	-0.548399	0.488643
O218	O	0.923094	-0.215065	0.821976
O219	O	1.256428	0.118268	1.155310
O220	O	0.589681	-0.548188	0.409364
O221	O	0.923014	-0.214854	0.742698
O222	O	1.256348	0.118479	1.076031
O223	O	0.589654	-0.456508	0.442913
O224	O	0.922987	-0.123175	0.776246
O225	O	1.256320	0.210159	1.109580
O226	O	0.510890	-0.521988	0.435708
O227	O	0.844223	-0.188655	0.769041
O228	O	1.177556	0.144678	1.102375
O229	O	0.510970	-0.522199	0.514987
O230	O	0.844303	-0.188866	0.848320
O231	O	1.177636	0.144468	1.181653
O232	O	0.510782	-0.430098	0.389978
O233	O	0.844116	-0.096764	0.723311
O234	O	1.177449	0.236569	1.056645
Zn235	Zn	0.498366	-0.471989	0.456665
Zn236	Zn	0.831700	-0.138655	0.789998
Zn237	Zn	1.165033	0.194678	1.123332
Zn238	Zn	0.602177	-0.506508	0.421956
Zn239	Zn	0.935510	-0.173174	0.755289
Zn240	Zn	1.268844	0.160159	1.088623
O241	O	0.510862	-0.430308	0.469257
O242	O	0.844196	-0.096975	0.802590
O243	O	1.177529	0.236358	1.135923
N244	N	0.673025	-0.530068	0.398267
N245	N	1.006359	-0.196735	0.731600
N246	N	1.339692	0.136598	1.064933
N247	N	0.091092	-0.112167	0.480590
N248	N	0.424426	0.221167	0.813923
N249	N	0.757759	0.554500	1.147256
O250	O	-0.025539	0.049976	0.472612
O251	O	0.307795	0.383309	0.805945
O252	O	0.641128	0.716643	1.139278
O253	O	0.099472	0.050011	0.380491
O254	O	0.432805	0.383345	0.713824
O255	O	0.766139	0.716678	1.047158
O256	O	0.020155	0.049979	0.380751
O257	O	0.353489	0.383312	0.714084
O258	O	0.686822	0.716646	1.047418
O259	O	0.053778	0.050009	0.472352
O260	O	0.387111	0.383342	0.805685
O261	O	0.720445	0.716675	1.139018
O262	O	0.046458	-0.028818	0.407008
O263	O	0.379791	0.304516	0.740341
O264	O	0.713125	0.637849	1.073674
O265	O	0.125775	-0.028785	0.406748
O266	O	0.459108	0.304548	0.740081
O267	O	0.792441	0.637881	1.073414
O268	O	0.000764	-0.028821	0.498869
O269	O	0.334097	0.304513	0.832202
O270	O	0.667431	0.637846	1.165535
Zn271	Zn	0.067445	-0.041314	0.456977
Zn272	Zn	0.400779	0.292020	0.790310
Zn273	Zn	0.734112	0.625353	1.123644
Zn274	Zn	0.032791	0.062504	0.422382
Zn275	Zn	0.366124	0.395838	0.755716
Zn276	Zn	0.699457	0.729171	1.089049
O277	O	0.080081	-0.028788	0.498609
O278	O	0.413414	0.304545	0.831942
O279	O	0.746747	0.637878	1.165275
N280	N	0.009138	0.133358	0.398771
N281	N	0.342471	0.466691	0.732104
N282	N	0.675804	0.800024	1.065438
N283	N	0.091421	-0.448552	0.816827
N284	N	0.424754	-0.115218	1.150161
N285	N	0.758087	0.218115	1.483494
O286	O	0.083469	-0.565164	0.978960
O287	O	0.416802	-0.231831	1.312294
O288	O	0.750135	0.101503	1.645627
O289	O	-0.008614	-0.440110	0.979002
O290	O	0.324719	-0.106776	1.312335
O291	O	0.658052	0.226557	1.645668
O292	O	-0.008399	-0.519410	0.978978
O293	O	0.324934	-0.186077	1.312311
O294	O	0.658268	0.147256	1.645645
O295	O	0.083253	-0.485863	0.978984
O296	O	0.416587	-0.152530	1.312317
O297	O	0.749920	0.180803	1.645651
O298	O	0.017837	-0.493128	0.900185
O299	O	0.351170	-0.159794	1.233518
O300	O	0.684503	0.173539	1.566851
O301	O	0.017621	-0.413827	0.900208
O302	O	0.350955	-0.080494	1.233542
O303	O	0.684288	0.252840	1.566875
O304	O	0.109704	-0.538881	0.900167
O305	O	0.443038	-0.205548	1.233500
O306	O	0.776371	0.127785	1.566834
Zn307	Zn	0.067828	-0.472181	0.887677
Zn308	Zn	0.401162	-0.138848	1.221011
Zn309	Zn	0.734495	0.194485	1.554344
Zn310	Zn	0.033262	-0.506810	0.991491
Zn311	Zn	0.366595	-0.173476	1.324824
Zn312	Zn	0.699928	0.159857	1.658158
O313	O	0.109489	-0.459581	0.900191
O314	O	0.442822	-0.126247	1.233524
O315	O	0.776156	0.207086	1.566857
N316	N	0.009668	-0.530444	1.062341
N317	N	0.343002	-0.197111	1.395675
N318	N	0.676335	0.136223	1.729008
C319	C	0.030297	-0.411123	0.381218
C320	C	0.363630	-0.077790	0.714551
C321	C	0.696964	0.255544	1.047884
C322	C	0.128439	-0.509167	0.381113
C323	C	0.461773	-0.175833	0.714446
C324	C	0.795106	0.157500	1.047780
C325	C	0.070004	-0.567805	0.498310
C326	C	0.403337	-0.234471	0.831643
C327	C	0.736671	0.098862	1.164977
C328	C	-0.028138	-0.469761	0.498415
C329	C	0.305195	-0.136428	0.831748
C330	C	0.638528	0.196906	1.165081
C331	C	0.550388	-0.547982	0.517564
C332	C	0.883721	-0.214648	0.850897
C333	C	1.217055	0.118685	1.184231
C334	C	0.550290	-0.547721	0.419387
C335	C	0.883624	-0.214388	0.752720
C336	C	1.216957	0.118945	1.086054
C337	C	0.550153	-0.430514	0.361058
C338	C	0.883486	-0.097180	0.694391
C339	C	1.216819	0.236153	1.027725
C340	C	0.550253	-0.430775	0.459234
C341	C	0.883587	-0.097442	0.792567
C342	C	1.216920	0.235891	1.125901
C343	C	0.128339	0.010714	0.380902
C344	C	0.461672	0.344048	0.714235
C345	C	0.795006	0.677381	1.047568
C346	C	0.030148	0.010577	0.381256
C347	C	0.363481	0.343911	0.714589
C348	C	0.696814	0.677244	1.047922
C349	C	-0.028136	0.010574	0.498426
C350	C	0.305198	0.343907	0.831759
C351	C	0.638531	0.677241	1.165092
C352	C	0.070089	0.010613	0.498104
C353	C	0.403422	0.343946	0.831437
C354	C	0.736755	0.677279	1.164771
C355	C	-0.008178	-0.411214	0.939610
C356	C	0.325156	-0.077880	1.272944
C357	C	0.658489	0.255453	1.606277
C358	C	-0.007906	-0.509413	0.939566
C359	C	0.325428	-0.176079	1.272899
C360	C	0.658761	0.157254	1.606232
C361	C	0.109268	-0.567777	0.939558
C362	C	0.442601	-0.234444	1.272892
C363	C	0.775934	0.098889	1.606225
C364	C	0.109002	-0.469572	0.939586
C365	C	0.442335	-0.136239	1.272919
C366	C	0.775668	0.197094	1.606252
H367	H	0.052212	-0.377448	0.713786
H368	H	0.385546	-0.044114	1.047120
H369	H	0.718879	0.289219	1.380453
F370	F	0.207046	-0.457974	0.471015
F371	F	0.540379	-0.124641	0.804348
F372	F	0.873713	0.208692	1.137681
H373	H	-0.064060	-0.462687	0.527292
H374	H	0.269274	-0.129354	0.860625
H375	H	0.602607	0.203980	1.193959
H376	H	0.138179	-0.603691	0.939539
H377	H	0.471512	-0.270357	1.272873
H378	H	0.804846	0.062976	1.606206
H379	H	0.550436	-0.576894	0.553469
H380	H	0.883770	-0.243561	0.886802
H381	H	1.217103	0.089772	1.220135
F382	F	0.550308	-0.585368	0.410004
F383	F	0.883642	-0.252034	0.743337
F384	F	1.216975	0.081299	1.076671
H385	H	0.550093	-0.401597	0.325157
H386	H	0.883426	-0.068264	0.658491
H387	H	1.216759	0.265069	0.991824
H388	H	0.137795	-0.462392	0.939581
H389	H	0.471128	-0.129059	1.272915
H390	H	0.804462	0.204274	1.606248
H391	H	0.164166	0.010943	0.351910
H392	H	0.497500	0.344277	0.685243
H393	H	0.830833	0.677610	1.018577
F394	F	0.074054	-0.340295	0.617623
F395	F	0.407388	-0.006962	0.950956
F396	F	0.740721	0.326371	1.284289
F397	F	-0.045965	-0.364269	0.939623
F398	F	0.287369	-0.030936	1.272956
F399	F	0.620702	0.302398	1.606290
F400	F	0.020960	-0.364135	0.343531
F401	F	0.354293	-0.030801	0.676865
F402	F	0.687626	0.302532	1.010198
F403	F	0.081703	-0.209090	0.596472
F404	F	0.415037	0.124244	0.929805
F405	F	0.748370	0.457577	1.263138
F406	F	-0.075060	0.010559	0.536227
F407	F	0.258274	0.343892	0.869560
F408	F	0.591607	0.677226	1.202894
H409	H	0.077150	-0.603753	0.527142
H410	H	0.410483	-0.270420	0.860476
H411	H	0.743817	0.062913	1.193809
F412	F	0.207271	-0.458011	0.719862
F413	F	0.540604	-0.124677	1.053196
F414	F	0.873938	0.208656	1.386529
H415	H	0.022945	0.010574	0.352477
H416	H	0.356278	0.343907	0.685810
H417	H	0.689612	0.677240	1.019143
H418	H	0.164358	-0.516243	0.352233
H419	H	0.497692	-0.182909	0.685567
H420	H	0.831025	0.150424	1.018900
H421	H	0.077290	0.010621	0.526881
H422	H	0.410623	0.343955	0.860215
H423	H	0.743956	0.677288	1.193548
F424	F	-0.045526	-0.518779	0.939522
F425	F	0.287807	-0.185446	1.272855
F426	F	0.621140	0.147888	1.606189
F427	F	0.241303	-0.423869	0.617489
F428	F	0.574636	-0.090536	0.950822
F429	F	0.907970	0.242797	1.284155
F430	F	0.039877	-0.374490	0.554764
F431	F	0.373210	-0.041157	0.888097
F432	F	0.706543	0.292176	1.221431
H433	H	0.082085	-0.347427	0.581670
H434	H	0.415418	-0.014094	0.915004
H435	H	0.748752	0.319240	1.248337
H436	H	0.229008	-0.420842	0.508101
H437	H	0.562341	-0.087509	0.841434
H438	H	0.895675	0.245824	1.174768
H439	H	0.234479	-0.456922	0.572596
H440	H	0.567812	-0.123588	0.905929
H441	H	0.901146	0.209745	1.239263
H442	H	0.324395	-0.341295	0.487026
H443	H	0.657729	-0.007961	0.820360
H444	H	0.991062	0.325372	1.153693
F445	F	0.330657	-0.498992	0.544299
F446	F	0.663990	-0.165659	0.877632
F447	F	0.997324	0.167674	1.210966
H448	H	0.234427	-0.311322	0.517070
H449	H	0.567760	0.022011	0.850404
H450	H	0.901094	0.355344	1.183737
H451	H	0.192214	-0.305222	0.471410
H452	H	0.525547	0.028112	0.804744
H453	H	0.858880	0.361445	1.138077
H454	H	0.118851	-0.305270	0.618371
H455	H	0.452185	0.028063	0.951704
H456	H	0.785518	0.361397	1.285038
F457	F	0.165158	-0.209037	0.429259
F458	F	0.498492	0.124297	0.762592
F459	F	0.831825	0.457630	1.095925
F460	F	-0.064520	-0.479082	0.159191
F461	F	0.268813	-0.145749	0.492524
F462	F	0.602146	0.187585	0.825858
H463	H	-0.091654	-0.521212	0.255368
H464	H	0.241679	-0.187879	0.588701
H465	H	0.575012	0.145455	0.922035
H466	H	0.011877	-0.638258	0.165483
H467	H	0.345210	-0.304925	0.498816
H468	H	0.678543	0.028409	0.832150
F469	F	-0.015246	-0.680389	0.261662
F470	F	0.318087	-0.347055	0.594995
F471	F	0.651420	-0.013722	0.928329
H472	H	-0.091707	-0.521211	0.297556
H473	H	0.241626	-0.187878	0.630890
H474	H	0.574960	0.145456	0.964223
H475	H	-0.061773	-0.491265	0.327657
H476	H	0.271560	-0.157932	0.660990
H477	H	0.604893	0.175401	0.994324
H478	H	-0.018411	-0.668189	0.371171
H479	H	0.314922	-0.334855	0.704504
H480	H	0.648255	-0.001522	1.037838
F481	F	0.018646	-0.646306	0.408403
F482	F	0.351979	-0.312972	0.741736
F483	F	0.685312	0.020361	1.075069
H484	H	0.017729	-0.673638	0.306677
H485	H	0.351063	-0.340305	0.640010
H486	H	0.684396	-0.006972	0.973344
F487	F	-0.105908	-0.769656	0.397873
F488	F	0.227426	-0.436323	0.731207
F489	F	0.560759	-0.102990	1.064540
F490	F	-0.139960	-0.667279	0.363714
F491	F	0.193373	-0.333946	0.697047
F492	F	0.526707	-0.000612	1.030380
F493	F	0.059750	-0.769829	0.334970
F494	F	0.393083	-0.436496	0.668304
F495	F	0.726416	-0.103163	1.001637
H496	H	-0.134026	-0.631339	0.407719
H497	H	0.199308	-0.298006	0.741052
H498	H	0.532641	0.035327	1.074385
F499	F	-0.230217	-0.604225	0.449756
F500	F	0.103117	-0.270891	0.783090
F501	F	0.436450	0.062442	1.116423
H502	H	-0.133793	-0.557888	0.260690
H503	H	0.199541	-0.224554	0.594023
H504	H	0.532874	0.108779	0.927357
F505	F	-0.229954	-0.520676	0.282466
F506	F	0.103380	-0.187343	0.615799
F507	F	0.436713	0.145991	0.949132
F508	F	0.550244	-0.393131	0.468614
F509	F	0.883577	-0.059798	0.801947
F510	F	1.216910	0.273535	1.135281
