data_functionalizedCrystal
_audit_creation_method	'MofGen! by Chris Wilmer'
_symmetry_space_group_name_H-M	'P1'
_symmetry_Int_Tables_number	1
_symmetry_cell_setting	triclinic
loop_
_symmetry_equiv_pos_as_xyz
  x,y,z
_cell_length_a	18.266242
_cell_length_b	19.188930
_cell_length_c	19.188930
_cell_angle_alpha	83.144779
_cell_angle_beta	89.988525
_cell_angle_gamma	89.977082
loop_
_atom_site_label
_atom_site_type_symbol
_atom_site_fract_x
_atom_site_fract_y
_atom_site_fract_z
O1	O	0.061124	-0.926149	-0.087169
O2	O	0.561124	-0.426149	0.412831
O3	O	0.061075	-0.722838	-0.098903
O4	O	0.561075	-0.222838	0.401097
O5	O	0.061087	-0.830361	0.008620
O6	O	0.561087	-0.330361	0.508620
O7	O	0.061113	-0.818627	-0.194691
O8	O	0.561113	-0.318627	0.305309
O9	O	-0.060675	-0.830343	0.008625
O10	O	0.439325	-0.330343	0.508625
O11	O	-0.060687	-0.722820	-0.098897
O12	O	0.439313	-0.222820	0.401103
O13	O	-0.060638	-0.926131	-0.087163
O14	O	0.439362	-0.426131	0.412837
Zn15	Zn	-0.079994	-0.824473	-0.093029
Zn16	Zn	0.420006	-0.324473	0.406971
Zn17	Zn	0.080432	-0.824497	-0.093037
Zn18	Zn	0.580432	-0.324497	0.406963
O19	O	-0.060649	-0.818608	-0.194686
O20	O	0.439351	-0.318608	0.305314
C21	C	0.000188	-0.696818	-0.098520
C22	C	0.500188	-0.196818	0.401480
C23	C	0.000169	-0.619313	-0.097380
C24	C	0.500169	-0.119313	0.402620
N25	N	-0.189481	-0.824461	-0.093024
N26	N	0.310519	-0.324461	0.406976
C27	C	0.000204	-0.829972	0.034634
C28	C	0.500204	-0.329972	0.534634
C29	C	0.000197	-0.828831	0.112138
C30	C	0.500197	-0.328831	0.612138
C31	C	-0.227785	-0.872088	-0.045436
C32	C	0.272215	-0.372088	0.454564
C33	C	-0.304430	-0.872092	-0.045433
C34	C	0.195570	-0.372092	0.454567
C35	C	-0.342768	-0.824477	-0.093030
C36	C	0.157232	-0.324477	0.406970
C37	C	-0.304455	-0.776841	-0.140621
C38	C	0.195545	-0.276841	0.359379
C39	C	-0.227812	-0.776834	-0.140618
C40	C	0.272188	-0.276834	0.359382
N41	N	-0.463094	-0.815401	-0.154837
N42	N	0.036906	-0.315401	0.345163
N43	N	-0.535902	-0.815413	-0.154838
N44	N	-0.035902	-0.315413	0.345162
C45	C	-0.573691	-0.824496	-0.093040
C46	C	-0.073691	-0.324496	0.406960
N47	N	-0.535920	-0.833582	-0.031239
N48	N	-0.035920	-0.333582	0.468761
N49	N	-0.463106	-0.833574	-0.031240
N50	N	0.036894	-0.333574	0.468760
C51	C	-0.425875	-0.824480	-0.093038
C52	C	0.074125	-0.324480	0.406962
C53	C	-0.695101	-0.872131	-0.045444
C54	C	-0.195101	-0.372131	0.454556
C55	C	-0.771748	-0.872130	-0.045440
C56	C	-0.271748	-0.372130	0.454560
C57	C	-0.771772	-0.776882	-0.140634
C58	C	-0.271772	-0.276882	0.359366
C59	C	-0.695127	-0.776879	-0.140632
C60	C	-0.195127	-0.276879	0.359368
C61	C	-0.656796	-0.824507	-0.093038
C62	C	-0.156796	-0.324507	0.406962
N63	N	0.189919	-0.824513	-0.093037
N64	N	0.689919	-0.324513	0.406963
C65	C	0.000252	-0.952151	-0.087546
C66	C	0.500252	-0.452151	0.412454
C67	C	0.000276	-1.029656	-0.088687
C68	C	0.500276	-0.529656	0.411313
C69	C	0.000188	-0.574389	-0.160470
C70	C	0.500188	-0.074389	0.339530
C71	C	0.000196	-0.501566	-0.159399
C72	C	0.500196	-0.001566	0.340601
C73	C	0.000199	-0.473669	-0.095233
C74	C	0.500199	0.026331	0.404767
C75	C	0.000175	-0.518603	-0.032133
C76	C	0.500175	-0.018603	0.467867
C77	C	0.000160	-0.591425	-0.033207
C78	C	0.500160	-0.091425	0.466793
N79	N	0.041663	-0.365695	-0.046188
N80	N	0.541663	0.134305	0.453812
N81	N	0.041679	-0.296516	-0.045172
N82	N	0.541679	0.203484	0.454828
C83	C	0.000243	-0.254260	-0.091994
C84	C	0.500243	0.245740	0.408006
N85	N	-0.041200	-0.283795	-0.139881
N86	N	0.458800	0.216205	0.360119
N87	N	-0.041213	-0.352980	-0.140899
N88	N	0.458787	0.147020	0.359101
C89	C	0.000215	-0.394707	-0.094062
C90	C	0.500215	0.105293	0.405938
C91	C	0.000270	-0.130372	-0.153928
C92	C	0.500270	0.369628	0.346072
C93	C	0.000274	-0.057547	-0.152853
C94	C	0.500274	0.442453	0.347147
C95	C	0.000261	-0.074586	-0.025586
C96	C	0.500261	0.425414	0.474414
C97	C	0.000250	-0.147409	-0.026662
C98	C	0.500250	0.352591	0.473338
C99	C	0.000258	-0.175298	-0.090835
C100	C	0.500258	0.324702	0.409165
C101	C	0.000236	-0.818997	-0.220700
C102	C	0.500236	-0.318997	0.279300
C103	C	0.000247	-0.820138	-0.298204
C104	C	0.500247	-0.320138	0.201796
C105	C	0.000209	-0.891922	0.157062
C106	C	0.500209	-0.391922	0.657062
C107	C	0.000220	-0.890850	0.229886
C108	C	0.500220	-0.390850	0.729886
C109	C	0.000206	-0.826684	0.257782
C110	C	0.500206	-0.326684	0.757782
C111	C	0.000198	-0.763585	0.212849
C112	C	0.500198	-0.263585	0.712849
C113	C	0.000194	-0.764658	0.140026
C114	C	0.500194	-0.264658	0.640026
N115	N	-0.041244	-0.777631	0.365789
N116	N	0.458756	-0.277631	0.865789
N117	N	-0.041242	-0.776615	0.434968
N118	N	0.458758	-0.276615	0.934968
C119	C	0.000220	-0.823446	0.477191
C120	C	0.500220	-0.323446	0.977191
N121	N	0.041669	-0.871341	0.447624
N122	N	0.541669	-0.371341	0.947624
N123	N	0.041664	-0.872359	0.378439
N124	N	0.541664	-0.372359	0.878439
C125	C	0.000210	-0.825513	0.336745
C126	C	0.500210	-0.325513	0.836745
C127	C	0.000245	-0.885379	0.601079
C128	C	0.500245	-0.385379	1.101079
C129	C	0.000261	-0.884305	0.673904
C130	C	0.500261	-0.384305	1.173904
C131	C	0.000231	-0.757038	0.656865
C132	C	0.500231	-0.257038	1.156865
C133	C	0.000222	-0.758114	0.584042
C134	C	0.500222	-0.258114	1.084042
C135	C	0.000226	-0.822287	0.556154
C136	C	0.500226	-0.322287	1.056154
H137	H	-0.196579	-0.910868	-0.006681
H138	H	0.303421	-0.410868	0.493319
H139	H	0.000267	-0.153080	-0.206181
H140	H	0.500267	0.346920	0.293819
H141	H	0.000208	-0.706738	0.547464
H142	H	0.500208	-0.206738	1.047464
H143	H	0.000214	-0.944176	0.134360
H144	H	0.500214	-0.444176	0.634360
H145	H	-0.196624	-0.738049	-0.179371
H146	H	0.303376	-0.238049	0.320629
O147	O	0.000191	-0.604465	-0.229685
O148	O	0.500191	-0.104465	0.270315
H149	H	0.000183	-0.662651	-0.219835
H150	H	0.500183	-0.162651	0.280165
O151	O	-0.345752	-0.923468	0.005895
O152	O	0.154248	-0.423468	0.505895
H153	H	-0.405486	-0.915469	-0.002102
H154	H	0.094514	-0.415469	0.497898
O155	O	0.000167	-0.696606	0.091569
O156	O	0.500167	-0.196606	0.591569
H157	H	0.049785	-0.665889	0.101449
H158	H	0.549785	-0.165889	0.601449
O159	O	-0.345805	-0.725497	-0.191968
O160	O	0.154195	-0.225497	0.308032
H161	H	-0.306290	-0.692376	-0.225061
H162	H	0.193710	-0.192376	0.274939
O163	O	-0.653750	-0.923488	0.005894
O164	O	-0.153750	-0.423488	0.505894
H165	H	-0.693265	-0.956599	0.038996
H166	H	-0.193265	-0.456599	0.538996
H167	H	-0.802935	-0.910911	-0.006685
H168	H	-0.302935	-0.410911	0.493315
H169	H	0.000251	-0.937632	0.578372
H170	H	0.500251	-0.437632	1.078372
O171	O	-0.813109	-0.725524	-0.191975
O172	O	-0.313109	-0.225524	0.308025
H173	H	-0.872841	-0.733533	-0.183986
H174	H	-0.372841	-0.233533	0.316014
O175	O	0.000266	-0.952358	0.722360
O176	O	0.500266	-0.452358	1.222360
H177	H	0.049892	-0.983095	0.712451
H178	H	0.549892	-0.483095	1.212451
O179	O	-0.653806	-0.725519	-0.191967
O180	O	-0.153806	-0.225519	0.308033
H181	H	-0.693338	-0.692412	-0.225069
H182	H	-0.193338	-0.192412	0.274931
O183	O	0.000225	-0.453098	-0.227448
O184	O	0.500225	0.046902	0.272552
H185	H	0.000233	-0.484725	-0.272251
H186	H	0.500233	0.015275	0.227749
O187	O	0.000179	-0.488521	0.037077
O188	O	0.500179	0.011479	0.537077
H189	H	0.000200	-0.430335	0.027225
H190	H	0.500200	0.069665	0.527225
H191	H	0.000233	-0.942228	0.266470
H192	H	0.500233	-0.442228	0.766470
O193	O	0.000143	-0.639886	0.034843
O194	O	0.500143	-0.139886	0.534843
H195	H	0.000148	-0.608257	0.079644
H196	H	0.500148	-0.108257	0.579644
H197	H	0.000222	-0.704792	0.679578
H198	H	0.500222	-0.204792	1.179578
H199	H	0.000285	-0.020970	-0.204232
H200	H	0.500285	0.479030	0.295768
H201	H	0.000309	-0.051874	0.026659
H202	H	0.500309	0.448126	0.526659
O203	O	0.000173	-0.694375	0.242930
O204	O	0.500173	-0.194375	0.742930
H205	H	0.000168	-0.704227	0.301116
H206	H	0.500168	-0.204227	0.801116
H207	H	0.000238	-0.183988	0.024713
H208	H	0.500238	0.316012	0.524713
