data_functionalizedCrystal
_audit_creation_method	'MofGen! by Chris Wilmer'
_symmetry_space_group_name_H-M	'P1'
_symmetry_Int_Tables_number	1
_symmetry_cell_setting	triclinic
loop_
_symmetry_equiv_pos_as_xyz
  x,y,z
_cell_length_a	14.971486
_cell_length_b	14.853567
_cell_length_c	14.048226
_cell_angle_alpha	89.997365
_cell_angle_beta	89.998499
_cell_angle_gamma	83.624529
loop_
_atom_site_label
_atom_site_type_symbol
_atom_site_fract_x
_atom_site_fract_y
_atom_site_fract_z
O1	O	1.186968	0.117488	-0.079043
O2	O	0.926571	0.131557	-0.079068
O3	O	1.063725	-0.006709	-0.079058
O4	O	1.049814	0.255753	-0.079053
O5	O	1.063709	-0.006717	0.079264
O6	O	0.926554	0.131549	0.079253
O7	O	1.186952	0.117479	0.079278
Zn8	Zn	1.056750	0.124513	0.104403
Zn9	Zn	1.056772	0.124524	-0.104192
O10	O	1.049797	0.255745	0.079268
C11	C	0.893238	0.130924	0.000089
C12	C	0.793940	0.129038	0.000080
C13	C	0.736730	0.210265	0.000082
C14	C	0.643430	0.208488	0.000096
C15	C	0.607342	0.125483	0.000101
C16	C	0.664560	0.044249	0.000101
C17	C	0.757858	0.046027	0.000094
C18	C	0.470097	0.040549	0.000114
C19	C	0.376793	0.038771	0.000120
C20	C	0.355669	0.203010	0.000117
C21	C	0.448967	0.204788	0.000110
C22	C	0.506178	0.123554	0.000108
C23	C	1.063087	-0.040301	0.000100
C24	C	1.061198	-0.140385	0.000092
C25	C	0.971740	-0.552902	0.000101
C26	C	1.134683	-0.574213	0.000117
C27	C	1.136459	-0.480180	0.000111
C28	C	1.055874	-0.422503	0.000102
C29	C	0.973514	-0.458860	0.000099
C30	C	1.218818	-0.443816	0.000125
C31	C	1.220597	-0.349777	0.000120
C32	C	1.140012	-0.292099	0.000104
C33	C	1.057648	-0.328461	0.000100
C34	C	0.977064	-0.270784	0.000091
C35	C	0.894699	-0.307144	0.000079
C36	C	0.892928	-0.401181	0.000083
C37	C	1.141782	-0.198061	0.000101
C38	C	0.978837	-0.176741	0.000088
C39	C	1.220285	0.118113	0.000119
C40	C	1.319582	0.119998	0.000123
C41	C	1.050436	0.289338	0.000108
C42	C	1.052325	0.389421	0.000110
N43	N	1.056742	0.124505	0.246764
N44	N	1.056788	0.124524	-0.246553
C45	C	1.117493	0.063306	0.296586
C46	C	1.117499	0.063306	0.396244
C47	C	1.056758	0.124509	0.446077
C48	C	0.996000	0.185711	0.396247
C49	C	0.995991	0.185706	0.296592
C50	C	0.996026	0.185717	0.603962
C51	C	0.996036	0.185723	0.703624
C52	C	1.117535	0.063317	0.703614
C53	C	1.117525	0.063312	0.603958
C54	C	1.056768	0.124515	0.554135
H55	H	0.309082	0.269154	0.000122
Br56	Br	0.327817	-0.073880	0.000158
H57	H	0.829087	-0.260172	0.000079
H58	H	0.946574	0.235560	0.744194
Br59	Br	0.913556	0.268768	0.463874
H60	H	0.596852	0.274632	0.000098
Br61	Br	1.199945	-0.019754	0.463863
Br62	Br	1.199967	-0.019741	0.536324
H63	H	0.825871	-0.430795	0.000075
H64	H	1.166959	0.013471	0.256018
Br65	Br	0.859965	-0.602244	0.000072
Br66	Br	1.253553	-0.148718	0.000139
Br67	Br	1.199992	-0.019739	0.771233
H68	H	1.287664	-0.320181	0.000128
Br69	Br	0.913533	0.268759	0.228975
Br70	Br	0.913564	0.268776	0.536348
Br71	Br	0.547741	-0.069698	0.000117
H72	H	0.478346	0.272378	0.000097
H73	H	0.635171	-0.023335	0.000119
H74	H	0.766104	0.277858	0.000078
Br75	Br	0.869466	-0.098472	0.000064
Br76	Br	1.244042	-0.652488	0.000150
H77	H	0.804439	-0.020116	0.000091
Br78	Br	1.328176	-0.522093	0.000163
