data_functionalizedCrystal
_audit_creation_method	'MofGen! by Chris Wilmer'
_symmetry_space_group_name_H-M	'P1'
_symmetry_Int_Tables_number	1
_symmetry_cell_setting	triclinic
loop_
_symmetry_equiv_pos_as_xyz
  x,y,z
_cell_length_a	10.654556
_cell_length_b	10.654551
_cell_length_c	9.130313
_cell_angle_alpha	89.998309
_cell_angle_beta	89.998135
_cell_angle_gamma	84.486449
loop_
_atom_site_label
_atom_site_type_symbol
_atom_site_fract_x
_atom_site_fract_y
_atom_site_fract_z
O1	O	1.667835	0.176437	-0.121734
O2	O	1.302358	0.193235	-0.121748
O3	O	1.493499	0.002097	-0.121741
O4	O	1.476694	0.367575	-0.121741
O5	O	1.493486	0.002091	0.121857
O6	O	1.302345	0.193229	0.121851
O7	O	1.667822	0.176431	0.121865
Cu8	Cu	1.485082	0.184830	0.144100
Cu9	Cu	1.485098	0.184836	-0.143984
O10	O	1.476681	0.367569	0.121858
C11	C	1.255554	0.191997	0.000049
C12	C	1.116111	0.188302	0.000044
C13	C	1.492258	-0.044704	0.000055
C14	C	1.488566	-0.184147	0.000045
C15	C	0.919572	0.183102	-0.132731
C16	C	1.050595	0.186566	-0.132740
C17	C	1.050599	0.186560	0.132845
C18	C	0.919580	0.183087	0.132853
C19	C	1.486841	-0.249656	-0.132739
C20	C	1.483361	-0.380677	-0.132732
C21	C	1.483336	-0.380668	0.132853
C22	C	1.486807	-0.249649	0.132845
C23	C	1.488600	-0.184154	-0.265539
C24	C	1.486876	-0.249664	-0.398333
C25	C	1.483396	-0.380684	-0.398326
C26	C	1.481639	-0.446195	-0.265525
C27	C	1.714627	0.177669	0.000064
C28	C	1.854070	0.181364	0.000060
C29	C	1.477922	0.414370	0.000059
C30	C	1.481614	0.553813	0.000059
N31	N	1.485081	0.184824	0.346723
N32	N	1.485110	0.184832	-0.346606
C33	C	1.569747	0.100224	0.423378
C34	C	1.569759	0.100224	0.576715
C35	C	1.400434	0.269436	0.576728
C36	C	1.400417	0.269428	0.423394
H37	H	0.866238	0.181698	-0.240859
H38	H	1.103922	0.187979	-0.240872
C39	C	1.251443	0.191897	0.250760
C40	C	1.122611	0.188472	0.278805
H41	H	1.295894	0.193089	0.340874
H42	H	1.281850	0.119362	0.196214
H43	H	1.263957	0.265579	0.196191
H44	H	1.110096	0.114785	0.333365
H45	H	1.092195	0.261015	0.333375
H46	H	1.331505	0.338320	0.639169
H47	H	1.331466	0.338320	0.360978
H48	H	0.866246	0.181670	0.240994
C49	C	1.737105	-0.067043	0.438771
C50	C	1.662795	0.007217	0.339099
H51	H	1.794542	-0.124470	0.386741
H52	H	1.782738	-0.014341	0.498557
H53	H	1.684429	-0.112698	0.498596
H54	H	1.715471	0.052879	0.279281
H55	H	1.617159	-0.045492	0.279288
H56	H	1.488294	-0.196314	-0.506454
C57	C	1.601341	-0.009649	-0.193237
C58	C	1.492420	-0.040135	-0.265548
H59	H	1.603702	0.079262	-0.193250
H60	H	1.600531	-0.039281	-0.095159
H61	H	1.673662	-0.048237	-0.242282
H62	H	1.420099	-0.001555	-0.216497
H63	H	1.493220	-0.010489	-0.363644
C64	C	1.374576	-0.407839	-0.624709
C65	C	1.481495	-0.452692	-0.544288
H66	H	1.373413	-0.452289	-0.714827
H67	H	1.300905	-0.420377	-0.570158
H68	H	1.376912	-0.320434	-0.643704
H69	H	1.479154	-0.540096	-0.525284
H70	H	1.555184	-0.440165	-0.598852
C71	C	1.368853	-0.620668	-0.193194
C72	C	1.477794	-0.590214	-0.265496
H73	H	1.366478	-0.709577	-0.193179
H74	H	1.369649	-0.591017	-0.095124
H75	H	1.296547	-0.582079	-0.242262
H76	H	1.550100	-0.628796	-0.216421
H77	H	1.477009	-0.619879	-0.363583
C78	C	1.382914	-0.089117	0.286863
C79	C	1.488697	-0.177619	0.278793
H80	H	1.384073	-0.044651	0.376970
H81	H	1.384462	-0.031374	0.207772
H82	H	1.308463	-0.131312	0.281345
H83	H	1.563148	-0.135424	0.284301
H84	H	1.487160	-0.235370	0.357906
H85	H	1.481906	-0.434018	0.240973
H86	H	1.638700	0.031334	0.639123
