data_functionalizedCrystal
_audit_creation_method	'MofGen! by Chris Wilmer'
_symmetry_space_group_name_H-M	'P1'
_symmetry_Int_Tables_number	1
_symmetry_cell_setting	triclinic
loop_
_symmetry_equiv_pos_as_xyz
  x,y,z
_cell_length_a	12.759401
_cell_length_b	10.686285
_cell_length_c	10.686551
_cell_angle_alpha	80.915481
_cell_angle_beta	85.604840
_cell_angle_gamma	85.633237
loop_
_atom_site_label
_atom_site_type_symbol
_atom_site_fract_x
_atom_site_fract_y
_atom_site_fract_z
Zn1	Zn	1.678452	-0.450114	-0.678993
Zn2	Zn	1.678367	-0.678694	-0.450491
Zn3	Zn	1.490236	-0.466473	-0.466757
Zn4	Zn	1.515279	-0.662316	-0.662696
O5	O	1.590584	-0.564399	-0.564734
O6	O	1.825464	-0.480443	-0.648695
O7	O	1.642896	-0.664243	-0.275019
O8	O	1.504759	-0.286681	-0.508538
O9	O	1.825401	-0.648380	-0.480816
O10	O	1.643040	-0.274662	-0.664468
O11	O	1.504676	-0.508326	-0.286969
O12	O	1.346536	-0.492445	-0.492735
O13	O	1.547440	-0.620466	-0.842488
O14	O	1.364934	-0.636329	-0.636691
O15	O	1.667323	-0.464562	-0.854462
O16	O	1.667178	-0.854144	-0.465013
O17	O	1.547358	-0.842111	-0.620919
C18	C	1.317614	-0.564386	-0.564710
C19	C	1.200840	-0.564408	-0.564728
C20	C	1.155585	-0.639462	-0.639548
C21	C	1.045863	-0.639465	-0.639573
C22	C	1.026659	-0.489357	-0.489946
C23	C	1.136379	-0.489348	-0.489929
C24	C	0.907485	-0.673522	-0.785730
C25	C	0.862228	-0.748597	-0.860538
C26	C	0.906281	-0.870988	-0.870322
C27	C	0.995592	-0.918332	-0.805277
C28	C	1.040843	-0.843264	-0.730460
C29	C	0.996792	-0.720854	-0.720701
C30	C	1.274759	-0.455304	-0.343770
C31	C	1.320013	-0.380243	-0.268944
C32	C	1.275961	-0.257851	-0.259148
C33	C	1.186646	-0.210514	-0.324169
C34	C	1.141392	-0.285575	-0.398995
C35	C	1.185452	-0.407966	-0.408794
C36	C	1.610006	-0.894181	-0.539460
C37	C	1.618414	-1.035259	-0.528690
C38	C	1.864619	-0.564414	-0.564759
C39	C	1.981397	-0.564420	-0.564770
C40	C	1.610184	-0.538863	-0.895820
C41	C	1.618537	-0.527980	-1.036909
C42	C	1.571115	-0.233328	-0.590135
C43	C	1.562819	-0.092245	-0.600960
C44	C	1.571114	-0.589745	-0.234943
C45	C	1.562944	-0.600270	-0.093882
H46	H	1.208067	-0.700577	-0.700458
Cl47	Cl	1.479402	-1.000939	-0.709216
H48	H	1.310643	-0.554963	-0.351751
Cl49	Cl	1.701902	-0.419573	-1.128250
H50	H	1.672438	-1.094408	-0.458562
H51	H	1.113557	-0.881810	-0.677501
H52	H	1.508962	-0.670489	-1.034722
H53	H	1.031447	-1.018001	-0.813238
H54	H	0.869425	-0.932114	-0.931233
H55	H	0.789511	-0.710038	-0.913499
H56	H	0.871616	-0.573856	-0.777785
H57	H	1.068672	-0.247018	-0.451948
Cl58	Cl	0.945615	-0.395005	-0.395916
H59	H	1.150764	-0.110861	-0.316172
H60	H	1.312811	-0.196742	-0.198206
Cl61	Cl	1.432285	-0.439764	-0.187182
