data_functionalizedCrystal
_audit_creation_method	'MofGen! by Chris Wilmer'
_symmetry_space_group_name_H-M	'P1'
_symmetry_Int_Tables_number	1
_symmetry_cell_setting	triclinic
loop_
_symmetry_equiv_pos_as_xyz
  x,y,z
_cell_length_a	12.837943
_cell_length_b	10.489741
_cell_length_c	11.295483
_cell_angle_alpha	94.137284
_cell_angle_beta	85.461227
_cell_angle_gamma	89.684057
loop_
_atom_site_label
_atom_site_type_symbol
_atom_site_fract_x
_atom_site_fract_y
_atom_site_fract_z
O1	O	1.384854	0.324137	-0.099003
O2	O	1.082927	0.307742	-0.099010
O3	O	1.240760	0.131100	-0.098999
O4	O	1.227021	0.500780	-0.099013
O5	O	1.226897	0.146588	0.099051
O6	O	1.069064	0.323231	0.099040
O7	O	1.370991	0.339626	0.099047
Cu8	Cu	1.218762	0.332842	0.117127
Cu9	Cu	1.235156	0.314526	-0.117090
O10	O	1.213158	0.516268	0.099036
C11	C	1.037334	0.309948	0.000014
C12	C	0.922133	0.293430	0.000012
C13	C	1.232791	0.091198	0.000025
C14	C	1.229686	-0.050774	0.000023
C15	C	0.682657	0.492006	0.000021
C16	C	0.574415	0.476492	0.000020
C17	C	0.597406	0.246889	0.000016
C18	C	0.705648	0.262403	0.000017
C19	C	0.748269	0.384966	0.000018
C20	C	0.856513	0.400478	0.000011
C21	C	0.879501	0.170877	0.000016
C22	C	0.771260	0.155363	0.000014
C23	C	1.129262	-0.129987	0.000012
C24	C	1.169867	-0.209242	0.097662
C25	C	1.183558	-0.224485	-0.097600
C26	C	1.270327	-0.128153	0.097754
C27	C	1.284011	-0.143394	-0.097596
C28	C	1.324687	-0.222613	0.000078
C29	C	1.416585	0.337420	0.000020
C30	C	1.531786	0.353937	0.000015
C31	C	1.221127	0.556170	0.000010
C32	C	1.224233	0.698141	0.000004
N33	N	1.207238	0.345726	0.281863
N34	N	1.246688	0.301633	-0.281825
C35	C	1.329641	0.208822	0.531161
C36	C	1.320940	0.218568	0.655824
C37	C	1.181131	0.374956	0.655854
C38	C	1.189832	0.365210	0.531191
C39	C	1.264090	0.282142	0.468849
C40	C	1.272796	0.272403	0.344183
C41	C	1.132982	0.428784	0.344216
C42	C	1.124281	0.438530	0.468879
H43	H	0.717359	0.591801	0.000020
C44	C	0.999393	0.430942	0.694297
C45	C	1.099500	0.466237	0.724405
H46	H	0.948996	0.487288	0.736627
H47	H	0.995195	0.435658	0.611148
H48	H	0.986090	0.345947	0.714718
H49	H	1.112806	0.551229	0.703975
H50	H	1.103701	0.461533	0.807573
C51	C	1.192752	-0.246585	-0.311246
C52	C	1.133985	-0.281352	-0.209050
H53	H	1.162144	-0.281696	-0.380045
H54	H	1.193784	-0.156085	-0.311654
H55	H	1.262179	-0.278415	-0.311355
H56	H	1.064559	-0.249513	-0.208937
H57	H	1.132941	-0.371870	-0.208642
H58	H	1.063819	0.506159	0.519653
C59	C	1.334708	0.055825	0.305857
C60	C	1.354411	0.181065	0.275682
H61	H	1.385090	-0.000574	0.263572
H62	H	1.338892	0.051175	0.389016
H63	H	1.266783	0.031933	0.285426
H64	H	1.422333	0.204960	0.296121
H65	H	1.350236	0.185720	0.192505
C66	C	0.958291	-0.108106	0.102524
C67	C	1.017793	-0.075225	0.000137
H68	H	0.889479	-0.074289	0.102606
H69	H	0.955502	-0.198516	0.103221
H70	H	0.989530	-0.073793	0.171183
H71	H	0.986558	-0.109546	-0.068523
H72	H	1.020578	0.015203	-0.000571
C73	C	1.076390	0.639358	0.305858
C74	C	1.060924	0.509390	0.275724
H75	H	1.031911	0.689121	0.263568
H76	H	1.060578	0.657032	0.389016
H77	H	1.147169	0.660065	0.285407
H78	H	0.990146	0.488681	0.296183
H79	H	1.076729	0.491709	0.192547
H80	H	0.520997	0.563656	0.000025
H81	H	1.390112	0.141194	0.480400
C82	C	0.441679	0.121175	0.000034
C83	C	0.550542	0.112178	0.000026
H84	H	0.412750	0.038007	0.000035
H85	H	0.414400	0.171199	0.069093
H86	H	0.424059	0.160402	-0.069037
H87	H	0.568163	0.072959	0.069101
H88	H	0.577831	0.062134	-0.069040
H89	H	0.736541	0.055577	0.000027
C90	C	0.822910	0.625871	0.000030
C91	C	0.903365	0.535196	0.000019
H92	H	0.851835	0.709042	0.000045
H93	H	0.786007	0.609653	-0.069031
H94	H	0.776336	0.620425	0.069098
H95	H	0.949936	0.540635	-0.069054
H96	H	0.940286	0.551419	0.069087
C97	C	1.421825	-0.119362	0.209721
C98	C	1.319830	-0.071497	0.209329
H99	H	1.452383	-0.084375	0.278600
H100	H	1.420170	-0.209823	0.210377
H101	H	1.462098	-0.096329	0.140459
H102	H	1.279554	-0.094539	0.278587
H103	H	1.321478	0.018984	0.208684
C104	C	1.149175	-0.198005	0.311307
C105	C	1.104709	-0.248728	0.209105
H106	H	1.108941	-0.222375	0.380102
H107	H	1.218581	-0.229808	0.311406
H108	H	1.150144	-0.107429	0.311731
H109	H	1.103747	-0.339305	0.208677
H110	H	1.035284	-0.216931	0.209006
C111	C	1.496291	-0.242114	-0.101133
C112	C	1.436257	-0.276995	0.000149
H113	H	1.565174	-0.275670	-0.101079
H114	H	1.465658	-0.275437	-0.170535
H115	H	1.498769	-0.151574	-0.100462
H116	H	1.433773	-0.367535	-0.000526
H117	H	1.466899	-0.243677	0.069569
C118	C	1.352109	0.029673	-0.207245
C119	C	1.349128	-0.103865	-0.209041
H120	H	1.392310	0.054076	-0.276051
H121	H	1.283034	0.062780	-0.206552
H122	H	1.383023	0.062724	-0.137922
H123	H	1.318207	-0.136916	-0.278361
H124	H	1.418216	-0.136985	-0.209746
H125	H	0.932936	0.083716	0.000006
H126	H	1.374316	0.158862	0.706555
