data_functionalizedCrystal
_audit_creation_method	'MofGen! by Chris Wilmer'
_symmetry_space_group_name_H-M	'P1'
_symmetry_Int_Tables_number	1
_symmetry_cell_setting	triclinic
loop_
_symmetry_equiv_pos_as_xyz
  x,y,z
_cell_length_a	21.295417
_cell_length_b	16.959455
_cell_length_c	16.959447
_cell_angle_alpha	90.023646
_cell_angle_beta	89.964807
_cell_angle_gamma	89.974501
loop_
_atom_site_label
_atom_site_type_symbol
_atom_site_fract_x
_atom_site_fract_y
_atom_site_fract_z
Zn1	Zn	-0.250681	-1.208327	-0.447079
Zn2	Zn	-0.355958	-1.208225	-0.314889
Zn3	Zn	-0.250697	-1.076155	-0.314894
Zn4	Zn	-0.355907	-1.076096	-0.447006
O5	O	-0.303311	-1.142201	-0.380967
O6	O	-0.264660	-1.318924	-0.429571
O7	O	-0.342022	-1.190688	-0.204279
O8	O	-0.162605	-1.093755	-0.332462
O9	O	-0.342007	-1.318849	-0.332452
O10	O	-0.162594	-1.190861	-0.429577
O11	O	-0.264688	-1.093657	-0.204283
O12	O	-0.264639	-0.965536	-0.332391
O13	O	-0.341920	-1.093654	-0.557626
O14	O	-0.341936	-0.965493	-0.429453
O15	O	-0.264611	-1.190803	-0.557680
O16	O	-0.444040	-1.190630	-0.332381
O17	O	-0.444003	-1.093555	-0.429447
C18	C	-0.303284	-0.936834	-0.380915
C19	C	-0.303288	-0.848978	-0.380912
C20	C	-0.343526	-0.477453	-0.330333
C21	C	-0.263110	-0.477552	-0.431621
C22	C	-0.263102	-0.560097	-0.431606
C23	C	-0.303307	-0.601325	-0.380955
C24	C	-0.343521	-0.560006	-0.330319
C25	C	-0.222893	-0.601422	-0.482248
C26	C	-0.222884	-0.683973	-0.482236
C27	C	-0.263087	-0.725202	-0.431580
C28	C	-0.303302	-0.683878	-0.380941
C29	C	-0.343507	-0.725105	-0.330290
C30	C	-0.383719	-0.683783	-0.279646
C31	C	-0.383724	-0.601235	-0.279663
C32	C	-0.263083	-0.807750	-0.431563
C33	C	-0.343502	-0.807659	-0.330275
C34	C	-0.466862	-1.142097	-0.380923
C35	C	-0.536830	-1.142125	-0.380931
C36	C	-0.569695	-1.192717	-0.330440
C37	C	-0.635438	-1.192754	-0.330458
C38	C	-0.668313	-1.142185	-0.380958
C39	C	-0.635440	-1.091590	-0.431458
C40	C	-0.569698	-1.091560	-0.431445
N41	N	-0.771573	-1.073038	-0.386967
N42	N	-0.834025	-1.073069	-0.386975
C43	C	-0.866387	-1.142273	-0.381003
N44	N	-0.833939	-1.211448	-0.375008
N45	N	-0.771482	-1.211416	-0.374995
C46	C	-0.739598	-1.142212	-0.380979
C47	C	-0.970538	-1.192910	-0.330530
C48	C	-1.036282	-1.192948	-0.330553
C49	C	-1.036282	-1.091777	-0.431549
C50	C	-0.970540	-1.091745	-0.431530
C51	C	-0.937672	-1.142311	-0.381016
C52	C	-0.139120	-1.142326	-0.381028
C53	C	-0.069152	-1.142380	-0.381054
C54	C	-0.303258	-1.142233	-0.587135
C55	C	-0.303236	-1.142247	-0.674992
C56	C	-0.303330	-0.348369	-0.381005
C57	C	-0.303321	-0.436225	-0.380984
C58	C	-0.343421	-1.091761	-1.046442
C59	C	-0.262919	-1.192923	-1.046493
C60	C	-0.262932	-1.192902	-0.963947
C61	C	-0.303191	-1.142310	-0.922645
C62	C	-0.343437	-1.091740	-0.963889
C63	C	-0.222691	-1.243478	-0.922697
C64	C	-0.222703	-1.243459	-0.840146
C65	C	-0.262960	-1.192863	-0.798843
C66	C	-0.303207	-1.142289	-0.840091
C67	C	-0.343466	-1.091698	-0.798789
C68	C	-0.383711	-1.041120	-0.840037
C69	C	-0.383694	-1.041143	-0.922585
C70	C	-0.262977	-1.192839	-0.716294
C71	C	-0.343482	-1.091677	-0.716236
C72	C	-0.303317	-1.142213	-0.175601
C73	C	-0.303162	-1.142352	-0.087744
H74	H	-0.190164	-0.567849	-0.523490
H75	H	-0.190141	-0.717611	-0.523473
H76	H	-0.189918	-1.284672	-0.956331
C77	C	-0.143122	-1.343453	-0.848497
C78	C	-0.178462	-1.299045	-0.794811
H79	H	-0.115806	-1.377764	-0.820506
H80	H	-0.170547	-1.373678	-0.880680
H81	H	-0.119038	-1.309033	-0.880706
H82	H	-0.202551	-1.333466	-0.762606
H83	H	-0.151034	-1.268819	-0.762615
H84	H	-0.376261	-1.050471	-0.682613
C85	C	-1.029674	-1.292932	-0.230708
C86	C	-1.072410	-1.248562	-0.275048
H87	H	-1.051980	-1.327262	-0.196438
H88	H	-1.003991	-1.323134	-0.265169
H89	H	-1.004074	-1.258488	-0.200436
H90	H	-1.098007	-1.283006	-0.305325
H91	H	-1.098103	-1.218358	-0.240583
C92	C	-0.463271	-0.941142	-0.914243
C93	C	-0.427932	-0.985556	-0.967924
H94	H	-0.490579	-0.906824	-0.942238
H95	H	-0.487358	-0.975552	-0.882039
H96	H	-0.435841	-0.910917	-0.882055
H97	H	-0.455362	-1.015786	-1.000108
H98	H	-0.403843	-0.951142	-1.000142
C99	C	-0.869759	-1.237779	-0.285657
C100	C	-0.934403	-1.248495	-0.275014
H101	H	-0.847454	-1.272093	-0.251380
H102	H	-0.858946	-1.249307	-0.338769
H103	H	-0.859035	-1.184671	-0.274026
H104	H	-0.945128	-1.301603	-0.286650
H105	H	-0.945220	-1.236973	-0.221889
H106	H	-1.063048	-1.050606	-0.472670
H107	H	-0.416492	-0.999931	-0.806398
H108	H	-0.542936	-1.233892	-0.289311
H109	H	-0.230212	-1.234021	-0.682714
H110	H	-0.376185	-1.050579	-1.080030
C111	C	-0.227156	-1.237875	-1.173057
C112	C	-0.218669	-1.248534	-1.091890
H113	H	-0.199834	-1.272206	-1.201083
H114	H	-0.269446	-1.249416	-1.186558
H115	H	-0.217933	-1.184775	-1.186575
H116	H	-0.227897	-1.301633	-1.078371
H117	H	-0.176370	-1.236999	-1.078384
H118	H	-0.662211	-1.050417	-0.472577
H119	H	-0.376240	-0.841220	-0.289026
C120	C	-0.468396	-0.508363	-0.268511
C121	C	-0.427927	-0.555812	-0.224006
H122	H	-0.495687	-0.480323	-0.234151
H123	H	-0.444451	-0.472003	-0.298673
H124	H	-0.492503	-0.540588	-0.302883
H125	H	-0.403816	-0.523587	-0.189638
H126	H	-0.451874	-0.592177	-0.193831
H127	H	-0.416458	-0.717361	-0.238410
C128	C	-0.183604	-0.799552	-0.531693
C129	C	-0.218888	-0.853171	-0.487228
H130	H	-0.156317	-0.827595	-0.566056
H131	H	-0.211066	-0.767363	-0.561864
H132	H	-0.159491	-0.767344	-0.497311
H133	H	-0.243005	-0.885376	-0.521609
H134	H	-0.191423	-0.885374	-0.457054
C135	C	-0.227414	-0.351055	-0.476612
C136	C	-0.218916	-0.432236	-0.487293
H137	H	-0.200125	-0.323079	-0.510980
H138	H	-0.269716	-0.337521	-0.488090
H139	H	-0.218152	-0.337507	-0.423524
H140	H	-0.228183	-0.445785	-0.540380
H141	H	-0.176605	-0.445776	-0.475821
C142	C	-0.428199	-0.384580	-0.319164
C143	C	-0.387728	-0.432037	-0.274669
H144	H	-0.455490	-0.356546	-0.284798
H145	H	-0.404255	-0.348214	-0.349320
H146	H	-0.452307	-0.416799	-0.353541
H147	H	-0.363617	-0.399817	-0.240296
H148	H	-0.411675	-0.468407	-0.244499
H149	H	-0.662202	-1.233954	-0.289343
H150	H	-0.542939	-1.050361	-0.472561
H151	H	-0.943779	-1.050545	-0.472640
