data_functionalizedCrystal
_audit_creation_method	'MofGen! by Chris Wilmer'
_symmetry_space_group_name_H-M	'P1'
_symmetry_Int_Tables_number	1
_symmetry_cell_setting	triclinic
loop_
_symmetry_equiv_pos_as_xyz
  x,y,z
_cell_length_a	14.853569
_cell_length_b	9.565339
_cell_length_c	14.853567
_cell_angle_alpha	89.995974
_cell_angle_beta	83.635248
_cell_angle_gamma	90.001586
loop_
_atom_site_label
_atom_site_type_symbol
_atom_site_fract_x
_atom_site_fract_y
_atom_site_fract_z
O1	O	1.196363	0.116184	0.117704
O2	O	0.933904	0.116199	0.131724
O3	O	1.072144	0.116195	-0.006515
O4	O	1.058123	0.116188	0.255944
O5	O	1.072133	-0.116325	-0.006507
O6	O	0.933893	-0.116321	0.131733
O7	O	1.196352	-0.116336	0.117713
Zn8	Zn	1.065121	-0.153246	0.124724
Zn9	Zn	1.065135	0.153109	0.124713
O10	O	1.058112	-0.116332	0.255953
C11	C	0.900310	-0.000059	0.131093
C12	C	0.800226	-0.000052	0.129189
N13	N	1.065118	-0.362325	0.124732
C14	C	0.763850	-0.000045	0.046178
C15	C	0.742560	-0.000065	0.210410
C16	C	0.648526	-0.000067	0.208624
C17	C	0.612150	-0.000059	0.125613
C18	C	0.669807	-0.000051	0.044389
C19	C	0.590862	-0.000090	0.289847
C20	C	0.496821	-0.000093	0.288064
C21	C	0.460443	-0.000076	0.205052
C22	C	0.518107	-0.000065	0.123824
C23	C	0.481730	-0.000058	0.040813
C24	C	0.539393	-0.000037	-0.040415
C25	C	0.633429	-0.000033	-0.038623
C26	C	0.366407	-0.000080	0.203259
C27	C	0.387688	-0.000064	0.039024
C28	C	1.001167	-0.453527	0.188642
C29	C	1.082657	-0.546711	0.206237
C30	C	0.983663	-0.546696	0.107143
C31	C	1.146648	-0.453458	0.142368
C32	C	1.047602	-0.453435	0.043238
C33	C	1.129150	-0.546577	0.060799
C34	C	1.229947	-0.000075	0.118344
C35	C	1.330030	-0.000072	0.120249
C36	C	1.071504	-0.000061	-0.040100
C37	C	1.069600	-0.000048	-0.140183
N38	N	1.065146	0.362189	0.124699
C39	C	0.979434	-0.000070	-0.552718
C40	C	1.143667	-0.000079	-0.573998
C41	C	1.145457	-0.000071	-0.479964
C42	C	1.064234	-0.000064	-0.422303
C43	C	0.981222	-0.000066	-0.458675
C44	C	1.228468	-0.000084	-0.443585
C45	C	1.230262	-0.000077	-0.349545
C46	C	1.149038	-0.000061	-0.291882
C47	C	1.066022	-0.000060	-0.328260
C48	C	0.984800	-0.000054	-0.270599
C49	C	0.901783	-0.000043	-0.306974
C50	C	0.899998	-0.000049	-0.401012
C51	C	1.150822	-0.000055	-0.197845
C52	C	0.986587	-0.000050	-0.176556
C53	C	1.058753	-0.000073	0.289537
C54	C	1.060657	-0.000076	0.389621
H55	H	0.358078	-0.000050	-0.028574
H56	H	0.449880	-0.000107	0.354205
H57	H	1.209794	-0.000096	-0.620951
F58	F	0.781278	-0.000077	0.298751
F59	F	0.930544	-0.400117	0.259347
H60	H	1.294595	-0.000102	-0.490539
H61	H	0.680385	-0.000019	-0.104755
H62	H	1.097491	-0.587682	0.275141
H63	H	0.810802	-0.000023	-0.019956
F64	F	0.500667	-0.000041	-0.128759
F65	F	0.629581	-0.000095	0.378186
H66	H	0.319463	-0.000109	0.269395
H67	H	0.914767	-0.587655	0.092280
H68	H	1.215560	-0.412675	0.157313
F69	F	1.199929	-0.599653	-0.009866
F70	F	1.318614	-0.000071	-0.310840
F71	F	1.239168	-0.000088	-0.159134
H72	H	1.032742	-0.412432	-0.025643
H73	H	0.920445	-0.000038	-0.129613
F74	F	0.815343	-0.000047	-0.245597
F75	F	0.891086	-0.000047	-0.591431
F76	F	0.811654	-0.000034	-0.439732
