data_functionalizedCrystal
_audit_creation_method	'MofGen! by Chris Wilmer'
_symmetry_space_group_name_H-M	'P1'
_symmetry_Int_Tables_number	1
_symmetry_cell_setting	triclinic
loop_
_symmetry_equiv_pos_as_xyz
  x,y,z
_cell_length_a	6.394989
_cell_length_b	19.288840
_cell_length_c	17.766277
_cell_angle_alpha	89.983415
_cell_angle_beta	89.996862
_cell_angle_gamma	84.811864
loop_
_atom_site_label
_atom_site_type_symbol
_atom_site_fract_x
_atom_site_fract_y
_atom_site_fract_z
O1	O	0.260296	0.923914	-0.062715
O2	O	0.295498	0.721995	-0.062689
O3	O	-0.026195	0.825820	-0.062703
O4	O	0.581989	0.820088	-0.062701
O5	O	-0.026211	0.825802	0.062485
O6	O	0.295482	0.721976	0.062500
O7	O	0.260280	0.923895	0.062473
Cu8	Cu	0.277880	0.822934	0.073917
Cu9	Cu	0.277899	0.822956	-0.074133
O10	O	0.581973	0.820069	0.062488
C11	C	0.294366	0.696098	-0.000091
C12	C	0.290992	0.618960	-0.000081
C13	C	0.289380	0.582751	-0.068323
C14	C	0.286187	0.510273	-0.068333
C15	C	0.284563	0.474008	-0.000096
C16	C	0.286187	0.510226	0.068156
C17	C	0.289402	0.582702	0.068163
C18	C	0.157130	0.363425	0.052172
C19	C	0.153903	0.290950	0.052162
C20	C	0.274658	0.250468	-0.000115
C21	C	0.398614	0.282469	-0.052395
C22	C	0.401829	0.354945	-0.052388
C23	C	0.281079	0.395420	-0.000096
C24	C	0.269586	0.135669	-0.068372
C25	C	0.266406	0.063189	-0.068379
C26	C	0.266385	0.063144	0.068111
C27	C	0.269587	0.135622	0.068116
C28	C	0.271177	0.171881	-0.000128
C29	C	0.659792	0.821212	-0.000110
C30	C	0.895993	0.824676	-0.000113
C31	C	0.261412	0.949792	-0.000126
C32	C	0.264786	1.026929	-0.000141
N33	N	0.277865	0.822923	0.178048
N34	N	0.277897	0.822972	-0.178263
C35	C	0.135489	0.868913	0.217428
C36	C	0.135479	0.868917	0.296230
C37	C	0.277881	0.822938	0.335648
C38	C	0.420268	0.776939	0.296258
C39	C	0.420260	0.776932	0.217458
C40	C	0.468184	0.815503	0.460487
C41	C	0.468195	0.815515	0.539286
C42	C	0.277906	0.822957	0.578694
C43	C	0.087598	0.830401	0.539294
C44	C	0.087590	0.830393	0.460494
C45	C	0.277905	0.822941	0.421094
C46	C	0.135508	0.868953	0.703521
C47	C	0.135496	0.868952	0.782324
C48	C	0.420303	0.776978	0.782351
C49	C	0.420297	0.776976	0.703549
C50	C	0.277902	0.822967	0.664139
H51	H	0.284870	0.480694	0.123714
C52	C	0.271334	0.175458	0.143181
H53	H	0.273496	0.223815	0.133413
H54	H	0.149036	0.167809	0.171220
H55	H	0.392590	0.159332	0.171219
C56	C	0.291177	0.622634	-0.143386
H57	H	0.293316	0.670985	-0.133611
H58	H	0.412426	0.606522	-0.171422
H59	H	0.168873	0.615008	-0.171430
H60	H	0.052960	0.264901	0.094728
H61	H	0.502763	0.380997	-0.094955
C62	C	0.531486	0.237950	-0.109897
H63	H	0.605761	0.267389	-0.141030
H64	H	0.628598	0.206250	-0.084004
H65	H	0.442052	0.212752	-0.140140
C66	C	0.291141	0.622535	0.143232
H67	H	0.289703	0.590560	0.183872
H68	H	0.414151	0.646574	0.146077
H69	H	0.170597	0.655040	0.146066
C70	C	-0.021131	0.919539	0.825646
H71	H	-0.000755	0.912952	0.878222
H72	H	0.001189	0.966088	0.812716
H73	H	-0.160473	0.910776	0.812737
H74	H	0.536242	0.739530	0.671483
H75	H	0.019537	0.906360	0.185342
H76	H	0.058791	0.396380	0.094747
H77	H	0.623156	0.809458	0.571360
C78	C	-0.121732	0.838581	0.582632
H79	H	-0.094480	0.837510	0.635205
H80	H	-0.196568	0.881731	0.569706
H81	H	-0.203273	0.801537	0.569731
H82	H	-0.067366	0.836453	0.428417
H83	H	0.284877	0.480786	-0.123905
C84	C	0.576943	0.726402	0.825701
H85	H	0.556566	0.732995	0.878273
H86	H	0.554630	0.679852	0.812807
H87	H	0.716283	0.735167	0.812779
H88	H	0.270904	0.165192	-0.123940
C89	C	0.576912	0.726366	0.339615
H90	H	0.556542	0.732962	0.392186
H91	H	0.554598	0.679815	0.326724
H92	H	0.716251	0.735130	0.326689
C93	C	-0.021137	0.919509	0.339558
H94	H	-0.105935	0.946900	0.304800
H95	H	-0.107880	0.893771	0.370314
H96	H	0.053799	0.949077	0.370280
H97	H	0.623151	0.809431	0.428408
C98	C	-0.021138	0.919533	0.660166
H99	H	-0.105959	0.946917	0.694909
H100	H	0.053758	0.949099	0.629412
H101	H	-0.107887	0.893782	0.629440
C102	C	0.576898	0.726350	0.174134
H103	H	0.556496	0.732931	0.121559
H104	H	0.716229	0.735113	0.187043
H105	H	0.554577	0.679797	0.187063
C106	C	0.264642	0.023356	-0.143447
H107	H	0.262527	-0.025003	-0.133679
H108	H	0.143397	0.039478	-0.171485
H109	H	0.386951	0.031007	-0.171486
C110	C	0.265291	0.023238	0.143170
H111	H	0.263345	-0.025120	0.133393
H112	H	0.387792	0.030946	0.171053
H113	H	0.144233	0.039252	0.171368
