data_functionalizedCrystal
_audit_creation_method	'MofGen! by Chris Wilmer'
_symmetry_space_group_name_H-M	'P1'
_symmetry_Int_Tables_number	1
_symmetry_cell_setting	triclinic
loop_
_symmetry_equiv_pos_as_xyz
  x,y,z
_cell_length_a	15.021413
_cell_length_b	15.944551
_cell_length_c	15.944551
_cell_angle_alpha	83.498738
_cell_angle_beta	90.009956
_cell_angle_gamma	89.990189
loop_
_atom_site_label
_atom_site_type_symbol
_atom_site_fract_x
_atom_site_fract_y
_atom_site_fract_z
O1	O	-0.073941	-1.114511	-0.108339
O2	O	0.426059	-0.614511	0.391661
O3	O	-0.073964	-0.869962	-0.121695
O4	O	0.426036	-0.369962	0.378305
O5	O	-0.073944	-0.998915	0.007258
O6	O	0.426056	-0.498915	0.507258
O7	O	-0.073961	-0.985559	-0.237292
O8	O	0.426039	-0.485559	0.262708
O9	O	0.074121	-0.998929	0.007275
O10	O	0.574121	-0.498929	0.507275
O11	O	0.074101	-0.869976	-0.121678
O12	O	0.574101	-0.369976	0.378322
O13	O	0.074123	-1.114526	-0.108321
O14	O	0.574123	-0.614526	0.391679
Zn15	Zn	0.097620	-0.992253	-0.114997
Zn16	Zn	0.597620	-0.492253	0.385003
Zn17	Zn	-0.097461	-0.992234	-0.115020
Zn18	Zn	0.402539	-0.492234	0.384980
O19	O	0.074103	-0.985573	-0.237274
O20	O	0.574103	-0.485573	0.262726
C21	C	0.000066	-0.838675	-0.121132
C22	C	0.500066	-0.338675	0.378868
C23	C	0.000057	-0.745429	-0.119470
C24	C	0.500057	-0.245429	0.380530
N25	N	-0.230598	-0.992222	-0.115029
N26	N	0.269402	-0.492222	0.384971
C27	C	0.000089	-0.998367	0.038561
C28	C	0.500089	-0.498367	0.538561
C29	C	0.000089	-0.996705	0.131807
C30	C	0.500089	-0.496705	0.631807
C31	C	-0.470285	-0.932482	-0.174536
C32	C	0.029715	-0.432482	0.325464
C33	C	-0.529618	-0.916371	-0.098574
C34	C	-0.029618	-0.416371	0.401426
C35	C	-0.412205	-0.992239	-0.115011
C36	C	0.087795	-0.492239	0.384989
C37	C	-0.529614	-1.008327	-0.190956
C38	C	-0.029614	-0.508327	0.309044
C39	C	-0.587629	-0.992253	-0.115000
C40	C	-0.087629	-0.492253	0.385000
C41	C	-0.470232	-0.976090	-0.039010
C42	C	0.029768	-0.476090	0.460990
C43	C	-0.470222	-1.068078	-0.131442
C44	C	0.029778	-0.568078	0.368558
C45	C	-0.529529	-1.052000	-0.055425
C46	C	-0.029529	-0.552000	0.444575
C47	C	-0.311148	-0.992228	-0.115018
C48	C	0.188852	-0.492228	0.384982
C49	C	-0.688685	-0.992264	-0.114984
C50	C	-0.188685	-0.492264	0.385016
N51	N	0.230758	-0.992272	-0.114981
N52	N	0.730758	-0.492272	0.385019
C53	C	0.000092	-1.145813	-0.108885
C54	C	0.500092	-0.645813	0.391115
C55	C	0.000094	-1.239059	-0.110547
C56	C	0.500094	-0.739059	0.389453
C57	C	0.000081	-0.530572	-0.035565
C58	C	0.500081	-0.030572	0.464435
C59	C	-0.072926	-0.469545	-0.074536
C60	C	0.427074	0.030455	0.425464
C61	C	0.000068	-0.574703	-0.116462
C62	C	0.500068	-0.074703	0.383538
C63	C	0.073054	-0.469581	-0.074538
C64	C	0.573054	0.030419	0.425462
C65	C	0.000083	-0.409790	-0.113551
C66	C	0.500083	0.090210	0.386449
C67	C	-0.072998	-0.514904	-0.155455
C68	C	0.427002	-0.014904	0.344545
C69	C	0.073047	-0.514947	-0.155446
C70	C	0.573047	-0.014947	0.344554
C71	C	0.000023	-0.453937	-0.194476
C72	C	0.500023	0.046063	0.305524
C73	C	0.000059	-0.669705	-0.118137
C74	C	0.500059	-0.169705	0.381863
C75	C	0.000085	-0.314789	-0.111883
C76	C	0.500085	0.185211	0.388117
C77	C	0.000069	-0.986120	-0.268577
C78	C	0.500069	-0.486120	0.231423
C79	C	0.000063	-0.987782	-0.361823
C80	C	0.500063	-0.487782	0.138177
C81	C	0.000069	-0.912801	0.346663
C82	C	0.500069	-0.412801	0.846663
C83	C	0.073077	-0.951770	0.407689
C84	C	0.573077	-0.451770	0.907689
C85	C	0.000082	-0.993698	0.302533
C86	C	0.500082	-0.493698	0.802533
C87	C	-0.072903	-0.951775	0.407656
C88	C	0.427097	-0.451775	0.907656
C89	C	0.000071	-0.990787	0.467445
C90	C	0.500071	-0.490787	0.967445
C91	C	0.073150	-1.032690	0.362330
C92	C	0.573150	-0.532690	0.862330
C93	C	-0.072895	-1.032683	0.362290
C94	C	0.427105	-0.532683	0.862290
C95	C	0.000131	-1.071711	0.423298
C96	C	0.500131	-0.571711	0.923298
C97	C	0.000089	-0.995372	0.207530
C98	C	0.500089	-0.495372	0.707530
C99	C	0.000070	-0.989119	0.562446
C100	C	0.500070	-0.489119	1.062446
H101	H	-0.444271	-0.881909	-0.224821
H102	H	0.055729	-0.381909	0.275179
F103	F	-0.153573	-0.907026	0.433906
F104	F	0.346427	-0.407026	0.933906
H105	H	0.000178	-1.138919	0.456457
H106	H	0.500178	-0.638919	0.956457
H107	H	0.000136	-0.845652	0.313356
H108	H	0.500136	-0.345652	0.813356
F109	F	-0.563708	-1.026107	-0.274908
F110	F	-0.063708	-0.526107	0.225092
H111	H	0.134794	-0.917560	0.427805
H112	H	0.634794	-0.417560	0.927805
F113	F	-0.153567	-1.077361	0.335967
F114	F	0.346433	-0.577361	0.835967
H115	H	-0.000005	-0.563905	0.031573
H116	H	0.499995	-0.063905	0.531573
H117	H	-0.555714	-0.852243	-0.084669
H118	H	-0.055714	-0.352243	0.415331
H119	H	-0.134642	-0.449429	-0.040327
H120	H	0.365358	0.050571	0.459673
H121	H	-0.444258	-0.962413	0.025234
H122	H	0.055742	-0.462413	0.525234
H123	H	-0.555378	-1.102543	-0.005027
H124	H	-0.055378	-0.602543	0.494973
H125	H	0.134773	-0.449501	-0.040300
H126	H	0.634773	0.050499	0.459700
H127	H	-0.444111	-1.132187	-0.145376
H128	H	0.055889	-0.632187	0.354624
F129	F	-0.000034	-0.410594	-0.282319
F130	F	0.499966	0.089406	0.217681
H131	H	-0.134787	-0.534886	-0.189653
H132	H	0.365213	-0.034886	0.310347
F133	F	0.153719	-0.541270	-0.200123
F134	F	0.653719	-0.041270	0.299877
H135	H	0.134941	-1.066883	0.342347
H136	H	0.634941	-0.566883	0.842347
