data_functionalizedCrystal
_audit_creation_method	'MofGen! by Chris Wilmer'
_symmetry_space_group_name_H-M	'P1'
_symmetry_Int_Tables_number	1
_symmetry_cell_setting	triclinic
loop_
_symmetry_equiv_pos_as_xyz
  x,y,z
_cell_length_a	19.805407
_cell_length_b	13.032721
_cell_length_c	19.805399
_cell_angle_alpha	97.155902
_cell_angle_beta	89.980427
_cell_angle_gamma	97.204665
loop_
_atom_site_label
_atom_site_type_symbol
_atom_site_fract_x
_atom_site_fract_y
_atom_site_fract_z
Zn1	Zn	1.000535	-0.416068	-0.416943
Zn2	Zn	1.500535	0.083932	0.083057
Zn3	Zn	0.986084	-0.590828	-0.318130
Zn4	Zn	1.486084	-0.090828	0.181870
Zn5	Zn	0.887347	-0.416097	-0.303770
Zn6	Zn	1.387347	0.083903	0.196230
Zn7	Zn	0.872952	-0.590772	-0.431272
Zn8	Zn	1.372952	-0.090772	0.068728
O9	O	0.936729	-0.503441	-0.367529
O10	O	1.436729	-0.003441	0.132471
O11	O	1.093333	-0.439261	-0.403849
O12	O	1.593333	0.060739	0.096151
O13	O	0.972963	-0.567684	-0.221512
O14	O	1.472963	-0.067684	0.278488
O15	O	0.914433	-0.269853	-0.306777
O16	O	1.414433	0.230147	0.193223
O17	O	1.082717	-0.567656	-0.331251
O18	O	1.582717	-0.067656	0.168749
O19	O	0.997592	-0.269832	-0.389925
O20	O	1.497592	0.230168	0.110075
O21	O	0.900421	-0.439310	-0.210962
O22	O	1.400421	0.060690	0.289038
O23	O	0.790722	-0.439257	-0.320671
O24	O	1.290722	0.060743	0.179329
O25	O	0.889899	-0.567562	-0.524085
O26	O	1.389899	-0.067562	-0.024085
O27	O	0.780146	-0.567590	-0.414346
O28	O	1.280146	-0.067590	0.085654
O29	O	0.983634	-0.439207	-0.513558
O30	O	1.483634	0.060793	-0.013558
O31	O	0.959005	-0.737060	-0.345145
O32	O	1.459005	-0.237060	0.154855
O33	O	0.875887	-0.737019	-0.428270
O34	O	1.375887	-0.237019	0.071730
C35	C	0.760875	-0.503421	-0.367506
C36	C	1.260875	-0.003421	0.132494
C37	C	0.685642	-0.503438	-0.367514
C38	C	1.185642	-0.003438	0.132486
C39	C	0.644800	-0.570361	-0.416228
C40	C	1.144800	-0.070361	0.083772
C41	C	0.574112	-0.570363	-0.416238
C42	C	1.074112	-0.070363	0.083762
C43	C	0.544265	-0.503446	-0.367529
C44	C	1.044265	-0.003446	0.132471
C45	C	0.585113	-0.436515	-0.318812
C46	C	1.085113	0.063485	0.181188
C47	C	0.655800	-0.436508	-0.318806
C48	C	1.155800	0.063492	0.181194
C49	C	0.300037	-0.436538	-0.318836
C50	C	0.800037	0.063462	0.181164
C51	C	0.229344	-0.436551	-0.318845
C52	C	0.729344	0.063449	0.181155
C53	C	0.218349	-0.570393	-0.416269
C54	C	0.718349	-0.070393	0.083731
C55	C	0.289036	-0.570386	-0.416262
C56	C	0.789036	-0.070386	0.083738
C57	C	0.329878	-0.503452	-0.367548
C58	C	0.829878	-0.003452	0.132452
C59	C	0.406526	-0.503449	-0.367538
C60	C	0.906526	-0.003449	0.132462
C61	C	0.467618	-0.503453	-0.367535
C62	C	0.967618	-0.003453	0.132465
C63	C	0.914334	-0.774958	-0.389835
C64	C	1.414334	-0.274958	0.110165
C65	C	0.904816	-0.891114	-0.399401
C66	C	1.404816	-0.391114	0.100599
C67	C	0.941733	-0.942886	-0.362567
C68	C	1.441733	-0.442886	0.137433
C69	C	0.931896	-1.062939	-0.372453
C70	C	1.431896	-0.562939	0.127547
C71	C	1.113270	-0.503462	-0.367553
C72	C	1.613270	-0.003462	0.132447
C73	C	1.188502	-0.503471	-0.367563
C74	C	1.688502	-0.003471	0.132437
C75	C	0.936773	-0.503375	-0.544066
C76	C	1.436773	-0.003375	-0.044066
C77	C	0.936791	-0.503347	-0.619296
C78	C	1.436791	-0.003347	-0.119296
C79	C	0.959230	-0.230864	-0.345151
C80	C	1.459230	0.269136	0.154849
C81	C	0.968819	-0.114708	-0.335614
C82	C	1.468819	0.385292	0.164386
C83	C	0.985600	-0.436510	-0.649160
C84	C	1.485600	0.063490	-0.149160
C85	C	0.985609	-0.436479	-0.719846
C86	C	1.485609	0.063521	-0.219846
C87	C	0.936813	-0.503293	-0.760667
C88	C	1.436813	-0.003293	-0.260667
C89	C	0.887999	-0.570133	-0.730799
C90	C	1.387999	-0.070133	-0.230799
C91	C	0.887987	-0.570157	-0.660114
C92	C	1.387987	-0.070157	-0.160114
C93	C	0.888045	-0.570036	-1.015865
C94	C	1.388045	-0.070036	-0.515865
C95	C	0.888062	-0.570008	-1.086555
C96	C	1.388062	-0.070008	-0.586555
C97	C	0.985668	-0.436358	-1.075596
C98	C	1.485668	0.063642	-0.575596
C99	C	0.985656	-0.436382	-1.004911
C100	C	1.485656	0.063618	-0.504911
C101	C	0.936840	-0.503218	-0.975049
C102	C	1.436840	-0.003218	-0.475049
C103	C	0.936830	-0.503249	-0.898403
C104	C	1.436830	-0.003249	-0.398403
C105	C	0.936825	-0.503268	-0.837312
C106	C	1.436825	-0.003268	-0.337312
C107	C	0.936731	-0.503431	-0.191672
C108	C	1.436731	-0.003431	0.308328
C109	C	0.936868	-0.503165	-0.116419
C110	C	1.436868	-0.003165	0.383581
H111	H	0.313333	-0.624881	-0.455924
H112	H	0.813333	-0.124881	0.044076
O113	O	1.033038	-0.371695	-0.748946
O114	O	1.533038	0.128305	-0.248946
C115	C	1.071858	-0.431177	-0.794721
C116	C	1.571858	0.068823	-0.294721
H117	H	1.041453	-0.510370	-0.811804
H118	H	1.541453	-0.010370	-0.311804
H119	H	1.084440	-0.388591	-0.840935
H120	H	1.584440	0.111409	-0.340935
H121	H	1.121070	-0.442668	-0.768441
H122	H	1.621070	0.057332	-0.268441
O123	O	0.178578	-0.635309	-0.463567
O124	O	0.678578	-0.135309	0.036433
C125	C	0.109786	-0.620986	-0.453123
C126	C	0.609786	-0.120986	0.046877
H127	H	0.106774	-0.540292	-0.424416
H128	H	0.606774	-0.040292	0.075584
H129	H	0.082352	-0.628184	-0.504410
H130	H	0.582352	-0.128184	-0.004410
H131	H	0.084604	-0.682900	-0.422101
H132	H	0.584604	-0.182900	0.077899
H133	H	1.025414	-0.381933	-1.099918
H134	H	1.525414	0.118067	-0.599918
H135	H	0.848265	-0.624530	-0.764042
H136	H	1.348265	-0.124530	-0.264042
O137	O	0.885507	-1.116240	-0.418758
O138	O	1.385507	-0.616240	0.081242
C139	C	0.886021	-1.224241	-0.418329
C140	C	1.386021	-0.724241	0.081671
H141	H	0.907013	-1.239064	-0.367327
H142	H	1.407013	-0.739064	0.132673
H143	H	0.831933	-1.265862	-0.426277
H144	H	1.331933	-0.765862	0.073723
H145	H	0.919529	-1.255129	-0.461036
H146	H	1.419529	-0.755129	0.038964
O147	O	0.556010	-0.371603	-0.271529
O148	O	1.056010	0.128397	0.228471
C149	C	0.484863	-0.385939	-0.281990
C150	C	0.984863	0.114061	0.218010
H151	H	0.468562	-0.466636	-0.310697
H152	H	0.968562	0.033364	0.189303
H153	H	0.458569	-0.378742	-0.230710
H154	H	0.958569	0.121258	0.269290
H155	H	0.469925	-0.324031	-0.313019
H156	H	0.969925	0.175969	0.186981
H157	H	0.865929	-0.935669	-0.438256
H158	H	1.365929	-0.435669	0.061744
H159	H	1.025338	-0.382106	-0.615927
H160	H	1.525338	0.117894	-0.115927
H161	H	0.205047	-0.382053	-0.279180
H162	H	0.705047	0.117947	0.220820
H163	H	1.007714	-1.070157	-0.296761
H164	H	1.507714	-0.570157	0.203239
H165	H	0.540861	-0.624860	-0.455906
H166	H	1.040861	-0.124860	0.044094
O167	O	0.339602	-0.371487	-0.271451
O168	O	0.839602	0.128513	0.228549
C169	C	0.298100	-0.312410	-0.228473
C170	C	0.798100	0.187590	0.271527
H171	H	0.244184	-0.355224	-0.229602
H172	H	0.744184	0.144776	0.270398
H173	H	0.319431	-0.301140	-0.174230
H174	H	0.819431	0.198860	0.325770
H175	H	0.297126	-0.233098	-0.246834
H176	H	0.797126	0.266902	0.253166
O177	O	0.695374	-0.371471	-0.271414
O178	O	1.195374	0.128529	0.228586
C179	C	0.653876	-0.312393	-0.228432
C180	C	1.153876	0.187607	0.271568
H181	H	0.599957	-0.355196	-0.229565
H182	H	1.099957	0.144804	0.270435
H183	H	0.675205	-0.301140	-0.174189
H184	H	1.175205	0.198860	0.325811
H185	H	0.652911	-0.233074	-0.246784
H186	H	1.152911	0.266926	0.253216
H187	H	1.025393	-0.381979	-0.971677
H188	H	1.525393	0.118021	-0.471677
O189	O	0.988036	-0.889693	-0.316139
O190	O	1.488036	-0.389693	0.183861
C191	C	0.954656	-0.826627	-0.267244
C192	C	1.454656	-0.326627	0.232756
H193	H	0.898663	-0.859662	-0.265713
H194	H	1.398663	-0.359662	0.234287
H195	H	0.979275	-0.825294	-0.215068
H196	H	1.479275	-0.325294	0.284932
H197	H	0.959040	-0.743930	-0.281410
H198	H	1.459040	-0.243930	0.218590
O199	O	0.840588	-0.634943	-1.126108
O200	O	1.340588	-0.134943	-0.626108
C201	C	0.797508	-0.693957	-1.084596
C202	C	1.297508	-0.193957	-0.584596
H203	H	0.798688	-0.651172	-1.030694
H204	H	1.298688	-0.151172	-0.530694
H205	H	0.743266	-0.705082	-1.105927
H206	H	1.243266	-0.205082	-0.605927
H207	H	0.815735	-0.773335	-1.083599
H208	H	1.315735	-0.273335	-0.583599
O209	O	0.840515	-0.634942	-0.631065
O210	O	1.340515	-0.134942	-0.131065
C211	C	0.801711	-0.575461	-0.585272
C212	C	1.301711	-0.075461	-0.085272
H213	H	0.804328	-0.493144	-0.599812
H214	H	1.304328	0.006856	-0.099812
H215	H	0.746503	-0.613254	-0.587567
H216	H	1.246503	-0.113254	-0.087567
H217	H	0.822922	-0.571887	-0.531409
H218	H	1.322922	-0.071887	-0.031409
O219	O	0.840662	-0.634867	-0.986750
O220	O	1.340662	-0.134867	-0.486750
C221	C	0.851119	-0.620586	-0.915610
C222	C	1.351119	-0.120586	-0.415610
H223	H	0.879939	-0.539942	-0.899336
H224	H	1.379939	-0.039942	-0.399336
H225	H	0.799829	-0.627684	-0.889320
H226	H	1.299829	-0.127684	-0.389320
H227	H	0.882044	-0.682583	-0.900646
H228	H	1.382044	-0.182583	-0.400646
O229	O	0.673682	-0.635399	-0.463612
O230	O	1.173682	-0.135399	0.036388
C231	C	0.622471	-0.694484	-0.506601
C232	C	1.122471	-0.194484	-0.006601
H233	H	0.575613	-0.651688	-0.505476
H234	H	1.075613	-0.151688	-0.005476
H235	H	0.641988	-0.705735	-0.560841
H236	H	1.141988	-0.205735	-0.060841
H237	H	0.608402	-0.773804	-0.488249
H238	H	1.108402	-0.273804	0.011751
