data_functionalizedCrystal
_audit_creation_method	'MofGen! by Chris Wilmer'
_symmetry_space_group_name_H-M	'P1'
_symmetry_Int_Tables_number	1
_symmetry_cell_setting	triclinic
loop_
_symmetry_equiv_pos_as_xyz
  x,y,z
_cell_length_a	23.532355
_cell_length_b	23.532407
_cell_length_c	9.130313
_cell_angle_alpha	89.994125
_cell_angle_beta	90.005604
_cell_angle_gamma	82.838088
loop_
_atom_site_label
_atom_site_type_symbol
_atom_site_fract_x
_atom_site_fract_y
_atom_site_fract_z
O1	O	0.755275	0.068992	-0.121615
O2	O	0.589408	0.079026	-0.121664
O3	O	0.677343	-0.008924	-0.121611
O4	O	0.667340	0.156941	-0.121668
O5	O	0.677342	-0.008922	0.121988
O6	O	0.589407	0.079028	0.121935
O7	O	0.755274	0.068994	0.121984
Cu8	Cu	0.672340	0.074011	0.144202
Cu9	Cu	0.672342	0.074008	-0.143882
O10	O	0.667339	0.156944	0.121931
C11	C	0.568191	0.078776	0.000130
C12	C	0.504972	0.078022	0.000113
C13	C	0.112958	0.073285	0.132961
C14	C	0.053558	0.072568	0.132967
O15	O	0.022839	0.072178	0.245895
N16	N	0.023850	0.072211	0.000182
C17	C	0.053546	0.072565	-0.132618
O18	O	0.022823	0.072195	-0.245561
C19	C	0.112945	0.073279	-0.132622
C20	C	0.142649	0.073641	0.000172
C21	C	0.142662	0.073647	0.265744
C22	C	0.202057	0.074366	0.265738
C23	C	0.231748	0.074722	0.132948
C24	C	0.202044	0.074360	0.000165
C25	C	0.142640	0.073629	-0.265420
C26	C	0.202043	0.074342	-0.265413
C27	C	0.231747	0.074705	-0.132619
C28	C	0.291130	0.075435	-0.132631
N29	N	0.320838	0.075792	0.000155
C30	C	0.291147	0.075435	0.132944
C31	C	-0.071196	0.071066	-0.132598
C32	C	-0.130594	0.070357	-0.132596
C33	C	-0.130577	0.070358	0.132990
C34	C	-0.071178	0.071072	0.132986
C35	C	-0.041488	0.071423	0.000187
C36	C	0.415881	0.076945	0.132920
C37	C	0.475281	0.077666	0.132902
C38	C	0.475260	0.077661	-0.132682
C39	C	0.415864	0.076943	-0.132665
C40	C	0.386177	0.076583	0.000148
O41	O	0.321887	0.075822	-0.245501
O42	O	0.321878	0.075798	0.245869
C43	C	0.677088	-0.030139	0.000192
C44	C	0.676322	-0.093356	0.000203
C45	C	0.723557	-0.492468	0.000137
C46	C	0.722845	-0.551868	0.000125
O47	O	0.766632	-0.588620	0.000084
N48	N	0.670568	-0.574484	0.000111
C49	C	0.618998	-0.537697	0.000093
O50	O	0.574467	-0.562388	0.000079
C51	C	0.619710	-0.478298	0.000094
C52	C	0.671991	-0.455685	0.000123
C53	C	0.775834	-0.469854	0.000164
C54	C	0.776545	-0.410458	0.000178
C55	C	0.724979	-0.373676	0.000165
C56	C	0.672703	-0.396289	0.000137
C57	C	0.568141	-0.441512	0.000066
C58	C	0.568858	-0.382110	0.000066
C59	C	0.621139	-0.359497	0.000095
C60	C	0.621848	-0.300110	0.000138
N61	N	0.674126	-0.277494	0.000152
C62	C	0.725691	-0.314277	0.000166
C63	C	0.617507	-0.662439	0.000089
C64	C	0.616794	-0.721837	0.000099
C65	C	0.720642	-0.736004	0.000128
C66	C	0.721354	-0.676605	0.000129
C67	C	0.669784	-0.639823	0.000103
C68	C	0.727181	-0.189540	0.000197
C69	C	0.727888	-0.130138	0.000217
C70	C	0.624041	-0.115977	0.000180
C71	C	0.623334	-0.175373	0.000167
C72	C	0.674909	-0.212154	0.000171
O73	O	0.578084	-0.263323	0.000173
O74	O	0.770216	-0.289577	0.000161
C75	C	0.776492	0.069244	0.000187
C76	C	0.839710	0.069998	0.000195
C77	C	0.667594	0.178158	0.000125
C78	C	0.668360	0.241375	0.000104
N79	N	0.672344	0.074013	0.346825
N80	N	0.672343	0.074002	-0.346504
C81	C	0.711291	0.035082	0.423500
C82	C	0.711290	0.035075	0.576837
C83	C	0.633391	0.112935	0.576810
C84	C	0.633391	0.112939	0.423476
C85	C	0.750245	-0.003844	0.346849
C86	C	0.789196	-0.042778	0.423525
C87	C	0.789194	-0.042785	0.576861
C88	C	0.750242	-0.003858	0.653523
H89	H	-0.154762	0.070067	0.241115
H90	H	0.575510	-0.632494	0.000081
H91	H	0.820906	-0.074490	0.639289
Br92	Br	0.750236	-0.003876	0.861625
H93	H	0.819117	-0.392053	0.000196
H94	H	0.601678	0.144629	0.639237
H95	H	0.118465	0.073333	-0.373555
Br96	Br	0.790624	-0.785934	0.000140
Br97	Br	0.545839	-0.752518	0.000094
Br98	Br	0.842051	-0.095612	0.319491
H99	H	0.750250	-0.003841	0.221995
H100	H	0.601675	0.144640	0.361046
Br101	Br	0.845825	-0.519763	0.000181
H102	H	-0.154775	0.070071	-0.240730
Br103	Br	0.242334	0.074816	-0.445651
H104	H	0.391677	0.076657	-0.240797
Br105	Br	0.515590	0.078162	0.313134
Br106	Br	0.497184	-0.472185	0.000021
Br107	Br	0.498867	-0.332194	0.000024
H108	H	0.391716	0.076657	0.241069
H109	H	0.226237	0.074658	0.373872
H110	H	-0.047026	0.071358	-0.240746
H111	H	0.118494	0.073356	0.373883
H112	H	0.580762	-0.193785	0.000184
Br113	Br	0.792309	-0.645922	0.000171
H114	H	-0.046997	0.071368	0.241118
H115	H	0.499444	0.077954	-0.240796
Br116	Br	0.798845	-0.099453	0.000258
Br117	Br	0.797176	-0.239448	0.000200
H118	H	0.582057	-0.086018	0.000174
