data_functionalizedCrystal
_audit_creation_method	'MofGen! by Chris Wilmer'
_symmetry_space_group_name_H-M	'P1'
_symmetry_Int_Tables_number	1
_symmetry_cell_setting	triclinic
loop_
_symmetry_equiv_pos_as_xyz
  x,y,z
_cell_length_a	19.288867
_cell_length_b	15.944493
_cell_length_c	18.366186
_cell_angle_alpha	89.999635
_cell_angle_beta	89.992441
_cell_angle_gamma	83.306056
loop_
_atom_site_label
_atom_site_type_symbol
_atom_site_fract_x
_atom_site_fract_y
_atom_site_fract_z
O1	O	0.921610	0.104794	-0.060515
O2	O	1.421610	0.604794	0.439485
O3	O	0.719384	0.118928	-0.060521
O4	O	1.219384	0.618928	0.439479
O5	O	0.826040	-0.010438	-0.060524
O6	O	1.326040	0.489562	0.439476
O7	O	0.814954	0.234161	-0.060512
O8	O	1.314954	0.734161	0.439488
O9	O	0.826022	-0.010444	0.060576
O10	O	1.326022	0.489556	0.560576
O11	O	0.719366	0.118922	0.060579
O12	O	1.219366	0.618922	0.560579
O13	O	0.921592	0.104788	0.060585
O14	O	1.421592	0.604788	0.560585
Zn15	Zn	0.820476	0.111854	0.079809
Zn16	Zn	1.320476	0.611854	0.579809
Zn17	Zn	0.820500	0.111862	-0.079745
Zn18	Zn	1.320500	0.611862	0.420255
O19	O	0.814935	0.234154	0.060588
O20	O	1.314935	0.734154	0.560588
C21	C	0.693497	0.118470	0.000028
C22	C	1.193497	0.618470	0.500028
C23	C	0.616391	0.117104	0.000025
C24	C	1.116391	0.617104	0.500025
C25	C	0.060811	0.107268	-0.065978
C26	C	0.560811	0.607268	0.434022
C27	C	0.133262	0.108546	-0.065981
C28	C	0.633262	0.608546	0.434019
C29	C	0.169482	0.109186	0.000031
C30	C	0.669482	0.609186	0.500031
C31	C	0.133248	0.108526	0.066049
C32	C	0.633248	0.608526	0.566049
C33	C	0.060799	0.107239	0.066050
C34	C	0.560799	0.607239	0.566050
C35	C	0.278928	0.160420	0.050606
C36	C	0.778928	0.660420	0.550606
C37	C	0.351374	0.161712	0.050603
C38	C	0.851374	0.661712	0.550603
C39	C	0.392937	0.113152	0.000031
C40	C	0.892937	0.613152	0.500031
C41	C	0.362044	0.063310	-0.050549
C42	C	0.862044	0.563310	0.449451
C43	C	0.289595	0.062023	-0.050549
C44	C	0.789595	0.562023	0.449451
C45	C	0.248040	0.110581	0.000037
C46	C	0.748040	0.610581	0.500037
C47	C	0.507723	0.115192	-0.065986
C48	C	1.007723	0.615192	0.434014
C49	C	0.580175	0.116466	-0.065986
C50	C	1.080175	0.616466	0.434014
C51	C	0.580159	0.116453	0.066045
C52	C	1.080159	0.616453	0.566045
C53	C	0.507709	0.115172	0.066043
C54	C	1.007709	0.615172	0.566043
C55	C	0.471494	0.114545	0.000025
C56	C	0.971494	0.614545	0.500025
C57	C	0.825578	-0.041734	0.000023
C58	C	1.325578	0.458266	0.500023
C59	C	0.824220	-0.134978	0.000014
C60	C	1.324220	0.365022	0.500014
C61	C	0.887000	-0.370979	0.000029
C62	C	1.387000	0.129021	0.500029
C63	C	0.853154	-0.421414	-0.059680
C64	C	1.353154	0.078586	0.440320
C65	C	0.821702	-0.305689	0.000022
C66	C	1.321702	0.194311	0.500022
C67	C	0.853121	-0.421396	0.059715
C68	C	1.353121	0.078604	0.559715
C69	C	0.819276	-0.470589	0.000034
C70	C	1.319276	0.029411	0.500034
C71	C	0.787874	-0.354896	-0.059736
C72	C	1.287874	0.145104	0.440264
C73	C	0.787850	-0.354875	0.059712
C74	C	1.287850	0.145125	0.559712
C75	C	0.753956	-0.405276	-0.000011
C76	C	1.253956	0.094724	0.499989
C77	C	0.823102	-0.210695	0.000015
C78	C	1.323102	0.289305	0.500015
C79	C	0.817871	-0.565581	0.000036
C80	C	1.317871	-0.065581	0.500036
C81	C	0.947478	0.105246	0.000034
C82	C	1.447478	0.605246	0.500034
C83	C	1.024585	0.106612	0.000032
C84	C	1.524585	0.606612	0.500032
C85	C	0.815398	0.265451	0.000039
C86	C	1.315398	0.765451	0.500039
C87	C	0.816756	0.358694	0.000044
C88	C	1.316756	0.858694	0.500044
N89	N	0.820465	0.111848	0.188700
N90	N	1.320465	0.611848	0.688700
N91	N	0.820517	0.111862	-0.188636
N92	N	1.320517	0.611862	0.311364
C93	C	0.867708	0.054592	0.226799
C94	C	1.367708	0.554592	0.726799
C95	C	0.867712	0.054589	0.303027
C96	C	1.367712	0.554589	0.803027
C97	C	0.820480	0.111855	0.341153
C98	C	1.320480	0.611855	0.841153
C99	C	0.773228	0.169114	0.303044
C100	C	1.273228	0.669114	0.803044
C101	C	0.773221	0.169111	0.226818
C102	C	1.273221	0.669111	0.726818
C103	C	0.811370	0.188390	0.461916
C104	C	1.311370	0.688390	0.961916
C105	C	0.811383	0.188395	0.538141
C106	C	1.311383	0.688395	1.038141
C107	C	0.820500	0.111865	0.576260
C108	C	1.320500	0.611865	1.076260
C109	C	0.829619	0.035328	0.538145
C110	C	1.329619	0.535328	1.038145
C111	C	0.829611	0.035324	0.461918
C112	C	1.329611	0.535324	0.961918
C113	C	0.820483	0.111865	0.423807
C114	C	1.320483	0.611865	0.923807
C115	C	0.867750	0.054601	0.697014
C116	C	1.367750	0.554601	1.197014
C117	C	0.867750	0.054596	0.773243
C118	C	1.367750	0.554596	1.273243
C119	C	0.773269	0.169129	0.773260
C120	C	1.273269	0.669129	1.273260
C121	C	0.773267	0.169127	0.697032
C122	C	1.273267	0.669127	1.197032
C123	C	0.820511	0.111864	0.658914
C124	C	1.320511	0.611864	1.158914
H125	H	0.478236	0.114680	-0.119742
H126	H	0.978236	0.614680	0.380258
H127	H	0.880737	-0.450463	-0.110158
H128	H	1.380737	0.049537	0.389842
Cl129	Cl	0.745337	-0.310239	-0.137758
Cl130	Cl	1.245337	0.189761	0.362242
H131	H	0.906218	0.007968	0.804264
H132	H	1.406218	0.507968	1.304264
Cl133	Cl	0.667052	-0.428826	-0.000061
Cl134	Cl	1.167052	0.071174	0.499939
Cl135	Cl	0.625688	0.117244	0.149032
Cl136	Cl	1.125688	0.617244	0.649032
Cl137	Cl	0.895703	-0.466229	0.137647
Cl138	Cl	1.395703	0.033771	0.637647
Cl139	Cl	0.713887	0.241115	0.821184
Cl140	Cl	1.213887	0.741115	1.321184
H141	H	0.734800	0.215753	0.666009
H142	H	1.234800	0.715753	1.166009
H143	H	0.837035	-0.026995	0.430888
H144	H	1.337035	0.473005	0.930888
H145	H	0.760290	-0.325811	0.110193
H146	H	1.260290	0.174189	0.610193
H147	H	0.943245	-0.355567	-0.000029
H148	H	1.443245	0.144433	0.499971
Cl149	Cl	0.250760	-0.000635	-0.114129
Cl150	Cl	0.750760	0.499365	0.385871
H151	H	0.906175	0.007964	0.195765
H152	H	1.406175	0.507964	0.695765
H153	H	0.609670	0.116993	-0.119742
H154	H	1.109670	0.616993	0.380258
Cl155	Cl	0.015256	0.106419	0.149041
Cl156	Cl	0.515256	0.606419	0.649041
Cl157	Cl	0.927109	-0.017395	0.350931
Cl158	Cl	1.427109	0.482605	0.850931
Cl159	Cl	0.841087	-0.060888	0.586056
Cl160	Cl	1.341087	0.439112	1.086056
H161	H	0.734770	0.215740	0.334090
H162	H	1.234770	0.715740	0.834090
Cl163	Cl	0.927138	-0.017391	0.649093
Cl164	Cl	1.427138	0.482609	1.149093
H165	H	0.803962	0.250716	0.569169
H166	H	1.303962	0.750716	1.069169
Cl167	Cl	0.799973	0.284611	0.414004
Cl168	Cl	1.299973	0.784611	0.914004
H169	H	0.031330	0.106755	-0.119735
H170	H	0.531330	0.606755	0.380265
Cl171	Cl	0.414286	0.002262	-0.114133
Cl172	Cl	0.914286	0.502262	0.385867
Cl173	Cl	0.178812	0.109373	-0.148971
Cl174	Cl	0.678812	0.609373	0.351029
Cl175	Cl	0.462164	0.114361	0.149032
Cl176	Cl	0.962164	0.614361	0.649032
H177	H	0.734749	0.215736	0.195797
H178	H	1.234749	0.715736	0.695797
H179	H	0.245093	0.199959	0.091796
H180	H	0.745093	0.699959	0.591796
Cl181	Cl	0.390204	0.224376	0.114183
Cl182	Cl	0.890204	0.724376	0.614183
Cl183	Cl	0.178781	0.109326	0.149035
Cl184	Cl	0.678781	0.609326	0.649035
