data_functionalizedCrystal
_audit_creation_method	'MofGen! by Chris Wilmer'
_symmetry_space_group_name_H-M	'P1'
_symmetry_Int_Tables_number	1
_symmetry_cell_setting	triclinic
loop_
_symmetry_equiv_pos_as_xyz
  x,y,z
_cell_length_a	13.032831
_cell_length_b	18.050589
_cell_length_c	13.032268
_cell_angle_alpha	97.149417
_cell_angle_beta	90.886977
_cell_angle_gamma	82.833186
loop_
_atom_site_label
_atom_site_type_symbol
_atom_site_fract_x
_atom_site_fract_y
_atom_site_fract_z
Zn1	Zn	1.498351	-0.501530	-0.780835
Zn2	Zn	1.831684	-0.168197	-0.447502
Zn3	Zn	2.165018	0.165136	-0.114169
Zn4	Zn	1.520065	-0.612177	-0.608855
Zn5	Zn	1.853398	-0.278843	-0.275522
Zn6	Zn	2.186732	0.054490	0.057811
Zn7	Zn	1.348217	-0.470507	-0.587076
Zn8	Zn	1.681551	-0.137174	-0.253743
Zn9	Zn	2.014884	0.196159	0.079591
Zn10	Zn	1.326314	-0.608161	-0.758980
Zn11	Zn	1.659647	-0.274828	-0.425647
Zn12	Zn	1.992981	0.058505	-0.092314
O13	O	1.423237	-0.548094	-0.683937
O14	O	1.756570	-0.214761	-0.350603
O15	O	2.089903	0.118573	-0.017270
O16	O	1.645148	-0.530872	-0.776283
O17	O	1.978482	-0.197538	-0.442949
O18	O	2.311815	0.135795	-0.109616
O19	O	1.515523	-0.582081	-0.462049
O20	O	1.848856	-0.248748	-0.128716
O21	O	2.182190	0.084586	0.204617
O22	O	1.368212	-0.370708	-0.612810
O23	O	1.701545	-0.037375	-0.279477
O24	O	2.034879	0.295959	0.053856
O25	O	1.661101	-0.612163	-0.649930
O26	O	1.994435	-0.278830	-0.316596
O27	O	2.327768	0.054504	0.016737
O28	O	1.478515	-0.393501	-0.755164
O29	O	1.811848	-0.060167	-0.421831
O30	O	2.145181	0.273166	-0.088498
O31	O	1.389267	-0.477997	-0.446048
O32	O	1.722601	-0.144664	-0.112715
O33	O	2.055934	0.188670	0.220618
O34	O	1.201395	-0.474104	-0.591619
O35	O	1.534728	-0.140770	-0.258285
O36	O	1.868062	0.192563	0.075048
O37	O	1.330881	-0.605320	-0.905796
O38	O	1.664214	-0.271986	-0.572463
O39	O	1.997548	0.061347	-0.239130
O40	O	1.185303	-0.575238	-0.717916
O41	O	1.518636	-0.241904	-0.384583
O42	O	1.851969	0.091429	-0.051249
O43	O	1.457276	-0.526978	-0.921853
O44	O	1.790609	-0.193645	-0.588520
O45	O	2.123943	0.139688	-0.255186
O46	O	1.494284	-0.715559	-0.628738
O47	O	1.827618	-0.382225	-0.295405
O48	O	2.160951	-0.048892	0.037929
O49	O	1.351936	-0.712609	-0.739034
O50	O	1.685270	-0.379275	-0.405701
O51	O	2.018603	-0.045942	-0.072368
C52	C	1.156033	-0.520869	-0.650033
C53	C	1.489366	-0.187536	-0.316700
C54	C	1.822699	0.145798	0.016634
C55	C	1.041718	-0.509242	-0.635553
C56	C	1.375052	-0.175909	-0.302220
C57	C	1.708385	0.157425	0.031113
C58	C	0.982831	-0.554162	-0.691494
C59	C	1.316164	-0.220829	-0.358160
C60	C	1.649498	0.112504	-0.024827
C61	C	0.864681	-0.542146	-0.676530
C62	C	1.198014	-0.208813	-0.343196
C63	C	1.531348	0.124520	-0.009863
C64	C	1.423115	-0.741032	-0.683904
C65	C	1.756448	-0.407699	-0.350571
C66	C	2.089781	-0.074365	-0.017237
C67	C	1.423152	-0.823584	-0.683936
C68	C	1.756486	-0.490251	-0.350603
C69	C	2.089819	-0.156918	-0.017270
C70	C	1.345814	-1.021463	-0.743900
C71	C	1.679147	-0.688129	-0.410567
C72	C	2.012481	-0.354796	-0.077233
C73	C	1.332669	-1.060964	-0.646879
C74	C	1.666002	-0.727631	-0.313546
C75	C	1.999335	-0.394297	0.019788
C76	C	1.423252	-0.974726	-0.683962
C77	C	1.756585	-0.641393	-0.350629
C78	C	2.089918	-0.308059	-0.017296
C79	C	1.436446	-1.082312	-0.781001
C80	C	1.769780	-0.748979	-0.447667
C81	C	2.103113	-0.415645	-0.114334
C82	C	1.423345	-1.120722	-0.683996
C83	C	1.756678	-0.787389	-0.350662
C84	C	2.090011	-0.454056	-0.017329
C85	C	1.410063	-1.013131	-0.586886
C86	C	1.743397	-0.679798	-0.253552
C87	C	2.076730	-0.346465	0.079781
C88	C	1.513876	-1.034484	-0.721076
C89	C	1.847210	-0.701151	-0.387743
C90	C	2.180543	-0.367818	-0.054409
C91	C	1.500775	-1.073962	-0.623995
C92	C	1.834108	-0.740629	-0.290662
C93	C	2.167441	-0.407295	0.042672
C94	C	1.423195	-0.890621	-0.683944
C95	C	1.756529	-0.557288	-0.350611
C96	C	2.089862	-0.223954	-0.017278
C97	C	1.423402	-1.204825	-0.684003
C98	C	1.756736	-0.871491	-0.350670
C99	C	2.090069	-0.538158	-0.017337
C100	C	1.691484	-0.575426	-0.717973
C101	C	2.024818	-0.242092	-0.384640
C102	C	2.358151	0.091241	-0.051307
C103	C	1.805795	-0.587073	-0.732478
C104	C	2.139129	-0.253740	-0.399144
C105	C	2.472462	0.079594	-0.065811
C106	C	1.389213	-0.569162	-0.952184
C107	C	1.722546	-0.235828	-0.618851
C108	C	2.055880	0.097505	-0.285517
C109	C	1.374714	-0.578139	-1.066495
C110	C	1.708048	-0.244806	-0.733162
C111	C	2.041381	0.088527	-0.399828
C112	C	1.423384	-0.354407	-0.683996
C113	C	1.756718	-0.021074	-0.350662
C114	C	2.090051	0.312260	-0.017329
C115	C	1.423447	-0.271869	-0.684021
C116	C	1.756781	0.061464	-0.350688
C117	C	2.090114	0.394798	-0.017354
C118	C	1.430788	-0.543380	-1.125403
C119	C	1.764121	-0.210047	-0.792069
C120	C	2.097455	0.123287	-0.458736
C121	C	1.415804	-0.552658	-1.243549
C122	C	1.749137	-0.219325	-0.910216
C123	C	2.082471	0.114008	-0.576883
C124	C	1.457187	-0.527061	-0.416741
C125	C	1.790521	-0.193727	-0.083407
C126	C	2.123854	0.139606	0.249926
C127	C	1.471885	-0.517894	-0.302456
C128	C	1.805219	-0.184561	0.030878
C129	C	2.138552	0.148772	0.364211
H130	H	0.842843	-0.634426	-0.791459
H131	H	1.176176	-0.301093	-0.458126
H132	H	1.509509	0.032240	-0.124793
C133	C	1.229197	-1.077194	-0.604486
C134	C	1.562530	-0.743861	-0.271152
C135	C	1.895863	-0.410527	0.062181
H136	H	1.174212	-1.059193	-0.647136
H137	H	1.507545	-0.725860	-0.313802
H138	H	1.840879	-0.392527	0.019531
H139	H	1.219323	-1.052521	-0.535975
H140	H	1.552656	-0.719188	-0.202641
H141	H	1.885989	-0.385855	0.130692
H142	H	1.230214	-1.129886	-0.604217
H143	H	1.563548	-0.796553	-0.270883
H144	H	1.896881	-0.463219	0.062450
H145	H	1.566310	-1.096823	-0.573255
H146	H	1.899643	-0.763490	-0.239922
H147	H	2.232976	-0.430156	0.093412
H148	H	1.280253	-0.998449	-0.794494
H149	H	1.613586	-0.665116	-0.461161
H150	H	1.946919	-0.331782	-0.127827
H151	H	1.530984	-0.481259	-1.265427
H152	H	1.864317	-0.147926	-0.932093
H153	H	2.197650	0.185407	-0.598760
H154	H	1.590448	-1.022459	-0.752483
H155	H	1.923782	-0.689126	-0.419149
H156	H	2.257115	-0.355792	-0.085816
H157	H	0.827631	-0.494786	-0.617559
H158	H	1.160964	-0.161453	-0.284225
H159	H	1.494298	0.171880	0.049108
C160	C	0.991672	-0.445267	-0.555891
C161	C	1.325005	-0.111934	-0.222558
C162	C	1.658338	0.221400	0.110775
H163	H	0.918827	-0.445586	-0.556281
H164	H	1.252160	-0.112252	-0.222948
H165	H	1.585494	0.221081	0.110385
H166	H	1.007333	-0.398354	-0.573272
H167	H	1.340666	-0.065020	-0.239938
H168	H	1.674000	0.268313	0.093395
H169	H	1.017971	-0.452402	-0.488965
H170	H	1.351305	-0.119069	-0.155631
H171	H	1.684638	0.214264	0.177702
H172	H	1.398850	-0.983153	-0.504801
H173	H	1.732183	-0.649820	-0.171468
H174	H	2.065516	-0.316487	0.161866
C175	C	1.294879	-0.627625	-1.116515
C176	C	1.628212	-0.294291	-0.783182
C177	C	1.961546	0.039042	-0.449848
H178	H	1.295288	-0.627374	-1.189362
H179	H	1.628622	-0.294041	-0.856029
H180	H	1.961955	0.039293	-0.522695
H181	H	1.227995	-0.608353	-1.090197
H182	H	1.561329	-0.275020	-0.756864
H183	H	1.894662	0.058313	-0.423531
H184	H	1.312115	-0.677686	-1.100855
H185	H	1.645449	-0.344353	-0.767522
H186	H	1.978782	-0.011019	-0.434189
H187	H	1.447571	-1.112369	-0.863052
H188	H	1.780904	-0.779035	-0.529718
H189	H	2.114237	-0.445702	-0.196385
C190	C	1.510630	-0.493900	-1.075384
C191	C	1.843963	-0.160567	-0.742050
C192	C	2.177297	0.172766	-0.408717
H193	H	1.510232	-0.494160	-1.002538
H194	H	1.843565	-0.160827	-0.669205
H195	H	2.176899	0.172507	-0.335871
H196	H	1.493412	-0.443842	-1.091044
H197	H	1.826745	-0.110508	-0.757711
H198	H	2.160078	0.222825	-0.424377
H199	H	1.577515	-0.513185	-1.101703
H200	H	1.910848	-0.179852	-0.768369
H201	H	2.244181	0.153482	-0.435036
H202	H	1.356694	-0.589283	-1.280578
H203	H	1.690027	-0.255949	-0.947245
H204	H	2.023360	0.077384	-0.613911
H205	H	1.019885	-0.601514	-0.750468
H206	H	1.353218	-0.268181	-0.417135
H207	H	1.686551	0.065153	-0.083802
