data_functionalizedCrystal
_audit_creation_method	'MofGen! by Chris Wilmer'
_symmetry_space_group_name_H-M	'P1'
_symmetry_Int_Tables_number	1
_symmetry_cell_setting	triclinic
loop_
_symmetry_equiv_pos_as_xyz
  x,y,z
_cell_length_a	14.971486
_cell_length_b	10.654550
_cell_length_c	14.048226
_cell_angle_alpha	89.994756
_cell_angle_beta	89.998499
_cell_angle_gamma	84.049516
loop_
_atom_site_label
_atom_site_type_symbol
_atom_site_fract_x
_atom_site_fract_y
_atom_site_fract_z
O1	O	1.187838	0.163659	-0.079049
O2	O	0.927544	0.183257	-0.079074
O3	O	1.063675	-0.009345	-0.079057
O4	O	1.051706	0.356262	-0.079066
O5	O	1.063659	-0.009357	0.079264
O6	O	0.927527	0.183246	0.079247
O7	O	1.187821	0.163648	0.079273
Zn8	Zn	1.057672	0.173445	0.104397
Zn9	Zn	1.057693	0.173460	-0.104198
O10	O	1.051690	0.356250	0.079256
C11	C	0.894206	0.182375	0.000083
C12	C	0.794895	0.179749	0.000073
C13	C	0.738285	0.292898	0.000072
C14	C	0.644972	0.290422	0.000086
C15	C	0.608271	0.174797	0.000095
C16	C	0.664888	0.061639	0.000099
C17	C	0.758199	0.064116	0.000092
C18	C	0.470397	0.056485	0.000112
C19	C	0.377080	0.054007	0.000118
C20	C	0.357171	0.282791	0.000107
C21	C	0.450482	0.285268	0.000100
C22	C	0.507092	0.172110	0.000102
C23	C	1.062788	-0.056139	0.000102
C24	C	1.060159	-0.195555	0.000099
C25	C	1.140311	-0.275900	0.000109
C26	C	1.137835	-0.406894	0.000102
C27	C	0.975048	-0.377185	0.000078
C28	C	0.977525	-0.246193	0.000078
C29	C	1.234295	-0.293054	0.000128
C30	C	1.231819	-0.424048	0.000121
C31	C	1.221159	0.164530	0.000113
C32	C	1.320470	0.167156	0.000117
C33	C	1.052577	0.403044	0.000094
C34	C	1.055206	0.542460	0.000092
N35	N	1.057663	0.173434	0.246758
N36	N	1.057709	0.173461	-0.246559
C37	C	1.117962	0.088185	0.296583
C38	C	1.117968	0.088184	0.396241
C39	C	1.057679	0.173440	0.446071
C40	C	0.997374	0.258693	0.396238
C41	C	0.997365	0.258687	0.296583
C42	C	0.997400	0.258702	0.603953
C43	C	0.997411	0.258710	0.703615
C44	C	1.118003	0.088200	0.703611
C45	C	1.117993	0.088193	0.603955
C46	C	1.057690	0.173448	0.554129
H47	H	0.516488	-0.035661	0.000116
O48	O	0.938683	0.341381	0.444600
C49	C	0.850016	0.320772	0.420248
H50	H	0.848960	0.220222	0.392862
H51	H	0.824165	0.390317	0.362400
C52	C	0.790806	0.463640	0.542420
C53	C	0.789508	0.340139	0.508792
H54	H	0.753480	0.475592	0.597035
H55	H	0.850543	0.477529	0.558824
H56	H	0.769265	0.521580	0.494205
H57	H	0.811059	0.282203	0.557002
H58	H	0.729774	0.326241	0.492397
H59	H	0.912257	-0.180779	0.000056
H60	H	1.260229	-0.469991	-0.068235
H61	H	1.267224	-0.466193	0.066380
O62	O	1.278159	-0.258271	-0.078838
C63	C	1.280552	-0.126330	-0.078699
H64	H	1.272479	-0.089346	-0.002713
H65	H	1.223527	-0.080229	-0.124640
C66	C	1.381019	-0.139865	-0.212460
C67	C	1.371111	-0.094441	-0.119132
H68	H	1.436877	-0.120192	-0.237405
H69	H	1.379404	-0.228755	-0.212557
H70	H	1.333492	-0.101443	-0.250732
H71	H	1.418630	-0.132875	-0.080859
H72	H	1.372735	-0.005556	-0.119029
H73	H	0.948262	0.328103	0.256016
H74	H	1.167059	0.018765	0.256018
H75	H	0.907770	-0.418431	0.000061
H76	H	1.167089	0.018778	0.563383
H77	H	1.264216	-0.257753	0.068491
H78	H	1.167066	0.018767	0.436808
H79	H	1.167104	0.018782	0.744185
O80	O	0.590110	0.400452	0.000042
C81	C	0.642513	0.503035	0.000051
H82	H	0.711944	0.471264	-0.029930
H83	H	0.649384	0.538470	0.076002
C84	C	0.511407	0.649166	-0.025215
C85	C	0.596682	0.610147	-0.062046
H86	H	0.483135	0.715241	-0.063514
H87	H	0.476102	0.580055	-0.025217
H88	H	0.517145	0.678686	0.038078
H89	H	0.590943	0.580613	-0.125332
H90	H	0.631986	0.679256	-0.062055
H91	H	0.948291	0.328122	0.563388
O92	O	0.938749	0.341555	0.751875
C93	C	0.885526	0.416809	0.686531
H94	H	0.884201	0.365322	0.615494
H95	H	0.915120	0.510187	0.675926
C96	C	0.790825	0.505662	0.812686
C97	C	0.789193	0.442420	0.725440
H98	H	0.731403	0.521466	0.836688
H99	H	0.826684	0.454966	0.856711
H100	H	0.815491	0.583470	0.803837
H101	H	0.764538	0.364607	0.734293
H102	H	0.753327	0.493104	0.681417
H103	H	0.768160	0.387053	0.000064
H104	H	0.804290	-0.028022	0.000092
H105	H	0.311074	0.374929	0.000109
H106	H	0.480361	0.379420	0.000084
H107	H	0.634998	-0.032505	0.000120
H108	H	0.347201	-0.040145	0.000126
