data_functionalizedCrystal
_audit_creation_method	'MofGen! by Chris Wilmer'
_symmetry_space_group_name_H-M	'P1'
_symmetry_Int_Tables_number	1
_symmetry_cell_setting	triclinic
loop_
_symmetry_equiv_pos_as_xyz
  x,y,z
_cell_length_a	23.532407
_cell_length_b	17.038272
_cell_length_c	16.098538
_cell_angle_alpha	87.079695
_cell_angle_beta	92.716143
_cell_angle_gamma	86.980117
loop_
_atom_site_label
_atom_site_type_symbol
_atom_site_fract_x
_atom_site_fract_y
_atom_site_fract_z
O1	O	-0.762623	-0.091367	-0.069152
O2	O	-0.262623	0.408633	0.430848
O3	O	-0.597483	-0.105093	-0.069177
O4	O	-0.097483	0.394907	0.430823
O5	O	-0.679071	0.015578	-0.069158
O6	O	-0.179071	0.515578	0.430842
O7	O	-0.681035	-0.212038	-0.069171
O8	O	-0.181035	0.287962	0.430829
O9	O	-0.674304	0.008556	0.069354
O10	O	-0.174304	0.508556	0.569354
O11	O	-0.592715	-0.112115	0.069335
O12	O	-0.092715	0.387885	0.569335
O13	O	-0.757856	-0.098389	0.069360
O14	O	-0.257856	0.401611	0.569360
Zn15	Zn	-0.674529	-0.106367	0.091339
Zn16	Zn	-0.174529	0.393633	0.591339
Zn17	Zn	-0.680810	-0.097115	-0.091156
Zn18	Zn	-0.180810	0.402885	0.408844
O19	O	-0.676267	-0.219060	0.069341
O20	O	-0.176267	0.280940	0.569341
C21	C	-0.573865	-0.108254	0.000076
C22	C	-0.073865	0.391746	0.500076
C23	C	-0.510593	-0.107203	0.000067
C24	C	-0.010593	0.392797	0.500067
C25	C	-0.674902	0.041182	0.000097
C26	C	-0.174902	0.541182	0.500097
C27	C	-0.669576	0.127935	0.000096
C28	C	-0.169576	0.627935	0.500096
C29	C	-0.781474	-0.095228	0.000105
C30	C	-0.281474	0.404772	0.500105
C31	C	-0.844746	-0.096279	0.000109
C32	C	-0.344746	0.403721	0.500109
C33	C	-0.114896	-0.172024	0.000101
C34	C	0.385104	0.327976	0.500101
C35	C	-0.055444	-0.171048	0.000106
C36	C	0.444556	0.328952	0.500106
O37	O	-0.021858	-0.231137	0.000133
O38	O	0.478142	0.268863	0.500133
N39	N	-0.029047	-0.099308	0.000109
N40	N	0.470953	0.400692	0.500109
C41	C	-0.062104	-0.028541	0.000115
C42	C	0.437896	0.471459	0.500115
O43	O	-0.034191	0.032568	0.000118
O44	O	0.465809	0.532568	0.500118
C45	C	-0.121554	-0.029518	0.000116
C46	C	0.378446	0.470482	0.500116
C47	C	-0.147949	-0.101262	0.000104
C48	C	0.352051	0.398738	0.500104
C49	C	-0.141291	-0.243761	0.000091
C50	C	0.358709	0.256239	0.500091
C51	C	-0.200739	-0.244737	0.000084
C52	C	0.299261	0.255263	0.500084
C53	C	-0.233791	-0.173975	0.000087
C54	C	0.266209	0.326025	0.500087
C55	C	-0.207396	-0.102237	0.000098
C56	C	0.292604	0.397763	0.500098
C57	C	-0.154610	0.041248	0.000127
C58	C	0.345390	0.541248	0.500127
C59	C	-0.214064	0.040265	0.000129
C60	C	0.285936	0.540265	0.500129
C61	C	-0.240459	-0.031479	0.000118
C62	C	0.259541	0.468521	0.500118
C63	C	-0.299897	-0.032451	0.000094
C64	C	0.200103	0.467549	0.500094
N65	N	-0.326295	-0.104190	0.000092
N66	N	0.173705	0.395810	0.500092
C67	C	-0.293242	-0.174952	0.000088
C68	C	0.206758	0.325048	0.500088
C69	C	0.062747	-0.026494	0.000114
C70	C	0.562747	0.473506	0.500114
C71	C	0.122196	-0.025516	0.000108
C72	C	0.622196	0.474484	0.500108
C73	C	0.128851	-0.168023	0.000101
C74	C	0.628851	0.331977	0.500101
C75	C	0.069400	-0.169000	0.000101
C76	C	0.569400	0.331000	0.500101
C77	C	0.036349	-0.098234	0.000112
C78	C	0.536349	0.401766	0.500112
C79	C	-0.418087	-0.176996	0.000073
C80	C	0.081913	0.323004	0.500073
C81	C	-0.477540	-0.177965	0.000063
C82	C	0.022460	0.322035	0.500063
C83	C	-0.484190	-0.035459	0.000075
C84	C	0.015810	0.464541	0.500075
C85	C	-0.424742	-0.034489	0.000081
C86	C	0.075258	0.465511	0.500081
C87	C	-0.391691	-0.105264	0.000083
C88	C	0.108309	0.394736	0.500083
O89	O	-0.333520	0.027607	0.000071
O90	O	0.166480	0.527607	0.500071
O91	O	-0.321162	-0.236052	0.000096
O92	O	0.178838	0.263948	0.500096
C93	C	-0.680436	-0.244664	0.000083
C94	C	-0.180436	0.255336	0.500083
C95	C	-0.685763	-0.331417	0.000079
C96	C	-0.185763	0.168583	0.500079
N97	N	-0.670246	-0.112680	0.215887
N98	N	-0.170246	0.387320	0.715887
C99	C	-0.718480	0.178411	0.000105
C100	C	-0.218480	0.678411	0.500105
C101	C	-0.713472	0.259925	0.000096
C102	C	-0.213472	0.759925	0.500096
C103	C	-0.659559	0.290961	0.000085
C104	C	-0.159559	0.790961	0.500085
C105	C	-0.610651	0.240479	0.000074
C106	C	-0.110651	0.740479	0.500074
C107	C	-0.615660	0.158967	0.000077
C108	C	-0.115660	0.658967	0.500077
C109	C	-0.641864	0.536589	0.000071
C110	C	-0.141864	1.036589	0.500071
C111	C	-0.636859	0.618107	0.000071
C112	C	-0.136859	1.118107	0.500071
C113	C	-0.739681	0.637548	0.000091
C114	C	-0.239681	1.137548	0.500091
C115	C	-0.744685	0.556033	0.000098
C116	C	-0.244685	1.056033	0.500098
C117	C	-0.695777	0.505558	0.000083
C118	C	-0.195777	1.005558	0.500083
C119	C	-0.654439	0.374281	0.000079
C120	C	-0.154439	0.874281	0.500079
C121	C	-0.700898	0.422240	0.000084
C122	C	-0.200898	0.922240	0.500084
N123	N	-0.685097	-0.090796	-0.215705
N124	N	-0.185097	0.409204	0.284295
C125	C	-0.704890	-0.061480	0.259480
C126	C	-0.204890	0.438520	0.759480
C127	C	-0.701900	-0.065904	0.346668
C128	C	-0.201900	0.434096	0.846668
C129	C	-0.664268	-0.121531	0.390262
C130	C	-0.164268	0.378469	0.890262
C131	C	-0.629620	-0.172733	0.346663
C132	C	-0.129620	0.327267	0.846663
C133	C	-0.632608	-0.168305	0.259476
C134	C	-0.132608	0.331695	0.759476
C135	C	-0.653437	-0.137570	0.653510
C136	C	-0.153437	0.362430	1.153510
C137	C	-0.650453	-0.141996	0.740702
C138	C	-0.150453	0.358004	1.240702
C139	C	-0.722732	-0.035165	0.740702
C140	C	-0.222732	0.464835	1.240702
C141	C	-0.725719	-0.030745	0.653513
C142	C	-0.225719	0.469255	1.153513
C143	C	-0.691069	-0.081944	0.609922
C144	C	-0.191069	0.418056	1.109922
C145	C	-0.661212	-0.126056	0.479383
C146	C	-0.161212	0.373944	0.979383
C147	C	-0.694122	-0.077415	0.520803
C148	C	-0.194122	0.422585	1.020803
H149	H	-0.499027	-0.236390	0.000054
H150	H	0.000973	0.263610	0.500054
H151	H	-0.133130	0.099669	0.000137
H152	H	0.366870	0.599669	0.500137
Cl153	Cl	-0.569077	0.657122	0.000062
Cl154	Cl	-0.069077	1.157122	0.500062
H155	H	-0.240972	0.097893	0.000138
H156	H	0.259028	0.597893	0.500138
Cl157	Cl	0.155369	0.064681	0.000101
Cl158	Cl	0.655369	0.564681	0.500101
H159	H	-0.403251	0.023931	0.000077
H160	H	0.096749	0.523931	0.500077
Cl161	Cl	-0.554177	0.095511	0.000064
Cl162	Cl	-0.054177	0.595511	0.500064
Cl163	Cl	-0.774955	0.323378	0.000109
Cl164	Cl	-0.274955	0.823378	0.500109
Cl165	Cl	-0.812465	0.517024	0.000085
Cl166	Cl	-0.312465	1.017024	0.500085
H167	H	-0.511112	0.022154	0.000075
H168	H	-0.011112	0.522154	0.500075
H169	H	0.035839	0.031136	0.000116
H170	H	0.535839	0.531136	0.500116
H171	H	-0.619807	-0.187298	0.776193
H172	H	-0.119807	0.312702	1.276193
H173	H	-0.744794	0.396968	0.000074
H174	H	-0.244794	0.896968	0.500074
Cl175	Cl	-0.786260	0.139403	0.000127
Cl176	Cl	-0.286260	0.639403	0.500127
Cl177	Cl	-0.586664	0.413305	0.000061
Cl178	Cl	-0.086664	0.913305	0.500061
Cl179	Cl	-0.752204	0.008452	0.204686
Cl180	Cl	-0.252204	0.508452	0.704686
H181	H	-0.779498	0.678653	0.000101
H182	H	-0.279498	1.178653	0.500101
H183	H	-0.602039	0.495501	0.000059
H184	H	-0.102039	0.995501	0.500059
H185	H	-0.730109	-0.024213	0.382162
H186	H	-0.230109	0.475787	0.882162
Cl187	Cl	-0.773028	0.039187	0.598710
Cl188	Cl	-0.273028	0.539187	1.098710
Cl189	Cl	-0.766287	0.029199	0.795506
Cl190	Cl	-0.266287	0.529199	1.295506
Cl191	Cl	-0.582308	-0.242663	0.401465
Cl192	Cl	-0.082308	0.257337	0.901465
Cl193	Cl	-0.542874	0.279496	0.000051
Cl194	Cl	-0.042874	0.779496	0.500051
H195	H	-0.625224	-0.179260	0.618024
H196	H	-0.125224	0.320740	1.118024
H197	H	-0.724760	-0.032120	0.485307
H198	H	-0.224760	0.467880	0.985307
H199	H	-0.604397	-0.209997	0.223984
H200	H	-0.104397	0.290003	0.723984
Cl201	Cl	0.170414	-0.256982	0.000101
Cl202	Cl	0.670414	0.243018	0.500101
H203	H	-0.630573	-0.171351	0.514884
H204	H	-0.130573	0.328649	1.014884
Cl205	Cl	-0.376547	-0.265972	0.000075
Cl206	Cl	0.123453	0.234028	0.500075
H207	H	-0.114385	-0.301388	0.000091
H208	H	0.385615	0.198612	0.500091
Cl209	Cl	-0.233911	-0.334934	0.000076
Cl210	Cl	0.266089	0.165066	0.500076
H211	H	0.047914	-0.227420	0.000097
H212	H	0.547914	0.272580	0.500097
