data_functionalizedCrystal
_audit_creation_method	'MofGen! by Chris Wilmer'
_symmetry_space_group_name_H-M	'P1'
_symmetry_Int_Tables_number	1
_symmetry_cell_setting	triclinic
loop_
_symmetry_equiv_pos_as_xyz
  x,y,z
_cell_length_a	15.711784
_cell_length_b	14.853567
_cell_length_c	13.930277
_cell_angle_alpha	90.000757
_cell_angle_beta	89.992329
_cell_angle_gamma	78.388134
loop_
_atom_site_label
_atom_site_type_symbol
_atom_site_fract_x
_atom_site_fract_y
_atom_site_fract_z
O1	O	1.147534	-0.494659	-0.079840
O2	O	0.895788	-0.425983	-0.079837
O3	O	1.028385	-0.331300	-0.079842
O4	O	1.014936	-0.589342	-0.079836
O5	O	1.028367	-0.331291	0.079820
O6	O	0.895769	-0.425974	0.079824
O7	O	1.147515	-0.494650	0.079821
Zn8	Zn	1.021639	-0.460311	0.105173
Zn9	Zn	1.021664	-0.460322	-0.105189
O10	O	1.014918	-0.589333	0.079826
C11	C	0.863561	-0.414760	-0.000006
C12	C	0.767562	-0.381322	-0.000006
C13	C	0.642463	-0.255437	-0.000008
C14	C	0.732667	-0.286867	-0.000008
C15	C	0.712260	-0.444384	-0.000008
C16	C	0.622052	-0.412968	-0.000012
C17	C	0.587161	-0.318493	-0.000011
C18	C	0.566750	-0.476024	-0.000016
C19	C	0.476551	-0.444609	-0.000015
C20	C	0.441653	-0.350139	-0.000011
C21	C	0.496962	-0.287079	-0.000010
C22	C	0.601643	-0.570498	-0.000010
C23	C	0.546341	-0.633554	-0.000014
C24	C	0.456140	-0.602140	-0.000020
C25	C	0.421242	-0.507669	-0.000016
C26	C	0.400831	-0.665200	-0.000021
C27	C	0.310631	-0.633785	-0.000020
C28	C	0.331042	-0.476255	-0.000015
C29	C	1.027767	-0.297507	-0.000014
C30	C	1.025940	-0.196823	-0.000022
C31	C	1.179742	-0.505873	-0.000012
C32	C	1.275740	-0.539311	-0.000019
C33	C	1.015536	-0.623126	-0.000004
C34	C	1.017362	-0.723810	-0.000002
N35	N	1.021629	-0.460304	0.248739
C36	C	0.939455	0.244120	-0.000003
C37	C	1.096984	0.213654	-0.000005
C38	C	1.098701	0.119057	-0.000010
C39	C	1.020794	0.086987	-0.000011
C40	C	0.941170	0.149514	-0.000006
C41	C	1.178324	0.056522	-0.000006
C42	C	1.180044	-0.038082	-0.000011
C43	C	1.102136	-0.070154	-0.000018
C44	C	1.022509	-0.007620	-0.000014
C45	C	0.944602	-0.039690	-0.000014
C46	C	0.864973	0.022843	-0.000017
C47	C	0.863262	0.117443	-0.000013
C48	C	1.103848	-0.164753	-0.000022
C49	C	0.946316	-0.134296	-0.000017
N50	N	1.021681	-0.460324	-0.248755
C51	C	0.962947	-0.502223	0.701010
C52	C	1.080404	-0.418422	0.700975
C53	C	1.080394	-0.418416	0.600480
C54	C	1.021660	-0.460315	0.550244
C55	C	0.962937	-0.502221	0.600505
C56	C	1.139122	-0.376519	0.550212
C57	C	1.139114	-0.376512	0.449710
C58	C	1.080376	-0.418407	0.399473
C59	C	1.021650	-0.460313	0.449739
C60	C	0.962916	-0.502212	0.399504
C61	C	0.904185	-0.544113	0.449769
C62	C	0.904198	-0.544115	0.550268
C63	C	1.080363	-0.418405	0.298974
C64	C	0.962906	-0.502209	0.298999
H65	H	0.675090	-0.596073	-0.000007
H66	H	1.244882	-0.088989	-0.000010
H67	H	0.614054	-0.178507	-0.000017
Br68	Br	1.211905	-0.249614	0.000005
H69	H	1.128227	-0.384315	0.741880
H70	H	1.186945	-0.342412	0.591116
Br71	Br	0.883184	-0.559066	0.230830
Br72	Br	1.218816	-0.319647	0.381499
Br73	Br	0.283682	-0.348038	-0.000014
H74	H	0.856382	-0.578230	0.591200
H75	H	0.882874	-0.160398	-0.000021
H76	H	1.128184	-0.384295	0.258053
Br77	Br	0.593701	-0.761765	-0.000015
Br78	Br	0.824486	-0.600986	0.381582
Br79	Br	1.284048	0.100050	0.000021
H80	H	1.160413	0.239772	0.000003
Br81	Br	0.448193	-0.793411	-0.000008
H82	H	0.798433	0.168364	-0.000014
Br83	Br	0.883238	-0.559080	0.769219
H84	H	0.468552	-0.210149	-0.000020
Br85	Br	0.807719	-0.201280	0.000001
H86	H	0.368206	-0.324563	-0.000002
H87	H	0.740680	-0.521306	-0.000006
H88	H	0.801542	-0.003281	-0.000010
Br89	Br	0.235573	-0.719361	-0.000012
H90	H	0.874624	0.295038	-0.000009
