data_functionalizedCrystal
_audit_creation_method	'MofGen! by Chris Wilmer'
_symmetry_space_group_name_H-M	'P1'
_symmetry_Int_Tables_number	1
_symmetry_cell_setting	triclinic
loop_
_symmetry_equiv_pos_as_xyz
  x,y,z
_cell_length_a	12.759401
_cell_length_b	12.759393
_cell_length_c	12.759393
_cell_angle_alpha	90.028574
_cell_angle_beta	89.980596
_cell_angle_gamma	89.985251
loop_
_atom_site_label
_atom_site_type_symbol
_atom_site_fract_x
_atom_site_fract_y
_atom_site_fract_z
Zn1	Zn	1.606254	0.418207	-0.594029
Zn2	Zn	1.606148	0.593926	-0.418358
Zn3	Zn	1.430556	0.418261	-0.418365
Zn4	Zn	1.430545	0.593844	-0.593997
O5	O	1.518376	0.506059	-0.506187
O6	O	1.753261	0.441528	-0.570736
O7	O	1.582816	0.570680	-0.271338
O8	O	1.453912	0.271233	-0.441684
O9	O	1.753184	0.570628	-0.441671
O10	O	1.582997	0.271193	-0.570743
O11	O	1.453810	0.441620	-0.271343
O12	O	1.283534	0.441541	-0.441653
O13	O	1.453892	0.570489	-0.741022
O14	O	1.283525	0.570541	-0.570688
O15	O	1.582986	0.441449	-0.741045
O16	O	1.582805	0.740936	-0.441640
O17	O	1.453790	0.740876	-0.570681
C18	C	1.245409	0.506039	-0.506169
C19	C	1.128632	0.506055	-0.506185
C20	C	0.964019	0.438817	-0.439128
C21	C	1.073743	0.438796	-0.439116
C22	C	1.073791	0.573332	-0.573279
C23	C	0.964069	0.573346	-0.573296
C24	C	0.963992	0.361147	-0.361667
C25	C	1.073716	0.361127	-0.361654
C26	C	1.518313	0.779027	-0.506179
C27	C	1.518382	0.895804	-0.506211
C28	C	1.652827	0.895813	-0.371942
C29	C	1.720076	0.950678	-0.304823
C30	C	1.720138	1.060399	-0.304858
C31	C	1.652945	1.115258	-0.372022
C32	C	1.585695	1.060393	-0.439141
C33	C	1.585639	0.950669	-0.439096
C34	C	1.451258	1.060384	-0.573415
C35	C	1.451189	0.950662	-0.573375
C36	C	1.384065	1.115243	-0.640579
C37	C	1.316808	1.060377	-0.707694
C38	C	1.316748	0.950649	-0.707655
C39	C	1.383940	0.895797	-0.640494
C40	C	1.792409	0.506081	-0.506206
C41	C	1.909186	0.506090	-0.506215
C42	C	1.518450	0.505953	-0.780221
C43	C	1.518481	0.505908	-0.896997
C44	C	1.518468	1.232026	-0.506234
C45	C	1.518507	1.115249	-0.506296
C46	C	1.585709	0.438711	-0.951873
C47	C	1.585734	0.438673	-1.061597
C48	C	1.451300	0.573039	-1.061560
C49	C	1.451270	0.573071	-0.951838
C50	C	1.663327	0.361139	-0.951896
C51	C	1.663352	0.361101	-1.061620
C52	C	1.518363	0.506089	-0.233220
C53	C	1.518535	0.505838	-0.116444
H54	H	1.118491	0.628088	-0.627896
H55	H	1.641558	0.279774	-0.922135
H56	H	1.652770	0.806472	-0.371892
H57	H	1.384124	1.204584	-0.640608
O58	O	1.765683	0.399756	-0.906799
H59	H	1.819974	0.420200	-0.971624
H60	H	1.261990	0.905983	-0.762315
O61	O	1.792670	1.119598	-0.232480
H62	H	1.774679	1.098644	-0.149995
H63	H	1.774786	0.906002	-0.250140
O64	O	1.653017	1.233601	-0.372074
H65	H	1.573799	1.262617	-0.350796
O66	O	1.624811	0.258695	-1.106731
H67	H	1.604363	0.204430	-1.041914
H68	H	0.934237	0.279805	-0.383595
O69	O	0.918852	0.399633	-0.259225
H70	H	0.869907	0.470063	-0.273775
O71	O	1.244331	1.119541	-0.780120
H72	H	1.255669	1.205054	-0.768865
O73	O	1.383856	0.777454	-0.640459
H74	H	1.463069	0.748432	-0.661751
O75	O	1.378707	0.645493	-0.892645
H76	H	1.331969	0.692176	-0.949215
O77	O	1.378810	0.645478	-1.120707
H78	H	1.390125	0.634169	-1.206224
H79	H	1.103452	0.382825	-0.280244
H80	H	1.744722	0.382893	-1.091401
H81	H	1.107769	0.283858	-0.390924
H82	H	0.919429	0.628117	-0.627933
