data_functionalizedCrystal
_audit_creation_method	'MofGen! by Chris Wilmer'
_symmetry_space_group_name_H-M	'P1'
_symmetry_Int_Tables_number	1
_symmetry_cell_setting	triclinic
loop_
_symmetry_equiv_pos_as_xyz
  x,y,z
_cell_length_a	17.019282
_cell_length_b	15.500227
_cell_length_c	14.044220
_cell_angle_alpha	93.086249
_cell_angle_beta	91.722286
_cell_angle_gamma	88.965536
loop_
_atom_site_label
_atom_site_type_symbol
_atom_site_fract_x
_atom_site_fract_y
_atom_site_fract_z
O1	O	1.054861	-0.006670	-0.121090
O2	O	0.827073	0.010308	-0.135463
O3	O	0.937548	0.002065	0.009718
O4	O	0.944387	0.001573	-0.266271
O5	O	0.930841	-0.141323	0.000943
O6	O	0.820367	-0.133080	-0.144238
O7	O	1.048155	-0.150059	-0.129866
Cu8	Cu	0.933649	-0.154662	-0.137853
Cu9	Cu	0.941580	0.014911	-0.127475
O10	O	0.937680	-0.141816	-0.275047
C11	C	0.794392	-0.059200	-0.139135
C12	C	0.707003	-0.052687	-0.136990
N13	N	0.928076	-0.273931	-0.145152
C14	C	0.662296	-0.127789	-0.140764
C15	C	0.580185	-0.121672	-0.138734
C16	C	0.542783	-0.040450	-0.132937
C17	C	0.587495	0.034658	-0.129161
C18	C	0.669605	0.028540	-0.131184
C19	C	0.295048	-0.018066	-0.126584
C20	C	0.212932	-0.011953	-0.124564
C21	C	0.205628	-0.168284	-0.134136
C22	C	0.287739	-0.174395	-0.136164
C23	C	0.332445	-0.099287	-0.132382
C24	C	0.458852	-0.034195	-0.130866
C25	C	0.416374	-0.105543	-0.134447
C26	C	0.974907	-0.322702	-0.083656
C27	C	0.970701	-0.412961	-0.089185
C28	C	0.919666	-0.454448	-0.156214
C29	C	0.872830	-0.405670	-0.217712
C30	C	0.877033	-0.315412	-0.212178
C31	C	0.904524	-0.726785	-0.176134
C32	C	0.900326	-0.817049	-0.181665
C33	C	0.998197	-0.824334	-0.053135
C34	C	1.002399	-0.734074	-0.047611
C35	C	0.955559	-0.685304	-0.109106
C36	C	0.915367	-0.546707	-0.161869
C37	C	0.959855	-0.593046	-0.103446
C38	C	1.080836	-0.080549	-0.126194
C39	C	1.168225	-0.087056	-0.128338
C40	C	0.931201	-0.069406	0.040654
C41	C	0.922273	-0.068742	0.145908
N42	N	0.947158	0.134180	-0.120169
C43	C	0.944027	-0.070342	-0.305983
C44	C	0.952956	-0.071001	-0.411236
C45	C	0.905950	-0.067513	0.338622
C46	C	0.969275	-0.072230	0.396056
C47	C	0.960193	-0.071546	0.503289
C48	C	0.915031	-0.068196	0.231379
H49	H	0.543789	-0.182829	-0.141792
Br50	Br	0.713049	-0.238024	-0.148641
Br51	Br	0.338494	-0.284629	-0.144042
H52	H	0.858766	-0.850823	-0.236252
H53	H	0.844920	-0.062961	0.369983
H54	H	0.169220	-0.229433	-0.137213
Br55	Br	0.162171	0.098283	-0.116703
H56	H	1.030313	-0.076722	0.364697
H57	H	1.043955	-0.700298	0.006969
Br58	Br	0.730280	0.130469	-0.126053
Br59	Br	0.355710	0.083868	-0.121450
Br60	Br	1.034255	-0.479153	-0.005722
Br61	Br	0.803561	-0.461969	-0.308676
H62	H	0.838897	-0.275703	-0.262254
H63	H	0.873815	-0.580493	-0.216447
H64	H	0.446831	-0.171673	-0.139162
Br65	Br	1.044178	-0.266409	0.007310
H66	H	0.557036	0.100790	-0.124434
Br67	Br	1.061760	-0.890524	0.030320
H68	H	0.866387	-0.687083	-0.226207
H69	H	0.428390	0.031936	-0.126145
H70	H	1.001404	-0.559265	-0.048867
