data_functionalizedCrystal
_audit_creation_method	'MofGen! by Chris Wilmer'
_symmetry_space_group_name_H-M	'P1'
_symmetry_Int_Tables_number	1
_symmetry_cell_setting	triclinic
loop_
_symmetry_equiv_pos_as_xyz
  x,y,z
_cell_length_a	13.635800
_cell_length_b	15.693664
_cell_length_c	13.466033
_cell_angle_alpha	70.841937
_cell_angle_beta	68.884219
_cell_angle_gamma	53.883903
loop_
_atom_site_label
_atom_site_type_symbol
_atom_site_fract_x
_atom_site_fract_y
_atom_site_fract_z
V1	V	2.078789	-0.329639	0.146103
O2	O	2.158171	-0.322370	-0.008390
O3	O	1.970552	-0.328340	0.291014
O4	O	2.121233	-0.472970	0.143255
O5	O	2.006447	-0.176739	0.140392
V6	V	2.322857	-0.311235	0.127695
O7	O	2.204360	-0.370010	0.186482
O8	O	2.422386	-0.270864	0.087315
O9	O	2.319491	-0.312534	-0.017216
O10	O	2.302174	-0.318503	0.282187
O11	O	2.453898	-0.464134	0.133405
O12	O	2.168810	-0.167904	0.130543
V13	V	2.578789	-0.329639	0.146103
O14	O	2.658171	-0.322370	-0.008390
O15	O	2.470552	-0.328340	0.291014
O16	O	2.621233	-0.472970	0.143255
O17	O	2.506447	-0.176739	0.140392
V18	V	2.822857	-0.311235	0.127695
O19	O	2.704360	-0.370010	0.186482
O20	O	2.922386	-0.270864	0.087315
O21	O	2.819491	-0.312534	-0.017216
O22	O	2.802174	-0.318503	0.282187
O23	O	2.953898	-0.464134	0.133405
O24	O	2.668810	-0.167904	0.130543
C25	C	1.870452	-0.323387	0.326359
C26	C	1.823043	-0.323280	0.444821
C27	C	1.745361	-0.226587	0.485631
C28	C	1.700821	-0.226472	0.596938
C29	C	1.733957	-0.323051	0.667432
C30	C	1.811649	-0.419752	0.626616
C31	C	1.856195	-0.419866	0.515312
C32	C	2.062661	-0.507875	0.137876
C33	C	2.137449	-0.625055	0.136507
C34	C	2.458927	-0.856054	0.144507
C35	C	2.529202	-0.966155	0.143221
C36	C	2.348278	-0.955360	0.132640
C37	C	2.278003	-0.845258	0.133926
C38	C	2.333333	-0.795610	0.139862
C39	C	2.263054	-0.685507	0.141156
C40	C	2.082135	-0.674713	0.130567
C41	C	2.152409	-0.784814	0.129280
C42	C	2.251258	-0.317484	-0.052555
C43	C	2.288289	-0.317598	-0.171017
C44	C	2.559049	-0.132993	0.135925
C45	C	2.473883	-0.015812	0.137289
C46	C	2.183853	-0.328423	-0.382808
C47	C	2.218642	-0.328530	-0.494112
C48	C	2.392661	-0.317926	-0.504933
C49	C	2.357872	-0.317819	-0.393628
C50	C	2.253464	-0.323066	-0.332569
C51	C	2.218670	-0.322952	-0.221263
C52	C	2.392694	-0.312355	-0.232084
C53	C	2.427483	-0.312462	-0.343389
C54	C	2.370452	-0.323387	0.326359
C55	C	2.323043	-0.323280	0.444821
C56	C	2.059049	-0.132993	0.135925
C57	C	1.973883	-0.015812	0.137289
C58	C	2.562661	-0.507875	0.137876
C59	C	2.637449	-0.625055	0.136507
C60	C	2.751258	-0.317484	-0.052555
C61	C	2.788289	-0.317598	-0.171017
C62	C	1.640033	0.193589	0.150421
C63	C	1.560007	0.303691	0.151704
C64	C	1.733804	0.314496	0.141130
C65	C	1.813830	0.204394	0.139847
C66	C	1.766938	0.143944	0.144494
C67	C	1.846965	0.033839	0.143219
C68	C	2.020761	0.044647	0.132638
C69	C	1.940735	0.154749	0.133921
C70	C	2.740527	-0.221007	-0.241486
C71	C	2.775296	-0.221099	-0.352795
C72	C	2.857834	-0.317782	-0.393633
C73	C	2.905596	-0.414380	-0.323155
C74	C	2.870820	-0.414287	-0.211848
H75	H	1.718361	-0.147936	0.428246
Br76	Br	1.595385	-0.095225	0.652305
H77	H	2.308108	-0.645086	0.145993
Br78	Br	2.534362	-0.310822	-0.587813
Br79	Br	2.487177	-0.305090	-0.163898
H80	H	1.697676	-0.322943	0.758061
H81	H	1.808779	-0.015378	0.147005
H82	H	2.512495	-0.308194	-0.393117
Br83	Br	3.017609	-0.545584	-0.378595
H84	H	2.909724	-0.492945	-0.154479
H85	H	1.979860	-0.625488	0.126788
Br86	Br	1.856606	-0.550816	0.722302
H87	H	2.736396	-0.142435	-0.410164
H88	H	2.631466	-1.015365	0.147004
H89	H	1.919444	-0.498608	0.482095
Br90	Br	2.534003	-0.788671	0.152584
H91	H	1.771968	0.363736	0.137323
Br92	Br	2.273210	-1.022759	0.124588
H93	H	2.107375	-0.825253	0.124444
Br94	Br	2.004360	0.236797	0.127614
H95	H	1.456677	0.344108	0.156521
H96	H	2.098855	-0.332717	-0.333089
Br97	Br	2.192998	-0.022735	0.124608
H98	H	2.133669	-0.327241	-0.171548
H99	H	2.673318	-0.142273	-0.208252
Br100	Br	2.124169	-0.335808	-0.562290
H101	H	2.886137	-0.317842	-0.484268
Br102	Br	1.576399	0.111542	0.156748
