data_functionalizedCrystal
_audit_creation_method	'MofGen! by Chris Wilmer'
_symmetry_space_group_name_H-M	'P1'
_symmetry_Int_Tables_number	1
_symmetry_cell_setting	triclinic
loop_
_symmetry_equiv_pos_as_xyz
  x,y,z
_cell_length_a	14.971491
_cell_length_b	19.288874
_cell_length_c	13.448316
_cell_angle_alpha	89.992874
_cell_angle_beta	89.991393
_cell_angle_gamma	83.378230
loop_
_atom_site_label
_atom_site_type_symbol
_atom_site_fract_x
_atom_site_fract_y
_atom_site_fract_z
O1	O	1.186459	0.090534	-0.082736
O2	O	0.926002	0.101370	-0.082728
O3	O	1.063752	-0.005153	-0.082724
O4	O	1.048709	0.197057	-0.082740
O5	O	1.063735	-0.005160	0.082659
O6	O	0.925984	0.101363	0.082655
O7	O	1.186442	0.090527	0.082648
Cu8	Cu	1.056212	0.095945	0.097753
Cu9	Cu	1.056232	0.095953	-0.097833
O10	O	1.048692	0.197051	0.082644
C11	C	0.892671	0.100881	-0.000035
C12	C	0.793382	0.099427	-0.000033
C13	C	0.365719	0.093156	-0.090206
C14	C	0.459012	0.094520	-0.090202
C15	C	0.505645	0.095203	-0.000048
C16	C	0.458981	0.094515	0.090108
C17	C	0.365691	0.093146	0.090104
C18	C	0.653428	0.097371	0.090112
C19	C	0.746724	0.098741	0.090117
C20	C	0.746749	0.098745	-0.090194
C21	C	0.653459	0.097376	-0.090199
C22	C	0.606801	0.096689	-0.000042
C23	C	1.063258	-0.031034	-0.000033
C24	C	1.061800	-0.108142	-0.000033
C25	C	1.051327	-0.663750	0.090094
C26	C	1.052687	-0.591297	0.090099
C27	C	1.053380	-0.555060	-0.000050
C28	C	1.052691	-0.591279	-0.090212
C29	C	1.051322	-0.663729	-0.090215
C30	C	1.107943	-0.445548	-0.069116
C31	C	1.109317	-0.373100	-0.069110
C32	C	1.057597	-0.331600	-0.000046
C33	C	1.004515	-0.362559	0.069029
C34	C	1.003147	-0.435009	0.069026
C35	C	1.054864	-0.476501	-0.000058
C36	C	1.059754	-0.216829	0.090116
C37	C	1.061108	-0.144375	0.090118
C38	C	1.061122	-0.144359	-0.090196
C39	C	1.059759	-0.216811	-0.090195
C40	C	1.059079	-0.253042	-0.000036
C41	C	1.219773	0.091016	-0.000047
C42	C	1.319062	0.092470	-0.000056
C43	C	1.049186	0.222932	-0.000050
C44	C	1.050643	0.300040	-0.000056
N45	N	1.056204	0.095939	0.235317
N46	N	1.056247	0.095953	-0.235397
C47	C	1.117218	0.048790	0.287359
C48	C	1.117224	0.048789	0.391462
C49	C	1.056218	0.095942	0.443522
C50	C	0.995197	0.143093	0.391472
C51	C	0.995188	0.143090	0.287371
C52	C	0.995222	0.143098	0.608452
C53	C	0.995232	0.143102	0.712561
C54	C	1.117258	0.048797	0.712544
C55	C	1.117249	0.048794	0.608442
C56	C	1.056229	0.095946	0.556400
H57	H	0.327757	0.092605	-0.163620
N58	N	1.050568	-0.702822	0.187334
H59	H	1.049593	-0.754214	0.173657
H60	H	1.106238	-0.695749	0.226707
H61	H	1.053227	-0.561807	0.163512
N62	N	0.509339	0.095251	-0.187434
H63	H	0.465641	0.094613	-0.244546
H64	H	0.540629	0.138841	-0.191370
N65	N	1.053381	-0.552168	-0.187425
H66	H	1.109367	-0.527673	-0.191470
H67	H	1.052686	-0.586122	-0.244505
N68	N	1.163719	-0.490304	-0.143620
H69	H	1.197557	-0.459700	-0.187372
H70	H	1.207899	-0.524877	-0.107230
N71	N	0.929402	0.193949	0.447626
H72	H	0.939500	0.243260	0.429491
H73	H	0.865983	0.185806	0.429512
N74	N	1.050600	-0.702789	-0.187454
H75	H	1.049632	-0.754184	-0.173775
H76	H	0.995405	-0.684542	-0.226820
H77	H	0.945554	0.181498	0.754942
N78	N	0.603156	0.096638	-0.187431
H79	H	0.611971	0.139899	-0.226855
H80	H	0.626845	0.053823	-0.226758
H81	H	0.784742	0.099305	-0.163603
H82	H	1.152544	-0.347899	-0.125350
N83	N	0.797025	0.099476	0.187351
H84	H	0.753314	0.098827	0.244465
H85	H	0.843156	0.057019	0.191274
H86	H	1.166900	0.010396	0.244979
N87	N	0.929376	0.193939	0.231234
H88	H	0.890730	0.223811	0.280008
H89	H	0.963484	0.224691	0.188021
N90	N	1.183063	-0.002040	0.447595
H91	H	1.221722	-0.031900	0.398819
H92	H	1.222481	0.024634	0.490750
N93	N	1.061843	-0.105315	0.187355
H94	H	1.061208	-0.139264	0.244466
H95	H	1.117846	-0.080836	0.191271
N96	N	0.603105	0.096625	0.187352
H97	H	0.646886	0.096775	0.244462
H98	H	0.557405	0.139334	0.191577
H99	H	0.496958	0.095067	0.163513
H100	H	1.059194	-0.246329	0.163529
H101	H	0.959926	-0.460213	0.125269
H102	H	0.945530	0.181492	0.566083
H103	H	1.166928	0.010403	0.566056
H104	H	0.327702	0.092595	0.163513
N105	N	0.948727	-0.317811	0.143527
H106	H	0.957641	-0.267216	0.133047
H107	H	0.883142	-0.323898	0.134280
N108	N	1.061857	-0.105284	-0.187432
H109	H	1.062824	-0.053892	-0.173753
H110	H	1.117056	-0.123525	-0.226809
N111	N	1.059103	-0.255880	-0.187429
H112	H	1.059775	-0.221935	-0.244539
H113	H	1.113999	-0.291501	-0.191300
N114	N	1.183076	-0.002060	0.768667
H115	H	1.173825	0.005093	0.842514
H116	H	1.172948	-0.051349	0.750483
