data_functionalizedCrystal
_audit_creation_method	'MofGen! by Chris Wilmer'
_symmetry_space_group_name_H-M	'P1'
_symmetry_Int_Tables_number	1
_symmetry_cell_setting	triclinic
loop_
_symmetry_equiv_pos_as_xyz
  x,y,z
_cell_length_a	19.188930
_cell_length_b	16.109301
_cell_length_c	14.586319
_cell_angle_alpha	89.999213
_cell_angle_beta	90.008905
_cell_angle_gamma	96.696869
loop_
_atom_site_label
_atom_site_type_symbol
_atom_site_fract_x
_atom_site_fract_y
_atom_site_fract_z
O1	O	0.089744	-1.102833	0.076193
O2	O	0.100912	-0.860734	0.076209
O3	O	-0.006311	-0.988770	0.076182
O4	O	0.196968	-0.974797	0.076219
O5	O	-0.006313	-0.988762	-0.076298
O6	O	0.100911	-0.860726	-0.076272
O7	O	0.089742	-1.102825	-0.076288
Cu8	Cu	0.095326	-0.981774	-0.090203
Cu9	Cu	0.095328	-0.981785	0.090124
O10	O	0.196966	-0.974789	-0.076262
C11	C	0.100459	-0.829757	-0.000030
C12	C	0.099103	-0.737466	-0.000025
C13	C	-0.032324	-0.988313	-0.000061
C14	C	-0.109832	-0.986955	-0.000068
N15	N	0.095325	-0.981773	-0.217034
C16	C	-0.154580	-1.062082	-0.000078
C17	C	-0.227407	-1.060806	-0.000063
C18	C	-0.255482	-0.984399	-0.000057
C19	C	-0.210724	-0.909261	-0.000043
C20	C	-0.137899	-0.910540	-0.000048
N21	N	-0.363624	-0.925991	-0.051945
N22	N	-0.432805	-0.924782	-0.051942
C23	C	-0.474900	-0.980543	-0.000038
N24	N	-0.445200	-1.037571	0.051850
N25	N	-0.376013	-1.038783	0.051843
C26	C	-0.334448	-0.983004	-0.000051
C27	C	-0.598616	-1.054292	-0.000030
C28	C	-0.671443	-1.053012	-0.000010
C29	C	-0.654759	-0.901465	0.000001
C30	C	-0.581933	-0.902747	-0.000010
C31	C	-0.553866	-0.979162	-0.000030
C32	C	0.222979	-0.975246	-0.000017
C33	C	0.300486	-0.976604	-0.000003
C34	C	0.090196	-1.133802	-0.000047
C35	C	0.091552	-1.226093	-0.000046
C36	C	0.159573	-0.514993	-0.000024
C37	C	0.158294	-0.428277	-0.000030
C38	C	0.031076	-0.448573	-0.000050
C39	C	0.032357	-0.535287	-0.000050
C40	C	0.096608	-0.568495	-0.000033
C41	C	0.094047	-0.395064	-0.000038
C42	C	0.092659	-0.301043	-0.000045
C43	C	0.097996	-0.662522	-0.000028
C44	C	0.047862	-1.038486	-0.452052
C45	C	0.047860	-1.038488	-0.548034
C46	C	0.142790	-0.925074	-0.548020
C47	C	0.142787	-0.925068	-0.452040
C48	C	0.095324	-0.981779	-0.404059
C49	C	0.095325	-0.981787	-0.596020
C50	C	0.095323	-0.981789	-0.700087
C51	C	0.095325	-0.981776	-0.299985
N52	N	0.095325	-0.981793	0.216955
H53	H	-0.131733	-1.124306	-0.000091
H54	H	0.009211	-1.084663	-0.587107
N55	N	0.228872	-0.550805	-0.000008
H56	H	0.256454	-0.531277	-0.056529
H57	H	0.220075	-0.613851	0.000029
H58	H	-0.545497	-0.841570	-0.000008
H59	H	-0.263848	-1.121986	-0.000067
N60	N	-0.719713	-1.134045	-0.000026
H61	H	-0.750290	-1.136904	0.056502
H62	H	-0.690831	-1.182598	-0.000078
N63	N	-0.003339	-1.099628	-0.400289
H64	H	0.023343	-1.136341	-0.360452
H65	H	-0.033401	-1.135495	-0.445311
H66	H	-0.018920	-0.578851	-0.000059
H67	H	0.181437	-0.878886	-0.412962
N68	N	0.226218	-0.370592	-0.000027
H69	H	0.228539	-0.334155	0.056493
H70	H	0.228488	-0.334222	-0.056594
H71	H	-0.233587	-0.847050	-0.000036
N72	N	-0.685029	-0.819052	0.000017
H73	H	-0.737954	-0.829640	0.000023
H74	H	-0.668667	-0.786182	-0.056507
N75	N	-0.089624	-0.829511	-0.000045
H76	H	-0.098637	-0.796164	0.056484
H77	H	-0.098682	-0.796224	-0.056603
N78	N	0.193989	-0.863917	-0.599767
H79	H	0.185934	-0.804941	-0.583073
H80	H	0.186768	-0.872597	-0.667837
H81	H	-0.021234	-0.421524	-0.000069
N82	N	-0.568339	-1.136707	-0.000048
H83	H	-0.538512	-1.140609	-0.056582
H84	H	-0.607782	-1.184057	-0.000013
