data_functionalizedCrystal
_audit_creation_method	'MofGen! by Chris Wilmer'
_symmetry_space_group_name_H-M	'P1'
_symmetry_Int_Tables_number	1
_symmetry_cell_setting	triclinic
loop_
_symmetry_equiv_pos_as_xyz
  x,y,z
_cell_length_a	25.993458
_cell_length_b	25.993459
_cell_length_c	25.993511
_cell_angle_alpha	59.998162
_cell_angle_beta	89.999156
_cell_angle_gamma	60.000225
loop_
_atom_site_label
_atom_site_type_symbol
_atom_site_fract_x
_atom_site_fract_y
_atom_site_fract_z
O1	O	-0.438486	-0.368218	0.015293
O2	O	-0.363675	-0.262871	-0.015241
O3	O	-0.363672	-0.368217	0.090105
O4	O	-0.438489	-0.262872	-0.090053
O5	O	-0.278107	-0.453782	0.090105
O6	O	-0.278110	-0.348435	-0.015242
O7	O	-0.352922	-0.453782	0.015293
Zn8	Zn	-0.301931	-0.414694	0.000025
Zn9	Zn	-0.414666	-0.301959	0.000026
O10	O	-0.352925	-0.348436	-0.090054
C11	C	-0.277316	-0.161982	-0.022175
C12	C	-0.309062	-0.098492	-0.017804
C13	C	-0.215401	-0.192794	-0.022608
C14	C	-0.277319	-0.255138	-0.022182
C15	C	-0.309067	-0.291250	-0.017818
C16	C	-0.215403	-0.285808	-0.022615
C17	C	-0.184156	-0.255142	-0.022175
C18	C	-0.116294	-0.291259	-0.017803
C19	C	-0.308422	-0.192790	-0.022615
C20	C	-0.621955	-0.565869	0.037072
C21	C	-0.590709	-0.628219	0.037508
C22	C	-0.528796	-0.565867	0.037069
C23	C	-0.497692	-0.628217	0.037505
C24	C	-0.528795	-0.659029	0.037072
C25	C	-0.590710	-0.535199	0.037505
C26	C	-0.722642	-0.464940	0.029513
C27	C	-0.786264	-0.430643	0.024742
C28	C	-0.818173	-0.460083	0.022351
C29	C	-0.887157	-0.422897	0.017175
C30	C	-0.786465	-0.523827	0.024735
C31	C	-0.722845	-0.558124	0.029508
C32	C	-0.690936	-0.528678	0.031894
C33	C	-0.529037	-0.752158	0.029515
C34	C	-0.499712	-0.811010	0.024744
C35	C	-0.438364	-0.840525	0.022349
C36	C	-0.406566	-0.904333	0.017173
C37	C	-0.406330	-0.811198	0.024730
C38	C	-0.435652	-0.752352	0.029503
C39	C	-0.497006	-0.722832	0.031893
C40	C	-0.529039	-0.464935	0.029505
C41	C	-0.499717	-0.430630	0.024723
C42	C	-0.438369	-0.460069	0.022328
C43	C	-0.406571	-0.422880	0.017149
C44	C	-0.406337	-0.523807	0.024709
C45	C	-0.435656	-0.558111	0.029489
C46	C	-0.497007	-0.528673	0.031887
C47	C	-0.528800	-0.150795	-0.471170
C48	C	-0.590715	-0.088445	-0.502276
C49	C	-0.528801	-0.150794	-0.378010
C50	C	-0.590716	-0.088444	-0.409257
C51	C	-0.621962	-0.057634	-0.471172
C52	C	-0.497696	-0.181464	-0.409255
C53	C	-0.435430	-0.251726	-0.470926
C54	C	-0.405903	-0.286024	-0.500250
C55	C	-0.437736	-0.256585	-0.561599
C56	C	-0.405725	-0.293773	-0.593395
C57	C	-0.499096	-0.192842	-0.593635
C58	C	-0.528620	-0.158544	-0.564313
C59	C	-0.496787	-0.187988	-0.502959
C60	C	-0.722649	0.035493	-0.564543
C61	C	-0.786272	0.094345	-0.594071
C62	C	-0.818182	0.123861	-0.562238
C63	C	-0.887167	0.187669	-0.594249
C64	C	-0.786474	0.094536	-0.500878
C65	C	-0.722854	0.035690	-0.471354
C66	C	-0.690944	0.006168	-0.503186
C67	C	-0.435431	-0.251724	-0.277321
C68	C	-0.405908	-0.286027	-0.213695
C69	C	-0.437741	-0.256588	-0.181786
C70	C	-0.405731	-0.293774	-0.112801
C71	C	-0.499099	-0.192850	-0.213493
C72	C	-0.528625	-0.158547	-0.277116
C73	C	-0.496788	-0.187987	-0.309028
O74	O	0.090091	-0.453793	0.015309
O75	O	-0.090066	-0.348444	-0.015226
O76	O	0.015273	-0.453795	0.090120
O77	O	-0.015248	-0.348442	-0.090038
O78	O	0.015276	-0.368235	0.090127
O79	O	-0.090063	-0.262884	-0.015220
O80	O	0.090094	-0.368232	0.015315
Zn81	Zn	0.000016	-0.301973	0.000049
Zn82	Zn	0.000012	-0.414703	0.000040
O83	O	-0.015245	-0.262881	-0.090031
O84	O	-0.352917	0.074778	0.015314
O85	O	-0.278103	-0.074844	-0.015220
O86	O	-0.278107	-0.074853	0.090126
O87	O	-0.352914	0.074787	-0.090033
O88	O	-0.363674	-0.074850	0.090119
O89	O	-0.363670	-0.074840	-0.015227
O90	O	-0.438484	0.074782	0.015307
Zn91	Zn	-0.414663	-0.000029	0.000039
Zn92	Zn	-0.301925	-0.000034	0.000048
O93	O	-0.438481	0.074791	-0.090039
O94	O	-1.090075	0.358185	-0.636308
O95	O	-0.909918	0.208556	-0.561490
O96	O	-1.015259	0.208553	-0.561488
O97	O	-0.984734	0.358188	-0.636310
O98	O	-1.015257	0.208552	-0.647052
O99	O	-0.909916	0.208554	-0.647054
O100	O	-1.090073	0.358183	-0.721872
Zn101	Zn	-0.999994	0.283368	-0.698048
Zn102	Zn	-0.999997	0.283371	-0.585314
O103	O	-0.984732	0.358186	-0.721874
O104	O	-0.363672	-0.368217	-0.721856
O105	O	-0.438486	-0.262875	-0.647043
O106	O	-0.438485	-0.368220	-0.647039
O107	O	-0.363673	-0.262872	-0.721860
O108	O	-0.352919	-0.453785	-0.561473
O109	O	-0.352920	-0.348441	-0.561477
O110	O	-0.278106	-0.453783	-0.636290
Zn111	Zn	-0.301928	-0.414697	-0.585298
Zn112	Zn	-0.414664	-0.301961	-0.698035
O113	O	-0.278107	-0.348438	-0.636294
C114	C	-0.184157	-0.554680	0.277358
C115	C	-0.116295	-0.618172	0.309104
C116	C	-0.215402	-0.523869	0.308461
C117	C	-0.277317	-0.461519	0.184196
C118	C	-0.309064	-0.425404	0.116335
C119	C	-0.308422	-0.430850	0.215442
C120	C	-0.277317	-0.461519	0.277356
C121	C	-0.309064	-0.425404	0.309102
C122	C	-0.215403	-0.523869	0.215443
C123	C	0.022216	-0.461546	0.277378
C124	C	0.017847	-0.425434	0.309127
C125	C	0.022649	-0.523895	0.308480
C126	C	0.022218	-0.461539	0.184215
C127	C	0.017852	-0.425421	0.116353
C128	C	0.022651	-0.523888	0.215458
C129	C	0.022213	-0.554702	0.277373
C130	C	0.017842	-0.618193	0.309116
C131	C	0.022654	-0.430874	0.215464
C132	C	-0.277320	-0.255179	0.277365
C133	C	-0.309067	-0.291295	0.309105
C134	C	-0.215404	-0.285854	0.308471
C135	C	-0.277318	-0.162008	0.184211
C136	C	-0.309065	-0.098506	0.116351
C137	C	-0.215403	-0.192825	0.215459
C138	C	-0.184157	-0.255183	0.277372
C139	C	-0.116295	-0.291304	0.309120
C140	C	-0.308424	-0.192820	0.215452
C141	C	-0.036996	-0.057627	-0.471149
C142	C	-0.037431	-0.088434	-0.502256
C143	C	-0.037001	-0.150789	-0.377991
C144	C	-0.037436	-0.181455	-0.409239
C145	C	-0.036998	-0.150783	-0.471154
C146	C	-0.037433	-0.088440	-0.409234
C147	C	-0.029433	0.035497	-0.470902
C148	C	-0.024659	0.094348	-0.500225
C149	C	-0.022263	0.123866	-0.561574
C150	C	-0.017083	0.187673	-0.593369
C151	C	-0.024646	0.094544	-0.593611
C152	C	-0.029422	0.035698	-0.564291
C153	C	-0.031813	0.006175	-0.502936
C154	C	-0.029436	-0.158096	-0.564526
C155	C	-0.024665	-0.192189	-0.594055
C156	C	-0.022273	-0.255931	-0.562224
C157	C	-0.017096	-0.292903	-0.594236
C158	C	-0.024659	-0.285585	-0.500864
C159	C	-0.029433	-0.251492	-0.471338
C160	C	-0.031819	-0.187750	-0.503169
C161	C	-0.029443	-0.158113	-0.277301
C162	C	-0.024666	-0.192218	-0.213674
C163	C	-0.022275	-0.255960	-0.181767
C164	C	-0.017101	-0.292938	-0.112782
C165	C	-0.024655	-0.285608	-0.213475
C166	C	-0.029430	-0.251509	-0.277098
C167	C	-0.031824	-0.187761	-0.309009
O168	O	-0.015283	-0.348468	0.438547
O169	O	0.015263	-0.453813	0.363734
O170	O	-0.090086	-0.348466	0.363721
O171	O	0.090067	-0.453815	0.438560
O172	O	-0.090076	-0.262903	0.278160
O173	O	0.015274	-0.368250	0.278173
O174	O	-0.015273	-0.262904	0.352986
Zn175	Zn	0.000002	-0.301992	0.301995
Zn176	Zn	-0.000011	-0.414726	0.414725
O177	O	0.090077	-0.368251	0.352999
C178	C	-0.621954	0.434195	-0.471145
C179	C	-0.590708	0.464866	-0.502245
C180	C	-0.528793	0.341020	-0.377984
C181	C	-0.497688	0.371833	-0.409225
C182	C	-0.528792	0.434191	-0.471138
C183	C	-0.590709	0.371836	-0.409233
C184	C	-0.722643	0.441515	-0.470910
C185	C	-0.786267	0.475617	-0.500237
C186	C	-0.818176	0.539368	-0.561584
C187	C	-0.887162	0.576348	-0.593384
C188	C	-0.786467	0.569022	-0.593614
C189	C	-0.722846	0.534920	-0.564289
C190	C	-0.690937	0.471170	-0.502938
C191	C	-0.529033	0.535130	-0.564499
C192	C	-0.499707	0.569430	-0.594020
C193	C	-0.438357	0.539984	-0.562184
C194	C	-0.406558	0.577173	-0.594188
C195	C	-0.406323	0.476234	-0.500827
C196	C	-0.435646	0.441934	-0.471308
C197	C	-0.497001	0.471385	-0.503145
C198	C	-0.529036	0.247880	-0.277303
C199	C	-0.499713	0.189024	-0.213679
C200	C	-0.438364	0.159502	-0.181766
C201	C	-0.406566	0.095685	-0.112783
C202	C	-0.406331	0.188830	-0.213467
C203	C	-0.435651	0.247685	-0.277089
C204	C	-0.497003	0.277207	-0.309004
H205	H	-0.446821	-0.653998	0.038201
H206	H	-0.038138	-0.231626	-0.384153
H207	H	-0.409562	0.390028	-0.421351
H208	H	-0.190315	-0.549659	0.359334
H209	H	-0.190317	-0.167038	0.190373
H210	H	-0.812080	0.118217	-0.644031
H211	H	-0.190318	-0.167005	-0.023309
C212	C	-0.377147	-0.157959	-0.023566
C213	C	-0.394046	-0.150843	0.030378
C214	C	-0.462768	-0.116017	0.029426
C215	C	-0.514591	-0.088307	-0.025469
C216	C	-0.497693	-0.095422	-0.079416
C217	C	-0.428971	-0.130248	-0.078465
H218	H	-0.355683	-0.171357	0.071018
H219	H	-0.475277	-0.110750	0.069362
H220	H	-0.565463	-0.062527	-0.026173
H221	H	-0.536056	-0.074909	-0.120056
H222	H	-0.416462	-0.135515	-0.118401
H223	H	-0.190308	-0.549645	0.190353
C224	C	-0.400412	-0.284111	-0.312422
C225	C	-0.337961	-0.292944	-0.318137
C226	C	-0.302943	-0.325337	-0.353235
C227	C	-0.330377	-0.348897	-0.382618
C228	C	-0.392832	-0.340066	-0.376903
C229	C	-0.427849	-0.307673	-0.341805
H230	H	-0.317649	-0.275502	-0.296386
H231	H	-0.256710	-0.331874	-0.357466
H232	H	-0.304455	-0.372877	-0.408599
H233	H	-0.413143	-0.357507	-0.398654
H234	H	-0.474082	-0.301135	-0.337574
H235	H	-0.031366	-0.275654	-0.302914
H236	H	-0.190320	-0.335979	-0.023316
C237	C	-0.038374	-0.053604	-0.570979
C238	C	-0.093253	0.025409	-0.622814
C239	C	-0.094196	0.060234	-0.691535
C240	C	-0.040259	0.016046	-0.708421
C241	C	0.014625	-0.062972	-0.656584
C242	C	0.015567	-0.097797	-0.587864
H243	H	-0.133185	0.058124	-0.610316
H244	H	-0.134825	0.118728	-0.729907
H245	H	-0.040956	0.041826	-0.759292
H246	H	0.054556	-0.095686	-0.669083
H247	H	0.056196	-0.156291	-0.549492
C248	C	-0.624588	-0.663064	0.038454
C249	C	-0.648716	-0.690774	0.093335
C250	C	-0.682590	-0.725621	0.094279
C251	C	-0.692335	-0.732756	0.040340
C252	C	-0.668207	-0.705045	-0.014546
C253	C	-0.634333	-0.670198	-0.015489
H254	H	-0.641503	-0.685493	0.133268
H255	H	-0.700451	-0.746135	0.134909
H256	H	-0.717410	-0.758552	0.041038
H257	H	-0.675420	-0.710326	-0.054478
H258	H	-0.616472	-0.649685	-0.056120
C259	C	0.023599	-0.558727	0.181573
C260	C	0.078484	-0.586430	0.157447
C261	C	0.079432	-0.621270	0.123567
C262	C	0.025496	-0.628407	0.113812
C263	C	-0.029393	-0.600702	0.137938
C264	C	-0.030341	-0.565862	0.171818
H265	H	0.118414	-0.581148	0.164668
H266	H	0.120065	-0.641779	0.105707
H267	H	0.026198	-0.654197	0.088731
H268	H	-0.069323	-0.605984	0.130717
H269	H	-0.070974	-0.545353	0.189678
C270	C	-0.022006	0.127014	-0.661099
C271	C	0.031617	0.079101	-0.675635
C272	C	0.034256	0.111568	-0.743122
C273	C	-0.016728	0.191949	-0.796073
C274	C	-0.070355	0.239867	-0.781538
C275	C	-0.072994	0.207400	-0.714051
H276	H	0.069362	0.019594	-0.636437
H277	H	0.073955	0.076095	-0.753882
H278	H	-0.014774	0.215983	-0.846031
H279	H	-0.108100	0.299374	-0.820736
H280	H	-0.112692	0.242873	-0.703291
C281	C	0.023592	-0.558740	0.377203
C282	C	0.078473	-0.586450	0.429041
C283	C	0.079415	-0.621297	0.497762
C284	C	0.025477	-0.628433	0.514644
C285	C	-0.029409	-0.600722	0.462806
C286	C	-0.030351	-0.565875	0.394085
H287	H	0.118405	-0.581169	0.416544
H288	H	0.120045	-0.641811	0.536136
H289	H	0.026174	-0.654229	0.565515
H290	H	-0.069341	-0.606004	0.475302
H291	H	-0.070981	-0.545362	0.355711
H292	H	-0.359291	-0.380672	0.190350
C293	C	-0.624583	0.532659	-0.570964
C294	C	-0.634315	0.603466	-0.587822
C295	C	-0.668182	0.671259	-0.656536
C296	C	-0.692316	0.668244	-0.708392
C297	C	-0.682584	0.597433	-0.691535
C298	C	-0.648717	0.529641	-0.622821
H299	H	-0.616450	0.605701	-0.549434
H300	H	-0.675387	0.723677	-0.669015
H301	H	-0.717386	0.718428	-0.759259
H302	H	-0.700449	0.595199	-0.729923
H303	H	-0.641512	0.477222	-0.610342
C304	C	-0.400421	-0.628223	0.032109
C305	C	-0.387788	-0.698944	0.089665
C306	C	-0.352552	-0.769056	0.092283
C307	C	-0.329947	-0.768447	0.037345
C308	C	-0.342579	-0.697723	-0.020215
C309	C	-0.377816	-0.627611	-0.022833
H310	H	-0.404522	-0.699398	0.130336
H311	H	-0.343201	-0.821410	0.134893
H312	H	-0.303863	-0.820347	0.039284
H313	H	-0.325845	-0.697270	-0.060886
H314	H	-0.387166	-0.575257	-0.065443
C315	C	-0.022035	0.126596	-0.464984
C316	C	-0.073032	0.206918	-0.492242
C317	C	-0.070411	0.239171	-0.457003
C318	C	-0.016794	0.191101	-0.394507
C319	C	0.034207	0.110774	-0.367246
C320	C	0.031586	0.078521	-0.402484
H321	H	-0.112726	0.242507	-0.538509
H322	H	-0.108166	0.298635	-0.477184
H323	H	-0.014854	0.214977	-0.368421
H324	H	0.073901	0.075185	-0.320979
H325	H	0.069341	0.019057	-0.382304
C326	C	0.023575	-0.363078	0.181552
C327	C	-0.030389	-0.292247	0.171771
C328	C	-0.029481	-0.224445	0.137848
C329	C	0.025390	-0.227474	0.113705
C330	C	0.079357	-0.298309	0.123485
C331	C	0.078450	-0.366111	0.157408
H332	H	-0.071011	-0.290001	0.189643
H333	H	-0.069432	-0.172008	0.130608
H334	H	0.026061	-0.177283	0.088593
H335	H	0.119980	-0.300554	0.105613
H336	H	0.118401	-0.418547	0.164648
C337	C	-0.181509	-0.353641	0.377193
C338	C	-0.171736	-0.424475	0.394078
C339	C	-0.137840	-0.492258	0.462796
C340	C	-0.113716	-0.489208	0.514630
C341	C	-0.123489	-0.418371	0.497747
C342	C	-0.157385	-0.350588	0.429028
H343	H	-0.189594	-0.426735	0.355706
H344	H	-0.130606	-0.544696	0.475294
H345	H	-0.088624	-0.539386	0.565499
H346	H	-0.105631	-0.416111	0.536118
H347	H	-0.164619	-0.298149	0.416530
C348	C	-0.377144	-0.157977	0.181546
C349	C	-0.394029	-0.202145	0.171758
C350	C	-0.462744	-0.167302	0.137847
C351	C	-0.514575	-0.088293	0.113723
C352	C	-0.497692	-0.044121	0.123510
C353	C	-0.428976	-0.078963	0.157422
H354	H	-0.355659	-0.260636	0.189616
H355	H	-0.475242	-0.200002	0.130601
H356	H	-0.565442	-0.062500	0.088619
H357	H	-0.536061	0.014371	0.105652
H358	H	-0.416479	-0.046263	0.164667
H359	H	-0.578993	-0.728129	0.031465
C360	C	-0.687968	0.003427	-0.403863
C361	C	-0.711165	-0.028311	-0.349522
C362	C	-0.676275	-0.060576	-0.282031
C363	C	-0.618189	-0.061102	-0.268880
C364	C	-0.594989	-0.029363	-0.323222
C365	C	-0.629878	0.002902	-0.390713
H366	H	-0.754166	-0.027922	-0.359256
H367	H	-0.693450	-0.084071	-0.241803
H368	H	-0.592362	-0.084987	-0.218918
H369	H	-0.551987	-0.029752	-0.313488
H370	H	-0.612704	0.026397	-0.430941
H371	H	-0.038084	-0.062687	-0.384132
C372	C	-0.022051	-0.159599	-0.178802
C373	C	0.031557	-0.150703	-0.173266
C374	C	0.034177	-0.118086	-0.138391
C375	C	-0.016812	-0.094364	-0.109052
C376	C	-0.070424	-0.103260	-0.114588
C377	C	-0.073043	-0.135877	-0.149463
H378	H	0.069305	-0.168263	-0.194986
H379	H	0.073864	-0.111501	-0.134294
H380	H	-0.014872	-0.070219	-0.083236
H381	H	-0.108172	-0.085699	-0.092868
H382	H	-0.112731	-0.142461	-0.153560
H383	H	-0.031396	-0.106204	-0.303280
H384	H	-0.031386	0.011466	-0.420946
H385	H	-0.812456	-0.547794	0.022786
H386	H	-0.031353	0.011819	-0.590373
C387	C	-0.338848	-0.556195	0.022075
C388	C	-0.325794	-0.511105	-0.035486
C389	C	-0.258306	-0.543493	-0.038118
C390	C	-0.203871	-0.620971	0.016810
C391	C	-0.216924	-0.666066	0.074375
C392	C	-0.284412	-0.633678	0.077007
H393	H	-0.366091	-0.453747	-0.076150
H394	H	-0.248644	-0.510110	-0.080731
H395	H	-0.153912	-0.644946	0.014862
H396	H	-0.176626	-0.723424	0.115039
H397	H	-0.294074	-0.667061	0.119620
H398	H	-0.031381	-0.106192	-0.590450
C399	C	-0.596111	-0.088429	-0.599550
C400	C	-0.609270	-0.017711	-0.612184
C401	C	-0.676761	0.052405	-0.647422
C402	C	-0.731094	0.051802	-0.670025
C403	C	-0.717937	-0.018918	-0.657391
C404	C	-0.650446	-0.089034	-0.622153
H405	H	-0.569048	-0.017263	-0.595452
H406	H	-0.686500	0.104757	-0.656775
H407	H	-0.781056	0.103706	-0.696110
H408	H	-0.758159	-0.019367	-0.674123
H409	H	-0.640707	-0.141386	-0.612800
H410	H	-0.525803	-0.378735	0.022786
C411	C	-0.022039	-0.159570	-0.661546
C412	C	-0.076969	-0.082024	-0.715880
C413	C	-0.074343	-0.049410	-0.783372
C414	C	-0.016789	-0.094342	-0.796530
C415	C	0.038144	-0.171893	-0.742195
C416	C	0.035519	-0.204507	-0.674703
H417	H	-0.119577	-0.048759	-0.706141
H418	H	-0.115009	0.007998	-0.823594
H419	H	-0.014846	-0.070199	-0.846492
H420	H	0.080753	-0.205158	-0.751934
H421	H	0.076185	-0.261915	-0.634480
H422	H	-0.525022	-0.168881	-0.187507
H423	H	-0.022713	-0.337491	-0.474950
H424	H	-0.409566	0.271563	-0.302898
H425	H	-0.615800	-0.062661	-0.384169
C426	C	-0.032051	-0.284105	-0.403844
C427	C	0.022888	-0.361645	-0.349511
C428	C	0.020274	-0.394259	-0.282015
C429	C	-0.037279	-0.349334	-0.268852
C430	C	-0.092223	-0.271790	-0.323186
C431	C	-0.089608	-0.239175	-0.390682
H432	H	0.065497	-0.394906	-0.359254
H433	H	0.060947	-0.451663	-0.241793
H434	H	-0.039214	-0.373477	-0.218887
H435	H	-0.134831	-0.238529	-0.313443
H436	H	-0.130281	-0.181772	-0.430904
H437	H	-0.022704	-0.337517	-0.187490
C438	C	-0.428963	0.336995	-0.375341
C439	C	-0.377135	0.257987	-0.351223
C440	C	-0.308412	0.223152	-0.317344
C441	C	-0.291516	0.267327	-0.307582
C442	C	-0.343345	0.346340	-0.331700
C443	C	-0.412068	0.381174	-0.365580
H444	H	-0.389641	0.225282	-0.358449
H445	H	-0.270045	0.164661	-0.299490
H446	H	-0.240643	0.241541	-0.282502
H447	H	-0.330839	0.379045	-0.324474
H448	H	-0.450435	0.439665	-0.383434
C449	C	-0.338414	-0.356138	-0.465013
C450	C	-0.284082	-0.355538	-0.442402
C451	C	-0.216590	-0.425652	-0.407169
C452	C	-0.203429	-0.496366	-0.394547
C453	C	-0.257762	-0.496969	-0.417158
C454	C	-0.325254	-0.426854	-0.452392
H455	H	-0.293823	-0.303189	-0.451745
H456	H	-0.176369	-0.425206	-0.390430
H457	H	-0.153467	-0.548269	-0.368465
H458	H	-0.248021	-0.549318	-0.407815
H459	H	-0.365475	-0.427301	-0.469131
H460	H	-0.578991	0.271911	-0.303287
H461	H	-0.615803	0.346061	-0.384148
H462	H	-0.525799	0.165148	-0.187874
H463	H	-0.696664	0.389604	-0.420956
C464	C	-0.534115	-0.160460	-0.661123
C465	C	-0.546587	-0.205551	-0.674170
C466	C	-0.581610	-0.173165	-0.741657
C467	C	-0.604160	-0.095688	-0.796097
C468	C	-0.591688	-0.050593	-0.783051
C469	C	-0.556666	-0.082979	-0.715564
H470	H	-0.529894	-0.262908	-0.633869
H471	H	-0.590842	-0.206549	-0.751315
H472	H	-0.630085	-0.071715	-0.846055
H473	H	-0.608382	0.006764	-0.823352
H474	H	-0.547434	-0.049595	-0.705907
C475	C	-0.338416	-0.356136	-0.178827
C476	C	-0.285351	-0.358215	-0.149487
C477	C	-0.217859	-0.428330	-0.114617
C478	C	-0.203432	-0.496365	-0.109087
C479	C	-0.256499	-0.494289	-0.138427
C480	C	-0.323991	-0.424174	-0.173297
H481	H	-0.296030	-0.307849	-0.153580
H482	H	-0.178576	-0.429867	-0.092898
H483	H	-0.153470	-0.548269	-0.083274
H484	H	-0.245820	-0.544655	-0.134334
H485	H	-0.363274	-0.422637	-0.195017
H486	H	-0.812078	0.451468	-0.474155
H487	H	-0.812458	0.620936	-0.643570
H488	H	-0.697029	0.559063	-0.590371
C489	C	-0.821580	0.127006	-0.465860
C490	C	-0.879719	0.127583	-0.453385
C491	C	-0.914820	0.160050	-0.418365
C492	C	-0.891781	0.191940	-0.395819
C493	C	-0.833639	0.191364	-0.408294
C494	C	-0.798538	0.158897	-0.443314
H495	H	-0.896776	0.103975	-0.470075
H496	H	-0.957860	0.160476	-0.409130
H497	H	-0.917765	0.215974	-0.369895
H498	H	-0.816582	0.214971	-0.391604
H499	H	-0.755498	0.158471	-0.452549
H500	H	-0.615799	-0.485024	0.038200
H501	H	-0.578988	0.559109	-0.590430
C502	C	-0.534945	0.639552	-0.661509
C503	C	-0.597438	0.707597	-0.675933
C504	C	-0.632671	0.777719	-0.743424
C505	C	-0.605412	0.779796	-0.796490
C506	C	-0.542917	0.711747	-0.782067
C507	C	-0.507683	0.641626	-0.714577
H508	H	-0.617620	0.706062	-0.636650
H509	H	-0.678935	0.828093	-0.754100
H510	H	-0.631494	0.831704	-0.846450
H511	H	-0.522735	0.713282	-0.821351
H512	H	-0.461419	0.591252	-0.703901
H513	H	-0.356363	0.452259	-0.474909
C514	C	-0.338841	0.156357	-0.178364
C515	C	-0.284408	0.124480	-0.201411
C516	C	-0.216918	0.092004	-0.166307
C517	C	-0.203861	0.091404	-0.108156
C518	C	-0.258295	0.123282	-0.085106
C519	C	-0.325785	0.155759	-0.120210
H520	H	-0.294073	0.124923	-0.244461
H521	H	-0.176623	0.068406	-0.183370
H522	H	-0.153900	0.067363	-0.082170
H523	H	-0.248630	0.122839	-0.042056
H524	H	-0.366080	0.179357	-0.103146
C525	C	-0.596525	-0.432551	0.032142
C526	C	-0.611068	-0.423721	0.085762
C527	C	-0.678557	-0.391332	0.088393
C528	C	-0.731503	-0.367773	0.037402
C529	C	-0.716962	-0.376602	-0.016223
C530	C	-0.649472	-0.408991	-0.018853
H531	H	-0.571873	-0.441162	0.123512
H532	H	-0.689322	-0.384796	0.128089
H533	H	-0.781463	-0.343796	0.039349
H534	H	-0.756157	-0.359162	-0.053973
H535	H	-0.638708	-0.415527	-0.058550
H536	H	-0.696663	-0.440962	0.031460
H537	H	-0.812075	-0.378744	0.022800
C538	C	-0.534950	-0.843264	0.022125
C539	C	-0.557560	-0.874987	0.077058
C540	C	-0.592794	-0.907246	0.074439
C541	C	-0.605417	-0.907783	0.016885
C542	C	-0.582807	-0.876059	-0.038053
C543	C	-0.547573	-0.843800	-0.035433
H544	H	-0.548216	-0.874590	0.119667
H545	H	-0.609531	-0.930730	0.115108
H546	H	-0.631499	-0.931663	0.014946
H547	H	-0.592151	-0.876455	-0.080661
H548	H	-0.530835	-0.820316	-0.076102
H549	H	-0.697030	-0.610024	0.031449
H550	H	-0.356374	-0.835235	0.022774
H551	H	-0.409570	-0.728473	0.031438
H552	H	-0.615794	-0.062654	-0.553151
H553	H	-0.446824	-0.231634	-0.384172
H554	H	-0.696669	0.011463	-0.590469
H555	H	-0.409504	-0.275702	-0.420969
H556	H	-0.578585	-0.106649	-0.302931
