data_functionalizedCrystal
_audit_creation_method	'MofGen! by Chris Wilmer'
_symmetry_space_group_name_H-M	'P1'
_symmetry_Int_Tables_number	1
_symmetry_cell_setting	triclinic
loop_
_symmetry_equiv_pos_as_xyz
  x,y,z
_cell_length_a	13.032831
_cell_length_b	12.759400
_cell_length_c	13.033454
_cell_angle_alpha	82.784971
_cell_angle_beta	89.091650
_cell_angle_gamma	82.819639
loop_
_atom_site_label
_atom_site_type_symbol
_atom_site_fract_x
_atom_site_fract_y
_atom_site_fract_z
Zn1	Zn	1.498577	-0.510089	-0.780885
Zn2	Zn	1.998577	-0.010089	-0.280885
Zn3	Zn	1.520314	-0.710550	-0.608898
Zn4	Zn	2.020314	-0.210550	-0.108898
Zn5	Zn	1.348418	-0.515689	-0.587115
Zn6	Zn	1.848418	-0.015689	-0.087115
Zn7	Zn	1.326574	-0.666525	-0.759031
Zn8	Zn	1.826574	-0.166525	-0.259031
O9	O	1.423471	-0.600713	-0.683982
O10	O	1.923471	-0.100713	-0.183982
O11	O	1.645384	-0.552761	-0.776333
O12	O	2.145384	-0.052761	-0.276333
O13	O	1.515751	-0.705470	-0.462084
O14	O	2.015751	-0.205470	0.037916
O15	O	1.368382	-0.367927	-0.612849
O16	O	1.868382	0.132073	-0.112849
O17	O	1.661354	-0.700040	-0.649975
O18	O	2.161354	-0.200040	-0.149975
O19	O	1.478703	-0.363813	-0.755211
O20	O	1.978703	0.136187	-0.255211
O21	O	1.389460	-0.562307	-0.446080
O22	O	1.889460	-0.062307	0.053920
O23	O	1.201598	-0.519617	-0.591658
O24	O	1.701598	-0.019617	-0.091658
O25	O	1.331152	-0.625005	-0.905854
O26	O	1.831152	-0.125005	-0.405854
O27	O	1.185549	-0.630435	-0.717964
O28	O	1.685549	-0.130435	-0.217964
O29	O	1.457522	-0.510072	-0.921910
O30	O	1.957522	-0.010072	-0.421910
O31	O	1.494569	-0.851729	-0.628784
O32	O	1.994569	-0.351729	-0.128784
O33	O	1.352229	-0.819384	-0.739086
O34	O	1.852229	-0.319384	-0.239086
C35	C	1.156255	-0.570857	-0.650076
C36	C	1.656255	-0.070857	-0.150076
C37	C	1.041936	-0.558106	-0.635596
C38	C	1.541936	-0.058106	-0.135596
C39	C	0.983068	-0.607368	-0.691540
C40	C	1.483068	-0.107368	-0.191540
C41	C	0.864913	-0.594191	-0.676575
C42	C	1.364913	-0.094191	-0.176575
C43	C	1.423413	-0.873677	-0.683953
C44	C	1.923413	-0.373677	-0.183953
C45	C	1.423478	-0.990457	-0.683987
C46	C	1.923478	-0.490457	-0.183987
C47	C	1.497658	-1.062124	-0.626635
C48	C	1.997658	-0.562124	-0.126635
C49	C	1.497717	-1.171851	-0.626674
C50	C	1.997717	-0.671851	-0.126674
C51	C	1.349406	-1.138232	-0.741420
C52	C	1.849406	-0.638232	-0.241420
C53	C	1.349353	-1.028508	-0.741386
C54	C	1.849353	-0.528508	-0.241386
C55	C	1.571783	-1.024074	-0.569236
C56	C	2.071783	-0.524074	-0.069236
C57	C	1.645968	-1.095743	-0.511878
C58	C	2.145968	-0.595743	-0.011878
C59	C	1.646028	-1.205469	-0.511918
C60	C	2.146028	-0.705469	-0.011918
C61	C	1.571901	-1.243527	-0.569315
C62	C	2.071901	-0.743527	-0.069315
C63	C	1.691730	-0.630687	-0.718021
C64	C	2.191730	-0.130687	-0.218021
C65	C	1.806046	-0.643460	-0.732527
C66	C	2.306046	-0.143460	-0.232527
C67	C	1.389475	-0.562002	-0.952244
C68	C	1.889475	-0.062002	-0.452244
C69	C	1.374988	-0.545506	-1.066561
C70	C	1.874988	-0.045506	-0.566561
C71	C	1.423555	-0.326684	-0.684038
C72	C	1.923555	0.173316	-0.184038
C73	C	1.423590	-0.209908	-0.684061
C74	C	1.923590	0.290092	-0.184061
C75	C	1.431016	-0.608986	-1.125445
C76	C	1.931016	-0.108986	-0.625445
C77	C	1.416044	-0.591938	-1.243598
C78	C	1.916044	-0.091938	-0.743598
C79	C	1.457394	-0.639204	-0.416772
C80	C	1.957394	-0.139204	0.083228
C81	C	1.472080	-0.655427	-0.302481
C82	C	1.972080	-0.155427	0.197519
H83	H	0.843114	-0.695387	-0.791512
H84	H	1.343114	-0.195387	-0.291512
H85	H	1.004861	-0.506171	-0.576625
H86	H	1.504861	-0.006171	-0.076625
H87	H	1.531140	-0.722397	-1.265429
H88	H	2.031140	-0.222397	-0.765429
F89	F	1.031521	-0.675250	-0.768623
F90	F	1.531521	-0.175250	-0.268623
F91	F	0.816464	-0.526302	-0.599489
F92	F	1.316464	-0.026302	-0.099489
H93	H	1.706439	-1.263819	-0.465223
H94	H	2.206439	-0.763819	0.034777
H95	H	1.571741	-0.934731	-0.569194
H96	H	2.071741	-0.434731	-0.069194
F97	F	1.724862	-1.055236	-0.450805
F98	F	2.224862	-0.555236	0.049195
F99	F	1.571678	-1.360320	-0.568980
F100	F	2.071678	-0.860320	-0.068980
F101	F	1.270520	-1.178741	-0.802500
F102	F	1.770520	-0.678741	-0.302500
F103	F	1.270403	-0.952231	-0.802429
F104	F	1.770403	-0.452231	-0.302429
H105	H	1.356993	-0.524961	-1.280653
H106	H	1.856993	-0.024961	-0.780653
H107	H	1.490071	-0.675951	-1.088387
H108	H	1.990071	-0.175951	-0.588387
H109	H	1.315942	-0.478534	-1.103620
H110	H	1.815942	0.021466	-0.603620
