data_functionalizedCrystal
_audit_creation_method	'MofGen! by Chris Wilmer'
_symmetry_space_group_name_H-M	'P1'
_symmetry_Int_Tables_number	1
_symmetry_cell_setting	triclinic
loop_
_symmetry_equiv_pos_as_xyz
  x,y,z
_cell_length_a	11.169417
_cell_length_b	12.645330
_cell_length_c	11.169409
_cell_angle_alpha	89.967780
_cell_angle_beta	89.979436
_cell_angle_gamma	90.018570
loop_
_atom_site_label
_atom_site_type_symbol
_atom_site_fract_x
_atom_site_fract_y
_atom_site_fract_z
Zn1	Zn	1.834910	-0.421929	-0.678543
Zn2	Zn	1.834771	-0.599240	-0.477860
Zn3	Zn	1.634193	-0.421994	-0.477878
Zn4	Zn	1.634177	-0.599154	-0.678505
O5	O	1.734513	-0.510579	-0.578197
O6	O	2.002841	-0.445459	-0.651931
O7	O	1.808112	-0.575791	-0.309913
O8	O	1.660883	-0.273638	-0.504519
O9	O	2.002739	-0.575728	-0.504490
O10	O	1.808349	-0.273591	-0.651948
O11	O	1.660749	-0.445569	-0.309925
O12	O	1.466241	-0.445485	-0.504483
O13	O	1.660857	-0.575582	-0.846460
O14	O	1.466230	-0.575644	-0.651883
O15	O	1.808334	-0.445375	-0.846488
O16	O	1.808097	-0.747576	-0.504453
O17	O	1.660722	-0.747513	-0.651866
C18	C	1.422688	-0.510563	-0.578181
C19	C	1.289288	-0.510582	-0.578203
C20	C	1.734425	-0.786009	-0.578180
C21	C	1.734498	-0.903839	-0.578213
C22	C	1.642166	-1.071407	-0.671236
C23	C	1.641694	-0.948848	-0.670937
C24	C	1.700252	-0.948448	-0.451730
C25	C	1.699689	-1.071046	-0.452295
C26	C	1.861639	-1.070923	-0.610646
C27	C	1.860860	-0.948316	-0.613412
C28	C	2.047555	-0.510596	-0.578213
C29	C	2.180955	-0.510603	-0.578220
C30	C	1.734609	-0.510462	-0.891239
C31	C	1.734650	-0.510412	-1.024639
C32	C	1.734633	-0.234074	-0.578240
C33	C	1.734685	-0.116244	-0.578258
C34	C	1.734486	-0.510620	-0.266372
C35	C	1.734678	-0.510371	-0.132972
H36	H	1.663120	-0.918683	-0.764723
H37	H	1.933421	-0.917671	-0.550623
O38	O	1.943735	-1.105652	-0.529797
C39	C	1.886797	-1.170547	-0.444310
H40	H	1.800756	-1.204071	-0.483951
H41	H	1.949025	-1.238245	-0.418453
H42	H	1.864569	-1.121802	-0.361402
H43	H	1.663396	-1.100808	-0.765330
H44	H	1.606884	-1.099742	-0.424857
O45	O	1.777927	-0.913668	-0.366675
C46	C	1.714850	-0.855719	-0.279231
H47	H	1.616721	-0.880529	-0.279805
H48	H	1.754963	-0.872130	-0.187244
H49	H	1.721859	-0.767643	-0.299934
H50	H	1.892877	-1.101756	-0.701309
H51	H	1.548637	-1.102312	-0.650053
H52	H	1.764151	-1.100711	-0.380657
O53	O	1.590591	-0.912070	-0.418546
C54	C	1.504371	-0.944969	-0.502847
H55	H	1.538474	-1.017910	-0.552134
H56	H	1.417262	-0.965013	-0.454683
H57	H	1.487657	-0.878588	-0.569890
O58	O	1.529333	-0.914096	-0.645472
C59	C	1.448992	-0.951662	-0.733016
H60	H	1.487894	-1.025256	-0.777249
H61	H	1.359891	-0.972267	-0.688977
H62	H	1.434222	-0.887842	-0.803611
O63	O	1.891523	-0.913388	-0.724446
C64	C	1.799135	-0.849064	-0.770184
H65	H	1.744049	-0.815884	-0.692919
H66	H	1.839737	-0.781109	-0.823645
H67	H	1.738914	-0.898180	-0.830971
