data_functionalizedCrystal
_audit_creation_method	'MofGen! by Chris Wilmer'
_symmetry_space_group_name_H-M	'P1'
_symmetry_Int_Tables_number	1
_symmetry_cell_setting	triclinic
loop_
_symmetry_equiv_pos_as_xyz
  x,y,z
_cell_length_a	6.817900
_cell_length_b	11.102188
_cell_length_c	9.582880
_cell_angle_alpha	90.973498
_cell_angle_beta	111.207034
_cell_angle_gamma	108.603875
loop_
_atom_site_label
_atom_site_type_symbol
_atom_site_fract_x
_atom_site_fract_y
_atom_site_fract_z
V1	V	-4.142606	-0.175303	-0.466601
V2	V	-3.642606	0.324697	0.033399
O3	O	-4.101057	0.008976	-0.457719
O4	O	-3.601057	0.508976	0.042281
O5	O	-4.119161	-0.348126	-0.463410
O6	O	-3.619161	0.151874	0.036590
O7	O	-4.132944	-0.172364	-0.670102
O8	O	-3.632944	0.327636	-0.170102
O9	O	-4.087178	-0.168003	-0.249596
O10	O	-3.587178	0.331997	0.250404
V11	V	-4.617980	-0.153289	-0.440646
V12	V	-4.117980	0.346711	0.059354
O13	O	-4.421738	-0.223590	-0.523537
O14	O	-3.921738	0.276410	-0.023537
O15	O	-4.789045	-0.105002	-0.383710
O16	O	-4.289045	0.394998	0.116290
O17	O	-4.418219	0.019534	-0.443837
O18	O	-3.918219	0.519534	0.056163
O19	O	-4.776927	-0.337568	-0.449528
O20	O	-4.276927	0.162432	0.050472
O21	O	-4.790805	-0.160589	-0.657651
O22	O	-4.290805	0.339411	-0.157651
O23	O	-4.404435	-0.156228	-0.237145
O24	O	-3.904435	0.343772	0.262855
C25	C	-3.968979	-0.390265	-0.456050
C26	C	-3.468979	0.109735	0.043950
C27	C	-4.031355	-0.531549	-0.454797
C28	C	-3.531355	-0.031549	0.045203
C29	C	-3.991361	-0.579932	-0.317163
C30	C	-3.491361	-0.079932	0.182837
C31	C	-4.049994	-0.712685	-0.315992
C32	C	-3.549994	-0.212685	0.184008
C33	C	-4.188608	-0.748660	-0.590101
C34	C	-3.688608	-0.248660	-0.090101
C35	C	-4.129990	-0.615910	-0.591271
C36	C	-3.629990	-0.115910	-0.091271
C37	C	-3.986559	-0.166061	-0.719704
C38	C	-3.486559	0.333939	-0.219704
C39	C	-4.060109	-0.164801	-0.886067
C40	C	-3.560109	0.335199	-0.386067
C41	C	-4.231743	0.061666	-0.451194
C42	C	-3.731743	0.561666	0.048806
C43	C	-4.148607	0.202949	-0.452456
C44	C	-3.648607	0.702949	0.047544
C45	C	-4.214161	-0.162535	-0.187536
C46	C	-3.714161	0.337465	0.312464
C47	C	-4.119849	-0.163788	-0.021171
C48	C	-3.619849	0.336212	0.478829
H49	H	-4.017425	-0.752072	-0.203917
H50	H	-3.517425	-0.252072	0.296083
H51	H	-4.268919	-0.817362	-0.701213
H52	H	-3.768919	-0.317362	-0.201213
H53	H	-4.162574	-0.576518	-0.703356
H54	H	-3.662574	-0.076518	-0.203356
Br55	Br	-3.857507	-0.465446	-0.131950
Br56	Br	-3.357507	0.034554	0.368050
