data_functionalizedCrystal
_audit_creation_method	'MofGen! by Chris Wilmer'
_symmetry_space_group_name_H-M	'P1'
_symmetry_Int_Tables_number	1
_symmetry_cell_setting	triclinic
loop_
_symmetry_equiv_pos_as_xyz
  x,y,z
_cell_length_a	10.489741
_cell_length_b	17.699091
_cell_length_c	16.176319
_cell_angle_alpha	89.997684
_cell_angle_beta	90.003298
_cell_angle_gamma	96.087375
loop_
_atom_site_label
_atom_site_type_symbol
_atom_site_fract_x
_atom_site_fract_y
_atom_site_fract_z
O1	O	1.692078	-0.106778	0.068693
O2	O	2.025411	0.226555	0.402027
O3	O	2.358744	0.559888	0.735360
O4	O	1.320696	-0.116801	0.068706
O5	O	1.654029	0.216532	0.402039
O6	O	1.987363	0.549866	0.735372
O7	O	1.516874	-0.001669	0.068696
O8	O	1.850208	0.331664	0.402029
O9	O	2.183541	0.664997	0.735363
O10	O	1.495899	-0.221910	0.068703
O11	O	1.829233	0.111423	0.402036
O12	O	2.162566	0.444757	0.735370
O13	O	1.516851	-0.001669	-0.068797
O14	O	1.850185	0.331664	0.264536
O15	O	2.183518	0.664998	0.597870
O16	O	1.320673	-0.116801	-0.068787
O17	O	1.654006	0.216533	0.264546
O18	O	1.987340	0.549866	0.597879
O19	O	1.692055	-0.106778	-0.068800
O20	O	2.025388	0.226556	0.264533
O21	O	2.358721	0.559889	0.597867
Cu22	Cu	1.506362	-0.111789	-0.081348
Cu23	Cu	1.839695	0.221544	0.251985
Cu24	Cu	2.173028	0.554877	0.585319
Cu25	Cu	1.506389	-0.111790	0.081254
Cu26	Cu	1.839722	0.221544	0.414587
Cu27	Cu	2.173056	0.554877	0.747920
O28	O	1.495876	-0.221909	-0.068790
O29	O	1.829210	0.111424	0.264543
O30	O	2.162543	0.444757	0.597876
C31	C	1.273167	-0.116044	-0.000039
C32	C	1.606500	0.217289	0.333294
C33	C	1.939834	0.550623	0.666628
C34	C	1.131580	-0.113779	-0.000034
C35	C	1.464913	0.219554	0.333299
C36	C	1.798246	0.552888	0.666632
C37	C	1.516110	0.026533	-0.000049
C38	C	1.849443	0.359866	0.333284
C39	C	2.182776	0.693199	0.666617
C40	C	1.513850	0.110565	-0.000046
C41	C	1.847183	0.443898	0.333287
C42	C	2.180517	0.777232	0.666620
N43	N	1.506352	-0.111788	-0.195713
N44	N	1.839685	0.221545	0.137620
N45	N	2.173019	0.554878	0.470954
C46	C	1.064797	-0.040524	-0.000044
C47	C	1.398131	0.292809	0.333289
C48	C	1.731464	0.626143	0.666622
C49	C	0.972040	-0.075129	0.067746
C50	C	1.305374	0.258204	0.401080
C51	C	1.638707	0.591537	0.734413
C52	C	0.972051	-0.075146	-0.067811
C53	C	1.305385	0.258187	0.265522
C54	C	1.638718	0.591520	0.598855
C55	C	1.040687	-0.148414	0.067812
C56	C	1.374021	0.184919	0.401146
C57	C	1.707354	0.518252	0.734479
C58	C	1.040708	-0.148421	-0.067806
C59	C	1.374042	0.184912	0.265527
C60	C	1.707375	0.518245	0.598861
C61	C	0.947978	-0.183079	0.000001
C62	C	1.281311	0.150254	0.333334
C63	C	1.614644	0.483587	0.666668
C64	C	1.739584	-0.107535	-0.000053
C65	C	2.072917	0.225798	0.333280
C66	C	2.406250	0.559132	0.666613
C67	C	1.881171	-0.109800	-0.000053
C68	C	2.214505	0.223534	0.333281
C69	C	2.547838	0.556867	0.666614
C70	C	1.512804	0.150039	0.074902
C71	C	1.846137	0.483373	0.408235
C72	C	2.179471	0.816706	0.741568
C73	C	1.510673	0.228996	0.074902
C74	C	1.844006	0.562330	0.408235
C75	C	2.177339	0.895663	0.741568
C76	C	1.509597	0.268478	-0.000047
C77	C	1.842930	0.601812	0.333286
C78	C	2.176263	0.935145	0.666620
C79	C	1.510639	0.228998	-0.075001
C80	C	1.843972	0.562332	0.258333
C81	C	2.177306	0.895665	0.591666
C82	C	1.512761	0.150042	-0.075000
C83	C	1.846094	0.483375	0.258333
C84	C	2.179428	0.816709	0.591667
C85	C	1.502079	0.547419	-0.075005
C86	C	1.835412	0.880753	0.258328
C87	C	2.168745	1.214086	0.591662
C88	C	1.499960	0.626381	-0.075000
C89	C	1.833294	0.959715	0.258333
C90	C	2.166627	1.293048	0.591667
C91	C	1.499990	0.626373	0.074897
C92	C	1.833324	0.959707	0.408230
C93	C	2.166657	1.293040	0.741564
C94	C	1.502113	0.547417	0.074898
C95	C	1.835446	0.880751	0.408231
C96	C	2.168779	1.214084	0.741564
C97	C	1.503148	0.507944	-0.000056
C98	C	1.836481	0.841277	0.333278
C99	C	2.169815	1.174610	0.666611
C100	C	1.505457	0.422330	-0.000055
C101	C	1.838790	0.755663	0.333278
C102	C	2.172123	1.088996	0.666612
C103	C	1.507297	0.354092	-0.000048
C104	C	1.840630	0.687425	0.333285
C105	C	2.173964	1.020758	0.666618
C106	C	1.496642	0.749889	-0.000046
C107	C	1.829976	1.083222	0.333288
C108	C	2.163309	1.416555	0.666621
C109	C	1.498905	0.665856	-0.000051
C110	C	1.832238	0.999190	0.333282
C111	C	2.165572	1.332523	0.666616
C112	C	1.583561	-0.158142	-0.238975
C113	C	1.916895	0.175191	0.094358
C114	C	2.250228	0.508525	0.427692
C115	C	1.583575	-0.158139	-0.325522
C116	C	1.916908	0.175194	0.007811
C117	C	2.250242	0.508527	0.341145
C118	C	1.506372	-0.111786	-0.368806
C119	C	1.839705	0.221547	-0.035472
C120	C	2.173038	0.554880	0.297861
C121	C	1.429159	-0.065427	-0.325538
C122	C	1.762493	0.267906	0.007796
C123	C	2.095826	0.601239	0.341129
C124	C	1.429153	-0.065427	-0.238992
C125	C	1.762487	0.267907	0.094341
C126	C	2.095820	0.601240	0.427674
C127	C	1.429183	-0.065429	-0.674566
C128	C	1.762516	0.267905	-0.341233
C129	C	2.095849	0.601238	-0.007899
C130	C	1.429192	-0.065434	-0.761118
C131	C	1.762525	0.267899	-0.427784
C132	C	2.095859	0.601232	-0.094451
C133	C	1.583605	-0.158141	-0.761096
C134	C	1.916938	0.175192	-0.427763
C135	C	2.250271	0.508526	-0.094429
C136	C	1.583599	-0.158140	-0.674550
C137	C	1.916932	0.175193	-0.341217
C138	C	2.250265	0.508526	-0.007884
C139	C	1.506392	-0.111779	-0.631290
C140	C	1.839725	0.221555	-0.297957
C141	C	2.173059	0.554888	0.035377
C142	C	1.506380	-0.111781	-0.537446
C143	C	1.839713	0.221552	-0.204112
C144	C	2.173046	0.554885	0.129221
C145	C	1.506376	-0.111787	-0.462648
C146	C	1.839709	0.221546	-0.129315
C147	C	2.173043	0.554879	0.204018
N148	N	1.506409	-0.111785	0.195619
N149	N	1.839742	0.221549	0.528952
N150	N	2.173076	0.554882	0.862286
H151	H	1.115603	0.019696	0.000039
H152	H	1.448936	0.353029	0.333372
H153	H	1.782270	0.686363	0.666705
H154	H	1.499081	0.658525	-0.136036
H155	H	1.832414	0.991859	0.197297
H156	H	2.165747	1.325192	0.530631
F157	F	0.932301	-0.034617	-0.142723
F158	F	1.265635	0.298716	0.190610
F159	F	1.598968	0.632049	0.523943
H160	H	1.509755	0.261150	-0.136025
H161	H	1.843088	0.594484	0.197308
H162	H	2.176422	0.927817	0.530641
H163	H	0.941610	-0.044134	0.125058
H164	H	1.274943	0.289200	0.458391
H165	H	1.608277	0.622533	0.791724
F166	F	1.498884	0.668390	0.154670
F167	F	1.832218	1.001723	0.488003
F168	F	2.165551	1.335057	0.821337
H169	H	1.070951	-0.179386	0.125189
H170	H	1.404284	0.153947	0.458522
H171	H	1.737618	0.487281	0.791855
F172	F	1.513873	0.108031	-0.154770
F173	F	1.847206	0.441364	0.178563
F174	F	2.180539	0.774698	0.511896
H175	H	1.366317	-0.027678	-0.639354
H176	H	1.699650	0.305655	-0.306021
H177	H	2.032983	0.638989	0.027313
F178	F	1.665754	-0.207484	-0.628489
F179	F	1.999088	0.125850	-0.295156
F180	F	2.332421	0.459183	0.038177
H181	H	0.897437	-0.243363	0.000040
H182	H	1.230770	0.089970	0.333373
H183	H	1.564103	0.423303	0.666707
F184	F	1.503264	0.505402	0.154668
F185	F	1.836598	0.838736	0.488001
F186	F	2.169931	1.172069	0.821335
F187	F	1.503164	0.505418	-0.154777
F188	F	1.836498	0.838751	0.178556
F189	F	2.169831	1.172084	0.511889
F190	F	1.080529	-0.188902	-0.142720
F191	F	1.413862	0.144431	0.190614
F192	F	1.747195	0.477765	0.523947
H193	H	1.513687	0.117899	0.135934
H194	H	1.847020	0.451232	0.469267
H195	H	2.180354	0.784566	0.802600
F196	F	1.346987	-0.016085	-0.192950
F197	F	1.680320	0.317249	0.140383
F198	F	2.013654	0.650582	0.473716
H199	H	1.646422	-0.195893	-0.203740
H200	H	1.979755	0.137441	0.129594
H201	H	2.313088	0.470774	0.462927
H202	H	1.509826	0.261133	0.135932
H203	H	1.843159	0.594466	0.469265
H204	H	2.176493	0.927800	0.802599
F205	F	1.665750	-0.207476	-0.371561
F206	F	1.999084	0.125857	-0.038227
F207	F	2.332417	0.459191	0.295106
F208	F	1.346996	-0.016093	-0.371606
F209	F	1.680330	0.317240	-0.038272
F210	F	2.013663	0.650574	0.295061
H211	H	1.646474	-0.195889	-0.796329
H212	H	1.979807	0.137445	-0.462996
H213	H	2.313140	0.470778	-0.129662
F214	F	1.347018	-0.016096	-0.807182
F215	F	1.680352	0.317237	-0.473848
F216	F	2.013685	0.650570	-0.140515
