data_functionalizedCrystal
_audit_creation_method	'MofGen! by Chris Wilmer'
_symmetry_space_group_name_H-M	'P1'
_symmetry_Int_Tables_number	1
_symmetry_cell_setting	triclinic
loop_
_symmetry_equiv_pos_as_xyz
  x,y,z
_cell_length_a	16.120484
_cell_length_b	18.215407
_cell_length_c	18.215399
_cell_angle_alpha	90.019833
_cell_angle_beta	92.869789
_cell_angle_gamma	87.073985
loop_
_atom_site_label
_atom_site_type_symbol
_atom_site_fract_x
_atom_site_fract_y
_atom_site_fract_z
Zn1	Zn	-0.331906	-1.110213	-0.430960
Zn2	Zn	0.168094	-0.610213	0.069040
Zn3	Zn	-0.471328	-1.103879	-0.314129
Zn4	Zn	0.028672	-0.603879	0.185871
Zn5	Zn	-0.331934	-0.987144	-0.307908
Zn6	Zn	0.168066	-0.487144	0.192092
Zn7	Zn	-0.471282	-0.980871	-0.437152
Zn8	Zn	0.028718	-0.480871	0.062848
O9	O	-0.401612	-1.045527	-0.372537
O10	O	0.098388	-0.545527	0.127463
O11	O	-0.350409	-1.212356	-0.415474
O12	O	0.149591	-0.712356	0.084526
O13	O	-0.452868	-1.088368	-0.210321
O14	O	0.047132	-0.588368	0.289679
O15	O	-0.215264	-1.008745	-0.319037
O16	O	0.284736	-0.508745	0.180963
O17	O	-0.452841	-1.207703	-0.329639
O18	O	0.047159	-0.707703	0.170361
O19	O	-0.215244	-1.099163	-0.409442
O20	O	0.284756	-0.599163	0.090558
O21	O	-0.350456	-1.002604	-0.205751
O22	O	0.149544	-0.502604	0.294249
O23	O	-0.350411	-0.883328	-0.325041
O24	O	0.149589	-0.383328	0.174959
O25	O	-0.452762	-0.998054	-0.539313
O26	O	0.047238	-0.498054	-0.039313
O27	O	-0.452789	-0.878719	-0.419995
O28	O	0.047211	-0.378719	0.080005
O29	O	-0.350364	-1.093081	-0.534764
O30	O	0.149636	-0.593081	-0.034764
O31	O	-0.587988	-1.082286	-0.335643
O32	O	-0.087988	-0.582286	0.164357
O33	O	-0.587954	-0.991913	-0.426027
O34	O	-0.087954	-0.491913	0.073973
C35	C	-0.401598	-0.854321	-0.372516
C36	C	0.098402	-0.354321	0.127484
C37	C	-0.401612	-0.772522	-0.372525
C38	C	0.098388	-0.272522	0.127475
C39	C	-0.618221	-1.035751	-0.382198
C40	C	-0.118221	-0.535751	0.117802
C41	C	-0.710887	-1.031637	-0.386356
C42	C	-0.210887	-0.531637	0.113644
C43	C	-0.401555	-1.045574	-0.564488
C44	C	0.098445	-0.545574	-0.064488
C45	C	-0.401530	-1.045594	-0.646286
C46	C	0.098470	-0.545594	-0.146286
C47	C	-0.880549	-1.024129	-0.393961
C48	C	-0.380549	-0.524129	0.106039
C49	C	-0.921836	-1.067056	-0.351125
C50	C	-0.421836	-0.567056	0.148875
C51	C	-1.016241	-1.062879	-0.355357
C52	C	-0.516241	-0.562879	0.144643
C53	C	-0.786135	-1.028305	-0.389730
C54	C	-0.286135	-0.528305	0.110270
C55	C	-0.184158	-1.055360	-0.362855
C56	C	0.315842	-0.555360	0.137145
C57	C	-0.091492	-1.059551	-0.358729
C58	C	0.408508	-0.559551	0.141271
C59	C	-0.401627	-1.237479	-0.372560
C60	C	0.098373	-0.737479	0.127440
C61	C	-0.401634	-1.319277	-0.372569
C62	C	0.098366	-0.819277	0.127431
C63	C	-0.455004	-0.581943	-0.421912
C64	C	0.044996	-0.081943	0.078088
C65	C	-0.455007	-0.505085	-0.421921
C66	C	0.044993	-0.005085	0.078079
C67	C	-0.348236	-0.509861	-0.323179
C68	C	0.151764	-0.009861	0.176821
C69	C	-0.348229	-0.586719	-0.323174
C70	C	0.151771	-0.086719	0.176826
C71	C	-0.401619	-0.622758	-0.372540
C72	C	0.098381	-0.122758	0.127460
C73	C	-0.401627	-0.469041	-0.372554
C74	C	0.098373	0.030959	0.127446
C75	C	-0.401630	-0.385708	-0.372564
C76	C	0.098370	0.114292	0.127436
C77	C	-0.401615	-0.706097	-0.372531
C78	C	0.098385	-0.206097	0.127469
C79	C	-0.348162	-1.095094	-0.832110
C80	C	0.151838	-0.595094	-0.332110
C81	C	-0.348138	-1.095104	-0.908967
C82	C	0.151862	-0.595104	-0.408967
C83	C	-0.454770	-0.996153	-0.913694
C84	C	0.045230	-0.496153	-0.413694
C85	C	-0.454790	-0.996140	-0.836837
C86	C	0.045210	-0.496140	-0.336837
C87	C	-0.401487	-1.045615	-0.796047
C88	C	0.098513	-0.545615	-0.296047
C89	C	-0.401443	-1.045637	-0.949761
C90	C	0.098557	-0.545637	-0.449761
C91	C	-0.401417	-1.045648	-1.033094
C92	C	0.098583	-0.545648	-0.533094
C93	C	-0.401511	-1.045603	-0.712709
C94	C	0.098489	-0.545603	-0.212709
C95	C	-0.401610	-1.045524	-0.181331
C96	C	0.098390	-0.545524	0.318669
C97	C	-0.401399	-1.045657	-0.099523
C98	C	0.098601	-0.545657	0.400477
H99	H	-0.916101	-0.984243	-0.433809
H100	H	-0.416101	-0.484243	0.066191
C101	C	-0.560533	-0.569500	-0.519522
C102	C	-0.060533	-0.069500	-0.019522
C103	C	-0.513679	-0.621559	-0.476182
C104	C	-0.013679	-0.121559	0.023818
H105	H	-0.596752	-0.593957	-0.553031
H106	H	-0.096752	-0.093957	-0.053031
H107	H	-0.592382	-0.538076	-0.488837
H108	H	-0.092382	-0.038076	0.011163
H109	H	-0.524240	-0.541168	-0.546102
H110	H	-0.024240	-0.041168	-0.046102
H111	H	-0.549973	-0.649886	-0.449598
H112	H	-0.049973	-0.149886	0.050402
H113	H	-0.481828	-0.652995	-0.506871
H114	H	0.018172	-0.152995	-0.006871
H115	H	-0.498478	-0.471857	-0.462126
H116	H	0.001522	0.028143	0.037874
C117	C	-0.336500	-0.673648	-0.223671
C118	C	0.163500	-0.173648	0.276329
C119	C	-0.289545	-0.631590	-0.268899
C120	C	0.210455	-0.131590	0.231101
H121	H	-0.300269	-0.701353	-0.190171
H122	H	0.199731	-0.201353	0.309829
H123	H	-0.372776	-0.642018	-0.197089
H124	H	0.127224	-0.142018	0.302911
H125	H	-0.368288	-0.706106	-0.253082
H126	H	0.131712	-0.206106	0.246918
H127	H	-0.257761	-0.599128	-0.239489
H128	H	0.242239	-0.099128	0.260511
H129	H	-0.253254	-0.663224	-0.295484
H130	H	0.246746	-0.163224	0.204516
C131	C	-0.300840	-1.139011	-0.712195
C132	C	0.199160	-0.639011	-0.212195
C133	C	-0.289564	-1.149467	-0.787271
C134	C	0.210436	-0.649467	-0.287271
H135	H	-0.264664	-1.172582	-0.684517
H136	H	0.235336	-0.672582	-0.184517
H137	H	-0.288644	-1.090118	-0.699053
H138	H	0.211356	-0.590118	-0.199053
H139	H	-0.356861	-1.147255	-0.702100
H140	H	0.143139	-0.647255	-0.202100
H141	H	-0.233545	-1.141219	-0.797368
H142	H	0.266455	-0.641219	-0.297368
H143	H	-0.301755	-1.198372	-0.800419
H144	H	0.198245	-0.698372	-0.300419
C145	C	-0.300746	-1.139050	-1.024682
C146	C	0.199254	-0.639050	-0.524682
C147	C	-0.289517	-1.149489	-0.948608
C148	C	0.210483	-0.649489	-0.448608
H149	H	-0.264548	-1.172623	-1.049152
H150	H	0.235452	-0.672623	-0.549152
H151	H	-0.356750	-1.147296	-1.039772
H152	H	0.143250	-0.647296	-0.539772
H153	H	-0.288541	-1.090153	-1.036713
H154	H	0.211459	-0.590153	-0.536713
H155	H	-0.301728	-1.198385	-0.936576
H156	H	0.198272	-0.698385	-0.436576
H157	H	-0.233500	-1.141248	-0.933512
H158	H	0.266500	-0.641248	-0.433512
H159	H	-0.498213	-0.955843	-0.807474
H160	H	0.001787	-0.455843	-0.307474
C161	C	-0.502092	-0.952239	-1.033609
C162	C	-0.002092	-0.452239	-0.533609
C163	C	-0.513365	-0.941777	-0.958533
C164	C	-0.013365	-0.441777	-0.458533
H165	H	-0.538273	-0.918672	-1.061288
H166	H	-0.038273	-0.418672	-0.561288
H167	H	-0.446080	-0.944000	-1.043707
H168	H	0.053920	-0.444000	-0.543707
H169	H	-0.514294	-1.001139	-1.046748
H170	H	-0.014294	-0.501139	-0.546748
H171	H	-0.501158	-0.892879	-0.945392
H172	H	-0.001158	-0.392879	-0.445392
H173	H	-0.569390	-0.950011	-0.948430
H174	H	-0.069390	-0.450011	-0.448430
H175	H	-0.886281	-1.106944	-0.311274
H176	H	-0.386281	-0.606944	0.188726
C177	C	-0.300836	-0.394164	-0.279343
C178	C	0.199164	0.105836	0.220657
C179	C	-0.289556	-0.470244	-0.268916
C180	C	0.210444	0.029756	0.231084
H181	H	-0.264611	-0.369709	-0.245839
H182	H	0.235389	0.130291	0.254161
H183	H	-0.288706	-0.382140	-0.328262
H184	H	0.211294	0.117860	0.171738
H185	H	-0.356839	-0.379046	-0.270989
H186	H	0.143161	0.120954	0.229011
H187	H	-0.233553	-0.485364	-0.277276
H188	H	0.266447	0.014636	0.222724
H189	H	-0.301680	-0.482273	-0.219986
H190	H	0.198320	0.017727	0.280014
