data_functionalizedCrystal
_audit_creation_method	'MofGen! by Chris Wilmer'
_symmetry_space_group_name_H-M	'P1'
_symmetry_Int_Tables_number	1
_symmetry_cell_setting	triclinic
loop_
_symmetry_equiv_pos_as_xyz
  x,y,z
_cell_length_a	10.654546
_cell_length_b	9.130313
_cell_length_c	10.654550
_cell_angle_alpha	89.993688
_cell_angle_beta	84.484207
_cell_angle_gamma	89.994515
loop_
_atom_site_label
_atom_site_type_symbol
_atom_site_fract_x
_atom_site_fract_y
_atom_site_fract_z
O1	O	1.667844	-0.121831	0.176381
O2	O	2.167844	0.378169	0.676381
O3	O	1.302365	-0.121827	0.193192
O4	O	1.802365	0.378173	0.693192
O5	O	1.493507	-0.121820	0.002047
O6	O	1.993507	0.378180	0.502047
O7	O	1.476701	-0.121838	0.367526
O8	O	1.976701	0.378162	0.867526
O9	O	1.493491	0.121779	0.002035
O10	O	1.993491	0.621779	0.502035
O11	O	1.302348	0.121772	0.193179
O12	O	1.802348	0.621772	0.693179
O13	O	1.667827	0.121768	0.176369
O14	O	2.167827	0.621768	0.676369
Cu15	Cu	1.485086	0.144012	0.184773
Cu16	Cu	1.985086	0.644012	0.684773
Cu17	Cu	1.485106	-0.144072	0.184788
Cu18	Cu	1.985106	0.355928	0.684788
O19	O	1.476685	0.121761	0.367513
O20	O	1.976685	0.621761	0.867513
C21	C	1.255558	-0.000027	0.191952
C22	C	1.755558	0.499973	0.691952
C23	C	1.116115	-0.000025	0.188262
C24	C	1.616115	0.499975	0.688262
C25	C	1.492265	-0.000021	-0.044757
C26	C	1.992265	0.499979	0.455243
C27	C	1.488573	-0.000023	-0.184200
C28	C	1.988573	0.499977	0.315800
C29	C	1.050629	-0.132818	0.186522
C30	C	1.550629	0.367182	0.686522
C31	C	0.919608	-0.132829	0.183045
C32	C	1.419608	0.367171	0.683045
C33	C	0.919571	0.132756	0.183042
C34	C	1.419571	0.632756	0.683042
C35	C	1.050589	0.132766	0.186528
C36	C	1.550589	0.632766	0.686528
C37	C	1.050650	-0.286151	0.186519
C38	C	1.550650	0.213849	0.686519
C39	C	0.919629	-0.286163	0.183042
C40	C	1.419629	0.213837	0.683042
C41	C	1.714633	-0.000036	0.177608
C42	C	2.214633	0.499964	0.677608
C43	C	1.854077	-0.000047	0.181298
C44	C	2.354077	0.499953	0.681298
N45	N	1.485082	0.346635	0.184762
N46	N	1.985082	0.846635	0.684762
N47	N	1.485120	-0.346694	0.184789
N48	N	1.985120	0.153306	0.684789
C49	C	1.408283	0.576686	0.107903
C50	C	1.908283	1.076686	0.607903
C51	C	1.408267	0.423349	0.107885
C52	C	1.908267	0.923349	0.607885
C53	C	1.561927	0.423265	0.261651
C54	C	2.061927	0.923265	0.761651
C55	C	1.561949	0.576599	0.261661
C56	C	2.061949	1.076599	0.761661
C57	C	1.601115	-0.000025	-0.263687
C58	C	2.101115	0.499975	0.236313
C59	C	1.597638	-0.000043	-0.394708
C60	C	2.097638	0.499957	0.105292
C61	C	1.369068	-0.000051	-0.366742
C62	C	1.869068	0.499949	0.133258
C63	C	1.372546	-0.000044	-0.235724
C64	C	1.872546	0.499956	0.264276
C65	C	1.477927	-0.000041	0.414317
C66	C	1.977927	0.499959	0.914317
C67	C	1.481619	-0.000049	0.553761
C68	C	1.981619	0.499951	1.053761
H69	H	1.103901	0.240898	0.187958
H70	H	1.603901	0.740898	0.687958
H71	H	1.345725	0.639136	0.045308
H72	H	1.845725	1.139136	0.545308
Br73	Br	1.666187	0.319155	0.365975
Br74	Br	2.166187	0.819155	0.865975
Br75	Br	1.758578	0.000003	-0.193766
Br76	Br	2.258578	0.500003	0.306234
Br77	Br	1.303980	0.319370	0.003540
Br78	Br	1.803980	0.819370	0.503540
Br79	Br	0.830635	0.312963	0.180694
Br80	Br	1.330635	0.812963	0.680694
Br81	Br	1.092037	-0.384287	0.334318
Br82	Br	1.592037	0.115713	0.834318
Br83	Br	1.211611	-0.000083	-0.436675
Br84	Br	1.711611	0.499917	0.063325
Br85	Br	1.750381	-0.000054	-0.502580
Br86	Br	2.250381	0.499946	-0.002580
H87	H	0.894818	-0.345030	0.094362
H88	H	1.394818	0.154970	0.594362
H89	H	1.102375	-0.333714	0.097080
H90	H	1.602375	0.166286	0.597080
Br91	Br	1.219800	-0.000061	-0.127839
Br92	Br	1.719800	0.499939	0.372161
H93	H	1.624525	0.638985	0.324271
H94	H	2.124525	1.138985	0.824271
H95	H	0.867920	-0.333760	0.272484
H96	H	1.367920	0.166240	0.772484
