data_functionalizedCrystal
_audit_creation_method	'MofGen! by Chris Wilmer'
_symmetry_space_group_name_H-M	'P1'
_symmetry_Int_Tables_number	1
_symmetry_cell_setting	triclinic
loop_
_symmetry_equiv_pos_as_xyz
  x,y,z
_cell_length_a	16.992694
_cell_length_b	11.792241
_cell_length_c	16.053802
_cell_angle_alpha	92.583059
_cell_angle_beta	87.249047
_cell_angle_gamma	87.430819
loop_
_atom_site_label
_atom_site_type_symbol
_atom_site_fract_x
_atom_site_fract_y
_atom_site_fract_z
O1	O	1.044699	0.236280	-0.069325
O2	O	0.816403	0.233637	-0.069350
O3	O	0.936091	0.070242	-0.069331
O4	O	0.925011	0.399675	-0.069344
O5	O	0.929503	0.079196	0.069527
O6	O	0.809815	0.242591	0.069508
O7	O	1.038111	0.245234	0.069533
Zn8	Zn	0.922917	0.245334	0.091567
Zn9	Zn	0.931597	0.233537	-0.091384
O10	O	0.918423	0.408630	0.069514
C11	C	0.783882	0.234716	0.000076
C12	C	0.696796	0.224578	0.000067
C13	C	0.646971	0.322395	0.000064
C14	C	0.565143	0.312864	0.000076
C15	C	0.533142	0.205513	0.000085
C16	C	0.582973	0.107688	0.000091
C17	C	0.664799	0.117221	0.000085
C18	C	0.289375	0.166002	0.000109
C19	C	0.207543	0.156476	0.000112
C20	C	0.189719	0.361652	0.000099
C21	C	0.271548	0.371176	0.000088
C22	C	0.321371	0.273351	0.000098
N23	N	0.449501	0.195767	0.000094
N24	N	0.405010	0.283098	0.000095
C25	C	0.932101	0.032371	0.000098
C26	C	0.930018	-0.093813	0.000097
C27	C	0.926188	-0.324840	0.000082
C28	C	0.928316	-0.196280	0.000090
C29	C	1.070632	0.244155	0.000105
C30	C	1.157719	0.254293	0.000109
C31	C	0.922413	0.446500	0.000084
C32	C	0.924497	0.572684	0.000079
N33	N	0.916999	0.253386	0.216427
N34	N	0.937521	0.225477	-0.216243
C35	C	0.967945	0.183889	0.260129
C36	C	0.963812	0.189532	0.347535
C37	C	0.908737	0.264679	0.391237
C38	C	0.857785	0.334179	0.347529
C39	C	0.861915	0.328529	0.260125
C40	C	0.890699	0.289327	0.652644
C41	C	0.886575	0.294974	0.740055
C42	C	0.992602	0.150325	0.740054
C43	C	0.996729	0.144687	0.652648
C44	C	0.945775	0.214182	0.608948
N45	N	0.904513	0.270452	0.480580
N46	N	0.949996	0.208403	0.519606
H47	H	0.297597	0.458591	0.000071
N48	N	0.511370	0.418333	0.000085
H49	H	0.474601	0.422228	0.051571
H50	H	0.544081	0.487758	0.000048
N51	N	0.173015	0.040691	0.000125
H52	H	0.193585	-0.005829	-0.051345
H53	H	0.188717	0.000916	0.051639
H54	H	1.012796	0.122701	0.224552
N55	N	0.135983	0.467158	0.000090
H56	H	0.079290	0.444834	0.000095
H57	H	0.143960	0.516941	0.051563
H58	H	1.005296	0.132942	0.383116
H59	H	1.034085	0.093744	0.775643
H60	H	0.673020	0.409812	0.000056
N61	N	0.343107	0.060496	0.000125
H62	H	0.310415	-0.008953	0.000130
H63	H	0.379885	0.056653	-0.051350
H64	H	0.841724	0.356172	0.775633
H65	H	0.849212	0.345915	0.617070
N66	N	0.548461	-0.008099	0.000114
H67	H	0.489064	0.000703	0.000117
H68	H	0.569091	-0.054558	-0.051358
N69	N	0.718542	0.011720	0.000094
H70	H	0.685854	-0.057734	0.000101
H71	H	0.755318	0.007881	-0.051382
H72	H	0.812938	0.395361	0.383117
N73	N	0.806970	0.403495	0.212988
H74	H	0.817940	0.388511	0.150986
H75	H	0.750550	0.386270	0.228277
H76	H	1.041576	0.083496	0.617067
