data_functionalizedCrystal
_audit_creation_method	'MofGen! by Chris Wilmer'
_symmetry_space_group_name_H-M	'P1'
_symmetry_Int_Tables_number	1
_symmetry_cell_setting	triclinic
loop_
_symmetry_equiv_pos_as_xyz
  x,y,z
_cell_length_a	17.641079
_cell_length_b	13.897449
_cell_length_c	17.640618
_cell_angle_alpha	101.230265
_cell_angle_beta	87.818528
_cell_angle_gamma	101.177250
loop_
_atom_site_label
_atom_site_type_symbol
_atom_site_fract_x
_atom_site_fract_y
_atom_site_fract_z
Zn1	Zn	-0.215431	-1.648891	-0.490598
Zn2	Zn	0.284569	-1.148891	0.009402
Zn3	Zn	-0.368056	-1.661413	-0.389301
Zn4	Zn	0.131944	-1.161413	0.110699
Zn5	Zn	-0.241124	-1.462577	-0.363620
Zn6	Zn	0.258876	-0.962577	0.136380
Zn7	Zn	-0.342349	-1.525181	-0.516243
Zn8	Zn	0.157651	-1.025181	-0.016243
O9	O	-0.291740	-1.574516	-0.439941
O10	O	0.208260	-1.074516	0.060059
O11	O	-0.235683	-1.785539	-0.477176
O12	O	0.264317	-1.285539	0.022824
O13	O	-0.372728	-1.614077	-0.279628
O14	O	0.127272	-1.114077	0.220372
O15	O	-0.131478	-1.455852	-0.358983
O16	O	0.368522	-0.955852	0.141017
O17	O	-0.347815	-1.794739	-0.402754
O18	O	0.152185	-1.294739	0.097246
O19	O	-0.112602	-1.592736	-0.452273
O20	O	0.387398	-1.092736	0.047727
O21	O	-0.279472	-1.467993	-0.260760
O22	O	0.220528	-0.967993	0.239240
O23	O	-0.254546	-1.335895	-0.383850
O24	O	0.245454	-0.835895	0.116150
O25	O	-0.304003	-1.562551	-0.619108
O26	O	0.195997	-1.062551	-0.119108
O27	O	-0.328916	-1.381890	-0.495982
O28	O	0.171084	-0.881890	0.004018
O29	O	-0.210757	-1.653441	-0.600266
O30	O	0.289243	-1.153441	-0.100266
O31	O	-0.470883	-1.674782	-0.427621
O32	O	0.029117	-1.174782	0.072379
O33	O	-0.451997	-1.574693	-0.520885
O34	O	0.048003	-1.074693	-0.020885
C35	C	-0.488983	-1.632919	-0.479839
C36	C	0.011017	-1.132919	0.020161
C37	C	-0.573359	-1.657997	-0.496933
C38	C	-0.073359	-1.157997	0.003067
C39	C	-0.291730	-1.323892	-0.439913
C40	C	0.208270	-0.823892	0.060087
C41	C	-0.291740	-1.216683	-0.439923
C42	C	0.208260	-0.716683	0.060077
C43	C	-0.682385	-1.764544	-0.569621
C44	C	-0.182385	-1.264544	-0.069621
C45	C	-0.603102	-1.740971	-0.553552
C46	C	-0.103102	-1.240971	-0.053552
C47	C	-0.622892	-1.598560	-0.456363
C48	C	-0.122892	-1.098560	0.043637
C49	C	-0.702178	-1.622119	-0.472425
C50	C	-0.202178	-1.122119	0.027575
C51	C	-0.731918	-1.705112	-0.529055
C52	C	-0.231918	-1.205112	-0.029055
C53	C	-0.751711	-1.562687	-0.431859
C54	C	-0.251711	-1.062687	0.068141
C55	C	-0.830990	-1.586247	-0.447918
C56	C	-0.330990	-1.086247	0.052082
C57	C	-0.860737	-1.669238	-0.504543
C58	C	-0.360737	-1.169238	-0.004543
C59	C	-0.811197	-1.728672	-0.545114
C60	C	-0.311197	-1.228672	-0.045114
C61	C	-0.721970	-1.479698	-0.375227
C62	C	-0.221970	-0.979698	0.124773
C63	C	-0.771503	-1.420266	-0.334661
C64	C	-0.271503	-0.920266	0.165339
C65	C	-0.850783	-1.443822	-0.350723
C66	C	-0.350783	-0.943822	0.149277
C67	C	-0.880529	-1.526813	-0.407348
C68	C	-0.380529	-1.026813	0.092652
C69	C	-0.900322	-1.384388	-0.310153
C70	C	-0.400322	-0.884388	0.189847
C71	C	-0.979601	-1.407948	-0.326212
C72	C	-0.479601	-0.907948	0.173788
C73	C	-0.959809	-1.550373	-0.423407
C74	C	-0.459809	-1.050373	0.076593
C75	C	-0.291736	-1.020390	-0.439937
C76	C	0.208264	-0.520390	0.060063
C77	C	-0.291736	-1.129620	-0.439926
C78	C	0.208264	-0.629620	0.060074
C79	C	-0.093724	-1.515914	-0.399903
C80	C	0.406276	-1.015914	0.100097
C81	C	-0.009341	-1.490941	-0.382841
C82	C	0.490659	-0.990941	0.117159
C83	C	-0.251646	-1.613583	-0.638011
C84	C	0.248354	-1.113583	-0.138011
C85	C	-0.234561	-1.630231	-0.722417
C86	C	0.265439	-1.130231	-0.222417
C87	C	-0.291747	-0.826115	-0.439961
C88	C	0.208253	-0.326115	0.060039
C89	C	-0.291741	-0.933324	-0.439948
C90	C	0.208259	-0.433324	0.060052
C91	C	-0.161935	-1.701011	-0.831575
C92	C	0.338065	-1.201011	-0.331575
C93	C	-0.177995	-1.685363	-0.752265
C94	C	0.322005	-1.185363	-0.252265
C95	C	-0.275086	-1.590721	-0.771875
C96	C	0.224914	-1.090721	-0.271875
C97	C	-0.259031	-1.606357	-0.851189
C98	C	0.240969	-1.106357	-0.351189
C99	C	-0.202455	-1.661504	-0.881032
C100	C	0.297545	-1.161504	-0.381032
C101	C	-0.299551	-1.566850	-0.900646
C102	C	0.200449	-1.066850	-0.400646
C103	C	-0.283500	-1.582490	-0.979953
C104	C	0.216500	-1.082490	-0.479953
C105	C	-0.226929	-1.637637	-1.009803
C106	C	0.273071	-1.137637	-0.509803
C107	C	-0.186404	-1.677144	-0.960340
C108	C	0.313596	-1.177144	-0.460340
C109	C	-0.356130	-1.511709	-0.870801
C110	C	0.143870	-1.011709	-0.370801
C111	C	-0.396651	-1.472202	-0.920258
C112	C	0.103349	-0.972202	-0.420258
C113	C	-0.380596	-1.487835	-0.999566
C114	C	0.119404	-0.987835	-0.499566
C115	C	-0.324025	-1.542983	-1.029416
C116	C	0.175975	-1.042983	-0.529416
C117	C	-0.421121	-1.448328	-1.049030
C118	C	0.078879	-0.948328	-0.549030
C119	C	-0.405070	-1.463968	-1.128337
C120	C	0.094930	-0.963968	-0.628337
C121	C	-0.307974	-1.558622	-1.108724
C122	C	0.192026	-1.058622	-0.608724
C123	C	-0.331623	-1.535640	-0.242629
C124	C	0.168377	-1.035640	0.257371
C125	C	-0.348494	-1.519115	-0.158181
C126	C	0.151506	-1.019115	0.341819
H127	H	-0.984021	-1.617938	-0.469535
H128	H	-0.484021	-1.117938	0.030465
H129	H	-0.598669	-1.530989	-0.410253
H130	H	-0.098669	-1.030989	0.089747
H131	H	-0.321152	-1.545823	-0.747565
H132	H	0.178848	-1.045823	-0.247565
H133	H	-0.562775	-1.789375	-0.586590
H134	H	-0.062775	-1.289375	-0.086590
H135	H	-0.369201	-1.498982	-0.806224
H136	H	0.130799	-0.998982	-0.306224
H137	H	-0.657416	-1.460522	-0.362150
H138	H	-0.157416	-0.960522	0.137850
C139	C	-0.209269	-1.654846	-1.097039
C140	C	0.290731	-1.154846	-0.597039
H141	H	-0.169777	-1.693354	-1.107729
H142	H	0.330223	-1.193354	-0.607729
H143	H	-0.192506	-1.592253	-1.112321
H144	H	0.307494	-1.092253	-0.612321
H145	H	-0.254633	-1.689570	-1.124886
H146	H	0.245367	-1.189570	-0.624886
C147	C	-0.715105	-1.855836	-0.631912
C148	C	-0.215105	-1.355836	-0.131912
H149	H	-0.674252	-1.887864	-0.653772
H150	H	-0.174252	-1.387864	-0.153772
H151	H	-0.739356	-1.834622	-0.671237
H152	H	-0.239356	-1.334622	-0.171237
H153	H	-0.751887	-1.901355	-0.609144
H154	H	-0.251887	-1.401355	-0.109144
H155	H	-0.747279	-1.352695	-0.288551
H156	H	-0.247279	-0.852695	0.211449
C157	C	-0.458902	-1.411578	-0.887433
C158	C	0.041098	-0.911578	-0.387433
H159	H	-0.480745	-1.390304	-0.928251
H160	H	0.019255	-0.890304	-0.428251
H161	H	-0.436144	-1.354850	-0.850608
H162	H	0.063856	-0.854850	-0.350608
H163	H	-0.498239	-1.452199	-0.863202
H164	H	0.001761	-0.952199	-0.363202
C165	C	-0.449639	-1.420509	-1.182742
C166	C	0.050361	-0.920509	-0.682742
H167	H	-0.485626	-1.385418	-1.153609
H168	H	0.014374	-0.885418	-0.653609
H169	H	-0.476457	-1.473298	-1.220372
H170	H	0.023543	-0.973298	-0.720372
H171	H	-0.414327	-1.375984	-1.207800
H172	H	0.085673	-0.875984	-0.707800
H173	H	-0.115857	-1.745903	-0.855874
H174	H	0.384143	-1.245903	-0.355874
H175	H	-0.876098	-1.316820	-0.264040
H176	H	-0.376098	-0.816820	0.235960
H177	H	-0.467190	-1.403436	-1.024719
H178	H	0.032810	-0.903436	-0.524719
H179	H	-0.261896	-1.603515	-1.133022
H180	H	0.238104	-1.103515	-0.633022
C181	C	-0.947941	-1.695159	-0.522214
C182	C	-0.447941	-1.195159	-0.022214
H183	H	-0.958558	-1.753102	-0.561746
H184	H	-0.458558	-1.253102	-0.061746
H185	H	-0.963263	-1.640823	-0.538942
H186	H	-0.463263	-1.140823	-0.038942
H187	H	-0.975801	-1.707564	-0.476854
H188	H	-0.475801	-1.207564	0.023146
H189	H	-0.835410	-1.796238	-0.591242
H190	H	-0.335410	-1.296238	-0.091242
C191	C	-1.034089	-1.342571	-0.281596
C192	C	-0.534089	-0.842571	0.218404
H193	H	-1.005022	-1.289762	-0.245576
H194	H	-0.505022	-0.789762	0.254424
H195	H	-1.071698	-1.382165	-0.254797
H196	H	-0.571698	-0.882165	0.245203
H197	H	-1.059154	-1.315434	-0.316892
H198	H	-0.559154	-0.815434	0.183108
C199	C	-0.124170	-1.737802	-0.993173
C200	C	0.375830	-1.237802	-0.493173
H201	H	-0.102336	-1.759097	-0.952361
H202	H	0.397664	-1.259097	-0.452361
H203	H	-0.084832	-1.697216	-1.017422
H204	H	0.415168	-1.197216	-0.517422
H205	H	-0.146960	-1.794532	-1.029986
H206	H	0.353040	-1.294532	-0.529986
C207	C	-0.133410	-1.728811	-0.697862
C208	C	0.366590	-1.228811	-0.197862
H209	H	-0.097413	-1.763884	-0.726996
H210	H	0.402587	-1.263884	-0.226996
H211	H	-0.168710	-1.773332	-0.672795
H212	H	0.331290	-1.273332	-0.172795
H213	H	-0.106588	-1.676009	-0.660236
H214	H	0.393412	-1.176009	-0.160236
