data_functionalizedCrystal
_audit_creation_method	'MofGen! by Chris Wilmer'
_symmetry_space_group_name_H-M	'P1'
_symmetry_Int_Tables_number	1
_symmetry_cell_setting	triclinic
loop_
_symmetry_equiv_pos_as_xyz
  x,y,z
_cell_length_a	9.065218
_cell_length_b	11.792254
_cell_length_c	8.140239
_cell_angle_alpha	89.996301
_cell_angle_beta	89.997198
_cell_angle_gamma	84.607241
loop_
_atom_site_label
_atom_site_type_symbol
_atom_site_fract_x
_atom_site_fract_y
_atom_site_fract_z
O1	O	1.958848	0.166429	-0.136619
O2	O	2.292181	0.499762	0.196715
O3	O	2.625515	0.833096	0.530048
O4	O	1.529436	0.180080	-0.136621
O5	O	1.862769	0.513414	0.196712
O6	O	2.196103	0.846747	0.530046
O7	O	1.754553	0.008143	-0.136608
O8	O	2.087886	0.341476	0.196725
O9	O	2.421220	0.674809	0.530058
O10	O	1.733731	0.338366	-0.136632
O11	O	2.067064	0.671700	0.196702
O12	O	2.400398	1.005033	0.530035
O13	O	1.754540	0.008141	0.136619
O14	O	2.087874	0.341474	0.469952
O15	O	2.421207	0.674807	0.803286
O16	O	1.529424	0.180078	0.136606
O17	O	1.862757	0.513411	0.469939
O18	O	2.196090	0.846745	0.803273
O19	O	1.958836	0.166427	0.136608
O20	O	2.292169	0.499760	0.469942
O21	O	2.625502	0.833093	0.803275
Zn22	Zn	1.744128	0.173252	0.179988
Zn23	Zn	2.077461	0.506585	0.513321
Zn24	Zn	2.410794	0.839919	0.846655
Zn25	Zn	1.744144	0.173255	-0.180001
Zn26	Zn	2.077477	0.506588	0.153333
Zn27	Zn	2.410811	0.839922	0.486666
O28	O	1.733719	0.338364	0.136595
O29	O	2.067052	0.671698	0.469929
O30	O	2.400385	1.005031	0.803262
C31	C	1.474455	0.178767	-0.000008
C32	C	1.807789	0.512101	0.333326
C33	C	2.141122	0.845434	0.666659
C34	C	1.310649	0.174844	-0.000008
C35	C	1.643982	0.508178	0.333325
C36	C	1.977316	0.841511	0.666658
C37	C	1.753235	-0.034156	0.000005
C38	C	2.086568	0.299177	0.333338
C39	C	2.419902	0.632510	0.666671
C40	C	1.749309	-0.160191	0.000003
C41	C	2.082642	0.173142	0.333337
C42	C	2.415976	0.506476	0.666670
C43	C	1.746119	-0.262545	-0.000003
C44	C	2.079453	0.070788	0.333331
C45	C	2.412786	0.404121	0.666664
C46	C	1.742131	-0.390954	-0.000018
C47	C	2.075464	-0.057621	0.333316
C48	C	2.408797	0.275713	0.666649
C49	C	2.013816	0.167740	-0.000009
C50	C	2.347150	0.501073	0.333325
C51	C	2.680483	0.834406	0.666658
C52	C	2.177623	0.171663	-0.000019
C53	C	2.510956	0.504996	0.333315
C54	C	2.844289	0.838329	0.666648
C55	C	1.735037	0.380663	-0.000021
C56	C	2.068370	0.713997	0.333312
C57	C	2.401703	1.047330	0.666645
C58	C	1.738962	0.506698	-0.000030
C59	C	2.072296	0.840031	0.333303
C60	C	2.405629	1.173365	0.666636
N61	N	1.744127	0.173250	0.425670
N62	N	2.077460	0.506583	0.759004
N63	N	2.410794	0.839916	1.092337
N64	N	1.744156	0.173248	-0.425683
N65	N	2.077489	0.506582	-0.092350
N66	N	2.410823	0.839915	0.240983
