data_functionalizedCrystal
_audit_creation_method	'MofGen! by Chris Wilmer'
_symmetry_space_group_name_H-M	'P1'
_symmetry_Int_Tables_number	1
_symmetry_cell_setting	triclinic
loop_
_symmetry_equiv_pos_as_xyz
  x,y,z
_cell_length_a	15.538191
_cell_length_b	14.044220
_cell_length_c	14.185569
_cell_angle_alpha	75.620253
_cell_angle_beta	97.875798
_cell_angle_gamma	70.230486
loop_
_atom_site_label
_atom_site_type_symbol
_atom_site_fract_x
_atom_site_fract_y
_atom_site_fract_z
O1	O	1.205756	-0.271175	-0.083422
O2	O	0.940435	-0.164802	-0.083425
O3	O	1.069115	-0.354606	-0.083414
O4	O	1.077076	-0.081371	-0.083433
O5	O	1.107129	-0.410672	0.083424
O6	O	0.978449	-0.220867	0.083413
O7	O	1.243770	-0.327240	0.083415
Cu8	Cu	1.114580	-0.279173	0.098648
Cu9	Cu	1.069625	-0.212869	-0.098657
O10	O	1.115089	-0.137436	0.083404
C11	C	0.925281	-0.181705	-0.000006
C12	C	0.823493	-0.148554	-0.000006
C13	C	1.084636	-0.416754	0.000006
C14	C	1.074236	-0.518402	0.000007
C15	C	0.508030	-0.477901	0.000002
C16	C	0.412383	-0.446726	-0.000001
C17	C	0.404671	-0.271379	-0.000014
C18	C	0.500321	-0.302540	-0.000006
C19	C	0.551993	-0.405802	0.000001
C20	C	0.544283	-0.230442	-0.000007
C21	C	0.639923	-0.261599	-0.000004
C22	C	0.691600	-0.364855	-0.000001
C23	C	0.647632	-0.436960	0.000003
C24	C	0.492608	-0.127178	-0.000020
C25	C	0.536570	-0.055080	-0.000021
C26	C	0.632213	-0.086239	-0.000012
C27	C	0.683891	-0.189495	-0.000008
C28	C	0.676181	-0.014135	-0.000016
C29	C	0.771821	-0.045293	-0.000013
C30	C	0.779531	-0.220653	-0.000005
C31	C	1.055220	-0.704517	-0.000008
C32	C	1.128978	-0.787527	-0.000010
C33	C	1.118398	-0.891087	-0.000018
C34	C	1.065800	-0.600946	0.000000
C35	C	1.258923	-0.310336	-0.000005
C36	C	1.360709	-0.343485	-0.000012
C37	C	1.099568	-0.075288	-0.000017
C38	C	1.109966	0.026363	-0.000025
N39	N	1.146206	-0.325810	0.237422
N40	N	1.038005	-0.166242	-0.237431
C41	C	0.945085	-0.029261	0.605054
C42	C	0.969048	-0.064584	0.710078
C43	C	1.083023	-0.232618	0.710049
C44	C	1.059066	-0.197311	0.605023
C45	C	0.990097	-0.095631	0.552534
C46	C	1.104079	-0.263681	0.552503
C47	C	1.080128	-0.228374	0.447486
C48	C	1.011163	-0.126697	0.394990
C49	C	0.966146	-0.060324	0.447518
C50	C	1.173053	-0.365358	0.604994
C51	C	1.218065	-0.431728	0.552473
C52	C	1.194109	-0.396424	0.447455
C53	C	1.125145	-0.294747	0.394959
C54	C	1.239127	-0.462797	0.394927
C55	C	1.215175	-0.427490	0.289911
C56	C	1.101193	-0.259440	0.289942
H57	H	0.821607	-0.304741	0.000006
C58	C	0.479722	0.058503	-0.000023
N59	N	0.436905	0.144054	-0.000020
H60	H	0.984133	-0.711228	-0.000011
H61	H	0.932388	-0.010528	0.752835
H62	H	0.769473	-0.390217	-0.000012
C63	C	0.890236	0.051505	0.389774
N64	N	0.833051	0.135724	0.346281
H65	H	0.634094	0.069944	-0.000031
C66	C	1.264689	-0.500502	0.232135
N67	N	1.301986	-0.555496	0.188618
C68	C	0.820183	0.034019	-0.000012
N69	N	0.856609	0.093759	-0.000013
C70	C	1.199398	-0.404194	0.720516
N71	N	1.219239	-0.433445	0.807527
C72	C	1.025283	-0.147611	0.232198
N73	N	0.968099	-0.063392	0.188706
H74	H	0.888916	0.053533	0.562316
C75	C	0.387399	-0.092906	-0.000028
N76	N	0.308156	-0.067093	-0.000033
C77	C	0.704478	-0.550555	0.000015
N78	N	0.747294	-0.636110	0.000022
C79	C	1.293927	-0.543575	0.610223
N80	N	1.351064	-0.627823	0.653719
C81	C	1.225025	-0.778467	0.000005
N82	N	1.297365	-0.771640	0.000021
C83	C	1.314995	-0.574640	0.452679
N84	N	1.372138	-0.658882	0.496178
H85	H	0.550106	-0.561989	0.000013
H86	H	1.139181	-0.315406	0.752797
C87	C	0.364028	-0.526049	-0.000000
N88	N	0.327607	-0.585793	-0.000002
H89	H	0.362586	-0.187302	-0.000023
H90	H	0.991666	-0.097950	0.309479
