data_functionalizedCrystal
_audit_creation_method	'MofGen! by Chris Wilmer'
_symmetry_space_group_name_H-M	'P1'
_symmetry_Int_Tables_number	1
_symmetry_cell_setting	triclinic
loop_
_symmetry_equiv_pos_as_xyz
  x,y,z
_cell_length_a	27.731994
_cell_length_b	14.853567
_cell_length_c	13.330367
_cell_angle_alpha	90.008763
_cell_angle_beta	90.000738
_cell_angle_gamma	96.872268
loop_
_atom_site_label
_atom_site_type_symbol
_atom_site_fract_x
_atom_site_fract_y
_atom_site_fract_z
O1	O	0.641447	-0.107024	0.083273
O2	O	0.500727	-0.123385	0.083305
O3	O	0.574846	0.016088	0.083291
O4	O	0.567328	-0.246497	0.083287
O5	O	0.574835	0.016065	-0.083556
O6	O	0.500715	-0.123408	-0.083542
O7	O	0.641436	-0.107046	-0.083574
Cu8	Cu	0.571075	-0.115229	-0.098793
Cu9	Cu	0.571088	-0.115203	0.098523
O10	O	0.567317	-0.246519	-0.083560
C11	C	0.482712	-0.123061	-0.000114
C12	C	0.429051	-0.122049	-0.000102
C13	C	0.574500	0.049659	-0.000129
C14	C	0.573479	0.149726	-0.000121
N15	N	0.571069	-0.115247	-0.237574
C16	C	0.096297	-0.115691	-0.091089
C17	C	-0.105380	-0.111846	-0.091100
O18	O	-0.131460	-0.111321	-0.168448
N19	N	-0.130590	-0.111356	-0.000152
C20	C	-0.105379	-0.111822	0.090806
O21	O	-0.131449	-0.111308	0.168163
C22	C	0.096297	-0.115661	0.090816
C23	C	0.121504	-0.116159	-0.000138
C24	C	0.121504	-0.116189	-0.182035
C25	C	0.171920	-0.117155	-0.182032
C26	C	0.197128	-0.117623	-0.091081
C27	C	0.171920	-0.117125	-0.000134
C28	C	0.121508	-0.116120	0.181773
C29	C	0.171930	-0.117077	0.181767
C30	C	0.197138	-0.117576	0.090813
C31	C	0.247544	-0.118560	0.090820
N32	N	0.272755	-0.119050	-0.000128
C33	C	0.247547	-0.118581	-0.091079
C34	C	-0.211262	-0.109809	0.090794
C35	C	-0.261680	-0.108851	0.090792
C36	C	-0.261678	-0.108873	-0.091114
C37	C	-0.211258	-0.109838	-0.091111
C38	C	-0.186051	-0.110298	-0.000154
C39	C	0.353423	-0.120611	-0.091064
C40	C	0.403843	-0.121581	-0.091052
C41	C	0.403836	-0.121554	0.090853
C42	C	0.353420	-0.120589	0.090842
C43	C	0.328215	-0.120114	-0.000125
O44	O	0.273656	-0.119076	0.168127
O45	O	0.273627	-0.119075	-0.168424
C46	C	0.045881	-0.114725	-0.091092
C47	C	0.020673	-0.114227	-0.000146
C48	C	0.045881	-0.114695	0.090805
C49	C	-0.029746	-0.113269	-0.000148
C50	C	-0.054954	-0.112801	-0.091098
C51	C	-0.029743	-0.113290	-0.182047
C52	C	0.020673	-0.114257	-0.182043
C53	C	0.020670	-0.114206	0.181753
C54	C	-0.029746	-0.113241	0.181742
C55	C	-0.054954	-0.112772	0.090792
C56	C	0.659451	-0.107371	-0.000153
C57	C	0.713112	-0.108382	-0.000159
C58	C	0.567663	-0.280091	-0.000138
C59	C	0.568684	-0.380158	-0.000140
C60	C	0.525135	0.561456	-0.000129
C61	C	0.613191	0.584201	-0.000149
C62	C	0.614151	0.490184	-0.000143
C63	C	0.570602	0.431798	-0.000132
C64	C	0.526094	0.467429	-0.000126
C65	C	0.658658	0.454545	-0.000159
C66	C	0.659620	0.360522	-0.000154
C67	C	0.616071	0.302134	-0.000136
C68	C	0.571561	0.337771	-0.000129
C69	C	0.528012	0.279385	-0.000118
C70	C	0.483502	0.315020	-0.000104
C71	C	0.482545	0.409041	-0.000107
C72	C	0.617027	0.208112	-0.000132
C73	C	0.528971	0.185358	-0.000115
C74	C	0.600446	-0.169478	-0.710195
C75	C	0.541745	-0.060891	-0.710168
C76	C	0.541738	-0.060905	-0.605149
C77	C	0.571086	-0.115205	-0.552649
C78	C	0.600441	-0.169491	-0.605166
C79	C	0.512387	-0.006613	-0.552624
C80	C	0.512379	-0.006624	-0.447599
C81	C	0.541725	-0.060930	-0.395096
C82	C	0.571081	-0.115219	-0.447621
C83	C	0.600429	-0.169519	-0.395120
C84	C	0.629782	-0.223814	-0.447642
C85	C	0.629787	-0.223797	-0.552664
C86	C	0.541721	-0.060947	-0.290075
C87	C	0.600424	-0.169533	-0.290092
N88	N	0.571098	-0.115177	0.237305
H89	H	0.424365	-0.121990	-0.165121
N90	N	0.707623	0.322084	-0.000152
H91	H	0.709981	0.283567	-0.061998
H92	H	0.735037	0.373386	-0.000121
H93	H	-0.190742	-0.110183	0.164866
H94	H	0.653686	-0.267999	-0.595437
H95	H	-0.282201	-0.108459	0.164856
H96	H	0.332894	-0.120197	0.164905
N97	N	0.632106	-0.228038	-0.766827
H98	H	0.611093	-0.272441	-0.810416
H99	H	0.655738	-0.188410	-0.810327
H100	H	0.624320	-0.213756	-0.247353
H101	H	0.332907	-0.120233	-0.165138
N102	N	0.665029	0.169678	-0.000159
H103	H	0.667399	0.131184	0.061689
H104	H	0.667349	0.131209	-0.062052
N105	N	0.660156	0.647177	-0.000173
H106	H	0.661724	0.686709	0.061673
H107	H	0.688471	0.610277	-0.000215
H108	H	0.100985	-0.115805	-0.256103
N109	N	0.510097	-0.002319	-0.766787
H110	H	0.514556	-0.010545	-0.841288
H111	H	0.474953	-0.020597	-0.748448
N112	N	0.434540	0.447473	-0.000108
H113	H	0.415461	0.426156	0.061746
H114	H	0.440582	0.515889	-0.000157
H115	H	0.192440	-0.117556	-0.256096
N116	N	0.705622	0.517524	-0.000184
H117	H	0.707191	0.557050	0.061666
H118	H	0.733939	0.480628	-0.000235
N119	N	0.431034	-0.122052	0.188942
H120	H	0.426145	-0.065969	0.228699
H121	H	0.418367	-0.177819	0.228636
N122	N	0.661440	-0.282371	-0.391013
H123	H	0.656983	-0.274132	-0.316514
H124	H	0.651934	-0.348066	-0.409381
N125	N	0.477129	0.599883	-0.000108
H126	H	0.483127	0.668305	-0.000109
H127	H	0.458067	0.578471	-0.061957
N128	N	0.482000	0.122386	-0.000094
H129	H	0.453660	0.159230	-0.000085
H130	H	0.480473	0.082871	-0.061946
H131	H	0.448045	0.267470	-0.000101
H132	H	0.488477	0.037585	-0.404844
H133	H	0.100993	-0.115712	0.255838
H134	H	0.488498	0.037603	-0.595377
N135	N	0.510069	-0.002386	-0.233427
H136	H	0.474913	-0.020623	-0.251714
H137	H	0.514560	-0.010659	-0.158948
N138	N	-0.184072	-0.110377	-0.189210
H139	H	-0.207696	-0.109938	-0.246822
H140	H	-0.159270	-0.054866	-0.193179
N141	N	0.047857	-0.114798	-0.280144
H142	H	0.024231	-0.114355	-0.337753
H143	H	0.072661	-0.059290	-0.284114
H144	H	-0.282211	-0.108494	-0.165170
H145	H	0.192452	-0.117453	0.255837
H146	H	-0.050276	-0.112914	-0.256102
H147	H	-0.050266	-0.112842	0.255814
H148	H	0.041190	-0.114584	0.255818
