data_functionalizedCrystal
_audit_creation_method	'MofGen! by Chris Wilmer'
_symmetry_space_group_name_H-M	'P1'
_symmetry_Int_Tables_number	1
_symmetry_cell_setting	triclinic
loop_
_symmetry_equiv_pos_as_xyz
  x,y,z
_cell_length_a	12.759400
_cell_length_b	18.215407
_cell_length_c	18.215399
_cell_angle_alpha	90.020595
_cell_angle_beta	89.975454
_cell_angle_gamma	89.985394
loop_
_atom_site_label
_atom_site_type_symbol
_atom_site_fract_x
_atom_site_fract_y
_atom_site_fract_z
Zn1	Zn	-0.418279	-1.125124	-0.416148
Zn2	Zn	-0.084946	-0.791791	-0.082815
Zn3	Zn	0.248387	-0.458457	0.250518
Zn4	Zn	-0.593977	-1.125054	-0.293089
Zn5	Zn	-0.260643	-0.791721	0.040244
Zn6	Zn	0.072690	-0.458388	0.373577
Zn7	Zn	-0.418312	-1.002057	-0.293094
Zn8	Zn	-0.084979	-0.668723	0.040239
Zn9	Zn	0.248355	-0.335390	0.373573
Zn10	Zn	-0.593917	-1.002044	-0.416113
Zn11	Zn	-0.260583	-0.668711	-0.082779
Zn12	Zn	0.072750	-0.335378	0.250554
O13	O	-0.506121	-1.063570	-0.354611
O14	O	-0.172788	-0.730237	-0.021278
O15	O	0.160546	-0.396903	0.312056
O16	O	-0.441597	-1.228099	-0.399837
O17	O	-0.108264	-0.894766	-0.066504
O18	O	0.225069	-0.561432	0.266829
O19	O	-0.570713	-1.108714	-0.190106
O20	O	-0.237380	-0.775381	0.143228
O21	O	0.095953	-0.442048	0.476561
O22	O	-0.271287	-1.018416	-0.309434
O23	O	0.062047	-0.685083	0.023899
O24	O	0.395380	-0.351749	0.357232
O25	O	-0.570681	-1.228048	-0.309426
O26	O	-0.237348	-0.894715	0.023907
O27	O	0.095985	-0.561381	0.357240
O28	O	-0.271263	-1.108833	-0.399842
O29	O	0.062071	-0.775500	-0.066508
O30	O	0.395404	-0.442167	0.266825
O31	O	-0.441653	-1.018349	-0.190109
O32	O	-0.108320	-0.685015	0.143224
O33	O	0.225014	-0.351682	0.476558
O34	O	-0.441595	-0.899071	-0.309400
O35	O	-0.108262	-0.565737	0.023934
O36	O	0.225072	-0.232404	0.357267
O37	O	-0.570579	-1.018395	-0.519102
O38	O	-0.237246	-0.685062	-0.185768
O39	O	0.096088	-0.351729	0.147565
O40	O	-0.570611	-0.899062	-0.399781
O41	O	-0.237277	-0.565729	-0.066448
O42	O	0.096056	-0.232395	0.266886
O43	O	-0.441539	-1.108821	-0.519128
O44	O	-0.108206	-0.775488	-0.185794
O45	O	0.225128	-0.442155	0.147539
O46	O	-0.740990	-1.108703	-0.309392
O47	O	-0.407656	-0.775369	0.023942
O48	O	-0.074323	-0.442036	0.357275
O49	O	-0.740946	-1.018328	-0.399776
O50	O	-0.407612	-0.684994	-0.066443
O51	O	-0.074279	-0.351661	0.266890
C52	C	-0.506101	-0.872364	-0.354587
C53	C	-0.172767	-0.539030	-0.021254
C54	C	0.160566	-0.205697	0.312079
C55	C	-0.506117	-0.790565	-0.354595
C56	C	-0.172784	-0.457231	-0.021261
C57	C	0.160550	-0.123898	0.312072
C58	C	-0.573399	-0.602385	-0.401595
C59	C	-0.240066	-0.269052	-0.068261
C60	C	0.093268	0.064281	0.265072
C61	C	-0.573401	-0.525527	-0.401603
C62	C	-0.240068	-0.192193	-0.068269
C63	C	0.093266	0.141140	0.265064
C64	C	-0.438849	-0.525506	-0.307630
C65	C	-0.105516	-0.192173	0.025703
C66	C	0.227817	0.141160	0.359036
C67	C	-0.438842	-0.602364	-0.307626
C68	C	-0.105509	-0.269030	0.025707
C69	C	0.227824	0.064303	0.359040
C70	C	-0.506123	-0.640801	-0.354607
C71	C	-0.172790	-0.307468	-0.021274
C72	C	0.160543	0.025865	0.312059
C73	C	-0.506132	-0.487085	-0.354619
C74	C	-0.172799	-0.153752	-0.021286
C75	C	0.160534	0.179581	0.312047
C76	C	-0.506134	-0.403752	-0.354628
C77	C	-0.172801	-0.070418	-0.021295
C78	C	0.160532	0.262915	0.312039
C79	C	-0.506120	-0.724140	-0.354600
C80	C	-0.172787	-0.390807	-0.021267
C81	C	0.160547	-0.057474	0.312067
C82	C	-0.779088	-1.063526	-0.354596
C83	C	-0.445755	-0.730193	-0.021262
C84	C	-0.112422	-0.396860	0.312071
C85	C	-0.895865	-1.063575	-0.354614
C86	C	-0.562532	-0.730242	-0.021280
C87	C	-0.229198	-0.396908	0.312053
C88	C	-0.950715	-1.110685	-0.307602
C89	C	-0.617382	-0.777352	0.025731
C90	C	-0.284049	-0.444019	0.359064
C91	C	-1.060439	-1.110731	-0.307625
C92	C	-0.727106	-0.777397	0.025708
C93	C	-0.393773	-0.444064	0.359042
C94	C	-1.060453	-1.016549	-0.401672
C95	C	-0.727120	-0.683215	-0.068339
C96	C	-0.393787	-0.349882	0.264994
C97	C	-0.950731	-1.016508	-0.401653
C98	C	-0.617398	-0.683174	-0.068320
C99	C	-0.284065	-0.349841	0.265014
C100	C	-0.895849	-1.157753	-0.260563
C101	C	-0.562516	-0.824419	0.072770
C102	C	-0.229182	-0.491086	0.406103
C103	C	-0.950699	-1.204866	-0.213548
C104	C	-0.617366	-0.871533	0.119786
C105	C	-0.284033	-0.538200	0.453119
C106	C	-1.060423	-1.204911	-0.213570
C107	C	-0.727090	-0.871578	0.119763
C108	C	-0.393757	-0.538245	0.453096
C109	C	-1.115297	-1.157843	-0.260609
C110	C	-0.781964	-0.824510	0.072725
C111	C	-0.448630	-0.491176	0.406058
C112	C	-0.232088	-1.063634	-0.354643
C113	C	0.101246	-0.730300	-0.021309
C114	C	0.434579	-0.396967	0.312024
C115	C	-0.115311	-1.063661	-0.354656
C116	C	0.218022	-0.730328	-0.021323
C117	C	0.551356	-0.396994	0.312011
C118	C	-0.506049	-1.063615	-0.546564
C119	C	-0.172715	-0.730281	-0.213231
C120	C	0.160618	-0.396948	0.120103
C121	C	-0.506018	-1.063634	-0.628363
C122	C	-0.172684	-0.730301	-0.295030
C123	C	0.160649	-0.396967	0.038304
C124	C	-0.506139	-0.255523	-0.354632
C125	C	-0.172806	0.077811	-0.021299
C126	C	0.160528	0.411144	0.312035
C127	C	-0.506138	-0.337322	-0.354632
C128	C	-0.172805	-0.003988	-0.021299
C129	C	0.160528	0.329345	0.312034
C130	C	-0.438764	-1.110736	-0.816572
C131	C	-0.105431	-0.777402	-0.483238
C132	C	0.227903	-0.444069	-0.149905
C133	C	-0.438733	-1.110744	-0.893431
C134	C	-0.105400	-0.777411	-0.560097
C135	C	0.227933	-0.444078	-0.226764
C136	C	-0.573109	-1.016584	-0.893392
C137	C	-0.239776	-0.683251	-0.560059
C138	C	0.093557	-0.349917	-0.226725
C139	C	-0.573134	-1.016572	-0.816535
C140	C	-0.239800	-0.683239	-0.483201
C141	C	0.093533	-0.349906	-0.149868
C142	C	-0.505963	-1.063652	-0.778127
C143	C	-0.172629	-0.730319	-0.444793
C144	C	0.160704	-0.396985	-0.111460
C145	C	-0.505907	-1.063673	-0.931843
C146	C	-0.172574	-0.730339	-0.598509
C147	C	0.160759	-0.397006	-0.265176
C148	C	-0.505875	-1.063682	-1.015176
C149	C	-0.172541	-0.730349	-0.681843
C150	C	0.160792	-0.397015	-0.348510
C151	C	-0.505994	-1.063642	-0.694788
C152	C	-0.172660	-0.730309	-0.361454
C153	C	0.160673	-0.396976	-0.028121
C154	C	-0.506117	-1.063568	-0.163405
C155	C	-0.172784	-0.730234	0.169929
C156	C	0.160549	-0.396901	0.503262
C157	C	-0.505852	-1.063691	-0.081606
C158	C	-0.172519	-0.730358	0.251727
C159	C	0.160814	-0.397024	0.585060
H160	H	-0.628182	-0.494252	-0.439866
H161	H	-0.294849	-0.160919	-0.106532
H162	H	0.038484	0.172415	0.226801
H163	H	-0.384012	-1.149083	-0.924729
H164	H	-0.050678	-0.815750	-0.591396
H165	H	0.282655	-0.482417	-0.258063
H166	H	-0.627854	-0.978226	-0.785232
H167	H	-0.294521	-0.644893	-0.451898
H168	H	0.038812	-0.311559	-0.118565
H169	H	-0.627800	-0.978255	-0.924673
H170	H	-0.294467	-0.644922	-0.591340
H171	H	0.038867	-0.311588	-0.258007
H172	H	-0.384073	-0.494201	-0.269379
H173	H	-0.050740	-0.160868	0.063955
H174	H	0.282593	0.172465	0.397288
H175	H	-0.906015	-1.243192	-0.175255
H176	H	-0.572682	-0.909859	0.158079
H177	H	-0.239349	-0.576526	0.491412
H178	H	-0.906072	-0.978147	-0.439935
H179	H	-0.572739	-0.644813	-0.106601
H180	H	-0.239405	-0.311480	0.226732
H181	H	-0.628181	-0.633679	-0.439852
H182	H	-0.294847	-0.300346	-0.106518
H183	H	0.038486	0.032988	0.226815
H184	H	-0.384066	-1.149069	-0.785302
H185	H	-0.050733	-0.815736	-0.451969
H186	H	0.282601	-0.482403	-0.118636
H187	H	-1.105079	-1.243279	-0.175293
H188	H	-0.771746	-0.909945	0.158040
H189	H	-0.438413	-0.576612	0.491373
H190	H	-0.384052	-0.633643	-0.269364
H191	H	-0.050719	-0.300309	0.063970
H192	H	0.282615	0.033024	0.397303
H193	H	-0.806506	-1.157719	-0.260537
H194	H	-0.473173	-0.824386	0.072796
H195	H	-0.139840	-0.491052	0.406129
H196	H	-1.204642	-1.157889	-0.260629
H197	H	-0.871308	-0.824556	0.072704
H198	H	-0.537975	-0.491223	0.406037
O199	O	-1.113917	-0.970849	-0.447289
O200	O	-0.780584	-0.637516	-0.113956
O201	O	-0.447250	-0.304182	0.219378
C202	C	-1.222522	-0.981000	-0.437237
C203	C	-0.889189	-0.647667	-0.103904
C204	C	-0.555856	-0.314333	0.229430
H205	H	-1.237533	-1.005141	-0.380468
H206	H	-0.904200	-0.671808	-0.047134
H207	H	-0.570867	-0.338474	0.286199
H208	H	-1.253574	-1.020177	-0.480931
H209	H	-0.920241	-0.686843	-0.147597
H210	H	-0.586908	-0.353510	0.185736
C211	C	-1.260497	-0.876905	-0.513644
C212	C	-0.927163	-0.543572	-0.180311
C213	C	-0.593830	-0.210238	0.153022
C214	C	-1.278934	-0.906550	-0.443917
C215	C	-0.945601	-0.573216	-0.110584
C216	C	-0.612267	-0.239883	0.222750
H217	H	-1.295296	-0.830982	-0.517768
H218	H	-0.961962	-0.497649	-0.184435
H219	H	-0.628629	-0.164315	0.148899
H220	H	-1.187327	-0.870067	-0.520419
H221	H	-0.853994	-0.536734	-0.187086
H222	H	-0.520661	-0.203401	0.146247
H223	H	-1.286374	-0.909559	-0.550048
H224	H	-0.953040	-0.576226	-0.216715
H225	H	-0.619707	-0.242893	0.116619
H226	H	-1.253045	-0.873900	-0.407515
H227	H	-0.919712	-0.540567	-0.074182
H228	H	-0.586379	-0.207233	0.259151
H229	H	-1.352100	-0.913380	-0.437136
H230	H	-1.018767	-0.580047	-0.103803
H231	H	-0.685434	-0.246714	0.229531
