data_functionalizedCrystal
_audit_creation_method	'MofGen! by Chris Wilmer'
_symmetry_space_group_name_H-M	'P1'
_symmetry_Int_Tables_number	1
_symmetry_cell_setting	triclinic
loop_
_symmetry_equiv_pos_as_xyz
  x,y,z
_cell_length_a	11.169417
_cell_length_b	17.640280
_cell_length_c	11.169409
_cell_angle_alpha	78.765642
_cell_angle_beta	89.980176
_cell_angle_gamma	78.801822
loop_
_atom_site_label
_atom_site_type_symbol
_atom_site_fract_x
_atom_site_fract_y
_atom_site_fract_z
Zn1	Zn	1.931511	-0.314589	-0.582049
Zn2	Zn	1.971974	-0.446792	-0.340816
Zn3	Zn	1.730812	-0.314638	-0.381369
Zn4	Zn	1.771358	-0.446728	-0.541481
O5	O	1.851414	-0.380687	-0.461429
O6	O	2.104830	-0.332133	-0.550056
O7	O	1.939948	-0.429309	-0.178231
O8	O	1.723532	-0.204024	-0.441939
O9	O	2.134558	-0.429262	-0.372823
O10	O	1.870985	-0.203988	-0.589378
O11	O	1.762767	-0.332215	-0.208025
O12	O	1.568238	-0.332153	-0.402602
O13	O	1.792638	-0.429152	-0.714827
O14	O	1.598028	-0.429199	-0.520235
O15	O	1.910301	-0.332071	-0.744632
O16	O	1.979264	-0.557391	-0.333485
O17	O	1.831873	-0.557344	-0.480912
C18	C	1.539585	-0.380675	-0.461417
C19	C	1.406189	-0.380689	-0.461435
C20	C	1.914392	-0.586047	-0.398422
C21	C	1.941444	-0.673901	-0.371508
C22	C	1.646394	-0.962856	-0.666331
C23	C	1.671816	-1.045408	-0.641003
C24	C	1.825390	-1.045391	-0.487642
C25	C	1.799985	-0.962838	-0.512961
C26	C	1.710485	-0.921576	-0.602306
C27	C	1.864076	-0.921558	-0.448937
C28	C	1.838668	-0.839012	-0.474250
C29	C	1.749170	-0.797745	-0.563589
C30	C	1.685077	-0.839030	-0.627620
C31	C	1.953570	-0.962821	-0.359586
C32	C	2.017661	-0.921542	-0.295561
C33	C	1.992259	-0.838994	-0.320881
C34	C	1.902761	-0.797727	-0.410219
C35	C	2.056352	-0.797709	-0.256849
C36	C	2.030944	-0.715162	-0.282163
C37	C	1.877353	-0.715180	-0.435532
C38	C	2.164460	-0.380699	-0.461441
C39	C	2.297861	-0.380705	-0.461446
C40	C	1.851479	-0.380599	-0.774498
C41	C	1.851507	-0.380562	-0.907910
C42	C	1.788222	-0.174525	-0.524708
C43	C	1.761294	-0.086671	-0.551674
C44	C	1.851400	-0.380717	-0.149595
C45	C	1.851537	-0.380532	-0.016252
H46	H	1.804482	-0.681583	-0.508295
O47	O	1.559552	-0.922850	-0.753274
C48	C	1.493473	-0.897487	-0.965165
C49	C	1.591883	-0.942859	-0.866821
H50	H	1.519589	-0.913634	-1.056995
H51	H	1.401695	-0.913781	-0.939127
H52	H	1.486317	-0.831404	-0.972186
H53	H	1.599148	-1.008952	-0.859749
H54	H	1.683609	-0.926499	-0.892900
O55	O	2.143143	-0.837756	-0.169895
C56	C	2.209322	-0.863014	0.041956
C57	C	2.110928	-0.817630	-0.056396
H58	H	2.183324	-0.846747	0.133737
H59	H	2.216470	-0.929114	0.049170
H60	H	2.301072	-0.846739	0.015744
H61	H	2.019126	-0.833839	-0.030257
H62	H	2.103887	-0.751542	-0.063591
O63	O	1.598056	-0.798858	-0.714279
C64	C	1.407312	-0.705775	-0.758844
C65	C	1.505779	-0.751203	-0.660593
H66	H	1.332669	-0.667247	-0.715470
H67	H	1.450394	-0.667022	-0.833508
H68	H	1.365936	-0.749475	-0.800284
H69	H	1.547191	-0.707559	-0.619057
H70	H	1.462632	-0.789967	-0.586004
H71	H	1.728476	-0.730530	-0.584189
H72	H	1.619633	-1.079014	-0.693161
H73	H	1.898258	-1.078998	-0.414894
O74	O	1.978480	-1.043007	-0.334997
C75	C	2.129962	-1.161388	-0.329682
C76	C	2.101922	-1.070579	-0.357546
H77	H	2.229757	-1.183707	-0.347926
H78	H	2.112107	-1.183892	-0.229813
H79	H	2.068739	-1.183792	-0.390764
H80	H	2.163125	-1.048107	-0.296543
H81	H	2.119740	-1.048129	-0.457441
O82	O	2.104459	-0.961585	-0.208611
C83	C	2.170655	-0.986837	0.003234
C84	C	2.072249	-0.941460	-0.095111
H85	H	2.144662	-0.970570	0.095017
H86	H	2.177813	-1.052938	0.010451
H87	H	2.262398	-0.970556	-0.022988
H88	H	1.980453	-0.957675	-0.068962
H89	H	2.065198	-0.875370	-0.102309
H90	H	2.083133	-0.681552	-0.230026
