data_functionalizedCrystal
_audit_creation_method	'MofGen! by Chris Wilmer'
_symmetry_space_group_name_H-M	'P1'
_symmetry_Int_Tables_number	1
_symmetry_cell_setting	triclinic
loop_
_symmetry_equiv_pos_as_xyz
  x,y,z
_cell_length_a	6.817900
_cell_length_b	10.773890
_cell_length_c	17.110486
_cell_angle_alpha	96.766104
_cell_angle_beta	99.060439
_cell_angle_gamma	96.645716
loop_
_atom_site_label
_atom_site_type_symbol
_atom_site_fract_x
_atom_site_fract_y
_atom_site_fract_z
V1	V	-3.942792	-0.172225	-0.245434
O2	O	-3.967088	0.008658	-0.242088
O3	O	-3.861044	-0.341861	-0.242480
O4	O	-3.873207	-0.169408	-0.353058
O5	O	-3.954840	-0.164988	-0.130744
V6	V	-4.433486	-0.150609	-0.231871
O7	O	-4.188320	-0.219641	-0.275185
O8	O	-4.638155	-0.103193	-0.202120
O9	O	-4.292027	0.019027	-0.234825
O10	O	-4.526587	-0.331492	-0.235217
O11	O	-4.538834	-0.157846	-0.346561
O12	O	-4.279864	-0.153426	-0.124247
C13	C	-3.698618	-0.383220	-0.238279
C14	C	-3.712925	-0.521898	-0.236580
C15	C	-3.890419	-0.589756	-0.239531
C16	C	-3.905210	-0.733088	-0.237776
C17	C	-3.714133	-0.163237	-0.379331
C18	C	-3.738303	-0.162057	-0.467306
C19	C	-3.929721	-0.167728	-0.512622
C20	C	-3.952419	-0.166618	-0.595283
C21	C	-3.783698	-0.159845	-0.632629
C22	C	-3.592264	-0.154170	-0.587307
C23	C	-3.569567	-0.155271	-0.504646
C24	C	-3.843219	-0.156201	-0.882011
C25	C	-3.865932	-0.155104	-0.964678
C26	C	-4.226086	-0.167549	-0.972649
C27	C	-4.203373	-0.168658	-0.889987
C28	C	-4.011941	-0.162976	-0.844671
C29	C	-3.806896	-0.158714	-0.717122
C30	C	-3.988745	-0.164098	-0.760179
C31	C	-4.117795	0.060379	-0.239024
C32	C	-4.082724	0.199056	-0.240727
C33	C	-4.102280	-0.159601	-0.097969
C34	C	-4.057350	-0.160775	-0.009994
H35	H	-3.764190	-0.781100	-0.233955
O36	O	-3.624899	-0.151449	-0.757391
H37	H	-3.615148	-0.065254	-0.787060
H38	H	-3.413692	-0.150622	-0.467748
O39	O	-3.526126	-0.585485	-0.231521
H40	H	-3.507220	-0.631316	-0.176524
H41	H	-4.031429	-0.541741	-0.243361
H42	H	-3.728528	-0.149585	-0.995081
O43	O	-4.111706	-0.175019	-0.472347
H44	H	-4.213861	-0.263188	-0.497938
O45	O	-4.158873	-0.172708	-0.644160
H46	H	-4.272381	-0.177608	-0.604305
H47	H	-4.340768	-0.174171	-0.859586
O48	O	-3.636761	-0.150090	-0.833141
H49	H	-3.523262	-0.145213	-0.873001
O50	O	-3.410277	-0.146872	-0.627581
H51	H	-3.458216	-0.147074	-0.692675
O52	O	-4.269539	-0.737363	-0.245817
H53	H	-4.401809	-0.808879	-0.247725
H54	H	-4.381943	-0.172174	-1.009553
O55	O	-4.170727	-0.171397	-0.719907
H56	H	-4.180428	-0.257607	-0.690250
