data_functionalizedCrystal
_audit_creation_method	'MofGen! by Chris Wilmer'
_symmetry_space_group_name_H-M	'P1'
_symmetry_Int_Tables_number	1
_symmetry_cell_setting	triclinic
loop_
_symmetry_equiv_pos_as_xyz
  x,y,z
_cell_length_a	11.792241
_cell_length_b	14.044190
_cell_length_c	10.268362
_cell_angle_alpha	89.989939
_cell_angle_beta	89.999626
_cell_angle_gamma	88.692597
loop_
_atom_site_label
_atom_site_type_symbol
_atom_site_fract_x
_atom_site_fract_y
_atom_site_fract_z
O1	O	1.519116	0.129987	-0.108189
O2	O	1.769116	0.379987	0.141811
O3	O	2.019116	0.629987	0.391811
O4	O	2.269116	0.879987	0.641811
O5	O	1.190032	0.143384	-0.108221
O6	O	1.440032	0.393384	0.141779
O7	O	1.690032	0.643384	0.391779
O8	O	1.940032	0.893384	0.641779
O9	O	1.349630	-0.001325	-0.108179
O10	O	1.599630	0.248675	0.141821
O11	O	1.849630	0.498675	0.391821
O12	O	2.099630	0.748675	0.641821
O13	O	1.359518	0.274696	-0.108230
O14	O	1.609518	0.524696	0.141770
O15	O	1.859518	0.774696	0.391770
O16	O	2.109518	1.024696	0.641770
O17	O	1.349615	-0.001331	0.108421
O18	O	1.599615	0.248669	0.358421
O19	O	1.849615	0.498669	0.608421
O20	O	2.099615	0.748669	0.858421
O21	O	1.190017	0.143378	0.108380
O22	O	1.440017	0.393378	0.358380
O23	O	1.690017	0.643378	0.608380
O24	O	1.940017	0.893378	0.858380
O25	O	1.519100	0.129981	0.108412
O26	O	1.769100	0.379981	0.358412
O27	O	2.019100	0.629981	0.608412
O28	O	2.269100	0.879981	0.858412
Cu29	Cu	1.354557	0.136679	0.128173
Cu30	Cu	1.604557	0.386679	0.378173
Cu31	Cu	1.854557	0.636679	0.628173
Cu32	Cu	2.104557	0.886679	0.878173
Cu33	Cu	1.354575	0.136686	-0.127982
Cu34	Cu	1.604575	0.386686	0.122018
Cu35	Cu	1.854575	0.636686	0.372018
Cu36	Cu	2.104575	0.886686	0.622018
O37	O	1.359502	0.274690	0.108371
O38	O	1.609502	0.524690	0.358371
O39	O	1.859502	0.774690	0.608371
O40	O	2.109502	1.024690	0.858371
C41	C	1.147655	0.142539	0.000076
C42	C	1.397655	0.392539	0.250076
C43	C	1.647655	0.642539	0.500076
C44	C	1.897655	0.892539	0.750076
C45	C	1.021404	0.140021	0.000065
C46	C	1.271404	0.390021	0.250065
C47	C	1.521404	0.640021	0.500065
C48	C	1.771404	0.890021	0.750065
C49	C	1.345297	-0.036664	0.000124
C50	C	1.595297	0.213336	0.250124
C51	C	1.845297	0.463336	0.500124
C52	C	2.095297	0.713336	0.750124
C53	C	1.332395	-0.141957	0.000134
C54	C	1.582395	0.108043	0.250134
C55	C	1.832395	0.358043	0.500134
C56	C	2.082395	0.608043	0.750134
C57	C	0.790257	0.135389	0.000103
C58	C	1.040257	0.385389	0.250103
C59	C	1.290257	0.635389	0.500103
C60	C	1.540257	0.885389	0.750103
C61	C	0.918884	0.137962	0.000082
C62	C	1.168884	0.387962	0.250082
C63	C	1.418884	0.637962	0.500082
C64	C	1.668884	0.887962	0.750082
C65	C	1.400312	-0.391894	0.000090
C66	C	1.650312	-0.141894	0.250090
C67	C	1.900312	0.108106	0.500090
C68	C	2.150312	0.358106	0.750090
C69	C	1.308825	-0.334735	0.000090
C70	C	1.558825	-0.084735	0.250090
C71	C	1.808825	0.165265	0.500090
C72	C	2.058825	0.415265	0.750090
C73	C	1.321943	-0.227463	0.000115
C74	C	1.571943	0.022537	0.250115
C75	C	1.821943	0.272537	0.500115
C76	C	2.071943	0.522537	0.750115
C77	C	1.387197	-0.499176	0.000065
C78	C	1.637197	-0.249176	0.250065
C79	C	1.887197	0.000824	0.500065
C80	C	2.137197	0.250824	0.750065
C81	C	1.561478	0.130826	0.000112
C82	C	1.811478	0.380826	0.250112
C83	C	2.061478	0.630826	0.500112
C84	C	2.311478	0.880826	0.750112
C85	C	1.687728	0.133344	0.000115
C86	C	1.937728	0.383344	0.250115
C87	C	2.187728	0.633344	0.500115
C88	C	2.437728	0.883344	0.750115
C89	C	1.363835	0.310029	0.000064
C90	C	1.613835	0.560029	0.250064
C91	C	1.863835	0.810029	0.500064
C92	C	2.113835	1.060029	0.750064
C93	C	1.376737	0.415322	0.000046
C94	C	1.626737	0.665322	0.250046
C95	C	1.876737	0.915322	0.500046
C96	C	2.126737	1.165322	0.750046
N97	N	1.354552	0.136673	0.308339
N98	N	1.604552	0.386673	0.558339
N99	N	1.854552	0.636673	0.808339
N100	N	2.104552	0.886673	1.058339
N101	N	1.354589	0.136684	-0.308148
N102	N	1.604589	0.386684	-0.058148
N103	N	1.854589	0.636684	0.191852
N104	N	2.104589	0.886684	0.441852
C105	C	1.354570	0.136684	0.574010
C106	C	1.604570	0.386684	0.824010
C107	C	1.854570	0.636684	1.074010
C108	C	2.104570	0.886684	1.324010
C109	C	1.354556	0.136681	0.426172
C110	C	1.604556	0.386681	0.676172
C111	C	1.854556	0.636681	0.926172
C112	C	2.104556	0.886681	1.176172
H113	H	1.220649	-0.366364	0.000074
H114	H	1.470649	-0.116364	0.250074
H115	H	1.720649	0.133636	0.500074
H116	H	1.970649	0.383636	0.750074
O117	O	1.505417	-0.354013	0.000180
O118	O	1.755417	-0.104013	0.250180
O119	O	2.005417	0.145987	0.500180
O120	O	2.255417	0.395987	0.750180
C121	C	1.495278	-0.253788	0.000170
C122	C	1.745278	-0.003788	0.250170
C123	C	1.995278	0.246212	0.500170
C124	C	2.245278	0.496212	0.750170
H125	H	1.408960	-0.231151	0.041159
H126	H	1.658960	0.018849	0.291159
H127	H	1.908960	0.268849	0.541159
H128	H	2.158960	0.518849	0.791159
H129	H	1.565143	-0.222983	0.063082
H130	H	1.815143	0.027017	0.313082
H131	H	2.065143	0.277017	0.563082
H132	H	2.315143	0.527017	0.813082
H133	H	1.503533	-0.226183	-0.103735
H134	H	1.753533	0.023817	0.146265
H135	H	2.003533	0.273817	0.396265
H136	H	2.253533	0.523817	0.646265
