data_functionalizedCrystal
_audit_creation_method	'MofGen! by Chris Wilmer'
_symmetry_space_group_name_H-M	'P1'
_symmetry_Int_Tables_number	1
_symmetry_cell_setting	triclinic
loop_
_symmetry_equiv_pos_as_xyz
  x,y,z
_cell_length_a	17.038278
_cell_length_b	22.610064
_cell_length_c	17.038274
_cell_angle_alpha	89.988262
_cell_angle_beta	88.888857
_cell_angle_gamma	90.015411
loop_
_atom_site_label
_atom_site_type_symbol
_atom_site_fract_x
_atom_site_fract_y
_atom_site_fract_z
O1	O	1.048767	0.049208	-0.170526
O2	O	0.820955	0.049208	-0.167820
O3	O	0.933507	0.049191	-0.055268
O4	O	0.936215	0.049224	-0.283079
O5	O	0.933471	-0.049178	-0.055265
O6	O	0.820920	-0.049161	-0.167818
O7	O	1.048731	-0.049161	-0.170524
Zn8	Zn	0.934820	-0.064780	-0.169170
Zn9	Zn	0.934867	0.064826	-0.169174
O10	O	0.936180	-0.049145	-0.283076
C11	C	0.791645	0.000023	-0.165356
C12	C	0.704361	0.000022	-0.158009
N13	N	0.934794	-0.153232	-0.169168
C14	C	0.210935	0.000018	-0.112872
C15	C	0.292947	0.000015	-0.119781
C16	C	0.329347	0.000029	-0.194155
C17	C	0.283731	0.000038	-0.261623
C18	C	0.201721	0.000037	-0.254713
C19	C	0.576735	0.000030	-0.218567
C20	C	0.658751	0.000034	-0.225472
C21	C	0.667962	0.000009	-0.083630
C22	C	0.585950	0.000011	-0.076726
C23	C	0.540340	0.000018	-0.144194
C24	C	0.413176	0.000028	-0.201219
C25	C	0.456513	0.000015	-0.137129
C26	C	0.985664	-0.561866	-0.219991
C27	C	0.985674	-0.623786	-0.219990
O28	O	1.028895	-0.655799	-0.263194
N29	N	0.934881	-0.654769	-0.169166
C30	C	0.884080	-0.623829	-0.118334
O31	O	0.840878	-0.655868	-0.075103
C32	C	0.884075	-0.561910	-0.118332
C33	C	0.934866	-0.530931	-0.169165
C34	C	1.036452	-0.530887	-0.270820
C35	C	1.036441	-0.468971	-0.270822
C36	C	0.985643	-0.438035	-0.219995
C37	C	0.934855	-0.469015	-0.169167
C38	C	0.833279	-0.530971	-0.067496
C39	C	0.833279	-0.469048	-0.067498
C40	C	0.884070	-0.438069	-0.118332
C41	C	0.884046	-0.376163	-0.118343
N42	N	0.934839	-0.345181	-0.169167
C43	C	0.985637	-0.376116	-0.219993
C44	C	0.884096	-0.753863	-0.118341
C45	C	0.884097	-0.815780	-0.118346
C46	C	0.985692	-0.815733	-0.220002
C47	C	0.985687	-0.753814	-0.220000
C48	C	0.934889	-0.722880	-0.169165
C49	C	0.985610	-0.246089	-0.219994
C50	C	0.985592	-0.184168	-0.219994
C51	C	0.884000	-0.184220	-0.118336
C52	C	0.884015	-0.246136	-0.118339
C53	C	0.934826	-0.277069	-0.169171
O54	O	0.840850	-0.344112	-0.075158
O55	O	1.028839	-0.344070	-0.263210
C56	C	1.078042	0.000025	-0.172988
C57	C	1.165325	0.000029	-0.180335
C58	C	0.931026	0.000004	-0.025974
C59	C	0.923678	-0.000005	0.061310
N60	N	0.934899	0.153278	-0.169170
C61	C	0.991141	-0.000010	0.106920
C62	C	0.984232	-0.000013	0.188932
C63	C	0.909859	-0.000015	0.225332
C64	C	0.842390	-0.000008	0.179716
C65	C	0.849300	-0.000001	0.097706
C66	C	0.885448	-0.000032	0.472720
C67	C	0.878543	-0.000041	0.554736
C68	C	1.020386	-0.000045	0.563946
C69	C	1.027289	-0.000042	0.481934
C70	C	0.959820	-0.000031	0.436325
C71	C	0.902795	-0.000019	0.309161
C72	C	0.966885	-0.000022	0.352497
C73	C	0.938660	0.000018	0.687630
C74	C	0.946007	-0.000046	0.600346
H75	H	0.181305	0.000011	-0.052309
O76	O	0.784028	-0.561031	-0.018002
C77	C	0.744563	-0.579965	0.116237
C78	C	0.800401	-0.545896	0.060270
H79	H	0.757770	-0.567731	0.179532
H80	H	0.753289	-0.629542	0.107584
H81	H	0.681245	-0.567811	0.103021
H82	H	0.863741	-0.558001	0.073452
H83	H	0.791607	-0.496327	0.068935
O84	O	1.063449	0.000019	0.071690
C85	C	1.203406	-0.000013	0.089490
C86	C	1.121565	-0.000036	0.129486
H87	H	1.250416	-0.000070	0.136200
H88	H	1.210252	0.041168	0.051346
H89	H	1.210135	-0.041167	0.051306
H90	H	1.114781	0.041090	0.167709
H91	H	1.114757	-0.041244	0.167582
O92	O	0.319125	0.000154	-0.333852
C93	C	0.406424	0.051115	-0.423953
C94	C	0.366379	0.051063	-0.342136
H95	H	0.444650	0.092263	-0.430670
H96	H	0.359769	0.051159	-0.471019
H97	H	0.444541	0.009931	-0.430720
H98	H	0.328265	0.092240	-0.335292
H99	H	0.413073	0.050987	-0.295110
H100	H	0.442822	0.000040	-0.261775
H101	H	0.330080	0.000003	-0.064845
O102	O	0.834848	-0.723786	-0.068889
C103	C	0.823225	-0.653872	0.037423
C104	C	0.879088	-0.687904	-0.018516
H105	H	0.858971	-0.624844	0.078153
H106	H	0.786935	-0.686628	0.073801
H107	H	0.782403	-0.624918	0.001685
H108	H	0.919959	-0.716859	0.017162
H109	H	0.915323	-0.655116	-0.054895
O110	O	1.035009	-0.154166	-0.269400
C111	C	1.135744	-0.160666	-0.370261
C112	C	1.079835	-0.194713	-0.314341
H113	H	1.171989	-0.193433	-0.406621
H114	H	1.176601	-0.131686	-0.334587
H115	H	1.099987	-0.131667	-0.411014
H116	H	1.115529	-0.223744	-0.273576
H117	H	1.038977	-0.223655	-0.350063
O118	O	0.532357	0.000125	-0.284049
C119	C	0.434483	0.051126	-0.358595
C120	C	0.484682	0.051083	-0.284392
H121	H	0.395938	0.092328	-0.358906
H122	H	0.395788	0.009988	-0.358927
H123	H	0.474609	0.051112	-0.412922
H124	H	0.444616	0.051118	-0.230026
H125	H	0.523385	0.092218	-0.284129
H126	H	1.026986	-0.271267	-0.261386
H127	H	0.794364	0.000004	0.060571
O128	O	1.085861	-0.438973	-0.320220
C129	C	1.186604	-0.445485	-0.421072
C130	C	1.130683	-0.479525	-0.365156
H131	H	1.222846	-0.478256	-0.457428
H132	H	1.227463	-0.416509	-0.385394
H133	H	1.150857	-0.416481	-0.461828
H134	H	1.166367	-0.508561	-0.324388
H135	H	1.089823	-0.508463	-0.400882
H136	H	1.077822	-0.556068	-0.312209
H137	H	1.027045	-0.728595	-0.261393
H138	H	0.556319	0.000000	-0.016163
O139	O	1.085977	0.000030	0.608168
C140	C	1.205087	0.051012	0.641160
C141	C	1.130843	0.050990	0.591019
H142	H	1.241373	0.092215	0.627326
H143	H	1.241461	0.009875	0.627301
H144	H	1.187357	0.050979	0.706022
H145	H	1.148502	0.051044	0.526142
H146	H	1.094487	0.092124	0.604945
O147	O	1.049746	0.000087	0.233267
C148	C	1.124270	0.051027	0.331222
C149	C	1.050048	0.050991	0.281049
H150	H	1.124531	0.092172	0.369878
H151	H	1.178638	0.051064	0.291152
H152	H	1.124561	0.009839	0.369822
H153	H	1.049681	0.092171	0.242443
H154	H	0.995714	0.050923	0.321164
O155	O	0.694027	0.000121	-0.297763
C156	C	0.711321	0.051114	-0.421093
C157	C	0.671302	0.051082	-0.339263
H158	H	0.692976	0.092318	-0.454663
H159	H	0.692900	0.009977	-0.454760
H160	H	0.777766	0.051087	-0.414412
H161	H	0.604851	0.051129	-0.345873
H162	H	0.689787	0.092215	-0.305626
H163	H	1.087852	-0.000040	0.452303
H164	H	0.842640	-0.159021	-0.076957
H165	H	0.817976	-0.000052	0.584370
H166	H	0.830510	-0.000024	0.435595
O167	O	0.770203	-0.000035	0.215199
C168	C	0.696695	-0.000013	0.337455
C169	C	0.778495	0.000007	0.297376
H170	H	0.703371	0.000034	0.403901
H171	H	0.663050	-0.041188	0.319120
H172	H	0.663100	0.041147	0.319008
H173	H	0.812155	-0.041125	0.315803
H174	H	0.812081	0.041209	0.315711
H175	H	1.027440	-0.000008	0.322857
H176	H	0.842240	-0.000022	0.338808
H177	H	1.027054	-0.840932	-0.261388
H178	H	0.705105	0.000003	-0.028701
H179	H	0.164585	0.000044	-0.309649
H180	H	0.426872	0.000010	-0.076575
H181	H	0.842729	-0.840999	-0.076962
O182	O	0.783891	-0.438935	-0.018228
C183	C	0.677503	-0.369094	-0.006575
C184	C	0.733398	-0.403148	-0.062458
H185	H	0.636654	-0.340161	-0.042313
H186	H	0.713194	-0.340060	0.034197
H187	H	0.641243	-0.401888	0.029769
H188	H	0.769670	-0.370396	-0.098852
H189	H	0.697662	-0.432191	-0.103177
O190	O	0.834646	-0.276141	-0.068891
C191	C	0.733846	-0.269641	0.031905
C192	C	0.789722	-0.235594	-0.024049
H193	H	0.697499	-0.236874	0.068162
H194	H	0.769555	-0.298604	0.072746
H195	H	0.693079	-0.298657	-0.003818
H196	H	0.830501	-0.206546	0.011610
H197	H	0.753965	-0.206668	-0.064893
