data_functionalizedCrystal
_audit_creation_method	'MofGen! by Chris Wilmer'
_symmetry_space_group_name_H-M	'P1'
_symmetry_Int_Tables_number	1
_symmetry_cell_setting	triclinic
loop_
_symmetry_equiv_pos_as_xyz
  x,y,z
_cell_length_a	14.971482
_cell_length_b	11.792241
_cell_length_c	13.448316
_cell_angle_alpha	89.993264
_cell_angle_beta	89.993798
_cell_angle_gamma	83.903012
loop_
_atom_site_label
_atom_site_type_symbol
_atom_site_fract_x
_atom_site_fract_y
_atom_site_fract_z
O1	O	1.187542	0.147889	-0.082679
O2	O	0.927212	0.165606	-0.082684
O3	O	1.063695	-0.008464	-0.082675
O4	O	1.051060	0.321959	-0.082689
O5	O	1.063677	-0.008474	0.082709
O6	O	0.927195	0.165595	0.082700
O7	O	1.187525	0.147879	0.082704
Cu8	Cu	1.057358	0.156736	0.097803
Cu9	Cu	1.057379	0.156749	-0.097783
O10	O	1.051042	0.321948	0.082695
C11	C	0.893876	0.164809	0.000007
C12	C	0.794569	0.162437	0.000005
C13	C	0.747910	0.161314	0.090157
C14	C	0.654603	0.159067	0.090158
C15	C	0.607955	0.157951	0.000007
C16	C	0.654620	0.159071	-0.090152
C17	C	0.747927	0.161310	-0.090152
C18	C	0.460140	0.154407	-0.090145
C19	C	0.366827	0.152171	-0.090146
C20	C	0.366816	0.152165	0.090165
C21	C	0.460122	0.154403	0.090165
C22	C	0.506781	0.155525	0.000006
C23	C	1.062892	-0.050755	0.000017
C24	C	1.060517	-0.176753	0.000016
C25	C	1.056149	-0.407437	-0.000001
C26	C	1.058576	-0.279068	0.000008
C27	C	1.220861	0.148675	0.000011
C28	C	1.320168	0.151048	0.000006
C29	C	1.051845	0.364240	0.000001
C30	C	1.054220	0.490238	-0.000004
N31	N	1.057350	0.156726	0.235367
N32	N	1.057394	0.156749	-0.235347
C33	C	1.117804	0.079680	0.287412
C34	C	1.117809	0.079679	0.391515
C35	C	1.057365	0.156731	0.443572
C36	C	0.996905	0.233781	0.391520
C37	C	0.996896	0.233775	0.287419
C38	C	0.996930	0.233789	0.608500
C39	C	0.996940	0.233796	0.712608
C40	C	1.117843	0.079692	0.712596
C41	C	1.117834	0.079687	0.608495
C42	C	1.057375	0.156738	0.556450
H43	H	0.328848	0.151263	-0.163555
H44	H	0.616633	0.158155	-0.163555
H45	H	1.167057	0.016951	0.566111
H46	H	0.947719	0.296538	0.754988
C47	C	1.184295	-0.005080	0.230155
C48	C	1.182172	-0.134330	0.244489
C49	C	1.248663	-0.219096	0.187235
C50	C	1.317277	-0.174612	0.115648
C51	C	1.319402	-0.045357	0.101311
C52	C	1.252911	0.039409	0.158564
H53	H	1.131377	-0.167265	0.297485
H54	H	1.247089	-0.314780	0.197849
H55	H	1.366497	-0.237361	0.073266
H56	H	1.370197	-0.012421	0.048315
H57	H	1.254485	0.135093	0.147950
H58	H	0.785884	0.162232	0.163569
H59	H	1.167034	0.016941	0.433889
C60	C	0.930398	0.318531	0.230166
C61	C	0.863941	0.403326	0.287423
C62	C	0.797437	0.488080	0.230173
C63	C	0.797390	0.488038	0.115665
C64	C	0.863849	0.403239	0.058402
C65	C	0.930353	0.318485	0.115652
H66	H	0.863974	0.403361	0.372194
H67	H	0.748240	0.550854	0.272563
H68	H	0.748160	0.550778	0.073285
H69	H	0.863816	0.403205	-0.026369
H70	H	0.979550	0.255711	0.073262
C71	C	0.511463	0.155650	-0.189322
C72	C	0.565923	0.255676	-0.214115
C73	C	0.617245	0.256928	-0.313289
C74	C	0.614107	0.158154	-0.387670
C75	C	0.559645	0.058121	-0.362879
C76	C	0.508323	0.056869	-0.263705
H77	H	0.568248	0.328801	-0.159052
H78	H	0.657561	0.330979	-0.331641
H79	H	0.652098	0.159081	-0.461084
H80	H	0.557320	-0.015004	-0.417942
H81	H	0.468007	-0.017183	-0.245353
H82	H	1.167071	0.016954	0.754977
H83	H	0.616620	0.158134	0.163569
H84	H	0.947695	0.296529	0.566129
H85	H	0.498100	0.155319	0.163575
H86	H	0.328822	0.151251	0.163576
H87	H	0.785915	0.162227	-0.163563
H88	H	0.947686	0.296514	0.433910
