data_functionalizedCrystal
_audit_creation_method	'MofGen! by Chris Wilmer'
_symmetry_space_group_name_H-M	'P1'
_symmetry_Int_Tables_number	1
_symmetry_cell_setting	triclinic
loop_
_symmetry_equiv_pos_as_xyz
  x,y,z
_cell_length_a	11.026607
_cell_length_b	11.026607
_cell_length_c	10.065918
_cell_angle_alpha	97.653451
_cell_angle_beta	82.291637
_cell_angle_gamma	71.413983
loop_
_atom_site_label
_atom_site_type_symbol
_atom_site_fract_x
_atom_site_fract_y
_atom_site_fract_z
O1	O	-1.747087	0.553904	0.113491
O2	O	-1.247087	1.053904	0.613491
O3	O	-1.380508	0.493141	0.113493
O4	O	-0.880508	0.993141	0.613493
O5	O	-1.533415	0.340232	0.113487
O6	O	-1.033415	0.840232	0.613487
O7	O	-1.594180	0.706814	0.113497
O8	O	-1.094180	1.206814	0.613497
O9	O	-1.492688	0.299659	-0.113502
O10	O	-0.992688	0.799659	0.386498
O11	O	-1.339781	0.452569	-0.113496
O12	O	-0.839781	0.952569	0.386504
O13	O	-1.706360	0.513332	-0.113498
O14	O	-1.206360	1.013332	0.386502
Zn15	Zn	-1.516604	0.476508	-0.149536
Zn16	Zn	-1.016604	0.976508	0.350464
Zn17	Zn	-1.570264	0.529965	0.149532
Zn18	Zn	-1.070264	1.029965	0.649532
O19	O	-1.553453	0.666241	-0.113492
O20	O	-1.053453	1.166241	0.386508
C21	C	-1.501842	0.272286	-0.000005
C22	C	-1.001842	0.772286	0.499995
C23	C	-1.468426	0.130273	-0.000000
C24	C	-0.968426	0.630273	0.500000
C25	C	-1.312485	0.461645	-0.000001
C26	C	-0.812485	0.961645	0.499999
C27	C	-1.170471	0.428228	-0.000000
C28	C	-0.670471	0.928228	0.500000
C29	C	-1.774384	0.544828	-0.000001
C30	C	-1.274384	1.044828	0.499999
C31	C	-1.916399	0.578247	0.000007
C32	C	-1.416399	1.078247	0.500007
C33	C	-1.560696	0.076624	0.000001
C34	C	-1.060696	0.576624	0.500001
C35	C	-1.526161	-0.070153	0.000006
C36	C	-1.026161	0.429847	0.500006
C37	C	-1.116822	0.520499	0.000003
C38	C	-0.616822	1.020499	0.500003
C39	C	-0.970043	0.485963	0.000004
C40	C	-0.470043	0.985963	0.500004
C41	C	-1.585027	0.734187	0.000004
C42	C	-1.085027	1.234187	0.500004
C43	C	-1.618444	0.876202	0.000008
C44	C	-1.118444	1.376202	0.500008
N45	N	-1.479992	0.440027	-0.353642
N46	N	-0.979992	0.940027	0.146358
C47	C	-1.557517	0.517270	-0.421420
C48	C	-1.057517	1.017270	0.078580
C49	C	-1.529347	0.489184	-0.578588
C50	C	-1.029347	0.989184	-0.078588
N51	N	-1.606884	0.566438	0.353637
N52	N	-1.106884	1.066438	0.853637
H53	H	-1.665257	0.139356	-0.000008
H54	H	-1.165257	0.639356	0.499992
Cl55	Cl	-1.345322	0.305813	-0.443685
Cl56	Cl	-0.845322	0.805813	0.056315
H57	H	-1.421593	-0.132881	0.000016
H58	H	-0.921593	0.367119	0.500016
Cl59	Cl	-1.213667	0.681941	0.000004
Cl60	Cl	-0.713667	1.181941	0.500004
Cl61	Cl	-1.741572	0.700647	-0.556329
Cl62	Cl	-1.241572	1.200647	-0.056329
H63	H	-1.723033	-0.061053	0.000110
H64	H	-1.223033	0.438947	0.500110
Cl65	Cl	-1.394672	0.354964	-0.668625
Cl66	Cl	-0.894672	0.854964	-0.168625
Cl67	Cl	-0.873200	0.324511	-0.000010
Cl68	Cl	-0.373200	0.824511	0.499990
Cl69	Cl	-1.013234	0.739694	-0.000008
Cl70	Cl	-0.513234	1.239694	0.499992
Cl71	Cl	-1.692198	0.651473	-0.331378
Cl72	Cl	-1.192198	1.151473	0.168622
Cl73	Cl	-1.306986	0.033431	0.000014
Cl74	Cl	-0.806986	0.533431	0.500014
Cl75	Cl	-1.073623	0.266784	-0.000014
Cl76	Cl	-0.573623	0.766784	0.499986
