data_functionalizedCrystal
_audit_creation_method	'MofGen! by Chris Wilmer'
_symmetry_space_group_name_H-M	'P1'
_symmetry_Int_Tables_number	1
_symmetry_cell_setting	triclinic
loop_
_symmetry_equiv_pos_as_xyz
  x,y,z
_cell_length_a	27.732048
_cell_length_b	10.489711
_cell_length_c	9.565339
_cell_angle_alpha	89.994873
_cell_angle_beta	89.995294
_cell_angle_gamma	83.584832
loop_
_atom_site_label
_atom_site_type_symbol
_atom_site_fract_x
_atom_site_fract_y
_atom_site_fract_z
O1	O	0.068119	1.691081	-0.116327
O2	O	0.074535	1.319598	-0.116321
O3	O	0.001002	1.516877	-0.116298
O4	O	0.141651	1.493802	-0.116351
O5	O	0.001007	1.516862	0.116222
O6	O	0.074539	1.319583	0.116199
O7	O	0.068123	1.691065	0.116193
Zn8	Zn	0.071332	1.505322	0.153114
Zn9	Zn	0.071326	1.505342	-0.153242
O10	O	0.141656	1.493787	0.116170
C11	C	0.074055	1.272080	-0.000059
C12	C	0.072615	1.130512	-0.000056
C13	C	0.116835	0.946181	-0.000088
C14	C	0.094744	1.039306	-0.114722
C15	C	0.094737	1.039264	0.114524
C16	C	0.047933	0.971412	-0.114813
C17	C	0.047932	0.971360	0.114536
C18	C	0.025807	1.064458	-0.000126
C19	C	-0.017005	1.516385	-0.000034
C20	C	-0.070669	1.514926	-0.000022
C21	C	-0.408811	1.622323	-0.000096
C22	C	-0.610504	1.616911	-0.000115
O23	O	-0.641144	1.715118	-0.000178
N24	N	-0.630362	1.499933	-0.000112
C25	C	-0.599792	1.384300	-0.000113
O26	O	-0.621310	1.284679	-0.000125
C27	C	-0.398100	1.389713	-0.000103
C28	C	-0.378245	1.506698	-0.000093
C29	C	-0.388956	1.739299	-0.000087
C30	C	-0.338536	1.740651	-0.000074
C31	C	-0.307970	1.625026	-0.000071
C32	C	-0.327825	1.508050	-0.000080
C33	C	-0.367531	1.274081	-0.000114
C34	C	-0.317105	1.275444	-0.000116
C35	C	-0.297251	1.392430	-0.000105
C36	C	-0.246839	1.393777	-0.000064
N37	N	-0.226982	1.510755	-0.000068
C38	C	-0.257547	1.626380	-0.000071
C39	C	-0.705684	1.381466	-0.000115
C40	C	-0.756107	1.380113	-0.000115
C41	C	-0.766816	1.612725	-0.000120
C42	C	-0.716392	1.614077	-0.000110
C43	C	-0.685827	1.498444	-0.000118
C44	C	-0.151660	1.629210	-0.000044
C45	C	-0.101235	1.630551	-0.000026
C46	C	-0.090531	1.397940	-0.000028
C47	C	-0.140951	1.396597	-0.000039
C48	C	-0.171516	1.512243	-0.000051
O49	O	-0.216170	1.295623	-0.000017
O50	O	-0.236020	1.725987	-0.000090
C51	C	-0.459231	1.620971	-0.000108
C52	C	-0.479086	1.503995	-0.000118
C53	C	-0.448521	1.388371	-0.000114
C54	C	-0.529509	1.502642	-0.000117
C55	C	-0.560075	1.618266	-0.000121
C56	C	-0.540217	1.735244	-0.000124
C57	C	-0.489797	1.736596	-0.000112
C58	C	-0.468378	1.271393	-0.000111
C59	C	-0.518799	1.270050	-0.000122
C60	C	-0.549364	1.385675	-0.000125
C61	C	0.159663	1.494279	-0.000097
C62	C	0.213327	1.495737	-0.000118
C63	C	0.068603	1.738584	-0.000072
C64	C	0.070043	1.880152	-0.000085
N65	N	0.071336	1.505317	0.362193
N66	N	0.071318	1.505357	-0.362321
C67	C	0.105331	1.414055	0.453385
C68	C	0.115106	1.529124	0.546558
C69	C	0.061565	1.390298	0.546576
C70	C	0.081133	1.620443	0.453314
C71	C	0.027573	1.481542	0.453323
C72	C	0.037329	1.596695	0.546454
H73	H	0.114545	1.069342	0.211439
O74	O	0.143442	1.311917	0.399233
H75	H	0.179728	1.331987	0.436575
H76	H	0.155294	0.894801	-0.000217
H77	H	0.008572	1.673973	0.587061
H78	H	-0.680802	1.287299	-0.000121
H79	H	0.028152	0.941200	0.211471
O80	O	-0.421920	1.864019	-0.000070
H81	H	-0.399634	1.945573	-0.000050
O82	O	-0.025188	1.132183	-0.000212
H83	H	-0.023764	1.237506	0.000695
O84	O	0.092130	1.749337	0.399283
H85	H	0.064055	1.825057	0.437426
O86	O	-0.021424	1.454830	0.399014
H87	H	-0.029446	1.359235	0.436297
H88	H	0.028151	0.941479	-0.211841
O89	O	-0.694979	1.740253	-0.000108
H90	H	-0.672259	1.746439	-0.094877
O91	O	-0.184619	1.753943	-0.000035
H92	H	-0.207843	1.758928	-0.094812
O93	O	-0.079819	1.756732	-0.000036
H94	H	-0.109548	1.836902	-0.000061
O95	O	-0.317123	1.866828	-0.000103
H96	H	-0.346855	1.946990	-0.000130
O97	O	-0.468391	1.862781	-0.000119
H98	H	-0.445682	1.868981	0.094659
H99	H	-0.791711	1.706871	-0.000122
H100	H	-0.772268	1.284851	-0.000099
H101	H	0.114542	1.069436	-0.211648
H102	H	-0.565113	1.829390	-0.000121
H103	H	-0.383687	1.178819	-0.000132
O104	O	-0.284137	1.150724	-0.000108
H105	H	-0.306419	1.069159	-0.000101
H106	H	-0.157118	1.301338	-0.000009
H107	H	-0.065635	1.303801	-0.000020
O108	O	-0.540212	1.143865	-0.000130
H109	H	-0.510481	1.063699	-0.000139
H110	H	-0.443496	1.177235	-0.000111
O111	O	0.164111	1.555762	0.600894
H112	H	0.192275	1.479850	0.563658
H113	H	0.053308	1.293012	0.587545
