data_functionalizedCrystal
_audit_creation_method	'MofGen! by Chris Wilmer'
_symmetry_space_group_name_H-M	'P1'
_symmetry_Int_Tables_number	1
_symmetry_cell_setting	triclinic
loop_
_symmetry_equiv_pos_as_xyz
  x,y,z
_cell_length_a	16.109318
_cell_length_b	16.053789
_cell_length_c	16.109301
_cell_angle_alpha	92.890227
_cell_angle_beta	83.465022
_cell_angle_gamma	92.885241
loop_
_atom_site_label
_atom_site_type_symbol
_atom_site_fract_x
_atom_site_fract_y
_atom_site_fract_z
O1	O	1.106246	0.069363	0.110058
O2	O	1.606246	0.569363	0.610058
O3	O	0.864187	0.069380	0.123343
O4	O	1.364187	0.569380	0.623343
O5	O	0.991865	0.069362	-0.004330
O6	O	1.491865	0.569362	0.495670
O7	O	0.978567	0.069380	0.237732
O8	O	1.478567	0.569380	0.737732
O9	O	0.985603	-0.069497	-0.010585
O10	O	1.485603	0.430503	0.489415
O11	O	0.857924	-0.069479	0.117088
O12	O	1.357924	0.430521	0.617088
O13	O	1.099983	-0.069497	0.103803
O14	O	1.599983	0.430503	0.603803
Zn15	Zn	0.977959	-0.091535	0.109453
Zn16	Zn	1.477959	0.408465	0.609453
Zn17	Zn	0.986211	0.091418	0.117694
Zn18	Zn	1.486211	0.591418	0.617694
O19	O	0.972304	-0.069479	0.231477
O20	O	1.472304	0.430521	0.731477
C21	C	0.830081	-0.000047	0.119675
C22	C	1.330081	0.499953	0.619675
C23	C	0.737786	-0.000041	0.118055
C24	C	1.237786	0.499959	0.618055
C25	C	0.442126	0.075636	0.116229
C26	C	0.942126	0.575636	0.616229
C27	C	0.528847	0.075641	0.117746
C28	C	1.028847	0.575641	0.617746
C29	C	0.522038	-0.075751	0.110915
C30	C	1.022038	0.424249	0.610915
C31	C	0.435319	-0.075755	0.109392
C32	C	0.935319	0.424245	0.609392
C33	C	0.395365	-0.000059	0.112053
C34	C	0.895365	0.499941	0.612053
C35	C	0.568805	-0.000050	0.115094
C36	C	1.068805	0.499950	0.615094
C37	C	0.662832	-0.000045	0.116740
C38	C	1.162832	0.499955	0.616740
C39	C	0.301332	-0.000064	0.110406
C40	C	0.801332	0.499936	0.610406
N41	N	0.972334	-0.216396	0.103828
N42	N	1.472334	0.283604	0.603828
C43	C	1.020773	-0.260086	0.152306
C44	C	1.520773	0.239914	0.652306
C45	C	1.016850	-0.347493	0.148366
C46	C	1.516850	0.152507	0.648366
C47	C	0.964481	-0.391208	0.095951
C48	C	1.464481	0.108792	0.595951
C49	C	0.916039	-0.347512	0.047467
C50	C	1.416039	0.152488	0.547467
C51	C	0.919968	-0.260106	0.051403
C52	C	1.419968	0.239894	0.551403
C53	C	0.947330	-0.652619	0.078765
C54	C	1.447330	-0.152619	0.578765
C55	C	0.943403	-0.740031	0.074834
C56	C	1.443403	-0.240031	0.574834
C57	C	1.044215	-0.740006	0.175732
C58	C	1.544215	-0.240006	0.675732
C59	C	1.048135	-0.652599	0.179667
C60	C	1.548135	-0.152599	0.679667
C61	C	0.999697	-0.608910	0.131180
C62	C	1.499697	-0.108910	0.631180
N63	N	0.960467	-0.480552	0.091924
N64	N	1.460467	0.019448	0.591924
N65	N	1.003716	-0.519567	0.135203
N66	N	1.503716	-0.019567	0.635203
C67	C	1.134089	-0.000067	0.107471
C68	C	1.634089	0.499933	0.607471
C69	C	1.226383	-0.000068	0.109092
C70	C	1.726383	0.499932	0.609092
C71	C	0.988195	-0.000068	-0.038433
C72	C	1.488195	0.499932	0.461567
C73	C	0.986580	-0.000069	-0.130728
C74	C	1.486580	0.499931	0.369272
N75	N	0.991843	0.216279	0.123312
N76	N	1.491843	0.716279	0.623312
C77	C	1.058588	-0.000061	-0.352996
C78	C	1.558588	0.499939	0.147004
C79	C	1.057064	-0.000054	-0.439716
C80	C	1.557064	0.499946	0.060284
C81	C	0.905577	-0.000046	-0.419851
C82	C	1.405577	0.499954	0.080149
C83	C	0.907101	-0.000047	-0.333132
C84	C	1.407101	0.499953	0.166868
C85	C	0.983609	-0.000059	-0.299707
C86	C	1.483609	0.499941	0.200293
C87	C	0.980561	-0.000051	-0.473146
C88	C	1.480561	0.499949	0.026854
C89	C	0.978908	-0.000043	-0.567172
C90	C	1.478908	0.499957	-0.067172
C91	C	0.985262	-0.000065	-0.205675
C92	C	1.485262	0.499935	0.294325
C93	C	0.975974	-0.000047	0.265579
C94	C	1.475974	0.499953	0.765579
C95	C	0.977590	-0.000040	0.357875
C96	C	1.477590	0.499960	0.857875
H97	H	0.566917	0.137280	0.121146
H98	H	1.066917	0.637280	0.621146
N99	N	1.104628	-0.605453	0.236192
N100	N	1.604628	-0.105453	0.736192
H101	H	1.070053	-0.569187	0.278509
H102	H	1.570053	-0.069187	0.778509
H103	H	1.134710	-0.646450	0.266245
H104	H	1.634710	-0.146450	0.766245
N105	N	1.096458	-0.787126	0.228025
N106	N	1.596458	-0.287126	0.728025
H107	H	1.086025	-0.849131	0.217580
H108	H	1.586025	-0.349131	0.717580
H109	H	1.157613	-0.771843	0.212308
H110	H	1.657613	-0.271843	0.712308
N111	N	0.823061	-0.000037	-0.455902
N112	N	1.323061	0.499963	0.044098
H113	H	0.833470	-0.000040	-0.518925
H114	H	1.333470	0.499960	-0.018925
H115	H	0.787933	-0.051513	-0.438728
H116	H	1.287933	0.448487	0.061272
N117	N	1.137933	-0.000055	-0.497192
N118	N	1.637933	0.499945	0.002808
H119	H	1.186628	-0.000063	-0.462856
H120	H	1.686628	0.499937	0.037144
H121	H	1.138278	-0.051531	-0.535930
H122	H	1.638278	0.448469	-0.035930
H123	H	0.846041	-0.000043	-0.289741
H124	H	1.346041	0.499957	0.210259
H125	H	0.409598	0.137272	0.118394
H126	H	0.909598	0.637272	0.618394
N127	N	1.077263	-0.212947	0.208839
N128	N	1.577263	0.287053	0.708839
H129	H	1.119595	-0.176682	0.174288
H130	H	1.619595	0.323318	0.674288
H131	H	1.042628	-0.176729	0.251147
H132	H	1.542628	0.323271	0.751147
N133	N	0.565131	-0.157391	0.108052
N134	N	1.065131	0.342609	0.608052
H135	H	0.627163	-0.145904	0.109655
H136	H	1.127163	0.354096	0.609655
H137	H	0.541729	-0.190443	0.157805
H138	H	1.041729	0.309557	0.657805
H139	H	0.397244	-0.137399	0.105990
H140	H	0.897244	0.362601	0.605990
N141	N	0.859556	-0.394665	-0.009063
N142	N	1.359556	0.105335	0.490937
H143	H	0.799747	-0.379456	0.007999
H144	H	1.299747	0.120544	0.507999
H145	H	0.876729	-0.379444	-0.068846
H146	H	1.376729	0.120556	0.431154
N147	N	1.141102	-0.000072	-0.316942
N148	N	1.641102	0.499928	0.183058
H149	H	1.188369	-0.000071	-0.363862
H150	H	1.688369	0.499929	0.136138
H151	H	1.147355	0.051404	-0.279070
H152	H	1.647355	0.551404	0.220930
H153	H	0.900753	-0.775621	0.032152
H154	H	1.400753	-0.275621	0.532152
H155	H	0.907888	-0.617058	0.039283
H156	H	1.407888	-0.117058	0.539283
H157	H	1.056296	-0.383062	0.187840
H158	H	1.556296	0.116938	0.687840
H159	H	0.880523	-0.224535	0.011927
H160	H	1.380523	0.275465	0.511927
