data_functionalizedCrystal
_audit_creation_method	'MofGen! by Chris Wilmer'
_symmetry_space_group_name_H-M	'P1'
_symmetry_Int_Tables_number	1
_symmetry_cell_setting	triclinic
loop_
_symmetry_equiv_pos_as_xyz
  x,y,z
_cell_length_a	14.628931
_cell_length_b	21.606444
_cell_length_c	21.606444
_cell_angle_alpha	60.001331
_cell_angle_beta	90.001559
_cell_angle_gamma	59.998872
loop_
_atom_site_label
_atom_site_type_symbol
_atom_site_fract_x
_atom_site_fract_y
_atom_site_fract_z
Zr1	Zr	0.880601	0.677451	-0.081202
O2	O	0.734631	0.806574	-0.180024
O3	O	0.925350	0.548331	-0.050911
O4	O	0.925338	0.677455	-0.180029
O5	O	0.734650	0.677445	0.050948
O6	O	1.075770	0.677455	-0.180029
O7	O	0.734643	0.677450	-0.050906
O8	O	1.075791	0.446476	0.050940
O9	O	0.734629	0.908424	-0.180021
O10	O	1.056699	0.601439	-0.037988
O11	O	0.944439	0.601436	0.038024
O12	O	0.944425	0.753463	-0.113996
O13	O	0.832165	0.753459	-0.037983
Zr14	Zr	1.120535	0.677444	0.081243
Zr15	Zr	1.120523	0.677451	-0.081202
Zr16	Zr	0.880613	0.677444	0.081244
Zr17	Zr	0.880599	0.839891	-0.081197
Zr18	Zr	1.120537	0.515004	0.081238
O19	O	1.075786	0.806564	0.050952
O20	O	1.075768	0.806574	-0.180025
O21	O	0.734648	0.806564	0.050952
O22	O	1.266505	0.548321	0.180066
O23	O	1.266488	0.548331	-0.050911
O24	O	0.925367	0.548321	0.180066
O25	O	1.266486	0.677450	-0.050907
O26	O	1.075797	0.677440	0.180070
O27	O	0.925365	0.677440	0.180070
O28	O	1.266493	0.677445	0.050947
O29	O	0.925335	0.908424	-0.180021
O30	O	1.075801	0.446471	0.180063
O31	O	1.266507	0.446471	0.180062
O32	O	1.266497	0.446476	0.050940
O33	O	0.734639	0.908419	-0.050899
O34	O	0.925345	0.908419	-0.050899
O35	O	1.056710	0.601433	0.114037
O36	O	1.168970	0.601436	0.038024
O37	O	1.056697	0.753459	-0.037983
O38	O	0.944437	0.753456	0.038029
C39	C	1.000571	0.474260	0.000014
C40	C	1.000572	0.405299	0.000012
C41	C	1.059168	0.372904	-0.039667
C42	C	1.059172	0.308104	-0.039662
C43	C	1.000573	0.275705	0.000018
C44	C	0.941975	0.308104	0.039702
C45	C	0.941978	0.372898	0.039701
C46	C	0.941962	0.046794	0.039708
C47	C	0.941960	-0.018003	0.039704
C48	C	1.059156	-0.018000	-0.039655
C49	C	1.059159	0.046794	-0.039656
C50	C	1.000566	0.079184	0.000031
C51	C	1.000565	0.149446	0.000026
C52	C	1.000568	0.205448	0.000019
C53	C	0.700463	0.677448	0.000021
C54	C	0.598610	0.677448	0.000021
C55	C	0.553197	0.677450	-0.053305
C56	C	0.447926	0.677450	-0.053306
C57	C	1.300673	0.677448	0.000020
C58	C	1.402526	0.677448	0.000020
C59	C	1.000553	0.677456	-0.203174
C60	C	1.000548	0.677459	-0.272136
C61	C	1.000565	0.880636	0.000027
C62	C	1.000564	0.949596	0.000029
C63	C	0.941941	0.756813	-0.344210
C64	C	0.941951	0.756811	-0.409005
C65	C	1.000561	0.677453	-0.401725
C66	C	1.059175	0.598093	-0.329643
C67	C	1.059171	0.598097	-0.264850
C68	C	1.059192	0.598078	-0.590946
C69	C	1.059189	0.598081	-0.655747
C70	C	0.941972	0.756792	-0.735101
C71	C	0.941969	0.756796	-0.670308
C72	C	1.000587	0.677436	-0.598233
C73	C	1.000577	0.677440	-0.527975
C74	C	1.000565	0.677449	-0.471980
C75	C	1.000583	0.677439	0.203215
C76	C	1.000588	0.677436	0.272178
C77	C	1.300676	0.474260	0.000014
C78	C	1.402530	0.405299	0.000011
C79	C	1.000586	0.474251	0.203209
C80	C	1.000593	0.405288	0.272169
C81	C	1.300692	0.474251	0.203208
C82	C	1.402551	0.405288	0.272168
C83	C	0.700444	0.880644	-0.203167
C84	C	0.598585	0.949607	-0.272127
C85	C	0.700460	0.880636	0.000028
C86	C	0.598606	0.949596	0.000030
C87	C	1.000550	0.880644	-0.203167
C88	C	1.000543	0.949607	-0.272128
C89	C	1.391758	0.372917	-0.039674
C90	C	1.487451	0.308130	-0.039692
C91	C	1.593916	0.275723	-0.000019
C92	C	1.604687	0.308112	0.039668
C93	C	1.508994	0.372902	0.039681
C94	C	1.059200	0.372900	0.344238
C95	C	1.059202	0.308111	0.409039
C96	C	1.000602	0.275706	0.401770
C97	C	0.941987	0.308100	0.329694
C98	C	0.941980	0.372892	0.264894
C99	C	1.508994	0.372904	0.264875
C100	C	1.604710	0.308114	0.329664
C101	C	1.593982	0.275706	0.401746
C102	C	1.487528	0.308097	0.409038
C103	C	1.391814	0.372889	0.344249
C104	C	0.492142	0.981999	-0.264834
C105	C	0.396426	1.046809	-0.329623
C106	C	0.407154	1.079220	-0.401704
C107	C	0.513608	1.046826	-0.408996
C108	C	0.609322	0.982022	-0.344208
C109	C	0.609378	0.981985	0.039709
C110	C	0.513685	1.046790	0.039708
C111	C	0.407220	1.079199	0.000033
C112	C	0.396449	1.046807	-0.039651
C113	C	0.492141	0.982008	-0.039654
C114	C	1.059155	0.981992	-0.264834
C115	C	1.059171	1.046781	-0.329623
C116	C	1.000568	1.079190	-0.401705
C117	C	0.941955	1.046799	-0.408997
C118	C	0.941946	0.982006	-0.344209
H119	H	1.106869	-0.044382	-0.071967
N120	N	1.276936	0.407858	-0.082465
H121	H	1.267963	0.434750	-0.137973
H122	H	1.218011	0.453781	-0.076379
N123	N	1.122445	0.273169	0.486771
H124	H	1.113563	0.227207	0.526724
H125	H	1.091688	0.322657	0.492768
H126	H	0.483354	0.955638	-0.071963
N127	N	0.303907	1.149108	-0.471575
H128	H	0.303850	1.126561	-0.502764
H129	H	0.303902	1.202859	-0.502708
N130	N	0.878734	0.842409	-0.352069
H131	H	0.887622	0.830373	-0.300087
H132	H	0.796780	0.877066	-0.380725
N133	N	0.525173	1.081780	-0.486743
H134	H	0.567445	1.108667	-0.492825
H135	H	0.448344	1.127709	-0.526626
H136	H	0.441570	0.677450	0.045675
H137	H	0.309752	1.073204	-0.071953
H138	H	1.106919	0.399277	0.350171
H139	H	1.671928	0.222948	0.454494
N140	N	0.878800	0.842399	-0.486742
H141	H	0.841685	0.892672	-0.481523
H142	H	0.819881	0.845892	-0.515392
H143	H	0.522476	1.073152	0.072026
N144	N	1.000565	1.149081	-0.471585
H145	H	1.033916	1.126536	-0.502776
H146	H	1.046568	1.164654	-0.455966
N147	N	1.475820	0.273206	-0.082499
H148	H	1.393853	0.303564	-0.107622
H149	H	1.512980	0.208159	-0.046075
H150	H	0.894269	0.281715	0.072014
N151	N	1.520620	0.407826	0.082487
H152	H	1.562906	0.358382	0.137991
H153	H	1.443811	0.453800	0.076418
H154	H	0.894213	0.955646	-0.350157
N155	N	1.122394	1.081707	-0.321749
H156	H	1.159505	1.051346	-0.266253
H157	H	1.068592	1.146753	-0.346904
N158	N	0.878793	0.273140	0.321859
H159	H	0.887705	0.227177	0.373850
H160	H	0.909573	0.246297	0.293214
N161	N	0.396185	0.677465	-0.113787
H162	H	0.396324	0.623502	-0.089276
H163	H	0.440977	0.677502	-0.149359
H164	H	1.000617	0.222948	0.454541
H165	H	1.106876	0.955615	-0.206148
N166	N	0.546888	0.677436	0.060500
H167	H	0.467321	0.731401	0.035987
H168	H	0.591737	0.677400	0.096071
N169	N	0.878697	0.407867	0.187163
H170	H	0.841559	0.377517	0.192399
H171	H	0.932445	0.396619	0.158508
H172	H	0.329310	1.131962	0.000042
N173	N	1.697123	0.205844	-0.000037
H174	H	1.674133	0.190251	-0.031199
H175	H	1.743151	0.152117	0.053718
H176	H	0.696059	0.955603	0.072022
N177	N	1.122364	0.407851	-0.082471
H178	H	1.159485	0.377492	-0.107606
H179	H	1.181283	0.396575	-0.046042
N180	N	0.878750	1.081758	-0.486744
H181	H	0.887653	1.127720	-0.526674
H182	H	0.796793	1.108603	-0.492750
N183	N	0.480541	0.947061	-0.187097
H184	H	0.517643	0.958331	-0.158443
H185	H	0.517609	0.882029	-0.158505
N186	N	0.724127	0.947085	-0.352080
H187	H	0.716389	0.977453	-0.407576
H188	H	0.766383	0.882042	-0.326936
N189	N	1.475965	0.273137	0.486785
H190	H	1.552757	0.227175	0.526715
H191	H	1.433659	0.246292	0.492791
H192	H	0.894238	0.821417	-0.676243
N193	N	0.604914	0.677460	-0.113786
H194	H	0.560144	0.677463	-0.149374
H195	H	0.684482	0.623493	-0.089214
N196	N	1.122370	0.273163	-0.082460
H197	H	1.159485	0.303524	-0.107601
H198	H	1.068552	0.284440	-0.122345
H199	H	1.517750	0.399281	0.206188
H200	H	1.691381	0.281749	0.323713
H201	H	1.106902	0.533479	-0.323720
H202	H	1.106871	0.073174	-0.071970
H203	H	1.106894	0.533478	-0.206164
N204	N	0.878761	-0.052954	0.082508
H205	H	0.841647	-0.022606	0.107653
H206	H	0.932581	-0.117999	0.122391
H207	H	0.894257	0.073155	0.072027
N208	N	1.719520	0.273156	0.082456
H209	H	1.778497	0.227197	0.076423
H210	H	1.728399	0.246309	0.137946
H211	H	0.894260	0.399276	0.072009
H212	H	0.894246	0.821411	-0.793795
H213	H	1.305147	0.399248	0.350198
N214	N	0.281617	1.081739	-0.321748
H215	H	0.289354	1.051362	-0.266252
H216	H	0.239348	1.070471	-0.346907
H217	H	1.106920	0.533455	-0.649811
H218	H	1.106923	0.533459	-0.532268
