data_functionalizedCrystal
_audit_creation_method	'MofGen! by Chris Wilmer'
_symmetry_space_group_name_H-M	'P1'
_symmetry_Int_Tables_number	1
_symmetry_cell_setting	triclinic
loop_
_symmetry_equiv_pos_as_xyz
  x,y,z
_cell_length_a	15.995350
_cell_length_b	10.654550
_cell_length_c	9.730223
_cell_angle_alpha	90.006075
_cell_angle_beta	90.000637
_cell_angle_gamma	83.988653
loop_
_atom_site_label
_atom_site_type_symbol
_atom_site_fract_x
_atom_site_fract_y
_atom_site_fract_z
O1	O	-1.111925	-0.161876	-0.114173
O2	O	-0.868266	-0.181865	-0.114201
O3	O	-0.995698	0.010942	-0.114178
O4	O	-0.984493	-0.354683	-0.114196
O5	O	-0.995687	0.010954	0.114402
O6	O	-0.868256	-0.181853	0.114379
O7	O	-1.111915	-0.161864	0.114407
Zn8	Zn	-0.990084	-0.171857	0.150685
Zn9	Zn	-0.990097	-0.171872	-0.150479
O10	O	-0.984483	-0.354671	0.114384
C11	C	-0.837061	-0.181033	0.000085
C12	C	-0.744096	-0.178555	0.000075
C13	C	-0.994870	0.057735	0.000111
C14	C	-0.992409	0.197146	0.000109
C15	C	-1.143119	-0.162696	0.000118
C16	C	-1.236084	-0.165174	0.000119
C17	C	-0.406297	-0.169658	0.000104
C18	C	-0.452934	-0.032344	0.000621
C19	C	-0.549639	-0.034822	0.000096
C20	C	-0.573883	-0.174071	0.000090
C21	C	-0.533195	-0.241806	-0.130438
C22	C	-0.436540	-0.238356	-0.130538
C23	C	-0.436206	-0.241180	0.129400
C24	C	-0.533151	-0.241147	0.131116
C25	C	-0.668595	-0.176573	0.000078
C26	C	-0.311585	-0.167161	0.000107
C27	C	-0.985311	-0.401464	0.000091
C28	C	-0.987772	-0.540875	0.000085
N29	N	-0.990081	-0.171846	0.356221
C30	C	-1.067438	0.277612	0.000117
C31	C	-1.065121	0.408602	0.000100
C32	C	-0.912737	0.378649	0.000072
C33	C	-0.915055	0.247661	0.000080
N34	N	-0.990107	-0.171873	-0.356015
C35	C	-0.938881	-0.095655	0.572082
C36	C	-0.938870	-0.095638	0.428199
C37	C	-1.041312	-0.248067	0.428134
C38	C	-1.041327	-0.248077	0.572014
H39	H	-0.577754	0.018420	0.093664
F40	F	-0.830416	0.432421	0.000041
H41	H	-1.130424	0.236488	0.000138
F42	F	-0.884345	-0.014521	0.351681
H43	H	-0.434089	0.022548	0.094228
F44	F	-1.095819	-0.329167	0.351526
H45	H	-0.433027	0.022286	-0.092465
H46	H	-1.126218	0.474113	0.000104
H47	H	-0.853953	0.182141	0.000069
F48	F	-0.412238	-0.173806	-0.258066
H49	H	-0.897174	-0.033604	0.630676
H50	H	-0.577189	0.018770	-0.093630
F51	F	-0.395152	-0.370124	-0.138287
H52	H	-0.547915	-0.344109	-0.135296
H53	H	-0.561301	-0.194770	-0.227576
H54	H	-0.415405	-0.196284	0.228337
F55	F	-0.568391	-0.176417	0.257332
H56	H	-0.549105	-0.342692	0.138996
F57	F	-0.395461	-0.373508	0.130550
H58	H	-1.083046	-0.310144	0.630559
