data_functionalizedCrystal
_audit_creation_method	'MofGen! by Chris Wilmer'
_symmetry_space_group_name_H-M	'P1'
_symmetry_Int_Tables_number	1
_symmetry_cell_setting	triclinic
loop_
_symmetry_equiv_pos_as_xyz
  x,y,z
_cell_length_a	16.109301
_cell_length_b	15.944551
_cell_length_c	14.586319
_cell_angle_alpha	89.995256
_cell_angle_beta	89.999213
_cell_angle_gamma	83.480109
loop_
_atom_site_label
_atom_site_type_symbol
_atom_site_fract_x
_atom_site_fract_y
_atom_site_fract_z
O1	O	1.103166	0.107966	-0.076184
O2	O	0.861108	0.121403	-0.076199
O3	O	0.988747	-0.007593	-0.076183
O4	O	0.975527	0.236961	-0.076200
O5	O	0.988738	-0.007595	0.076298
O6	O	0.861099	0.121401	0.076282
O7	O	1.103157	0.107964	0.076296
Cu8	Cu	0.982127	0.114682	0.090212
Cu9	Cu	0.982138	0.114685	-0.090114
O10	O	0.975518	0.236960	0.076280
C11	C	0.830129	0.120857	0.000039
C12	C	0.737833	0.119226	0.000034
C13	C	0.515584	0.191975	0.000040
C14	C	0.428863	0.190435	0.000046
C15	C	0.448688	0.037387	0.000053
C16	C	0.535407	0.038927	0.000053
C17	C	0.568853	0.116224	0.000042
C18	C	0.395412	0.113143	0.000047
C19	C	0.301386	0.111473	0.000054
C20	C	0.662885	0.117894	0.000037
C21	C	0.988194	-0.038887	0.000057
C22	C	0.986548	-0.132133	0.000058
C23	C	0.903499	-0.346962	0.000040
C24	C	0.942060	-0.407993	0.075225
C25	C	0.983572	-0.302858	0.000051
C26	C	0.942088	-0.407975	-0.075109
C27	C	0.980691	-0.467769	0.000040
C28	C	1.022155	-0.362660	0.075297
C29	C	1.022171	-0.362636	-0.075104
C30	C	1.060790	-0.423649	0.000099
C31	C	0.985229	-0.207856	0.000058
C32	C	0.979039	-0.562770	0.000039
C33	C	1.134136	0.108510	0.000056
C34	C	1.226432	0.110141	0.000055
C35	C	0.976071	0.268254	0.000038
C36	C	0.977717	0.361500	0.000031
N37	N	0.982126	0.114680	0.217044
N38	N	0.982146	0.114680	-0.216946
C39	C	1.038663	0.057580	0.452057
C40	C	1.038666	0.057578	0.548038
C41	C	0.925602	0.171783	0.548034
C42	C	0.925597	0.171780	0.452054
C43	C	0.982132	0.114680	0.404068
C44	C	0.982140	0.114680	0.596029
C45	C	0.982142	0.114679	0.700096
C46	C	0.982129	0.114680	0.299995
H47	H	0.385495	0.252119	0.000045
N48	N	0.897189	-0.434616	0.159410
H49	H	0.896885	-0.497924	0.159089
H50	H	0.926860	-0.417269	0.216150
N51	N	0.864640	0.233377	0.599793
H52	H	0.828826	0.269548	0.554825
H53	H	0.827887	0.201213	0.639626
N54	N	0.592861	-0.042785	0.000054
H55	H	0.629286	-0.045554	-0.056469
H56	H	0.629226	-0.045510	0.056618
N57	N	1.066995	-0.335971	-0.159296
H58	H	1.117313	-0.307770	-0.140140
H59	H	1.085712	-0.387279	-0.197822
N60	N	0.897214	-0.434563	-0.159302
H61	H	0.926859	-0.417257	-0.216085
H62	H	0.896912	-0.497869	-0.158910
N63	N	1.099625	-0.004006	0.400287
H64	H	1.158634	0.005678	0.416980
H65	H	1.089973	-0.063597	0.417016
N66	N	0.815462	-0.302812	0.000122
H67	H	0.785320	-0.319181	0.056966
H68	H	0.817259	-0.239704	-0.000495
H69	H	0.421446	-0.025546	0.000067
N70	N	1.099650	-0.003996	0.599799
H71	H	1.135465	-0.040162	0.554833
H72	H	1.136399	0.028188	0.639608
N73	N	0.864614	0.233362	0.400286
H74	H	0.828803	0.269538	0.445247
H75	H	0.896437	0.270504	0.360452
H76	H	0.542812	0.254914	0.000037
H77	H	1.055990	-0.342682	0.138930
N78	N	1.148903	-0.467606	0.000151
H79	H	1.179028	-0.451143	0.056963
H80	H	1.147249	-0.530734	-0.000423
