data_functionalizedCrystal
_audit_creation_method	'MofGen! by Chris Wilmer'
_symmetry_space_group_name_H-M	'P1'
_symmetry_Int_Tables_number	1
_symmetry_cell_setting	triclinic
loop_
_symmetry_equiv_pos_as_xyz
  x,y,z
_cell_length_a	10.967926
_cell_length_b	13.339070
_cell_length_c	10.065875
_cell_angle_alpha	78.818403
_cell_angle_beta	93.120479
_cell_angle_gamma	80.176303
loop_
_atom_site_label
_atom_site_type_symbol
_atom_site_fract_x
_atom_site_fract_y
_atom_site_fract_z
O1	O	1.672492	-0.178655	0.279841
O2	O	1.323424	-0.181580	0.197739
O3	O	1.457893	-0.031346	0.229397
O4	O	1.538023	-0.328889	0.248182
O5	O	1.432291	-0.060114	0.450358
O6	O	1.297823	-0.210348	0.418700
O7	O	1.646891	-0.207423	0.500802
Zn8	Zn	1.468292	-0.213453	0.494833
Zn9	Zn	1.502023	-0.175550	0.203707
O10	O	1.512422	-0.357657	0.469144
C11	C	1.265034	-0.193578	0.297497
C12	C	1.129187	-0.186454	0.265547
C13	C	1.055360	-0.198181	0.365767
C14	C	0.914955	-0.190819	0.332748
C15	C	1.431557	-0.007530	0.336699
C16	C	1.391212	0.106293	0.327225
C17	C	1.704890	0.459236	0.401067
C18	C	1.742799	0.352293	0.409976
C19	C	1.654906	0.290788	0.389289
C20	C	1.529097	0.336236	0.359691
C21	C	1.491183	0.443188	0.350791
C22	C	1.441199	0.274740	0.339013
C23	C	1.315390	0.320188	0.309415
C24	C	1.277483	0.427129	0.300515
C25	C	1.365376	0.488635	0.321203
C26	C	1.479112	0.167788	0.347913
C27	C	1.265405	0.151739	0.297637
C28	C	1.227497	0.258682	0.288727
C29	C	1.705281	-0.195425	0.401041
C30	C	1.841129	-0.202547	0.432982
C31	C	1.538753	0.618522	0.361882
C32	C	1.579083	0.504683	0.371479
N33	N	1.445280	-0.239321	0.693521
N34	N	1.525041	-0.149675	0.005021
C35	C	1.494006	-0.184543	0.772772
C36	C	1.476308	-0.204460	0.925772
H37	H	1.581546	0.130795	0.372012
H38	H	0.874220	-0.175325	0.222493
Br39	Br	1.123247	-0.223993	0.549527
Br40	Br	1.061297	-0.160623	0.081786
Br41	Br	1.384920	-0.307200	1.001453
H42	H	1.334517	0.575718	0.313945
Br43	Br	1.353896	-0.342056	0.769208
H44	H	1.579858	-0.088025	0.959606
Br45	Br	1.584984	-0.081531	0.696990
H46	H	0.881861	-0.218035	0.543237
H47	H	1.685779	0.203711	0.396545
Br48	Br	1.913534	0.290624	0.450115
Br49	Br	1.056762	0.320375	0.248552
H50	H	1.776438	0.509321	0.417918
H51	H	1.175040	0.464128	0.276425
H52	H	1.193834	0.101661	0.280798
