data_functionalizedCrystal
_audit_creation_method	'MofGen! by Chris Wilmer'
_symmetry_space_group_name_H-M	'P1'
_symmetry_Int_Tables_number	1
_symmetry_cell_setting	triclinic
loop_
_symmetry_equiv_pos_as_xyz
  x,y,z
_cell_length_a	15.298001
_cell_length_b	15.297723
_cell_length_c	15.296720
_cell_angle_alpha	91.594112
_cell_angle_beta	91.647471
_cell_angle_gamma	91.639445
loop_
_atom_site_label
_atom_site_type_symbol
_atom_site_fract_x
_atom_site_fract_y
_atom_site_fract_z
Zn1	Zn	-1.303469	-0.253680	-0.692232
Zn2	Zn	-1.351341	-0.368195	-0.529880
Zn3	Zn	-1.180712	-0.245392	-0.521543
Zn4	Zn	-1.189008	-0.415991	-0.644267
O5	O	-1.256133	-0.320814	-0.596981
O6	O	-1.429131	-0.252336	-0.694259
O7	O	-1.345270	-0.328433	-0.409469
O8	O	-1.173489	-0.127170	-0.560770
O9	O	-1.464302	-0.336470	-0.574980
O10	O	-1.263678	-0.133259	-0.686175
O11	O	-1.219910	-0.238211	-0.403344
O12	O	-1.062501	-0.284557	-0.514260
O13	O	-1.187628	-0.417932	-0.769935
O14	O	-1.068596	-0.409895	-0.604424
O15	O	-1.271722	-0.298682	-0.805175
O16	O	-1.353314	-0.493856	-0.528470
O17	O	-1.234048	-0.528972	-0.612509
C18	C	-1.034612	-0.351514	-0.553233
C19	C	-0.939846	-0.364672	-0.534535
C20	C	-1.299797	-0.542353	-0.566212
C21	C	-1.318551	-0.637123	-0.553093
C22	C	-0.913631	-0.414554	-0.463573
C23	C	-0.824594	-0.426919	-0.446009
C24	C	-0.761762	-0.389398	-0.499401
C25	C	-0.787977	-0.339510	-0.570361
C26	C	-0.877023	-0.327149	-0.587931
C27	C	-0.725154	-0.301993	-0.623759
C28	C	-0.751369	-0.252105	-0.694719
C29	C	-0.840407	-0.239746	-0.712285
C30	C	-0.903238	-0.277267	-0.658893
C31	C	-0.636108	-0.314354	-0.606189
C32	C	-0.599500	-0.226949	-0.730547
C33	C	-0.688537	-0.214584	-0.748111
C34	C	-1.225260	-0.364563	-0.819354
C35	C	-1.212104	-0.383206	-0.914116
C36	C	-0.478518	-0.289988	-0.640892
C37	C	-0.573285	-0.276831	-0.659585
C38	C	-1.212318	-0.098411	-0.627893
C39	C	-1.193648	-0.003636	-0.641066
C40	C	-1.122777	0.022612	-0.691004
C41	C	-1.105239	0.111659	-0.703377
C42	C	-1.158565	0.174468	-0.665807
C43	C	-1.229433	0.148221	-0.615862
C44	C	-1.246977	0.059164	-0.603494
C45	C	-1.282765	0.211020	-0.578297
C46	C	-1.353633	0.184773	-0.528352
C47	C	-1.371174	0.095725	-0.515985
C48	C	-1.317847	0.032917	-0.553555
C49	C	-1.265221	0.300076	-0.590665
C50	C	-1.389421	0.336629	-0.503155
C51	C	-1.406959	0.247582	-0.490782
C52	C	-1.350162	-0.187416	-1.254626
C53	C	-1.362528	-0.169901	-1.165593
C54	C	-1.324923	-0.223225	-1.102720
C55	C	-1.274950	-0.294069	-1.128888
C56	C	-1.262588	-0.311590	-1.217930
C57	C	-1.237349	-0.347399	-1.066023
C58	C	-1.187376	-0.418243	-1.092191
C59	C	-1.175016	-0.435760	-1.181225
C60	C	-1.212621	-0.382436	-1.244098
C61	C	-1.249711	-0.329878	-0.976981
C62	C	-1.162138	-0.454052	-0.940285
C63	C	-1.149771	-0.471567	-1.029318
C64	C	-1.286922	-0.277168	-0.375491
C65	C	-1.300195	-0.258262	-0.280795
H66	H	-0.689265	-0.399469	-0.485096
C67	C	-1.199239	-0.401634	-1.340743
C68	C	-1.232873	-0.485602	-1.363215
C69	C	-1.220552	-0.503318	-1.452235
H70	H	-1.228784	-0.359812	-1.374534
H71	H	-1.138513	-0.398529	-1.352091
H72	H	-1.293588	-0.488699	-1.351876
H73	H	-1.203335	-0.527441	-1.329447
H74	H	-1.159826	-0.500213	-1.463583
H75	H	-1.250098	-0.461491	-1.486019
H76	H	-1.243363	-0.560294	-1.467492
H77	H	-1.332119	-0.039594	-0.543478
H78	H	-0.614773	-0.354974	-0.548414
H79	H	-1.432845	0.387768	-0.472564
H80	H	-1.380780	-0.144011	-1.305824
C81	C	-1.448060	0.067043	-0.461774
C82	C	-1.417532	0.019900	-0.390508
C83	C	-1.488358	-0.006573	-0.340602
H84	H	-1.477415	0.117085	-0.441079
H85	H	-1.487452	0.031005	-0.496961
H86	H	-1.378155	0.055937	-0.355327
H87	H	-1.388185	-0.030152	-0.411178
H88	H	-1.527750	-0.042611	-0.375788
H89	H	-1.517709	0.043474	-0.319913
H90	H	-1.467656	-0.038568	-0.292246
H91	H	-1.334995	-0.208960	-1.030226
H92	H	-1.134333	-0.493452	-1.202527
C93	C	-1.095588	-0.548471	-1.057912
C94	C	-1.092832	-0.552409	-1.149343
C95	C	-1.042937	-0.623246	-1.175716
H96	H	-1.037830	-0.541140	-1.033831
H97	H	-1.121382	-0.601190	-1.037870
H98	H	-1.067035	-0.499702	-1.169376
H99	H	-1.150576	-0.559752	-1.173446
H100	H	-1.068732	-0.675965	-1.155675
H101	H	-0.985183	-0.615909	-1.151630
H102	H	-1.041067	-0.625932	-1.237754
H103	H	-1.464661	0.226198	-0.450117
C104	C	-1.139668	0.271154	-0.679350
C105	C	-1.212006	0.307594	-0.721239
C106	C	-1.194618	0.396659	-0.733738
H107	H	-1.128621	0.300179	-0.624270
H108	H	-1.089853	0.277826	-0.714511
H109	H	-1.261806	0.300929	-0.686079
H110	H	-1.223063	0.278595	-0.776326
H111	H	-1.144804	0.403331	-0.768899
H112	H	-1.183571	0.425676	-0.678655
H113	H	-1.243693	0.421393	-0.762168
C114	C	-1.303818	-0.252842	-0.948623
C115	C	-1.265611	-0.175314	-0.978330
C116	C	-1.315424	-0.104323	-0.952217
H117	H	-1.361549	-0.260130	-0.972781
H118	H	-1.305781	-0.249979	-0.886591
H119	H	-1.263658	-0.178176	-1.040350
H120	H	-1.207884	-0.167997	-0.954176
H121	H	-1.317386	-0.101460	-0.890184
H122	H	-1.373153	-0.111620	-0.976376
H123	H	-1.289503	-0.051711	-0.972362
H124	H	-1.403219	-0.112222	-1.144294
C125	C	-1.121270	-0.512082	-0.872165
C126	C	-1.074887	-0.577891	-0.914139
C127	C	-1.037245	-0.631369	-0.851412
H128	H	-1.082461	-0.477883	-0.834598
H129	H	-1.166016	-0.537930	-0.838717
H130	H	-1.030147	-0.552044	-0.947572
H131	H	-1.113677	-0.612111	-0.951701
H132	H	-1.081991	-0.657217	-0.817964
H133	H	-0.998441	-0.597163	-0.813848
H134	H	-1.005777	-0.676031	-0.879882
C135	C	-0.717065	-0.160584	-0.825250
C136	C	-0.770142	-0.212597	-0.883191
C137	C	-0.796429	-0.162887	-0.954266
H138	H	-0.749030	-0.112151	-0.804830
H139	H	-0.666922	-0.140027	-0.854590
H140	H	-0.820277	-0.233141	-0.853855
H141	H	-0.738195	-0.261029	-0.903634
H142	H	-0.746286	-0.142330	-0.983607
H143	H	-0.828391	-0.114455	-0.933838
H144	H	-0.832437	-0.198172	-0.993592
H145	H	-1.047540	0.133026	-0.744042
C146	C	-0.796306	-0.481066	-0.368901
C147	C	-0.870384	-0.511259	-0.325887
C148	C	-0.844360	-0.561133	-0.254839
H149	H	-0.764420	-0.529552	-0.389326
H150	H	-0.760298	-0.445921	-0.329448
H151	H	-0.906379	-0.546403	-0.365333
H152	H	-0.902280	-0.462792	-0.305442
H153	H	-0.808351	-0.525988	-0.215385
H154	H	-0.812473	-0.609615	-0.275272
H155	H	-0.894617	-0.581618	-0.225640
H156	H	-1.079371	-0.028534	-0.721593
H157	H	-0.964795	-0.445103	-0.420112
H158	H	-0.975742	-0.267199	-0.673187
H159	H	-0.861747	-0.199133	-0.770072
H160	H	-1.207520	0.321438	-0.631330
C161	C	-0.531157	-0.186243	-0.788394
C162	C	-0.447567	-0.207724	-0.757806
C163	C	-0.384583	-0.170239	-0.811063
H164	H	-0.540171	-0.208019	-0.846814
H165	H	-0.536112	-0.124458	-0.786837
H166	H	-0.442614	-0.269497	-0.759373
H167	H	-0.438524	-0.185947	-0.699394
H168	H	-0.389539	-0.108454	-0.809506
H169	H	-0.393606	-0.192018	-0.869480
H170	H	-0.327860	-0.184802	-0.790312
