data_functionalizedCrystal
_audit_creation_method	'MofGen! by Chris Wilmer'
_symmetry_space_group_name_H-M	'P1'
_symmetry_Int_Tables_number	1
_symmetry_cell_setting	triclinic
loop_
_symmetry_equiv_pos_as_xyz
  x,y,z
_cell_length_a	9.730223
_cell_length_b	10.654555
_cell_length_c	10.654551
_cell_angle_alpha	95.513798
_cell_angle_beta	90.003314
_cell_angle_gamma	90.002203
loop_
_atom_site_label
_atom_site_type_symbol
_atom_site_fract_x
_atom_site_fract_y
_atom_site_fract_z
O1	O	0.114201	-1.667831	0.176430
O2	O	0.114221	-1.302353	0.193230
O3	O	0.114207	-1.493494	0.002091
O4	O	0.114214	-1.476690	0.367569
O5	O	-0.114373	-1.493493	0.002082
O6	O	-0.114359	-1.302352	0.193221
O7	O	-0.114379	-1.667829	0.176421
Zn8	Zn	-0.150661	-1.485090	0.184820
Zn9	Zn	0.150503	-1.485092	0.184831
O10	O	-0.114366	-1.476688	0.367560
C11	C	-0.000066	-1.255554	0.191990
C12	C	-0.000058	-1.116112	0.188296
N13	N	-0.356197	-1.485098	0.184811
C14	C	0.124534	-0.919567	0.183099
C15	C	0.124540	-1.050589	0.186563
C16	C	-0.124671	-1.050606	0.186553
C17	C	-0.124675	-0.919587	0.183080
N18	N	0.356039	-1.485094	0.184830
C19	C	0.427959	-1.569892	0.100362
C20	C	0.571842	-1.569897	0.100355
C21	C	0.571873	-1.400296	0.269289
C22	C	0.427992	-1.400298	0.269301
C23	C	-0.000080	-1.492259	-0.044711
C24	C	-0.000074	-1.488567	-0.184155
C25	C	-0.000084	-0.714628	0.177662
C26	C	-0.000069	-0.854070	0.181360
C27	C	0.124527	-1.486835	-0.249654
C28	C	0.124528	-1.483355	-0.380674
C29	C	-0.124682	-1.483344	-0.380686
C30	C	-0.124682	-1.486815	-0.249666
C31	C	-0.000075	-1.477923	0.414362
C32	C	-0.000072	-1.481616	0.553806
H33	H	0.226004	-1.103911	0.187977
O34	O	-0.245810	-1.481827	-0.444208
C35	C	-0.458779	-1.589416	-0.497638
C36	C	-0.321663	-1.591273	-0.425621
H37	H	-0.520132	-1.677905	-0.482657
H38	H	-0.520314	-1.502421	-0.461137
H39	H	-0.437349	-1.586582	-0.602520
H40	H	-0.342968	-1.594152	-0.320728
H41	H	-0.260169	-1.678258	-0.462225
O42	O	0.358276	-1.652383	0.018267
C43	C	0.373439	-1.820547	-0.149350
C44	C	0.452520	-1.727212	-0.056423
H45	H	0.449600	-1.881053	-0.209780
H46	H	0.306118	-1.883730	-0.094480
H47	H	0.306036	-1.765883	-0.212649
H48	H	0.519997	-1.781773	0.006898
H49	H	0.519754	-1.664029	-0.111372
H50	H	-0.226153	-1.488219	-0.196335
O51	O	0.245694	-0.856124	0.181370
C52	C	0.492876	-0.869933	0.181822
C53	C	0.355759	-0.941936	0.183756
H54	H	0.581900	-0.939277	0.183777
H55	H	0.499199	-0.819355	0.092441
H56	H	0.499032	-0.797836	0.267914
H57	H	0.349511	-1.014094	0.097725
H58	H	0.349494	-0.992427	0.273192
O59	O	-0.245618	-1.114411	0.188072
C60	C	-0.390283	-1.275577	0.083344
C61	C	-0.253246	-1.203441	0.081480
H62	H	-0.396508	-1.347556	-0.002839
H63	H	-0.396526	-1.326278	0.172652
H64	H	-0.479321	-1.206226	0.081563
H65	H	-0.164131	-1.272707	0.083214
H66	H	-0.247124	-1.152720	-0.007821
H67	H	0.369431	-1.331245	0.338091
O68	O	0.641711	-1.318048	0.351505
C69	C	0.685715	-1.245901	0.569102
C70	C	0.606566	-1.339142	0.476133
H71	H	0.657308	-1.262906	0.669883
H72	H	0.800920	-1.260462	0.554691
H73	H	0.657438	-1.145235	0.551544
H74	H	0.634728	-1.439845	0.493635
H75	H	0.491380	-1.324472	0.490566
H76	H	0.225991	-1.488257	-0.196318
H77	H	-0.226148	-0.866259	0.181663
H78	H	0.630395	-1.638949	0.031574
H79	H	0.225990	-1.481941	-0.433997
