data_functionalizedCrystal
_audit_creation_method	'MofGen! by Chris Wilmer'
_symmetry_space_group_name_H-M	'P1'
_symmetry_Int_Tables_number	1
_symmetry_cell_setting	triclinic
loop_
_symmetry_equiv_pos_as_xyz
  x,y,z
_cell_length_a	10.654556
_cell_length_b	11.792254
_cell_length_c	9.730223
_cell_angle_alpha	89.995422
_cell_angle_beta	89.998368
_cell_angle_gamma	84.343067
loop_
_atom_site_label
_atom_site_type_symbol
_atom_site_fract_x
_atom_site_fract_y
_atom_site_fract_z
O1	O	1.667391	0.159453	-0.114239
O2	O	2.167391	0.659453	0.385761
O3	O	1.301872	0.174634	-0.114253
O4	O	1.801872	0.674634	0.385747
O5	O	1.493493	0.001895	-0.114236
O6	O	1.993493	0.501895	0.385764
O7	O	1.475770	0.332193	-0.114256
O8	O	1.975770	0.832193	0.385744
O9	O	1.493481	0.001890	0.114344
O10	O	1.993481	0.501890	0.614344
O11	O	1.301859	0.174629	0.114327
O12	O	1.801859	0.674629	0.614327
O13	O	1.667379	0.159449	0.114341
O14	O	2.167379	0.659449	0.614341
Zn15	Zn	1.484617	0.167038	0.150626
Zn16	Zn	1.984617	0.667038	0.650626
Zn17	Zn	1.484634	0.167044	-0.150538
Zn18	Zn	1.984634	0.667044	0.349462
O19	O	1.475757	0.332188	0.114324
O20	O	1.975757	0.832188	0.614324
C21	C	1.255071	0.173516	0.000035
C22	C	1.755071	0.673516	0.500035
C23	C	1.115637	0.170176	0.000030
C24	C	1.615637	0.670176	0.500030
C25	C	0.919112	0.165477	-0.124558
C26	C	1.419112	0.665477	0.375442
C27	C	1.050125	0.168608	-0.124567
C28	C	1.550125	0.668608	0.375433
C29	C	1.050130	0.168602	0.124644
C30	C	1.550130	0.668602	0.624644
C31	C	0.919120	0.165463	0.124651
C32	C	1.419120	0.665463	0.624651
C33	C	1.492371	-0.040401	0.000054
C34	C	1.992371	0.459599	0.500054
C35	C	1.489029	-0.166422	0.000052
C36	C	1.989029	0.333578	0.500052
C37	C	1.486314	-0.268765	0.000047
C38	C	1.986314	0.231235	0.500047
C39	C	1.482919	-0.397159	0.000035
C40	C	1.982919	0.102841	0.500035
C41	C	1.714180	0.160567	0.000050
C42	C	2.214180	0.660567	0.500050
C43	C	1.853613	0.163906	0.000046
C44	C	2.353613	0.663906	0.500046
C45	C	1.476880	0.374484	0.000032
C46	C	1.976880	0.874484	0.500032
C47	C	1.480222	0.500504	0.000024
C48	C	1.980222	1.000504	0.500024
N49	N	1.484615	0.167033	0.356163
N50	N	1.984615	0.667033	0.856163
N51	N	1.484645	0.167040	-0.356074
N52	N	1.984645	0.667040	0.143926
C53	C	1.569494	0.090577	0.428096
C54	C	2.069494	0.590577	0.928096
C55	C	1.569507	0.090577	0.571979
C56	C	2.069507	0.590577	1.071979
C57	C	1.399757	0.243500	0.571982
C58	C	1.899757	0.743500	1.071982
C59	C	1.399740	0.243494	0.428102
C60	C	1.899740	0.743494	0.928102
H61	H	1.103448	0.169885	-0.226032
H62	H	1.603448	0.669885	0.273968
F63	F	1.309434	0.324874	0.648554
F64	F	1.809434	0.824874	1.148554
H65	H	1.638604	0.028316	0.369526
H66	H	2.138604	0.528316	0.869526
H67	H	0.865790	0.164184	0.226125
H68	H	1.365790	0.664184	0.726125
F69	F	1.309390	0.324868	0.351539
F70	F	1.809390	0.824868	0.851539
F71	F	0.849399	0.163816	-0.257173
F72	F	1.349399	0.663816	0.242827
F73	F	1.659844	0.009200	0.648531
F74	F	2.159844	0.509200	1.148531
F75	F	1.119857	0.170268	0.257250
F76	F	1.619857	0.670268	0.757250
