data_functionalizedCrystal
_audit_creation_method	'MofGen! by Chris Wilmer'
_symmetry_space_group_name_H-M	'P1'
_symmetry_Int_Tables_number	1
_symmetry_cell_setting	triclinic
loop_
_symmetry_equiv_pos_as_xyz
  x,y,z
_cell_length_a	10.489741
_cell_length_b	11.026607
_cell_length_c	9.482900
_cell_angle_alpha	78.599815
_cell_angle_beta	99.382947
_cell_angle_gamma	96.562595
loop_
_atom_site_label
_atom_site_type_symbol
_atom_site_fract_x
_atom_site_fract_y
_atom_site_fract_z
O1	O	-1.747326	-0.152703	-0.120798
O2	O	-1.379676	-0.168803	-0.120820
O3	O	-1.533030	0.016166	-0.120806
O4	O	-1.593972	-0.337672	-0.120813
O5	O	-1.501915	-0.021557	0.120984
O6	O	-1.348561	-0.206526	0.120969
O7	O	-1.716211	-0.190427	0.120991
Cu8	Cu	-1.529545	-0.201921	0.143057
Cu9	Cu	-1.566342	-0.157308	-0.142887
O10	O	-1.562857	-0.375395	0.120977
C11	C	-1.506230	0.042614	0.000086
C12	C	-1.472716	0.177622	0.000079
C13	C	-1.316319	-0.186448	0.000071
C14	C	-1.173891	-0.182808	0.000063
C15	C	-1.779568	-0.172781	0.000096
C16	C	-1.921998	-0.176419	0.000095
C17	C	-1.079860	-0.065119	0.000079
C18	C	-1.015303	-0.102115	-0.119134
C19	C	-0.984667	-0.139336	0.119252
C20	C	-1.111223	-0.219838	-0.119248
C21	C	-1.080579	-0.257058	0.119244
C22	C	-1.016072	-0.294136	0.000002
C23	C	-1.589657	-0.401842	0.000081
C24	C	-1.623172	-0.536849	0.000079
N25	N	-1.503673	-0.233298	0.344175
C26	C	-1.565255	0.250618	0.000083
C27	C	-1.530620	0.390156	0.000075
N28	N	-1.592222	-0.125922	-0.344004
C29	C	-1.558701	-0.166557	0.416380
C30	C	-1.537186	-0.192673	0.583795
H31	H	-1.108286	0.031654	-0.000068
O32	O	-0.982292	-0.409593	-0.000007
C33	C	-0.847261	-0.405079	0.001154
H34	H	-0.797857	-0.320991	0.047611
H35	H	-0.825953	-0.397241	-0.114566
C36	C	-0.855960	-0.627601	0.038924
C37	C	-0.795280	-0.524329	0.095995
H38	H	-0.823894	-0.701162	0.097421
H39	H	-0.946933	-0.630644	0.038137
H40	H	-0.838197	-0.621053	-0.057508
H41	H	-0.813056	-0.530870	0.192418
H42	H	-0.704307	-0.521290	0.096801
O43	O	-1.115447	-0.335176	0.239369
C44	C	-1.250524	-0.338337	0.236969
H45	H	-1.299202	-0.309567	0.120295
H46	H	-1.271729	-0.271500	0.306181
C47	C	-1.243887	-0.506277	0.441760
C48	C	-1.303676	-0.470951	0.298457
H49	H	-1.276674	-0.588077	0.479695
H50	H	-1.152882	-0.504145	0.443381
H51	H	-1.261563	-0.450569	0.499419
H52	H	-1.285986	-0.526649	0.240798
H53	H	-1.394679	-0.473095	0.296828
H54	H	-1.367849	0.218432	0.000063
O55	O	-1.405574	0.438997	-0.000130
C56	C	-1.396799	0.531094	-0.125380
H57	H	-1.495709	0.568187	-0.167125
H58	H	-1.364323	0.489294	-0.213067
C59	C	-1.175987	0.592498	-0.036084
C60	C	-1.297468	0.638064	-0.087348
H61	H	-1.114712	0.658480	-0.012628
H62	H	-1.181896	0.530447	0.048297
H63	H	-1.148941	0.557665	-0.109165
H64	H	-1.324519	0.672882	-0.014262
H65	H	-1.291561	0.700123	-0.171717
H66	H	-1.670123	0.209808	0.000098
O67	O	-1.633743	-0.075182	0.342312
C68	C	-1.580306	0.039555	0.379388
H69	H	-1.472503	0.034347	0.421365
H70	H	-1.631574	0.061115	0.467584
C71	C	-1.730711	0.149197	0.192489
C72	C	-1.598302	0.142803	0.244034
H73	H	-1.741816	0.212887	0.108999
H74	H	-1.766717	0.071897	0.167513
H75	H	-1.773419	0.167158	0.265998
H76	H	-1.555600	0.124826	0.170532
H77	H	-1.562290	0.220103	0.268995
H78	H	-0.929760	-0.105241	0.220037
H79	H	-1.474138	-0.269147	0.645913
H80	H	-1.728062	0.422367	-0.000024
H81	H	-0.986305	-0.036593	-0.219920
H82	H	-1.655259	-0.049438	0.593877
H83	H	-1.440629	-0.309768	0.406299
H84	H	-1.165981	-0.253855	-0.220147
