data_functionalizedCrystal
_audit_creation_method	'MofGen! by Chris Wilmer'
_symmetry_space_group_name_H-M	'P1'
_symmetry_Int_Tables_number	1
_symmetry_cell_setting	triclinic
loop_
_symmetry_equiv_pos_as_xyz
  x,y,z
_cell_length_a	6.817900
_cell_length_b	16.306198
_cell_length_c	19.453114
_cell_angle_alpha	95.863791
_cell_angle_beta	101.709288
_cell_angle_gamma	103.467075
loop_
_atom_site_label
_atom_site_type_symbol
_atom_site_fract_x
_atom_site_fract_y
_atom_site_fract_z
V1	V	-4.006756	-0.117598	-0.219249
O2	O	-3.994744	0.004747	-0.214820
O3	O	-3.958319	-0.232308	-0.217996
O4	O	-3.949671	-0.116186	-0.314759
O5	O	-4.003452	-0.112179	-0.117387
V6	V	-4.491514	-0.102917	-0.207036
O7	O	-4.265305	-0.149802	-0.246041
O8	O	-4.683162	-0.070714	-0.180245
O9	O	-4.316744	0.011793	-0.208289
O10	O	-4.620922	-0.225263	-0.211465
O11	O	-4.612215	-0.108337	-0.308899
O12	O	-4.325392	-0.104330	-0.111526
C13	C	-3.803591	-0.260259	-0.214600
C14	C	-3.845217	-0.354039	-0.214212
C15	C	-3.996297	-0.694784	-0.212792
C16	C	-4.200014	-0.664254	-0.216923
C17	C	-4.157018	-0.566765	-0.217598
C18	C	-3.921346	-0.525736	-0.213496
C19	C	-3.863973	-0.571442	-0.278650
C20	C	-3.908697	-0.669060	-0.278327
C21	C	-3.832494	-0.643390	-0.143994
C22	C	-3.792854	-0.545738	-0.143590
C23	C	-3.878976	-0.430198	-0.213896
C24	C	-4.038663	-0.790324	-0.212396
C25	C	-3.792560	-0.112133	-0.338031
C26	C	-3.827170	-0.111737	-0.416113
C27	C	-4.025211	-0.115786	-0.456378
C28	C	-4.057732	-0.115414	-0.529744
C29	C	-3.892209	-0.111011	-0.562844
C30	C	-3.694138	-0.106957	-0.522568
C31	C	-3.661618	-0.107320	-0.449202
N32	N	-3.832451	-0.155562	-0.681728
N33	N	-3.863356	-0.155219	-0.751423
C34	C	-3.990175	-0.109914	-0.783890
N35	N	-4.084957	-0.064976	-0.744031
N36	N	-4.054057	-0.065323	-0.674331
C37	C	-3.927450	-0.110616	-0.642396
C38	C	-4.223490	-0.113559	-0.903707
C39	C	-4.256001	-0.113182	-0.977074
C40	C	-3.892406	-0.104733	-0.969897
C41	C	-3.859896	-0.105101	-0.896531
C42	C	-4.025448	-0.109519	-0.863441
C43	C	-4.134814	0.039740	-0.211683
C44	C	-4.072425	0.133518	-0.212076
C45	C	-4.145845	-0.108385	-0.088250
C46	C	-4.090474	-0.108777	-0.010168
H47	H	-3.759633	-0.689434	-0.278190
H48	H	-3.835492	-0.514951	-0.095354
H49	H	-3.757629	-0.101140	-0.996845
H50	H	-3.500344	-0.104017	-0.416417
Cl51	Cl	-4.005605	-0.551301	-0.358525
H52	H	-3.559368	-0.103369	-0.549522
H53	H	-3.698636	-0.101814	-0.863747
Cl54	Cl	-4.313949	-0.548168	-0.295058
Cl55	Cl	-4.232924	-0.518675	-0.145703
H56	H	-4.270922	-0.680591	-0.170183
H57	H	-4.219008	-0.118715	-0.562536
H58	H	-3.886418	-0.659905	-0.094157
Cl59	Cl	-4.085544	-0.721918	-0.358300
Cl60	Cl	-4.233332	-0.121333	-0.414783
H61	H	-3.619519	-0.516767	-0.136514
Cl62	Cl	-3.598054	-0.672962	-0.138312
H63	H	-4.358291	-0.117152	-0.876764
H64	H	-3.693421	-0.544888	-0.278128
Cl65	Cl	-4.388952	-0.719444	-0.293546
Cl66	Cl	-4.504989	-0.118270	-1.027695
