data_functionalizedCrystal
_audit_creation_method	'MofGen! by Chris Wilmer'
_symmetry_space_group_name_H-M	'P1'
_symmetry_Int_Tables_number	1
_symmetry_cell_setting	triclinic
loop_
_symmetry_equiv_pos_as_xyz
  x,y,z
_cell_length_a	17.699083
_cell_length_b	26.210047
_cell_length_c	17.699083
_cell_angle_alpha	89.994492
_cell_angle_beta	96.716985
_cell_angle_gamma	90.010404
loop_
_atom_site_label
_atom_site_type_symbol
_atom_site_fract_x
_atom_site_fract_y
_atom_site_fract_z
O1	O	1.004089	0.042358	-0.095710
O2	O	0.783711	0.042375	-0.108162
O3	O	0.900126	0.042362	0.008253
O4	O	0.887674	0.042372	-0.212125
O5	O	0.900090	-0.042496	0.008254
O6	O	0.783674	-0.042483	-0.108162
O7	O	1.004052	-0.042500	-0.095709
Cu8	Cu	0.893860	-0.050239	-0.101936
Cu9	Cu	0.893903	0.050115	-0.101936
O10	O	0.887637	-0.042486	-0.212125
C11	C	0.755495	-0.000052	-0.107716
C12	C	0.671477	-0.000045	-0.106377
N13	N	0.893835	-0.120823	-0.101935
C14	C	0.622856	-0.000042	-0.174710
C15	C	0.543913	-0.000049	-0.173448
C16	C	0.513592	-0.000055	-0.103852
C17	C	0.562219	-0.000059	-0.035513
C18	C	0.641161	-0.000056	-0.036776
C19	C	0.243856	-0.000072	-0.030418
C20	C	0.164908	-0.000074	-0.029160
C21	C	0.146608	-0.000065	-0.167090
C22	C	0.225550	-0.000062	-0.168353
C23	C	0.274170	-0.000069	-0.100015
C24	C	0.359769	-0.000063	-0.101384
C25	C	0.427995	-0.000058	-0.102481
C26	C	0.939712	-0.473339	-0.147774
C27	C	0.939735	-0.686998	-0.147774
O28	O	0.978724	-0.714621	-0.186739
N29	N	0.893921	-0.713717	-0.101928
C30	C	0.848103	-0.687019	-0.056076
O31	O	0.809142	-0.714648	-0.017076
C32	C	0.848085	-0.473361	-0.056073
C33	C	0.893895	-0.446644	-0.101927
C34	C	0.985520	-0.446622	-0.193624
C35	C	0.985511	-0.393211	-0.193627
C36	C	0.939694	-0.366516	-0.147780
C37	C	0.893886	-0.393233	-0.101930
C38	C	0.802271	-0.446664	-0.010217
C39	C	0.802272	-0.393246	-0.010219
C40	C	0.848082	-0.366529	-0.056073
C41	C	0.848060	-0.313127	-0.056086
N42	N	0.893874	-0.286407	-0.101931
C43	C	0.939691	-0.313102	-0.147778
C44	C	0.848114	-0.799192	-0.056082
C45	C	0.848117	-0.852606	-0.056083
C46	C	0.939751	-0.852581	-0.147780
C47	C	0.939743	-0.799166	-0.147782
C48	C	0.893928	-0.772473	-0.101927
C49	C	0.939667	-0.200934	-0.147781
C50	C	0.939652	-0.147518	-0.147782
C51	C	0.848022	-0.147548	-0.056082
C52	C	0.848034	-0.200959	-0.056084
C53	C	0.893863	-0.227651	-0.101935
O54	O	0.809098	-0.285471	-0.017134
O55	O	0.978658	-0.285463	-0.186760
C56	C	0.939721	-0.526750	-0.147771
C57	C	0.893914	-0.553467	-0.101921
C58	C	0.848097	-0.526773	-0.056074
C59	C	0.893917	-0.606881	-0.101923
C60	C	0.939734	-0.633576	-0.147770
C61	C	0.985547	-0.606856	-0.193616
C62	C	0.985538	-0.553445	-0.193618
C63	C	0.802284	-0.553493	-0.010229
C64	C	0.802296	-0.606904	-0.010231
C65	C	0.848113	-0.633599	-0.056078
C66	C	1.032268	-0.000072	-0.096156
C67	C	1.116286	-0.000074	-0.097494
C68	C	0.899662	-0.000067	0.036451
C69	C	0.898323	-0.000067	0.120469
N70	N	0.893934	0.120699	-0.101930
C71	C	0.888102	-0.000056	-0.240322
C72	C	0.889440	-0.000053	-0.324340
C73	C	0.966656	-0.000073	0.169090
C74	C	0.965394	-0.000069	0.248033
C75	C	0.895798	-0.000062	0.278354
C76	C	0.827459	-0.000054	0.229727
C77	C	0.828722	-0.000055	0.150785
C78	C	0.822364	-0.000050	0.548090
C79	C	0.821106	-0.000050	0.627038
C80	C	0.959036	-0.000063	0.645338
C81	C	0.960299	-0.000064	0.566396
C82	C	0.891961	-0.000054	0.517776
C83	C	0.893330	-0.000058	0.432177
C84	C	0.894427	-0.000061	0.363951
H85	H	0.647537	-0.000037	-0.231384
H86	H	0.283434	-0.000079	0.025228
C87	C	0.711717	-0.441307	0.080439
C88	C	0.751922	-0.476024	0.040194
H89	H	0.680637	-0.459434	0.111566
H90	H	0.680633	-0.420480	0.045568
H91	H	0.746617	-0.420466	0.111485
H92	H	0.717021	-0.496862	0.009143
H93	H	0.783008	-0.496860	0.075068
C94	C	0.086763	0.043540	0.052289
C95	C	0.131580	-0.000083	0.047347
H96	H	0.066191	0.043535	0.099520
H97	H	0.046513	0.043540	0.011775
H98	H	0.117195	0.073128	0.048934
H99	H	0.101146	-0.029671	0.050696
H100	H	0.171835	-0.000088	0.087872
H101	H	0.504328	-0.000046	-0.229092
H102	H	0.537526	-0.000072	0.021154
C103	C	0.651327	-0.000057	0.099693
C104	C	0.694609	-0.000055	0.038338
H105	H	0.684324	-0.000054	0.146066
H106	H	0.620153	-0.029649	0.097318
H107	H	0.620158	0.029535	0.097310
H108	H	0.725773	-0.029650	0.040718
H109	H	0.725796	0.029539	0.040714
C110	C	0.199529	-0.000060	-0.304569
C111	C	0.258877	-0.000058	-0.244855
H112	H	0.220105	-0.000062	-0.351798
H113	H	0.169128	0.029530	-0.301212
H114	H	0.169112	-0.029654	-0.301200
H115	H	0.289291	0.029539	-0.248221
H116	H	0.289291	-0.029650	-0.248215
H117	H	1.014680	-0.000069	0.684934
H118	H	0.107012	-0.000062	-0.222734
C119	C	1.030234	-0.152866	-0.238419
C120	C	0.990014	-0.118151	-0.198185
H121	H	1.061328	-0.134737	-0.269530
H122	H	0.995348	-0.173703	-0.269475
H123	H	1.061311	-0.173697	-0.203537
H124	H	0.958932	-0.097323	-0.233067
H125	H	1.024904	-0.097306	-0.167127
H126	H	0.773078	-0.000050	0.111198
C127	C	1.041476	-0.260972	-0.152396
C128	C	0.990040	-0.230268	-0.198184
H129	H	1.072573	-0.279078	-0.183516
H130	H	1.014199	-0.284531	-0.125101
H131	H	1.072547	-0.240125	-0.117527
H132	H	0.958965	-0.251115	-0.233050
H133	H	1.017319	-0.206705	-0.225492
C134	C	1.076094	-0.398568	-0.284252
C135	C	1.035879	-0.363848	-0.244021
H136	H	1.107196	-0.380442	-0.315359
H137	H	1.041207	-0.419401	-0.315310
H138	H	1.107164	-0.419401	-0.249367
H139	H	1.004804	-0.343017	-0.278906
H140	H	1.070770	-0.343006	-0.212960
H141	H	1.022833	-0.468351	-0.230958
C142	C	1.030317	-0.804519	-0.238418
C143	C	0.990105	-0.769802	-0.198180
H144	H	1.061414	-0.786391	-0.269528
H145	H	0.995427	-0.825352	-0.269475
H146	H	1.061391	-0.825353	-0.203538
H147	H	0.959026	-0.748970	-0.233060
H148	H	1.025000	-0.748960	-0.167121
C149	C	0.703174	0.043594	0.635750
C150	C	0.744601	-0.000036	0.660369
H151	H	0.655948	0.043603	0.656333
H152	H	0.694142	0.043592	0.581783
H153	H	0.731332	0.073177	0.652449
H154	H	0.716444	-0.029620	0.643665
H155	H	0.753629	-0.000039	0.714347
H156	H	0.977054	-0.874325	-0.185114
H157	H	0.766718	-0.000042	0.508512
C158	C	1.101862	-0.000094	0.258193
C159	C	1.040509	-0.000081	0.301477
H160	H	1.148235	-0.000105	0.291189
H161	H	1.099504	0.029496	0.227021
H162	H	1.099460	-0.029688	0.227022
H163	H	1.042907	0.029515	0.332644
H164	H	1.042868	-0.029674	0.332662
H165	H	0.810805	-0.874355	-0.018753
C166	C	1.087335	-0.666907	-0.198202
C167	C	1.035915	-0.636205	-0.244009
H168	H	1.118433	-0.685025	-0.229310
H169	H	1.060047	-0.690458	-0.170902
H170	H	1.118407	-0.646059	-0.163337
H171	H	1.004839	-0.657054	-0.278871
H172	H	1.063205	-0.612652	-0.271322
H173	H	0.810804	-0.777463	-0.018739
H174	H	0.764963	-0.371515	0.027123
C175	C	0.721297	-0.131110	-0.026512
C176	C	0.797665	-0.118196	-0.005688
H177	H	0.690213	-0.112985	0.004601
H178	H	0.714742	-0.166739	-0.019940
H179	H	0.707141	-0.122355	-0.078317
H180	H	0.811822	-0.126954	0.046117
H181	H	0.804223	-0.082558	-0.012253
H182	H	0.770792	-0.000045	0.254420
H183	H	0.810722	-0.222713	-0.018755
C184	C	1.041751	0.043551	0.488229
C185	C	1.036800	-0.000070	0.533067
H186	H	1.088979	0.043546	0.467651
H187	H	1.038407	0.073137	0.518644
H188	H	1.001230	0.043548	0.447977
H189	H	1.077318	-0.000065	0.573323
H190	H	1.040152	-0.029664	0.502651
H191	H	1.022842	-0.531697	-0.230958
H192	H	0.764984	-0.628652	0.027108
H193	H	0.764974	-0.531763	0.027107
H194	H	1.023330	-0.000082	0.144409
