data_functionalizedCrystal
_audit_creation_method	'MofGen! by Chris Wilmer'
_symmetry_space_group_name_H-M	'P1'
_symmetry_Int_Tables_number	1
_symmetry_cell_setting	triclinic
loop_
_symmetry_equiv_pos_as_xyz
  x,y,z
_cell_length_a	17.917603
_cell_length_b	23.196401
_cell_length_c	23.196402
_cell_angle_alpha	119.992668
_cell_angle_beta	57.015746
_cell_angle_gamma	89.986621
loop_
_atom_site_label
_atom_site_type_symbol
_atom_site_fract_x
_atom_site_fract_y
_atom_site_fract_z
Zr1	Zr	0.754970	0.049091	0.577902
O2	O	0.629832	0.145537	0.706962
O3	O	0.793320	0.019529	0.454944
O4	O	0.793297	0.139795	0.575209
O5	O	0.629885	-0.069602	0.586693
O6	O	0.922254	0.135262	0.566143
O7	O	0.629854	0.025271	0.586697
O8	O	0.922295	-0.079873	0.351011
O9	O	0.629845	0.145533	0.801825
O10	O	0.905929	0.003533	0.496492
O11	O	0.809712	-0.063886	0.503255
O12	O	0.809686	0.077713	0.644851
O13	O	0.713469	0.010294	0.651615
Zr14	Zr	0.960691	-0.109450	0.563437
Zr15	Zr	0.960642	0.041861	0.563442
Zr16	Zr	0.755019	-0.102219	0.577896
Zr17	Zr	0.754990	0.049085	0.729197
Zr18	Zr	0.960670	-0.109443	0.412141
O19	O	0.922341	-0.079887	0.686394
O20	O	0.922271	0.135257	0.686403
O21	O	0.629902	-0.069607	0.706953
O22	O	1.085829	-0.205896	0.434377
O23	O	1.085759	0.009249	0.434385
O24	O	0.793390	-0.195615	0.454936
O25	O	1.085776	0.009243	0.554645
O26	O	0.922364	-0.200154	0.566130
O27	O	0.793406	-0.195621	0.575196
O28	O	1.085806	-0.085629	0.554641
O29	O	0.793327	0.139786	0.790332
O30	O	0.922334	-0.200145	0.351007
O31	O	1.085816	-0.205892	0.339513
O32	O	1.085777	-0.085620	0.339518
O33	O	0.629884	0.025262	0.801820
O34	O	0.793366	0.019515	0.790327
O35	O	0.905975	-0.138071	0.496487
O36	O	1.002191	-0.070652	0.489724
O37	O	0.905948	0.003527	0.638083
O38	O	0.809732	-0.063892	0.644846
C39	C	0.600566	-0.021135	0.588755
C40	C	0.513253	-0.018066	0.594894
C41	C	0.857769	0.159087	0.570676
C42	C	0.857748	0.223323	0.570679
C43	C	0.857892	-0.219446	0.570662
C44	C	0.857913	-0.283681	0.570659
C45	C	0.353408	-0.012461	0.606106
C46	C	0.362245	-0.047896	0.535236
C47	C	0.273303	-0.044777	0.541474
C48	C	0.442357	-0.015579	0.599869
C49	C	1.115095	-0.039223	0.552583
C50	C	1.202408	-0.042292	0.546445
C51	C	0.857804	-0.030171	0.381421
C52	C	0.857796	-0.030168	0.317192
C53	C	0.807515	0.292216	0.648118
C54	C	0.807539	0.352571	0.648118
C55	C	0.857784	0.344028	0.570674
C56	C	0.908028	0.275121	0.493224
C57	C	0.908010	0.214769	0.493227
C58	C	0.850640	0.411598	0.514550
C59	C	0.850651	0.471951	0.514552
C60	C	0.857844	0.530173	0.570664
C61	C	0.865008	0.528042	0.626790
C62	C	0.864990	0.467690	0.626792
C63	C	0.857809	0.409466	0.570663
C64	C	0.807635	0.664513	0.648108
C65	C	0.807666	0.724867	0.648104
C66	C	0.908149	0.647415	0.493209
C67	C	0.908124	0.587063	0.493215
C68	C	0.857862	0.595617	0.570667
C69	C	0.928857	-0.084927	0.229767
C70	C	0.928864	-0.084934	0.169406
C71	C	0.857816	-0.030171	0.196475
C72	C	0.786742	0.024592	0.283915
C73	C	0.786732	0.024594	0.344274
C74	C	0.835675	0.034399	0.142445
C75	C	0.835691	0.034398	0.082085
C76	C	0.857842	-0.030175	0.010311
C77	C	0.879996	-0.094752	-0.001106
C78	C	0.879986	-0.094750	0.059253
C79	C	0.857818	-0.030167	0.131032
C80	C	0.928914	-0.084945	-0.142568
C81	C	0.928915	-0.084952	-0.202927
C82	C	0.786796	0.024579	-0.088416
C83	C	0.786793	0.024581	-0.028059
C84	C	0.857856	-0.030181	-0.055141
C85	C	0.857856	-0.030187	0.759917
C86	C	0.857865	-0.030190	0.824146
C87	C	1.115069	-0.039215	0.363335
C88	C	1.202373	-0.042282	0.292968
C89	C	0.857866	-0.219438	0.381414
C90	C	0.857878	-0.283670	0.317182
C91	C	1.115130	-0.228481	0.363328
C92	C	1.202456	-0.295783	0.292958
C93	C	0.600530	0.168123	0.778011
C94	C	0.513205	0.235425	0.848380
C95	C	0.600592	-0.021143	0.778003
C96	C	0.513287	-0.018077	0.848371
C97	C	0.857795	0.159079	0.759924
C98	C	0.857783	0.223312	0.824156
C99	C	1.193124	-0.004991	0.263455
C100	C	1.275148	-0.007858	0.197347
C101	C	1.366420	-0.048020	0.160747
C102	C	1.375667	-0.085311	0.190265
C103	C	1.293644	-0.082440	0.256377
C104	C	0.908132	-0.352565	0.283485
C105	C	0.908139	-0.412924	0.223142
C106	C	0.857898	-0.404387	0.196492
C107	C	0.807639	-0.335485	0.230195
C108	C	0.807626	-0.275127	0.290542
C109	C	1.293697	-0.292197	0.256381
C110	C	1.375757	-0.355429	0.190268
C111	C	1.366572	-0.422246	0.160731
C112	C	1.275321	-0.425831	0.197315
C113	C	1.193264	-0.362600	0.263430
C114	C	0.421963	0.231839	0.884965
C115	C	0.339904	0.295071	0.951096
C116	C	0.349088	0.361888	0.980637
C117	C	0.440340	0.365472	0.944049
C118	C	0.522397	0.302241	0.877923
C119	C	0.522536	-0.055361	0.877889
C120	C	0.440512	-0.052477	0.944014
C121	C	0.349240	-0.012313	0.980616
C122	C	0.339993	0.024975	0.951095
C123	C	0.422016	0.022095	0.884975
C124	C	0.908033	0.214752	0.850786
C125	C	0.908041	0.275099	0.911129
C126	C	0.857791	0.344005	0.944845
C127	C	0.807539	0.352564	0.918209
C128	C	0.807538	0.292218	0.857863
H129	H	0.436610	-0.080575	0.469877
H130	H	1.301194	-0.237797	0.280420
H131	H	0.766627	0.408676	0.945670
N132	N	1.303627	-0.122665	0.288202
H133	H	1.373895	-0.148542	0.254978
H134	H	1.271798	-0.158707	0.279928
N135	N	0.710158	0.083642	-0.059209
H136	H	0.720944	0.075332	-0.110712
H137	H	0.713280	0.131492	-0.026054
H138	H	1.118974	-0.365529	0.293203
N139	N	0.753322	0.301452	0.829153
H140	H	0.799382	0.276446	0.765333
H141	H	0.721491	0.354275	0.859731
N142	N	1.265422	-0.497900	0.165451
H143	H	1.331255	-0.537407	0.118015
H144	H	1.229153	-0.502219	0.142998
H145	H	0.279049	0.020217	0.671460
N146	N	0.962249	0.140440	0.814426
H147	H	1.012799	0.111980	0.750291
H148	H	0.916130	0.115422	0.828227
H149	H	0.766706	-0.219032	0.317970
H150	H	1.450050	-0.352498	0.160488
H151	H	0.414467	0.177439	0.860917
N152	N	0.241492	0.291196	0.990548
H153	H	0.248133	0.239271	0.961790
H154	H	0.205249	0.315904	0.982601
N155	N	1.094688	0.038326	0.302919
H156	H	1.086987	0.090299	0.328506
H157	H	1.044183	0.034433	0.349243
N158	N	0.753321	0.301439	0.731650
H159	H	0.683045	0.330586	0.768908
H160	H	0.779757	0.327136	0.762035
H161	H	0.766631	0.408675	0.711180
H162	H	1.433201	-0.050353	0.106915
H163	H	0.948961	0.268116	0.932810
H164	H	0.766710	0.671478	0.711174
H165	H	0.728893	0.069180	0.305951
N166	N	0.872720	0.465385	0.687318
H167	H	0.877280	0.511423	0.722867
H168	H	0.932000	0.423324	0.653303
N169	N	0.753466	-0.326282	0.201437
H170	H	0.683181	-0.297154	0.252410
H171	H	0.761187	-0.375003	0.158073
H172	H	0.986780	-0.129548	-0.274116
N173	N	1.455075	-0.490447	0.089416
H174	H	1.494564	-0.491860	0.107646
H175	H	1.494475	-0.491812	0.036596
N176	N	0.872762	0.590833	0.687320
H177	H	0.871691	0.629389	0.678802
H178	H	0.934866	0.574288	0.675372
H179	H	0.898026	-0.147333	-0.059543
N180	N	0.962219	0.265908	0.409698
H181	H	0.935872	0.240186	0.379233
H182	H	1.032483	0.236784	0.372514
H183	H	0.282264	0.413369	1.034480
H184	H	0.766764	0.780965	0.711166
H185	H	1.267600	0.022509	0.173322
N186	N	0.450234	0.437543	0.975910
H187	H	0.520486	0.430228	0.942704
H188	H	0.418381	0.465309	1.038732
H189	H	0.596687	0.305170	0.848137
N190	N	0.962351	0.638190	0.409677
H191	H	0.954744	0.686877	0.421425
H192	H	0.935973	0.612446	0.379253
H193	H	0.596847	-0.088071	0.848093
N194	N	1.005554	-0.144008	-0.171767
H195	H	1.050569	-0.178703	-0.236314
H196	H	0.974490	-0.170325	-0.146818
N197	N	0.450498	-0.092698	0.975845
H198	H	0.520766	-0.118583	0.942615
H199	H	0.418657	-0.128733	0.967586
N200	N	0.710165	0.083659	0.066237
H201	H	0.644938	0.083682	0.083172
H202	H	0.713364	0.131492	0.078278
N203	N	0.962302	0.512752	0.409690
H204	H	0.994136	0.516495	0.360628
H205	H	0.916168	0.487737	0.409713
N206	N	0.260777	-0.009210	1.051931
H207	H	0.280494	-0.038928	1.065070
H208	H	0.221329	-0.028842	1.033657
N209	N	0.962326	-0.361783	0.312219
H210	H	0.994156	-0.414591	0.281711
H211	H	0.916199	-0.336729	0.376045
N212	N	0.241548	0.068280	0.990563
H213	H	0.190998	0.064434	1.036920
H214	H	0.233958	0.049128	0.944999
N215	N	0.857807	0.409090	1.009925
H216	H	0.897270	0.393205	1.021673
H217	H	0.789746	0.440511	1.064753
H218	H	0.817627	0.086987	0.200890
H219	H	0.728861	0.069184	0.415463
N220	N	0.857927	-0.469489	0.131392
H221	H	0.789897	-0.467136	0.157170
H222	H	0.897437	-0.514394	0.114110
N223	N	0.842944	0.474239	0.454006
H224	H	0.780841	0.469705	0.465907
H225	H	0.898833	0.433233	0.393053
N226	N	0.842886	0.348801	0.454023
H227	H	0.838343	0.359310	0.418474
H228	H	0.783592	0.340779	0.488035
N229	N	0.962194	0.140456	0.409699
H230	H	0.994032	0.144198	0.360637
H231	H	0.916059	0.115443	0.409722
H232	H	0.414472	0.052455	0.860944
H233	H	0.986722	-0.129519	0.207709
H234	H	0.898022	-0.147331	0.049954
H235	H	0.986731	-0.129527	0.098211
N236	N	0.811806	0.104043	0.094394
H237	H	0.797762	0.144951	0.149025
H238	H	0.753622	0.112455	0.098020
H239	H	1.449992	-0.118010	0.160457
H240	H	0.949070	-0.469021	0.195707
