data_functionalizedCrystal
_audit_creation_method	'MofGen! by Chris Wilmer'
_symmetry_space_group_name_H-M	'P1'
_symmetry_Int_Tables_number	1
_symmetry_cell_setting	triclinic
loop_
_symmetry_equiv_pos_as_xyz
  x,y,z
_cell_length_a	18.101398
_cell_length_b	18.215405
_cell_length_c	18.215398
_cell_angle_alpha	90.024832
_cell_angle_beta	90.008911
_cell_angle_gamma	90.022336
loop_
_atom_site_label
_atom_site_type_symbol
_atom_site_fract_x
_atom_site_fract_y
_atom_site_fract_z
Zn1	Zn	-1.132142	0.293112	-0.415912
Zn2	Zn	-1.132045	0.416178	-0.292847
Zn3	Zn	-1.008300	0.293119	-0.292882
Zn4	Zn	-1.008259	0.416130	-0.415894
O5	O	-1.070186	0.354635	-0.354384
O6	O	-1.235762	0.309454	-0.399579
O7	O	-1.115606	0.399877	-0.189867
O8	O	-1.024785	0.190134	-0.309224
O9	O	-1.235690	0.399870	-0.309164
O10	O	-1.115771	0.190129	-0.399613
O11	O	-1.024691	0.309466	-0.189893
O12	O	-0.904662	0.309419	-0.309207
O13	O	-1.024716	0.399789	-0.518881
O14	O	-0.904632	0.399795	-0.399584
O15	O	-1.115732	0.309408	-0.518894
O16	O	-1.115566	0.519156	-0.309147
O17	O	-1.024622	0.519121	-0.399550
C18	C	-0.877776	0.354603	-0.354398
C19	C	-0.795462	0.354608	-0.354421
C20	C	-0.496371	0.354647	-0.354396
C21	C	-0.527702	0.411785	-0.410978
C22	C	-0.613320	0.411607	-0.411209
C23	C	-0.644753	0.354628	-0.354409
C24	C	-0.613694	0.277115	-0.375603
C25	C	-0.528049	0.277457	-0.376007
C26	C	-0.527919	0.374340	-0.276484
C27	C	-0.613569	0.376042	-0.276899
C28	C	-0.728613	0.354613	-0.354414
C29	C	-0.412511	0.354657	-0.354392
C30	C	-1.070099	0.545841	-0.354359
C31	C	-1.070130	0.627640	-0.354373
C32	C	-1.070230	0.354593	-0.546337
C33	C	-1.070249	0.354575	-0.628135
C34	C	-0.263348	0.354664	-0.354375
C35	C	-0.345662	0.354668	-0.354384
C36	C	-1.117525	0.892637	-0.401506
C37	C	-1.117507	0.815779	-0.401496
C38	C	-1.022846	0.815891	-0.307288
C39	C	-1.022868	0.892748	-0.307294
C40	C	-1.070206	0.931120	-0.354408
C41	C	-1.070167	0.777404	-0.354391
C42	C	-1.070148	0.694070	-0.354380
C43	C	-1.070226	1.014459	-0.354419
C44	C	-1.070270	1.162682	-0.354421
C45	C	-1.070243	1.080883	-0.354426
C46	C	-1.117622	0.401561	-0.893184
C47	C	-1.117611	0.401586	-0.816325
C48	C	-1.022932	0.307446	-0.816335
C49	C	-1.022940	0.307425	-0.893193
C50	C	-1.070289	0.354481	-0.931615
C51	C	-1.070270	0.354528	-0.777899
C52	C	-1.070257	0.354555	-0.694565
C53	C	-1.070301	0.354455	-1.014954
C54	C	-1.070185	0.354624	-0.163177
C55	C	-1.070310	0.354435	-0.081379
H56	H	-0.507090	0.469452	-0.397844
H57	H	-0.634055	0.233390	-0.335676
Br58	Br	-0.494149	0.304975	-0.206216
Br59	Br	-0.958692	0.243571	-0.764186
Br60	Br	-0.958683	0.243541	-0.945354
H61	H	-0.984303	0.784642	-0.268930
Br62	Br	-0.648323	0.507419	-0.389102
Br63	Br	-0.958650	0.944979	-0.243365
H64	H	-1.156176	0.439878	-0.924465
H65	H	-1.156067	0.923877	-0.439872
H66	H	-0.506191	0.398921	-0.468372
Br67	Br	-0.647498	0.389892	-0.507425
Br68	Br	-1.181848	0.465486	-0.764171
H69	H	-1.156039	0.784449	-0.439847
H70	H	-0.508087	0.260753	-0.432964
H71	H	-0.635158	0.260110	-0.431940
Br72	Br	-0.493501	0.204099	-0.310317
Br73	Br	-0.491887	0.466928	-0.244374
H74	H	-0.633877	0.433080	-0.260914
Br75	Br	-0.649226	0.311713	-0.202855
