data_functionalizedCrystal
_audit_creation_method	'MofGen! by Chris Wilmer'
_symmetry_space_group_name_H-M	'P1'
_symmetry_Int_Tables_number	1
_symmetry_cell_setting	triclinic
loop_
_symmetry_equiv_pos_as_xyz
  x,y,z
_cell_length_a	19.188931
_cell_length_b	10.654550
_cell_length_c	9.730223
_cell_angle_alpha	90.004253
_cell_angle_beta	89.998242
_cell_angle_gamma	96.185144
loop_
_atom_site_label
_atom_site_type_symbol
_atom_site_fract_x
_atom_site_fract_y
_atom_site_fract_z
O1	O	0.927169	-0.156779	-0.114240
O2	O	0.723996	-0.177885	-0.114254
O3	O	0.830254	0.015506	-0.114238
O4	O	0.820911	-0.350170	-0.114256
O5	O	0.830247	0.015511	0.114342
O6	O	0.723989	-0.177880	0.114326
O7	O	0.927162	-0.156774	0.114340
Zn8	Zn	0.825574	-0.167326	0.150625
Zn9	Zn	0.825583	-0.167333	-0.150539
O10	O	0.820904	-0.350165	0.114324
C11	C	0.829564	0.062292	0.000051
C12	C	0.827512	0.201692	0.000049
C13	C	0.697977	-0.177199	0.000035
C14	C	0.620459	-0.175147	0.000030
C15	C	0.953181	-0.157460	0.000049
C16	C	1.030699	-0.159512	0.000045
C17	C	1.074881	-0.046037	0.000038
C18	C	1.147717	-0.047964	0.000046
C19	C	1.176369	-0.163374	0.000033
C20	C	1.132177	-0.276864	0.000047
C21	C	1.059342	-0.274933	0.000053
N22	N	1.284942	-0.251592	-0.077784
N23	N	1.354133	-0.253418	-0.077792
C24	C	1.395815	-0.169198	0.000019
N25	N	1.365694	-0.083063	0.077822
N26	N	1.296498	-0.081233	0.077824
C27	C	1.255345	-0.165480	0.000028
C28	C	1.518975	-0.057804	0.000024
C29	C	1.591813	-0.059737	0.000040
C30	C	1.576271	-0.288640	0.000028
C31	C	1.503435	-0.286704	0.000025
C32	C	1.474792	-0.171283	0.000016
C33	C	0.821594	-0.396951	0.000032
C34	C	0.823646	-0.536351	0.000025
N35	N	0.825573	-0.167321	0.356161
C36	C	0.890075	0.282501	0.000053
C37	C	0.888142	0.413481	0.000036
C38	C	0.761078	0.382829	0.000017
C39	C	0.763011	0.251852	0.000024
N40	N	0.825590	-0.167328	-0.356075
C41	C	0.872640	-0.081723	0.428094
C42	C	0.872647	-0.081723	0.571977
C43	C	0.778518	-0.252930	0.571982
C44	C	0.778508	-0.252923	0.428101
H45	H	1.183697	0.044444	0.000037
H46	H	0.939087	0.479272	0.000036
C47	C	0.685198	0.512345	-0.117497
C48	C	0.690183	0.437976	0.000006
H49	H	0.641431	0.546393	-0.117493
H50	H	0.688591	0.461878	-0.197191
H51	H	0.722187	0.579213	-0.117479
H52	H	0.653197	0.371101	-0.000017
H53	H	0.686783	0.488445	0.079721
C54	C	0.709557	0.037459	0.000013
C55	C	0.694237	0.163013	0.000014
H56	H	0.667100	-0.017383	-0.000007
H57	H	0.735967	0.022304	0.079725
H58	H	0.735985	0.022304	-0.079697
H59	H	0.667814	0.178171	0.079730
H60	H	0.667816	0.178174	-0.079706
H61	H	1.467461	-0.379108	0.000021
C62	C	0.683614	-0.280591	0.266320
C63	C	0.726769	-0.347022	0.349020
H64	H	0.651672	-0.338681	0.217506
H65	H	0.711640	-0.229615	0.202894
H66	H	0.658255	-0.228439	0.322482
H67	H	0.752133	-0.399168	0.292857
H68	H	0.698740	-0.398019	0.412453
H69	H	0.910963	-0.012019	0.369524
H70	H	0.910973	-0.012021	0.630541
C71	C	0.965963	0.152968	-0.117434
C72	C	0.960971	0.227358	0.000063
H73	H	1.009731	0.118923	-0.117424
H74	H	0.962572	0.203420	-0.197133
H75	H	0.928975	0.086098	-0.117417
H76	H	0.997955	0.294234	0.000040
H77	H	0.964368	0.176903	0.079782
C78	C	0.683652	-0.280606	0.733831
C79	C	0.726792	-0.347027	0.651070
H80	H	0.651722	-0.338703	0.782660
H81	H	0.658283	-0.228454	0.677719
H82	H	0.711694	-0.229631	0.797256
H83	H	0.698749	-0.397995	0.587637
H84	H	0.752162	-0.399201	0.707186
H85	H	1.155510	-0.370831	0.000040
C86	C	1.051297	-0.501385	0.000036
C87	C	1.010772	-0.399674	0.000044
H88	H	1.021310	-0.578394	0.000020
H89	H	1.080024	-0.497379	0.079745
H90	H	1.080034	-0.497370	-0.079678
H91	H	0.982040	-0.403684	0.079764
H92	H	0.982034	-0.403682	-0.079673
C93	C	1.446085	0.077163	-0.117476
C94	C	1.487484	0.069061	0.000031
H95	H	1.426649	0.155488	-0.117472
H96	H	1.409349	0.009862	-0.117473
H97	H	1.474185	0.071653	-0.197177
H98	H	1.459382	0.074562	0.079732
H99	H	1.524224	0.136381	0.000040
C100	C	1.065713	0.149665	-0.117452
C101	C	1.043401	0.080836	0.000048
H102	H	1.046281	0.227994	-0.117436
H103	H	1.050575	0.102960	-0.197149
H104	H	1.115415	0.164737	-0.117444
H105	H	0.993699	0.065756	0.000034
H106	H	1.058534	0.127552	0.079765
C107	C	1.599854	0.166714	0.000021
C108	C	1.640381	0.065006	0.000033
H109	H	1.629840	0.243725	0.000008
H110	H	1.571123	0.162717	0.079726
H111	H	1.571122	0.162688	-0.079697
H112	H	1.669109	0.069028	0.079756
H113	H	1.669124	0.069006	-0.079680
C114	C	1.585431	-0.484337	-0.117496
C115	C	1.607748	-0.415510	0.000010
H116	H	1.604862	-0.562668	-0.117497
H117	H	1.600568	-0.437633	-0.197188
H118	H	1.535729	-0.499406	-0.117479
H119	H	1.657450	-0.400433	-0.000012
H120	H	1.592615	-0.462224	0.079723
