data_functionalizedCrystal
_audit_creation_method	'MofGen! by Chris Wilmer'
_symmetry_space_group_name_H-M	'P1'
_symmetry_Int_Tables_number	1
_symmetry_cell_setting	triclinic
loop_
_symmetry_equiv_pos_as_xyz
  x,y,z
_cell_length_a	14.560438
_cell_length_b	14.560438
_cell_length_c	20.016444
_cell_angle_alpha	90.002876
_cell_angle_beta	59.998647
_cell_angle_gamma	60.002023
loop_
_atom_site_label
_atom_site_type_symbol
_atom_site_fract_x
_atom_site_fract_y
_atom_site_fract_z
Zr1	Zr	1.005327	0.884755	-0.087724
O2	O	1.196932	0.738104	-0.194407
O3	O	0.813721	0.929710	-0.055014
O4	O	1.005327	0.929703	-0.194399
O5	O	1.005327	0.738117	0.054920
O6	O	1.005329	1.080842	-0.194399
O7	O	1.005325	0.738111	-0.055022
O8	O	0.662581	1.080854	0.054934
O9	O	1.348075	0.738105	-0.194414
O10	O	0.892534	1.061677	-0.041072
O11	O	0.892533	0.948889	0.040977
O12	O	1.118125	0.948881	-0.123130
O13	O	1.118124	0.836093	-0.041081
Zr14	Zr	1.005334	1.125814	0.087619
Zr15	Zr	1.005332	1.125803	-0.087725
Zr16	Zr	1.005330	0.884765	0.087621
Zr17	Zr	1.246384	0.884757	-0.087735
Zr18	Zr	0.764277	1.125812	0.087631
O19	O	1.196941	1.080858	0.054909
O20	O	1.196937	1.080843	-0.194408
O21	O	1.196935	0.738119	0.054911
O22	O	0.813730	1.272465	0.194302
O23	O	0.813726	1.272450	-0.055016
O24	O	0.813724	0.929725	0.194304
O25	O	1.005334	1.272451	-0.055025
O26	O	1.005335	1.080865	0.194294
O27	O	1.005332	0.929727	0.194295
O28	O	1.005336	1.272458	0.054917
O29	O	1.348079	0.929706	-0.194415
O30	O	0.662583	1.080863	0.194310
O31	O	0.662586	1.272464	0.194309
O32	O	0.662584	1.272455	0.054933
O33	O	1.348077	0.738113	-0.055038
O34	O	1.348081	0.929714	-0.055039
O35	O	0.892536	1.061687	0.123025
O36	O	0.892537	1.174475	0.040976
O37	O	1.118128	1.061679	-0.041082
O38	O	1.118127	0.948891	0.040967
C39	C	0.703805	1.005282	-0.000038
C40	C	0.601470	1.005281	-0.000034
C41	C	0.636682	0.922012	-0.060614
C42	C	0.540542	0.922017	-0.060635
C43	C	0.373980	1.088565	0.060512
C44	C	0.470119	1.088563	0.060529
C45	C	1.005326	0.703770	-0.000051
C46	C	1.005324	0.601439	-0.000050
C47	C	1.005328	1.005271	-0.219382
C48	C	1.005327	1.005266	-0.293820
C49	C	1.306856	1.005286	-0.000066
C50	C	1.409191	1.005287	-0.000071
C51	C	0.887570	0.612239	0.042780
C52	C	0.887576	0.516084	0.042781
C53	C	1.123101	0.398332	-0.042886
C54	C	1.123093	0.494486	-0.042882
C55	C	1.005336	1.306799	-0.000054
C56	C	1.005338	1.409130	-0.000055
C57	C	1.005339	0.922018	-0.535036
C58	C	1.005334	0.922013	-0.465092
C59	C	1.005319	1.088559	-0.465072
C60	C	1.005314	1.088568	-0.535012
C61	C	1.005331	1.005291	-0.569995
C62	C	1.005331	1.005277	-0.430110
C63	C	1.005325	1.005272	-0.354272
C64	C	1.005334	1.005297	-0.645836
C65	C	1.005334	1.005297	0.219277
C66	C	1.005335	1.005302	0.293716
C67	C	0.703810	1.306796	-0.000040
C68	C	0.601477	1.409127	-0.000036
C69	C	0.703808	1.005295	0.219291
C70	C	0.601474	1.005299	0.293734
C71	C	0.703813	1.306810	0.219290
C72	C	0.601481	1.409145	0.293732
C73	C	1.306848	0.703759	-0.219394
C74	C	1.409180	0.601424	-0.293837
C75	C	1.306851	0.703772	-0.000065
C76	C	1.409184	0.601442	-0.000069
C77	C	1.306853	1.005273	-0.219396
C78	C	1.409187	1.005269	-0.293839
C79	C	0.553419	1.064180	0.371529
C80	C	0.457279	1.064179	0.441483
C81	C	0.409189	1.005303	0.433641
C82	C	0.457254	0.946415	0.355838
C83	C	0.553399	0.946410	0.285885
C84	C	0.553425	1.516086	0.285863
C85	C	0.457287	1.612250	0.355803
C86	C	0.409199	1.601470	0.433612
C87	C	0.457264	1.494517	0.441480
C88	C	0.553408	1.398355	0.371540
C89	C	1.457248	0.494482	-0.285967
C90	C	1.553416	0.398318	-0.355907
C91	C	1.601509	0.409099	-0.433716
C92	C	1.553437	0.516052	-0.441585
C93	C	1.457277	0.612213	-0.371645
C94	C	1.457246	1.064157	-0.285970
C95	C	1.553387	1.064175	-0.355911
C96	C	1.601474	1.005299	-0.433720
C97	C	1.553405	0.946410	-0.441587
C98	C	1.457260	0.946399	-0.371647
C99	C	0.553396	1.398326	-0.042860
C100	C	0.457251	1.494480	-0.042859
C101	C	0.457272	1.612233	0.042797
C102	C	0.553422	1.516080	0.042791
H103	H	0.791675	0.699320	0.077665
H104	H	0.592513	0.898466	0.222544
N105	N	1.605212	1.127696	-0.347406
H106	H	1.645107	1.096802	-0.316514
H107	H	1.673361	1.118768	-0.403540
H108	H	0.592564	1.524885	0.222513
N109	N	0.605232	1.282972	-0.089055
H110	H	0.673435	1.223695	-0.082558
H111	H	0.531786	1.274082	-0.066557
H112	H	1.005303	1.156384	-0.563476
H113	H	0.743631	0.854192	-0.109924
H114	H	0.418110	1.485675	-0.077732
N115	N	1.005280	1.178376	-0.427321
H116	H	1.085356	1.142057	-0.427426
H117	H	1.005213	1.231118	-0.460093
H118	H	0.791689	0.524887	0.077659
H119	H	0.418097	1.485756	0.504841
N120	N	0.305472	1.005334	0.509095
H121	H	0.282289	0.959107	0.492328
H122	H	0.339014	0.971862	0.542726
N123	N	1.250110	0.482835	-0.089086
H124	H	1.255350	0.520107	-0.132181
H125	H	1.255277	0.520092	-0.049747
H126	H	1.005350	0.854210	-0.563517
H127	H	0.418132	1.699324	0.077667
N128	N	0.605296	1.527724	0.088977
H129	H	0.560259	1.610067	0.116113
H130	H	0.588566	1.490396	0.132034
H131	H	1.592540	0.311242	-0.349485
N132	N	0.578519	0.832212	-0.125979
H133	H	0.676317	0.779459	-0.164341
H134	H	0.542241	0.788547	-0.099502
N135	N	0.405434	1.127705	0.525394
H136	H	0.478800	1.096834	0.531937
H137	H	0.365520	1.210055	0.531887
N138	N	1.605302	0.527673	-0.525508
H139	H	1.645202	0.570144	-0.532076
H140	H	1.673455	0.450485	-0.568563
N141	N	0.232312	1.178388	0.125830
H142	H	0.176749	1.165754	0.116629
H143	H	0.212732	1.174717	0.181414
H144	H	1.218984	0.311241	-0.077759
H145	H	0.441436	1.156377	0.109863
N146	N	0.605271	1.127689	0.380000
H147	H	0.560232	1.164981	0.439902
H148	H	0.701794	1.073626	0.352838
H149	H	1.005338	0.854205	-0.436629
N150	N	0.405372	0.882927	0.347382
H151	H	0.422097	0.823683	0.374495
H152	H	0.308867	0.937023	0.374496
N153	N	0.405454	1.727597	0.347306
H154	H	0.450502	1.719825	0.287400
H155	H	0.308931	1.770062	0.374466
N156	N	1.605285	0.882909	-0.525513
H157	H	1.645190	0.800540	-0.532075
H158	H	1.531880	0.913871	-0.532022
H159	H	0.330913	1.679780	0.490554
H160	H	1.679808	0.330789	-0.490659
H161	H	1.418096	0.485683	-0.222618
N162	N	0.605229	1.283012	0.380034
H163	H	0.560167	1.290786	0.439940
H164	H	0.588480	1.240557	0.352891
H165	H	1.418141	0.699287	-0.378063
N166	N	1.405395	1.127662	-0.202054
H167	H	1.450436	1.164968	-0.207694
H168	H	1.308872	1.186850	-0.171166
H169	H	1.679762	1.005317	-0.490662
H170	H	1.418141	0.898441	-0.378065
