data_functionalizedCrystal
_audit_creation_method	'MofGen! by Chris Wilmer'
_symmetry_space_group_name_H-M	'P1'
_symmetry_Int_Tables_number	1
_symmetry_cell_setting	triclinic
loop_
_symmetry_equiv_pos_as_xyz
  x,y,z
_cell_length_a	10.723023
_cell_length_b	10.967829
_cell_length_c	9.198806
_cell_angle_alpha	77.868939
_cell_angle_beta	89.996513
_cell_angle_gamma	84.591615
loop_
_atom_site_label
_atom_site_type_symbol
_atom_site_fract_x
_atom_site_fract_y
_atom_site_fract_z
O1	O	1.657191	0.175021	-0.164720
O2	O	1.294038	0.191776	-0.168923
O3	O	1.483989	0.001821	-0.121327
O4	O	1.467240	0.364977	-0.212316
O5	O	1.483974	0.001820	0.120458
O6	O	1.294023	0.191775	0.072862
O7	O	1.657175	0.175021	0.077065
Cu8	Cu	1.475598	0.183398	0.097040
Cu9	Cu	1.475616	0.183399	-0.188899
O10	O	1.467225	0.364976	0.029469
C11	C	1.247531	0.190557	-0.047726
C12	C	1.108977	0.186909	-0.046815
C13	C	0.904017	0.181514	-0.170715
C14	C	1.047220	0.185284	-0.171660
C15	C	1.482761	-0.044680	0.011213
C16	C	1.479112	-0.183235	0.045919
C17	C	1.477493	-0.245001	-0.063861
C18	C	1.473721	-0.388205	-0.027994
C19	C	1.703683	0.176240	-0.044135
C20	C	1.842237	0.179888	-0.045057
C21	C	1.468452	0.411476	-0.103075
C22	C	1.472102	0.550032	-0.137790
N23	N	1.475594	0.183397	0.298155
N24	N	1.475629	0.183390	-0.390010
C25	C	1.555349	0.103289	0.390424
C26	C	1.555369	0.103284	0.557837
H27	H	1.100348	0.186690	-0.279244
O28	O	1.479027	-0.181455	-0.207612
C29	C	1.373115	-0.092944	-0.237590
H30	H	1.337629	-0.069178	-0.129086
H31	H	1.296260	-0.133778	-0.292510
C32	C	1.452765	-0.002394	-0.475986
C33	C	1.409186	0.026804	-0.342721
H34	H	1.475012	0.071471	-0.540841
H35	H	1.524117	-0.062028	-0.455793
H36	H	1.388711	-0.036424	-0.521734
H37	H	1.473245	0.060818	-0.296967
H38	H	1.337845	0.086447	-0.362909
H39	H	1.472307	-0.441338	0.092555
H40	H	1.473493	-0.396835	-0.258340
H41	H	1.477698	-0.236372	0.166459
H42	H	1.623612	0.034702	0.345483
O43	O	1.636948	0.021409	0.652185
C44	C	1.711059	-0.053097	0.571183
H45	H	1.713130	-0.002024	0.449850
H46	H	1.669483	-0.146040	0.578342
C47	C	1.842836	-0.140650	0.785955
C48	C	1.845388	-0.077917	0.636933
H49	H	1.925695	-0.155967	0.826515
H50	H	1.792904	-0.090459	0.840530
H51	H	1.808184	-0.218096	0.791901
H52	H	1.880025	-0.000466	0.630991
H53	H	1.895329	-0.128097	0.582359
H54	H	1.407349	0.251982	0.530726
O55	O	1.394094	0.265045	0.351963
C56	C	1.316392	0.197667	0.456876
H57	H	1.365021	0.100338	0.503900
H58	H	1.223989	0.188657	0.400581
C59	C	1.230917	0.387252	0.526242
C60	C	1.290649	0.267715	0.584007
H61	H	1.215032	0.430462	0.604660
H62	H	1.283263	0.432647	0.455557
H63	H	1.153922	0.379727	0.479331
H64	H	1.367649	0.275241	0.630900
H65	H	1.238315	0.222322	0.654704
H66	H	1.055855	0.185518	0.060771
H67	H	0.895363	0.181280	0.061826
H68	H	0.850893	0.180108	-0.277594
