data_functionalizedCrystal
_audit_creation_method	'MofGen! by Chris Wilmer'
_symmetry_space_group_name_H-M	'P1'
_symmetry_Int_Tables_number	1
_symmetry_cell_setting	triclinic
loop_
_symmetry_equiv_pos_as_xyz
  x,y,z
_cell_length_a	23.532355
_cell_length_b	23.532407
_cell_length_c	22.610064
_cell_angle_alpha	89.995564
_cell_angle_beta	89.997644
_cell_angle_gamma	82.838123
loop_
_atom_site_label
_atom_site_type_symbol
_atom_site_fract_x
_atom_site_fract_y
_atom_site_fract_z
O1	O	0.755283	0.068986	-0.049115
O2	O	1.255283	0.568986	0.450885
O3	O	0.589415	0.079020	-0.049135
O4	O	1.089415	0.579020	0.450865
O5	O	0.677351	-0.008929	-0.049108
O6	O	1.177351	0.491071	0.450892
O7	O	0.667347	0.156936	-0.049142
O8	O	1.167347	0.656936	0.450858
O9	O	0.677335	-0.008916	0.049261
O10	O	1.177335	0.491084	0.549261
O11	O	0.589400	0.079033	0.049234
O12	O	1.089400	0.579033	0.549234
O13	O	0.755267	0.068999	0.049254
O14	O	1.255267	0.568999	0.549254
Zn15	Zn	0.672331	0.074018	0.064862
Zn16	Zn	1.172331	0.574018	0.564862
Zn17	Zn	0.672351	0.074001	-0.064743
Zn18	Zn	1.172351	0.574001	0.435257
O19	O	0.667332	0.156949	0.049227
O20	O	1.167332	0.656949	0.549227
C21	C	0.568191	0.078776	0.000047
C22	C	1.068191	0.578776	0.500047
C23	C	0.504972	0.078022	0.000040
C24	C	1.004972	0.578022	0.500040
C25	C	0.677088	-0.030139	0.000080
C26	C	1.177088	0.469861	0.500080
C27	C	0.676322	-0.093356	0.000089
C28	C	1.176322	0.406644	0.500089
C29	C	0.112950	0.073291	0.053687
C30	C	0.612950	0.573291	0.553687
C31	C	0.053550	0.072573	0.053689
C32	C	0.553550	0.572573	0.553689
O33	O	0.022825	0.072189	0.099291
O34	O	0.522825	0.572189	0.599291
N35	N	0.023850	0.072211	0.000068
N36	N	0.523850	0.572211	0.500068
C37	C	0.053554	0.072560	-0.053558
C38	C	0.553554	0.572560	0.446442
O39	O	0.022837	0.072185	-0.099167
O40	O	0.522837	0.572185	0.400833
C41	C	0.112953	0.073273	-0.053560
C42	C	0.612953	0.573273	0.446440
C43	C	0.142649	0.073641	0.000064
C44	C	0.642649	0.573641	0.500064
C45	C	0.142646	0.073659	0.107307
C46	C	0.642646	0.573659	0.607307
C47	C	0.202041	0.074377	0.107304
C48	C	0.702041	0.574377	0.607304
C49	C	0.231740	0.074728	0.053681
C50	C	0.731740	0.574728	0.553681
C51	C	0.202044	0.074360	0.000062
C52	C	0.702044	0.574360	0.500062
C53	C	0.142655	0.073618	-0.107186
C54	C	0.642655	0.573618	0.392814
C55	C	0.202058	0.074331	-0.107183
C56	C	0.702058	0.574331	0.392817
C57	C	0.231754	0.074699	-0.053559
C58	C	0.731754	0.574699	0.446441
C59	C	0.291138	0.075429	-0.053564
C60	C	0.791138	0.575429	0.446436
N61	N	0.320838	0.075792	0.000057
N62	N	0.820838	0.575792	0.500057
C63	C	0.291139	0.075441	0.053680
C64	C	0.791139	0.575441	0.553680
C65	C	-0.071188	0.071061	-0.053550
C66	C	0.428812	0.571061	0.446450
C67	C	-0.130586	0.070351	-0.053549
C68	C	0.369414	0.570351	0.446451
C69	C	-0.130585	0.070364	0.053699
C70	C	0.369415	0.570364	0.553699
C71	C	-0.071186	0.071077	0.053697
C72	C	0.428814	0.571077	0.553697
C73	C	-0.041488	0.071423	0.000070
C74	C	0.458512	0.571423	0.500070
C75	C	0.415873	0.076951	0.053670
C76	C	0.915873	0.576951	0.553670
C77	C	0.475273	0.077671	0.053663
C78	C	0.975273	0.577671	0.553663
C79	C	0.475268	0.077656	-0.053585
C80	C	0.975268	0.577656	0.446415
C81	C	0.415872	0.076938	-0.053578
C82	C	0.915872	0.576938	0.446422
C83	C	0.386177	0.076583	0.000055
C84	C	0.886177	0.576583	0.500055
O85	O	0.321902	0.075812	-0.099142
O86	O	0.821902	0.575812	0.400858
O87	O	0.321864	0.075809	0.099280
O88	O	0.821864	0.575809	0.599280
C89	C	0.621125	-0.359513	0.000045
C90	C	1.121125	0.140487	0.500045
C91	C	0.621837	-0.300113	0.000050
C92	C	1.121837	0.199887	0.500050
O93	O	0.578050	-0.263360	0.000025
O94	O	1.078050	0.236640	0.500025
N95	N	0.674114	-0.277496	0.000063
N96	N	1.174114	0.222504	0.500063
C97	C	0.725684	-0.314283	0.000065
C98	C	1.225684	0.185717	0.500065
O99	O	0.770216	-0.289592	0.000076
O100	O	1.270216	0.210408	0.500076
C101	C	0.724972	-0.373682	0.000056
C102	C	1.224972	0.126318	0.500056
C103	C	0.672691	-0.396295	0.000049
C104	C	1.172691	0.103705	0.500049
C105	C	0.568849	-0.382126	0.000037
C106	C	1.068849	0.117874	0.500037
C107	C	0.568137	-0.441522	0.000033
C108	C	1.068137	0.058478	0.500033
C109	C	0.619703	-0.478305	0.000038
C110	C	1.119703	0.021695	0.500038
C111	C	0.671980	-0.455691	0.000046
C112	C	1.171980	0.044309	0.500046
C113	C	0.776541	-0.410468	0.000055
C114	C	1.276541	0.089532	0.500055
C115	C	0.775824	-0.469871	0.000045
C116	C	1.275824	0.030129	0.500045
C117	C	0.723543	-0.492484	0.000038
C118	C	1.223543	0.007516	0.500038
C119	C	0.722834	-0.551870	0.000047
C120	C	1.222834	-0.051870	0.500047
N121	N	0.670556	-0.574486	0.000033
N122	N	1.170556	-0.074486	0.500033
C123	C	0.618991	-0.537704	0.000029
C124	C	1.118991	-0.037704	0.500029
C125	C	0.727175	-0.189541	0.000083
C126	C	1.227175	0.310459	0.500083
C127	C	0.727888	-0.130143	0.000096
C128	C	1.227888	0.369857	0.500096
C129	C	0.624041	-0.115977	0.000079
C130	C	1.124041	0.384023	0.500079
C131	C	0.623329	-0.175376	0.000070
C132	C	1.123329	0.324624	0.500070
C133	C	0.674898	-0.212158	0.000070
C134	C	1.174898	0.287842	0.500070
C135	C	0.617501	-0.662440	0.000022
C136	C	1.117501	-0.162440	0.500022
C137	C	0.616795	-0.721842	0.000021
C138	C	1.116795	-0.221842	0.500021
C139	C	0.720642	-0.736004	0.000035
C140	C	1.220642	-0.236004	0.500035
C141	C	0.721349	-0.676607	0.000039
C142	C	1.221349	-0.176607	0.500039
C143	C	0.669774	-0.639826	0.000031
C144	C	1.169774	-0.139826	0.500031
O145	O	0.766598	-0.588657	0.000068
O146	O	1.266598	-0.088657	0.500068
O147	O	0.574467	-0.562403	0.000010
O148	O	1.074467	-0.062403	0.500010
C149	C	0.776492	0.069244	0.000071
C150	C	1.276492	0.569244	0.500071
C151	C	0.839710	0.069998	0.000074
C152	C	1.339710	0.569998	0.500074
C153	C	0.667594	0.178158	0.000038
C154	C	1.167594	0.678158	0.500038
C155	C	0.668360	0.241375	0.000025
C156	C	1.168360	0.741375	0.500025
N157	N	0.672321	0.074029	0.153315
N158	N	1.172321	0.574029	0.653315
N159	N	0.672366	0.073986	-0.153196
N160	N	1.172366	0.573986	0.346804
C161	C	0.711291	0.035063	0.561968
C162	C	1.211291	0.535063	1.061968
C163	C	0.711294	0.035059	0.623888
C164	C	1.211294	0.535059	1.123888
O165	O	0.744403	0.001937	0.655917
O166	O	1.244403	0.501937	1.155917
N167	N	0.672351	0.073990	0.654852
N168	N	1.172351	0.573990	1.154852
C169	C	0.633399	0.112923	0.623893
C170	C	1.133399	0.612923	1.123893
O171	O	0.600275	0.146036	0.655915
O172	O	1.100275	0.646036	1.155915
C173	C	0.633394	0.112924	0.561974
C174	C	1.133394	0.612924	1.061974
C175	C	0.672343	0.073995	0.531013
C176	C	1.172343	0.573995	1.031013
C177	C	0.750237	-0.003863	0.531008
C178	C	1.250237	0.496137	1.031008
C179	C	0.750234	-0.003858	0.469092
C180	C	1.250234	0.496142	0.969092
C181	C	0.711286	0.035073	0.438137
C182	C	1.211286	0.535073	0.938137
C183	C	0.672341	0.074000	0.469098
C184	C	1.172341	0.574000	0.969098
C185	C	0.594439	0.151854	0.531016
C186	C	1.094439	0.651854	1.031016
C187	C	0.594437	0.151851	0.469093
C188	C	1.094437	0.651851	0.969093
C189	C	0.633386	0.112922	0.438132
C190	C	1.133386	0.612922	0.938132
C191	C	0.633390	0.112936	0.376227
C192	C	1.133390	0.612936	0.876227
N193	N	0.672333	0.074006	0.345263
N194	N	1.172333	0.574006	0.845263
C195	C	0.711281	0.035074	0.376218
C196	C	1.211281	0.535074	0.876218
C197	C	0.633412	0.112917	0.753926
C198	C	1.133412	0.612917	1.253926
C199	C	0.633419	0.112919	0.815844
C200	C	1.133419	0.612919	1.315844
C201	C	0.711314	0.035055	0.815835
C202	C	1.211314	0.535055	1.315835
C203	C	0.711309	0.035056	0.753916
C204	C	1.211309	0.535056	1.253916
C205	C	0.672355	0.073987	0.722962
C206	C	1.172355	0.573987	1.222962
C207	C	0.711273	0.035088	0.246191
C208	C	1.211273	0.535088	0.746191
C209	C	0.711269	0.035098	0.184270
C210	C	1.211269	0.535098	0.684270
C211	C	0.633373	0.112960	0.184284
C212	C	1.133373	0.612960	0.684284
C213	C	0.633379	0.112953	0.246200
C214	C	1.133379	0.612953	0.746200
C215	C	0.672331	0.074012	0.277152
C216	C	1.172331	0.574012	0.777152
O217	O	0.600296	0.146040	0.344159
O218	O	1.100296	0.646040	0.844159
O219	O	0.744395	0.001962	0.344188
O220	O	1.244395	0.501962	0.844188
H221	H	0.499449	0.077973	0.097332
H222	H	0.999449	0.577973	0.597332
H223	H	-0.154777	0.070078	0.097361
H224	H	0.345223	0.570078	0.597361
H225	H	-0.047012	0.071348	-0.097222
H226	H	0.452988	0.571348	0.402778
C227	C	0.560766	-0.621990	0.000017
C228	C	1.060766	-0.121990	0.500017
N229	N	0.518033	-0.591523	0.000017
N230	N	1.018033	-0.091523	0.500017
C231	C	0.383216	0.076566	0.112668
C232	C	0.883216	0.576566	0.612668
N233	N	0.358618	0.076282	0.157106
N234	N	0.858618	0.576282	0.657106
H235	H	0.601668	0.144658	0.271408
H236	H	1.101668	0.644658	0.771408
C237	C	-0.163246	0.069951	-0.112540
C238	C	0.336754	0.569951	0.387460
N239	N	-0.187842	0.069644	-0.156974
N240	N	0.312158	0.569644	0.343026
C241	C	0.590583	0.155773	0.719882
C242	C	1.090583	0.655773	1.219882
N243	N	0.558331	0.188060	0.694244
N244	N	1.058331	0.688060	1.194244
H245	H	0.118487	0.073317	-0.150853
H246	H	0.618487	0.573317	0.349147
C247	C	0.234723	0.074713	-0.166178
C248	C	0.734723	0.574713	0.333822
N249	N	0.259324	0.075003	-0.210613
N250	N	0.759324	0.575003	0.289387
C251	C	0.783910	-0.229997	0.000095
C252	C	1.283910	0.270003	0.500095
N253	N	0.826642	-0.260465	0.000105
N254	N	1.326642	0.239535	0.500105
H255	H	0.391691	0.076647	-0.097243
H256	H	0.891691	0.576647	0.402757
H257	H	0.226215	0.074674	0.150971
H258	H	0.726215	0.574674	0.650971
H259	H	0.817819	-0.499816	0.000042
H260	H	1.317819	0.000184	0.500042
H261	H	0.525565	-0.459928	0.000023
H262	H	1.025565	0.040072	0.500023
H263	H	0.562723	0.183553	0.556215
H264	H	1.062723	0.683553	1.056215
H265	H	0.601663	0.144660	0.159071
H266	H	1.101663	0.644660	0.659071
C267	C	0.777361	-0.776475	0.000038
C268	C	1.277361	-0.276475	0.500038
N269	N	0.820082	-0.806960	0.000037
N270	N	1.320082	-0.306960	0.500037
C271	C	0.778860	-0.651732	0.000050
C272	C	1.278860	-0.151732	0.500050
N273	N	0.822179	-0.633000	0.000052
N274	N	1.322179	-0.133000	0.500052
C275	C	0.559279	-0.746712	0.000011
C276	C	1.059279	-0.246712	0.500011
N277	N	0.515960	-0.765442	0.000002
N278	N	1.015960	-0.265442	0.500002
C279	C	0.507948	0.078037	-0.112567
C280	C	1.007948	0.578037	0.387433
N281	N	0.532566	0.078320	-0.156992
N282	N	1.032566	0.578320	0.343008
C283	C	0.512117	-0.341674	0.000032
C284	C	1.012117	0.158326	0.500032
N285	N	0.469383	-0.311208	0.000032
N286	N	0.969383	0.188792	0.500032
H287	H	-0.047012	0.071378	0.097362
H288	H	0.452988	0.571378	0.597362
H289	H	0.743024	0.003356	0.728712
H290	H	1.243024	0.503356	1.228712
C291	C	0.565816	-0.200244	0.000057
C292	C	1.065816	0.299756	0.500057
N293	N	0.522495	-0.218971	0.000045
N294	N	1.022495	0.281029	0.500045
C295	C	0.109986	0.073281	0.166301
C296	C	0.609986	0.573281	0.666301
N297	N	0.085389	0.073003	0.210740
N298	N	0.585389	0.573003	0.710740
H299	H	0.819114	-0.392068	0.000060
H300	H	1.319114	0.107932	0.500060
H301	H	0.582053	-0.086017	0.000076
H302	H	1.082053	0.413983	0.500076
C303	C	0.785401	-0.105276	0.000112
C304	C	1.285401	0.394724	0.500112
N305	N	0.828722	-0.086549	0.000120
N306	N	1.328722	0.413451	0.500120
H307	H	0.742988	0.003397	0.159064
H308	H	1.242988	0.503397	0.659064
H309	H	0.742991	0.003378	0.271385
H310	H	1.242991	0.503378	0.771385
H311	H	0.781953	-0.035569	0.556206
H312	H	1.281953	0.464431	1.056206
C313	C	0.793076	-0.046690	0.435044
C314	C	1.293076	0.453310	0.935044
N315	N	0.825344	-0.078956	0.409402
N316	N	1.325344	0.421044	0.909402
C317	C	0.754154	-0.007775	0.849898
C318	C	1.254154	0.492225	1.349898
N319	N	0.786419	-0.040033	0.875555
N320	N	1.286419	0.459967	1.375555
C321	C	0.590576	0.155749	0.849893
C322	C	1.090576	0.655749	1.349893
N323	N	0.558302	0.188006	0.875537
N324	N	1.058302	0.688006	1.375537
C325	C	0.551589	0.194686	0.435047
C326	C	1.051589	0.694686	0.935047
N327	N	0.519320	0.226952	0.409405
N328	N	1.019320	0.726952	0.909405
