data_functionalizedCrystal
_audit_creation_method	'MofGen! by Chris Wilmer'
_symmetry_space_group_name_H-M	'P1'
_symmetry_Int_Tables_number	1
_symmetry_cell_setting	triclinic
loop_
_symmetry_equiv_pos_as_xyz
  x,y,z
_cell_length_a	19.077105
_cell_length_b	12.759394
_cell_length_c	19.076919
_cell_angle_alpha	92.274121
_cell_angle_beta	90.076224
_cell_angle_gamma	87.711291
loop_
_atom_site_label
_atom_site_type_symbol
_atom_site_fract_x
_atom_site_fract_y
_atom_site_fract_z
Zn1	Zn	1.058327	-0.508276	-0.440432
Zn2	Zn	1.062986	-0.677203	-0.322930
Zn3	Zn	0.945543	-0.494202	-0.318225
Zn4	Zn	0.940807	-0.676569	-0.435682
O5	O	1.001916	-0.589062	-0.379317
O6	O	1.157277	-0.536840	-0.428802
O7	O	1.051338	-0.647302	-0.223974
O8	O	0.960536	-0.349050	-0.334454
O9	O	1.160700	-0.660950	-0.342473
O10	O	1.043398	-0.359391	-0.424239
O11	O	0.965054	-0.512852	-0.220517
O12	O	0.846582	-0.512238	-0.329849
O13	O	0.952465	-0.659870	-0.534644
O14	O	0.843103	-0.646222	-0.416144
O15	O	1.038806	-0.536225	-0.538133
O16	O	1.046746	-0.824137	-0.337868
O17	O	0.956982	-0.823671	-0.420707
C18	C	0.819346	-0.577635	-0.371971
C19	C	0.741242	-0.572772	-0.368845
C20	C	0.702757	-0.640344	-0.412235
C21	C	0.629370	-0.635761	-0.409302
C22	C	0.594467	-0.563612	-0.362974
C23	C	0.632957	-0.496033	-0.319582
C24	C	0.706343	-0.500611	-0.322520
C25	C	0.375178	-0.542424	-0.349381
C26	C	0.301786	-0.537853	-0.346444
C27	C	0.298204	-0.677581	-0.436166
C28	C	0.371592	-0.682157	-0.439096
C29	C	0.410075	-0.614574	-0.395707
N30	N	0.519453	-0.558928	-0.359972
N31	N	0.485088	-0.619253	-0.398713
C32	C	1.001874	-0.862026	-0.379298
C33	C	1.001920	-0.978807	-0.379316
C34	C	1.095456	-0.979246	-0.293126
C35	C	1.142242	-1.034328	-0.250040
C36	C	1.142282	-1.144054	-0.250061
C37	C	1.095533	-1.198699	-0.293174
C38	C	1.048747	-1.143617	-0.336260
C39	C	1.048710	-1.033889	-0.336233
C40	C	0.955216	-1.143178	-0.422453
C41	C	0.955171	-1.033453	-0.422429
C42	C	0.908467	-1.197824	-0.465566
C43	C	0.861676	-1.142741	-0.508649
C44	C	0.861637	-1.033009	-0.508626
C45	C	0.908385	-0.978370	-0.465515
C46	C	1.185198	-0.600535	-0.386692
C47	C	1.263302	-0.605424	-0.389835
C48	C	0.994587	-0.599547	-0.562597
C49	C	0.991465	-0.604015	-0.640701
C50	C	1.001976	-0.315035	-0.379352
C51	C	1.002002	-0.198260	-0.379367
C52	C	1.034948	-0.541742	-0.679212
C53	C	1.032006	-0.545935	-0.752598
C54	C	0.985582	-0.612408	-0.787471
C55	C	0.942093	-0.674683	-0.748955
C56	C	0.945033	-0.670484	-0.675570
C57	C	0.971966	-0.631866	-1.006753
C58	C	0.969031	-0.636063	-1.080143
C59	C	1.058943	-0.507313	-1.083780
C60	C	1.061881	-0.503124	-1.010394
C61	C	1.018390	-0.565395	-0.971884
N62	N	0.982574	-0.616698	-0.862484
N63	N	1.021395	-0.561098	-0.896873
C64	C	1.009256	-0.578545	-0.196751
C65	C	1.012515	-0.573790	-0.118654
H66	H	0.731170	-0.699099	-0.449959
C67	C	1.193666	-0.974218	-0.202619
C68	C	1.193627	-0.853524	-0.202591
C69	C	1.245053	-0.793418	-0.155174
C70	C	1.296519	-0.854007	-0.107784
C71	C	1.296560	-0.974708	-0.107810
C72	C	1.245133	-1.034813	-0.155228
H73	H	1.155527	-0.808667	-0.237674
H74	H	1.245023	-0.704067	-0.155154
H75	H	1.334588	-0.809513	-0.072682
H76	H	1.334660	-1.019565	-0.072728
H77	H	1.245164	-1.124164	-0.155247
H78	H	0.936563	-0.682588	-0.975407
C79	C	0.810171	-0.972422	-0.556022
C80	C	0.756213	-0.891889	-0.523302
C81	C	0.704746	-0.831306	-0.570700
C82	C	0.707237	-0.851257	-0.650817
C83	C	0.761196	-0.931794	-0.683541
C84	C	0.812663	-0.992376	-0.636144
H85	H	0.754368	-0.877117	-0.463991
H86	H	0.664802	-0.771687	-0.546474
H87	H	0.669138	-0.806410	-0.685903
H88	H	0.763042	-0.946565	-0.742853
H89	H	0.852608	-1.051995	-0.660369
H90	H	0.598039	-0.690786	-0.444634
H91	H	0.400005	-0.740911	-0.476820
C92	C	1.086016	-0.468619	-0.640853
C93	C	1.079901	-0.349404	-0.650728
C94	C	1.130967	-0.276277	-0.612372
C95	C	1.188149	-0.322365	-0.564141
C96	C	1.194266	-0.441586	-0.554264
C97	C	1.143199	-0.514713	-0.592620
H98	H	1.037569	-0.315282	-0.686434
H99	H	1.126439	-0.188021	-0.619684
H100	H	1.225951	-0.268232	-0.535748
H101	H	1.236597	-0.475709	-0.518559
H102	H	1.147728	-0.602969	-0.585308
H103	H	0.266864	-0.732601	-0.471492
C104	C	0.263392	-0.458480	-0.295482
C105	C	0.182670	-0.453455	-0.292248
C106	C	0.144275	-0.374090	-0.241288
C107	C	0.186602	-0.299750	-0.193561
C108	C	0.267329	-0.304773	-0.196793
C109	C	0.305724	-0.384138	-0.247754
H110	H	0.151333	-0.508489	-0.327580
H111	H	0.084516	-0.370373	-0.238895
H112	H	0.158180	-0.241000	-0.155837
H113	H	0.298666	-0.249740	-0.161462
H114	H	0.365483	-0.387855	-0.250147
C115	C	0.810259	-1.202851	-0.556071
C116	C	0.810309	-1.323546	-0.556101
C117	C	0.758891	-1.383660	-0.603524
C118	C	0.707424	-1.323079	-0.650917
C119	C	0.707372	-1.202377	-0.650888
C120	C	0.758790	-1.142263	-0.603465
H121	H	0.848409	-1.368397	-0.521017
H122	H	0.758929	-1.473011	-0.603545
H123	H	0.669361	-1.367579	-0.686022
H124	H	0.669272	-1.157526	-0.685973
H125	H	0.758752	-1.052912	-0.603444
H126	H	1.095419	-0.889901	-0.293096
C127	C	1.079840	-0.477431	-0.794956
C128	C	1.160125	-0.490433	-0.788086
C129	C	1.207960	-0.421922	-0.830443
C130	C	1.175511	-0.340408	-0.879670
C131	C	1.095223	-0.327402	-0.886542
C132	C	1.047387	-0.395914	-0.844185
H133	H	1.184149	-0.550777	-0.751643
H134	H	1.267396	-0.431550	-0.825355
H135	H	1.210922	-0.289692	-0.911025
H136	H	1.071198	-0.267058	-0.922985
H137	H	0.987952	-0.386286	-0.849273
H138	H	1.095576	-1.288044	-0.293193
C139	C	0.917984	-0.709222	-1.118507
C140	C	0.870161	-0.777745	-1.076150
C141	C	0.819130	-0.850920	-1.114515
C142	C	0.815922	-0.855571	-1.195236
C143	C	0.863745	-0.787045	-1.237598
C144	C	0.914777	-0.713871	-1.199233
H145	H	0.872535	-0.774304	-1.016392
H146	H	0.783728	-0.901647	-1.083156
H147	H	0.778145	-0.909739	-1.223636
H148	H	0.861372	-0.790486	-1.297356
H149	H	0.950179	-0.663143	-1.230592
C150	C	0.594563	-0.416667	-0.268622
C151	C	0.542905	-0.332861	-0.297149
C152	C	0.504512	-0.253496	-0.246187
C153	C	0.517778	-0.257936	-0.166699
C154	C	0.569439	-0.341745	-0.138167
C155	C	0.607832	-0.421110	-0.189129
H156	H	0.533082	-0.329571	-0.355995
H157	H	0.466269	-0.191455	-0.267309
H158	H	0.489357	-0.199185	-0.128974
H159	H	0.579262	-0.345034	-0.079321
H160	H	0.646075	-0.483151	-0.168008
C161	C	0.891031	-0.747806	-0.787320
C162	C	0.919450	-0.835079	-0.838983
C163	C	0.868391	-0.908207	-0.877349
C164	C	0.788912	-0.894062	-0.864052
C165	C	0.760489	-0.806786	-0.812386
C166	C	0.811548	-0.733658	-0.774020
H167	H	0.978289	-0.845553	-0.848829
H168	H	0.889432	-0.972815	-0.915595
H169	H	0.751115	-0.948196	-0.892452
H170	H	0.701651	-0.796312	-0.802540
H171	H	0.790507	-0.669050	-0.735774
H172	H	0.406502	-0.487401	-0.314044
H173	H	0.737676	-0.445582	-0.287190
H174	H	0.908353	-0.889026	-0.465488
H175	H	0.909617	-0.721182	-0.644215
H176	H	1.180383	-1.188902	-0.214980
H177	H	1.099686	-0.448998	-0.982005
H178	H	0.908506	-1.287168	-0.465583
H179	H	1.094350	-0.456614	-1.115143
