data_functionalizedCrystal
_audit_creation_method	'MofGen! by Chris Wilmer'
_symmetry_space_group_name_H-M	'P1'
_symmetry_Int_Tables_number	1
_symmetry_cell_setting	triclinic
loop_
_symmetry_equiv_pos_as_xyz
  x,y,z
_cell_length_a	27.732048
_cell_length_b	14.519709
_cell_length_c	12.996460
_cell_angle_alpha	89.999966
_cell_angle_beta	89.988908
_cell_angle_gamma	96.838600
loop_
_atom_site_label
_atom_site_type_symbol
_atom_site_fract_x
_atom_site_fract_y
_atom_site_fract_z
O1	O	0.063362	-1.222766	-0.085445
O2	O	0.396696	-0.889433	0.247889
O3	O	0.730029	-0.556100	0.581222
O4	O	0.070824	-0.954160	-0.085477
O5	O	0.404157	-0.620826	0.247856
O6	O	0.737491	-0.287493	0.581189
O7	O	-0.003264	-1.096805	-0.085440
O8	O	0.330070	-0.763472	0.247893
O9	O	0.663403	-0.430139	0.581226
O10	O	0.137450	-1.080121	-0.085482
O11	O	0.470783	-0.746787	0.247852
O12	O	0.804117	-0.413454	0.581185
O13	O	-0.003268	-1.096791	0.085693
O14	O	0.330065	-0.763457	0.419027
O15	O	0.663399	-0.430124	0.752360
O16	O	0.070820	-0.954145	0.085656
O17	O	0.404153	-0.620812	0.418990
O18	O	0.737486	-0.287478	0.752323
O19	O	0.063358	-1.222752	0.085689
O20	O	0.396691	-0.889418	0.419023
O21	O	0.730025	-0.556085	0.752356
Cu22	Cu	0.067089	-1.088447	0.101299
Cu23	Cu	0.400422	-0.755114	0.434632
Cu24	Cu	0.733755	-0.421780	0.767965
Cu25	Cu	0.067093	-1.088464	-0.101087
Cu26	Cu	0.400427	-0.755131	0.232246
Cu27	Cu	0.733760	-0.421798	0.565580
O28	O	0.137446	-1.080106	0.085652
O29	O	0.470779	-0.746773	0.418986
O30	O	0.804112	-0.413439	0.752319
C31	C	0.070474	-0.919799	0.000086
C32	C	0.403807	-0.586465	0.333419
C33	C	0.737141	-0.253132	0.666752
C34	C	0.069432	-0.817435	0.000074
C35	C	0.402765	-0.484102	0.333407
C36	C	0.736099	-0.150769	0.666741
C37	C	-0.021274	-1.096448	0.000129
C38	C	0.312059	-0.763114	0.333463
C39	C	0.645392	-0.429781	0.666796
C40	C	-0.074934	-1.095393	0.000138
C41	C	0.258399	-0.762060	0.333471
C42	C	0.591732	-0.428727	0.666804
C43	C	0.063708	-1.257113	0.000124
C44	C	0.397041	-0.923779	0.333457
C45	C	0.730375	-0.590446	0.666791
C46	C	0.064750	-1.359476	0.000129
C47	C	0.398083	-1.026143	0.333462
C48	C	0.731417	-0.692809	0.666796
C49	C	-0.413378	-1.173048	0.000094
C50	C	-0.080045	-0.839715	0.333428
C51	C	0.253288	-0.506381	0.666761
C52	C	-0.615057	-1.169135	0.000080
C53	C	-0.281723	-0.835802	0.333413
C54	C	0.051610	-0.502469	0.666746
O55	O	-0.645973	-1.240145	0.000043
O56	O	-0.312640	-0.906812	0.333376
O57	O	0.020694	-0.573478	0.666710
N58	N	-0.634585	-1.084552	0.000070
N59	N	-0.301251	-0.751219	0.333403
N60	N	0.032082	-0.417886	0.666737
C61	C	-0.603690	-1.000941	0.000058
C62	C	-0.270356	-0.667608	0.333391
C63	C	0.062977	-0.334275	0.666724
O64	O	-0.624927	-0.928909	0.000039
O65	O	-0.291594	-0.595575	0.333372
O66	O	0.041740	-0.262242	0.666705
C67	C	-0.402012	-1.004855	0.000065
C68	C	-0.068679	-0.671522	0.333398
C69	C	0.264654	-0.338189	0.666732
C70	C	-0.382487	-1.089444	0.000085
C71	C	-0.049154	-0.756110	0.333418
C72	C	0.284179	-0.422777	0.666752
C73	C	-0.393853	-1.257630	0.000113
C74	C	-0.060519	-0.924296	0.333446
C75	C	0.272814	-0.590963	0.666780
C76	C	-0.343436	-1.258607	0.000122
C77	C	-0.010103	-0.925274	0.333456
C78	C	0.323231	-0.591940	0.666789
C79	C	-0.312545	-1.175003	0.000113
C80	C	0.020788	-0.841669	0.333446
C81	C	0.354122	-0.508336	0.666780
C82	C	-0.332071	-1.090421	0.000094
C83	C	0.001263	-0.757088	0.333428
C84	C	0.334596	-0.423754	0.666761
C85	C	-0.371118	-0.921246	0.000045
C86	C	-0.037785	-0.587912	0.333379
C87	C	0.295548	-0.254579	0.666712
C88	C	-0.320696	-0.922232	0.000045
C89	C	0.012637	-0.588898	0.333378
C90	C	0.345970	-0.255565	0.666711
C91	C	-0.301171	-1.006820	0.000064
C92	C	0.032162	-0.673487	0.333398
C93	C	0.365496	-0.340153	0.666731
C94	C	-0.250763	-1.007794	0.000094
C95	C	0.082570	-0.674461	0.333428
C96	C	0.415904	-0.341128	0.666761
N97	N	-0.231235	-1.092377	0.000104
N98	N	0.102098	-0.759044	0.333437
N99	N	0.435432	-0.425711	0.666770
C100	C	-0.262126	-1.175981	0.000113
C101	C	0.071207	-0.842648	0.333446
C102	C	0.404541	-0.509315	0.666780
C103	C	-0.709574	-0.998893	0.000056
C104	C	-0.376240	-0.665559	0.333389
C105	C	-0.042907	-0.332226	0.666722
C106	C	-0.759993	-0.997914	0.000056
C107	C	-0.426659	-0.664581	0.333389
C108	C	-0.093326	-0.331247	0.666722
C109	C	-0.771356	-1.166108	0.000076
C110	C	-0.438023	-0.832775	0.333409
C111	C	-0.104689	-0.499441	0.666742
C112	C	-0.720936	-1.167086	0.000083
C113	C	-0.387603	-0.833752	0.333416
C114	C	-0.054269	-0.500419	0.666750
C115	C	-0.690045	-1.083476	0.000065
C116	C	-0.356712	-0.750142	0.333399
C117	C	-0.023379	-0.416809	0.666732
C118	C	-0.156247	-1.178028	0.000133
C119	C	0.177086	-0.844694	0.333467
C120	C	0.510420	-0.511361	0.666800
C121	C	-0.105825	-1.178998	0.000147
C122	C	0.227508	-0.845664	0.333480
C123	C	0.560841	-0.512331	0.666814
C124	C	-0.094466	-1.010804	0.000122
C125	C	0.238867	-0.677471	0.333455
C126	C	0.572200	-0.344137	0.666788
C127	C	-0.144883	-1.009833	0.000114
C128	C	0.188450	-0.676500	0.333447
C129	C	0.521783	-0.343167	0.666780
C130	C	-0.175773	-1.093453	0.000116
C131	C	0.157560	-0.760119	0.333449
C132	C	0.490894	-0.426786	0.666783
O133	O	-0.219818	-0.936822	0.000119
O134	O	0.113515	-0.603489	0.333452
O135	O	0.446849	-0.270156	0.666786
O136	O	-0.240879	-1.248004	0.000109
O137	O	0.092454	-0.914670	0.333442
O138	O	0.425787	-0.581337	0.666776
C139	C	-0.463795	-1.172071	0.000085
C140	C	-0.130462	-0.838737	0.333418
C141	C	0.202872	-0.505404	0.666752
C142	C	-0.483320	-1.087489	0.000066
C143	C	-0.149987	-0.754156	0.333400
C144	C	0.183346	-0.420823	0.666733
C145	C	-0.452429	-1.003885	0.000057
C146	C	-0.119096	-0.670552	0.333390
C147	C	0.214237	-0.337218	0.666724
C148	C	-0.533740	-1.086510	0.000066
C149	C	-0.200406	-0.753177	0.333400
C150	C	0.132927	-0.419844	0.666733
C151	C	-0.564631	-1.170115	0.000076
C152	C	-0.231297	-0.836781	0.333409
C153	C	0.102036	-0.503448	0.666742
C154	C	-0.545103	-1.254698	0.000085
C155	C	-0.211769	-0.921364	0.333418
C156	C	0.121564	-0.588031	0.666752
C157	C	-0.494686	-1.255675	0.000094
C158	C	-0.161353	-0.922342	0.333428
C159	C	0.171981	-0.589008	0.666761
C160	C	-0.471957	-0.919302	0.000048
C161	C	-0.138624	-0.585969	0.333381
C162	C	0.194709	-0.252635	0.666714
C163	C	-0.522375	-0.918331	0.000039
C164	C	-0.189041	-0.584998	0.333373
C165	C	0.144292	-0.251665	0.666706
C166	C	-0.553266	-1.001936	0.000049
C167	C	-0.219932	-0.668602	0.333382
C168	C	0.113401	-0.335269	0.666715
C169	C	0.155456	-1.080464	0.000080
C170	C	0.488790	-0.747130	0.333414
C171	C	0.822123	-0.413797	0.666747
C172	C	0.209116	-1.081518	0.000065
C173	C	0.542450	-0.748185	0.333398
C174	C	0.875783	-0.414851	0.666732
N175	N	0.067085	-1.088442	0.243646
N176	N	0.400418	-0.755108	0.576979
N177	N	0.733751	-0.421775	0.910312
C178	C	0.065596	-0.442606	0.000122
C179	C	0.398929	-0.109273	0.333455
C180	C	0.732262	0.224060	0.666789
C181	C	0.066661	-0.546896	0.000108
C182	C	0.399994	-0.213562	0.333442
C183	C	0.733328	0.119771	0.666775
C184	C	0.067514	-0.630018	0.000097
C185	C	0.400847	-0.296684	0.333430
C186	C	0.734180	0.036649	0.666764
C187	C	0.068579	-0.734314	0.000085
C188	C	0.401913	-0.400980	0.333419
C189	C	0.735246	-0.067647	0.666752
N190	N	0.067093	-1.088477	-0.243434
N191	N	0.400427	-0.755144	0.089899
N192	N	0.733760	-0.421811	0.423233
C193	C	0.067094	-1.088463	0.663460
C194	C	0.400427	-0.755130	0.996793
C195	C	0.733761	-0.421796	1.330127
C196	C	0.067093	-1.088454	0.546655
C197	C	0.400426	-0.755121	0.879988
C198	C	0.733760	-0.421788	1.213322
C199	C	0.067090	-1.088453	0.453557
C200	C	0.400423	-0.755119	0.786890
C201	C	0.733756	-0.421786	1.120223
C202	C	0.067088	-1.088443	0.336744
C203	C	0.400421	-0.755110	0.670077
C204	C	0.733755	-0.421776	1.003411
H205	H	-0.089931	-1.247882	0.000166
H206	H	0.243402	-0.914549	0.333499
H207	H	0.576735	-0.581216	0.666832
H208	H	-0.478794	-1.324556	0.000110
H209	H	-0.145460	-0.991222	0.333443
H210	H	0.187873	-0.657889	0.666777
O211	O	-0.392169	-0.830009	0.000025
O212	O	-0.058836	-0.496676	0.333358
O213	O	0.274497	-0.163342	0.666691
H214	H	-0.379759	-0.789891	-0.069739
H215	H	-0.046425	-0.456558	0.263594
H216	H	0.286908	-0.123224	0.596927
O217	O	-0.427167	-1.347812	0.000126
O218	O	-0.093833	-1.014478	0.333460
O219	O	0.239500	-0.681145	0.666793
H220	H	-0.450416	-1.351381	0.069878
H221	H	-0.117082	-1.018047	0.403211
H222	H	0.216251	-0.684714	0.736545
H223	H	-0.570263	-1.322771	0.000097
H224	H	-0.236930	-0.989438	0.333431
H225	H	0.096404	-0.656105	0.666764
H226	H	-0.295547	-0.854144	0.000029
H227	H	0.037786	-0.520811	0.333362
H228	H	0.371120	-0.187478	0.666695
H229	H	-0.705043	-1.235965	0.000098
H230	H	-0.371709	-0.902632	0.333432
H231	H	-0.038376	-0.569298	0.666765
O232	O	-0.322386	-1.349849	0.000124
O233	O	0.010947	-1.016515	0.333458
O234	O	0.344280	-0.683182	0.666791
H235	H	-0.299698	-1.354335	0.069879
H236	H	0.033636	-1.021002	0.403212
H237	H	0.366969	-0.687669	0.736546
H238	H	-0.069306	-0.942736	0.000118
H239	H	0.264027	-0.609402	0.333451
H240	H	0.597361	-0.276069	0.666784
O241	O	-0.438642	-0.829124	0.000041
O242	O	-0.105309	-0.495791	0.333374
O243	O	0.228025	-0.162457	0.666708
H244	H	-0.415407	-0.825545	0.069794
H245	H	-0.082073	-0.492212	0.403128
H246	H	0.251260	-0.158878	0.736461
H247	H	-0.796516	-1.234182	0.000084
H248	H	-0.463183	-0.900849	0.333417
H249	H	-0.129850	-0.567515	0.666750
H250	H	-0.181392	-1.246119	0.000131
H251	H	0.151941	-0.912785	0.333465
H252	H	0.485275	-0.579452	0.666798
H253	H	-0.160781	-0.940955	0.000126
H254	H	0.172552	-0.607621	0.333459
H255	H	0.505885	-0.274288	0.666793
O256	O	-0.543432	-0.827091	0.000020
O257	O	-0.210099	-0.493758	0.333354
O258	O	0.123235	-0.160424	0.666687
H259	H	-0.513476	-0.769126	0.000006
H260	H	-0.180143	-0.435792	0.333339
H261	H	0.153191	-0.102459	0.666673
H262	H	-0.775885	-0.929034	0.000058
H263	H	-0.442552	-0.595700	0.333391
H264	H	-0.109218	-0.262367	0.666724
H265	H	-0.684426	-0.930803	0.000042
H266	H	-0.351093	-0.597470	0.333375
H267	H	-0.017759	-0.264136	0.666708
