data_functionalizedCrystal
_audit_creation_method	'MofGen! by Chris Wilmer'
_symmetry_space_group_name_H-M	'P1'
_symmetry_Int_Tables_number	1
_symmetry_cell_setting	triclinic
loop_
_symmetry_equiv_pos_as_xyz
  x,y,z
_cell_length_a	14.044191
_cell_length_b	14.044190
_cell_length_c	12.503572
_cell_angle_alpha	93.839403
_cell_angle_beta	86.162165
_cell_angle_gamma	93.191777
loop_
_atom_site_label
_atom_site_type_symbol
_atom_site_fract_x
_atom_site_fract_y
_atom_site_fract_z
O1	O	1.282215	0.225145	-0.089290
O2	O	1.615548	0.558478	0.244043
O3	O	1.948882	0.891812	0.577376
O4	O	1.005543	0.216832	-0.089303
O5	O	1.338876	0.550165	0.244030
O6	O	1.672210	0.883498	0.577364
O7	O	1.139721	0.082653	-0.089276
O8	O	1.473055	0.415986	0.244058
O9	O	1.806388	0.749320	0.577391
O10	O	1.148036	0.359323	-0.089318
O11	O	1.481370	0.692657	0.244016
O12	O	1.814703	1.025990	0.577349
O13	O	1.129632	0.092762	0.089364
O14	O	1.462965	0.426096	0.422698
O15	O	1.796299	0.759429	0.756031
O16	O	0.995453	0.226941	0.089337
O17	O	1.328787	0.560274	0.422670
O18	O	1.662120	0.893607	0.756004
O19	O	1.272125	0.235254	0.089350
O20	O	1.605459	0.568588	0.422683
O21	O	1.938792	0.901921	0.756016
Cu22	Cu	1.132868	0.232021	0.105654
Cu23	Cu	1.466201	0.565354	0.438988
Cu24	Cu	1.799535	0.898687	0.772321
Cu25	Cu	1.144800	0.220065	-0.105608
Cu26	Cu	1.478133	0.553398	0.227725
Cu27	Cu	1.811467	0.886732	0.561059
O28	O	1.137947	0.369433	0.089322
O29	O	1.471280	0.702766	0.422656
O30	O	1.804614	1.036099	0.755989
C31	C	0.964876	0.218249	0.000016
C32	C	1.298210	0.551583	0.333349
C33	C	1.631543	0.884916	0.666682
C34	C	0.858733	0.207402	0.000012
C35	C	1.192066	0.540735	0.333345
C36	C	1.525400	0.874069	0.666678
C37	C	1.131040	0.052086	0.000047
C38	C	1.464373	0.385419	0.333381
C39	C	1.797707	0.718752	0.666714
C40	C	1.120192	-0.054057	0.000056
C41	C	1.453525	0.279276	0.333389
C42	C	1.786859	0.612610	0.666723
C43	C	0.613276	0.264503	0.000014
C44	C	0.946609	0.597836	0.333347
C45	C	1.279943	0.931169	0.666680
C46	C	0.664399	0.187587	0.000023
C47	C	0.997732	0.520920	0.333357
C48	C	1.331066	0.854253	0.666690
C49	C	0.772536	0.198615	0.000017
C50	C	1.105870	0.531948	0.333350
C51	C	1.439203	0.865281	0.666684
C52	C	0.505129	0.253476	0.000020
C53	C	0.838462	0.586810	0.333354
C54	C	1.171795	0.920143	0.666687
C55	C	1.177295	-0.299516	0.000017
C56	C	1.510628	0.033817	0.333350
C57	C	1.843962	0.367150	0.666683
C58	C	1.100378	-0.248393	0.000021
C59	C	1.433712	0.084941	0.333354
C60	C	1.767045	0.418274	0.666687
C61	C	1.111405	-0.140254	0.000040
C62	C	1.444739	0.193079	0.333374
C63	C	1.778072	0.526412	0.666707
C64	C	1.166269	-0.407664	-0.000003
C65	C	1.499603	-0.074331	0.333330
C66	C	1.832936	0.259002	0.666664
C67	C	1.312792	0.233836	0.000029
C68	C	1.646126	0.567169	0.333362
C69	C	1.979459	0.900503	0.666695
C70	C	1.418936	0.244683	0.000026
C71	C	1.752269	0.578017	0.333359
C72	C	2.085602	0.911350	0.666692
C73	C	1.146629	0.400000	-0.000003
C74	C	1.479962	0.733333	0.333330
C75	C	1.813295	1.066666	0.666664
C76	C	1.157477	0.506142	-0.000019
C77	C	1.490810	0.839476	0.333314
C78	C	1.824143	1.172809	0.666648
N79	N	1.124483	0.240429	0.254245
N80	N	1.457816	0.573763	0.587578
N81	N	1.791149	0.907096	0.920912
N82	N	1.153192	0.211649	-0.254198
N83	N	1.486526	0.544983	0.079135
N84	N	1.819859	0.878316	0.412468
C85	C	1.112148	0.252807	0.473358
C86	C	1.445481	0.586140	0.806691
C87	C	1.778815	0.919474	1.140024
C88	C	1.165524	0.199275	0.526696
C89	C	1.498858	0.532608	0.860029
C90	C	1.832191	0.865941	1.193362
C91	C	1.158661	0.206162	0.648618
C92	C	1.491994	0.539495	0.981951
C93	C	1.825328	0.872828	1.315284
C94	C	1.119010	0.245921	0.351425
C95	C	1.452344	0.579254	0.684758
C96	C	1.785677	0.912588	1.018092
H97	H	0.626957	0.113450	-0.000041
H98	H	0.960290	0.446784	0.333292
H99	H	1.293624	0.780117	0.666626
H100	H	1.061301	0.303807	0.519255
H101	H	1.394634	0.637140	0.852588
H102	H	1.727968	0.970474	1.185921
H103	H	1.216376	0.148273	0.480793
H104	H	1.549709	0.481606	0.814127
H105	H	1.883043	0.814939	1.147460
H106	H	0.650720	0.338629	-0.000001
H107	H	0.984053	0.671962	0.333333
H108	H	1.317386	1.005295	0.666666
H109	H	1.026246	-0.285838	0.000011
H110	H	1.359579	0.047495	0.333344
H111	H	1.692913	0.380828	0.666678
Cl112	Cl	1.291743	-0.241705	0.000039
Cl113	Cl	1.625076	0.091628	0.333372
Cl114	Cl	1.958409	0.424961	0.666706
