data_functionalizedCrystal
_audit_creation_method	'MofGen! by Chris Wilmer'
_symmetry_space_group_name_H-M	'P1'
_symmetry_Int_Tables_number	1
_symmetry_cell_setting	triclinic
loop_
_symmetry_equiv_pos_as_xyz
  x,y,z
_cell_length_a	21.295420
_cell_length_b	25.639240
_cell_length_c	21.295411
_cell_angle_alpha	89.966217
_cell_angle_beta	89.983421
_cell_angle_gamma	90.031008
loop_
_atom_site_label
_atom_site_type_symbol
_atom_site_fract_x
_atom_site_fract_y
_atom_site_fract_z
Zn1	Zn	0.962295	-0.208198	-0.355891
Zn2	Zn	1.462295	0.291802	0.144109
Zn3	Zn	0.962208	-0.295629	-0.250608
Zn4	Zn	1.462208	0.204371	0.249392
Zn5	Zn	0.857033	-0.208207	-0.250636
Zn6	Zn	1.357033	0.291793	0.249364
Zn7	Zn	0.856984	-0.295602	-0.355839
Zn8	Zn	1.356984	0.204398	0.144161
O9	O	0.909630	-0.251909	-0.303244
O10	O	1.409630	0.248091	0.196756
O11	O	1.050373	-0.219804	-0.341935
O12	O	1.550373	0.280196	0.158065
O13	O	0.948241	-0.284047	-0.162522
O14	O	1.448241	0.215953	0.337478
O15	O	0.871054	-0.135040	-0.264633
O16	O	1.371054	0.364960	0.235367
O17	O	1.050309	-0.284039	-0.264584
O18	O	1.550309	0.215961	0.235416
O19	O	0.948389	-0.135034	-0.341963
O20	O	1.448389	0.364966	0.158037
O21	O	0.870969	-0.219818	-0.162543
O22	O	1.370969	0.280182	0.337457
O23	O	0.768937	-0.219792	-0.264582
O24	O	1.268937	0.280208	0.235418
O25	O	0.870969	-0.283993	-0.443935
O26	O	1.370969	0.216007	0.056065
O27	O	0.768901	-0.284001	-0.341874
O28	O	1.268901	0.215999	0.158126
O29	O	0.948341	-0.219778	-0.443974
O30	O	1.448341	0.280222	0.056026
O31	O	0.948193	-0.368791	-0.264533
O32	O	1.448193	0.131209	0.235467
O33	O	0.870885	-0.368771	-0.341846
O34	O	1.370885	0.131229	0.158154
C35	C	0.746078	-0.251895	-0.303225
C36	C	1.246078	0.248105	0.196775
C37	C	0.676110	-0.251901	-0.303233
C38	C	1.176110	0.248099	0.196767
C39	C	0.176650	-0.285404	-0.343450
C40	C	0.676650	0.214596	0.156550
C41	C	0.242392	-0.285404	-0.343444
C42	C	0.742392	0.214596	0.156556
C43	C	0.275271	-0.251921	-0.303263
C44	C	0.775271	0.248079	0.196737
C45	C	0.242401	-0.218444	-0.263075
C46	C	0.742401	0.281556	0.236925
C47	C	0.176660	-0.218449	-0.263078
C48	C	0.676660	0.281551	0.236922
N49	N	0.378514	-0.206142	-0.298536
N50	N	0.878514	0.293858	0.201464
N51	N	0.440966	-0.206139	-0.298536
N52	N	0.940966	0.293861	0.201464
C53	C	0.473346	-0.251906	-0.303250
C54	C	0.973346	0.248094	0.196750
N55	N	0.440915	-0.297677	-0.307976
N56	N	0.940915	0.202323	0.192024
N57	N	0.378457	-0.297679	-0.307978
N58	N	0.878457	0.202321	0.192022
C59	C	0.346556	-0.251913	-0.303255
C60	C	0.846556	0.248087	0.196745
C61	C	0.577493	-0.285383	-0.343425
C62	C	1.077493	0.214617	0.156575
C63	C	0.643236	-0.285384	-0.343414
C64	C	1.143236	0.214616	0.156586
C65	C	0.643244	-0.218420	-0.263049
C66	C	1.143244	0.281580	0.236951
C67	C	0.577502	-0.218423	-0.263057
C68	C	1.077502	0.281577	0.236943
C69	C	0.544630	-0.251905	-0.303248
C70	C	1.044630	0.248095	0.196752
C71	C	0.909541	-0.387752	-0.303194
C72	C	1.409541	0.112248	0.196806
C73	C	0.909561	-0.445866	-0.303194
C74	C	1.409561	0.054134	0.196806
C75	C	0.949919	-0.806187	-0.343582
C76	C	1.449919	-0.306187	0.156418
C77	C	0.949937	-0.860791	-0.343595
C78	C	1.449937	-0.360791	0.156405
O79	O	0.984145	-0.888992	-0.377884
O80	O	1.484145	-0.388992	0.122116
N81	N	0.909717	-0.888148	-0.303304
N82	N	1.409717	-0.388148	0.196696
C83	C	0.869472	-0.860898	-0.263003
C84	C	1.369472	-0.360898	0.236997
O85	O	0.835263	-0.889181	-0.228734
O86	O	1.335263	-0.389181	0.271266
C87	C	0.869451	-0.806294	-0.262994
C88	C	1.369451	-0.306294	0.237006
C89	C	0.909678	-0.778940	-0.303282
C90	C	1.409678	-0.278940	0.196718
C91	C	0.990142	-0.778833	-0.383868
C92	C	1.490142	-0.278833	0.116132
C93	C	0.990124	-0.724232	-0.383854
C94	C	1.490124	-0.224232	0.116146
C95	C	0.949883	-0.696986	-0.343555
C96	C	1.449883	-0.196986	0.156445
C97	C	0.909660	-0.724340	-0.303269
C98	C	1.409660	-0.224340	0.196731
C99	C	0.829202	-0.779045	-0.222696
C100	C	1.329202	-0.279045	0.277304
C101	C	0.829184	-0.724438	-0.222691
C102	C	1.329184	-0.224438	0.277309
C103	C	0.869411	-0.697084	-0.262979
C104	C	1.369411	-0.197084	0.237021
C105	C	0.869401	-0.642493	-0.262955
C106	C	1.369401	-0.142493	0.237045
N107	N	0.909620	-0.615136	-0.303246
N108	N	1.409620	-0.115136	0.196754
C109	C	0.949862	-0.642383	-0.343546
C110	C	1.449862	-0.142383	0.156454
C111	C	0.869519	-0.975568	-0.263026
C112	C	1.369519	-0.475568	0.236974
C113	C	0.869543	-1.030171	-0.263031
C114	C	1.369543	-0.530171	0.236969
C115	C	0.950007	-1.030060	-0.343625
C116	C	1.450007	-0.530060	0.156375
C117	C	0.949986	-0.975457	-0.343615
C118	C	1.449986	-0.475457	0.156385
C119	C	0.909739	-0.948212	-0.303317
C120	C	1.409739	-0.448212	0.196683
C121	C	0.949821	-0.527717	-0.343513
C122	C	1.449821	-0.027717	0.156487
C123	C	0.949802	-0.473112	-0.343494
C124	C	1.449802	0.026888	0.156506
C125	C	0.869335	-0.473227	-0.262903
C126	C	1.369335	0.026773	0.237097
C127	C	0.869357	-0.527828	-0.262920
C128	C	1.369357	-0.027828	0.237080
C129	C	0.909602	-0.555072	-0.303230
C130	C	1.409602	-0.055072	0.196770
O131	O	0.835208	-0.614257	-0.228686
O132	O	1.335208	-0.114257	0.271314
O133	O	0.984059	-0.614093	-0.377814
O134	O	1.484059	-0.114093	0.122186
C135	C	1.073820	-0.251924	-0.303262
C136	C	1.573820	0.248076	0.196738
C137	C	1.143788	-0.251930	-0.303270
C138	C	1.643788	0.248070	0.196730
C139	C	0.909659	-0.251881	-0.467434
C140	C	1.409659	0.248119	0.032566
C141	C	0.909671	-0.251869	-0.537402
C142	C	1.409671	0.248131	-0.037402
C143	C	0.909736	-0.115536	-0.303307
C144	C	1.409736	0.384464	0.196693
C145	C	0.909782	-0.057422	-0.303334
C146	C	1.409782	0.442578	0.196666
C147	C	0.949977	-0.285205	-1.036850
C148	C	1.449977	0.214795	-0.536850
C149	C	0.949966	-0.285221	-0.971107
C150	C	1.449966	0.214779	-0.471107
C151	C	0.909731	-0.251788	-0.938242
C152	C	1.409731	0.248212	-0.438242
C153	C	0.869493	-0.218344	-0.971124
C154	C	1.369493	0.281656	-0.471124
C155	C	0.869501	-0.218332	-1.036865
C156	C	1.369501	0.281668	-0.536865
N157	N	0.904925	-0.206040	-0.835041
N158	N	1.404925	0.293960	-0.335041
N159	N	0.904921	-0.206053	-0.772590
N160	N	1.404921	0.293947	-0.272590
C161	C	0.909703	-0.251823	-0.740167
C162	C	1.409703	0.248177	-0.240167
N163	N	0.914502	-0.297581	-0.772555
N164	N	1.414502	0.202419	-0.272555
N165	N	0.914509	-0.297567	-0.835012
N166	N	1.414509	0.202433	-0.335012
C167	C	0.909717	-0.251797	-0.866956
C168	C	1.409717	0.248203	-0.366956
C169	C	0.949923	-0.285285	-0.636007
C170	C	1.449923	0.214715	-0.136007
C171	C	0.949907	-0.285303	-0.570263
C172	C	1.449907	0.214697	-0.070263
C173	C	0.869438	-0.218421	-0.570281
C174	C	1.369438	0.281579	-0.070281
C175	C	0.869451	-0.218408	-0.636024
C176	C	1.369451	0.281592	-0.136024
C177	C	0.909696	-0.251839	-0.668883
C178	C	1.409696	0.248161	-0.168883
C179	C	0.909637	-0.251899	-0.139692
C180	C	1.409637	0.248101	0.360308
C181	C	0.909747	-0.251764	-0.069724
C182	C	1.409747	0.248236	0.430276
H183	H	0.982561	-0.450842	-0.376302
H184	H	1.482561	0.049158	0.123698
H185	H	0.836606	-0.550101	-0.230109
H186	H	1.336606	-0.050101	0.269891
H187	H	0.836733	-0.191123	-0.944361
H188	H	1.336733	0.308877	-0.444361
H189	H	0.982664	-0.312539	-0.543498
H190	H	1.482664	0.187461	-0.043498
H191	H	0.982692	-0.312508	-0.662762
H192	H	1.482692	0.187492	-0.162762
H193	H	0.149905	-0.191189	-0.230358
H194	H	0.649905	0.308811	0.269642
C195	C	0.825251	-0.181542	-1.073029
C196	C	1.325251	0.318458	-0.573029
H197	H	0.801288	-0.161629	-1.044042
H198	H	1.301288	0.338371	-0.544042
H199	H	0.797814	-0.201534	-1.098665
H200	H	1.297814	0.298466	-0.598665
H201	H	0.849357	-0.158755	-1.098684
H202	H	1.349357	0.341245	-0.598684
H203	H	0.269175	-0.191183	-0.230359
H204	H	0.769175	0.308817	0.269641
C205	C	0.825298	-1.060257	-0.218712
C206	C	1.325298	-0.560257	0.281288
H207	H	0.831071	-1.096680	-0.224484
H208	H	1.331071	-0.596680	0.275516
H209	H	0.782996	-1.051327	-0.227884
H210	H	1.282996	-0.551327	0.272116
H211	H	0.834539	-1.051328	-0.176421
H212	H	1.334539	-0.551328	0.323579
H213	H	0.836677	-0.191200	-0.543523
H214	H	1.336677	0.308800	-0.043523
H215	H	0.836573	-0.451035	-0.230090
H216	H	1.336573	0.048965	0.269910
H217	H	0.982735	-0.312447	-0.944336
H218	H	1.482735	0.187553	-0.444336
H219	H	0.796446	-0.801307	-0.189888
H220	H	1.296446	-0.301307	0.310112
H221	H	0.836693	-0.191174	-0.662790
H222	H	1.336693	0.308826	-0.162790
H223	H	0.269153	-0.312663	-0.376166
H224	H	0.769153	0.187337	0.123834
C225	C	0.140494	-0.322256	-0.387630
C226	C	0.640494	0.177744	0.112370
H227	H	0.169485	-0.342201	-0.411548
H228	H	0.669485	0.157799	0.088452
H229	H	0.114854	-0.302308	-0.415112
H230	H	0.614854	0.197692	0.084888
H231	H	0.114843	-0.345009	-0.363472
H232	H	0.614843	0.154991	0.136528
H233	H	0.796408	-0.702257	-0.189875
H234	H	1.296408	-0.202257	0.310125
H235	H	0.550746	-0.191163	-0.230339
H236	H	1.050746	0.308837	0.269661
H237	H	0.669991	-0.312647	-0.376132
H238	H	1.169991	0.187353	0.123868
C239	C	0.541331	-0.322180	-0.387669
C240	C	1.041331	0.177820	0.112331
H241	H	0.570321	-0.342112	-0.411606
H242	H	1.070321	0.157888	0.088394
H243	H	0.515729	-0.302179	-0.415131
H244	H	1.015729	0.197821	0.084869
H245	H	0.515642	-0.344949	-0.363575
H246	H	1.015642	0.155051	0.136425
H247	H	0.982747	-0.312429	-1.063599
H248	H	1.482747	0.187571	-0.563599
C249	C	1.034372	-0.694150	-0.428175
C250	C	1.534372	-0.194150	0.071825
H251	H	1.058334	-0.718204	-0.452177
H252	H	1.558334	-0.218204	0.047823
H253	H	1.061810	-0.672845	-0.404119
H254	H	1.561810	-0.172845	0.095881
H255	H	1.010266	-0.672850	-0.455582
H256	H	1.510266	-0.172850	0.044418
H257	H	0.982588	-0.549893	-0.376342
H258	H	1.482588	-0.049893	0.123658
C259	C	0.679403	-0.181588	-0.218852
C260	C	1.179403	0.318412	0.281148
H261	H	0.723263	-0.186377	-0.224606
H262	H	1.223263	0.313623	0.275394
H263	H	0.668609	-0.189193	-0.176540
H264	H	1.168609	0.310807	0.323460
H265	H	0.668651	-0.146468	-0.228151
H266	H	1.168651	0.353532	0.271849
C267	C	1.034415	-0.808796	-0.428198
C268	C	1.534415	-0.308796	0.071802
H269	H	1.058366	-0.784677	-0.452182
H270	H	1.558366	-0.284677	0.047818
H271	H	1.010335	-0.830100	-0.455613
H272	H	1.510335	-0.330100	0.044387
H273	H	1.061871	-0.830088	-0.404142
H274	H	1.561871	-0.330088	0.095858
C275	C	0.994224	-0.945372	-0.387943
C276	C	1.494224	-0.445372	0.112057
H277	H	1.018187	-0.969425	-0.411948
H278	H	1.518187	-0.469425	0.088052
H279	H	1.021662	-0.924062	-0.363896
H280	H	1.521662	-0.424062	0.136104
H281	H	0.970109	-0.924078	-0.415348
H282	H	1.470109	-0.424078	0.084652
C283	C	0.994269	-1.060038	-0.387958
C284	C	1.494269	-0.560038	0.112042
H285	H	0.988512	-1.096475	-0.382194
H286	H	1.488512	-0.596475	0.117806
H287	H	1.036568	-1.051069	-0.378787
H288	H	1.536568	-0.551069	0.121213
H289	H	0.985020	-1.051072	-0.430245
H290	H	1.485020	-0.551072	0.069755
H291	H	0.836746	-0.953388	-0.230205
H292	H	1.336746	-0.453388	0.269795
