data_functionalizedCrystal
_audit_creation_method	'MofGen! by Chris Wilmer'
_symmetry_space_group_name_H-M	'P1'
_symmetry_Int_Tables_number	1
_symmetry_cell_setting	triclinic
loop_
_symmetry_equiv_pos_as_xyz
  x,y,z
_cell_length_a	13.635800
_cell_length_b	19.452420
_cell_length_c	19.263499
_cell_angle_alpha	97.048743
_cell_angle_beta	81.428397
_cell_angle_gamma	78.303285
loop_
_atom_site_label
_atom_site_type_symbol
_atom_site_fract_x
_atom_site_fract_y
_atom_site_fract_z
V1	V	1.981656	-0.097930	-0.219347
O2	O	1.980591	0.003939	-0.214818
O3	O	1.953233	-0.193440	-0.218187
O4	O	1.945627	-0.096760	-0.314857
O5	O	1.988250	-0.093411	-0.117479
V6	V	2.225551	-0.085705	-0.207121
O7	O	2.107608	-0.124745	-0.246165
O8	O	2.324698	-0.058890	-0.180304
O9	O	2.142371	0.009805	-0.208282
O10	O	2.285315	-0.187574	-0.211651
O11	O	2.277656	-0.090224	-0.308989
O12	O	2.149977	-0.086875	-0.111612
V13	V	2.481656	-0.097930	-0.219347
O14	O	2.480591	0.003939	-0.214818
O15	O	2.453233	-0.193440	-0.218187
O16	O	2.445627	-0.096760	-0.314857
O17	O	2.488250	-0.093411	-0.117479
V18	V	2.725551	-0.085705	-0.207121
O19	O	2.607608	-0.124745	-0.246165
O20	O	2.824698	-0.058890	-0.180304
O21	O	2.642371	0.009805	-0.208282
O22	O	2.785315	-0.187574	-0.211651
O23	O	2.777656	-0.090224	-0.308989
O24	O	2.649977	-0.086875	-0.111612
C25	C	1.875089	-0.216713	-0.214814
C26	C	1.892414	-0.294797	-0.214502
C27	C	1.888904	-0.321206	-0.149988
C28	C	1.905221	-0.394572	-0.149673
C29	C	1.925028	-0.441525	-0.213876
C30	C	1.928544	-0.415108	-0.278400
C31	C	1.912236	-0.341744	-0.278713
N32	N	1.902827	-0.562127	-0.259093
N33	N	1.918315	-0.631819	-0.258791
C34	C	1.974164	-0.662567	-0.212937
N35	N	2.013925	-0.620988	-0.167384
N36	N	1.998430	-0.551289	-0.167684
C37	C	1.942713	-0.521077	-0.213544
C38	C	1.988347	-0.768527	-0.148076
C39	C	2.004671	-0.841895	-0.147765
C40	C	2.027984	-0.862430	-0.276493
C41	C	2.011670	-0.789064	-0.276803
C42	C	1.991847	-0.742116	-0.212593
C43	C	1.865386	-0.093387	-0.338125
C44	C	1.876542	-0.093063	-0.416207
C45	C	2.052186	0.033074	-0.211652
C46	C	2.024479	0.111157	-0.211969
C47	C	2.061889	-0.090250	-0.088339
C48	C	2.040353	-0.090571	-0.010257
C49	C	2.375089	-0.216713	-0.214814
C50	C	2.392414	-0.294797	-0.214502
C51	C	2.055881	-0.155082	0.016159
C52	C	2.035644	-0.155392	0.089524
C53	C	1.999897	-0.091187	0.136472
C54	C	1.984362	-0.026667	0.110049
C55	C	2.004590	-0.026359	0.036685
N56	N	2.003324	-0.041569	0.261538
N57	N	1.984112	-0.041866	0.331231
C58	C	1.938948	-0.092110	0.357517
N59	N	1.913738	-0.142056	0.311475
N60	N	1.932957	-0.141762	0.241776
C61	C	1.977960	-0.091513	0.216025
C62	C	1.932534	-0.156962	0.463482
C63	C	1.912289	-0.157269	0.536849
C64	C	1.861017	-0.028542	0.557374
C65	C	1.881252	-0.028236	0.484008
C66	C	1.917015	-0.092448	0.437066
C67	C	2.365386	-0.093387	-0.338125
C68	C	2.376542	-0.093063	-0.416207
C69	C	2.552186	0.033074	-0.211652
C70	C	2.524479	0.111157	-0.211969
C71	C	2.561889	-0.090250	-0.088339
C72	C	2.540353	-0.090571	-0.010257
C73	C	2.491016	-0.335059	-0.217878
C74	C	2.507310	-0.408429	-0.217596
C75	C	2.425002	-0.441534	-0.213933
C76	C	2.326392	-0.401266	-0.210559
C77	C	2.310100	-0.327899	-0.210846
C78	C	2.472238	-0.096425	-0.456468
C79	C	2.482732	-0.096111	-0.529833
C80	C	2.397529	-0.092440	-0.562937
C81	C	2.301824	-0.089076	-0.522671
C82	C	2.291331	-0.089384	-0.449306
C83	C	2.598371	0.151419	-0.208595
C84	C	2.572348	0.224788	-0.208881
C85	C	2.472433	0.257893	-0.212545
C86	C	2.398536	0.217626	-0.215917
C87	C	2.424558	0.144259	-0.215626
C88	C	2.443324	-0.094234	0.022829
C89	C	2.423071	-0.094527	0.096197
C90	C	2.499851	-0.091162	0.136476
C91	C	2.596887	-0.087497	0.103386
C92	C	2.617137	-0.087199	0.030020
H93	H	1.872771	-0.282985	-0.097703
O94	O	2.408857	-0.092112	-0.642068
H95	H	2.384471	-0.138635	-0.667538
O96	O	1.945806	0.042585	0.160682
H97	H	1.872407	0.070869	0.148844
H98	H	2.232457	-0.086087	-0.549635
O99	O	1.901423	-0.423063	-0.080083
H100	H	1.840662	-0.453329	-0.074246
H101	H	2.587608	-0.441204	-0.220341
H102	H	2.213402	-0.086648	-0.416531
H103	H	1.944673	-0.453342	-0.330674
O104	O	2.652066	0.268205	-0.205248
H105	H	2.617193	0.324786	-0.206056
H106	H	2.380793	-0.096974	-0.009958
O107	O	1.864484	0.041349	0.455518
H108	H	1.913284	0.074790	0.477194
O109	O	2.706137	0.115721	-0.204633
H110	H	2.753131	0.156055	-0.202325
H111	H	2.451258	0.317634	-0.212781
O112	O	2.290779	0.253343	-0.219879
H113	H	2.238098	0.245223	-0.173388
H114	H	2.048287	-0.207927	0.111036
H115	H	2.438282	-0.501275	-0.213699
O116	O	1.916008	-0.313252	-0.348299
H117	H	1.932517	-0.358224	-0.392892
O118	O	2.049353	-0.913060	-0.345745
H119	H	1.989706	-0.944306	-0.346058
O120	O	2.094424	-0.224342	-0.034467
H121	H	2.167811	-0.252642	-0.022626
H122	H	2.344054	-0.097512	0.123128
O123	O	2.344860	0.100833	-0.219281
H124	H	2.271020	0.136183	-0.221887
O125	O	2.585962	-0.099745	-0.573254
H126	H	2.583186	-0.051646	-0.599168
H127	H	1.991945	0.026175	0.015179
H128	H	1.972206	-0.730300	-0.095792
H129	H	2.483353	-0.091414	0.196213
O130	O	2.237620	-0.436976	-0.206610
H131	H	2.265525	-0.494755	-0.206971
O132	O	2.679699	-0.083874	0.146833
H133	H	2.649310	-0.084706	0.203403
O134	O	1.971087	-0.226214	0.412844
H135	H	1.978466	-0.271128	0.443540
H136	H	2.558047	-0.308114	-0.220857
O137	O	2.203745	-0.284473	-0.207196
H138	H	2.149255	-0.319824	-0.204594
O139	O	2.721795	-0.083251	-0.005664
H140	H	2.771776	-0.080967	0.034675
O141	O	2.015499	-0.760580	-0.346392
H142	H	2.000860	-0.701679	-0.335825
H143	H	2.541627	-0.099416	-0.429525
O144	O	2.000879	-0.870384	-0.078178
H145	H	1.984344	-0.825411	-0.033584
H146	H	1.831901	0.023736	0.595598
O147	O	1.929026	-0.226853	0.565345
H148	H	1.957297	-0.271448	0.520376
