data_functionalizedCrystal
_audit_creation_method	'MofGen! by Chris Wilmer'
_symmetry_space_group_name_H-M	'P1'
_symmetry_Int_Tables_number	1
_symmetry_cell_setting	triclinic
loop_
_symmetry_equiv_pos_as_xyz
  x,y,z
_cell_length_a	8.597366
_cell_length_b	8.559649
_cell_length_c	7.540329
_cell_angle_alpha	89.998238
_cell_angle_beta	97.699001
_cell_angle_gamma	77.624636
loop_
_atom_site_label
_atom_site_type_symbol
_atom_site_fract_x
_atom_site_fract_y
_atom_site_fract_z
O1	O	2.053710	0.238024	0.166348
O2	O	1.594582	0.256289	0.096188
O3	O	1.864596	0.015186	0.137451
O4	O	1.783697	0.479127	0.125085
O5	O	1.864582	0.015183	0.432414
O6	O	1.594568	0.256285	0.391151
O7	O	2.053696	0.238021	0.461311
Cu8	Cu	1.824131	0.247153	0.453163
Cu9	Cu	1.824147	0.247157	0.104335
O10	O	1.783683	0.479124	0.420048
C11	C	1.536341	0.254326	0.234770
C12	C	1.362824	0.248465	0.208254
C13	C	1.870719	-0.044250	0.285866
C14	C	1.888968	-0.221345	0.288645
C15	C	2.111937	0.239983	0.322725
C16	C	2.285454	0.245845	0.349229
C17	C	1.777559	0.538559	0.271629
C18	C	1.759310	0.715654	0.268838
N19	N	1.824131	0.247149	0.698512
N20	N	1.824161	0.247148	-0.141011
H21	H	1.634343	-0.202800	0.249747
O22	O	2.038034	-0.318691	0.311115
C23	C	2.056502	-0.415980	0.161204
H24	H	1.969109	-0.356225	0.041072
H25	H	2.184953	-0.432870	0.129552
H26	H	2.030381	-0.537512	0.191765
O27	O	1.364790	0.248241	0.517493
C28	C	1.359394	0.109155	0.614559
H29	H	1.338516	0.011350	0.517349
H30	H	1.478223	0.066541	0.705511
H31	H	1.257084	0.137103	0.699307
O32	O	1.283614	0.246003	0.039952
C33	C	1.288931	0.385132	-0.057085
H34	H	1.395885	0.435067	0.004817
H35	H	1.302092	0.354338	-0.202177
H36	H	1.173118	0.478490	-0.052363
