data_functionalizedCrystal
_audit_creation_method	'MofGen! by Chris Wilmer'
_symmetry_space_group_name_H-M	'P1'
_symmetry_Int_Tables_number	1
_symmetry_cell_setting	triclinic
loop_
_symmetry_equiv_pos_as_xyz
  x,y,z
_cell_length_a	10.723024
_cell_length_b	16.109302
_cell_length_c	14.586319
_cell_angle_alpha	89.994552
_cell_angle_beta	90.002624
_cell_angle_gamma	96.035175
loop_
_atom_site_label
_atom_site_type_symbol
_atom_site_fract_x
_atom_site_fract_y
_atom_site_fract_z
O1	O	0.160395	-1.104074	0.076279
O2	O	0.180354	-0.862130	0.076272
O3	O	-0.011275	-0.988683	0.076272
O4	O	0.352025	-0.977521	0.076279
O5	O	-0.011278	-0.988674	-0.076209
O6	O	0.180352	-0.862121	-0.076209
O7	O	0.160392	-1.104065	-0.076202
Cu8	Cu	0.170372	-0.983092	-0.090128
Cu9	Cu	0.170375	-0.983103	0.090198
O10	O	0.352022	-0.977512	-0.076202
C11	C	-0.057766	-0.987866	0.000033
C12	C	-0.196288	-0.985436	0.000036
C13	C	0.179544	-0.831146	0.000030
C14	C	0.177120	-0.738836	0.000028
C15	C	0.161202	-1.135049	0.000042
C16	C	0.163627	-1.227359	0.000051
C17	C	-0.272209	-1.056248	0.000040
C18	C	-0.415379	-1.053738	0.000043
C19	C	0.398512	-0.978329	0.000039
C20	C	0.537034	-0.980759	0.000042
C21	C	0.171513	-0.526457	-0.083081
C22	C	0.169221	-0.439724	-0.083078
C23	C	0.169231	-0.439744	0.083165
C24	C	0.171513	-0.526477	0.083161
C25	C	0.172660	-0.569831	0.000035
C26	C	0.168086	-0.396364	0.000043
C27	C	0.165602	-0.302324	0.000047
C28	C	0.175142	-0.663877	0.000031
N29	N	0.170369	-0.983091	-0.216960
C30	C	0.085543	-1.039147	-0.451966
C31	C	0.085540	-1.039150	-0.547947
C32	C	0.255198	-0.927048	-0.547957
C33	C	0.255194	-0.927042	-0.451978
C34	C	0.170368	-0.983097	-0.403985
C35	C	0.170369	-0.983105	-0.595945
C36	C	0.170366	-0.983107	-0.700012
C37	C	0.170369	-0.983094	-0.299911
N38	N	0.170368	-0.983111	0.217030
H39	H	-0.231215	-1.118732	0.000036
C40	C	0.167973	-0.392016	-0.174512
N41	N	0.167037	-0.356083	-0.243385
C42	C	-0.251662	-0.901020	0.000032
N43	N	-0.293368	-0.837436	0.000026
H44	H	-0.397737	-0.920135	0.000033
H45	H	-0.480615	-1.114359	0.000042
H46	H	0.172447	-0.561754	-0.150767
C47	C	0.172768	-0.574191	0.174600
N48	N	0.173708	-0.610129	0.243469
H49	H	0.168298	-0.404435	0.150843
C50	C	-0.007777	-1.100802	-0.399177
N51	N	-0.078073	-1.147240	-0.359419
C52	C	-0.007784	-1.100804	-0.600722
N53	N	-0.078084	-1.147241	-0.640472
C54	C	0.348499	-0.865390	-0.600759
N55	N	0.418774	-0.818948	-0.640528
C56	C	0.348569	-0.865417	-0.399195
N57	N	0.418915	-0.819015	-0.359439
