data_functionalizedCrystal
_audit_creation_method	'MofGen! by Chris Wilmer'
_symmetry_space_group_name_H-M	'P1'
_symmetry_Int_Tables_number	1
_symmetry_cell_setting	triclinic
loop_
_symmetry_equiv_pos_as_xyz
  x,y,z
_cell_length_a	23.532407
_cell_length_b	23.532407
_cell_length_c	9.730223
_cell_angle_alpha	90.000306
_cell_angle_beta	90.007422
_cell_angle_gamma	82.848712
loop_
_atom_site_label
_atom_site_type_symbol
_atom_site_fract_x
_atom_site_fract_y
_atom_site_fract_z
O1	O	0.069134	0.755258	0.114217
O2	O	0.079137	0.589395	0.114241
O3	O	-0.008796	0.677328	0.114203
O4	O	0.157067	0.667325	0.114255
O5	O	-0.008796	0.677323	-0.114377
O6	O	0.079137	0.589390	-0.114339
O7	O	0.069134	0.755253	-0.114363
Zn8	Zn	0.074136	0.672320	-0.150643
Zn9	Zn	0.074135	0.672328	0.150521
O10	O	0.157067	0.667320	-0.114325
C11	C	0.078882	0.568176	-0.000047
C12	C	0.078116	0.504959	-0.000039
C13	C	0.022921	0.238792	-0.000093
C14	C	0.023632	0.298192	-0.000093
O15	O	-0.020153	0.334937	-0.000154
N16	N	0.075909	0.320818	-0.000067
C17	C	0.127477	0.284041	-0.000056
O18	O	0.172007	0.308740	-0.000035
C19	C	0.126765	0.224642	-0.000066
C20	C	0.074485	0.202019	-0.000078
C21	C	-0.029354	0.216169	-0.000107
C22	C	-0.030066	0.156772	-0.000105
C23	C	0.021499	0.119999	-0.000089
C24	C	0.073774	0.142623	-0.000076
C25	C	0.178333	0.187865	-0.000065
C26	C	0.177616	0.128463	-0.000077
C27	C	0.125336	0.105840	-0.000088
C28	C	0.124627	0.046454	-0.000059
N29	N	0.072351	0.023828	-0.000085
C30	C	0.020787	0.060600	-0.000100
C31	C	0.128968	0.408783	-0.000036
C32	C	0.129681	0.468181	-0.000016
C33	C	0.025836	0.482328	-0.000056
C34	C	0.025124	0.422929	-0.000066
C35	C	0.076692	0.386157	-0.000062
C36	C	0.019297	-0.064136	-0.000094
C37	C	0.018590	-0.123538	-0.000087
C38	C	0.122435	-0.137680	-0.000055
C39	C	0.123142	-0.078284	-0.000055
C40	C	0.071568	-0.041512	-0.000080
O41	O	0.168390	0.009675	-0.000003
O42	O	-0.023737	0.035892	-0.000138
C43	C	-0.030012	0.677071	-0.000091
C44	C	-0.093229	0.676305	-0.000101
C45	C	-0.492332	0.723538	-0.000032
C46	C	-0.551733	0.722827	-0.000022
O47	O	-0.588477	0.766613	0.000023
N48	N	-0.574359	0.670551	-0.000015
C49	C	-0.537581	0.618982	-0.000005
O50	O	-0.562281	0.574452	0.000002
C51	C	-0.478182	0.619695	-0.000006
C52	C	-0.455559	0.671974	-0.000027
C53	C	-0.469709	0.775814	-0.000051
C54	C	-0.410313	0.776525	-0.000064
C55	C	-0.373540	0.724961	-0.000059
C56	C	-0.396163	0.672685	-0.000040
C57	C	-0.441406	0.568127	0.000014
C58	C	-0.382003	0.568843	0.000014
C59	C	-0.359381	0.621123	-0.000006
C60	C	-0.299994	0.621832	-0.000047
N61	N	-0.277368	0.674109	-0.000053
C62	C	-0.314141	0.725673	-0.000059
C63	C	-0.662324	0.617491	-0.000002
C64	C	-0.721722	0.616778	-0.000011
C65	C	-0.735869	0.720623	-0.000025
C66	C	-0.676470	0.721335	-0.000025
C67	C	-0.639698	0.669767	-0.000008
C68	C	-0.189404	0.727163	-0.000088
C69	C	-0.130002	0.727869	-0.000107
C70	C	-0.115860	0.624025	-0.000086
C71	C	-0.175257	0.623318	-0.000074
C72	C	-0.212028	0.674891	-0.000071
O73	O	-0.263215	0.578069	-0.000086
O74	O	-0.289433	0.770196	-0.000049
C75	C	0.178283	0.667577	-0.000029
C76	C	0.241500	0.668343	-0.000009
C77	C	0.069389	0.776472	-0.000073
C78	C	0.070155	0.839689	-0.000072
N79	N	0.074136	0.672320	-0.356179
C80	C	0.035208	0.711273	-0.572006
C81	C	0.035211	0.711268	-0.428123
C82	C	0.113063	0.633377	-0.428126
C83	C	0.113061	0.633385	-0.572006
C84	C	-0.009741	0.756242	-0.572003
C85	C	-0.009737	0.756237	-0.428120
N86	N	0.074131	0.672333	0.356057
H87	H	-0.022699	-0.034204	-0.000114
O88	O	0.150820	0.595484	-0.641822
C89	C	0.184733	0.496276	-0.685798
C90	C	0.141928	0.539137	-0.606674
H91	H	0.177567	0.450711	-0.657388
H92	H	0.178050	0.502921	-0.801008
H93	H	0.230304	0.503473	-0.657502
H94	H	0.096340	0.531967	-0.634854
H95	H	0.148661	0.532483	-0.491483
O96	O	-0.771538	0.770752	0.000166
C97	C	-0.801830	0.859271	0.118635
C98	C	-0.761393	0.802532	0.118574
H99	H	-0.793651	0.884975	0.214371
H100	H	-0.793646	0.885057	0.023038
H101	H	-0.848164	0.849764	0.118578
H102	H	-0.715045	0.811987	0.118679
H103	H	-0.769627	0.776763	0.214162
O104	O	-0.024271	0.518032	0.000161
C105	C	-0.112826	0.548288	0.118493
C106	C	-0.056100	0.507830	0.118434
H107	H	-0.138581	0.540046	0.214092
H108	H	-0.103366	0.594638	0.118585
H109	H	-0.138543	0.540104	0.022776
H110	H	-0.030354	0.515963	0.214135
H111	H	-0.065599	0.461494	0.118271
O112	O	-0.388247	0.827260	-0.000123
C113	C	-0.303021	0.874396	-0.000024
C114	C	-0.327929	0.816896	-0.000000
H115	H	-0.254251	0.866037	0.000105
H116	H	-0.318156	0.899870	-0.095703
H117	H	-0.318224	0.899854	0.095618
H118	H	-0.312738	0.791392	-0.095577
H119	H	-0.312797	0.791465	0.095742
H120	H	-0.111587	0.770443	-0.000127
O121	O	-0.743599	0.565944	0.000055
C122	C	-0.723281	0.463020	-0.000013
C123	C	-0.698432	0.520552	-0.000066
H124	H	-0.686776	0.426306	-0.000140
H125	H	-0.750706	0.460051	0.095676
H126	H	-0.750764	0.460117	-0.095645
H127	H	-0.670924	0.523494	0.095501
H128	H	-0.671040	0.523497	-0.095818
H129	H	-0.632386	0.575496	0.000001
H130	H	0.220904	0.206274	-0.000049
H131	H	0.144759	0.601668	-0.369540
O132	O	-0.505344	0.825960	-0.000123
C133	C	-0.513087	0.929034	-0.000081
C134	C	-0.472671	0.872281	-0.000017
H135	H	-0.486687	0.966499	0.000034
H136	H	-0.541243	0.931336	-0.095768
H137	H	-0.541259	0.931277	0.095553
H138	H	-0.444463	0.869999	-0.095586
H139	H	-0.444555	0.870002	0.095733
O140	O	-0.025645	0.400929	0.000157
C141	C	-0.086709	0.342053	0.118497
C142	C	-0.029197	0.366937	0.118436
H143	H	-0.089594	0.314556	0.214101
H144	H	-0.123461	0.378522	0.118581
H145	H	-0.089634	0.314627	0.022785
H146	H	-0.026216	0.394356	0.214132
H147	H	0.007528	0.330441	0.118281
O148	O	0.179080	0.373088	0.000233
C149	C	0.267632	0.342856	0.118658
C150	C	0.210897	0.383299	0.118541
H151	H	0.293377	0.351106	0.214285
H152	H	0.258186	0.296502	0.118737
H153	H	0.293354	0.351048	0.022969
H154	H	0.185147	0.375160	0.214214
H155	H	0.220383	0.429640	0.118390
O156	O	-0.654429	0.772083	0.000150
C157	C	-0.595610	0.833178	0.118613
C158	C	-0.620518	0.775678	0.118564
H159	H	-0.568198	0.836109	0.214354
H160	H	-0.568121	0.836118	0.023020
H161	H	-0.632110	0.869897	0.118539
H162	H	-0.584054	0.738926	0.118686
H163	H	-0.648023	0.772788	0.214148
H164	H	-0.071347	0.246104	-0.000123
H165	H	-0.000615	0.799876	-0.611032
H166	H	0.219610	0.098525	-0.000080
H167	H	-0.352065	0.526850	0.000030
O168	O	-0.463438	0.517377	0.000231
C169	C	-0.522231	0.456286	0.118752
C170	C	-0.497332	0.513791	0.118653
H171	H	-0.549631	0.453363	0.214500
H172	H	-0.549731	0.453330	0.023166
H173	H	-0.485726	0.419572	0.118701
H174	H	-0.533801	0.550538	0.118752
H175	H	-0.469818	0.516697	0.214230
O176	O	-0.058902	0.740465	-0.625049
C177	C	-0.151250	0.710732	-0.577337
C178	C	-0.095607	0.728598	-0.517079
H179	H	-0.180935	0.701121	-0.490073
H180	H	-0.173367	0.747005	-0.643215
H181	H	-0.140619	0.670801	-0.643352
H182	H	-0.106188	0.768515	-0.451003
H183	H	-0.073505	0.692291	-0.451279
H184	H	0.003537	0.797394	-0.383479
O185	O	-0.061821	0.745481	-0.381480
C186	C	-0.145410	0.779682	-0.248153
C187	C	-0.086444	0.791938	-0.300901
H188	H	-0.165330	0.817229	-0.182971
H189	H	-0.174543	0.773647	-0.339236
H190	H	-0.139992	0.739070	-0.183122
H191	H	-0.091807	0.832554	-0.365910
H192	H	-0.057332	0.797938	-0.209757
O193	O	-0.032247	-0.145418	-0.000163
C194	C	-0.135171	-0.125106	-0.000117
C195	C	-0.077641	-0.100254	-0.000061
H196	H	-0.171887	-0.088603	-0.000006
H197	H	-0.138140	-0.152541	-0.095800
H198	H	-0.138071	-0.152580	0.095521
H199	H	-0.074702	-0.072754	-0.095634
H200	H	-0.074696	-0.072851	0.095685
O201	O	0.173909	-0.056274	0.000199
C202	C	0.234967	0.002617	0.118549
C203	C	0.177460	-0.022278	0.118474
H204	H	0.237852	0.030118	0.214150
H205	H	0.271724	-0.033846	0.118650
H206	H	0.237881	0.030042	0.022833
H207	H	0.174490	-0.049696	0.214173
H208	H	0.140730	0.014212	0.118302
H209	H	-0.072637	0.138359	-0.000120
H210	H	0.164417	-0.167631	-0.000035
O211	O	-0.197262	0.572548	-0.000309
C212	C	-0.256149	0.511483	-0.118645
C213	C	-0.231263	0.568995	-0.118583
H214	H	-0.283655	0.508596	-0.214244
H215	H	-0.219682	0.474730	-0.118738
H216	H	-0.283568	0.508563	-0.022928
H217	H	-0.203851	0.571971	-0.214284
H218	H	-0.267758	0.605720	-0.118419
H219	H	0.172252	0.486595	0.000013
H220	H	-0.219337	0.769159	-0.000080
O221	O	-0.080158	0.573922	-0.000315
C222	C	-0.049908	0.485360	-0.118643
C223	C	-0.090365	0.542086	-0.118587
H224	H	-0.058155	0.459599	-0.214241
H225	H	-0.003558	0.494819	-0.118734
H226	H	-0.058088	0.459648	-0.022925
H227	H	-0.082236	0.567826	-0.214289
H228	H	-0.136702	0.532587	-0.118424
