data_functionalizedCrystal
_audit_creation_method	'MofGen! by Chris Wilmer'
_symmetry_space_group_name_H-M	'P1'
_symmetry_Int_Tables_number	1
_symmetry_cell_setting	triclinic
loop_
_symmetry_equiv_pos_as_xyz
  x,y,z
_cell_length_a	13.897448
_cell_length_b	12.759401
_cell_length_c	12.759393
_cell_angle_alpha	89.981287
_cell_angle_beta	89.967704
_cell_angle_gamma	90.019217
loop_
_atom_site_label
_atom_site_type_symbol
_atom_site_fract_x
_atom_site_fract_y
_atom_site_fract_z
Zn1	Zn	-0.383929	1.606221	-0.594007
Zn2	Zn	-0.545255	1.606110	-0.418322
Zn3	Zn	-0.383980	1.430527	-0.418342
Zn4	Zn	-0.545188	1.430503	-0.593959
O5	O	-0.464588	1.518340	-0.506158
O6	O	-0.405336	1.753228	-0.570714
O7	O	-0.523911	1.582782	-0.271303
O8	O	-0.248992	1.453890	-0.441673
O9	O	-0.523862	1.753146	-0.441638
O10	O	-0.248954	1.582972	-0.570734
O11	O	-0.405423	1.453782	-0.271318
O12	O	-0.405358	1.283503	-0.441627
O13	O	-0.523747	1.453849	-0.740987
O14	O	-0.523796	1.283485	-0.570652
O15	O	-0.405270	1.582948	-0.741022
O16	O	-0.680228	1.582759	-0.441592
O17	O	-0.680178	1.453741	-0.570632
C18	C	-0.464576	1.245373	-0.506137
C19	C	-0.464594	1.128596	-0.506153
C20	C	-0.526359	1.073753	-0.573230
C21	C	-0.526363	0.964029	-0.573251
C22	C	-0.402834	0.964002	-0.439108
C23	C	-0.402826	1.073724	-0.439093
C24	C	-0.560974	0.814126	-0.697110
C25	C	-0.622754	0.759279	-0.764179
C26	C	-0.716889	0.794870	-0.780123
C27	C	-0.749263	0.885308	-0.728984
C28	C	-0.687488	0.940149	-0.661908
C29	C	-0.593340	0.904559	-0.645984
C30	C	-0.368225	1.223628	-0.315232
C31	C	-0.306454	1.278472	-0.248150
C32	C	-0.212318	1.242883	-0.232195
C33	C	-0.179948	1.152442	-0.283315
C34	C	-0.241718	1.097598	-0.350397
C35	C	-0.335853	1.133195	-0.366354
C36	C	-0.715202	1.518264	-0.506127
C37	C	-0.822416	1.518327	-0.506149
C38	C	-1.018711	1.518437	-0.506215
C39	C	-0.909479	1.518373	-0.506182
C40	C	-0.212995	1.518446	-0.506211
C41	C	-0.105781	1.518491	-0.506234
C42	C	-0.464495	1.518408	-0.780191
C43	C	-0.464456	1.518437	-0.896968
C44	C	-0.464601	1.792374	-0.506179
C45	C	-0.464606	1.909150	-0.506188
C46	C	-0.526118	1.451238	-0.951813
C47	C	-0.526082	1.451275	-1.061537
C48	C	-0.402714	1.585715	-1.061561
C49	C	-0.402755	1.585682	-0.951839
C50	C	-0.639782	1.413732	-1.211468
C51	C	-0.701435	1.346516	-1.266317
C52	C	-0.716251	1.243985	-1.230701
C53	C	-0.669400	1.208648	-1.140237
C54	C	-0.607740	1.275859	-1.085394
C55	C	-0.592942	1.378405	-1.121008
C56	C	-0.289054	1.623214	-0.801907
C57	C	-0.227388	1.690420	-0.747061
C58	C	-0.212562	1.792953	-0.782675
C59	C	-0.259396	1.828286	-0.873142
C60	C	-0.321062	1.761080	-0.927987
C61	C	-0.335890	1.658548	-0.892366
C62	C	-0.464611	1.518333	-0.233190
C63	C	-0.464378	1.518508	-0.116414
H64	H	-0.215351	1.023961	-0.392030
C65	C	-0.372091	1.799358	-1.026133
C66	C	-0.471759	1.792938	-1.011385
C67	C	-0.518795	1.828177	-1.101777
H68	H	-0.354548	1.870056	-1.039577
H69	H	-0.353941	1.756902	-1.084012
H70	H	-0.489902	1.835394	-0.953523
H71	H	-0.489330	1.722250	-0.997954
H72	H	-0.500645	1.785721	-1.159656
H73	H	-0.501244	1.898874	-1.115214
H74	H	-0.586424	1.823817	-1.091786
C75	C	-0.335602	1.658537	-1.121195
C76	C	-0.273733	1.599093	-1.184172
C77	C	-0.211885	1.666139	-1.239109
H78	H	-0.372374	1.704330	-1.164081
H79	H	-0.298828	1.698538	-1.072848
H80	H	-0.310502	1.559109	-1.232514
H81	H	-0.236939	1.553302	-1.141313
H82	H	-0.175111	1.706140	-1.190761
H83	H	-0.248665	1.711929	-1.281988
H84	H	-0.169893	1.625815	-1.281838
C85	C	-0.077691	1.113990	-0.265902
C86	C	-0.030515	1.181392	-0.196238
C87	C	0.063688	1.146013	-0.180177
H88	H	-0.079196	1.045268	-0.237298
H89	H	-0.044277	1.113010	-0.330874
H90	H	-0.063920	1.182361	-0.131278
H91	H	-0.028984	1.250118	-0.224822
H92	H	0.097102	1.145033	-0.245149
H93	H	0.062174	1.077290	-0.151576
H94	H	0.095712	1.191744	-0.132916
C95	C	-0.243217	1.939664	-0.911619
C96	C	-0.179211	1.990967	-0.844210
C97	C	-0.164290	2.093574	-0.879612
H98	H	-0.216924	1.938029	-0.980333
H99	H	-0.302812	1.976109	-0.912629
H100	H	-0.119628	1.954531	-0.843212
H101	H	-0.205487	1.992630	-0.775494
H102	H	-0.223885	2.130019	-0.880622
H103	H	-0.138000	2.091928	-0.948326
H104	H	-0.120868	2.128398	-0.833876
C105	C	-0.784124	0.735444	-0.852865
C106	C	-0.873504	0.785954	-0.855865
C107	C	-0.935461	0.731232	-0.922858
H108	H	-0.757367	0.733606	-0.921361
H109	H	-0.792292	0.665897	-0.827763
H110	H	-0.865333	0.855482	-0.880972
H111	H	-0.900289	0.787793	-0.787387
H112	H	-0.943630	0.661686	-0.897756
H113	H	-0.908696	0.729397	-0.991349
H114	H	-0.996115	0.765490	-0.924895
C115	C	-0.145401	1.302434	-0.159202
C116	C	-0.185256	1.304968	-0.058429
C117	C	-0.123644	1.359824	0.008832
H118	H	-0.084679	1.268360	-0.156892
H119	H	-0.137309	1.372015	-0.184238
H120	H	-0.193336	1.235400	-0.033398
H121	H	-0.245970	1.339050	-0.060705
H122	H	-0.115552	1.429405	-0.016204
H123	H	-0.062926	1.325744	0.011133
H124	H	-0.150680	1.361558	0.077212
C125	C	-0.623907	1.525084	-1.250165
C126	C	-0.711906	1.578458	-1.251635
C127	C	-0.697320	1.681032	-1.287297
H128	H	-0.580534	1.560193	-1.204607
H129	H	-0.597706	1.523348	-1.318931
H130	H	-0.738093	1.580200	-1.182879
H131	H	-0.755292	1.543381	-1.297196
H132	H	-0.671119	1.679296	-1.356064
H133	H	-0.653945	1.716131	-1.241735
H134	H	-0.757025	1.717256	-1.288309
H135	H	-0.162336	1.847667	-0.738018
H136	H	-0.332819	1.352114	-0.206525
C137	C	-0.176588	1.652307	-0.648711
C138	C	-0.203592	1.715090	-0.563665
C139	C	-0.156807	1.680049	-0.473042
H140	H	-0.194188	1.581648	-0.635153
H141	H	-0.108927	1.656629	-0.658479
H142	H	-0.271238	1.710758	-0.553896
H143	H	-0.185990	1.785751	-0.577187
H144	H	-0.089145	1.684370	-0.482810
H145	H	-0.174410	1.609389	-0.459495
H146	H	-0.175115	1.722646	-0.415330
C147	C	-0.335838	0.904554	-0.366127
C148	C	-0.356706	0.931210	-0.262134
C149	C	-0.295002	0.876479	-0.194874
H150	H	-0.344629	0.831336	-0.375599
H151	H	-0.271026	0.922581	-0.381563
H152	H	-0.421502	0.913176	-0.246704
H153	H	-0.347909	1.004417	-0.252629
H154	H	-0.230190	0.894506	-0.210310
H155	H	-0.303798	0.803264	-0.204356
H156	H	-0.309147	0.894564	-0.124309
C157	C	-0.305057	1.511830	-0.763351
C158	C	-0.217133	1.458310	-0.761922
C159	C	-0.231876	1.355699	-0.726444
H160	H	-0.331281	1.513461	-0.694606
H161	H	-0.348469	1.476890	-0.809016
H162	H	-0.173736	1.493241	-0.716258
H163	H	-0.190895	1.456650	-0.830656
H164	H	-0.275288	1.320759	-0.772109
H165	H	-0.258102	1.357340	-0.657701
H166	H	-0.172225	1.319370	-0.725479
H167	H	-0.576652	1.118427	-0.627837
C168	C	-0.851403	0.924154	-0.746319
C169	C	-0.848732	1.025486	-0.788363
C170	C	-0.942805	1.061313	-0.804336
H171	H	-0.883649	0.878661	-0.793615
H172	H	-0.884780	0.925230	-0.681326
H173	H	-0.815370	1.024403	-0.853346
H174	H	-0.816504	1.071003	-0.741083
H175	H	-0.976182	1.062390	-0.739343
H176	H	-0.975044	1.015814	-0.851629
H177	H	-0.941006	1.130074	-0.832855
H178	H	-0.444876	1.252621	-0.328227
H179	H	-0.713847	1.013781	-0.620271
H180	H	-0.569592	1.247087	-1.011743
H181	H	-0.596386	0.685645	-0.805817
H182	H	-0.739581	1.375296	-1.339972
C183	C	-0.593278	1.378381	-0.892287
C184	C	-0.688705	1.401258	-0.918943
C185	C	-0.750606	1.334179	-0.864119
H186	H	-0.579290	1.307760	-0.910217
H187	H	-0.584536	1.387999	-0.819075
H188	H	-0.697442	1.391631	-0.992138
H189	H	-0.702723	1.471867	-0.901010
H190	H	-0.741865	1.343797	-0.790907
H191	H	-0.736609	1.263562	-0.882053
H192	H	-0.815360	1.349698	-0.882190
C193	C	-0.685616	1.097287	-1.101733
C194	C	-0.749650	1.045994	-1.169119
C195	C	-0.764611	0.943406	-1.133680
H196	H	-0.626061	1.060793	-1.100712
H197	H	-0.711904	1.098989	-1.033005
H198	H	-0.723360	1.044286	-1.237829
H199	H	-0.809217	1.082456	-1.170148
H200	H	-0.790898	0.945108	-1.064951
H201	H	-0.705051	0.906922	-1.132659
H202	H	-0.808065	0.908594	-1.179390
H203	H	-0.484319	0.785145	-0.684145
H204	H	-0.766451	1.189257	-1.275367
