data_functionalizedCrystal
_audit_creation_method	'MofGen! by Chris Wilmer'
_symmetry_space_group_name_H-M	'P1'
_symmetry_Int_Tables_number	1
_symmetry_cell_setting	triclinic
loop_
_symmetry_equiv_pos_as_xyz
  x,y,z
_cell_length_a	18.215407
_cell_length_b	19.805405
_cell_length_c	18.215399
_cell_angle_alpha	89.969390
_cell_angle_beta	89.980167
_cell_angle_gamma	90.026858
loop_
_atom_site_label
_atom_site_type_symbol
_atom_site_fract_x
_atom_site_fract_y
_atom_site_fract_z
Zn1	Zn	1.125064	-0.269462	-0.416102
Zn2	Zn	1.625064	0.230538	0.083898
Zn3	Zn	1.124969	-0.382653	-0.293030
Zn4	Zn	1.624969	0.117347	0.206970
Zn5	Zn	1.001997	-0.269484	-0.293050
Zn6	Zn	1.501997	0.230516	0.206950
Zn7	Zn	1.001959	-0.382615	-0.416055
Zn8	Zn	1.501959	0.117385	0.083945
O9	O	1.063497	-0.326054	-0.354559
O10	O	1.563497	0.173946	0.145441
O11	O	1.228036	-0.284484	-0.399788
O12	O	1.728036	0.215516	0.100212
O13	O	1.108633	-0.367666	-0.190049
O14	O	1.608633	0.132334	0.309951
O15	O	1.018377	-0.174765	-0.309401
O16	O	1.518377	0.325235	0.190599
O17	O	1.227966	-0.367644	-0.309368
O18	O	1.727966	0.132356	0.190632
O19	O	1.108794	-0.174748	-0.399807
O20	O	1.608794	0.325252	0.100193
O21	O	1.018285	-0.284521	-0.190063
O22	O	1.518285	0.215479	0.309937
O23	O	0.899008	-0.284485	-0.309355
O24	O	1.399008	0.215515	0.190645
O25	O	1.018313	-0.367580	-0.519046
O26	O	1.518313	0.132420	-0.019046
O27	O	0.898980	-0.367602	-0.399727
O28	O	1.398980	0.132398	0.100273
O29	O	1.108758	-0.284447	-0.519080
O30	O	1.608758	0.215553	-0.019080
O31	O	1.108596	-0.477365	-0.309322
O32	O	1.608596	0.022635	0.190678
O33	O	1.018221	-0.477337	-0.399708
O34	O	1.518221	0.022663	0.100292
C35	C	0.872291	-0.326042	-0.354538
C36	C	1.372291	0.173958	0.145462
C37	C	0.790492	-0.326053	-0.354547
C38	C	1.290492	0.173947	0.145453
C39	C	0.602303	-0.369400	-0.401544
C40	C	1.102303	0.130600	0.098456
C41	C	0.525444	-0.369403	-0.401553
C42	C	1.025444	0.130597	0.098447
C43	C	0.525444	-0.282719	-0.307591
C44	C	1.025444	0.217281	0.192409
C45	C	0.602301	-0.282714	-0.307586
C46	C	1.102301	0.217286	0.192414
C47	C	0.640729	-0.326059	-0.354561
C48	C	1.140729	0.173941	0.145439
C49	C	0.487013	-0.326066	-0.354575
C50	C	0.987013	0.173934	0.145425
C51	C	0.403679	-0.326068	-0.354585
C52	C	0.903679	0.173932	0.145415
C53	C	0.724068	-0.326056	-0.354553
C54	C	1.224068	0.173944	0.145447
C55	C	1.063415	-0.501910	-0.354524
C56	C	1.563415	-0.001910	0.145476
C57	C	1.063446	-0.577142	-0.354533
C58	C	1.563446	-0.077142	0.145467
C59	C	1.110550	-0.612478	-0.307518
C60	C	1.610550	-0.112478	0.192482
C61	C	1.110582	-0.683166	-0.307535
C62	C	1.610582	-0.183166	0.192465
C63	C	1.063505	-0.718517	-0.354562
C64	C	1.563505	-0.218517	0.145438
C65	C	1.016399	-0.683176	-0.401582
C66	C	1.516399	-0.183176	0.098418
C67	C	1.016372	-0.612489	-0.401569
C68	C	1.516372	-0.112489	0.098431
C69	C	1.016507	-0.968249	-0.401637
C70	C	1.516507	-0.468249	0.098363
C71	C	1.016536	-1.038941	-0.401645
C72	C	1.516536	-0.538941	0.098355
C73	C	1.110717	-1.038927	-0.307602
C74	C	1.610717	-0.538927	0.192398
C75	C	1.110690	-0.968239	-0.307589
C76	C	1.610690	-0.468239	0.192411
C77	C	1.063587	-0.932905	-0.354611
C78	C	1.563587	-0.432905	0.145389
C79	C	1.063555	-0.856256	-0.354594
C80	C	1.563555	-0.356256	0.145406
C81	C	1.063533	-0.795164	-0.354577
C82	C	1.563533	-0.295164	0.145423
C83	C	1.255450	-0.326066	-0.354581
C84	C	1.755450	0.173934	0.145419
C85	C	1.337249	-0.326071	-0.354590
C86	C	1.837249	0.173929	0.145410
C87	C	1.063542	-0.326007	-0.546512
C88	C	1.563542	0.173993	-0.046512
C89	C	1.063561	-0.325987	-0.628311
C90	C	1.563561	0.174013	-0.128311
C91	C	1.063601	-0.149511	-0.354611
C92	C	1.563601	0.350489	0.145389
C93	C	1.063645	-0.074279	-0.354633
C94	C	1.563645	0.425721	0.145367
C95	C	1.110673	-0.282659	-0.816524
C96	C	1.610673	0.217341	-0.316524
C97	C	1.110682	-0.282639	-0.893383
C98	C	1.610682	0.217361	-0.393383
C99	C	1.016502	-0.369210	-0.893336
C100	C	1.516502	0.130790	-0.393336
C101	C	1.016490	-0.369226	-0.816479
C102	C	1.516490	0.130774	-0.316479
C103	C	1.063580	-0.325952	-0.778075
C104	C	1.563580	0.174048	-0.278075
C105	C	1.063600	-0.325916	-0.931791
C106	C	1.563600	0.174084	-0.431791
C107	C	1.063609	-0.325895	-1.015125
C108	C	1.563609	0.174105	-0.515125
C109	C	1.063570	-0.325972	-0.694736
C110	C	1.563570	0.174028	-0.194736
C111	C	1.063495	-0.326051	-0.163353
C112	C	1.563495	0.173949	0.336647
C113	C	1.063619	-0.325880	-0.081555
C114	C	1.563619	0.174120	0.418445
H115	H	1.148883	-0.583700	-0.269220
H116	H	1.648883	-0.083700	0.230780
H117	H	1.149014	-0.247420	-0.785258
H118	H	1.649014	0.252580	-0.285258
H119	H	0.978016	-0.583719	-0.439854
H120	H	1.478016	-0.083719	0.060146
H121	H	0.978165	-0.404444	-0.924614
H122	H	1.478165	0.095556	-0.424614
C123	C	0.965398	-1.077202	-0.452792
C124	C	1.465398	-0.577202	0.047208
C125	C	0.924156	-1.031129	-0.493985
C126	C	1.424156	-0.531129	0.006015
C127	C	0.877050	-1.066350	-0.541113
C128	C	1.377050	-0.566350	-0.041113
H129	H	0.933292	-1.104822	-0.424700
H130	H	1.433292	-0.604822	0.075300
H131	H	0.993531	-1.104722	-0.484922
H132	H	1.493531	-0.604722	0.015078
H133	H	0.896025	-1.003621	-0.461859
H134	H	1.396025	-0.503621	0.038141
H135	H	0.956243	-1.003508	-0.522093
H136	H	1.456243	-0.503508	-0.022093
H137	H	0.905183	-1.093870	-0.573244
H138	H	1.405183	-0.593870	-0.073244
H139	H	0.844949	-1.093968	-0.513015
H140	H	1.344949	-0.593968	-0.013015
H141	H	0.849067	-1.035095	-0.569073
H142	H	1.349067	-0.535095	-0.069073
C143	C	0.483593	-0.416388	-0.452534
C144	C	0.983593	0.083612	0.047466
C145	C	0.408059	-0.407104	-0.442503
C146	C	0.908059	0.092896	0.057497
C147	C	0.369483	-0.450370	-0.489464
C148	C	0.869483	0.049630	0.010536
H149	H	0.496074	-0.461880	-0.441720
H150	H	0.996074	0.038120	0.058280
H151	H	0.496174	-0.406533	-0.502015
H152	H	0.996174	0.093467	-0.002015
H153	H	0.395483	-0.416964	-0.393033
H154	H	0.895483	0.083036	0.106967
H155	H	0.395555	-0.361622	-0.453323
H156	H	0.895555	0.138378	0.046677
H157	H	0.382064	-0.440515	-0.538945
H158	H	0.882064	0.059485	-0.038945
H159	H	0.381970	-0.495859	-0.478645
H160	H	0.881970	0.004141	0.021355
H161	H	0.318229	-0.444072	-0.482669
H162	H	0.818229	0.055928	0.017331
H163	H	0.978136	-0.404480	-0.785172
H164	H	1.478136	0.095520	-0.285172
H165	H	0.633589	-0.404693	-0.439797
H166	H	1.133589	0.095307	0.060203
H167	H	0.494146	-0.247431	-0.269344
H168	H	0.994146	0.252569	0.230656
H169	H	0.633588	-0.247416	-0.269327
H170	H	1.133588	0.252584	0.230673
C171	C	1.161749	-0.721409	-0.256406
C172	C	1.661749	-0.221409	0.243594
C173	C	1.202953	-0.675321	-0.215201
C174	C	1.702953	-0.175321	0.284799
C175	C	1.250091	-0.710525	-0.168086
C176	C	1.750091	-0.210525	0.331914
H177	H	1.193877	-0.748943	-0.284508
H178	H	1.693877	-0.248943	0.215492
H179	H	1.133641	-0.749013	-0.224283
H180	H	1.633641	-0.249013	0.275717
H181	H	1.231059	-0.647729	-0.247321
H182	H	1.731059	-0.147729	0.252679
H183	H	1.170844	-0.647785	-0.187085
H184	H	1.670844	-0.147785	0.312915
H185	H	1.221983	-0.738128	-0.135962
H186	H	1.721983	-0.238128	0.364038
H187	H	1.282215	-0.738058	-0.196193
H188	H	1.782215	-0.238058	0.303807
H189	H	1.278049	-0.679260	-0.140118
H190	H	1.778049	-0.179260	0.359882
C191	C	1.161762	-0.929946	-0.256411
C192	C	1.661762	-0.429946	0.243589
C193	C	1.145801	-0.947211	-0.183586
C194	C	1.645801	-0.447211	0.316414
C195	C	1.192843	-0.911957	-0.136422
C196	C	1.692843	-0.411957	0.363578
H197	H	1.155046	-0.882776	-0.263037
H198	H	1.655046	-0.382776	0.236963
H199	H	1.211219	-0.941501	-0.267188
H200	H	1.711219	-0.441501	0.232812
H201	H	1.096356	-0.935652	-0.172813
H202	H	1.596356	-0.435652	0.327187
H203	H	1.152521	-0.994375	-0.176937
H204	H	1.652521	-0.494375	0.323063
H205	H	1.242300	-0.923513	-0.147199
H206	H	1.742300	-0.423513	0.352801
H207	H	1.186124	-0.864789	-0.143054
H208	H	1.686124	-0.364789	0.356946
H209	H	1.182025	-0.923671	-0.087005
H210	H	1.682025	-0.423671	0.412995
C211	C	1.161852	-1.077413	-0.256648
C212	C	1.661852	-0.577413	0.243352
C213	C	1.151826	-1.146885	-0.266743
C214	C	1.651826	-0.646885	0.233257
C215	C	1.198929	-1.182358	-0.219830
C216	C	1.698929	-0.682358	0.280170
H217	H	1.151164	-1.065958	-0.207155
H218	H	1.651164	-0.565958	0.292845
H219	H	1.211299	-1.065814	-0.267482
H220	H	1.711299	-0.565814	0.232518
H221	H	1.102391	-1.158480	-0.255905
H222	H	1.602391	-0.658480	0.244095
H223	H	1.162520	-1.158360	-0.316227
H224	H	1.662520	-0.658360	0.183773
H225	H	1.248376	-1.170758	-0.230664
H226	H	1.748376	-0.670758	0.269336
H227	H	1.188237	-1.170896	-0.170340
H228	H	1.688237	-0.670896	0.329660
H229	H	1.192137	-1.229497	-0.226678
H230	H	1.692137	-0.729497	0.273322
H231	H	0.978153	-0.939485	-0.439923
H232	H	1.478153	-0.439485	0.060077
H233	H	1.149028	-0.247385	-0.924686
H234	H	1.649028	0.252615	-0.424686
H235	H	0.978071	-0.711965	-0.439876
H236	H	1.478071	-0.211965	0.060124
