data_functionalizedCrystal
_audit_creation_method	'MofGen! by Chris Wilmer'
_symmetry_space_group_name_H-M	'P1'
_symmetry_Int_Tables_number	1
_symmetry_cell_setting	triclinic
loop_
_symmetry_equiv_pos_as_xyz
  x,y,z
_cell_length_a	25.639239
_cell_length_b	14.908783
_cell_length_c	25.639243
_cell_angle_alpha	93.312090
_cell_angle_beta	90.014050
_cell_angle_gamma	93.329368
loop_
_atom_site_label
_atom_site_type_symbol
_atom_site_fract_x
_atom_site_fract_y
_atom_site_fract_z
Zn1	Zn	-0.162196	1.379074	0.341808
Zn2	Zn	0.337804	1.879074	0.841808
Zn3	Zn	-0.249611	1.378949	0.254368
Zn4	Zn	0.250389	1.878949	0.754368
Zn5	Zn	-0.167224	1.228227	0.249333
Zn6	Zn	0.332776	1.728227	0.749333
Zn7	Zn	-0.254641	1.228126	0.336720
Zn8	Zn	0.245359	1.728126	0.836720
O9	O	-0.208418	1.303594	0.295557
O10	O	0.291582	1.803594	0.795557
O11	O	-0.169582	1.505307	0.334445
O12	O	0.330418	2.005307	0.834445
O13	O	-0.238682	1.358945	0.180535
O14	O	0.261318	1.858945	0.680535
O15	O	-0.093388	1.248333	0.261623
O16	O	0.406612	1.748333	0.761623
O17	O	-0.233806	1.505215	0.270204
O18	O	0.266194	2.005215	0.770204
O19	O	-0.089694	1.359159	0.329563
O20	O	0.410306	1.859159	0.829563
O21	O	-0.178152	1.248211	0.176836
O22	O	0.321848	1.748211	0.676836
O23	O	-0.183030	1.101964	0.256689
O24	O	0.316970	1.601964	0.756689
O25	O	-0.242379	1.248160	0.410561
O26	O	0.257621	1.748160	0.910561
O27	O	-0.247255	1.101890	0.320892
O28	O	0.252745	1.601890	0.820892
O29	O	-0.174459	1.359061	0.414299
O30	O	0.325541	1.859061	0.914299
O31	O	-0.323447	1.358847	0.265270
O32	O	0.176553	1.858847	0.765270
O33	O	-0.327143	1.248038	0.325774
O34	O	0.172857	1.748038	0.825774
C35	C	-0.216234	1.069192	0.287692
C36	C	0.283766	1.569192	0.787692
C37	C	-0.219590	0.968914	0.284340
C38	C	0.280410	1.468914	0.784340
C39	C	-0.159112	0.780575	0.345037
C40	C	0.340888	1.280575	0.845037
C41	C	-0.162264	0.686355	0.341889
C42	C	0.337736	1.186355	0.841889
C43	C	-0.229042	0.686251	0.274893
C44	C	0.270958	1.186251	0.774893
C45	C	-0.225891	0.780472	0.278041
C46	C	0.274109	1.280472	0.778041
C47	C	-0.190925	0.827630	0.313115
C48	C	0.309075	1.327630	0.813115
C49	C	-0.187776	0.921852	0.316265
C50	C	0.312224	1.421852	0.816265
C51	C	-0.254552	0.921747	0.249267
C52	C	0.245448	1.421747	0.749267
C53	C	-0.257704	0.827527	0.246119
C54	C	0.242296	1.327527	0.746119
C55	C	-0.344266	1.303442	0.295528
C56	C	0.155734	1.803442	0.795528
C57	C	-0.402379	1.303460	0.295536
C58	C	0.097621	1.803460	0.795536
C59	C	-0.760796	1.361443	0.264115
C60	C	-0.260796	1.861443	0.764115
C61	C	-0.815399	1.361478	0.264123
C62	C	-0.315399	1.861478	0.764123
O63	O	-0.841986	1.410619	0.237377
O64	O	-0.341986	1.910619	0.737377
N65	N	-0.844652	1.303753	0.295597
N66	N	-0.344652	1.803753	0.795597
C67	C	-0.819299	1.245996	0.327069
C68	C	-0.319299	1.745996	0.827069
O69	O	-0.849194	1.196900	0.353841
O70	O	-0.349194	1.696900	0.853841
C71	C	-0.764696	1.245966	0.327064
C72	C	-0.264696	1.745966	0.827064
C73	C	-0.735446	1.303688	0.295583
C74	C	-0.235446	1.803688	0.795583
C75	C	-0.731546	1.419161	0.232638
C76	C	-0.231546	1.919161	0.732638
C77	C	-0.676947	1.419125	0.232629
C78	C	-0.176947	1.919125	0.732629
C79	C	-0.651597	1.361370	0.264098
C80	C	-0.151597	1.861370	0.764098
C81	C	-0.680847	1.303652	0.295575
C82	C	-0.180847	1.803652	0.795575
C83	C	-0.739344	1.188214	0.358538
C84	C	-0.239344	1.688214	0.858538
C85	C	-0.684738	1.188190	0.358530
C86	C	-0.184738	1.688190	0.858530
C87	C	-0.655488	1.245912	0.327050
C88	C	-0.155488	1.745912	0.827050
C89	C	-0.600898	1.245861	0.327034
C90	C	-0.100898	1.745861	0.827034
N91	N	-0.571645	1.303586	0.295560
N92	N	-0.071645	1.803586	0.795560
C93	C	-0.596995	1.361340	0.264092
C94	C	-0.096995	1.861340	0.764092
C95	C	-0.933967	1.246064	0.327080
C96	C	-0.433967	1.746064	0.827080
C97	C	-0.988568	1.246088	0.327083
C98	C	-0.488568	1.746088	0.827083
C99	C	-0.984665	1.361572	0.264138
C100	C	-0.484665	1.861572	0.764138
C101	C	-0.930063	1.361542	0.264132
C102	C	-0.430063	1.861542	0.764132
C103	C	-0.904714	1.303788	0.295606
C104	C	-0.404714	1.803788	0.795606
C105	C	-0.482333	1.361259	0.264076
C106	C	0.017667	1.861259	0.764076
C107	C	-0.427729	1.361215	0.264068
C108	C	0.072271	1.861215	0.764068
C109	C	-0.431637	1.245735	0.327015
C110	C	0.068363	1.745735	0.827015
C111	C	-0.486236	1.245775	0.327021
C112	C	0.013764	1.745775	0.827021
C113	C	-0.511582	1.303545	0.295550
C114	C	-0.011582	1.803545	0.795550
O115	O	-0.574276	1.196747	0.353769
O116	O	-0.074276	1.696747	0.853769
O117	O	-0.567093	1.410436	0.237329
O118	O	-0.067093	1.910436	0.737329
C119	C	-0.072039	1.303771	0.295599
C120	C	0.427961	1.803771	0.795599
C121	C	-0.013923	1.303846	0.295616
C122	C	0.486077	1.803846	0.795616
C123	C	-0.208419	1.303613	0.431931
C124	C	0.291581	1.803613	0.931931
C125	C	-0.208420	1.303621	0.490045
C126	C	0.291580	1.803621	0.990045
C127	C	-0.200572	1.538911	0.303454
C128	C	0.299428	2.038911	0.803454
C129	C	-0.197228	1.639190	0.306819
C130	C	0.302772	2.139190	0.806819
C131	C	-0.239942	1.361250	0.743156
C132	C	0.260058	1.861250	1.243156
C133	C	-0.239943	1.361252	0.688552
C134	C	0.260057	1.861252	1.188552
O135	O	-0.266757	1.410260	0.661946
O136	O	0.233243	1.910260	1.161946
N137	N	-0.208426	1.303604	0.659319
N138	N	0.291574	1.803604	1.159319
C139	C	-0.176911	1.245943	0.684692
C140	C	0.323089	1.745943	1.184692
O141	O	-0.150104	1.196909	0.654813
O142	O	0.349896	1.696909	1.154813
C143	C	-0.176913	1.245937	0.739295
C144	C	0.323087	1.745937	1.239295
C145	C	-0.208428	1.303595	0.768526
C146	C	0.291572	1.803595	1.268526
C147	C	-0.271455	1.418902	0.772387
C148	C	0.228545	1.918902	1.272387
C149	C	-0.271453	1.418901	0.826988
C150	C	0.228547	1.918901	1.326988
C151	C	-0.239939	1.361247	0.852357
C152	C	0.260061	1.861247	1.352357
C153	C	-0.208426	1.303594	0.823127
C154	C	0.291574	1.803594	1.323127
C155	C	-0.145401	1.188273	0.764667
C156	C	0.354599	1.688273	1.264667
C157	C	-0.145406	1.188271	0.819274
C158	C	0.354594	1.688271	1.319274
C159	C	-0.176921	1.245929	0.848505
C160	C	0.323079	1.745929	1.348505
C161	C	-0.176910	1.245938	0.903097
C162	C	0.323090	1.745938	1.403097
N163	N	-0.208427	1.303586	0.932330
N164	N	0.291573	1.803586	1.432330
C165	C	-0.239941	1.361240	0.906960
C166	C	0.260059	1.861240	1.406960
C167	C	-0.176909	1.245960	0.570022
C168	C	0.323091	1.745960	1.070022
C169	C	-0.176904	1.245970	0.515420
C170	C	0.323096	1.745970	1.015420
C171	C	-0.239936	1.361278	0.519284
C172	C	0.260064	1.861278	1.019284
C173	C	-0.239939	1.361271	0.573887
C174	C	0.260061	1.861271	1.073887
C175	C	-0.208426	1.303608	0.599255
C176	C	0.291574	1.803608	1.099255
C177	C	-0.239935	1.361233	1.021625
C178	C	0.260065	1.861233	1.521625
C179	C	-0.239929	1.361229	1.076231
C180	C	0.260071	1.861229	1.576231
C181	C	-0.176898	1.245919	1.072362
C182	C	0.323102	1.745919	1.572362
C183	C	-0.176902	1.245926	1.017761
C184	C	0.323098	1.745926	1.517761
C185	C	-0.208425	1.303586	0.992395
C186	C	0.291575	1.803586	1.492395
O187	O	-0.150112	1.196952	0.929738
O188	O	0.349888	1.696952	1.429738
O189	O	-0.266749	1.410258	0.936846
O190	O	0.233251	1.910258	1.436846
C191	C	-0.208425	1.303572	1.159714
C192	C	0.291575	1.803572	1.659714
C193	C	-0.208415	1.303575	1.101600
C194	C	0.291585	1.803575	1.601600
H195	H	-0.136357	0.648046	0.367882
H196	H	0.363643	1.148046	0.867882
C197	C	-0.510206	1.424803	0.229452
C198	C	-0.010206	1.924803	0.729452
N199	N	-0.531199	1.472659	0.203371
N200	N	-0.031199	1.972659	0.703371
H201	H	-0.159306	0.960247	0.344825
H202	H	0.340694	1.460247	0.844825
H203	H	-1.005314	1.408602	0.238516
H204	H	-0.505314	1.908602	0.738516
H205	H	-0.257504	0.647839	0.246332
H206	H	0.242496	1.147839	0.746332
H207	H	-0.265601	1.408222	0.597683
H208	H	0.234399	1.908222	1.097683
H209	H	-0.286170	0.789118	0.217561
H210	H	0.213830	1.289118	0.717561
C211	C	-0.142232	1.182504	0.985607
C212	C	0.357768	1.682504	1.485607
N213	N	-0.116122	1.134726	0.961391
N214	N	0.383878	1.634726	1.461391
H215	H	-0.913331	1.199026	0.352707
H216	H	-0.413331	1.699026	0.852707
H217	H	-1.012380	1.199076	0.352712
H218	H	-0.512380	1.699076	0.852712
C219	C	-0.142235	1.182501	1.100279
C220	C	0.357765	1.682501	1.600279
N221	N	-0.116129	1.134730	1.121308
N222	N	0.383871	1.634730	1.621308
H223	H	-0.119739	1.141319	0.740877
H224	H	0.380261	1.641319	1.240877
C225	C	-0.120653	0.832451	0.383621
C226	C	0.379347	1.332451	0.883621
N227	N	-0.091684	0.871523	0.412682
N228	N	0.408316	1.371523	0.912682
C229	C	-0.306128	1.482320	0.859134
C230	C	0.193872	1.982320	1.359134
N231	N	-0.332249	1.530088	0.883344
N232	N	0.167751	2.030088	1.383344
H233	H	-0.763150	1.141206	0.384170
H234	H	-0.263150	1.641206	0.884170
C235	C	-0.274607	1.424693	0.491366
C236	C	0.225393	1.924693	0.991366
N237	N	-0.300720	1.472453	0.470337
N238	N	0.199280	1.972453	0.970337
C239	C	-0.289549	0.973516	0.214151
C240	C	0.210451	1.473516	0.714151
N241	N	-0.315910	1.012509	0.187704
N242	N	0.184090	1.512509	0.687704
C243	C	-0.306113	1.482354	0.744490
C244	C	0.193887	1.982354	1.244490
N245	N	-0.332212	1.530161	0.723482
N246	N	0.167788	2.030161	1.223482
C247	C	-0.656858	1.124655	0.393154
C248	C	-0.156858	1.624655	0.893154
N249	N	-0.635860	1.076799	0.419233
N250	N	-0.135860	1.576799	0.919233
C251	C	-0.142230	1.182549	0.483272
C252	C	0.357770	1.682549	0.983272
N253	N	-0.116116	1.134774	0.459060
N254	N	0.383884	1.634774	0.959060
H255	H	-0.510052	1.198776	0.352656
H256	H	-0.010052	1.698776	0.852656
H257	H	-0.410989	1.198709	0.352635
H258	H	0.089011	1.698709	0.852635
C259	C	-0.274601	1.424657	1.108381
C260	C	0.225399	1.924657	1.608381
N261	N	-0.300717	1.472428	1.132596
N262	N	0.199283	1.972428	1.632596
C263	C	-0.274606	1.424672	0.993730
C264	C	0.225394	1.924672	1.493730
N265	N	-0.300715	1.472461	0.972720
N266	N	0.199285	1.972461	1.472720
H267	H	-0.151242	1.199006	0.590673
H268	H	0.348758	1.699006	1.090673
H269	H	-0.119744	1.141313	0.839926
H270	H	0.380256	1.641313	1.339926
C271	C	-0.759422	1.482696	0.198015
C272	C	-0.259422	1.982696	0.698015
N273	N	-0.780414	1.530549	0.171930
N274	N	-0.280414	2.030549	0.671930
H275	H	-0.403915	1.408219	0.238431
H276	H	0.096085	1.908219	0.738431
H277	H	-0.906250	1.408545	0.238499
H278	H	-0.406250	1.908545	0.738499
C279	C	-0.644779	1.482617	0.197994
C280	C	-0.144779	1.982617	0.697994
N281	N	-0.620554	1.530440	0.171904
N282	N	-0.120554	2.030440	0.671904
