data_functionalizedCrystal
_audit_creation_method	'MofGen! by Chris Wilmer'
_symmetry_space_group_name_H-M	'P1'
_symmetry_Int_Tables_number	1
_symmetry_cell_setting	triclinic
loop_
_symmetry_equiv_pos_as_xyz
  x,y,z
_cell_length_a	17.077404
_cell_length_b	17.637651
_cell_length_c	17.077396
_cell_angle_alpha	78.755281
_cell_angle_beta	89.980223
_cell_angle_gamma	101.214193
loop_
_atom_site_label
_atom_site_type_symbol
_atom_site_fract_x
_atom_site_fract_y
_atom_site_fract_z
Zn1	Zn	1.136891	-0.314855	-0.380571
Zn2	Zn	1.110274	-0.447075	-0.222732
Zn3	Zn	1.005620	-0.314872	-0.249315
Zn4	Zn	0.979078	-0.447017	-0.353967
O5	O	1.057966	-0.380955	-0.301646
O6	O	1.243204	-0.332412	-0.359642
O7	O	1.096360	-0.429569	-0.116405
O8	O	1.045281	-0.204232	-0.288985
O9	O	1.223648	-0.429553	-0.243679
O10	O	1.141725	-0.204220	-0.385418
O11	O	1.019471	-0.332440	-0.135936
O12	O	0.892256	-0.332384	-0.263188
O13	O	1.000044	-0.429454	-0.467349
O14	O	0.872756	-0.429470	-0.340076
O15	O	1.115989	-0.332355	-0.486895
O16	O	1.070623	-0.557705	-0.217882
O17	O	0.974234	-0.557662	-0.314300
C18	C	0.854024	-0.380923	-0.301630
C19	C	0.766774	-0.380928	-0.301638
C20	C	0.380798	-0.431621	-0.341603
C21	C	0.462781	-0.431610	-0.341593
C22	C	0.513915	-0.380976	-0.301655
C23	C	0.483062	-0.330353	-0.261717
C24	C	0.401081	-0.330368	-0.261723
C25	C	0.653938	-0.330325	-0.261710
C26	C	0.735926	-0.330309	-0.261706
C27	C	0.715638	-0.431567	-0.341580
C28	C	0.633656	-0.431582	-0.341585
C29	C	0.602810	-0.380958	-0.301649
C30	C	1.016682	-0.586371	-0.260337
C31	C	0.999092	-0.674248	-0.242690
C32	C	1.192104	-0.962941	-0.435950
C33	C	1.175550	-1.045516	-0.419355
C34	C	1.075190	-1.045636	-0.318842
C35	C	1.091737	-0.963060	-0.335426
C36	C	1.150194	-0.921719	-0.393982
C37	C	1.049828	-0.921837	-0.293458
C38	C	1.066371	-0.839268	-0.310043
C39	C	1.124824	-0.797922	-0.368598
C40	C	1.166738	-0.839150	-0.410567
C41	C	0.991367	-0.963180	-0.234906
C42	C	0.949457	-0.921957	-0.192938
C43	C	0.966005	-0.839387	-0.209519
C44	C	1.024458	-0.798040	-0.268073
C45	C	0.924091	-0.798158	-0.167549
C46	C	0.940634	-0.715589	-0.184135
C47	C	1.041001	-0.715471	-0.284659
C48	C	1.262704	-0.380987	-0.301663
C49	C	1.349951	-0.381001	-0.301670
C50	C	1.058025	-0.380896	-0.506403
C51	C	1.058050	-0.380872	-0.593657
C52	C	1.099433	-0.174736	-0.343135
C53	C	1.117104	-0.086859	-0.360815
C54	C	1.118425	-0.330308	-0.644827
C55	C	1.118440	-0.330282	-0.726813
C56	C	1.058082	-0.380823	-0.757627
C57	C	0.997701	-0.431389	-0.706451
C58	C	0.997684	-0.431411	-0.624467
C59	C	0.997742	-0.431342	-0.877330
C60	C	0.997760	-0.431321	-0.959319
C61	C	1.118498	-0.330212	-0.979676
C62	C	1.118481	-0.330234	-0.897693
C63	C	1.058101	-0.380801	-0.846522
C64	C	1.057964	-0.380956	-0.097698
C65	C	1.058135	-0.380758	-0.010489
H66	H	1.088609	-0.681810	-0.332335
C67	C	1.184824	-0.274706	-0.610941
N68	N	1.234836	-0.232823	-0.585421
C69	C	0.749571	-0.487255	-0.385507
N70	N	0.775133	-0.529197	-0.418595
H71	H	1.027592	-1.079307	-0.271168
C72	C	0.620010	-0.274635	-0.217779
N73	N	0.594455	-0.232686	-0.184696
C74	C	0.894539	-0.670242	-0.137960
N75	N	0.859820	-0.636086	-0.103179
H76	H	0.977892	-1.030413	-0.221412
H77	H	0.524702	-0.289129	-0.229195
C78	C	1.221659	-1.090858	-0.465529
N79	N	1.256386	-1.125009	-0.500308
H80	H	0.375967	-0.289146	-0.229208
C81	C	1.184859	-0.274659	-0.783097
N82	N	1.234888	-0.232762	-0.825489
H83	H	0.876490	-0.831830	-0.119879
H84	H	1.138293	-0.730689	-0.382100
C85	C	0.931268	-0.487036	-0.568180
N86	N	0.881240	-0.528933	-0.525785
C87	C	0.792172	-0.274614	-0.217764
N88	N	0.834536	-0.232667	-0.184664
H89	H	1.214346	-0.805489	-0.458243
C90	C	1.184917	-0.274588	-1.035965
N91	N	1.234944	-0.232695	-1.078365
C92	C	0.931360	-0.486915	-0.993213
N93	N	0.881345	-0.528788	-1.018742
H94	H	0.948554	-0.472538	-0.731546
H95	H	1.167633	-0.289083	-0.872606
H96	H	0.948564	-0.472506	-0.835671
H97	H	0.339170	-0.472849	-0.374130
C98	C	0.577408	-0.487289	-0.385511
N99	N	0.535041	-0.529254	-0.418591
H100	H	0.901860	-0.955628	-0.145264
H101	H	0.487891	-0.472832	-0.374107
C102	C	1.256409	-0.917462	-0.500366
N103	N	1.304838	-0.883207	-0.548884
