data_functionalizedCrystal
_audit_creation_method	'MofGen! by Chris Wilmer'
_symmetry_space_group_name_H-M	'P1'
_symmetry_Int_Tables_number	1
_symmetry_cell_setting	triclinic
loop_
_symmetry_equiv_pos_as_xyz
  x,y,z
_cell_length_a	15.995292
_cell_length_b	15.995350
_cell_length_c	12.503552
_cell_angle_alpha	86.478069
_cell_angle_beta	93.523602
_cell_angle_gamma	83.480495
loop_
_atom_site_label
_atom_site_type_symbol
_atom_site_fract_x
_atom_site_fract_y
_atom_site_fract_z
O1	O	1.115851	0.102852	0.089345
O2	O	1.615851	0.602852	0.589345
O3	O	0.872069	0.116231	0.089340
O4	O	1.372069	0.616231	0.589340
O5	O	1.000624	-0.012347	0.089342
O6	O	1.500624	0.487653	0.589342
O7	O	0.987296	0.231431	0.089343
O8	O	1.487296	0.731431	0.589343
O9	O	0.990945	-0.002669	-0.089301
O10	O	1.490945	0.497331	0.410699
O11	O	0.862390	0.125909	-0.089303
O12	O	1.362390	0.625909	0.410697
O13	O	1.106172	0.112531	-0.089298
O14	O	1.606172	0.612531	0.410702
Cu15	Cu	0.983397	0.120104	-0.105612
Cu16	Cu	1.483397	0.620104	0.394388
Cu17	Cu	0.994844	0.108658	0.105654
Cu18	Cu	1.494844	0.608658	0.605654
O19	O	0.977617	0.241109	-0.089299
O20	O	1.477617	0.741109	0.410701
C21	C	0.836034	0.120526	0.000018
C22	C	1.336034	0.620526	0.500018
C23	C	0.743081	0.118893	0.000016
C24	C	1.243081	0.618893	0.500016
C25	C	0.405343	0.112891	0.000029
C26	C	0.905343	0.612891	0.500029
C27	C	0.428677	0.205674	0.000428
C28	C	0.928677	0.705674	0.500428
C29	C	0.525330	0.207460	0.000021
C30	C	1.025330	0.707460	0.500021
C31	C	0.572899	0.115870	0.000023
C32	C	1.072899	0.615870	0.500023
C33	C	0.538270	0.074998	-0.101987
C34	C	1.038270	0.574998	0.398013
C35	C	0.441475	0.073886	-0.102068
C36	C	0.941475	0.573886	0.397932
C37	C	0.452626	0.060984	0.101082
C38	C	0.952626	0.560984	0.601082
C39	C	0.549192	0.064351	0.102426
C40	C	1.049192	0.564351	0.602426
C41	C	0.667594	0.117548	0.000017
C42	C	1.167594	0.617548	0.500017
C43	C	0.310647	0.111211	0.000028
C44	C	0.810647	0.611211	0.500028
C45	C	0.995234	-0.038703	0.000022
C46	C	1.495234	0.461297	0.500022
C47	C	0.993582	-0.131653	0.000028
C48	C	1.493582	0.368347	0.500028
C49	C	0.987649	-0.469399	0.000025
C50	C	1.487649	0.030601	0.500025
C51	C	0.896117	-0.421968	0.000423
C52	C	1.396117	0.078032	0.500423
C53	C	0.897747	-0.325256	0.000021
C54	C	1.397747	0.174744	0.500021
C55	C	0.990592	-0.301840	0.000027
C56	C	1.490592	0.198160	0.500027
C57	C	1.030223	-0.337400	-0.101984
C58	C	1.530223	0.162600	0.398016
C59	C	1.027918	-0.434030	-0.102069
C60	C	1.527918	0.065970	0.397931
C61	C	1.040817	-0.445395	0.101081
C62	C	1.540817	0.054605	0.601081
C63	C	1.040868	-0.348523	0.102429
C64	C	1.540868	0.151477	0.602429
C65	C	0.992260	-0.207142	0.000025
C66	C	1.492260	0.292858	0.500025
C67	C	0.985984	-0.564097	0.000020
C68	C	1.485984	-0.064097	0.500020
C69	C	1.142207	0.108236	0.000027
C70	C	1.642207	0.608236	0.500027
C71	C	1.235161	0.109868	0.000035
C72	C	1.735161	0.609868	0.500035
C73	C	0.983008	0.267464	0.000022
C74	C	1.483008	0.767464	0.500022
C75	C	0.984660	0.360414	0.000023
C76	C	1.484660	0.860414	0.500023
N77	N	0.975352	0.128153	-0.254204
N78	N	1.475352	0.628153	0.245796
C79	C	1.014726	0.088757	-0.526637
C80	C	1.514726	0.588757	-0.026637
C81	C	0.963525	0.139995	-0.473314
C82	C	1.463525	0.639995	0.026686
C83	C	0.970107	0.133405	-0.351390
C84	C	1.470107	0.633405	0.148610
C85	C	1.008144	0.095346	-0.648572
C86	C	1.508144	0.595346	-0.148572
N87	N	1.002896	0.100601	0.254247
N88	N	1.502896	0.600601	0.754247
H89	H	0.582496	-0.002835	0.108589
H90	H	1.082496	0.497165	0.608589
H91	H	0.914747	0.188811	-0.519230
H92	H	1.414747	0.688811	-0.019230
F93	F	0.397265	0.247252	0.096049
F94	F	0.897265	0.747252	0.596049
F95	F	0.385595	0.257325	-0.094652
F96	F	0.885595	0.757325	0.405348
F97	F	0.983852	-0.294921	-0.201215
F98	F	1.483852	0.205079	0.298785
H99	H	1.063501	0.039946	-0.480726
H100	H	1.563501	0.539946	0.019274
H101	H	0.539765	0.247985	-0.073228
H102	H	1.039765	0.747985	0.426772
H103	H	1.011941	-0.325356	0.177894
H104	H	1.511941	0.174644	0.677894
F105	F	0.555380	0.249774	0.095601
F106	F	1.055380	0.749774	0.595601
H107	H	1.108908	-0.333509	0.108593
H108	H	1.608908	0.166491	0.608593
H109	H	1.108357	-0.477207	0.101771
H110	H	1.608357	0.022793	0.601771
H111	H	0.410526	0.110150	-0.178325
H112	H	0.910526	0.610150	0.321675
H113	H	0.426673	0.006092	-0.106700
H114	H	0.926673	0.506092	0.393300
F115	F	0.434390	-0.028352	0.101984
F116	F	0.934390	0.471648	0.601984
H117	H	0.428489	0.085803	0.178400
H118	H	0.928489	0.585803	0.678400
H119	H	0.866212	-0.300788	0.073146
H120	H	1.366212	0.199212	0.573146
H121	H	0.855744	-0.437613	-0.072324
H122	H	1.355744	0.062387	0.427676
F123	F	1.119111	-0.318688	-0.106941
F124	F	1.619111	0.181312	0.393059
H125	H	0.569932	0.007806	-0.105779
H126	H	1.069932	0.507806	0.394221
F127	F	0.559109	0.122488	-0.201219
F128	F	1.059109	0.622488	0.298781
F129	F	1.115446	-0.475874	-0.108125
F130	F	1.615446	0.024126	0.391875
H131	H	0.571850	0.094045	0.177892
H132	H	1.071850	0.594045	0.677892
F133	F	0.845848	-0.283634	-0.095722
F134	F	1.345848	0.216366	0.404278
F135	F	0.853464	-0.451358	0.096042
F136	F	1.353464	0.048642	0.596042
H137	H	0.990857	-0.448194	-0.178328
H138	H	1.490857	0.051806	0.321672
H139	H	1.015072	-0.470117	0.178399
H140	H	1.515072	0.029883	0.678399
