data_functionalizedCrystal
_audit_creation_method	'MofGen! by Chris Wilmer'
_symmetry_space_group_name_H-M	'P1'
_symmetry_Int_Tables_number	1
_symmetry_cell_setting	triclinic
loop_
_symmetry_equiv_pos_as_xyz
  x,y,z
_cell_length_a	16.120530
_cell_length_b	12.594516
_cell_length_c	16.120256
_cell_angle_alpha	87.128506
_cell_angle_beta	90.128265
_cell_angle_gamma	92.887010
loop_
_atom_site_label
_atom_site_type_symbol
_atom_site_fract_x
_atom_site_fract_y
_atom_site_fract_z
Zn1	Zn	1.247485	0.539266	-0.534546
Zn2	Zn	1.580818	0.872599	-0.201213
Zn3	Zn	1.914151	1.205932	0.132121
Zn4	Zn	1.254449	0.708702	-0.395481
Zn5	Zn	1.587783	1.042035	-0.062148
Zn6	Zn	1.921116	1.375369	0.271186
Zn7	Zn	1.115473	0.521274	-0.388464
Zn8	Zn	1.448807	0.854607	-0.055131
Zn9	Zn	1.782140	1.187940	0.278203
Zn10	Zn	1.108406	0.707727	-0.527451
Zn11	Zn	1.441739	1.041060	-0.194118
Zn12	Zn	1.775072	1.374393	0.139216
O13	O	1.181453	0.619242	-0.461485
O14	O	1.514787	0.952575	-0.128152
O15	O	1.848120	1.285909	0.205181
O16	O	1.364775	0.569679	-0.522005
O17	O	1.698109	0.903013	-0.188671
O18	O	2.031442	1.236346	0.144662
O19	O	1.241887	0.676718	-0.278185
O20	O	1.575220	1.010051	0.055149
O21	O	1.908553	1.343384	0.388482
O22	O	1.133028	0.374720	-0.407875
O23	O	1.466361	0.708053	-0.074541
O24	O	1.799695	1.041386	0.258792
O25	O	1.369892	0.694163	-0.419834
O26	O	1.703226	1.027497	-0.086501
O27	O	2.036559	1.360830	0.246832
O28	O	1.230016	0.387938	-0.515200
O29	O	1.563349	0.721271	-0.181867
O30	O	1.896683	1.054605	0.151466
O31	O	1.139782	0.539015	-0.273029
O32	O	1.473115	0.872348	0.060304
O33	O	1.806448	1.205682	0.393638
O34	O	0.998169	0.538070	-0.400995
O35	O	1.331502	0.871403	-0.067662
O36	O	1.664836	1.204736	0.265672
O37	O	1.120982	0.692502	-0.644758
O38	O	1.454315	1.025835	-0.311424
O39	O	1.787649	1.359168	0.021909
O40	O	0.992976	0.675056	-0.503108
O41	O	1.326310	1.008389	-0.169775
O42	O	1.659643	1.341722	0.163559
O43	O	1.223163	0.568734	-0.649970
O44	O	1.556496	0.902067	-0.316637
O45	O	1.889829	1.235401	0.016696
O46	O	1.235033	0.857513	-0.412955
O47	O	1.568367	1.190847	-0.079621
O48	O	1.901700	1.524180	0.253712
O49	O	1.127736	0.856797	-0.509912
O50	O	1.461069	1.190130	-0.176579
O51	O	1.794402	1.523464	0.156754
C52	C	0.965400	0.604505	-0.450521
C53	C	1.298733	0.937839	-0.117187
C54	C	1.632067	1.271172	0.216146
C55	C	0.872970	0.598228	-0.445850
C56	C	1.206304	0.931561	-0.112516
C57	C	1.539637	1.264894	0.220817
C58	C	0.703740	0.586742	-0.437329
C59	C	1.037073	0.920075	-0.103995
C60	C	1.370407	1.253409	0.229338
C61	C	0.660004	0.651824	-0.485703
C62	C	0.993337	0.985158	-0.152370
C63	C	1.326671	1.318491	0.180964
C64	C	0.565838	0.645434	-0.480962
C65	C	0.899172	0.978767	-0.147629
C66	C	1.232505	1.312100	0.185705
C67	C	0.797914	0.593131	-0.442069
C68	C	1.131247	0.926465	-0.108735
C69	C	1.464581	1.259798	0.224598
C70	C	1.181395	0.895777	-0.461444
C71	C	1.514728	1.229110	-0.128111
C72	C	1.848062	1.562443	0.205222
C73	C	1.181445	1.014086	-0.461458
C74	C	1.514778	1.347419	-0.128125
C75	C	1.848111	1.680753	0.205208
C76	C	1.239860	1.083698	-0.408779
C77	C	1.573193	1.417031	-0.075446
C78	C	1.906527	1.750364	0.257887
C79	C	1.256326	1.160454	-0.485700
C80	C	1.589660	1.493787	-0.152367
C81	C	1.922993	1.827120	0.180967
C82	C	1.165064	1.148137	-0.384572
C83	C	1.498398	1.481470	-0.051239
C84	C	1.831731	1.814803	0.282094
C85	C	1.197948	1.089289	-0.538421
C86	C	1.531281	1.422622	-0.205088
C87	C	1.864614	1.755956	0.128246
C88	C	1.106653	1.076960	-0.437240
C89	C	1.439986	1.410294	-0.103907
C90	C	1.773320	1.743627	0.229427
C91	C	1.123088	1.153686	-0.514212
C92	C	1.456421	1.487019	-0.180878
C93	C	1.789754	1.820353	0.152455
C94	C	1.398350	0.634037	-0.472494
C95	C	1.731684	0.967370	-0.139160
C96	C	2.065017	1.300704	0.194173
C97	C	1.490779	0.640342	-0.477185
C98	C	1.824112	0.973675	-0.143851
C99	C	2.157445	1.307009	0.189482
C100	C	1.170507	0.632516	-0.678380
C101	C	1.503840	0.965849	-0.345047
C102	C	1.837174	1.299183	-0.011713
C103	C	1.165842	0.638172	-0.770807
C104	C	1.499176	0.971506	-0.437474
C105	C	1.832509	1.304839	-0.104141
C106	C	1.181515	1.341628	-0.461524
C107	C	1.514848	1.674961	-0.128190
C108	C	1.848182	2.008294	0.205143
C109	C	1.181493	1.223318	-0.461482
C110	C	1.514827	1.556652	-0.128149
C111	C	1.848160	1.889985	0.205184
C112	C	1.205777	0.589716	-0.983793
C113	C	1.539111	0.923050	-0.650460
C114	C	1.872444	1.256383	-0.317127
C115	C	1.157298	0.648454	-0.940027
C116	C	1.490632	0.981787	-0.606694
C117	C	1.823965	1.315121	-0.273361
C118	C	1.162054	0.642732	-0.845865
C119	C	1.495387	0.976065	-0.512531
C120	C	1.828720	1.309398	-0.179198
C121	C	1.201023	0.595437	-1.077964
C122	C	1.534356	0.928771	-0.744631
C123	C	1.867690	1.262104	-0.411298
C124	C	1.192405	0.605946	-0.245437
C125	C	1.525738	0.939280	0.087896
C126	C	1.859071	1.272613	0.421230
C127	C	1.197230	0.600001	-0.153018
C128	C	1.530564	0.933334	0.180315
C129	C	1.863897	1.266668	0.513648
H130	H	0.670465	0.526229	-0.392356
H131	H	1.003798	0.859563	-0.059023
H132	H	1.337131	1.192896	0.274310
Cl133	Cl	1.354012	1.216732	-0.517365
Cl134	Cl	1.687346	1.550066	-0.184031
Cl135	Cl	2.020679	1.883399	0.149302
H136	H	1.250850	0.535137	-0.950546
H137	H	1.584183	0.868471	-0.617213
H138	H	1.917517	1.201804	-0.283880
Cl139	Cl	1.046846	1.200857	-0.583088
Cl140	Cl	1.380179	1.534191	-0.249755
Cl141	Cl	1.713512	1.867524	0.083579
Cl142	Cl	0.711378	0.745254	-0.555148
Cl143	Cl	1.044711	1.078587	-0.221814
Cl144	Cl	1.378044	1.411921	0.111519
Cl145	Cl	1.219497	1.049290	-0.638858
Cl146	Cl	1.552830	1.382624	-0.305524
Cl147	Cl	1.886163	1.715957	0.027809
H148	H	1.289272	1.052962	-0.364281
H149	H	1.622606	1.386295	-0.030948
H150	H	1.955939	1.719628	0.302386
H151	H	1.043402	1.040471	-0.416719
H152	H	1.376736	1.373804	-0.083386
H153	H	1.710069	1.707138	0.249947
H154	H	1.151189	1.174187	-0.319541
H155	H	1.484523	1.507520	0.013793
H156	H	1.817856	1.840854	0.347126
H157	H	1.112218	0.703032	-0.973276
H158	H	1.445551	1.036365	-0.639943
H159	H	1.778884	1.369698	-0.306609
