data_functionalizedCrystal
_audit_creation_method	'MofGen! by Chris Wilmer'
_symmetry_space_group_name_H-M	'P1'
_symmetry_Int_Tables_number	1
_symmetry_cell_setting	triclinic
loop_
_symmetry_equiv_pos_as_xyz
  x,y,z
_cell_length_a	16.992694
_cell_length_b	16.992695
_cell_length_c	16.053802
_cell_angle_alpha	87.258926
_cell_angle_beta	92.750953
_cell_angle_gamma	90.668223
loop_
_atom_site_label
_atom_site_type_symbol
_atom_site_fract_x
_atom_site_fract_y
_atom_site_fract_z
O1	O	-1.053959	-0.163815	-0.069325
O2	O	-0.825560	-0.161983	-0.069350
O3	O	-0.938844	-0.048699	-0.069331
O4	O	-0.940676	-0.277099	-0.069344
O5	O	-0.932607	-0.054907	0.069527
O6	O	-0.819323	-0.168191	0.069508
O7	O	-1.047722	-0.170023	0.069533
Zn8	Zn	-0.932532	-0.170093	0.091567
Zn9	Zn	-0.940750	-0.161913	-0.091384
O10	O	-0.934438	-0.283307	0.069514
C11	C	-0.793082	-0.162731	0.000076
C12	C	-0.705597	-0.155702	0.000067
C13	C	-0.933370	-0.022443	0.000098
C14	C	-0.926341	0.065042	0.000097
C15	C	-1.080201	-0.169275	0.000105
C16	C	-1.167685	-0.176304	0.000109
C17	C	-0.659607	-0.223520	0.000064
C18	C	-0.577405	-0.216911	0.000076
C19	C	-0.541197	-0.142484	0.000085
C20	C	-0.587193	-0.074661	0.000091
C21	C	-0.669393	-0.081270	0.000085
C22	C	-0.295881	-0.115090	0.000109
C23	C	-0.213676	-0.108486	0.000112
C24	C	-0.203893	-0.250737	0.000099
C25	C	-0.286095	-0.257339	0.000088
C26	C	-0.332084	-0.189517	0.000098
N27	N	-0.457174	-0.135727	0.000094
N28	N	-0.416105	-0.196275	0.000094
C29	C	-0.939913	-0.309563	0.000084
C30	C	-0.946942	-0.397047	0.000079
N31	N	-0.926930	-0.175675	0.216427
C32	C	-0.994158	0.111032	0.000105
C33	C	-0.987550	0.193233	0.000096
C34	C	-0.913123	0.229442	0.000086
C35	C	-0.845300	0.183446	0.000075
C36	C	-0.851910	0.101246	0.000078
C37	C	-0.885729	0.474757	0.000071
C38	C	-0.879124	0.556962	0.000071
C39	C	-1.021375	0.566745	0.000091
C40	C	-1.027978	0.484543	0.000099
C41	C	-0.960155	0.438554	0.000083
N42	N	-0.906366	0.313465	0.000079
N43	N	-0.966913	0.354533	0.000084
N44	N	-0.946358	-0.156325	-0.216243
C45	C	-0.975152	-0.127492	0.260129
C46	C	-0.971241	-0.131404	0.347535
C47	C	-0.919110	-0.183504	0.391237
C48	C	-0.870883	-0.231689	0.347529
C49	C	-0.874791	-0.227772	0.260125
C50	C	-0.902039	-0.200593	0.652644
C51	C	-0.898136	-0.204508	0.740055
C52	C	-0.998493	-0.104222	0.740054
C53	C	-1.002400	-0.100313	0.652648
C54	C	-0.954169	-0.148494	0.608948
N55	N	-0.915113	-0.187507	0.480580
N56	N	-0.958163	-0.144487	0.519606
H57	H	-0.689081	-0.284126	0.000056
H58	H	-1.010506	-0.092170	0.383116
H59	H	-0.557705	-0.014061	0.000110
C60	C	-1.031815	-0.071032	0.212618
C61	C	-1.084889	-0.113733	0.162414
C62	C	-1.137087	-0.061737	0.118637
H63	H	-1.003027	-0.034946	0.178478
H64	H	-1.060021	-0.042888	0.251122
H65	H	-1.056685	-0.141864	0.123914
H66	H	-1.113695	-0.149816	0.196533
H67	H	-1.165293	-0.033593	0.157141
H68	H	-1.108292	-0.025653	0.084502
H69	H	-1.173108	-0.090702	0.084574
C70	C	-1.058724	-0.043651	0.604937
C71	C	-1.111820	-0.086087	0.554495
C72	C	-1.163558	-0.033820	0.510440
H73	H	-1.029592	-0.007745	0.570937
H74	H	-1.086948	-0.015323	0.643276
H75	H	-1.083599	-0.114402	0.516160
H76	H	-1.140971	-0.121990	0.588473
H77	H	-1.191783	-0.005492	0.548779
H78	H	-1.134419	0.002083	0.476446
H79	H	-1.199595	-0.062606	0.476216
H80	H	-0.184198	-0.047875	0.000119
H81	H	-1.037759	-0.064994	0.775643
H82	H	-0.333316	-0.059864	0.000118
H83	H	-0.862769	-0.239826	0.617070
C84	C	-1.075040	0.071873	0.000071
C85	C	-1.133017	0.129749	0.000052
C86	C	-1.207536	0.093709	0.000005
H87	H	-1.078516	0.037854	0.048481
H88	H	-1.082790	0.042194	-0.048371
H89	H	-1.125270	0.159415	0.048489
H90	H	-1.129566	0.163772	-0.048355
H91	H	-1.215286	0.064030	-0.048437
H92	H	-1.211004	0.059690	0.048416
H93	H	-1.246883	0.132972	-0.000016
H94	H	-0.706838	-0.026046	0.000087
H95	H	-0.855683	-0.246937	0.775633
H96	H	-0.828433	-0.274107	0.383117
C97	C	-0.822401	-0.280181	0.212824
C98	C	-0.775926	-0.326662	0.269802
C99	C	-0.727658	-0.374957	0.226261
H100	H	-0.789315	-0.248349	0.178735
H101	H	-0.854275	-0.313255	0.178735
H102	H	-0.744054	-0.293591	0.303877
H103	H	-0.808991	-0.358510	0.303894
H104	H	-0.759533	-0.408031	0.192172
H105	H	-0.694578	-0.343119	0.192173
H106	H	-0.696125	-0.406505	0.264914
H107	H	-0.796685	0.063801	0.000071
H108	H	-1.088584	0.455068	0.000108
C109	C	-0.154052	-0.324442	0.000225
C110	C	-0.167915	-0.372162	0.071650
C111	C	-0.122024	-0.440073	0.071792
H112	H	-0.099890	-0.309962	0.000273
H113	H	-0.167695	-0.352628	-0.048175
H114	H	-0.154267	-0.343981	0.120038
H115	H	-0.222068	-0.386662	0.071617
H116	H	-0.135666	-0.468259	0.023391
H117	H	-0.067864	-0.425586	0.071838
H118	H	-0.131428	-0.472463	0.120248
H119	H	-0.539963	-0.272136	0.000072
H120	H	-1.042774	0.230676	0.000105
H121	H	-1.076592	0.604198	0.000102
C122	C	-0.325519	-0.338096	0.000184
C123	C	-0.369259	-0.349246	0.071595
C124	C	-0.405603	-0.423621	0.071690
H125	H	-0.286450	-0.377626	0.000218
H126	H	-0.359586	-0.341448	-0.048226
H127	H	-0.335195	-0.345901	0.119992
H128	H	-0.408341	-0.309734	0.071576
H129	H	-0.439670	-0.426973	0.023281
H130	H	-0.366529	-0.463145	0.071723
H131	H	-0.435290	-0.431193	0.120138
H132	H	-0.830503	0.437322	0.000059
H133	H	-0.784700	0.212933	0.000061
C134	C	-0.798244	0.596131	0.000006
C135	C	-0.740263	0.538265	-0.000032
C136	C	-0.665753	0.574318	-0.000104
H137	H	-0.790418	0.625828	0.048414
H138	H	-0.794855	0.630137	-0.048438
H139	H	-0.743650	0.504272	0.048407
H140	H	-0.748064	0.508564	-0.048436
H141	H	-0.662364	0.608324	-0.048548
H142	H	-0.657935	0.604014	0.048305
H143	H	-0.626404	0.535062	-0.000138
