data_functionalizedCrystal
_audit_creation_method	'MofGen! by Chris Wilmer'
_symmetry_space_group_name_H-M	'P1'
_symmetry_Int_Tables_number	1
_symmetry_cell_setting	triclinic
loop_
_symmetry_equiv_pos_as_xyz
  x,y,z
_cell_length_a	17.699083
_cell_length_b	14.044220
_cell_length_c	16.776229
_cell_angle_alpha	89.992645
_cell_angle_beta	89.998886
_cell_angle_gamma	88.235946
loop_
_atom_site_label
_atom_site_type_symbol
_atom_site_fract_x
_atom_site_fract_y
_atom_site_fract_z
O1	O	1.012346	0.119850	-0.066178
O2	O	0.793043	0.135443	-0.066204
O3	O	0.899403	-0.010330	-0.066183
O4	O	0.905986	0.265624	-0.066198
O5	O	0.899387	-0.010339	0.066393
O6	O	0.793027	0.135434	0.066372
O7	O	1.012330	0.119841	0.066399
Zn8	Zn	0.902676	0.127636	0.087435
Zn9	Zn	0.902697	0.127648	-0.087240
O10	O	0.905970	0.265615	0.066378
C11	C	0.764800	0.134880	0.000081
C12	C	0.680666	0.133204	0.000071
C13	C	0.637948	0.218769	0.000067
C14	C	0.558895	0.217189	0.000077
C15	C	0.522563	0.130041	0.000086
C16	C	0.565287	0.044469	0.000093
C17	C	0.644338	0.046050	0.000088
C18	C	0.246484	0.038089	0.000113
C19	C	0.167427	0.036514	0.000115
C20	C	0.161041	0.209227	0.000102
C21	C	0.240092	0.210809	0.000097
C22	C	0.282809	0.125237	0.000108
C23	C	0.368527	0.126952	0.000098
C24	C	0.436847	0.128325	0.000090
C25	C	0.896513	-0.045643	0.000105
C26	C	0.887917	-0.150849	0.000105
C27	C	0.872202	-0.343474	0.000091
C28	C	0.933168	-0.401248	0.000096
C29	C	0.924424	-0.508431	0.000089
C30	C	0.880945	-0.236281	0.000099
C31	C	1.040574	0.120404	0.000112
C32	C	1.124707	0.122081	0.000117
C33	C	0.908860	0.300927	0.000088
C34	C	0.917456	0.406133	0.000083
N35	N	0.902667	0.127628	0.206646
N36	N	0.902712	0.127649	-0.206452
C37	C	0.949781	0.063106	0.248372
C38	C	0.949785	0.063105	0.331825
C39	C	0.902679	0.127631	0.373549
C40	C	0.855560	0.192156	0.331817
C41	C	0.855552	0.192152	0.248366
C42	C	0.855589	0.192175	0.668364
C43	C	0.855601	0.192176	0.751821
C44	C	0.949821	0.063128	0.751822
C45	C	0.949813	0.063123	0.668372
C46	C	0.902692	0.127645	0.626647
C47	C	0.902687	0.127644	0.536159
C48	C	0.902687	0.127638	0.464036
H49	H	0.667523	0.289735	0.000059
C50	C	0.784151	-0.441515	-0.068066
C51	C	0.792880	-0.385367	0.000086
H52	H	0.735183	-0.467391	-0.068063
H53	H	0.790081	-0.403404	-0.114289
H54	H	0.821262	-0.491841	-0.068059
H55	H	0.755772	-0.335037	0.000076
H56	H	0.786943	-0.423481	0.046321
H57	H	0.817239	0.244723	0.785791
C58	C	1.042910	-0.064464	0.256765
C59	C	1.001560	-0.007827	0.202513
H60	H	1.074873	-0.108260	0.228453
H61	H	1.072795	-0.025054	0.289302
H62	H	1.009104	-0.098499	0.289325
H63	H	1.035367	0.026213	0.169957
H64	H	0.971673	-0.047242	0.169962
H65	H	0.988174	0.010583	0.634402
C66	C	0.325302	0.312777	0.068222
C67	C	0.280035	0.306598	0.000078
H68	H	0.349965	0.371912	0.068205
H69	H	0.294599	0.308584	0.114450
H70	H	0.362050	0.262032	0.068217
H71	H	0.243283	0.357340	0.000086
H72	H	0.310740	0.310801	-0.046162
H73	H	0.137848	-0.034456	0.000124
C74	C	0.244845	-0.132793	0.000122
C75	C	0.293432	-0.055971	0.000119
H76	H	0.273833	-0.190863	0.000121
H77	H	0.213881	-0.129817	0.046351
H78	H	0.213878	-0.129805	-0.046114
H79	H	0.324395	-0.058955	0.046358
H80	H	0.324409	-0.058948	-0.046116
H81	H	0.679119	-0.023626	0.000091
C82	C	0.446945	-0.034648	0.000099
C83	C	0.525352	-0.051327	0.000101
H84	H	0.422294	-0.093791	0.000097
H85	H	0.432681	0.000566	0.046327
H86	H	0.432685	0.000581	-0.046138
H87	H	0.539613	-0.086549	0.046342
H88	H	0.539622	-0.086555	-0.046131
H89	H	0.991930	-0.370212	0.000050
C90	C	0.957529	-0.065912	0.425676
C91	C	1.001579	-0.007820	0.377684
H92	H	0.989508	-0.109704	0.453981
H93	H	0.929483	-0.027490	0.462469
H94	H	0.923730	-0.099953	0.393120
H95	H	1.035375	0.026227	0.410240
H96	H	1.029637	-0.046247	0.340887
H97	H	0.988187	0.010588	0.785804
H98	H	0.817222	0.244712	0.634398
H99	H	0.817201	0.244692	0.365794
H100	H	0.817187	0.244691	0.214394
C101	C	0.037025	0.283508	0.000113
C102	C	0.114084	0.303293	0.000101
H103	H	0.008039	0.341580	0.000115
H104	H	0.025382	0.247775	-0.046112
H105	H	0.025393	0.247766	0.046353
H106	H	0.125717	0.339030	-0.046143
H107	H	0.125731	0.339041	0.046330
H108	H	0.524117	0.286865	0.000073
