data_functionalizedCrystal
_audit_creation_method	'MofGen! by Chris Wilmer'
_symmetry_space_group_name_H-M	'P1'
_symmetry_Int_Tables_number	1
_symmetry_cell_setting	triclinic
loop_
_symmetry_equiv_pos_as_xyz
  x,y,z
_cell_length_a	10.489746
_cell_length_b	15.944493
_cell_length_c	9.565339
_cell_angle_alpha	90.006105
_cell_angle_beta	89.999333
_cell_angle_gamma	84.008172
loop_
_atom_site_label
_atom_site_type_symbol
_atom_site_fract_x
_atom_site_fract_y
_atom_site_fract_z
O1	O	1.692368	0.118524	-0.116146
O2	O	1.321016	0.129644	-0.116167
O3	O	1.516872	0.001867	-0.116168
O4	O	1.496513	0.246301	-0.116146
O5	O	1.516856	0.001875	0.116352
O6	O	1.321000	0.129652	0.116353
O7	O	1.692353	0.118532	0.116374
Zn8	Zn	1.506674	0.124093	0.153281
Zn9	Zn	1.506695	0.124083	-0.153074
O10	O	1.496497	0.246309	0.116375
C11	C	1.273489	0.128807	0.000090
C12	C	1.131895	0.126292	0.000080
C13	C	0.980211	0.043502	0.000093
C14	C	1.057011	0.084898	0.114737
C15	C	1.056981	0.084909	-0.114510
C16	C	0.956408	0.163247	0.114853
C17	C	0.956373	0.163247	-0.114496
C18	C	1.033123	0.204700	0.000176
C19	C	1.516032	-0.029429	0.000086
C20	C	1.513537	-0.122692	0.000068
C21	C	1.628822	-0.357758	0.000102
C22	C	1.566661	-0.408704	-0.114546
C23	C	1.508915	-0.293441	0.000085
C24	C	1.566618	-0.408672	0.114701
C25	C	1.504459	-0.458378	0.000108
C26	C	1.446786	-0.343159	-0.114657
C27	C	1.446760	-0.343124	0.114693
C28	C	1.384511	-0.394038	0.000017
C29	C	1.511485	-0.198426	0.000071
C30	C	1.501879	-0.553390	0.000112
C31	C	1.739880	0.119369	0.000114
C32	C	1.881474	0.121884	0.000114
C33	C	1.497337	0.277605	0.000117
C34	C	1.499832	0.370868	0.000126
N35	N	1.506670	0.124100	0.362360
N36	N	1.506709	0.124070	-0.362154
C37	C	1.416066	0.183173	0.453564
C38	C	1.531321	0.200170	0.546751
C39	C	1.391464	0.107109	0.546728
C40	C	1.621983	0.141136	0.453496
C41	C	1.482050	0.048041	0.453465
C42	C	1.597389	0.065007	0.546611
H43	H	0.912653	0.196317	0.211888
Br44	Br	1.072304	0.318384	0.000277
Br45	Br	1.288474	0.266508	0.385460
Br46	Br	0.883094	0.218345	-0.276044
H47	H	1.100900	0.051802	-0.211435
H48	H	1.617306	-0.437348	-0.211467
Br49	Br	1.784437	0.165190	0.385537
H50	H	1.674111	0.015036	0.587209
Br51	Br	1.800967	-0.330669	-0.000070
Br52	Br	1.130240	0.029758	0.276283
H53	H	1.552172	0.264478	0.587726
H54	H	0.956457	-0.024654	0.000202
Br55	Br	1.212231	-0.420857	-0.000088
H56	H	1.396182	-0.314648	-0.211686
H57	H	1.396159	-0.314465	0.211618
Br58	Br	1.651045	-0.456379	0.276239
H59	H	1.461163	-0.016246	0.412458
Br60	Br	1.229054	0.083177	0.614994
