data_functionalizedCrystal
_audit_creation_method	'MofGen! by Chris Wilmer'
_symmetry_space_group_name_H-M	'P1'
_symmetry_Int_Tables_number	1
_symmetry_cell_setting	triclinic
loop_
_symmetry_equiv_pos_as_xyz
  x,y,z
_cell_length_a	18.101397
_cell_length_b	19.121274
_cell_length_c	18.101389
_cell_angle_alpha	87.579535
_cell_angle_beta	89.981649
_cell_angle_gamma	92.420740
loop_
_atom_site_label
_atom_site_type_symbol
_atom_site_fract_x
_atom_site_fract_y
_atom_site_fract_z
Zn1	Zn	-0.343219	-1.073710	-0.370443
Zn2	Zn	-0.467041	-1.073634	-0.246605
Zn3	Zn	-0.337937	-0.956264	-0.251897
Zn4	Zn	-0.461738	-0.956241	-0.375685
O5	O	-0.402484	-1.014962	-0.311157
O6	O	-0.364074	-1.171980	-0.349606
O7	O	-0.449924	-1.058043	-0.143675
O8	O	-0.235007	-0.971885	-0.267644
O9	O	-0.455046	-1.171925	-0.258623
O10	O	-0.238887	-1.058172	-0.354739
O11	O	-0.355072	-0.971812	-0.147563
O12	O	-0.349929	-0.857980	-0.272727
O13	O	-0.446007	-0.971845	-0.478621
O14	O	-0.440885	-0.857963	-0.363673
O15	O	-0.358932	-1.058149	-0.474770
O16	O	-0.569969	-1.058020	-0.263706
O17	O	-0.566072	-0.971772	-0.358541
C18	C	-0.394259	-0.832488	-0.319344
C19	C	-0.390758	-0.754425	-0.322863
C20	C	-0.436401	-0.717719	-0.277076
C21	C	-0.433112	-0.644371	-0.280393
C22	C	-0.384176	-0.607729	-0.329494
C23	C	-0.338532	-0.644441	-0.375286
C24	C	-0.341825	-0.717788	-0.371972
C25	C	-0.371870	-0.386270	-0.341876
C26	C	-0.368579	-0.312917	-0.345184
C27	C	-0.463160	-0.312853	-0.250292
C28	C	-0.466446	-0.386201	-0.246980
C29	C	-0.420804	-0.422906	-0.292774
C30	C	-0.380811	-0.532755	-0.332884
C31	C	-0.424173	-0.497879	-0.289388
C32	C	-0.594892	-1.014904	-0.311133
C33	C	-0.677208	-1.014944	-0.311145
C34	C	-0.827918	-1.014986	-0.311168
C35	C	-0.861695	-1.069305	-0.251554
C36	C	-0.947307	-1.069170	-0.251349
C37	C	-0.976302	-1.015030	-0.311191
C38	C	-0.941950	-0.940961	-0.293515
C39	C	-0.856318	-0.941250	-0.293072
C40	C	-0.860286	-1.034098	-0.388635
C41	C	-0.946010	-1.035756	-0.388158
C42	C	-1.060163	-1.015049	-0.311205
C43	C	-0.744057	-1.014961	-0.311152
C44	C	-0.209325	-1.015039	-0.311197
C45	C	-0.127013	-1.015072	-0.311214
C46	C	-0.402467	-1.015003	-0.504317
C47	C	-0.402460	-1.015020	-0.586631
C48	C	-0.410731	-0.198148	-0.302929
C49	C	-0.414221	-0.276211	-0.299397
C50	C	-0.402323	-1.015061	-0.885720
C51	C	-0.456918	-0.960574	-0.856826
C52	C	-0.457189	-0.960721	-0.771202
C53	C	-0.402391	-1.015040	-0.737338
C54	C	-0.426904	-1.089040	-0.765109
C55	C	-0.427265	-1.088736	-0.850767
C56	C	-0.323116	-0.996191	-0.854995
C57	C	-0.323495	-0.994545	-0.769418
C58	C	-0.402428	-1.015033	-0.653479
C59	C	-0.402287	-1.015073	-0.969579
C60	C	-0.402449	-1.014962	-0.118747
C61	C	-0.402254	-1.015081	-0.036428
H62	H	-0.304658	-0.747673	-0.409256
F63	F	-0.518512	-0.425192	-0.194702
H64	H	-0.839648	-1.056797	-0.194410
H65	H	-0.835659	-0.925079	-0.236550
F66	F	-0.533832	-0.977038	-0.743691
H67	H	-0.965754	-0.999107	-0.434677
H68	H	-0.476247	-0.747547	-0.237090
H69	H	-0.960441	-0.899398	-0.335752
F70	F	-0.835121	-1.103481	-0.410535
H71	H	-0.470279	-0.614488	-0.243108
F72	F	-0.511733	-0.273784	-0.201559
F73	F	-0.503075	-1.109641	-0.875947
F74	F	-0.826765	-0.886536	-0.347604
H75	H	-0.968731	-1.090264	-0.401550
F76	F	-0.316489	-0.273923	-0.397443
H77	H	-0.967269	-1.056517	-0.193889
H78	H	-0.389407	-1.130710	-0.869616
F79	F	-0.436631	-0.888998	-0.746941
F80	F	-0.831462	-0.982399	-0.446638
H81	H	-0.441321	-0.905535	-0.879893
F82	F	-0.376755	-1.143531	-0.736061
F83	F	-0.501935	-1.110309	-0.736125
F84	F	-0.533087	-0.976663	-0.884279
H85	H	-0.298691	-0.614601	-0.415268
F86	F	-0.328733	-0.493753	-0.385140
F87	F	-0.294771	-0.926885	-0.886330
F88	F	-0.269896	-1.048063	-0.879158
H89	H	-0.305069	-0.940088	-0.751541
F90	F	-0.267154	-1.042636	-0.739309
H91	H	-0.334706	-0.416146	-0.379166
H92	H	-0.464020	-0.527715	-0.249414
F93	F	-0.977949	-1.140948	-0.265283
H94	H	-0.843536	-1.124382	-0.262046
F95	F	-0.969074	-0.919472	-0.220482
