data_functionalizedCrystal
_audit_creation_method	'MofGen! by Chris Wilmer'
_symmetry_space_group_name_H-M	'P1'
_symmetry_Int_Tables_number	1
_symmetry_cell_setting	triclinic
loop_
_symmetry_equiv_pos_as_xyz
  x,y,z
_cell_length_a	10.654583
_cell_length_b	11.295447
_cell_length_c	10.654550
_cell_angle_alpha	94.565002
_cell_angle_beta	84.491717
_cell_angle_gamma	94.568447
loop_
_atom_site_label
_atom_site_type_symbol
_atom_site_fract_x
_atom_site_fract_y
_atom_site_fract_z
O1	O	-1.675441	-0.099181	-0.184228
O2	O	-1.309965	-0.099149	-0.200988
O3	O	-1.501106	-0.099161	-0.009870
O4	O	-1.484300	-0.099169	-0.375347
O5	O	-1.485865	0.098893	0.005373
O6	O	-1.294724	0.098905	-0.185745
O7	O	-1.660200	0.098873	-0.168985
Cu8	Cu	-1.476070	0.116973	-0.175973
Cu9	Cu	-1.494095	-0.117249	-0.194000
O10	O	-1.469059	0.098885	-0.360104
C11	C	-1.255547	-0.000118	-0.192127
C12	C	-1.116105	-0.000105	-0.188417
N13	N	-1.463402	0.281712	-0.163294
C14	C	-1.492251	-0.000136	0.044550
C15	C	-1.488560	-0.000139	0.183993
C16	C	-1.042268	0.107848	-0.178379
C17	C	-0.911247	0.107834	-0.174905
C18	C	-0.927914	-0.108095	-0.191515
C19	C	-1.058933	-0.108080	-0.194979
C20	C	-1.032643	0.232513	-0.168795
C21	C	-0.901623	0.232500	-0.165322
C22	C	-0.714620	-0.000149	-0.177827
C23	C	-0.854066	-0.000134	-0.181479
C24	C	-1.372231	0.468753	-0.072032
C25	C	-1.381794	0.344087	-0.081610
C26	C	-1.535457	0.344012	-0.235402
C27	C	-1.525894	0.468678	-0.225823
C28	C	-1.444277	0.531044	-0.144137
C29	C	-1.434708	0.655712	-0.134567
C30	C	-1.588377	0.655635	-0.288351
C31	C	-1.597940	0.530969	-0.297929
N32	N	-1.506762	0.718012	-0.206675
C33	C	-1.477914	-0.000143	-0.414523
C34	C	-1.481606	-0.000147	-0.553967
C35	C	-1.601100	-0.000146	0.263465
C36	C	-1.597624	-0.000154	0.394486
C37	C	-1.369057	-0.000144	0.366550
C38	C	-1.372535	-0.000145	0.235532
C39	C	-1.733061	-0.000146	0.279595
C40	C	-1.729585	-0.000154	0.410615
H41	H	-1.119049	-0.195986	-0.203134
F42	F	-0.867057	-0.223003	-0.198486
H43	H	-1.791054	-0.083031	0.243851
F44	F	-1.779367	0.111629	0.241615
F45	F	-1.252757	-0.000163	0.150953
H46	H	-1.776047	-0.085672	0.449672
F47	F	-1.665057	0.721938	-0.365098
H48	H	-1.323126	0.293374	-0.022894
F49	F	-1.088298	0.295088	-0.050541
F50	F	-1.285358	0.535130	0.014892
F51	F	-1.067415	0.283069	-0.284627
H52	H	-0.869058	0.271187	-0.070748
F53	F	-0.836305	0.295054	-0.273948
F54	F	-1.347842	0.722085	-0.047634
F55	F	-1.245583	-0.000153	0.421412
F56	F	-1.622324	0.277618	-0.322319
H57	H	-1.664394	0.480174	-0.364432
H58	H	-1.772928	0.082725	0.458748
