data_functionalizedCrystal
_audit_creation_method	'MofGen! by Chris Wilmer'
_symmetry_space_group_name_H-M	'P1'
_symmetry_Int_Tables_number	1
_symmetry_cell_setting	triclinic
loop_
_symmetry_equiv_pos_as_xyz
  x,y,z
_cell_length_a	11.792241
_cell_length_b	10.723024
_cell_length_c	9.198806
_cell_angle_alpha	90.002012
_cell_angle_beta	89.999745
_cell_angle_gamma	84.330643
loop_
_atom_site_label
_atom_site_type_symbol
_atom_site_fract_x
_atom_site_fract_y
_atom_site_fract_z
O1	O	-1.507283	-0.171036	-0.120747
O2	O	-1.176980	-0.188663	-0.120781
O3	O	-1.349750	0.001747	-0.120758
O4	O	-1.334512	-0.361446	-0.120770
O5	O	-1.349736	0.001747	0.121027
O6	O	-1.176966	-0.188663	0.121004
O7	O	-1.507269	-0.171035	0.121038
Cu8	Cu	-1.342116	-0.179849	0.143098
Cu9	Cu	-1.342133	-0.179850	-0.142841
O10	O	-1.334499	-0.361445	0.121015
C11	C	-1.348634	0.048244	0.000133
C12	C	-1.345317	0.186789	0.000127
C13	C	-1.134680	-0.187556	0.000108
C14	C	-1.008659	-0.184242	0.000095
C15	C	-1.549569	-0.172143	0.000146
C16	C	-1.675590	-0.175457	0.000150
C17	C	-0.777933	-0.178147	0.000137
C18	C	-0.906326	-0.181533	0.000114
C19	C	-1.335614	-0.407942	0.000121
C20	C	-1.338932	-0.546488	0.000117
N21	N	-1.342113	-0.179848	0.344212
C22	C	-1.441990	0.262028	0.000135
C23	C	-1.438563	0.405222	0.000130
N24	N	-1.342145	-0.179841	-0.343955
C25	C	-1.414654	-0.099549	0.416419
C26	C	-1.414672	-0.099544	0.583831
H27	H	-1.527292	0.220431	0.000153
H28	H	-1.476743	-0.030799	0.354301
N29	N	-1.264197	-0.266090	0.422105
N30	N	-1.159229	-0.263938	0.405230
H31	H	-1.104196	-0.324848	0.460238
H32	H	-1.260014	0.228386	0.000109
N33	N	-1.492570	-0.013273	0.661710
N34	N	-1.489827	0.102055	0.644821
H35	H	-1.544844	0.162992	0.699824
N36	N	-1.235089	0.372443	0.000088
N37	N	-1.141423	0.417781	0.000067
H38	H	-1.068082	0.360520	0.000044
N39	N	-1.542380	0.486334	0.000157
N40	N	-1.539450	0.602541	0.000161
H41	H	-1.612774	0.659831	0.000183
N42	N	-1.264243	-0.266112	0.578170
N43	N	-1.301119	-0.343641	0.493208
H44	H	-1.246103	-0.404573	0.438200
