data_functionalizedCrystal
_audit_creation_method	'MofGen! by Chris Wilmer'
_symmetry_space_group_name_H-M	'P1'
_symmetry_Int_Tables_number	1
_symmetry_cell_setting	triclinic
loop_
_symmetry_equiv_pos_as_xyz
  x,y,z
_cell_length_a	13.101039
_cell_length_b	16.109301
_cell_length_c	16.109301
_cell_angle_alpha	96.538519
_cell_angle_beta	93.359902
_cell_angle_gamma	93.353949
loop_
_atom_site_label
_atom_site_type_symbol
_atom_site_fract_x
_atom_site_fract_y
_atom_site_fract_z
O1	O	-0.085153	-1.107703	0.102280
O2	O	0.414847	-0.607703	0.602280
O3	O	-0.085169	-0.865642	0.115579
O4	O	0.414831	-0.365642	0.615579
O5	O	-0.085150	-0.993322	-0.012101
O6	O	0.414850	-0.493322	0.487899
O7	O	-0.085172	-0.980024	0.229960
O8	O	0.414828	-0.480024	0.729960
O9	O	0.085278	-0.984161	-0.002925
O10	O	0.585278	-0.484161	0.497075
O11	O	0.085259	-0.856482	0.124755
O12	O	0.585259	-0.356482	0.624755
O13	O	0.085276	-1.098543	0.111456
O14	O	0.585276	-0.598543	0.611456
Zn15	Zn	0.112327	-0.976058	0.119563
Zn16	Zn	0.612327	-0.476058	0.619563
Zn17	Zn	-0.112220	-0.988127	0.107473
Zn18	Zn	0.387780	-0.488127	0.607473
O19	O	0.085257	-0.970863	0.239136
O20	O	0.585257	-0.470863	0.739136
C21	C	0.000043	-0.830087	0.119628
C22	C	0.500043	-0.330087	0.619628
C23	C	0.000037	-0.737792	0.118013
C24	C	0.500037	-0.237792	0.618013
N25	N	0.265574	-0.967826	0.127813
N26	N	0.765574	-0.467826	0.627813
N27	N	-0.265467	-0.996365	0.099216
N28	N	0.234533	-0.496365	0.599216
C29	C	0.474615	-0.956627	0.139046
C30	C	0.974615	-0.456627	0.639046
C31	C	0.525498	-1.007562	0.087986
C32	C	1.025498	-0.507562	0.587986
C33	C	0.641816	-1.001330	0.094236
C34	C	1.141816	-0.501330	0.594236
C35	C	0.358287	-0.962858	0.132797
C36	C	0.858287	-0.462858	0.632797
C37	C	0.000065	-0.988203	-0.038488
C38	C	0.500065	-0.488203	0.461512
C39	C	0.000066	-0.986588	-0.130783
C40	C	0.500066	-0.486588	0.369217
C41	C	0.000061	-1.134098	0.107407
C42	C	0.500061	-0.634098	0.607407
C43	C	0.000061	-1.226393	0.109022
C44	C	0.500061	-0.726393	0.609022
C45	C	0.000042	-0.515520	0.190021
C46	C	0.500042	-0.015520	0.690021
C47	C	0.000049	-0.428799	0.188497
C48	C	0.500049	0.071201	0.688497
C49	C	0.000058	-0.448673	0.037009
C50	C	0.500058	0.051327	0.537009
C51	C	0.000059	-0.535391	0.038534
C52	C	0.500059	-0.035391	0.538534
C53	C	0.000046	-0.568812	0.115042
C54	C	0.500046	-0.068812	0.615042
C55	C	0.000052	-0.395373	0.111993
C56	C	0.500052	0.104627	0.611993
C57	C	0.000059	-0.301347	0.110340
C58	C	0.500059	0.198653	0.610340
C59	C	0.000040	-0.662845	0.116695
C60	C	0.500040	-0.162845	0.616695
C61	C	0.000055	-1.058596	-0.353056
C62	C	0.500055	-0.558596	0.146944
C63	C	0.000046	-1.057072	-0.439777
C64	C	0.500046	-0.557072	0.060223
C65	C	0.000040	-0.905584	-0.419903
C66	C	0.500040	-0.405584	0.080097
C67	C	0.000041	-0.907109	-0.333184
C68	C	0.500041	-0.407109	0.166816
C69	C	0.000054	-0.983617	-0.299763
C70	C	0.500054	-0.483617	0.200237
C71	C	0.000044	-0.980569	-0.473202
C72	C	0.500044	-0.480569	0.026798
C73	C	0.000035	-0.978916	-0.567229
C74	C	0.500035	-0.478916	-0.067229
C75	C	0.000061	-0.985270	-0.205730
C76	C	0.500061	-0.485270	0.294270
C77	C	0.000040	-0.975982	0.265523
C78	C	0.500040	-0.475982	0.765523
C79	C	0.000032	-0.977598	0.357818
C80	C	0.500032	-0.477598	0.857818
H81	H	0.481703	-1.055848	0.039579
H82	H	0.981703	-0.555848	0.539579
H83	H	0.000075	-0.421450	-0.025281
H84	H	0.500075	0.078550	0.474719
Cl85	Cl	0.000046	-0.361805	0.282761
Cl86	Cl	0.500046	0.138195	0.782761
H87	H	0.000037	-0.846048	-0.289790
H88	H	0.500037	-0.346048	0.210210
H89	H	0.518405	-0.908345	0.187451
H90	H	1.018405	-0.408345	0.687451
H91	H	0.000039	-0.542727	0.252319
H92	H	0.500039	-0.042727	0.752319
Cl93	Cl	0.000045	-1.151336	-0.506771
Cl94	Cl	0.500045	-0.651336	-0.006771
H95	H	0.000065	-0.578785	-0.022527
H96	H	0.500065	-0.078785	0.477473
H97	H	0.000063	-1.120894	-0.325848
H98	H	0.500063	-0.620894	0.174152
Cl99	Cl	0.000024	-0.809408	-0.461924
Cl100	Cl	0.500024	-0.309408	0.038076
