data_functionalizedCrystal
_audit_creation_method	'MofGen! by Chris Wilmer'
_symmetry_space_group_name_H-M	'P1'
_symmetry_Int_Tables_number	1
_symmetry_cell_setting	triclinic
loop_
_symmetry_equiv_pos_as_xyz
  x,y,z
_cell_length_a	16.109301
_cell_length_b	14.519709
_cell_length_c	15.186229
_cell_angle_alpha	89.995307
_cell_angle_beta	89.999006
_cell_angle_gamma	83.570864
loop_
_atom_site_label
_atom_site_type_symbol
_atom_site_fract_x
_atom_site_fract_y
_atom_site_fract_z
O1	O	1.103336	0.118541	-0.073182
O2	O	1.603336	0.618541	0.426818
O3	O	0.861299	0.133293	-0.073195
O4	O	1.361299	0.633293	0.426805
O5	O	0.988735	-0.008335	-0.073180
O6	O	1.488735	0.491665	0.426820
O7	O	0.975900	0.260169	-0.073197
O8	O	1.475900	0.760169	0.426803
O9	O	0.988726	-0.008337	0.073277
O10	O	1.488726	0.491663	0.573277
O11	O	0.861291	0.133291	0.073263
O12	O	1.361291	0.633291	0.573263
O13	O	1.103327	0.118539	0.073275
O14	O	1.603327	0.618539	0.573275
Zn15	Zn	0.982308	0.125915	0.096522
Zn16	Zn	1.482308	0.625915	0.596522
Zn17	Zn	0.982319	0.125917	-0.096442
Zn18	Zn	1.482319	0.625917	0.403558
O19	O	0.975892	0.260167	0.073261
O20	O	1.475892	0.760167	0.573261
C21	C	0.830319	0.132694	0.000032
C22	C	1.330319	0.632694	0.500032
C23	C	0.738021	0.130903	0.000028
C24	C	1.238021	0.630903	0.500028
C25	C	0.429158	0.209085	0.000038
C26	C	0.929158	0.709085	0.500038
C27	C	0.515881	0.210777	0.000033
C28	C	1.015881	0.710777	0.500033
C29	C	0.535463	0.042740	0.000032
C30	C	1.035463	0.542740	0.500032
C31	C	0.448742	0.041049	0.000031
C32	C	0.948742	0.541049	0.500031
C33	C	0.395591	0.124224	0.000038
C34	C	0.895591	0.624224	0.500038
C35	C	0.569036	0.127607	0.000034
C36	C	1.069036	0.627607	0.500034
C37	C	0.663065	0.129441	0.000029
C38	C	1.163065	0.629441	0.500029
C39	C	0.301556	0.122391	0.000042
C40	C	0.801556	0.622391	0.500042
C41	C	0.988132	-0.042695	0.000049
C42	C	1.488132	0.457305	0.500049
C43	C	0.986340	-0.145072	0.000049
C44	C	1.486340	0.354928	0.500049
C45	C	0.979741	-0.519954	0.000026
C46	C	1.479741	-0.019954	0.500026
C47	C	0.981574	-0.415650	0.000033
C48	C	1.481574	0.084350	0.500033
C49	C	0.983040	-0.332516	0.000038
C50	C	1.483040	0.167484	0.500038
C51	C	0.984873	-0.228206	0.000043
C52	C	1.484873	0.271794	0.500043
C53	C	1.134307	0.119138	0.000046
C54	C	1.634307	0.619138	0.500046
C55	C	1.226606	0.120929	0.000045
C56	C	1.726606	0.620929	0.500045
C57	C	0.976494	0.294526	0.000030
C58	C	1.476494	0.794526	0.500030
C59	C	0.978287	0.396904	0.000024
C60	C	1.478287	0.896904	0.500024
N61	N	0.982306	0.125912	0.228215
N62	N	1.482306	0.625912	0.728215
N63	N	0.982327	0.125912	-0.228134
N64	N	1.482327	0.625912	0.271866
C65	C	1.038754	0.063220	0.453944
C66	C	1.538754	0.563220	0.953944
C67	C	1.038756	0.063218	0.546134
C68	C	1.538756	0.563218	1.046134
C69	C	0.925873	0.188607	0.546130
C70	C	1.425873	0.688607	1.046130
C71	C	0.925867	0.188604	0.453942
C72	C	1.425867	0.688604	0.953942
C73	C	0.982312	0.125912	0.407851
C74	C	1.482312	0.625912	0.907851
C75	C	0.982321	0.125913	0.592229
C76	C	1.482321	0.625913	1.092229
C77	C	0.982323	0.125911	0.692185
C78	C	1.482323	0.625911	1.192185
C79	C	0.982309	0.125912	0.307889
C80	C	1.482309	0.625912	0.807889
H81	H	0.385884	0.276812	0.000044
H82	H	0.885884	0.776812	0.500044
Cl83	Cl	1.109712	-0.015599	0.604076
Cl84	Cl	1.609712	0.484401	1.104076
Cl85	Cl	1.109710	-0.015596	0.396006
Cl86	Cl	1.609710	0.484404	0.896006
Cl87	Cl	0.406540	-0.065642	0.000019
Cl88	Cl	0.906540	0.434358	0.500019
Cl89	Cl	0.558075	0.317464	0.000030
Cl90	Cl	1.058075	0.817464	0.500030
Cl91	Cl	0.602287	-0.061817	0.000031
Cl92	Cl	1.102287	0.438183	0.500031
Cl93	Cl	0.854920	0.267420	0.604076
Cl94	Cl	1.354920	0.767420	1.104076
H95	H	0.879902	0.239655	0.416411
H96	H	1.379902	0.739655	0.916411
