data_functionalizedCrystal
_audit_creation_method	'MofGen! by Chris Wilmer'
_symmetry_space_group_name_H-M	'P1'
_symmetry_Int_Tables_number	1
_symmetry_cell_setting	triclinic
loop_
_symmetry_equiv_pos_as_xyz
  x,y,z
_cell_length_a	19.188900
_cell_length_b	14.472311
_cell_length_c	19.188929
_cell_angle_alpha	90.030067
_cell_angle_beta	96.861367
_cell_angle_gamma	89.986501
loop_
_atom_site_label
_atom_site_type_symbol
_atom_site_fract_x
_atom_site_fract_y
_atom_site_fract_z
O1	O	-0.926158	0.077064	0.087071
O2	O	-0.722844	0.077033	0.098827
O3	O	-0.830368	0.076992	-0.008707
O4	O	-0.818634	0.077104	0.194606
O5	O	-0.830359	-0.076690	-0.008717
O6	O	-0.722835	-0.076650	0.098817
O7	O	-0.926149	-0.076618	0.087061
Cu8	Cu	-0.824491	-0.090666	0.092938
Cu9	Cu	-0.824502	0.091081	0.092950
O10	O	-0.818624	-0.076578	0.194595
C11	C	-0.696828	0.000186	0.098445
C12	C	-0.619322	0.000171	0.097313
N13	N	-0.824488	-0.218497	0.092929
C14	C	-0.582936	0.083945	0.096774
C15	C	-0.510112	0.083953	0.095703
C16	C	-0.473679	0.000184	0.095155
C17	C	-0.510074	-0.083600	0.095698
C18	C	-0.582896	-0.083606	0.096776
N19	N	-0.364655	-0.062182	0.053724
N20	N	-0.295478	-0.062170	0.052698
C21	C	-0.254272	0.000198	0.091907
N22	N	-0.284858	0.062569	0.132171
N23	N	-0.354042	0.062560	0.133194
C24	C	-0.394717	0.000182	0.093986
C25	C	-0.138922	0.083987	0.090207
C26	C	-0.066096	0.083992	0.089140
C27	C	-0.066061	-0.083564	0.089128
C28	C	-0.138884	-0.083567	0.090202
C29	C	-0.175310	0.000211	0.090738
C30	C	-0.824495	-0.406997	0.092938
C31	C	-0.882043	-0.446220	0.035417
C32	C	-0.882250	-0.553308	0.035569
C33	C	-0.824503	-0.592588	0.092945
C34	C	-0.839891	-0.553651	0.165837
C35	C	-0.840299	-0.446529	0.165495
C36	C	-0.751386	-0.446510	0.078223
C37	C	-0.751886	-0.553640	0.076571
C38	C	-0.824506	-0.697476	0.092954
C39	C	-0.824494	-0.302109	0.092934
C40	C	0.047836	0.000223	0.087448
C41	C	-0.029668	0.000222	0.088594
C42	C	-0.829984	0.000138	-0.034723
C43	C	-0.828843	0.000100	-0.112228
N44	N	-0.824511	0.218912	0.092954
C45	C	-0.819009	0.000278	0.220611
C46	C	-0.820150	0.000322	0.298116
C47	C	-0.757058	0.000294	0.343046
C48	C	-0.758130	0.000273	0.415870
C49	C	-0.822297	0.000262	0.443760
C50	C	-0.885397	0.000296	0.398819
C51	C	-0.884323	0.000326	0.325997
N52	N	-0.871341	-0.052090	0.551719
N53	N	-0.872357	-0.052120	0.620898
C54	C	-0.825535	0.000174	0.663168
N55	N	-0.777649	0.052488	0.633648
N56	N	-0.776632	0.052515	0.564463
C57	C	-0.823468	0.000231	0.522722
C58	C	-0.763601	0.000125	0.787063
C59	C	-0.764675	0.000110	0.859888
C60	C	-0.891944	0.000123	0.842835
C61	C	-0.890868	0.000147	0.770012
C62	C	-0.826695	0.000144	0.742131
H63	H	-0.612590	0.152163	0.097211
O64	O	-0.736402	-0.587362	0.005544
H65	H	-0.730655	-0.527195	-0.029157
H66	H	-0.704803	0.000299	0.320351
O67	O	-0.958917	0.000157	0.721544
H68	H	-1.003718	0.000135	0.753169
H69	H	-0.935702	0.000350	0.289414
O70	O	-0.026838	0.174347	0.088559
H71	H	-0.000032	0.178309	0.040493
O72	O	-0.470895	-0.174046	0.095192
H73	H	-0.478596	-0.214049	0.143011
H74	H	-0.708567	-0.421142	0.120170
H75	H	-0.612521	-0.151827	0.097215
O76	O	-0.470854	0.174311	0.095108
H77	H	-0.508419	0.232565	0.095655
H78	H	-0.892581	-0.580455	0.179113
O79	O	-0.786859	-0.412120	0.223889
H80	H	-0.800615	-0.437867	0.274981
O81	O	-0.026721	-0.173880	0.088576
H82	H	-0.047019	-0.214138	0.041218
H83	H	-0.168511	-0.151784	0.090636
O84	O	-0.178217	0.174340	0.090798
H85	H	-0.140675	0.232597	0.090257
H86	H	-0.873165	-0.579638	-0.018613
H87	H	-0.873122	-0.420482	-0.018944
H88	H	-0.936000	-0.419267	0.044682
H89	H	-0.713296	0.000093	0.896470
O90	O	-0.690079	0.000230	0.464345
H91	H	-0.645276	0.000225	0.432723
H92	H	-0.707096	-0.580376	0.115749
H93	H	-0.936515	-0.578913	0.044978
H94	H	-0.944190	0.000182	0.865542
O95	O	-0.910905	-0.413389	0.182648
H96	H	-0.944437	-0.473874	0.191106
O97	O	-0.785829	-0.587352	0.223913
H98	H	-0.747330	-0.632321	0.201387
O99	O	-0.731627	-0.410798	0.009311
H100	H	-0.773700	-0.364482	-0.015222
H101	H	-0.937642	0.000304	0.421532
O102	O	-0.694390	0.000136	0.756982
H103	H	-0.650697	0.000129	0.800463
