data_functionalizedCrystal
_audit_creation_method	'MofGen! by Chris Wilmer'
_symmetry_space_group_name_H-M	'P1'
_symmetry_Int_Tables_number	1
_symmetry_cell_setting	triclinic
loop_
_symmetry_equiv_pos_as_xyz
  x,y,z
_cell_length_a	11.169416
_cell_length_b	11.169417
_cell_length_c	11.169409
_cell_angle_alpha	90.019824
_cell_angle_beta	90.030874
_cell_angle_gamma	90.011219
loop_
_atom_site_label
_atom_site_type_symbol
_atom_site_fract_x
_atom_site_fract_y
_atom_site_fract_z
Zn1	Zn	-0.477682	1.834962	0.678555
Zn2	Zn	0.022318	2.334962	1.178555
Zn3	Zn	-0.678422	1.834852	0.477877
Zn4	Zn	-0.178422	2.334852	0.977877
Zn5	Zn	-0.477755	1.634248	0.477889
Zn6	Zn	0.022245	2.134248	0.977889
Zn7	Zn	-0.678325	1.634256	0.678522
Zn8	Zn	-0.178325	2.134256	1.178522
O9	O	-0.578046	1.734579	0.578211
O10	O	-0.078046	2.234579	1.078211
O11	O	-0.504321	2.002897	0.651943
O12	O	-0.004321	2.502897	1.151943
O13	O	-0.651875	1.808192	0.309929
O14	O	-0.151875	2.308192	0.809929
O15	O	-0.309796	1.660917	0.504527
O16	O	0.190204	2.160917	1.004527
O17	O	-0.651804	2.002816	0.504506
O18	O	-0.151804	2.502816	1.004506
O19	O	-0.309742	1.808380	0.651955
O20	O	0.190258	2.308380	1.151955
O21	O	-0.504445	1.660809	0.309938
O22	O	-0.004445	2.160809	0.809938
O23	O	-0.504351	1.466300	0.504495
O24	O	-0.004351	1.966300	1.004495
O25	O	-0.651637	1.660929	0.846476
O26	O	-0.151637	2.160929	1.346476
O27	O	-0.651708	1.466305	0.651899
O28	O	-0.151708	1.966305	1.151899
O29	O	-0.504226	1.808388	0.846500
O30	O	-0.004226	2.308388	1.346500
O31	O	-0.846359	1.808199	0.504474
O32	O	-0.346359	2.308199	1.004474
O33	O	-0.846287	1.660822	0.651887
O34	O	-0.346287	2.160822	1.151887
C35	C	-0.578028	1.422755	0.578195
C36	C	-0.078028	1.922755	1.078195
C37	C	-0.578049	1.289355	0.578217
C38	C	-0.078049	1.789355	1.078217
C39	C	-0.889871	1.734532	0.578202
C40	C	-0.389871	2.234532	1.078202
C41	C	-1.023271	1.734621	0.578238
C42	C	-0.523271	2.234621	1.078238
C43	C	-0.265004	1.734660	0.578246
C44	C	0.234996	2.234660	1.078246
C45	C	-0.131604	1.734694	0.578261
C46	C	0.368396	2.234694	1.078261
C47	C	-0.577913	1.734672	0.891253
C48	C	-0.077913	2.234672	1.391253
C49	C	-0.577856	1.734711	1.024653
C50	C	-0.077856	2.234711	1.524653
C51	C	-0.578065	2.047622	0.578227
C52	C	-0.078065	2.547622	1.078227
C53	C	-0.578073	2.181022	0.578234
C54	C	-0.078073	2.681022	1.078234
C55	C	-0.578092	1.734557	0.266386
C56	C	-0.078092	2.234557	0.766386
C57	C	-0.577811	1.734750	0.132987
C58	C	-0.077811	2.234750	0.632987
