data_functionalizedCrystal
_audit_creation_method	'MofGen! by Chris Wilmer'
_symmetry_space_group_name_H-M	'P1'
_symmetry_Int_Tables_number	1
_symmetry_cell_setting	triclinic
loop_
_symmetry_equiv_pos_as_xyz
  x,y,z
_cell_length_a	19.805407
_cell_length_b	19.077119
_cell_length_c	19.805399
_cell_angle_alpha	87.736954
_cell_angle_beta	90.023391
_cell_angle_gamma	92.333261
loop_
_atom_site_label
_atom_site_type_symbol
_atom_site_fract_x
_atom_site_fract_y
_atom_site_fract_z
Zn1	Zn	-1.023851	0.280233	-0.393628
Zn2	Zn	-0.773851	0.530233	-0.143628
Zn3	Zn	-0.523851	0.780233	0.106372
Zn4	Zn	-0.273851	1.030233	0.356372
Zn5	Zn	-1.019206	0.397935	-0.284972
Zn6	Zn	-0.769206	0.647935	-0.034972
Zn7	Zn	-0.519206	0.897935	0.215028
Zn8	Zn	-0.269206	1.147935	0.465028
Zn9	Zn	-0.910670	0.280253	-0.280440
Zn10	Zn	-0.660670	0.530253	-0.030440
Zn11	Zn	-0.410670	0.780253	0.219560
Zn12	Zn	-0.160670	1.030253	0.469560
Zn13	Zn	-0.906066	0.397892	-0.398104
Zn14	Zn	-0.656066	0.647892	-0.148104
Zn15	Zn	-0.406066	0.897892	0.101896
Zn16	Zn	-0.156066	1.147892	0.351896
O17	O	-0.964948	0.339078	-0.339286
O18	O	-0.714948	0.589078	-0.089286
O19	O	-0.464948	0.839078	0.160714
O20	O	-0.214948	1.089078	0.410714
O21	O	-1.117951	0.295857	-0.379237
O22	O	-0.867951	0.545857	-0.129237
O23	O	-0.617951	0.795857	0.120763
O24	O	-0.367951	1.045857	0.370763
O25	O	-1.004792	0.382350	-0.189655
O26	O	-0.754792	0.632350	0.060345
O27	O	-0.504792	0.882350	0.310345
O28	O	-0.254792	1.132350	0.560345
O29	O	-0.929554	0.181759	-0.291685
O30	O	-0.679554	0.431759	-0.041685
O31	O	-0.429554	0.681759	0.208315
O32	O	-0.179554	0.931759	0.458315
O33	O	-1.114539	0.382332	-0.299408
O34	O	-0.864539	0.632332	-0.049408
O35	O	-0.614539	0.882332	0.200592
O36	O	-0.364539	1.132332	0.450592
O37	O	-1.012707	0.181745	-0.374843
O38	O	-0.762707	0.431745	-0.124843
O39	O	-0.512707	0.681745	0.125157
O40	O	-0.262707	0.931745	0.375157
O41	O	-0.925050	0.295890	-0.186326
O42	O	-0.675050	0.545890	0.063674
O43	O	-0.425050	0.795890	0.313674
O44	O	-0.175050	1.045890	0.563674
O45	O	-0.815343	0.295848	-0.296025
O46	O	-0.565343	0.545848	-0.046025
O47	O	-0.315343	0.795848	0.203975
O48	O	-0.065343	1.045848	0.453975
O49	O	-0.921707	0.382258	-0.492226
O50	O	-0.671707	0.632258	-0.242226
O51	O	-0.421707	0.882258	0.007774
O52	O	-0.171707	1.132258	0.257774
O53	O	-0.811961	0.382277	-0.382473
O54	O	-0.561961	0.632277	-0.132473
O55	O	-0.311961	0.882277	0.117527
O56	O	-0.061961	1.132277	0.367527
O57	O	-1.008243	0.295815	-0.488937
O58	O	-0.758243	0.545815	-0.238937
O59	O	-0.508243	0.795815	0.011063
O60	O	-0.258243	1.045815	0.261063
O61	O	-1.000328	0.496420	-0.303749
O62	O	-0.750328	0.746420	-0.053749
O63	O	-0.500328	0.996420	0.196251
O64	O	-0.250328	1.246420	0.446251
O65	O	-0.917204	0.496389	-0.386866
O66	O	-0.667204	0.746389	-0.136866
O67	O	-0.417204	0.996389	0.113134
O68	O	-0.167204	1.246389	0.363134
C69	C	-0.789093	0.339060	-0.339243
C70	C	-0.539093	0.589060	-0.089243
C71	C	-0.289093	0.839060	0.160757
C72	C	-0.039093	1.089060	0.410757
C73	C	-0.713861	0.339070	-0.339242
C74	C	-0.463861	0.589070	-0.089242
C75	C	-0.213861	0.839070	0.160758
C76	C	0.036139	1.089070	0.410758
C77	C	-0.250323	0.384158	-0.384254
C78	C	-0.000323	0.634158	-0.134254
C79	C	0.249677	0.884158	0.115746
C80	C	0.499677	1.134158	0.365746
C81	C	-0.321011	0.384158	-0.384242
C82	C	-0.071011	0.634158	-0.134242
C83	C	0.178989	0.884158	0.115758
C84	C	0.428989	1.134158	0.365758
C85	C	-0.358098	0.339088	-0.339293
C86	C	-0.108098	0.589088	-0.089293
C87	C	0.141902	0.839088	0.160707
C88	C	0.391902	1.089088	0.410707
C89	C	-0.324493	0.294021	-0.294348
C90	C	-0.074493	0.544021	-0.044348
C91	C	0.175507	0.794021	0.205652
C92	C	0.425507	1.044021	0.455652
C93	C	-0.253805	0.294026	-0.294358
C94	C	-0.003805	0.544026	-0.044358
C95	C	0.246195	0.794026	0.205642
C96	C	0.496195	1.044026	0.455642
C97	C	-0.609567	0.294003	-0.294309
C98	C	-0.359567	0.544003	-0.044309
C99	C	-0.109567	0.794003	0.205691
C100	C	0.140433	1.044003	0.455691
C101	C	-0.680259	0.294001	-0.294305
C102	C	-0.430259	0.544001	-0.044305
C103	C	-0.180259	0.794001	0.205695
C104	C	0.069741	1.044001	0.455695
C105	C	-0.676773	0.384135	-0.384194
C106	C	-0.426773	0.634135	-0.134194
C107	C	-0.176773	0.884135	0.115806
C108	C	0.073227	1.134135	0.365806
C109	C	-0.606085	0.384140	-0.384203
C110	C	-0.356085	0.634140	-0.134203
C111	C	-0.106085	0.884140	0.115797
C112	C	0.143915	1.134140	0.365797
C113	C	-0.572486	0.339076	-0.339256
C114	C	-0.322486	0.589076	-0.089256
C115	C	-0.072486	0.839076	0.160744
C116	C	0.177514	1.089076	0.410744
C117	C	-0.495837	0.339077	-0.339269
C118	C	-0.245837	0.589077	-0.089269
C119	C	0.004163	0.839077	0.160731
C120	C	0.254163	1.089077	0.410731
C121	C	-0.434745	0.339082	-0.339283
C122	C	-0.184745	0.589082	-0.089283
C123	C	0.065255	0.839082	0.160717
C124	C	0.315255	1.089082	0.410717
C125	C	-0.957781	0.521942	-0.346300
C126	C	-0.707781	0.771942	-0.096300
C127	C	-0.457781	1.021942	0.153700
C128	C	-0.207781	1.271942	0.403700
C129	C	-0.954776	0.600172	-0.349323
C130	C	-0.704776	0.850172	-0.099323
C131	C	-0.454776	1.100172	0.150677
C132	C	-0.204776	1.350172	0.400677
C133	C	-0.964980	0.339030	-0.515827
C134	C	-0.714980	0.589030	-0.265827
C135	C	-0.464980	0.839030	-0.015827
C136	C	-0.214980	1.089030	0.234173
C137	C	-0.964993	0.339009	-0.591058
C138	C	-0.714993	0.589009	-0.341058
C139	C	-0.464993	0.839009	-0.091058
C140	C	-0.214993	1.089009	0.158942
C141	C	-0.141490	0.339094	-0.339321
C142	C	0.108510	0.589094	-0.089321
C143	C	0.358510	0.839094	0.160679
C144	C	0.608510	1.089094	0.410679
C145	C	-0.216722	0.339093	-0.339314
C146	C	0.033278	0.589093	-0.089314
C147	C	0.283278	0.839093	0.160686
C148	C	0.533278	1.089093	0.410686
C149	C	-0.933238	1.040524	-0.371037
C150	C	-0.683238	1.290524	-0.121037
C151	C	-0.433238	1.540524	0.128963
C152	C	-0.183238	1.790524	0.378963
C153	C	-0.936060	0.967019	-0.368189
C154	C	-0.686060	1.217019	-0.118189
C155	C	-0.436060	1.467019	0.131811
C156	C	-0.186060	1.717019	0.381811
C157	C	-0.980782	0.930262	-0.323521
C158	C	-0.730782	1.180262	-0.073521
C159	C	-0.480782	1.430262	0.176479
C160	C	-0.230782	1.680262	0.426479
C161	C	-1.022689	0.967013	-0.281703
C162	C	-0.772689	1.217013	-0.031703
C163	C	-0.522689	1.467013	0.218297
C164	C	-0.272689	1.717013	0.468297
C165	C	-1.019869	1.040517	-0.284555
C166	C	-0.769869	1.290517	-0.034555
C167	C	-0.519869	1.540517	0.215445
C168	C	-0.269869	1.790517	0.465445
C169	C	-0.993863	0.710428	-0.310357
C170	C	-0.743863	0.960428	-0.060357
C171	C	-0.493863	1.210428	0.189643
C172	C	-0.243863	1.460428	0.439643
C173	C	-0.996678	0.636919	-0.307507
C174	C	-0.746678	0.886919	-0.057507
C175	C	-0.496678	1.136919	0.192493
C176	C	-0.246678	1.386919	0.442493
C177	C	-0.910051	0.636929	-0.393994
C178	C	-0.660051	0.886929	-0.143994
C179	C	-0.410051	1.136929	0.106006
C180	C	-0.160051	1.386929	0.356006
C181	C	-0.907232	0.710434	-0.396839
C182	C	-0.657232	0.960434	-0.146839
C183	C	-0.407232	1.210434	0.103161
C184	C	-0.157232	1.460434	0.353161
C185	C	-0.949141	0.747180	-0.355024
C186	C	-0.699141	0.997180	-0.105024
C187	C	-0.449141	1.247180	0.144976
C188	C	-0.199141	1.497180	0.394976
N189	N	-0.983667	0.855127	-0.320607
N190	N	-0.733667	1.105127	-0.070607
N191	N	-0.483667	1.355127	0.179393
N192	N	-0.233667	1.605127	0.429393
N193	N	-0.946259	0.822313	-0.357942
N194	N	-0.696259	1.072313	-0.107942
N195	N	-0.446259	1.322313	0.142058
N196	N	-0.196259	1.572313	0.392058
C197	C	-0.972138	1.155501	-0.332248
C198	C	-0.722138	1.405501	-0.082248
C199	C	-0.472138	1.655501	0.167752
C200	C	-0.222138	1.905501	0.417752
C201	C	-0.975140	1.077271	-0.329221
C202	C	-0.725140	1.327271	-0.079221
C203	C	-0.475140	1.577271	0.170779
C204	C	-0.225140	1.827271	0.420779
C205	C	-0.923484	0.293984	-0.624668
C206	C	-0.673484	0.543984	-0.374668
C207	C	-0.423484	0.793984	-0.124668
C208	C	-0.173484	1.043984	0.125332
C209	C	-0.923494	0.293971	-0.695356
C210	C	-0.673494	0.543971	-0.445356
C211	C	-0.423494	0.793971	-0.195356
C212	C	-0.173494	1.043971	0.054644
C213	C	-0.965017	0.338978	-0.732433
C214	C	-0.715017	0.588978	-0.482433
C215	C	-0.465017	0.838978	-0.232433
C216	C	-0.215017	1.088978	0.017567
C217	C	-1.006528	0.384008	-0.698818
C218	C	-0.756528	0.634008	-0.448818
C219	C	-0.506528	0.884008	-0.198818
C220	C	-0.256528	1.134008	0.051182
C221	C	-1.006514	0.384024	-0.628131
C222	C	-0.756514	0.634024	-0.378131
C223	C	-0.506514	0.884024	-0.128131
C224	C	-0.256514	1.134024	0.121869
C225	C	-1.006584	0.383942	-0.983889
C226	C	-0.756584	0.633942	-0.733889
C227	C	-0.506584	0.883942	-0.483889
C228	C	-0.256584	1.133942	-0.233889
C229	C	-1.006596	0.383920	-1.054580
C230	C	-0.756596	0.633920	-0.804580
C231	C	-0.506596	0.883920	-0.554580
C232	C	-0.256596	1.133920	-0.304580
C233	C	-0.923564	0.293888	-1.051113
C234	C	-0.673564	0.543888	-0.801113
C235	C	-0.423564	0.793888	-0.551113
C236	C	-0.173564	1.043888	-0.301113
C237	C	-0.923550	0.293905	-0.980427
C238	C	-0.673550	0.543905	-0.730427
C239	C	-0.423550	0.793905	-0.480427
C240	C	-0.173550	1.043905	-0.230427
C241	C	-0.965058	0.338936	-0.946818
C242	C	-0.715058	0.588936	-0.696818
C243	C	-0.465058	0.838936	-0.446818
C244	C	-0.215058	1.088936	-0.196818
C245	C	-0.965046	0.338952	-0.870171
C246	C	-0.715046	0.588952	-0.620171
C247	C	-0.465046	0.838952	-0.370171
C248	C	-0.215046	1.088952	-0.120171
C249	C	-0.965033	0.338960	-0.809079
C250	C	-0.715033	0.588960	-0.559079
C251	C	-0.465033	0.838960	-0.309079
C252	C	-0.215033	1.088960	-0.059079
C253	C	-0.964958	0.339076	-0.163430
C254	C	-0.714958	0.589076	0.086570
C255	C	-0.464958	0.839076	0.336570
C256	C	-0.214958	1.089076	0.586570
C257	C	-0.965083	0.338899	-0.088191
C258	C	-0.715083	0.588899	0.161809
C259	C	-0.465083	0.838899	0.411809
C260	C	-0.215083	1.088899	0.661809
H261	H	-0.582219	0.257312	-0.257709
H262	H	-0.332219	0.507312	-0.007709
H263	H	-0.082219	0.757312	0.242291
H264	H	0.167781	1.007312	0.492291
H265	H	-0.354694	0.257328	-0.257747
H266	H	-0.104694	0.507328	-0.007747
H267	H	0.145306	0.757328	0.242253
H268	H	0.395306	1.007328	0.492253
H269	H	-0.226449	0.257327	-0.257765
H270	H	0.023551	0.507327	-0.007765
H271	H	0.273551	0.757327	0.242235
H272	H	0.523551	1.007327	0.492235
Cl273	Cl	-1.046548	0.756613	-0.257788
Cl274	Cl	-0.796548	1.006613	-0.007788
Cl275	Cl	-0.546548	1.256613	0.242212
Cl276	Cl	-0.296548	1.506613	0.492212
Cl277	Cl	-1.058695	0.440632	-0.585879
Cl278	Cl	-0.808695	0.690632	-0.335879
Cl279	Cl	-0.558695	0.940632	-0.085879
Cl280	Cl	-0.308695	1.190632	0.164121
Cl281	Cl	-0.877008	1.086726	-0.427189
Cl282	Cl	-0.627008	1.336726	-0.177189
Cl283	Cl	-0.377008	1.586726	0.072811
Cl284	Cl	-0.127008	1.836726	0.322811
H285	H	-0.889765	0.257223	-1.078486
H286	H	-0.639765	0.507223	-0.828486
H287	H	-0.389765	0.757223	-0.578486
H288	H	-0.139765	1.007223	-0.328486
H289	H	-0.575892	0.420838	-0.420807
H290	H	-0.325892	0.670838	-0.170807
H291	H	-0.075892	0.920838	0.079193
H292	H	0.174108	1.170838	0.329193
H293	H	-1.059106	0.937082	-0.245336
H294	H	-0.809106	1.187082	0.004664
H295	H	-0.559106	1.437082	0.254664
H296	H	-0.309106	1.687082	0.504664
H297	H	-0.220132	0.420855	-0.420860
H298	H	0.029868	0.670855	-0.170860
H299	H	0.279868	0.920855	0.079140
H300	H	0.529868	1.170855	0.329140
Cl301	Cl	-1.052896	0.590711	-0.251340
Cl302	Cl	-0.802896	0.840711	-0.001340
Cl303	Cl	-0.552896	1.090711	0.248660
Cl304	Cl	-0.302896	1.340711	0.498660
Cl305	Cl	-0.851017	0.756638	-0.453005
Cl306	Cl	-0.601017	1.006638	-0.203005
Cl307	Cl	-0.351017	1.256638	0.046995
Cl308	Cl	-0.101017	1.506638	0.296995
H309	H	-1.040410	0.420573	-1.084766
H310	H	-0.790410	0.670573	-0.834766
H311	H	-0.540410	0.920573	-0.584766
H312	H	-0.290410	1.170573	-0.334766
H313	H	-0.889741	0.257253	-0.950242
H314	H	-0.639741	0.507253	-0.700242
H315	H	-0.389741	0.757253	-0.450242
H316	H	-0.139741	1.007253	-0.200242
H317	H	-0.901941	0.937100	-0.402239
H318	H	-0.651941	1.187100	-0.152239
H319	H	-0.401941	1.437100	0.097761
H320	H	-0.151941	1.687100	0.347761
Cl321	Cl	-0.857373	0.590731	-0.446562
Cl322	Cl	-0.607373	0.840731	-0.196562
Cl323	Cl	-0.357373	1.090731	0.053438
Cl324	Cl	-0.107373	1.340731	0.303438
Cl325	Cl	-0.363249	0.440816	-0.440739
Cl326	Cl	-0.113249	0.690816	-0.190739
Cl327	Cl	0.136751	0.940816	0.059261
Cl328	Cl	0.386751	1.190816	0.309261
H329	H	-1.053992	1.070436	-0.250506
H330	H	-0.803992	1.320436	-0.000506
H331	H	-0.553992	1.570436	0.249494
H332	H	-0.303992	1.820436	0.499494
H333	H	-0.889676	0.257330	-0.594485
H334	H	-0.639676	0.507330	-0.344485
H335	H	-0.389676	0.757330	-0.094485
H336	H	-0.139676	1.007330	0.155515
H337	H	-0.889691	0.257310	-0.722718
H338	H	-0.639691	0.507310	-0.472718
H339	H	-0.389691	0.757310	-0.222718
H340	H	-0.139691	1.007310	0.027282
H341	H	-1.040374	0.420617	-0.956534
H342	H	-0.790374	0.670617	-0.706534
H343	H	-0.540374	0.920617	-0.456534
H344	H	-0.290374	1.170617	-0.206534
H345	H	-0.704137	0.420831	-0.420790
H346	H	-0.454137	0.670831	-0.170790
H347	H	-0.204137	0.920831	0.079210
H348	H	0.045863	1.170831	0.329210
Cl349	Cl	-0.726882	0.237338	-0.237793
Cl350	Cl	-0.476882	0.487338	0.012207
Cl351	Cl	-0.226882	0.737338	0.262207
Cl352	Cl	0.023118	0.987338	0.512207
Cl353	Cl	-1.058724	0.440593	-0.745429
Cl354	Cl	-0.808724	0.690593	-0.495429
Cl355	Cl	-0.558724	0.940593	-0.245429
Cl356	Cl	-0.308724	1.190593	0.004571
