data_functionalizedCrystal
_audit_creation_method	'MofGen! by Chris Wilmer'
_symmetry_space_group_name_H-M	'P1'
_symmetry_Int_Tables_number	1
_symmetry_cell_setting	triclinic
loop_
_symmetry_equiv_pos_as_xyz
  x,y,z
_cell_length_a	19.077269
_cell_length_b	10.685194
_cell_length_c	19.076919
_cell_angle_alpha	87.724484
_cell_angle_beta	94.669058
_cell_angle_gamma	92.258685
loop_
_atom_site_label
_atom_site_type_symbol
_atom_site_fract_x
_atom_site_fract_y
_atom_site_fract_z
Zn1	Zn	1.037055	-0.600926	-0.330568
Zn2	Zn	1.033453	-0.802615	-0.204396
Zn3	Zn	0.924574	-0.584760	-0.218100
Zn4	Zn	0.910887	-0.802552	-0.326982
O5	O	0.976492	-0.697713	-0.270012
O6	O	1.134946	-0.634472	-0.309597
O7	O	1.023231	-0.766977	-0.107844
O8	O	0.946730	-0.411349	-0.240255
O9	O	1.132299	-0.782653	-0.216899
O10	O	1.029370	-0.423226	-0.322885
O11	O	0.943238	-0.606920	-0.117912
O12	O	0.824390	-0.606858	-0.236778
O13	O	0.923403	-0.782545	-0.425828
O14	O	0.814334	-0.766870	-0.316773
O15	O	1.016098	-0.634411	-0.428463
O16	O	1.009959	-0.978162	-0.213422
O17	O	0.919910	-0.978115	-0.303485
C18	C	0.793856	-0.685104	-0.277873
C19	C	0.715722	-0.679741	-0.281252
C20	C	0.963077	-1.023660	-0.256592
C21	C	0.957401	-1.163108	-0.250871
C22	C	0.677642	-0.754236	-0.234515
C23	C	0.604226	-0.749198	-0.237699
C24	C	0.568892	-0.669657	-0.287617
C25	C	0.606977	-0.595160	-0.334359
C26	C	0.680391	-0.600205	-0.331178
C27	C	0.349473	-0.646315	-0.302317
C28	C	0.276054	-0.641272	-0.305493
C29	C	0.273308	-0.795313	-0.208834
C30	C	0.346724	-0.800346	-0.205654
C31	C	0.384802	-0.725853	-0.252398
N32	N	0.493849	-0.664503	-0.290872
N33	N	0.459843	-0.731015	-0.249147
C34	C	1.159841	-0.710373	-0.262119
C35	C	1.237974	-0.715767	-0.258756
C36	C	0.968625	-0.710274	-0.453365
C37	C	0.965273	-0.715627	-0.531499
C38	C	0.989979	-0.370496	-0.283498
C39	C	0.995726	-0.231055	-0.289246
C40	C	1.011957	-0.641020	-0.569580
C41	C	1.008798	-0.646044	-0.642996
C42	C	0.958959	-0.725683	-0.678330
C43	C	0.912270	-0.800293	-0.640244
C44	C	0.915425	-0.795261	-0.566830
C45	C	0.944343	-0.748995	-0.897748
C46	C	0.941192	-0.754024	-0.971168
C47	C	1.037720	-0.599772	-0.973914
C48	C	1.040874	-0.594753	-0.900498
C49	C	0.994183	-0.669359	-0.862419
N50	N	0.955731	-0.730823	-0.753373
N51	N	0.997408	-0.664211	-0.787378
C52	C	0.984373	-0.685113	-0.087373
C53	C	0.987876	-0.679416	-0.009248
H54	H	0.706406	-0.819002	-0.193864
H55	H	1.075733	-0.539031	-1.004926
O56	O	1.054165	-0.573749	-0.680061
C57	C	1.094806	-0.651210	-0.717627
H58	H	1.065627	-0.745328	-0.725768
H59	H	1.104102	-0.604294	-0.770956
H60	H	1.147553	-0.666645	-0.686536
O61	O	0.913023	-1.221114	-0.206546
C62	C	0.862807	-1.296534	-0.245414
H63	H	0.884487	-1.321329	-0.296853
H64	H	0.850922	-1.386158	-0.213438
H65	H	0.812407	-1.243105	-0.257380
H66	H	0.380468	-0.585659	-0.340380
H67	H	1.052544	-0.576173	-0.540816
O68	O	0.717489	-0.527961	-0.376544
C69	C	0.789864	-0.549449	-0.363023
H70	H	0.796896	-0.645306	-0.335493
H71	H	0.815865	-0.546616	-0.414821
H72	H	0.815356	-0.473802	-0.327824
H73	H	0.877404	-0.856002	-0.535826
H74	H	1.032880	-1.182548	-0.326479
O75	O	1.089309	-0.517278	-0.866290
C76	C	1.129850	-0.452526	-0.915643
H77	H	1.098988	-0.449777	-0.969392
H78	H	1.142335	-0.352749	-0.898182
H79	H	1.181007	-0.502690	-0.919263
O80	O	0.892804	-0.831552	-1.005410
C81	C	0.903784	-0.956427	-0.981673
H82	H	0.932982	-0.957254	-0.927097
H83	H	0.850838	-1.008996	-0.979034
H84	H	0.936411	-1.004008	-1.019693
O85	O	0.567345	-0.821599	-0.192223
C86	C	0.614273	-0.892899	-0.147490
H87	H	0.668820	-0.844937	-0.144955
H88	H	0.594879	-0.900864	-0.092466
H89	H	0.617068	-0.990549	-0.168874
O90	O	0.899086	-0.821536	-0.860688
C91	C	0.937579	-0.902451	-0.813171
H92	H	0.993146	-0.861136	-0.801691
H93	H	0.910459	-0.913758	-0.762091
H94	H	0.940259	-0.997886	-0.837305
O95	O	0.863886	-0.877825	-0.674480
C96	C	0.874876	-1.002694	-0.650737
H97	H	0.904081	-1.003506	-0.596164
H98	H	0.821934	-1.055271	-0.648088
H99	H	0.907500	-1.050276	-0.688759
O100	O	0.241710	-0.563861	-0.353896
C101	C	0.204273	-0.477080	-0.319131
H102	H	0.229084	-0.466898	-0.263142
H103	H	0.206319	-0.382298	-0.348656
H104	H	0.147143	-0.511867	-0.317483
H105	H	0.375488	-0.865115	-0.165005
H106	H	0.578202	-0.530402	-0.375006
O107	O	0.236276	-0.867818	-0.163530
C108	C	0.188760	-0.948754	-0.201979
H109	H	0.208200	-0.961965	-0.256053
H110	H	0.185048	-1.043426	-0.172532
H111	H	0.134610	-0.906319	-0.208442
