data_functionalizedCrystal
_audit_creation_method	'MofGen! by Chris Wilmer'
_symmetry_space_group_name_H-M	'P1'
_symmetry_Int_Tables_number	1
_symmetry_cell_setting	triclinic
loop_
_symmetry_equiv_pos_as_xyz
  x,y,z
_cell_length_a	14.908571
_cell_length_b	19.121063
_cell_length_c	14.908294
_cell_angle_alpha	95.554706
_cell_angle_beta	90.175425
_cell_angle_gamma	89.303906
loop_
_atom_site_label
_atom_site_type_symbol
_atom_site_fract_x
_atom_site_fract_y
_atom_site_fract_z
Zn1	Zn	1.324068	-0.366418	-0.606394
Zn2	Zn	1.657401	-0.033084	-0.273060
Zn3	Zn	1.990735	0.300249	0.060273
Zn4	Zn	1.326217	-0.477476	-0.461735
Zn5	Zn	1.659550	-0.144142	-0.128402
Zn6	Zn	1.992883	0.189191	0.204931
Zn7	Zn	1.183166	-0.352931	-0.446699
Zn8	Zn	1.516499	-0.019598	-0.113366
Zn9	Zn	1.849832	0.313735	0.219968
Zn10	Zn	1.167292	-0.476642	-0.603344
Zn11	Zn	1.500625	-0.143308	-0.270011
Zn12	Zn	1.833958	0.190025	0.063322
O13	O	1.250186	-0.418367	-0.529543
O14	O	1.583519	-0.085033	-0.196210
O15	O	1.916852	0.248300	0.137124
O16	O	1.449832	-0.387143	-0.594773
O17	O	1.783165	-0.053810	-0.261440
O18	O	2.116499	0.279524	0.071893
O19	O	1.314783	-0.455660	-0.333644
O20	O	1.648116	-0.122326	-0.000311
O21	O	1.981450	0.211007	0.333023
O22	O	1.207601	-0.256469	-0.462866
O23	O	1.540934	0.076864	-0.129533
O24	O	1.874267	0.410198	0.203800
O25	O	1.451410	-0.468737	-0.488494
O26	O	1.784744	-0.135403	-0.155160
O27	O	2.118077	0.197930	0.178173
O28	O	1.311121	-0.266377	-0.580193
O29	O	1.644454	0.066956	-0.246860
O30	O	1.977788	0.400289	0.086473
O31	O	1.209684	-0.364157	-0.322597
O32	O	1.543017	-0.030824	0.010736
O33	O	1.876351	0.302509	0.344070
O34	O	1.055581	-0.363349	-0.459909
O35	O	1.388914	-0.030015	-0.126576
O36	O	1.722248	0.303318	0.206757
O37	O	1.180546	-0.467315	-0.729845
O38	O	1.513879	-0.133982	-0.396512
O39	O	1.847213	0.199351	-0.063179
O40	O	1.043919	-0.454238	-0.574996
O41	O	1.377252	-0.120905	-0.241663
O42	O	1.710585	0.212429	0.091671
O43	O	1.295729	-0.386334	-0.732086
O44	O	1.629062	-0.053001	-0.398752
O45	O	1.962396	0.280332	-0.065419
O46	O	1.299391	-0.575617	-0.485537
O47	O	1.632724	-0.242283	-0.152203
O48	O	1.966058	0.091050	0.181130
O49	O	1.182630	-0.575004	-0.589576
O50	O	1.515963	-0.241670	-0.256243
O51	O	1.849296	0.091663	0.077091
C52	C	1.017215	-0.407240	-0.515491
C53	C	1.350548	-0.073907	-0.182157
C54	C	1.683881	0.259427	0.151176
C55	C	0.917546	-0.402498	-0.509501
C56	C	1.250880	-0.069164	-0.176168
C57	C	1.584213	0.264169	0.157165
C58	C	0.718165	-0.488363	-0.617939
C59	C	1.051498	-0.155029	-0.284605
C60	C	1.384831	0.178304	0.048728
C61	C	0.624517	-0.483909	-0.612314
C62	C	0.957850	-0.150576	-0.278981
C63	C	1.291184	0.182757	0.054352
C64	C	0.636602	-0.389135	-0.492633
C65	C	0.969935	-0.055801	-0.159300
C66	C	1.303268	0.277532	0.174033
C67	C	0.730249	-0.393588	-0.498258
C68	C	1.063583	-0.060255	-0.164924
C69	C	1.396916	0.273079	0.168409
C70	C	0.771027	-0.443204	-0.560911
C71	C	1.104361	-0.109871	-0.227578
C72	C	1.437694	0.223462	0.105755
C73	C	0.864677	-0.447661	-0.566531
C74	C	1.198010	-0.114327	-0.233197
C75	C	1.531343	0.219006	0.100136
C76	C	0.876759	-0.352883	-0.446855
C77	C	1.210093	-0.019550	-0.113522
C78	C	1.543426	0.313783	0.219812
C79	C	0.783112	-0.348430	-0.441231
C80	C	1.116445	-0.015097	-0.107897
C81	C	1.449779	0.318237	0.225436
C82	C	1.239544	-0.600788	-0.538878
C83	C	1.572877	-0.267454	-0.205545
C84	C	1.906211	0.065879	0.127788
C85	C	1.235072	-0.678833	-0.542907
C86	C	1.568405	-0.345500	-0.209574
C87	C	1.901738	-0.012167	0.123760
C88	C	1.293804	-0.715799	-0.490682
C89	C	1.627137	-0.382466	-0.157349
C90	C	1.960470	-0.049132	0.175984
C91	C	1.289603	-0.789132	-0.494477
C92	C	1.622936	-0.455798	-0.161144
C93	C	1.956269	-0.122465	0.172190
C94	C	1.226665	-0.825497	-0.550492
C95	C	1.559998	-0.492163	-0.217159
C96	C	1.893331	-0.158830	0.116175
C97	C	1.167930	-0.788526	-0.602723
C98	C	1.501263	-0.455193	-0.269389
C99	C	1.834597	-0.121859	0.063944
C100	C	1.172136	-0.715195	-0.598932
C101	C	1.505469	-0.381862	-0.265599
C102	C	1.838803	-0.048528	0.067734
C103	C	1.210926	-1.046894	-0.564648
C104	C	1.544259	-0.713561	-0.231315
C105	C	1.877592	-0.380227	0.102018
C106	C	1.206722	-1.120230	-0.568433
C107	C	1.540055	-0.786897	-0.235099
C108	C	1.873389	-0.453563	0.098234
C109	C	1.328397	-1.120831	-0.460188
C110	C	1.661730	-0.787497	-0.126855
C111	C	1.995063	-0.454164	0.206479
C112	C	1.332593	-1.047498	-0.456398
C113	C	1.665927	-0.714165	-0.123065
C114	C	1.999260	-0.380831	0.210268
C115	C	1.273862	-1.010534	-0.508632
C116	C	1.607195	-0.677201	-0.175299
C117	C	1.940529	-0.343867	0.158034
C118	C	1.222367	-0.900454	-0.554370
C119	C	1.555700	-0.567121	-0.221037
C120	C	1.889034	-0.233788	0.112297
C121	C	1.278164	-0.935578	-0.504759
C122	C	1.611498	-0.602245	-0.171425
C123	C	1.944831	-0.268911	0.161908
C124	C	1.484066	-0.429537	-0.543651
C125	C	1.817399	-0.096204	-0.210318
C126	C	2.150733	0.237129	0.123016
C127	C	1.583732	-0.434298	-0.549663
C128	C	1.917065	-0.100964	-0.216329
C129	C	2.250399	0.232369	0.117004
C130	C	1.236127	-0.428236	-0.764575
C131	C	1.569461	-0.094903	-0.431242
C132	C	1.902794	0.238431	-0.097909
C133	C	1.230136	-0.432442	-0.864732
C134	C	1.563470	-0.099109	-0.531399
C135	C	1.896803	0.234225	-0.198065
C136	C	1.260892	-0.235235	-0.520193
C137	C	1.594225	0.098098	-0.186859
C138	C	1.927558	0.431431	0.146474
C139	C	1.265454	-0.157196	-0.516208
C140	C	1.598788	0.176138	-0.182875
C141	C	1.932121	0.509471	0.150459
C142	C	1.161726	-0.480524	-1.004733
C143	C	1.495059	-0.147190	-0.671399
C144	C	1.828392	0.186143	-0.338066
C145	C	1.167353	-0.476577	-0.910627
C146	C	1.500686	-0.143244	-0.577293
C147	C	1.834019	0.190090	-0.243960
C148	C	1.287296	-0.392249	-0.912950
C149	C	1.620629	-0.058915	-0.579616
C150	C	1.953962	0.274418	-0.246283
C151	C	1.281669	-0.396195	-1.007056
C152	C	1.615002	-0.062862	-0.673722
C153	C	1.948335	0.270471	-0.340389
C154	C	1.218882	-0.440335	-1.052944
C155	C	1.552216	-0.107002	-0.719611
C156	C	1.885549	0.226331	-0.386277
C157	C	1.213260	-0.444285	-1.147052
C158	C	1.546594	-0.110952	-0.813719
C159	C	1.879927	0.222381	-0.480386
C160	C	1.333198	-0.359954	-1.149373
C161	C	1.666532	-0.026620	-0.816040
C162	C	1.999865	0.306713	-0.482706
C163	C	1.338825	-0.356007	-1.055267
C164	C	1.672159	-0.022674	-0.721934
C165	C	2.005492	0.310660	-0.388600
C166	C	1.264244	-0.408487	-0.295426
C167	C	1.597577	-0.075154	0.037908
C168	C	1.930910	0.258179	0.371241
C169	C	1.270420	-0.404092	-0.195270
C170	C	1.603753	-0.070759	0.138063
C171	C	1.937086	0.262575	0.471397
H172	H	0.749897	-0.308032	-0.390222
H173	H	1.083231	0.025301	-0.056889
H174	H	1.416564	0.358635	0.276445
H175	H	0.919811	-0.316113	-0.400417
H176	H	1.253144	0.017220	-0.067084
H177	H	1.586477	0.350553	0.266250
H178	H	1.379741	-0.327230	-1.188637
H179	H	1.713075	0.006103	-0.855303
H180	H	2.046408	0.339436	-0.521970
H181	H	1.345051	-0.686195	-0.445065
H182	H	1.678384	-0.352862	-0.111731
H183	H	2.011718	-0.019529	0.221602
H184	H	0.897876	-0.488062	-0.617545
H185	H	1.231210	-0.154729	-0.284212
H186	H	1.564543	0.178605	0.049121
Cl187	Cl	1.357287	-0.889861	-0.434346
Cl188	Cl	1.690620	-0.556528	-0.101013
Cl189	Cl	2.023954	-0.223195	0.232321
H190	H	1.155480	-1.149837	-0.614063
H191	H	1.488813	-0.816504	-0.280730
H192	H	1.822147	-0.483171	0.052603
H193	H	1.163102	-1.016803	-0.607178
H194	H	1.496436	-0.683470	-0.273844
H195	H	1.829769	-0.350137	0.059489
Cl196	Cl	1.088812	-0.834243	-0.673148
Cl197	Cl	1.422145	-0.500909	-0.339814
Cl198	Cl	1.755479	-0.167576	-0.006481
H199	H	1.162139	-0.480228	-1.184413
H200	H	1.495472	-0.146894	-0.851080
H201	H	1.828805	0.186439	-0.517747
H202	H	1.338408	-0.356309	-0.875571
H203	H	1.671742	-0.022975	-0.542237
H204	H	2.005075	0.310358	-0.208904
Cl205	Cl	1.098301	-0.668724	-0.664592
Cl206	Cl	1.431634	-0.335390	-0.331259
Cl207	Cl	1.764968	-0.002057	0.002074
H208	H	1.389942	-0.320068	-1.017892
H209	H	1.723275	0.013265	-0.684558
H210	H	2.056608	0.346599	-0.351225
Cl211	Cl	1.082804	-0.536018	-1.062425
Cl212	Cl	1.416137	-0.202684	-0.729092
Cl213	Cl	1.749471	0.130649	-0.395758
Cl214	Cl	1.363444	-0.835600	-0.428823
Cl215	Cl	1.696777	-0.502267	-0.095489
Cl216	Cl	2.030110	-0.168934	0.237844
H217	H	1.171121	-0.930071	-0.599976
H218	H	1.504454	-0.596737	-0.266642
H219	H	1.837788	-0.263404	0.066691
H220	H	0.751367	-0.528766	-0.668949
H221	H	1.084700	-0.195432	-0.335616
H222	H	1.418033	0.137901	-0.002282
H223	H	1.383843	-1.017891	-0.410787
H224	H	1.717176	-0.684558	-0.077453
H225	H	2.050509	-0.351225	0.255880
H226	H	0.581479	-0.520680	-0.658753
H227	H	0.914813	-0.187347	-0.325420
H228	H	1.248146	0.145986	0.007913
Cl229	Cl	0.585322	-0.326755	-0.413889
Cl230	Cl	0.918655	0.006578	-0.080555
Cl231	Cl	1.251989	0.339911	0.252778
Cl232	Cl	1.402231	-1.167305	-0.394533
Cl233	Cl	1.735564	-0.833971	-0.061199
Cl234	Cl	2.068898	-0.500638	0.272134
Cl235	Cl	1.095493	-0.527100	-0.850021
Cl236	Cl	1.428827	-0.193767	-0.516687
Cl237	Cl	1.762160	0.139566	-0.183354
