data_functionalizedCrystal
_audit_creation_method	'MofGen! by Chris Wilmer'
_symmetry_space_group_name_H-M	'P1'
_symmetry_Int_Tables_number	1
_symmetry_cell_setting	triclinic
loop_
_symmetry_equiv_pos_as_xyz
  x,y,z
_cell_length_a	11.169417
_cell_length_b	16.625546
_cell_length_c	11.169409
_cell_angle_alpha	89.961577
_cell_angle_beta	89.980487
_cell_angle_gamma	90.023717
loop_
_atom_site_label
_atom_site_type_symbol
_atom_site_fract_x
_atom_site_fract_y
_atom_site_fract_z
Zn1	Zn	1.834861	-0.320909	-0.678482
Zn2	Zn	2.334861	0.179091	-0.178482
Zn3	Zn	1.834708	-0.455771	-0.477778
Zn4	Zn	2.334708	0.044229	0.022222
Zn5	Zn	1.634147	-0.320959	-0.477817
Zn6	Zn	2.134147	0.179041	0.022183
Zn7	Zn	1.634112	-0.455707	-0.678424
Zn8	Zn	2.134112	0.044293	-0.178424
O9	O	1.734457	-0.388337	-0.578125
O10	O	2.234457	0.111663	-0.078125
O11	O	2.002791	-0.338805	-0.651866
O12	O	2.502791	0.161195	-0.151866
O13	O	1.808054	-0.437936	-0.309833
O14	O	2.308054	0.062064	0.190167
O15	O	1.660851	-0.208120	-0.504477
O16	O	2.160851	0.291880	-0.004477
O17	O	2.002678	-0.437888	-0.504409
O18	O	2.502678	0.062112	-0.004409
O19	O	1.808315	-0.208084	-0.651905
O20	O	2.308315	0.291916	-0.151905
O21	O	1.660702	-0.338891	-0.309862
O22	O	2.160702	0.161109	0.190138
O23	O	1.466193	-0.338828	-0.504421
O24	O	1.966193	0.161172	-0.004421
O25	O	1.660791	-0.437778	-0.846381
O26	O	2.160791	0.062222	-0.346381
O27	O	1.466167	-0.437826	-0.651805
O28	O	1.966167	0.062174	-0.151805
O29	O	1.808281	-0.338743	-0.846424
O30	O	2.308281	0.161257	-0.346424
O31	O	1.808020	-0.568595	-0.504353
O32	O	2.308020	-0.068595	-0.004353
O33	O	1.660643	-0.568548	-0.651766
O34	O	2.160643	-0.068548	-0.151766
C35	C	1.422632	-0.388326	-0.578111
C36	C	1.922632	0.111674	-0.078111
C37	C	1.289232	-0.388341	-0.578134
C38	C	1.789232	0.111659	-0.078134
C39	C	1.734344	-0.597828	-0.578075
C40	C	2.234344	-0.097828	-0.078075
C41	C	1.734405	-0.687449	-0.578094
C42	C	2.234405	-0.187449	-0.078094
C43	C	1.734614	-1.015624	-0.578219
C44	C	2.234614	-0.515624	-0.078219
C45	C	1.734552	-0.924316	-0.578187
C46	C	2.234552	-0.424316	-0.078187
C47	C	1.734508	-0.851539	-0.578155
C48	C	2.234508	-0.351539	-0.078155
C49	C	1.734448	-0.760225	-0.578125
C50	C	2.234448	-0.260225	-0.078125
C51	C	2.047499	-0.388348	-0.578140
C52	C	2.547499	0.111652	-0.078140
C53	C	2.180899	-0.388353	-0.578146
C54	C	2.680899	0.111647	-0.078146
C55	C	1.734549	-0.388247	-0.891168
C56	C	2.234549	0.111753	-0.391168
C57	C	1.734589	-0.388209	-1.024568
C58	C	2.234589	0.111791	-0.524568
C59	C	1.734604	-0.178028	-0.578202
C60	C	2.234604	0.321972	-0.078202
C61	C	1.734666	-0.088407	-0.578235
C62	C	2.234666	0.411593	-0.078235
C63	C	1.734434	-0.388368	-0.266300
C64	C	2.234434	0.111632	0.233700
C65	C	1.734628	-0.388179	-0.132901
C66	C	2.234628	0.111821	0.367099
