data_functionalizedCrystal
_audit_creation_method	'MofGen! by Chris Wilmer'
_symmetry_space_group_name_H-M	'P1'
_symmetry_Int_Tables_number	1
_symmetry_cell_setting	triclinic
loop_
_symmetry_equiv_pos_as_xyz
  x,y,z
_cell_length_a	12.759401
_cell_length_b	12.759399
_cell_length_c	12.759393
_cell_angle_alpha	89.969094
_cell_angle_beta	89.979062
_cell_angle_gamma	90.016641
loop_
_atom_site_label
_atom_site_type_symbol
_atom_site_fract_x
_atom_site_fract_y
_atom_site_fract_z
Zn1	Zn	1.606263	-0.418173	-0.594017
Zn2	Zn	1.606153	-0.593888	-0.418336
Zn3	Zn	1.430562	-0.418229	-0.418352
Zn4	Zn	1.430553	-0.593815	-0.593973
O5	O	1.518383	-0.506026	-0.506170
O6	O	1.753270	-0.441489	-0.570724
O7	O	1.582818	-0.570641	-0.271317
O8	O	1.453919	-0.271200	-0.441680
O9	O	1.753189	-0.570587	-0.441652
O10	O	1.583006	-0.271159	-0.570740
O11	O	1.453812	-0.441584	-0.271329
O12	O	1.283540	-0.441513	-0.441637
O13	O	1.453903	-0.570461	-0.741000
O14	O	1.283533	-0.570516	-0.570665
O15	O	1.582997	-0.441418	-0.741032
O16	O	1.582809	-0.740900	-0.441609
O17	O	1.453796	-0.740846	-0.570649
C18	C	1.245415	-0.506013	-0.506149
C19	C	1.128639	-0.506033	-0.506165
C20	C	1.518318	-0.778994	-0.506146
C21	C	1.518387	-0.895770	-0.506171
C22	C	1.073801	-0.573307	-0.573244
C23	C	0.964077	-0.573311	-0.573265
C24	C	0.964038	-0.438764	-0.439118
C25	C	1.073760	-0.438756	-0.439104
C26	C	1.585641	-0.950625	-0.439056
C27	C	1.585708	-1.060349	-0.439091
C28	C	1.451259	-1.060353	-0.573359
C29	C	1.451198	-0.950631	-0.573328
C30	C	1.709717	-1.210225	-0.401704
C31	C	1.776961	-1.265084	-0.334573
C32	C	1.793124	-1.229543	-0.232062
C33	C	1.742027	-1.139145	-0.196662
C34	C	1.674775	-1.084292	-0.263788
C35	C	1.658632	-1.119831	-0.366313
C36	C	1.327188	-0.800754	-0.610705
C37	C	1.259930	-0.745899	-0.677826
C38	C	1.243756	-0.781437	-0.780338
C39	C	1.294835	-0.871838	-0.815734
C40	C	1.362093	-0.926694	-0.748613
C41	C	1.378268	-0.891147	-0.646102
C42	C	1.792416	-0.506040	-0.506191
C43	C	1.909193	-0.506046	-0.506200
C44	C	1.518461	-0.505925	-0.780203
C45	C	1.518495	-0.505882	-0.896980
C46	C	1.518476	-0.231993	-0.506217
C47	C	1.518516	-0.115216	-0.506237
C48	C	1.585719	-0.438679	-0.951860
C49	C	1.585737	-0.438633	-1.061584
C50	C	1.451303	-0.573004	-1.061538
C51	C	1.451281	-0.573044	-0.951816
C52	C	1.518365	-0.506051	-0.233202
C53	C	1.518535	-0.505798	-0.116426
H54	H	1.118479	-0.628086	-0.627852
C55	C	0.975143	-0.706312	-0.705848
C56	C	0.903799	-0.647265	-0.646996
H57	H	0.937928	-0.751973	-0.751364
H58	H	1.017968	-0.660585	-0.746109
H59	H	1.017907	-0.746436	-0.659982
H60	H	0.861040	-0.607135	-0.692862
H61	H	0.860956	-0.692998	-0.606732
H62	H	0.919343	-0.383991	-0.384518
H63	H	1.118411	-0.383967	-0.384480
H64	H	1.640352	-0.905960	-0.384374
H65	H	1.633174	-1.010691	-0.234967
C66	C	1.829610	-1.167318	-0.032532
C67	C	1.759788	-1.100085	-0.083974
H68	H	1.840580	-1.143195	0.037035
H69	H	1.801093	-1.236066	-0.030726
H70	H	1.894516	-1.168275	-0.069012
H71	H	1.694879	-1.099134	-0.047497
H72	H	1.788303	-1.031319	-0.085774
C73	C	1.908476	-1.376685	-0.210989
C74	C	1.867044	-1.289840	-0.158272
H75	H	1.954118	-1.413906	-0.165438
H76	H	1.853002	-1.421419	-0.232493
H77	H	1.946423	-1.353624	-0.270778
H78	H	1.829091	-1.312902	-0.098487
H79	H	1.922527	-1.245098	-0.136752
H80	H	1.818565	-1.338685	-0.363405
C81	C	1.787657	-1.250722	-0.568125
C82	C	1.691962	-1.249293	-0.514391
H83	H	1.776693	-1.274852	-0.637691
H84	H	1.816163	-1.181970	-0.569935
H85	H	1.835007	-1.296330	-0.533196
H86	H	1.644614	-1.203679	-0.549315
H87	H	1.663441	-1.318056	-0.512586
H88	H	1.640476	-0.383908	-1.106263
H89	H	1.396555	-1.105035	-0.628034
H90	H	1.396583	-0.627687	-1.106199
C91	C	1.389872	-1.045662	-0.891683
C92	C	1.418261	-1.026052	-0.787526
H93	H	1.424557	-1.106995	-0.915707
H94	H	1.316208	-1.055556	-0.895852
H95	H	1.409615	-0.987739	-0.934132
H96	H	1.398510	-1.083973	-0.745076
H97	H	1.491941	-1.016165	-0.783350
C98	C	1.207252	-0.843666	-0.979862
C99	C	1.277066	-0.910907	-0.928421
H100	H	1.196286	-0.867782	-1.049432
H101	H	1.142353	-0.842701	-0.943389
H102	H	1.235782	-0.774912	-0.981666
H103	H	1.248532	-0.979659	-0.926610
H104	H	1.341977	-0.911882	-0.964903
C105	C	1.727026	-0.424125	-0.828495
C106	C	1.659588	-0.364846	-0.891582
H107	H	1.772631	-0.378538	-0.791290
H108	H	1.686989	-0.464146	-0.780109
H109	H	1.767207	-0.469881	-0.871307
H110	H	1.619402	-0.319095	-0.848769
H111	H	1.699630	-0.324807	-0.939974
C112	C	1.249282	-0.760286	-0.444261
C113	C	1.344967	-0.761695	-0.498013
H114	H	1.260258	-0.736180	-0.374689
H115	H	1.201926	-0.714679	-0.479162
H116	H	1.220779	-0.829051	-0.442465
H117	H	1.373466	-0.692928	-0.499817
H118	H	1.392339	-0.807303	-0.463103
C119	C	1.400035	-0.750962	-0.917977
C120	C	1.377387	-0.646922	-0.891480
H121	H	1.354420	-0.796566	-0.880721
H122	H	1.390422	-0.760549	-0.991161
H123	H	1.470619	-0.766334	-0.900000
H124	H	1.306804	-0.631548	-0.909463
H125	H	1.386991	-0.637331	-0.818279
H126	H	1.188985	-0.736765	-0.834986
H127	H	1.218345	-0.672285	-0.649000
