data_functionalizedCrystal
_audit_creation_method	'MofGen! by Chris Wilmer'
_symmetry_space_group_name_H-M	'P1'
_symmetry_Int_Tables_number	1
_symmetry_cell_setting	triclinic
loop_
_symmetry_equiv_pos_as_xyz
  x,y,z
_cell_length_a	16.109301
_cell_length_b	16.992696
_cell_length_c	16.053802
_cell_angle_alpha	92.733271
_cell_angle_beta	92.577771
_cell_angle_gamma	92.935033
loop_
_atom_site_label
_atom_site_type_symbol
_atom_site_fract_x
_atom_site_fract_y
_atom_site_fract_z
O1	O	1.113144	-0.097484	0.069391
O2	O	0.871919	-0.110026	0.069406
O3	O	0.991563	0.010386	0.069375
O4	O	0.993500	-0.217896	0.069422
O5	O	0.984976	0.003786	-0.069482
O6	O	0.865332	-0.116627	-0.069451
O7	O	1.106556	-0.104085	-0.069466
Zn8	Zn	0.984898	-0.111404	-0.091505
Zn9	Zn	0.993577	-0.102707	0.091445
O10	O	0.986913	-0.224497	-0.069436
C11	C	0.837617	-0.112818	-0.000021
C12	C	0.745220	-0.111295	-0.000016
C13	C	0.527480	-0.179204	-0.000012
C14	C	0.440663	-0.177767	-0.000018
C15	C	0.451003	-0.034901	-0.000043
C16	C	0.537817	-0.036340	-0.000043
C17	C	0.576054	-0.108493	-0.000024
C18	C	0.402422	-0.105618	-0.000029
C19	C	0.308292	-0.104059	-0.000035
C20	C	0.670190	-0.110052	-0.000019
C21	C	0.985781	0.036298	-0.000057
C22	C	0.978357	0.123339	-0.000069
C23	C	1.049982	0.173597	-0.000081
C24	C	1.043002	0.255382	-0.000085
C25	C	0.964395	0.286907	-0.000082
C26	C	0.892765	0.236642	-0.000068
C27	C	0.899746	0.154859	-0.000058
C28	C	0.935461	0.530496	-0.000104
C29	C	0.928485	0.612285	-0.000116
C30	C	1.078723	0.631019	-0.000132
C31	C	1.085697	0.549234	-0.000127
C32	C	1.014067	0.498977	-0.000108
N33	N	0.957258	0.370503	-0.000088
N34	N	1.021205	0.415382	-0.000096
C35	C	1.140859	-0.101293	-0.000037
C36	C	1.233256	-0.102816	-0.000037
N37	N	0.978981	-0.117338	-0.216364
C38	C	0.992692	0.749590	-0.000037
C39	C	1.000110	0.662543	-0.000128
C40	C	1.029911	-0.066121	-0.260071
C41	C	1.025780	-0.070280	-0.347477
C42	C	0.970723	-0.125660	-0.391174
C43	C	0.919788	-0.176880	-0.347461
C44	C	0.923915	-0.172717	-0.260057
C45	C	0.952693	-0.143823	-0.652579
C46	C	0.948571	-0.147984	-0.739989
C47	C	1.054563	-0.041382	-0.739999
C48	C	1.058689	-0.037227	-0.652593
C49	C	1.007750	-0.088444	-0.608888
N50	N	0.966501	-0.129914	-0.480517
N51	N	1.011969	-0.084186	-0.519547
N52	N	0.999501	-0.096766	0.216304
H53	H	1.113992	0.147937	-0.000088
H54	H	0.401118	-0.235347	-0.000010
H55	H	0.903735	-0.193084	-0.775563
H56	H	1.137040	0.671947	-0.000146
H57	H	0.419860	0.023843	-0.000064
O58	O	0.852112	0.642882	0.000041
C59	C	0.811529	0.620603	0.071959
H60	H	0.859788	0.605985	0.122218
H61	H	0.774021	0.671289	0.096097
H62	H	0.767962	0.566523	0.055716
H63	H	0.577368	0.021245	-0.000055
H64	H	0.877134	0.489586	-0.000089
O65	O	0.816467	0.267391	-0.000102
C66	C	0.825663	0.350353	-0.000095
H67	H	0.888019	0.368327	-0.026390
H68	H	0.773123	0.373536	-0.040410
H69	H	0.823281	0.376281	0.066519
H70	H	1.103520	0.007868	-0.617017
H71	H	0.558609	-0.237956	-0.000002
H72	H	0.911218	-0.185527	-0.617001
O73	O	1.161991	0.518482	-0.000158
C74	C	1.152795	0.435522	-0.000125
H75	H	1.087945	0.415053	-0.026411
H76	H	1.201511	0.408509	-0.040434
H77	H	1.161492	0.415921	0.066496
H78	H	0.874955	-0.221969	-0.383044
O79	O	0.830083	0.106146	-0.000083
C80	C	0.759206	0.151506	-0.000062
H81	H	0.775001	0.211301	-0.026363
H82	H	0.706771	0.119408	-0.040364
H83	H	0.738532	0.160488	0.066557
O84	O	1.083414	-0.012254	-0.217757
C85	C	1.127493	0.032046	-0.275081
H86	H	1.090405	0.029973	-0.337392
H87	H	1.137211	0.095864	-0.249847
H88	H	1.190506	0.006127	-0.284358
O89	O	1.075138	-0.020453	-0.389966
C90	C	1.025024	0.025522	-0.440562
H91	H	0.960613	0.028124	-0.414239
H92	H	1.054767	0.087784	-0.441560
H93	H	1.019171	-0.002165	-0.506800
O94	O	1.112661	0.304089	-0.000139
C95	C	1.183539	0.258728	-0.000126
H96	H	1.165242	0.196436	-0.026405
H97	H	1.232142	0.286996	-0.040452
H98	H	1.210546	0.256072	0.066487
O99	O	1.103951	0.008335	-0.782584
C100	C	1.088521	-0.007224	-0.869100
H101	H	1.023806	-0.037080	-0.881041
H102	H	1.092258	0.050572	-0.902334
H103	H	1.137020	-0.047742	-0.893882
H104	H	0.882442	-0.214422	-0.224471
