data_functionalizedCrystal
_audit_creation_method	'MofGen! by Chris Wilmer'
_symmetry_space_group_name_H-M	'P1'
_symmetry_Int_Tables_number	1
_symmetry_cell_setting	triclinic
loop_
_symmetry_equiv_pos_as_xyz
  x,y,z
_cell_length_a	11.792241
_cell_length_b	16.109301
_cell_length_c	14.586319
_cell_angle_alpha	90.005214
_cell_angle_beta	89.997362
_cell_angle_gamma	96.172552
loop_
_atom_site_label
_atom_site_type_symbol
_atom_site_fract_x
_atom_site_fract_y
_atom_site_fract_z
O1	O	1.505908	-0.113953	-0.076225
O2	O	1.839241	0.219380	0.257108
O3	O	2.172574	0.552713	0.590441
O4	O	1.175464	-0.125697	-0.076231
O5	O	1.508797	0.207636	0.257102
O6	O	1.842130	0.540969	0.590435
O7	O	1.349763	0.001163	-0.076219
O8	O	1.683097	0.334496	0.257114
O9	O	2.016430	0.667830	0.590448
O10	O	1.331608	-0.240814	-0.076238
O11	O	1.664942	0.092520	0.257095
O12	O	1.998275	0.425853	0.590429
O13	O	1.349751	0.001165	0.076262
O14	O	1.683085	0.334498	0.409595
O15	O	2.016418	0.667832	0.742929
O16	O	1.175452	-0.125695	0.076249
O17	O	1.508785	0.207638	0.409583
O18	O	1.842118	0.540971	0.742916
O19	O	1.505896	-0.113951	0.076255
O20	O	1.839229	0.219382	0.409589
O21	O	2.172562	0.552715	0.742922
Cu22	Cu	1.340673	-0.119823	0.090175
Cu23	Cu	1.674006	0.213510	0.423508
Cu24	Cu	2.007339	0.546843	0.756842
Cu25	Cu	1.340687	-0.119825	-0.090151
Cu26	Cu	1.674020	0.213508	0.243182
Cu27	Cu	2.007354	0.546841	0.576516
O28	O	1.331596	-0.240812	0.076243
O29	O	1.664929	0.092522	0.409576
O30	O	1.998263	0.425855	0.742910
C31	C	1.133173	-0.124959	0.000008
C32	C	1.466507	0.208375	0.333342
C33	C	1.799840	0.541708	0.666675
C34	C	1.007179	-0.122751	0.000006
C35	C	1.340512	0.210583	0.333340
C36	C	1.673846	0.543916	0.666673
C37	C	1.548186	-0.114690	0.000014
C38	C	1.881520	0.218643	0.333347
C39	C	2.214853	0.551977	0.666680
C40	C	1.674181	-0.116898	0.000010
C41	C	2.007514	0.216435	0.333343
C42	C	2.340847	0.549769	0.666676
C43	C	1.349022	0.032142	0.000022
C44	C	1.682355	0.365476	0.333355
C45	C	2.015689	0.698809	0.666689
C46	C	1.346817	0.124448	0.000023
C47	C	1.680150	0.457781	0.333357
C48	C	2.013484	0.791115	0.666690
C49	C	1.904857	-0.120958	0.000010
C50	C	2.238190	0.212375	0.333343
C51	C	2.571524	0.545708	0.666676
C52	C	1.776492	-0.118702	0.000010
C53	C	2.109825	0.214631	0.333343
C54	C	2.443158	0.547964	0.666677
C55	C	1.332338	-0.271791	0.000000
C56	C	1.665671	0.061542	0.333333
C57	C	1.999004	0.394876	0.666667
C58	C	1.334542	-0.364097	-0.000007
C59	C	1.667876	-0.030763	0.333326
C60	C	2.001209	0.302570	0.666659
N61	N	1.340671	-0.119821	0.217007
N62	N	1.674004	0.213512	0.550340
N63	N	2.007337	0.546846	0.883673
C64	C	1.445116	0.346258	0.000010
C65	C	1.778450	0.679591	0.333344
C66	C	2.111783	1.012924	0.666677
C67	C	1.443036	0.432988	0.000003
C68	C	1.776369	0.766321	0.333336
C69	C	2.109702	1.099655	0.666670
C70	C	1.236235	0.414087	0.000003
C71	C	1.569569	0.747420	0.333336
C72	C	1.902902	1.080753	0.666669
C73	C	1.238317	0.327358	0.000004
C74	C	1.571650	0.660692	0.333337
C75	C	1.904984	0.994025	0.666670
C76	C	1.342761	0.293446	0.000012
C77	C	1.676094	0.626780	0.333346
C78	C	2.009428	0.960113	0.666679
C79	C	1.338599	0.466905	0.000004
C80	C	1.671932	0.800238	0.333337
C81	C	2.005265	1.133572	0.666670
C82	C	1.336342	0.560942	-0.000005
C83	C	1.669675	0.894275	0.333329
C84	C	2.003009	1.227608	0.666662
C85	C	1.345018	0.199404	0.000019
C86	C	1.678351	0.532737	0.333352
C87	C	2.011685	0.866070	0.666685
N88	N	1.340698	-0.119821	-0.216983
N89	N	1.674031	0.213512	0.116350
N90	N	2.007364	0.546846	0.449684
C91	C	1.417876	-0.063666	0.452019
C92	C	1.751210	0.269667	0.785352
C93	C	2.084543	0.603000	1.118686
C94	C	1.417879	-0.063664	0.548000
C95	C	1.751213	0.269669	0.881333
C96	C	2.084546	0.603002	1.214667
C97	C	1.263484	-0.175978	0.547998
C98	C	1.596817	0.157355	0.881332
C99	C	1.930151	0.490688	1.214665
C100	C	1.263476	-0.175976	0.452019
C101	C	1.596810	0.157358	0.785352
C102	C	1.930143	0.490691	1.118686
C103	C	1.340679	-0.119821	0.404032
C104	C	1.674012	0.213513	0.737365
C105	C	2.007345	0.546846	1.070698
C106	C	1.340690	-0.119821	0.595992
C107	C	1.674023	0.213512	0.929326
C108	C	2.007356	0.546845	1.262659
C109	C	1.340693	-0.119820	0.700059
C110	C	1.674026	0.213514	1.033393
C111	C	2.007359	0.546847	1.366726
C112	C	1.340675	-0.119821	0.299958
C113	C	1.674008	0.213512	0.633291
C114	C	2.007341	0.546846	0.966624
H115	H	1.530161	0.318650	0.000016
H116	H	1.863495	0.651983	0.333349
H117	H	2.196828	0.985316	0.666682
H118	H	1.200607	-0.221704	0.412945
H119	H	1.533941	0.111630	0.746278
H120	H	1.867274	0.444963	1.079612
H121	H	1.526384	0.475984	-0.000000
H122	H	1.859718	0.809317	0.333333
H123	H	2.193051	1.142651	0.666666
H124	H	1.151201	0.441709	-0.000003
H125	H	1.484534	0.775042	0.333331
H126	H	1.817867	1.108376	0.666664
Br127	Br	1.099396	0.255679	-0.000006
Br128	Br	1.432729	0.589012	0.333327
Br129	Br	1.766062	0.922346	0.666660
H130	H	1.480738	-0.017940	0.412950
H131	H	1.814071	0.315393	0.746283
H132	H	2.147404	0.648726	1.079616
H133	H	1.480739	-0.017937	0.587069
H134	H	1.814073	0.315396	0.920402
H135	H	2.147406	0.648729	1.253735
H136	H	1.200629	-0.221700	0.587079
H137	H	1.533962	0.111634	0.920413
H138	H	1.867296	0.444967	1.253746
