data_functionalizedCrystal
_audit_creation_method	'MofGen! by Chris Wilmer'
_symmetry_space_group_name_H-M	'P1'
_symmetry_Int_Tables_number	1
_symmetry_cell_setting	triclinic
loop_
_symmetry_equiv_pos_as_xyz
  x,y,z
_cell_length_a	19.805407
_cell_length_b	21.295417
_cell_length_c	21.295411
_cell_angle_alpha	90.021644
_cell_angle_beta	90.025486
_cell_angle_gamma	90.030507
loop_
_atom_site_label
_atom_site_type_symbol
_atom_site_fract_x
_atom_site_fract_y
_atom_site_fract_z
Zn1	Zn	1.034756	-0.250681	0.355927
Zn2	Zn	1.534756	0.249319	0.855927
Zn3	Zn	1.034651	-0.355933	0.250652
Zn4	Zn	1.534651	0.144067	0.750652
Zn5	Zn	0.921559	-0.250681	0.250670
Zn6	Zn	1.421559	0.249319	0.750670
Zn7	Zn	0.921526	-0.355916	0.355882
Zn8	Zn	1.421526	0.144084	0.855882
O9	O	0.978123	-0.303303	0.303283
O10	O	1.478123	0.196697	0.803283
O11	O	1.129459	-0.264650	0.341973
O12	O	1.629459	0.235350	0.841973
O13	O	1.019619	-0.341978	0.162565
O14	O	1.519619	0.158022	0.662565
O15	O	0.936632	-0.162592	0.264659
O16	O	1.436632	0.337408	0.764659
O17	O	1.129381	-0.341978	0.264628
O18	O	1.629381	0.158022	0.764628
O19	O	1.019798	-0.162592	0.341991
O20	O	1.519798	0.337408	0.841991
O21	O	0.936531	-0.264650	0.162578
O22	O	1.436531	0.235350	0.662578
O23	O	0.826838	-0.264634	0.264616
O24	O	1.326838	0.235366	0.764616
O25	O	0.936576	-0.341949	0.443978
O26	O	1.436576	0.158051	0.943978
O27	O	0.826814	-0.341950	0.341915
O28	O	1.326814	0.158050	0.841915
O29	O	1.019766	-0.264633	0.444010
O30	O	1.519766	0.235367	0.944010
O31	O	1.019587	-0.444020	0.264585
O32	O	1.519587	0.055980	0.764585
O33	O	0.936475	-0.444008	0.341897
O34	O	1.436475	0.055992	0.841897
C35	C	0.802267	-0.303291	0.303263
C36	C	1.302267	0.196709	0.803263
C37	C	0.727035	-0.303301	0.303269
C38	C	1.227035	0.196699	0.803269
C39	C	0.691696	-0.343620	0.343453
C40	C	1.191696	0.156380	0.843453
C41	C	0.621007	-0.343621	0.343462
C42	C	1.121007	0.156379	0.843462
C43	C	0.585659	-0.303306	0.303283
C44	C	1.085659	0.196694	0.803283
C45	C	0.621003	-0.262982	0.263097
C46	C	1.121003	0.237018	0.763097
C47	C	0.691690	-0.262979	0.263092
C48	C	1.191690	0.237021	0.763092
C49	C	0.335930	-0.262996	0.263118
C50	C	0.835930	0.237004	0.763118
C51	C	0.265238	-0.263005	0.263125
C52	C	0.765238	0.236995	0.763125
C53	C	0.265247	-0.343638	0.343488
C54	C	0.765247	0.156362	0.843488
C55	C	0.335934	-0.343635	0.343483
C56	C	0.835934	0.156365	0.843483
C57	C	0.371272	-0.303309	0.303299
C58	C	0.871272	0.196691	0.803299
C59	C	0.447920	-0.303308	0.303291
C60	C	0.947920	0.196692	0.803291
C61	C	0.509012	-0.303310	0.303288
C62	C	1.009012	0.196690	0.803288
C63	C	0.978034	-0.466854	0.303248
C64	C	1.478034	0.033146	0.803248
C65	C	0.978058	-0.536823	0.303254
C66	C	1.478058	-0.036823	0.803254
C67	C	1.021373	-0.569675	0.263039
C68	C	1.521373	-0.069675	0.763039
C69	C	1.021405	-0.635417	0.263053
C70	C	1.521405	-0.135417	0.763053
C71	C	0.978109	-0.668305	0.303276
C72	C	1.478109	-0.168305	0.803276
C73	C	0.934791	-0.635445	0.343499
C74	C	1.434791	-0.135445	0.843499
C75	C	0.934766	-0.569704	0.343488
C76	C	1.434766	-0.069704	0.843488
N77	N	0.918900	-0.771572	0.308068
N78	N	1.418900	-0.271572	0.808068
N79	N	0.918926	-0.834023	0.308075
N80	N	1.418926	-0.334023	0.808075
C81	C	0.978185	-0.866380	0.303312
C82	C	1.478185	-0.366380	0.803312
N83	N	1.037419	-0.833926	0.298530
N84	N	1.537419	-0.333926	0.798530
N85	N	1.037392	-0.771468	0.298520
N86	N	1.537392	-0.271468	0.798520
C87	C	0.978133	-0.739590	0.303293
C88	C	1.478133	-0.239590	0.803293
C89	C	1.021538	-0.970517	0.263110
C90	C	1.521538	-0.470517	0.763110
C91	C	1.021571	-1.036261	0.263129
C92	C	1.521571	-0.536261	0.763129
C93	C	0.934952	-1.036288	0.343571
C94	C	1.434952	-0.536288	0.843571
C95	C	0.934925	-0.970545	0.343556
C96	C	1.434925	-0.470545	0.843556
C97	C	0.978217	-0.937664	0.303322
C98	C	1.478217	-0.437664	0.803322
C99	C	1.154666	-0.303315	0.303304
C100	C	1.654666	0.196685	0.803304
C101	C	1.229898	-0.303321	0.303313
C102	C	1.729898	0.196679	0.803313
C103	C	0.978179	-0.303290	0.467473
C104	C	1.478179	0.196710	0.967473
C105	C	0.978203	-0.303284	0.537441
C106	C	1.478203	0.196716	1.037441
C107	C	0.978230	-0.139113	0.303332
C108	C	1.478230	0.360887	0.803332
C109	C	0.978276	-0.069144	0.303353
C110	C	1.478276	0.430856	0.803353
C111	C	0.978106	-0.303271	0.139731
C112	C	1.478106	0.196729	0.639731
C113	C	0.978213	-0.303099	0.069764
C114	C	1.478213	0.196901	0.569764
C115	C	1.021518	-0.263024	0.570326
C116	C	1.521518	0.236976	1.070326
C117	C	1.021517	-0.262996	0.636069
C118	C	1.521517	0.237004	1.136069
C119	C	0.978208	-0.303241	0.668924
C120	C	1.478208	0.196759	1.168924
C121	C	0.934885	-0.343504	0.636031
C122	C	1.434885	0.156496	1.136031
C123	C	0.934882	-0.343525	0.570290
C124	C	1.434882	0.156475	1.070290
N125	N	0.972986	-0.358308	0.772139
N126	N	1.472986	0.141692	1.272139
N127	N	0.972993	-0.358286	0.834591
N128	N	1.472993	0.141714	1.334591
C129	C	0.978213	-0.303177	0.866999
C130	C	1.478213	0.196823	1.366999
N131	N	0.983439	-0.248089	0.834596
N132	N	1.483439	0.251911	1.334596
N133	N	0.983436	-0.248113	0.772139
N134	N	1.483436	0.251887	1.272139
C135	C	0.978206	-0.303221	0.740209
C136	C	1.478206	0.196779	1.240209
C137	C	1.021529	-0.262884	0.971169
C138	C	1.521529	0.237116	1.471169
C139	C	1.021523	-0.262855	1.036913
C140	C	1.521523	0.237145	1.536913
C141	C	0.934895	-0.343368	1.036874
C142	C	1.434895	0.156632	1.536874
C143	C	0.934897	-0.343391	0.971132
C144	C	1.434897	0.156609	1.471132
C145	C	0.978217	-0.303149	0.938283
C146	C	1.478217	0.196851	1.438283
H147	H	0.592237	-0.376453	0.376184
H148	H	1.092237	0.123547	0.876184
H149	H	1.056794	-0.230067	1.063687
H150	H	1.556794	0.269933	1.563687
H151	H	1.056792	-0.230255	0.543585
H152	H	1.556792	0.269745	1.043585
H153	H	1.056848	-1.063008	0.230382
H154	H	1.556848	-0.563008	0.730382
Cl155	Cl	1.075961	-0.212367	0.677418
Cl156	Cl	1.575961	0.287633	1.177418
Cl157	Cl	0.880442	-0.393956	1.078172
Cl158	Cl	1.380442	0.106044	1.578172
H159	H	0.899621	-0.376269	0.662786
H160	H	1.399621	0.123731	1.162786
Cl161	Cl	0.736126	-0.394307	0.393964
Cl162	Cl	1.236126	0.105693	0.893964
H163	H	0.592217	-0.230155	0.230385
H164	H	1.092217	0.269845	0.730385
H165	H	0.899607	-0.376309	0.543516
H166	H	1.399607	0.123691	1.043516
Cl167	Cl	1.075962	-0.929178	0.212531
Cl168	Cl	1.575962	-0.429178	0.712531
Cl169	Cl	0.880443	-0.394009	0.929789
Cl170	Cl	1.380443	0.105991	1.429789
H171	H	0.899703	-1.063064	0.376324
H172	H	1.399703	-0.563064	0.876324
H173	H	0.364711	-0.376465	0.376199
H174	H	0.864711	0.123535	0.876199
Cl175	Cl	0.220818	-0.394334	0.394006
Cl176	Cl	0.720818	0.105666	0.894006
H177	H	0.236459	-0.230171	0.230406
H178	H	0.736459	0.269829	0.730406
Cl179	Cl	0.880465	-0.929243	0.394112
Cl180	Cl	1.380465	-0.429243	0.894112
Cl181	Cl	1.075984	-0.212292	0.929871
Cl182	Cl	1.575984	0.287708	1.429871
H183	H	0.364694	-0.230166	0.230393
H184	H	0.864694	0.269834	0.730393
Cl185	Cl	0.736117	-0.212288	0.212574
Cl186	Cl	1.236117	0.287712	0.712574
H187	H	1.056626	-0.542905	0.230280
H188	H	1.556626	-0.042905	0.730280
H189	H	0.899541	-0.662227	0.376250
H190	H	1.399541	-0.162227	0.876250
Cl191	Cl	1.075861	-0.676726	0.212492
Cl192	Cl	1.575861	-0.176726	0.712492
Cl193	Cl	0.880307	-0.528402	0.394048
Cl194	Cl	1.380307	-0.028402	0.894048
