data_functionalizedCrystal
_audit_creation_method	'MofGen! by Chris Wilmer'
_symmetry_space_group_name_H-M	'P1'
_symmetry_Int_Tables_number	1
_symmetry_cell_setting	triclinic
loop_
_symmetry_equiv_pos_as_xyz
  x,y,z
_cell_length_a	14.971486
_cell_length_b	12.996460
_cell_length_c	14.971494
_cell_angle_alpha	89.998571
_cell_angle_beta	83.615843
_cell_angle_gamma	90.001258
loop_
_atom_site_label
_atom_site_type_symbol
_atom_site_fract_x
_atom_site_fract_y
_atom_site_fract_z
O1	O	1.186951	0.085444	0.116556
O2	O	0.926551	0.085472	0.130515
O3	O	1.063727	0.085455	-0.006664
O4	O	1.049776	0.085461	0.253735
O5	O	1.063709	-0.085679	-0.006656
O6	O	0.926534	-0.085662	0.130523
O7	O	1.186933	-0.085689	0.116564
Cu8	Cu	1.056732	-0.101301	0.123544
Cu9	Cu	1.056753	0.101084	0.123535
O10	O	1.049758	-0.085672	0.253743
C11	C	0.893218	-0.000091	0.129895
C12	C	0.793921	-0.000081	0.128024
N13	N	1.056724	-0.243648	0.123550
C14	C	0.736698	-0.000080	0.208613
C15	C	0.643398	-0.000096	0.206850
C16	C	0.607323	-0.000104	0.124497
C17	C	0.664554	-0.000108	0.043902
C18	C	0.757851	-0.000100	0.045666
C19	C	0.470091	-0.000122	0.040231
C20	C	0.376787	-0.000128	0.038466
C21	C	0.355638	-0.000118	0.201415
C22	C	0.448936	-0.000110	0.203179
C23	C	0.506160	-0.000111	0.122583
C24	C	1.056728	-0.336754	0.123552
C25	C	1.056736	-0.453560	0.123547
C26	C	1.056747	-0.546658	0.123537
C27	C	1.056757	-0.663470	0.123532
C28	C	1.220267	-0.000124	0.117184
C29	C	1.319564	-0.000128	0.119055
C30	C	1.063093	-0.000110	-0.039985
C31	C	1.061219	-0.000105	-0.139281
N32	N	1.056768	0.243431	0.123522
C33	C	1.060350	0.093181	-0.185930
C34	C	1.058584	0.093183	-0.279229
C35	C	1.057693	-0.000103	-0.325879
C36	C	1.058559	-0.093397	-0.279223
C37	C	1.060319	-0.093397	-0.185924
C38	C	1.054893	-0.093389	-0.473686
C39	C	1.053134	-0.093390	-0.566991
C40	C	1.053158	0.093190	-0.566991
C41	C	1.054918	0.093190	-0.473693
C42	C	1.055786	-0.000104	-0.427043
C43	C	1.050392	-0.000105	0.287064
C44	C	1.052266	-0.000103	0.386360
H45	H	0.766062	-0.000073	0.275674
Cl46	Cl	1.052015	-0.210665	-0.625634
H47	H	1.055650	0.169152	-0.435714
H48	H	1.057881	0.169146	-0.317207
Cl49	Cl	1.057427	-0.210672	-0.337866
H50	H	1.055580	-0.169359	-0.435704
H51	H	1.052450	0.169154	-0.604977
Cl52	Cl	1.061409	-0.210676	-0.127279
Cl53	Cl	0.829790	-0.000105	-0.055651
Cl54	Cl	0.283700	-0.000118	0.302735
H55	H	0.596810	-0.000094	0.272473
H56	H	0.478304	-0.000093	0.270238
H57	H	1.061081	0.169146	-0.147956
Cl58	Cl	0.331437	-0.000173	-0.065065
H59	H	0.516681	-0.000125	-0.025399
H60	H	0.635174	-0.000129	-0.023152
