data_functionalizedCrystal
_audit_creation_method	'MofGen! by Chris Wilmer'
_symmetry_space_group_name_H-M	'P1'
_symmetry_Int_Tables_number	1
_symmetry_cell_setting	triclinic
loop_
_symmetry_equiv_pos_as_xyz
  x,y,z
_cell_length_a	6.817900
_cell_length_b	7.190401
_cell_length_c	12.850265
_cell_angle_alpha	94.835533
_cell_angle_beta	91.776814
_cell_angle_gamma	119.389243
loop_
_atom_site_label
_atom_site_type_symbol
_atom_site_fract_x
_atom_site_fract_y
_atom_site_fract_z
V1	V	4.161869	0.655559	0.141777
O2	O	4.210411	0.652906	-0.008527
O3	O	4.051293	0.641624	0.282769
O4	O	4.200300	0.945782	0.138845
O5	O	4.060373	0.346642	0.136394
V6	V	4.642302	0.619758	0.123888
O7	O	4.429905	0.734090	0.181019
O8	O	4.824463	0.541226	0.084647
O9	O	4.529671	0.633693	-0.017104
O10	O	4.711157	0.622410	0.274193
O11	O	4.861195	0.928674	0.129272
O12	O	4.380664	0.329534	0.126821
C13	C	3.878377	0.628853	0.317165
C14	C	3.869676	0.619222	0.434589
C15	C	4.182846	1.258481	0.132099
C16	C	4.068425	1.016822	0.133582
C17	C	4.353527	0.656145	-0.168911
C18	C	4.365950	0.646484	-0.051488
V19	V	4.129465	0.623011	0.625546
O20	O	4.172319	0.630776	0.778469
O21	O	4.036792	0.625544	0.478729
O22	O	3.887073	0.321319	0.622620
O23	O	4.323074	0.937106	0.633582
V24	V	4.668782	0.716128	0.672671
O25	O	4.337968	0.571271	0.599963
O26	O	4.934190	0.819812	0.724746
O27	O	4.526490	0.687841	0.806353
O28	O	4.749509	0.721909	0.526655
O29	O	4.598753	0.415578	0.671543
O30	O	4.676209	0.992066	0.662462
C31	C	4.530188	1.043404	0.647142
C32	C	4.622937	1.282663	0.644460
