data_functionalizedCrystal
_audit_creation_method	'MofGen! by Chris Wilmer'
_symmetry_space_group_name_H-M	'P1'
_symmetry_Int_Tables_number	1
_symmetry_cell_setting	triclinic
loop_
_symmetry_equiv_pos_as_xyz
  x,y,z
_cell_length_a	11.792241
_cell_length_b	23.532357
_cell_length_c	10.868271
_cell_angle_alpha	89.989339
_cell_angle_beta	89.999893
_cell_angle_gamma	83.510854
loop_
_atom_site_label
_atom_site_type_symbol
_atom_site_fract_x
_atom_site_fract_y
_atom_site_fract_z
O1	O	1.505043	0.078057	-0.102219
O2	O	1.174510	0.086101	-0.102250
O3	O	1.349773	-0.000796	-0.102208
O4	O	1.329780	0.164953	-0.102261
O5	O	1.349759	-0.000799	0.102437
O6	O	1.174496	0.086098	0.102395
O7	O	1.505029	0.078053	0.102426
Zn8	Zn	1.339760	0.082075	0.134902
Zn9	Zn	1.339779	0.082079	-0.134726
O10	O	1.329766	0.164950	0.102384
C11	C	1.132224	0.085594	0.000069
C12	C	1.006246	0.084082	0.000059
C13	C	1.349266	-0.022017	0.000118
C14	C	1.347763	-0.085244	0.000129
C15	C	0.775601	0.081300	0.000095
C16	C	0.903949	0.082846	0.000075
C17	C	1.338331	-0.477310	-0.111490
C18	C	1.336902	-0.536718	-0.111497
O19	O	1.336131	-0.567437	-0.206367
N20	N	1.336185	-0.566435	0.000053
C21	C	1.336886	-0.536740	0.111618
O22	O	1.336145	-0.567472	0.206500
C23	C	1.338308	-0.477333	0.111624
C24	C	1.339036	-0.447620	0.000066
C25	C	1.339058	-0.447596	-0.223038
C26	C	1.340489	-0.388192	-0.223030
C27	C	1.341194	-0.358502	-0.111474
C28	C	1.340467	-0.388216	0.000074
C29	C	1.339001	-0.447639	0.223187
C30	C	1.340421	-0.388228	0.223184
C31	C	1.341149	-0.358514	0.111626
C32	C	1.342603	-0.299122	0.111638
N33	N	1.343319	-0.269405	0.000087
C34	C	1.342615	-0.299095	-0.111469
C35	C	1.333900	-0.661500	0.111597
C36	C	1.332487	-0.720906	0.111593
C37	C	1.332500	-0.720879	-0.111523
C38	C	1.333921	-0.661472	-0.111517
C39	C	1.334616	-0.631782	0.000047
C40	C	1.345622	-0.174343	-0.111444
C41	C	1.347058	-0.114934	-0.111427
C42	C	1.347039	-0.114966	0.111688
C43	C	1.345609	-0.174370	0.111671
C44	C	1.344896	-0.204057	0.000095
O45	O	1.343370	-0.268365	0.206460
O46	O	1.343342	-0.268355	-0.206334
C47	C	1.547315	0.078560	0.000104
C48	C	1.673292	0.080073	0.000106
C49	C	1.330273	0.186171	0.000055
C50	C	1.331776	0.249399	0.000036
N51	N	1.339755	0.082072	0.318916
N52	N	1.339792	0.082078	-0.318740
C53	C	1.339773	0.082078	0.569922
C54	C	1.339760	0.082076	0.430245
H55	H	1.347653	-0.090744	-0.202274
H56	H	1.331911	-0.745095	0.202434
H57	H	1.338480	-0.471763	-0.313885
H58	H	1.334469	-0.637330	0.202451
O59	O	1.344963	-0.203089	-0.219937
C60	C	1.345871	-0.164112	-0.318378
H61	H	1.382842	-0.124024	-0.285658
H62	H	1.400551	-0.184714	-0.396415
H63	H	1.254958	-0.152081	-0.352664
O64	O	1.331604	-0.749738	-0.219861
C65	C	1.232486	-0.777960	-0.226523
H66	H	1.164206	-0.755760	-0.163224
H67	H	1.199474	-0.776564	-0.325189
H68	H	1.253629	-0.824376	-0.196544
O69	O	1.341250	-0.359338	0.331486
C70	C	1.440394	-0.331139	0.338212
H71	H	1.473397	-0.324273	0.241366
H72	H	1.419280	-0.287989	0.385441
H73	H	1.508672	-0.358352	0.393266
O74	O	1.338454	-0.476537	0.331514
C75	C	1.435897	-0.517074	0.338238
H76	H	1.505083	-0.503476	0.274985
H77	H	1.468820	-0.519827	0.436926
H78	H	1.412583	-0.560700	0.308244
H79	H	1.347617	-0.090782	0.202514
O80	O	1.341130	-0.359417	-0.331508
C81	C	1.340226	-0.398373	-0.429958
H82	H	1.303279	-0.438474	-0.397243
H83	H	1.285528	-0.377759	-0.507985
H84	H	1.431138	-0.410386	-0.464257
O85	O	1.334568	-0.632695	-0.219993
C86	C	1.333675	-0.671649	-0.318447
H87	H	1.296727	-0.711751	-0.285741
H88	H	1.278982	-0.651034	-0.396477
H89	H	1.424590	-0.683660	-0.352737
O90	O	1.344863	-0.203147	0.220145
C91	C	1.345828	-0.164201	0.318607
H92	H	1.310924	-0.119601	0.285901
H93	H	1.290297	-0.177921	0.396621
H94	H	1.437041	-0.163591	0.352920
