data_functionalizedCrystal
_audit_creation_method	'MofGen! by Chris Wilmer'
_symmetry_space_group_name_H-M	'P1'
_symmetry_Int_Tables_number	1
_symmetry_cell_setting	triclinic
loop_
_symmetry_equiv_pos_as_xyz
  x,y,z
_cell_length_a	17.077404
_cell_length_b	21.295417
_cell_length_c	17.077404
_cell_angle_alpha	90.015658
_cell_angle_beta	90.008318
_cell_angle_gamma	90.030732
loop_
_atom_site_label
_atom_site_type_symbol
_atom_site_fract_x
_atom_site_fract_y
_atom_site_fract_z
Zn1	Zn	1.199926	-0.250714	0.443817
Zn2	Zn	1.699926	0.249286	0.943817
Zn3	Zn	1.199842	-0.355955	0.312540
Zn4	Zn	1.699842	0.144045	0.812540
Zn5	Zn	1.068684	-0.250704	0.312565
Zn6	Zn	1.568684	0.249296	0.812565
Zn7	Zn	1.068609	-0.355950	0.443764
Zn8	Zn	1.568609	0.144050	0.943764
O9	O	1.134265	-0.303331	0.378171
O10	O	1.634265	0.196669	0.878171
O11	O	1.309762	-0.264681	0.426414
O12	O	1.809762	0.235319	0.926414
O13	O	1.182439	-0.341991	0.202696
O14	O	1.682439	0.158009	0.702696
O15	O	1.086160	-0.162616	0.330008
O16	O	1.586160	0.337384	0.830008
O17	O	1.309700	-0.342001	0.329966
O18	O	1.809700	0.157999	0.829966
O19	O	1.182584	-0.162624	0.426438
O20	O	1.682584	0.337376	0.926438
O21	O	1.086078	-0.264664	0.202715
O22	O	1.586078	0.235336	0.702715
O23	O	0.958827	-0.264659	0.329957
O24	O	1.458827	0.235341	0.829957
O25	O	1.086032	-0.341992	0.553617
O26	O	1.586032	0.158008	1.053617
O27	O	0.958772	-0.341983	0.426348
O28	O	1.458772	0.158017	0.926348
O29	O	1.182511	-0.264676	0.553657
O30	O	1.682511	0.235324	1.053657
O31	O	1.182366	-0.444044	0.329914
O32	O	1.682366	0.055956	0.829914
O33	O	1.085950	-0.444040	0.426324
O34	O	1.585950	0.055960	0.926324
C35	C	0.930317	-0.303320	0.378150
C36	C	1.430317	0.196680	0.878150
C37	C	0.843067	-0.303330	0.378159
C38	C	1.343067	0.196670	0.878159
C39	C	0.802069	-0.343653	0.428269
C40	C	1.302069	0.156347	0.928269
C41	C	0.720089	-0.343654	0.428282
C42	C	1.220089	0.156346	0.928282
C43	C	0.679108	-0.303335	0.378179
C44	C	1.179108	0.196665	0.878179
C45	C	0.720112	-0.263008	0.328067
C46	C	1.220112	0.236992	0.828067
C47	C	0.802091	-0.263004	0.328059
C48	C	1.302091	0.236996	0.828059
C49	C	0.549242	-0.263020	0.328086
C50	C	1.049242	0.236980	0.828086
C51	C	0.467257	-0.263025	0.328093
C52	C	0.967257	0.236975	0.828093
C53	C	0.467240	-0.343671	0.428309
C54	C	0.967240	0.156329	0.928309
C55	C	0.549219	-0.343667	0.428301
C56	C	1.049219	0.156333	0.928301
C57	C	0.590217	-0.303340	0.378187
C58	C	1.090217	0.196660	0.878187
C59	C	1.134162	-0.466883	0.378128
C60	C	1.634162	0.033117	0.878128
C61	C	1.134190	-0.536851	0.378135
C62	C	1.634190	-0.036851	0.878135
C63	C	1.184439	-0.569698	0.327987
C64	C	1.684439	-0.069698	0.827987
C65	C	1.184475	-0.635441	0.328004
C66	C	1.684475	-0.135441	0.828004
C67	C	1.134250	-0.668333	0.378162
C68	C	1.634250	-0.168333	0.878162
C69	C	1.083998	-0.635478	0.428321
C70	C	1.583998	-0.135478	0.928321
C71	C	1.083968	-0.569736	0.428308
C72	C	1.583968	-0.069736	0.928308
N73	N	1.065580	-0.771601	0.384139
N74	N	1.565580	-0.271601	0.884139
N75	N	1.065610	-0.834052	0.384148
N76	N	1.565610	-0.334052	0.884148
C77	C	1.134337	-0.866408	0.378207
C78	C	1.634337	-0.366408	0.878207
N79	N	1.203035	-0.833953	0.372243
N80	N	1.703035	-0.333953	0.872243
N81	N	1.203003	-0.771496	0.372231
N82	N	1.703003	-0.271496	0.872231
C83	C	1.134277	-0.739619	0.378183
C84	C	1.634277	-0.239619	0.878183
C85	C	1.184630	-0.970541	0.328075
C86	C	1.684630	-0.470541	0.828075
C87	C	1.184668	-1.036285	0.328098
C88	C	1.684668	-0.536285	0.828098
C89	C	1.084183	-1.036320	0.428411
C90	C	1.584183	-0.536320	0.928411
C91	C	1.084152	-0.970578	0.428392
C92	C	1.584152	-0.470578	0.928392
C93	C	1.134375	-0.937692	0.378220
C94	C	1.634375	-0.437692	0.878220
C95	C	1.339009	-0.303343	0.378193
C96	C	1.839009	0.196657	0.878193
C97	C	1.426259	-0.303348	0.378203
C98	C	1.926259	0.196652	0.878203
C99	C	1.134273	-0.303335	0.582915
C100	C	1.634273	0.196665	1.082915
C101	C	1.134276	-0.303337	0.670165
C102	C	1.634276	0.196663	1.170165
C103	C	1.134390	-0.139141	0.378232
C104	C	1.634390	0.360859	0.878232
C105	C	1.134443	-0.069173	0.378258
C106	C	1.634443	0.430827	0.878258
C107	C	1.184506	-0.263085	0.711177
C108	C	1.684506	0.236915	1.211177
C109	C	1.184499	-0.263084	0.793157
C110	C	1.684499	0.236916	1.293157
C111	C	1.134266	-0.303339	0.834125
C112	C	1.634266	0.196661	1.334125
C113	C	1.084030	-0.343592	0.793107
C114	C	1.584030	0.156408	1.293107
C115	C	1.084034	-0.343589	0.711128
C116	C	1.584034	0.156411	1.211128
C117	C	1.084029	-0.343596	0.963977
C118	C	1.584029	0.156404	1.463977
C119	C	1.084026	-0.343600	1.045962
C120	C	1.584026	0.156400	1.545962
C121	C	1.184494	-0.263091	1.046006
C122	C	1.684494	0.236909	1.546006
C123	C	1.184498	-0.263088	0.964028
C124	C	1.684498	0.236912	1.464028
C125	C	1.134263	-0.303343	0.923016
C126	C	1.634263	0.196657	1.423016
C127	C	1.134254	-0.303343	1.174223
C128	C	1.634254	0.196657	1.674223
C129	C	1.134256	-0.303348	1.086974
C130	C	1.634256	0.196652	1.586974
H131	H	0.686739	-0.230177	0.287276
H132	H	1.186739	0.269823	0.787276
H133	H	1.225407	-0.230313	0.930674
H134	H	1.725407	0.269687	1.430674
C135	C	0.422143	-0.388028	0.483438
C136	C	0.922143	0.111972	0.983438
C137	C	0.433443	-0.383008	0.572685
C138	C	0.933443	0.116992	1.072685
C139	C	0.388342	-0.427365	0.627809
C140	C	0.888342	0.072635	1.127809
C141	C	0.331940	-0.476742	0.593686
C142	C	0.831940	0.023258	1.093686
C143	C	0.320638	-0.481764	0.504434
C144	C	0.820638	0.018236	1.004434
C145	C	0.365739	-0.437407	0.449310
C146	C	0.865739	0.062593	0.949310
H147	H	0.475197	-0.346455	0.597950
H148	H	0.975197	0.153545	1.097950
H149	H	0.396709	-0.423648	0.693880
H150	H	0.896709	0.076352	1.193880
H151	H	0.298554	-0.509578	0.634491
H152	H	0.798554	-0.009578	1.134491
H153	H	0.278884	-0.518317	0.479169
H154	H	0.778884	-0.018317	0.979169
H155	H	0.357372	-0.441124	0.383240
H156	H	0.857372	0.058876	0.883240
H157	H	1.043123	-0.376360	0.677737
H158	H	1.543123	0.123640	1.177737
C159	C	1.239683	-0.533522	0.272803
C160	C	1.739683	-0.033522	0.772803
C161	C	1.301264	-0.488268	0.306860
C162	C	1.801264	0.011732	0.806860
C163	C	1.356508	-0.452089	0.251677
C164	C	1.856508	0.047911	0.751677
C165	C	1.350170	-0.461163	0.162437
C166	C	1.850170	0.038837	0.662437
C167	C	1.288587	-0.506419	0.128375
C168	C	1.788587	-0.006419	0.628375
C169	C	1.233343	-0.542599	0.183558
C170	C	1.733343	-0.042599	0.683558
H171	H	1.305958	-0.481549	0.372926
H172	H	1.805958	0.018451	0.872926
H173	H	1.402096	-0.418587	0.276893
H174	H	1.902096	0.081413	0.776893
H175	H	1.391065	-0.434381	0.121587
H176	H	1.891065	0.065619	0.621587
H177	H	1.283893	-0.513139	0.062310
H178	H	1.783893	-0.013139	0.562310
H179	H	1.187755	-0.576100	0.158342
H180	H	1.687755	-0.076100	0.658342
H181	H	1.043049	-0.542991	0.469146
H182	H	1.543049	-0.042991	0.969146
H183	H	0.433893	-0.230186	0.287304
H184	H	0.933893	0.269814	0.787304
C185	C	0.674994	-0.388016	0.483400
C186	C	1.174994	0.111984	0.983400
C187	C	0.618598	-0.437396	0.449274
C188	C	1.118598	0.062604	0.949274
C189	C	0.573505	-0.481761	0.504395
C190	C	1.073505	0.018239	1.004395
C191	C	0.584809	-0.476746	0.593642
C192	C	1.084809	0.023254	1.093642
C193	C	0.641207	-0.427365	0.627773
C194	C	1.141207	0.072635	1.127773
C195	C	0.686300	-0.383000	0.572652
C196	C	1.186300	0.117000	1.072652
H197	H	0.610228	-0.441110	0.383204
H198	H	1.110228	0.058890	0.883204
H199	H	0.531755	-0.518316	0.479128
H200	H	1.031755	-0.018316	0.979128
H201	H	0.551428	-0.509588	0.634446
H202	H	1.051428	-0.009588	1.134446
H203	H	0.649577	-0.423651	0.693844
H204	H	1.149577	0.076349	1.193844
H205	H	0.728050	-0.346444	0.597919
H206	H	1.228050	0.153556	1.097919
C207	C	1.239879	-0.934362	0.272895
C208	C	1.739879	-0.434362	0.772895
C209	C	1.295163	-0.970497	0.217738
C210	C	1.795163	-0.470497	0.717738
C211	C	1.350412	-0.934320	0.162559
C212	C	1.850412	-0.434320	0.662559
C213	C	1.350377	-0.862007	0.162536
C214	C	1.850377	-0.362007	0.662536
C215	C	1.295091	-0.825868	0.217694
C216	C	1.795091	-0.325868	0.717694
C217	C	1.239842	-0.862045	0.272874
C218	C	1.739842	-0.362045	0.772874
H219	H	1.295191	-1.024031	0.217754
H220	H	1.795191	-0.524031	0.717754
H221	H	1.391339	-0.961073	0.121726
H222	H	1.891339	-0.461073	0.621726
H223	H	1.391276	-0.835226	0.121688
H224	H	1.891276	-0.335226	0.621688
H225	H	1.295063	-0.772334	0.217679
H226	H	1.795063	-0.272334	0.717679
H227	H	1.198915	-0.835292	0.313706
H228	H	1.698915	-0.335292	0.813706
C229	C	1.239950	-1.072418	0.272933
C230	C	1.739950	-0.572418	0.772933
C231	C	1.233603	-1.063419	0.183688
C232	C	1.733603	-0.563419	0.683688
C233	C	1.288887	-1.099553	0.128522
C234	C	1.788887	-0.599553	0.628522
C235	C	1.350518	-1.144685	0.162601
C236	C	1.850518	-0.644685	0.662601
C237	C	1.356867	-1.153686	0.251851
C238	C	1.856867	-0.653686	0.751851
C239	C	1.301583	-1.117553	0.307016
C240	C	1.801583	-0.617553	0.807016
H241	H	1.187978	-1.030008	0.158457
H242	H	1.687978	-0.530008	0.658457
H243	H	1.284187	-1.092889	0.062454
H244	H	1.784187	-0.592889	0.562454
H245	H	1.391442	-1.171433	0.121764
H246	H	1.891442	-0.671433	0.621764
H247	H	1.402492	-1.187098	0.277082
H248	H	1.902492	-0.687098	0.777082
H249	H	1.306283	-1.124216	0.373085
H250	H	1.806283	-0.624216	0.873085
C251	C	1.239765	-0.218803	0.666116
C252	C	1.739765	0.281197	1.166116
C253	C	1.205791	-0.169379	0.609770
C254	C	1.705791	0.330621	1.109770
C255	C	1.261049	-0.125095	0.564711
C256	C	1.761049	0.374905	1.064711
C257	C	1.350282	-0.130235	0.576000
C258	C	1.850282	0.369765	1.076000
C259	C	1.384260	-0.179662	0.632349
C260	C	1.884260	0.320338	1.132349
C261	C	1.329002	-0.223946	0.677408
C262	C	1.829002	0.276054	1.177408
H263	H	1.139732	-0.165572	0.601411
H264	H	1.639732	0.334428	1.101411
H265	H	1.235896	-0.088506	0.522998
H266	H	1.735896	0.411494	1.022998
H267	H	1.391187	-0.097454	0.542645
H268	H	1.891187	0.402546	1.042645
H269	H	1.450319	-0.183469	0.640708
H270	H	1.950319	0.316531	1.140708
H271	H	1.354155	-0.260535	0.719121
H272	H	1.854155	0.239465	1.219121
C273	C	1.028931	-1.072493	0.483585
C274	C	1.528931	-0.572493	0.983585
C275	C	1.028959	-1.144806	0.483602
C276	C	1.528959	-0.644806	0.983602
C277	C	0.973707	-1.180983	0.538779
C278	C	1.473707	-0.680983	1.038779
C279	C	0.918426	-1.144847	0.593939
C280	C	1.418426	-0.644847	1.093939
C281	C	0.918396	-1.072530	0.593924
C282	C	1.418396	-0.572530	1.093924
C283	C	0.973649	-1.036353	0.538747
C284	C	1.473649	-0.536353	1.038747
H285	H	1.069883	-1.171560	0.442768
H286	H	1.569883	-0.671560	0.942768
H287	H	0.973730	-1.234517	0.538790
H288	H	1.473730	-0.734517	1.038790
H289	H	0.877525	-1.171627	0.634784
H290	H	1.377525	-0.671627	1.134784
H291	H	0.877473	-1.045776	0.634758
H292	H	1.377473	-0.545776	1.134758
H293	H	0.973626	-0.982819	0.538736
H294	H	1.473626	-0.482819	1.038736
C295	C	0.594346	-0.218659	0.272965
C296	C	1.094346	0.281341	0.772965
C297	C	0.583118	-0.147107	0.279538
C298	C	1.083118	0.352893	0.779538
C299	C	0.628224	-0.102749	0.224419
C300	C	1.128224	0.397251	0.724419
C301	C	0.684557	-0.129944	0.162726
C302	C	1.184557	0.370056	0.662726
C303	C	0.695786	-0.201500	0.156150
C304	C	1.195786	0.298500	0.656150
C305	C	0.650681	-0.245858	0.211270
C306	C	1.150681	0.254142	0.711270
H307	H	0.541415	-0.126972	0.325209
H308	H	1.041415	0.373028	0.825209
H309	H	0.619911	-0.049778	0.229287
H310	H	1.119911	0.450222	0.729287
H311	H	0.717946	-0.097107	0.121923
H312	H	1.217946	0.402893	0.621923
H313	H	0.737489	-0.221635	0.110479
H314	H	1.237489	0.278365	0.610479
H315	H	0.658994	-0.298829	0.206402
H316	H	1.158994	0.201171	0.706402
H317	H	1.043232	-0.943831	0.469225
H318	H	1.543232	-0.443831	0.969225
C319	C	1.028797	-0.387902	1.091028
C320	C	1.528797	0.112098	1.591028
C321	C	0.973557	-0.432193	1.045921
C322	C	1.473557	0.067807	1.545921
C323	C	0.918343	-0.476507	1.090987
C324	C	1.418343	0.023493	1.590987
C325	C	0.918369	-0.476530	1.181161
C326	C	1.418369	0.023470	1.681161
C327	C	0.973611	-0.432236	1.226273
C328	C	1.473611	0.067764	1.726273
C329	C	1.028825	-0.387922	1.181207
C330	C	1.528825	0.112078	1.681207
H331	H	0.973536	-0.432178	0.979164
H332	H	1.473536	0.067822	1.479164
H333	H	0.877449	-0.509296	1.057592
H334	H	1.377449	-0.009296	1.557592
H335	H	0.877496	-0.509334	1.214522
H336	H	1.377496	-0.009334	1.714522
H337	H	0.973632	-0.432252	1.293029
H338	H	1.473632	0.067748	1.793029
H339	H	1.069719	-0.355134	1.214602
H340	H	1.569719	0.144866	1.714602
C341	C	1.028777	-0.387878	0.918856
C342	C	1.528777	0.112122	1.418856
C343	C	0.939542	-0.382745	0.930104
C344	C	1.439542	0.117255	1.430104
C345	C	0.884299	-0.427028	0.884979
C346	C	1.384299	0.072972	1.384979
C347	C	0.918290	-0.476443	0.828607
C348	C	1.418290	0.023557	1.328607
C349	C	1.007530	-0.481578	0.817357
C350	C	1.507530	0.018422	1.317357
C351	C	1.062774	-0.437295	0.862481
C352	C	1.562774	0.062705	1.362481
H353	H	0.914375	-0.346163	0.971836
H354	H	1.414375	0.153837	1.471836
H355	H	0.818237	-0.423227	0.893307
H356	H	1.318237	0.076773	1.393307
H357	H	0.877396	-0.509224	0.795203
H358	H	1.377396	-0.009224	1.295203
H359	H	1.032697	-0.518160	0.775624
H360	H	1.532697	-0.018160	1.275624
H361	H	1.128835	-0.441096	0.854153
H362	H	1.628835	0.058904	1.354153
H363	H	1.225404	-0.230308	0.826546
H364	H	1.725404	0.269692	1.326546
H365	H	1.225396	-0.230313	1.079402
H366	H	1.725396	0.269687	1.579402
H367	H	0.835430	-0.376488	0.469066
H368	H	1.335430	0.123512	0.969066
C369	C	0.847194	-0.218647	0.272938
C370	C	1.347194	0.281353	0.772938
C371	C	0.835964	-0.147095	0.279514
C372	C	1.335964	0.352905	0.779514
C373	C	0.881067	-0.102735	0.224396
C374	C	1.381067	0.397265	0.724396
C375	C	0.937400	-0.129926	0.162702
C376	C	1.437400	0.370074	0.662702
C377	C	0.948633	-0.201482	0.156123
C378	C	1.448633	0.298518	0.656123
C379	C	0.903530	-0.245843	0.211241
C380	C	1.403530	0.254157	0.711241
H381	H	0.794261	-0.126963	0.325186
H382	H	1.294261	0.373037	0.825186
H383	H	0.872751	-0.049764	0.229266
H384	H	1.372751	0.450236	0.729266
H385	H	0.970788	-0.097088	0.121900
H386	H	1.470788	0.402912	0.621900
H387	H	0.990337	-0.221615	0.110451
H388	H	1.490337	0.278385	0.610451
H389	H	0.911846	-0.298814	0.206371
H390	H	1.411846	0.201186	0.706371
H391	H	0.582583	-0.376502	0.469094
H392	H	1.082583	0.123498	0.969094
H393	H	1.043127	-0.376366	0.826469
H394	H	1.543127	0.123634	1.326469
H395	H	1.043105	-0.662263	0.469162
H396	H	1.543105	-0.162263	0.969162
C397	C	1.239744	-0.671586	0.272831
C398	C	1.739744	-0.171586	0.772831
C399	C	1.233387	-0.662585	0.183588
C400	C	1.733387	-0.162585	0.683588
C401	C	1.288652	-0.698728	0.128413
C402	C	1.788652	-0.198728	0.628413
C403	C	1.350275	-0.743872	0.162483
C404	C	1.850275	-0.243872	0.662483
C405	C	1.356634	-0.752875	0.251731
C406	C	1.856634	-0.252875	0.751731
C407	C	1.301369	-0.716732	0.306905
C408	C	1.801369	-0.216732	0.806905
H409	H	1.187768	-0.629164	0.158363
H410	H	1.687768	-0.129164	0.658363
H411	H	1.283944	-0.692063	0.062346
H412	H	1.783944	-0.192063	0.562346
H413	H	1.391185	-0.770628	0.121639
H414	H	1.891185	-0.270628	0.621639
H415	H	1.402253	-0.786295	0.276955
H416	H	1.902253	-0.286295	0.776955
H417	H	1.306077	-0.723397	0.372973
H418	H	1.806077	-0.223397	0.872973
