data_functionalizedCrystal
_audit_creation_method	'MofGen! by Chris Wilmer'
_symmetry_space_group_name_H-M	'P1'
_symmetry_Int_Tables_number	1
_symmetry_cell_setting	triclinic
loop_
_symmetry_equiv_pos_as_xyz
  x,y,z
_cell_length_a	12.759401
_cell_length_b	18.050589
_cell_length_c	12.759393
_cell_angle_alpha	89.969379
_cell_angle_beta	89.981504
_cell_angle_gamma	90.028382
loop_
_atom_site_label
_atom_site_type_symbol
_atom_site_fract_x
_atom_site_fract_y
_atom_site_fract_z
Zn1	Zn	1.606157	-0.295612	-0.593988
Zn2	Zn	1.606010	-0.419823	-0.418311
Zn3	Zn	1.430459	-0.295651	-0.418328
Zn4	Zn	1.430406	-0.419766	-0.593953
O5	O	1.518258	-0.357713	-0.506145
O6	O	1.753158	-0.312097	-0.570692
O7	O	1.582683	-0.403391	-0.271292
O8	O	1.453849	-0.191722	-0.441651
O9	O	1.753050	-0.403354	-0.441623
O10	O	1.582934	-0.191693	-0.570708
O11	O	1.453706	-0.312163	-0.271304
O12	O	1.283431	-0.312108	-0.441617
O13	O	1.453759	-0.403256	-0.740979
O14	O	1.283392	-0.403294	-0.570648
O15	O	1.582882	-0.312041	-0.741005
O16	O	1.582632	-0.523740	-0.441589
O17	O	1.453616	-0.523698	-0.570632
C18	C	1.245290	-0.357699	-0.506131
C19	C	1.128514	-0.357711	-0.506149
C20	C	1.518131	-0.550665	-0.506127
C21	C	1.518173	-0.633211	-0.506155
C22	C	1.073659	-0.405268	-0.573225
C23	C	0.963935	-0.405277	-0.573236
C24	C	0.963930	-0.310171	-0.439088
C25	C	1.073652	-0.310159	-0.439083
C26	C	1.128521	-0.452820	-0.640292
C27	C	1.073666	-0.500382	-0.707372
C28	C	0.963942	-0.500391	-0.707383
C29	C	0.909072	-0.452839	-0.640314
C30	C	1.448083	-0.832666	-0.576304
C31	C	1.422469	-0.882114	-0.480436
C32	C	1.518276	-0.784341	-0.506169
C33	C	1.543942	-0.881974	-0.602048
C34	C	1.518374	-0.930326	-0.506191
C35	C	1.492611	-0.832703	-0.410250
C36	C	1.614129	-0.832558	-0.531927
C37	C	1.588551	-0.881985	-0.435992
C38	C	1.518217	-0.700243	-0.506158
C39	C	1.518433	-1.014423	-0.506191
C40	C	1.792291	-0.357727	-0.506160
C41	C	1.909068	-0.357733	-0.506166
C42	C	1.518331	-0.357638	-0.780178
C43	C	1.518363	-0.357606	-0.896955
C44	C	1.518414	-0.164007	-0.506185
C45	C	1.518480	-0.081462	-0.506203
C46	C	1.585606	-0.310106	-0.951832
C47	C	1.585631	-0.310079	-1.061557
C48	C	1.451166	-0.405059	-1.061516
C49	C	1.451136	-0.405081	-0.951794
C50	C	1.652833	-0.262631	-0.896993
C51	C	1.720083	-0.215128	-0.951871
C52	C	1.720108	-0.215101	-1.061595
C53	C	1.652883	-0.262577	-1.116442
C54	C	1.518245	-0.357734	-0.233178
C55	C	1.518417	-0.357557	-0.116401
H56	H	1.118347	-0.539092	-0.761983
C57	C	1.672819	-0.885104	-0.739140
C58	C	1.573205	-0.911195	-0.711492
H59	H	1.690879	-0.903146	-0.806704
H60	H	1.672357	-0.832489	-0.740074
H61	H	1.722781	-0.901994	-0.689398
H62	H	1.523242	-0.894300	-0.761230
H63	H	1.573660	-0.963821	-0.710566
H64	H	0.819728	-0.452844	-0.640338
C65	C	0.974973	-0.594400	-0.839975
C66	C	0.903643	-0.552667	-0.781116
H67	H	0.937747	-0.626679	-0.885489
H68	H	1.017798	-0.562075	-0.880239
H69	H	1.017738	-0.622761	-0.794113
H70	H	0.860883	-0.524302	-0.826978
H71	H	0.860800	-0.584997	-0.740849
C72	C	0.795729	-0.267976	-0.379517
C73	C	0.903620	-0.257916	-0.365355
H74	H	0.758499	-0.235720	-0.333987
H75	H	0.777780	-0.257161	-0.450124
H76	H	0.777736	-0.317868	-0.364028
H77	H	0.921614	-0.208025	-0.380852
H78	H	0.921575	-0.268726	-0.294732
H79	H	1.774858	-0.176416	-1.106273
C80	C	1.273241	-0.441216	-1.095292
C81	C	1.377284	-0.457247	-1.121804
H82	H	1.227633	-0.473435	-1.132516
H83	H	1.263603	-0.448032	-1.022101
H84	H	1.257924	-0.391312	-1.113296
H85	H	1.392603	-0.507150	-1.103793
H86	H	1.386927	-0.450438	-1.195011
C87	C	1.062635	-0.216168	-0.306459
C88	C	1.133957	-0.257894	-0.365339
H89	H	1.099867	-0.183906	-0.260928
H90	H	1.019877	-0.187798	-0.352300
H91	H	1.019802	-0.248505	-0.266204
H92	H	1.176785	-0.225557	-0.405600
H93	H	1.176733	-0.286266	-0.319493
C94	C	1.679594	-0.333333	-0.739836
C95	C	1.652862	-0.262669	-0.776384
H96	H	1.679635	-0.333358	-0.665377
H97	H	1.629917	-0.368392	-0.764615
H98	H	1.747371	-0.346166	-0.764718
H99	H	1.585082	-0.249838	-0.751509
H100	H	1.702542	-0.227598	-0.751594
H101	H	1.388636	-0.811010	-0.635531
H102	H	1.341455	-0.903898	-0.458669
H103	H	1.652896	-0.262543	-1.205786
C104	C	1.463390	-0.726043	-0.301765
C105	C	1.463222	-0.803613	-0.300771
H106	H	1.445238	-0.708085	-0.234180
H107	H	1.531227	-0.708667	-0.320157
H108	H	1.413805	-0.708770	-0.351621
H109	H	1.512813	-0.820885	-0.250920
H110	H	1.395375	-0.820995	-0.282365
H111	H	1.217863	-0.452820	-0.640288
H112	H	1.647952	-0.903503	-0.376622
H113	H	1.695124	-0.810777	-0.553739
H114	H	1.396364	-0.443749	-0.907112
C115	C	1.779751	-0.172993	-0.783691
C116	C	1.793969	-0.162940	-0.891588
H117	H	1.825369	-0.140775	-0.746479
H118	H	1.709173	-0.162124	-0.765713
H119	H	1.795085	-0.222899	-0.765707
H120	H	1.778626	-0.113035	-0.909574
H121	H	1.864562	-0.173804	-0.909573
