data_functionalizedCrystal
_audit_creation_method	'MofGen! by Chris Wilmer'
_symmetry_space_group_name_H-M	'P1'
_symmetry_Int_Tables_number	1
_symmetry_cell_setting	triclinic
loop_
_symmetry_equiv_pos_as_xyz
  x,y,z
_cell_length_a	19.805407
_cell_length_b	14.908520
_cell_length_c	19.805399
_cell_angle_alpha	93.270609
_cell_angle_beta	89.980427
_cell_angle_gamma	93.320773
loop_
_atom_site_label
_atom_site_type_symbol
_atom_site_fract_x
_atom_site_fract_y
_atom_site_fract_z
Zn1	Zn	1.019204	-0.359181	-0.398269
Zn2	Zn	1.012594	-0.510047	-0.291612
Zn3	Zn	0.906017	-0.359206	-0.285095
Zn4	Zn	0.899460	-0.509999	-0.404757
O5	O	0.959319	-0.434608	-0.344934
O6	O	1.113043	-0.379203	-0.384134
O7	O	0.998435	-0.490068	-0.196033
O8	O	0.926542	-0.232958	-0.294665
O9	O	1.108187	-0.490044	-0.305773
O10	O	1.009699	-0.232939	-0.377814
O11	O	0.920133	-0.379246	-0.191244
O12	O	0.810431	-0.379199	-0.300956
O13	O	0.915366	-0.489962	-0.498612
O14	O	0.805614	-0.489986	-0.388871
O15	O	1.003341	-0.379157	-0.493845
O16	O	0.992077	-0.636286	-0.312064
O17	O	0.908957	-0.636250	-0.395191
C18	C	0.783463	-0.434591	-0.344911
C19	C	0.708231	-0.434605	-0.344918
C20	C	0.670392	-0.492379	-0.390629
C21	C	0.599704	-0.492380	-0.390639
C22	C	0.566855	-0.434612	-0.344934
C23	C	0.604699	-0.376832	-0.299220
C24	C	0.675386	-0.376827	-0.299214
C25	C	0.319625	-0.376852	-0.299244
C26	C	0.248932	-0.376864	-0.299252
C27	C	0.243942	-0.492406	-0.390668
C28	C	0.314629	-0.492400	-0.390662
C29	C	0.352467	-0.434618	-0.344952
C30	C	0.429116	-0.434615	-0.344943
C31	C	0.490208	-0.434618	-0.344939
C32	C	0.949107	-0.669002	-0.355053
C33	C	0.944800	-0.769277	-0.359405
C34	C	1.023348	-0.957679	-0.281093
C35	C	1.019304	-1.051896	-0.285180
C36	C	0.932671	-1.051929	-0.371669
C37	C	0.936715	-0.957712	-0.367582
C38	C	0.982055	-0.910590	-0.322292
C39	C	0.986095	-0.816372	-0.318202
C40	C	0.899466	-0.816407	-0.404694
C41	C	0.895421	-0.910624	-0.408781
C42	C	1.135861	-0.434626	-0.344957
C43	C	1.211092	-0.434634	-0.344967
C44	C	0.959359	-0.434551	-0.521474
C45	C	0.959376	-0.434527	-0.596705
C46	C	0.969589	-0.199299	-0.334789
C47	C	0.973966	-0.099024	-0.330466
C48	C	1.005186	-0.376828	-0.629568
C49	C	1.005194	-0.376802	-0.700255
C50	C	0.959395	-0.434480	-0.738078
C51	C	0.913581	-0.492182	-0.705210
C52	C	0.913570	-0.492203	-0.634524
C53	C	0.913622	-0.492098	-0.990280
C54	C	0.913638	-0.492074	-1.060971
C55	C	1.005247	-0.376697	-1.056011
C56	C	1.005236	-0.376718	-0.985325
C57	C	0.959419	-0.434416	-0.952463
C58	C	0.959410	-0.434442	-0.875816
C59	C	0.959407	-0.434459	-0.814725
C60	C	0.959320	-0.434600	-0.169077
C61	C	0.959445	-0.434370	-0.093836
H62	H	0.350424	-0.329809	-0.262018
C63	C	0.846215	-0.961952	-0.457882
C64	C	0.851498	-1.054542	-0.452634
C65	C	0.806171	-1.101851	-0.497848
H66	H	0.856703	-0.946571	-0.502731
H67	H	0.801388	-0.946625	-0.447255
H68	H	0.896315	-1.069863	-0.463265
H69	H	0.841003	-1.069949	-0.407796
H70	H	0.761344	-1.086524	-0.487221
H71	H	0.816663	-1.086463	-0.542693
H72	H	0.809745	-1.164678	-0.494288
H73	H	0.865840	-0.778057	-0.438239
H74	H	1.042483	-0.329862	-0.598777
H75	H	0.876340	-0.539044	-1.091765
H76	H	0.876325	-0.539092	-0.963533
C77	C	1.035253	-0.765045	-0.269052
C78	C	1.029946	-0.672455	-0.274275
C79	C	1.075217	-0.625148	-0.229003
H80	H	1.080096	-0.780316	-0.279625
H81	H	1.024710	-0.780483	-0.224219
H82	H	1.040494	-0.657023	-0.319097
H83	H	0.985114	-0.657157	-0.263696
H84	H	1.064673	-0.640586	-0.184170
H85	H	1.120056	-0.640426	-0.239579
H86	H	1.071618	-0.562320	-0.232536
H87	H	1.060261	-0.919312	-0.244211
H88	H	1.052931	-1.090232	-0.251633
C89	C	1.055010	-0.314126	-0.735812
C90	C	1.095131	-0.263641	-0.687560
C91	C	1.141037	-0.205901	-0.720289
H92	H	1.030921	-0.274723	-0.761685
H93	H	1.083034	-0.348615	-0.764866
H94	H	1.067111	-0.229155	-0.658518
H95	H	1.119235	-0.303021	-0.661684
H96	H	1.169060	-0.240389	-0.749343
H97	H	1.116942	-0.166503	-0.746162
H98	H	1.168269	-0.171646	-0.687556
C99	C	0.863920	-0.555007	-0.598879
C100	C	0.874782	-0.644263	-0.619910
C101	C	0.829064	-0.702145	-0.587080
H102	H	0.818988	-0.541924	-0.609856
H103	H	0.870480	-0.546817	-0.551361
H104	H	0.868217	-0.652449	-0.667417
H105	H	0.919705	-0.657374	-0.608932
H106	H	0.835624	-0.693954	-0.539562
H107	H	0.784135	-0.689054	-0.598059
H108	H	0.836432	-0.762712	-0.601340
C109	C	1.054990	-0.313995	-0.944379
C110	C	1.095099	-0.263440	-0.988288
C111	C	1.140933	-0.205638	-0.950593
H112	H	1.083035	-0.348415	-0.918289
H113	H	1.030825	-0.274646	-0.915118
H114	H	1.119263	-0.302784	-1.017537
H115	H	1.067073	-0.229002	-1.014378
H116	H	1.116767	-0.166289	-0.921332
H117	H	1.168973	-0.240065	-0.924505
H118	H	1.168148	-0.171324	-0.980380
H119	H	0.876288	-0.539141	-0.736011
C120	C	0.213393	-0.314037	-0.249599
C121	C	0.261659	-0.263412	-0.209579
C122	C	0.228946	-0.205523	-0.163841
H123	H	0.184308	-0.348395	-0.221490
H124	H	0.187553	-0.274734	-0.273834
H125	H	0.287487	-0.302710	-0.185346
H126	H	0.290747	-0.229035	-0.237670
H127	H	0.203106	-0.166220	-0.188076
H128	H	0.199861	-0.239889	-0.135736
H129	H	0.261689	-0.171161	-0.136686
H130	H	0.895762	-1.090312	-0.408547
C131	C	0.705930	-0.555134	-0.440330
C132	C	0.657659	-0.605711	-0.480376
C133	C	0.690369	-0.663520	-0.526177
H134	H	0.731784	-0.594476	-0.416164
H135	H	0.735002	-0.520691	-0.468410
H136	H	0.628599	-0.640151	-0.452300
H137	H	0.631803	-0.566392	-0.504557
H138	H	0.719442	-0.629077	-0.554258
H139	H	0.716222	-0.702857	-0.502006
H140	H	0.657624	-0.697837	-0.553358
C141	C	0.558596	-0.554964	-0.440345
C142	C	0.520269	-0.503971	-0.481612
C143	C	0.482402	-0.561595	-0.527417
H144	H	0.529244	-0.594246	-0.416182
H145	H	0.588267	-0.589353	-0.467598
H146	H	0.490601	-0.469597	-0.454362
H147	H	0.549604	-0.464691	-0.505790
H148	H	0.512072	-0.595984	-0.554670
H149	H	0.453053	-0.600874	-0.503249
H150	H	0.456397	-0.527005	-0.555426
C151	C	0.350170	-0.555154	-0.440362
C152	C	0.301902	-0.605734	-0.480410
C153	C	0.334616	-0.663541	-0.526209
H154	H	0.376024	-0.594495	-0.416195
H155	H	0.379242	-0.520710	-0.468441
H156	H	0.272842	-0.640176	-0.452334
H157	H	0.276045	-0.566417	-0.504592
H158	H	0.363688	-0.629097	-0.554289
H159	H	0.360469	-0.702876	-0.502036
H160	H	0.301872	-0.697861	-0.553391
H161	H	0.213126	-0.539452	-0.427890
H162	H	0.577948	-0.329793	-0.262009
H163	H	1.042551	-0.329713	-1.082776
H164	H	0.706194	-0.329777	-0.261995
