data_functionalizedCrystal
_audit_creation_method	'MofGen! by Chris Wilmer'
_symmetry_space_group_name_H-M	'P1'
_symmetry_Int_Tables_number	1
_symmetry_cell_setting	triclinic
loop_
_symmetry_equiv_pos_as_xyz
  x,y,z
_cell_length_a	10.489711
_cell_length_b	17.038272
_cell_length_c	8.965430
_cell_angle_alpha	90.000179
_cell_angle_beta	89.994616
_cell_angle_gamma	87.819282
loop_
_atom_site_label
_atom_site_type_symbol
_atom_site_fract_x
_atom_site_fract_y
_atom_site_fract_z
O1	O	1.704388	0.110258	-0.124096
O2	O	1.334159	0.120643	-0.124087
O3	O	1.517073	0.001622	-0.124079
O4	O	1.521474	0.229278	-0.124103
O5	O	1.517058	0.001630	0.123999
O6	O	1.334144	0.120650	0.123992
O7	O	1.704373	0.110266	0.123983
Cu8	Cu	1.519257	0.115459	0.146639
Cu9	Cu	1.519275	0.115450	-0.146743
O10	O	1.521459	0.229286	0.123976
C11	C	1.286546	0.119867	-0.000046
C12	C	1.144697	0.117535	-0.000043
C13	C	0.969005	0.189111	-0.000067
C14	C	1.057814	0.153354	-0.122377
C15	C	1.057770	0.153342	0.122209
C16	C	0.980776	0.077585	-0.122485
C17	C	0.980723	0.077584	0.122211
C18	C	1.069500	0.041772	-0.000128
C19	C	1.513063	-0.027525	-0.000040
C20	C	1.501121	-0.114386	-0.000040
C21	C	1.610760	-0.163873	-0.000041
C22	C	1.599532	-0.245487	-0.000055
C23	C	1.478664	-0.277614	-0.000057
C24	C	1.369017	-0.228121	-0.000061
C25	C	1.380246	-0.146508	-0.000058
C26	C	1.438993	-0.523599	-0.000077
C27	C	1.427772	-0.605219	-0.000076
C28	C	1.658288	-0.622579	-0.000073
C29	C	1.669507	-0.540964	-0.000060
C30	C	1.559860	-0.491478	-0.000072
C31	C	1.467184	-0.361038	-0.000067
C32	C	1.571341	-0.408056	-0.000073
C33	C	1.751986	0.111041	-0.000061
C34	C	1.893835	0.113373	-0.000074
C35	C	1.525469	0.258433	-0.000067
C36	C	1.537411	0.345295	-0.000077
N37	N	1.519253	0.115465	0.352988
N38	N	1.519288	0.115437	-0.353092
C39	C	1.434632	0.170490	0.450291
C40	C	1.551610	0.186312	0.549700
C41	C	1.402324	0.099650	0.549707
C42	C	1.636293	0.131323	0.450209
C43	C	1.486928	0.044629	0.450207
C44	C	1.603987	0.060422	0.549571
H45	H	0.946699	0.045567	0.225627
H46	H	1.735221	0.144759	0.406687
H47	H	1.349710	-0.483317	-0.000086
H48	H	1.767930	-0.514813	-0.000058
O49	O	0.936034	0.035166	-0.259620
H50	H	0.872903	0.075391	-0.326373
H51	H	1.113129	-0.020536	-0.000184
H52	H	1.459530	-0.015244	0.406470
O53	O	1.102744	0.195804	0.259187
H54	H	1.062255	0.256946	0.258910
O55	O	1.271327	0.081935	0.607603
H56	H	1.201255	0.127704	0.567825
H57	H	1.669751	-0.381895	-0.000104
O58	O	1.339931	0.232177	0.392541
H59	H	1.340103	0.231270	0.268750
H60	H	1.329342	-0.631373	-0.000053
O61	O	1.336823	-0.395694	-0.000037
H62	H	1.326201	-0.432468	-0.101142
H63	H	1.578974	0.246204	0.593401
O64	O	1.698897	-0.001232	0.606983
H65	H	1.795840	0.012075	0.566921
H66	H	0.925137	0.251361	-0.000195
H67	H	1.709184	-0.137722	-0.000030
H68	H	1.688812	-0.285777	-0.000053
O69	O	1.102857	0.195792	-0.259357
H70	H	1.062394	0.256940	-0.259115
H71	H	1.747556	-0.662879	-0.000066
H72	H	1.270603	-0.254285	-0.000072
H73	H	1.290966	-0.106217	-0.000057
