data_functionalizedCrystal
_audit_creation_method	'MofGen! by Chris Wilmer'
_symmetry_space_group_name_H-M	'P1'
_symmetry_Int_Tables_number	1
_symmetry_cell_setting	triclinic
loop_
_symmetry_equiv_pos_as_xyz
  x,y,z
_cell_length_a	8.559649
_cell_length_b	8.559649
_cell_length_c	7.681481
_cell_angle_alpha	85.069100
_cell_angle_beta	85.086760
_cell_angle_gamma	110.221336
loop_
_atom_site_label
_atom_site_type_symbol
_atom_site_fract_x
_atom_site_fract_y
_atom_site_fract_z
O1	O	2.109661	0.037797	0.146402
O2	O	1.634175	-0.045985	0.146408
O3	O	1.913809	0.233649	0.146402
O4	O	1.830027	-0.241837	0.146407
O5	O	1.948236	0.268136	-0.146456
O6	O	1.668602	-0.011497	-0.146450
O7	O	2.144088	0.072285	-0.146457
Zn8	Zn	1.911811	0.035869	-0.192951
Zn9	Zn	1.866452	-0.009570	0.192902
O10	O	1.864454	-0.207349	-0.146451
C11	C	1.591080	-0.035090	-0.000020
C12	C	1.411380	-0.053990	-0.000017
C13	C	1.937371	0.311201	-0.000024
C14	C	1.956269	0.490899	-0.000014
C15	C	2.187183	0.061390	-0.000025
C16	C	2.366881	0.080288	-0.000016
C17	C	1.840891	-0.284902	-0.000021
C18	C	1.821992	-0.464601	-0.000019
N19	N	1.942779	0.066883	-0.456286
N20	N	1.835499	-0.040569	0.456237
H21	H	1.692573	0.436021	-0.000023
H22	H	1.466259	0.209706	-0.000009
O23	O	1.292848	-0.208475	0.000301
C24	C	1.159079	-0.488460	0.151974
C25	C	1.293346	-0.313576	0.151853
H26	H	1.159461	-0.573494	0.274472
H27	H	1.030352	-0.476826	0.152094
H28	H	1.188106	-0.544563	0.029356
H29	H	1.264477	-0.257375	0.274450
H30	H	1.422031	-0.325319	0.151641
H31	H	2.085699	0.590289	-0.000030
O32	O	1.704986	-0.171605	-0.454142
C33	C	1.568997	-0.471971	-0.397487
C34	C	1.716906	-0.323726	-0.499073
H35	H	1.578564	-0.594996	-0.433804
H36	H	1.573000	-0.468070	-0.249913
H37	H	1.445844	-0.462581	-0.433633
H38	H	1.840133	-0.333019	-0.463075
H39	H	1.712753	-0.327677	-0.646622
H40	H	2.052307	0.176556	-0.531494
