data_functionalizedCrystal
_audit_creation_method	'MofGen! by Chris Wilmer'
_symmetry_space_group_name_H-M	'P1'
_symmetry_Int_Tables_number	1
_symmetry_cell_setting	triclinic
loop_
_symmetry_equiv_pos_as_xyz
  x,y,z
_cell_length_a	15.995350
_cell_length_b	16.992695
_cell_length_c	15.455313
_cell_angle_alpha	87.152573
_cell_angle_beta	92.677661
_cell_angle_gamma	87.080299
loop_
_atom_site_label
_atom_site_type_symbol
_atom_site_fract_x
_atom_site_fract_y
_atom_site_fract_z
O1	O	-1.121185	-0.097643	-0.072058
O2	O	-0.878246	-0.110122	-0.072076
O3	O	-0.998742	0.010260	-0.072060
O4	O	-1.000690	-0.218025	-0.072073
O5	O	-0.991849	0.003404	0.072201
O6	O	-0.871354	-0.116978	0.072186
O7	O	-1.114293	-0.104498	0.072204
Cu8	Cu	-0.992194	-0.111364	0.085367
Cu9	Cu	-1.000345	-0.103256	-0.085239
O10	O	-0.993798	-0.224880	0.072188
C11	C	-0.992790	0.036045	0.000071
C12	C	-0.985313	0.123089	0.000070
C13	C	-0.843571	-0.113034	0.000053
C14	C	-0.750517	-0.111487	0.000046
C15	C	-1.148968	-0.101586	0.000073
C16	C	-1.242022	-0.103133	0.000074
C17	C	-0.412397	-0.105933	0.000065
C18	C	-0.454079	-0.020213	0.000391
C19	C	-0.550888	-0.021745	0.000060
C20	C	-0.580142	-0.108688	0.000056
C21	C	-0.545821	-0.147060	-0.082323
C22	C	-0.449044	-0.144903	-0.082386
C23	C	-0.440986	-0.154471	0.081666
C24	C	-0.537878	-0.154502	0.082748
C25	C	-0.674945	-0.110249	0.000048
C26	C	-0.317595	-0.104373	0.000066
C27	C	-0.999750	-0.250665	0.000056
C28	C	-1.007226	-0.337709	0.000051
N29	N	-0.986467	-0.117066	0.205362
C30	C	-1.057449	0.173329	0.000076
C31	C	-1.050419	0.255116	0.000067
C32	C	-0.971254	0.286661	0.000058
C33	C	-0.899114	0.236415	0.000050
C34	C	-0.906144	0.154629	0.000052
C35	C	-0.942116	0.530259	0.000044
C36	C	-0.935091	0.612051	0.000044
C37	C	-1.086398	0.630747	0.000060
C38	C	-1.093421	0.548959	0.000068
C39	C	-1.021281	0.498720	0.000055
N40	N	-0.964067	0.370260	0.000052
N41	N	-1.028469	0.415123	0.000055
N42	N	-1.006078	-0.097548	-0.205234
C43	C	-1.037678	-0.065942	0.250762
C44	C	-1.033355	-0.070262	0.341570
C45	C	-0.977825	-0.125709	0.386975
C46	C	-0.926609	-0.176835	0.341567
C47	C	-0.930928	-0.172511	0.250762
C48	C	-0.959181	-0.144351	0.658554
C49	C	-0.954867	-0.148672	0.749366
C50	C	-1.061613	-0.042097	0.749362
C51	C	-1.065931	-0.037781	0.658554
C52	C	-1.014711	-0.088905	0.613155
N53	N	-0.973407	-0.130127	0.479794
N54	N	-1.019126	-0.084482	0.520337
H55	H	-0.574272	0.008689	0.059113
H56	H	-0.421186	-0.207670	-0.086128
H57	H	-1.157885	0.523282	0.000075
H58	H	-1.145130	0.671660	0.000070
H59	H	-0.883374	0.489364	0.000034
H60	H	-1.103313	-0.000474	0.786334
H61	H	-0.881390	-0.221979	0.378541
H62	H	-0.889225	-0.214141	0.213797
H63	H	-0.430441	0.011249	0.059469
H64	H	-0.909646	-0.193827	0.786330
H65	H	-0.917477	-0.185979	0.621597
H66	H	-1.121913	0.147652	0.000088
H67	H	-0.847404	0.113724	0.000047
H68	H	-0.870621	0.637730	0.000051
H69	H	-0.834656	0.262105	0.000037
H70	H	-0.435009	0.016691	-0.058356
H71	H	-1.109159	0.296019	0.000074
H72	H	-0.564366	-0.210789	-0.085390
H73	H	-1.082900	-0.020794	0.213800
H74	H	-1.075055	-0.028632	0.378535
H75	H	-1.111148	0.007368	0.621587
H76	H	-0.575159	-0.114776	-0.143629
H77	H	-0.431614	-0.111139	-0.143964
H78	H	-0.579333	0.014531	-0.059092
H79	H	-0.413427	-0.217708	0.082220
H80	H	-0.560217	-0.126529	0.143692
H81	H	-0.415591	-0.129409	0.144107
H82	H	-0.557248	-0.218140	0.087721
