data_functionalizedCrystal
_audit_creation_method	'MofGen! by Chris Wilmer'
_symmetry_space_group_name_H-M	'P1'
_symmetry_Int_Tables_number	1
_symmetry_cell_setting	triclinic
loop_
_symmetry_equiv_pos_as_xyz
  x,y,z
_cell_length_a	14.044202
_cell_length_b	10.654546
_cell_length_c	9.130313
_cell_angle_alpha	90.007851
_cell_angle_beta	90.009333
_cell_angle_gamma	88.838111
loop_
_atom_site_label
_atom_site_type_symbol
_atom_site_fract_x
_atom_site_fract_y
_atom_site_fract_z
O1	O	-0.133212	-1.681229	-0.122089
O2	O	-0.145909	-1.317026	-0.122038
O3	O	-0.001540	-1.493655	-0.122023
O4	O	-0.277581	-1.504600	-0.122104
O5	O	-0.001544	-1.493653	0.121576
O6	O	-0.145913	-1.317024	0.121560
O7	O	-0.133216	-1.681227	0.121510
Cu8	Cu	-0.139565	-1.499126	0.143778
Cu9	Cu	-0.139560	-1.499128	-0.144306
O10	O	-0.277585	-1.504598	0.121494
C11	C	-0.144979	-1.270134	-0.000232
C12	C	-0.142192	-1.130410	-0.000210
C13	C	0.033804	-1.488866	-0.000216
C14	C	0.139124	-1.474586	-0.000193
C15	C	-0.227194	-1.059470	-0.000251
C16	C	-0.224569	-0.928185	-0.000264
C17	C	-0.051934	-0.938793	-0.000204
C18	C	-0.054559	-1.070075	-0.000180
C19	C	-0.326864	-1.053344	-0.000292
C20	C	-0.324239	-0.922060	-0.000306
C21	C	0.388916	-1.549749	-0.000241
C22	C	0.331952	-1.448499	-0.000221
C23	C	0.224653	-1.463018	-0.000205
C24	C	0.496226	-1.535233	-0.000257
C25	C	0.687071	-1.509384	-0.000296
C26	C	0.581751	-1.523656	-0.000269
C27	C	-0.134148	-0.728120	-0.000279
C28	C	-0.136942	-0.867843	-0.000248
N29	N	-0.139567	-1.499133	0.346400
N30	N	-0.139550	-1.499129	-0.346929
C31	C	-0.075663	-1.577368	0.423059
C32	C	-0.075651	-1.577364	0.576396
C33	C	-0.203458	-1.420885	0.576402
C34	C	-0.203464	-1.420884	0.423068
C35	C	-0.001877	-1.667714	0.423057
C36	C	-0.001866	-1.667709	0.576393
H37	H	0.019414	-0.889652	-0.000201
H38	H	-0.365846	-1.086594	0.101645
H39	H	-0.255492	-1.357168	0.360653
H40	H	-0.024980	-1.761220	0.375478
H41	H	0.067033	-1.630269	0.623966
H42	H	0.357102	-1.647327	-0.000242
N43	N	-0.368915	-1.104812	-0.139603
H44	H	-0.369312	-1.199493	-0.134498
H45	H	-0.329294	-1.077921	-0.225956
N46	N	-0.364129	-0.865557	0.138991
H47	H	-0.385336	-0.934817	0.206307
H48	H	-0.420333	-0.808705	0.114638
H49	H	-0.361792	-0.884103	-0.102267
H50	H	0.071032	-1.638941	0.381462
H51	H	0.363768	-1.350913	-0.000213
N52	N	-0.272369	-1.336489	0.659093
H53	H	-0.262667	-1.348356	0.767863
H54	H	-0.339768	-1.358537	0.632283
H55	H	-0.018118	-1.765855	0.617991
H56	H	0.014658	-1.127830	-0.000126
