data_functionalizedCrystal
_audit_creation_method	'MofGen! by Chris Wilmer'
_symmetry_space_group_name_H-M	'P1'
_symmetry_Int_Tables_number	1
_symmetry_cell_setting	triclinic
loop_
_symmetry_equiv_pos_as_xyz
  x,y,z
_cell_length_a	9.065215
_cell_length_b	9.065215
_cell_length_c	8.140239
_cell_angle_alpha	89.999269
_cell_angle_beta	90.000251
_cell_angle_gamma	85.014764
loop_
_atom_site_label
_atom_site_type_symbol
_atom_site_fract_x
_atom_site_fract_y
_atom_site_fract_z
O1	O	-0.216335	-1.960395	0.136572
O2	O	0.283665	-1.460395	0.636572
O3	O	-0.234086	-1.531110	0.136580
O4	O	0.265914	-1.031110	0.636580
O5	O	-0.010568	-1.754628	0.136580
O6	O	0.489432	-1.254628	0.636580
O7	O	-0.439853	-1.736877	0.136573
O8	O	0.060147	-1.236877	0.636573
O9	O	-0.010566	-1.754621	-0.136648
O10	O	0.489434	-1.254621	0.363352
O11	O	-0.234084	-1.531103	-0.136647
O12	O	0.265916	-1.031103	0.363353
O13	O	-0.216333	-1.960388	-0.136655
O14	O	0.283667	-1.460388	0.363345
Zn15	Zn	-0.225208	-1.745744	-0.180031
Zn16	Zn	0.274792	-1.245744	0.319969
Zn17	Zn	-0.225211	-1.745754	0.179957
Zn18	Zn	0.274789	-1.245754	0.679957
O19	O	-0.439851	-1.736870	-0.136654
O20	O	0.060149	-1.236870	0.363346
C21	C	-0.232380	-1.476120	-0.000032
C22	C	0.267620	-0.976120	0.499968
C23	C	-0.227282	-1.312277	-0.000028
C24	C	0.272718	-0.812277	0.499972
C25	C	0.044420	-1.752919	-0.000030
C26	C	0.544420	-1.252919	0.499970
C27	C	0.208263	-1.747821	-0.000017
C28	C	0.708263	-1.247821	0.499983
C29	C	0.505161	-1.738579	-0.000029
C30	C	1.005161	-1.238579	0.499971
C31	C	0.341318	-1.743676	0.000005
C32	C	0.841318	-1.243676	0.500005
N33	N	-0.225206	-1.745749	-0.425714
N34	N	0.274794	-1.245749	0.074286
C35	C	-0.218039	-1.015379	-0.000038
C36	C	0.281961	-0.515379	0.499962
C37	C	-0.223137	-1.179222	-0.000027
C38	C	0.276863	-0.679222	0.499973
N39	N	-0.225201	-1.745761	0.425640
N40	N	0.274799	-1.245761	0.925640
