data_functionalizedCrystal
_audit_creation_method	'MofGen! by Chris Wilmer'
_symmetry_space_group_name_H-M	'P1'
_symmetry_Int_Tables_number	1
_symmetry_cell_setting	triclinic
loop_
_symmetry_equiv_pos_as_xyz
  x,y,z
_cell_length_a	12.645330
_cell_length_b	14.908571
_cell_length_c	14.908308
_cell_angle_alpha	89.824947
_cell_angle_beta	93.270481
_cell_angle_gamma	93.285920
loop_
_atom_site_label
_atom_site_type_symbol
_atom_site_fract_x
_atom_site_fract_y
_atom_site_fract_z
Zn1	Zn	-0.553227	-1.345316	-0.587609
Zn2	Zn	-0.720906	-1.353903	-0.437258
Zn3	Zn	-0.532865	-1.203631	-0.428606
Zn4	Zn	-0.719646	-1.194931	-0.578909
O5	O	-0.631661	-1.274445	-0.508096
O6	O	-0.584518	-1.472282	-0.574926
O7	O	-0.687967	-1.341204	-0.310285
O8	O	-0.387223	-1.222473	-0.449718
O9	O	-0.707711	-1.478590	-0.464464
O10	O	-0.402183	-1.326569	-0.566537
O11	O	-0.549815	-1.230799	-0.303929
O12	O	-0.548593	-1.076650	-0.441282
O13	O	-0.705565	-1.207645	-0.705889
O14	O	-0.685821	-1.070259	-0.551710
O15	O	-0.583297	-1.318133	-0.712280
O16	O	-0.869081	-1.332768	-0.456028
O17	O	-0.868156	-1.215971	-0.560099
C18	C	-0.614862	-1.040829	-0.494614
C19	C	-0.607702	-0.940886	-0.488867
C20	C	-0.907085	-1.274380	-0.508079
C21	C	-1.024921	-1.274433	-0.508107
C22	C	-0.646562	-1.260961	-0.742622
C23	C	-0.652912	-1.255214	-0.842563
C24	C	-1.191981	-1.201231	-0.573809
C25	C	-1.069382	-1.200890	-0.573564
C26	C	-1.061620	-1.254254	-0.411871
C27	C	-1.184216	-1.253808	-0.412269
C28	C	-1.200403	-1.368282	-0.537898
C29	C	-1.077886	-1.367579	-0.539936
C30	C	-0.355164	-1.274534	-0.508133
C31	C	-0.237338	-1.274571	-0.508149
C32	C	-0.648527	-1.508974	-0.521631
C33	C	-0.655714	-1.608916	-0.527399
C34	C	-0.737343	-0.746483	-0.592903
C35	C	-0.730619	-0.652577	-0.587507
C36	C	-0.587526	-0.659166	-0.472684
C37	C	-0.594249	-0.753072	-0.478080
C38	C	-0.669162	-0.796727	-0.538191
C39	C	-0.675890	-0.890635	-0.543582
C40	C	-0.532792	-0.897222	-0.428764
C41	C	-0.526068	-0.803316	-0.423368
C42	C	-0.537502	-1.359465	-1.037020
C43	C	-0.543464	-1.354068	-1.130923
C44	C	-0.670794	-1.239021	-1.124275
C45	C	-0.664831	-1.244418	-1.030371
C46	C	-0.598184	-1.304642	-0.986747
C47	C	-0.592227	-1.310043	-0.892842
C48	C	-0.719550	-1.194992	-0.886195
C49	C	-0.725513	-1.189595	-0.980099
C50	C	-0.616745	-1.287929	-0.274485
C51	C	-0.610109	-1.293850	-0.174555
H52	H	-1.044868	-1.212881	-0.644752
H53	H	-0.537961	-1.359082	-0.857325
Br54	Br	-0.815954	-1.107863	-1.039311
Br55	Br	-0.839019	-0.805735	-0.674465
Br56	Br	-1.233435	-1.085970	-0.540649
H57	H	-0.725054	-1.189989	-1.159810
Br58	Br	-0.823149	-0.584390	-0.661766
H59	H	-0.477276	-0.938141	-0.384212
Br60	Br	-0.461102	-1.428470	-1.199149
H61	H	-0.526530	-0.623606	-0.423751
H62	H	-0.768965	-1.150354	-0.845253
H63	H	-1.227037	-1.213061	-0.645218
H64	H	-0.465075	-0.767759	-0.374431
H65	H	-0.483240	-1.408506	-1.001501
H66	H	-1.034056	-1.131307	-0.553424
H67	H	-1.213914	-1.305205	-0.361385
Br68	Br	-1.221532	-1.139904	-0.371326
H69	H	-1.032568	-1.306221	-0.361372
H70	H	-1.024731	-1.186661	-0.386976
Br71	Br	-0.777559	-0.949881	-0.625154
Br72	Br	-1.039045	-1.393112	-0.658029
Br73	Br	-1.028293	-1.462725	-0.466766
Br74	Br	-1.249521	-1.459245	-0.458317
Br75	Br	-1.261842	-1.400747	-0.653355
