data_functionalizedCrystal
_audit_creation_method	'MofGen! by Chris Wilmer'
_symmetry_space_group_name_H-M	'P1'
_symmetry_Int_Tables_number	1
_symmetry_cell_setting	triclinic
loop_
_symmetry_equiv_pos_as_xyz
  x,y,z
_cell_length_a	18.215407
_cell_length_b	12.759394
_cell_length_c	18.215399
_cell_angle_alpha	90.025276
_cell_angle_beta	90.019833
_cell_angle_gamma	90.015285
loop_
_atom_site_label
_atom_site_type_symbol
_atom_site_fract_x
_atom_site_fract_y
_atom_site_fract_z
Zn1	Zn	1.125123	-0.418265	0.416130
Zn2	Zn	1.625123	0.081735	0.916130
Zn3	Zn	1.125053	-0.593962	0.293069
Zn4	Zn	1.625053	-0.093962	0.793069
Zn5	Zn	1.002056	-0.418299	0.293077
Zn6	Zn	1.502056	0.081701	0.793077
Zn7	Zn	1.002043	-0.593904	0.416094
Zn8	Zn	1.502043	-0.093904	0.916094
O9	O	1.063569	-0.506107	0.354592
O10	O	1.563569	-0.006107	0.854592
O11	O	1.228098	-0.441581	0.399817
O12	O	1.728098	0.058419	0.899817
O13	O	1.108713	-0.570699	0.190086
O14	O	1.608713	-0.070699	0.690086
O15	O	1.018416	-0.271273	0.309418
O16	O	1.518416	0.228727	0.809418
O17	O	1.228047	-0.570666	0.309405
O18	O	1.728047	-0.070666	0.809405
O19	O	1.108833	-0.271248	0.399825
O20	O	1.608833	0.228752	0.899825
O21	O	1.018348	-0.441640	0.190092
O22	O	1.518348	0.058360	0.690092
O23	O	0.899070	-0.441583	0.309384
O24	O	1.399070	0.058417	0.809384
O25	O	1.018394	-0.570566	0.519083
O26	O	1.518394	-0.070566	1.019083
O27	O	0.899061	-0.570599	0.399764
O28	O	1.399061	-0.070599	0.899764
O29	O	1.108821	-0.441525	0.519109
O30	O	1.608821	0.058475	1.019109
O31	O	1.108701	-0.740975	0.309370
O32	O	1.608701	-0.240975	0.809370
O33	O	1.018326	-0.740933	0.399756
O34	O	1.518326	-0.240933	0.899756
C35	C	0.872363	-0.506089	0.354571
C36	C	1.372363	-0.006089	0.854571
C37	C	0.790564	-0.506107	0.354580
C38	C	1.290564	-0.006107	0.854580
C39	C	0.602384	-0.573391	0.401582
C40	C	1.102384	-0.073391	0.901582
C41	C	0.525526	-0.573395	0.401591
C42	C	1.025526	-0.073395	0.901591
C43	C	0.525506	-0.438843	0.307619
C44	C	1.025506	0.061157	0.807619
C45	C	0.602363	-0.438835	0.307614
C46	C	1.102363	0.061165	0.807614
C47	C	0.640800	-0.506115	0.354594
C48	C	1.140800	-0.006115	0.854594
C49	C	0.487084	-0.506126	0.354608
C50	C	0.987084	-0.006126	0.854608
C51	C	0.403751	-0.506129	0.354618
C52	C	0.903751	-0.006129	0.854618
C53	C	0.724139	-0.506111	0.354586
C54	C	1.224139	-0.006111	0.854586
C55	C	1.063525	-0.779075	0.354575
C56	C	1.563525	-0.279075	0.854575
C57	C	1.063573	-0.895852	0.354592
C58	C	1.563573	-0.395852	0.854592
C59	C	1.157751	-0.895843	0.260543
C60	C	1.657751	-0.395843	0.760543
C61	C	1.204859	-0.950699	0.213528
C62	C	1.704859	-0.450699	0.713528
C63	C	1.204903	-1.060421	0.213548
C64	C	1.704903	-0.560421	0.713548
C65	C	1.157834	-1.115289	0.260590
C66	C	1.657834	-0.615289	0.760590
C67	C	1.110726	-1.060432	0.307605
C68	C	1.610726	-0.560432	0.807605
C69	C	1.110686	-0.950708	0.307579
C70	C	1.610686	-0.450708	0.807579
C71	C	1.016553	-1.060441	0.401656
C72	C	1.516553	-0.560441	0.901656
C73	C	1.016505	-0.950719	0.401634
C74	C	1.516505	-0.450719	0.901634
C75	C	0.969484	-1.115308	0.448698
C76	C	1.469484	-0.615308	0.948698
C77	C	0.922371	-1.060452	0.495711
C78	C	1.422371	-0.560452	0.995711
C79	C	0.922329	-0.950724	0.495689
C80	C	1.422329	-0.450724	0.995689
C81	C	0.969397	-0.895863	0.448649
C82	C	1.469397	-0.395863	0.948649
C83	C	1.255522	-0.506126	0.354614
C84	C	1.755522	-0.006126	0.854614
C85	C	1.337321	-0.506134	0.354623
C86	C	1.837321	-0.006134	0.854623
C87	C	1.063614	-0.506035	0.546545
C88	C	1.563614	-0.006035	1.046545
C89	C	1.063633	-0.506004	0.628344
C90	C	1.563633	-0.006004	1.128344
C91	C	1.063633	-0.232074	0.354626
C92	C	1.563633	0.267926	0.854626
C93	C	1.063661	-0.115297	0.354641
C94	C	1.563661	0.384703	0.854641
C95	C	1.063567	-0.506104	0.163386
C96	C	1.563567	-0.006104	0.663386
C97	C	1.063690	-0.505839	0.081588
C98	C	1.563690	-0.005839	0.581588
C99	C	1.110735	-0.438750	0.816553
C100	C	1.610735	0.061250	1.316553
C101	C	1.110744	-0.438719	0.893412
C102	C	1.610744	0.061281	1.393412
C103	C	1.016583	-0.573096	0.893373
C104	C	1.516583	-0.073096	1.393373
C105	C	1.016571	-0.573121	0.816516
C106	C	1.516571	-0.073121	1.316516
C107	C	1.063651	-0.505949	0.778108
C108	C	1.563651	-0.005949	1.278108
C109	C	1.063672	-0.505894	0.931824
C110	C	1.563672	-0.005894	1.431824
C111	C	1.063681	-0.505861	1.015158
C112	C	1.563681	-0.005861	1.515158
C113	C	1.063641	-0.505980	0.694769
C114	C	1.563641	-0.005980	1.194769
H115	H	1.157711	-0.806502	0.260513
H116	H	1.657711	-0.306502	0.760513
H117	H	0.494201	-0.384067	0.269369
H118	H	0.994201	0.115933	0.769369
H119	H	0.884055	-1.105134	0.534013
H120	H	1.384055	-0.605134	1.034013
O121	O	0.488322	-0.638848	0.447256
O122	O	0.988322	-0.138848	0.947256
C123	C	0.496458	-0.772262	0.540491
C124	C	0.996458	-0.272262	1.040491
C125	C	0.538681	-0.698206	0.488797
C126	C	1.038681	-0.198206	0.988797
H127	H	0.537155	-0.820257	0.574102
H128	H	1.037155	-0.320257	1.074102
H129	H	0.460472	-0.827209	0.506677
H130	H	0.960472	-0.327209	1.006677
H131	H	0.460481	-0.724083	0.579003
H132	H	0.960481	-0.224083	1.079003
H133	H	0.574699	-0.746301	0.450276
H134	H	1.074699	-0.246301	0.950276
H135	H	0.574622	-0.643256	0.522657
H136	H	1.074622	-0.143256	1.022657
O137	O	0.639718	-0.373369	0.262072
O138	O	1.139718	0.126631	0.762072
C139	C	0.726545	-0.231543	0.252337
C140	C	1.226545	0.268457	0.752337
C141	C	0.684274	-0.305599	0.303991
C142	C	1.184274	0.194401	0.803991
H143	H	0.762590	-0.176747	0.286207
H144	H	1.262590	0.323253	0.786207
H145	H	0.685906	-0.183386	0.218768
H146	H	1.185906	0.316614	0.718768
H147	H	0.762474	-0.279730	0.213784
H148	H	1.262474	0.220270	0.713784
H149	H	0.648344	-0.257493	0.342588
H150	H	1.148344	0.242507	0.842588
H151	H	0.724953	-0.353759	0.337508
H152	H	1.224953	0.146241	0.837508
O153	O	1.250472	-0.897352	0.167753
O154	O	1.750472	-0.397352	0.667753
C155	C	1.260369	-0.773516	0.068407
C156	C	1.760369	-0.273516	0.568407
C157	C	1.208629	-0.833880	0.120186
C158	C	1.708629	-0.333880	0.620186
H159	H	1.226560	-0.722168	0.029946
H160	H	1.726560	-0.222168	0.529946
H161	H	1.294033	-0.831521	0.034753
H162	H	1.794033	-0.331521	0.534753
H163	H	1.298828	-0.722112	0.102230
H164	H	1.798828	-0.222112	0.602230
H165	H	1.170125	-0.885286	0.086419
H166	H	1.670125	-0.385286	0.586419
H167	H	1.175016	-0.775818	0.153842
H168	H	1.675016	-0.275818	0.653842
O169	O	0.970925	-0.638315	0.930798
O170	O	1.470925	-0.138315	1.430798
C171	C	0.929181	-0.697789	1.049184
C172	C	1.429181	-0.197789	1.549184
C173	C	0.980938	-0.623890	1.006894
C174	C	1.480938	-0.123890	1.506894
H175	H	0.937248	-0.686137	1.110715
H176	H	1.437248	-0.186137	1.610715
H177	H	0.942085	-0.782534	1.034116
H178	H	1.442085	-0.282534	1.534116
H179	H	0.869849	-0.679352	1.034020
H180	H	1.369849	-0.179352	1.534020
H181	H	1.040287	-0.642233	1.022035
H182	H	1.540287	-0.142233	1.522035
H183	H	0.967971	-0.539167	1.021966
H184	H	1.467971	-0.039167	1.521966
O185	O	0.970935	-0.638455	0.779084
O186	O	1.470935	-0.138455	1.279084
C187	C	0.960995	-0.780364	0.692314
C188	C	1.460995	-0.280364	1.192314
C189	C	1.012760	-0.706431	0.734647
C190	C	1.512760	-0.206431	1.234647
H191	H	0.994791	-0.835355	0.656388
H192	H	1.494791	-0.335355	1.156388
H193	H	0.922532	-0.732192	0.656282
H194	H	1.422532	-0.232192	1.156282
H195	H	0.927336	-0.828327	0.732979
H196	H	1.427336	-0.328327	1.232979
H197	H	1.046467	-0.658452	0.694034
H198	H	1.546467	-0.158452	1.194034
H199	H	1.051174	-0.754663	0.770689
H200	H	1.551174	-0.254663	1.270689
H201	H	1.243266	-1.105085	0.175267
H202	H	1.743266	-0.605085	0.675267
H203	H	0.633678	-0.628173	0.439838
H204	H	1.133678	-0.128173	0.939838
H205	H	1.157880	-1.204630	0.260608
H206	H	1.657880	-0.704630	0.760608
H207	H	0.969526	-1.204649	0.448714
H208	H	1.469526	-0.704649	0.948714
O209	O	1.156552	-0.373410	0.930644
O210	O	1.656552	0.126590	1.430644
C211	C	1.249916	-0.240089	0.922566
C212	C	1.749916	0.259911	1.422566
C213	C	1.198087	-0.314019	0.880310
C214	C	1.698087	0.185981	1.380310
H215	H	1.283500	-0.192036	0.881890
H216	H	1.783500	0.307964	1.381890
H217	H	1.288440	-0.288263	0.958530
H218	H	1.788440	0.211737	1.458530
H219	H	1.216135	-0.185181	0.958568
H220	H	1.716135	0.314819	1.458568
H221	H	1.231809	-0.368941	0.844268
H222	H	1.731809	0.131059	1.344268
H223	H	1.159561	-0.265779	0.844392
H224	H	1.659561	0.234221	1.344392
H225	H	0.883971	-0.906065	0.533977
H226	H	1.383971	-0.406065	1.033977
H227	H	0.969362	-0.806522	0.448621
H228	H	1.469362	-0.306522	0.948621
H229	H	1.149068	-0.384051	0.785283
H230	H	1.649068	0.115949	1.285283
