data_functionalizedCrystal
_audit_creation_method	'MofGen! by Chris Wilmer'
_symmetry_space_group_name_H-M	'P1'
_symmetry_Int_Tables_number	1
_symmetry_cell_setting	triclinic
loop_
_symmetry_equiv_pos_as_xyz
  x,y,z
_cell_length_a	23.196402
_cell_length_b	23.196402
_cell_length_c	23.196401
_cell_angle_alpha	60.007332
_cell_angle_beta	90.011299
_cell_angle_gamma	60.002409
loop_
_atom_site_label
_atom_site_type_symbol
_atom_site_fract_x
_atom_site_fract_y
_atom_site_fract_z
Zr1	Zr	0.555419	0.630963	-0.075643
O2	O	0.463357	0.751228	-0.167688
O3	O	0.583632	0.510701	-0.047429
O4	O	0.583616	0.630964	-0.167695
O5	O	0.463396	0.630964	0.047449
O6	O	0.678488	0.630962	-0.167697
O7	O	0.463373	0.630965	-0.047422
O8	O	0.678517	0.415833	0.047437
O9	O	0.463366	0.846092	-0.167684
O10	O	0.666477	0.560164	-0.035394
O11	O	0.595692	0.560165	0.035409
O12	O	0.595673	0.701759	-0.106189
O13	O	0.524888	0.701759	-0.035386
Zr14	Zr	0.706765	0.630957	0.075663
Zr15	Zr	0.706729	0.630959	-0.075646
Zr16	Zr	0.555455	0.630961	0.075666
Zr17	Zr	0.555434	0.782261	-0.075637
Zr18	Zr	0.706749	0.479660	0.075657
O19	O	0.678551	0.751219	0.047449
O20	O	0.678500	0.751223	-0.167693
O21	O	0.463408	0.751225	0.047454
O22	O	0.798827	0.510692	0.167708
O23	O	0.798775	0.510695	-0.047434
O24	O	0.583684	0.510698	0.167713
O25	O	0.798787	0.630957	-0.047429
O26	O	0.678568	0.630956	0.167715
O27	O	0.583696	0.630959	0.167717
O28	O	0.798810	0.630955	0.047442
O29	O	0.583637	0.846089	-0.167687
O30	O	0.678546	0.415831	0.167707
O31	O	0.798817	0.415828	0.167705
O32	O	0.798788	0.415830	0.047434
O33	O	0.463395	0.846090	-0.047414
O34	O	0.583666	0.846087	-0.047417
O35	O	0.666511	0.560162	0.106209
O36	O	0.737296	0.560161	0.035406
O37	O	0.666491	0.701756	-0.035389
O38	O	0.595706	0.701757	0.035414
C39	C	0.631073	0.441710	0.000003
C40	C	0.631066	0.377481	0.000001
C41	C	0.683345	0.295050	0.052260
C42	C	0.683350	0.234690	0.052267
C43	C	0.631081	0.256765	0.000003
C44	C	0.578793	0.339210	-0.052261
C45	C	0.578786	0.399568	-0.052262
C46	C	0.614792	0.201179	-0.063789
C47	C	0.614804	0.140820	-0.063788
C48	C	0.631100	0.070603	0.000006
C49	C	0.647399	0.060743	0.063803
C50	C	0.647391	0.121101	0.063802
C51	C	0.631083	0.191323	-0.000002
C52	C	0.683387	-0.077281	0.052276
C53	C	0.683387	-0.137640	0.052283
C54	C	0.578833	-0.033118	-0.052250
C55	C	0.578830	0.027239	-0.052252
C56	C	0.631111	0.005152	0.000011
C57	C	0.441826	0.630965	0.000014
C58	C	0.377592	0.630967	0.000016
C59	C	0.347407	0.630973	-0.052253
C60	C	0.287056	0.630966	-0.052253
C61	C	0.256883	0.630968	0.000010
C62	C	0.287078	0.630957	0.052288
C63	C	0.347432	0.630956	0.052291
C64	C	0.137517	0.678472	0.016298
C65	C	0.077162	0.678478	0.016291
C66	C	0.070733	0.630967	0.000007
C67	C	0.124662	0.583461	-0.016285
C68	C	0.185016	0.583460	-0.016283
C69	C	0.191440	0.630969	0.000014
C70	C	-0.024891	0.630965	-0.052265
C71	C	-0.085241	0.630953	-0.052260
C72	C	-0.085221	0.630952	0.052279
C73	C	-0.024869	0.630956	0.052277
C74	C	0.005291	0.630967	0.000001
C75	C	0.820357	0.630955	0.000006
C76	C	0.884592	0.630954	0.000005
C77	C	0.631047	0.630963	-0.189254
C78	C	0.631031	0.630964	-0.253489
C79	C	0.631111	0.820210	0.000017
C80	C	0.631117	0.884440	0.000020
C81	C	0.594075	0.704873	-0.320616
C82	C	0.594093	0.704874	-0.380971
C83	C	0.631057	0.630962	-0.374195
C84	C	0.668021	0.557043	-0.307056
C85	C	0.668008	0.557044	-0.246703
C86	C	0.625802	0.574336	-0.441514
C87	C	0.625810	0.574338	-0.501868
C88	C	0.631102	0.630956	-0.560343
C89	C	0.636372	0.687585	-0.558464
C90	C	0.636359	0.687586	-0.498111
C91	C	0.631076	0.630953	-0.439634
C92	C	0.594164	0.704871	-0.692917
C93	C	0.594187	0.704869	-0.753272
C94	C	0.668110	0.557036	-0.679354
C95	C	0.668092	0.557040	-0.619001
C96	C	0.631115	0.630960	-0.625787
C97	C	0.631137	0.630957	0.189274
C98	C	0.631152	0.630956	0.253509
C99	C	0.820338	0.441705	-0.000001
C100	C	0.884566	0.377474	-0.000005
C101	C	0.631118	0.441707	0.189267
C102	C	0.631127	0.377477	0.253500
C103	C	0.820383	0.441703	0.189263
C104	C	0.884627	0.377470	0.253494
C105	C	0.441800	0.820218	-0.189243
C106	C	0.377556	0.884450	-0.253474
C107	C	0.441846	0.820215	0.000021
C108	C	0.377617	0.884446	0.000025
C109	C	0.631066	0.820213	-0.189247
C110	C	0.631057	0.884444	-0.253479
C111	C	0.877762	0.347312	-0.036970
C112	C	0.938106	0.286968	-0.036987
C113	C	1.005253	0.256784	-0.000036
C114	C	1.012056	0.286952	0.036930
C115	C	0.951713	0.347299	0.036944
C116	C	0.668098	0.347312	0.320627
C117	C	0.668103	0.286969	0.380986
C118	C	0.631142	0.256788	0.374216
C119	C	0.594167	0.286958	0.307081
C120	C	0.594157	0.347305	0.246724
C121	C	0.951752	0.347306	0.246699
C122	C	1.012122	0.286961	0.307045
C123	C	1.005365	0.256778	0.374185
C124	C	0.938233	0.286948	0.380979
C125	C	0.877865	0.347296	0.320634
C126	C	0.310432	0.914622	-0.246679
C127	C	0.250062	0.974985	-0.307025
C128	C	0.256819	1.005172	-0.374165
C129	C	0.323951	0.974997	-0.380959
C130	C	0.384319	0.914639	-0.320613
C131	C	0.384421	0.914615	0.036984
C132	C	0.324078	0.974975	0.036985
C133	C	0.256930	1.005162	0.000031
C134	C	0.250128	0.974991	-0.036933
C135	C	0.310471	0.914636	-0.036937
C136	C	0.668025	0.914606	-0.246687
C137	C	0.668031	0.974949	-0.307034
C138	C	0.631063	1.005134	-0.374173
C139	C	0.594093	0.974966	-0.380964
C140	C	0.594092	0.914619	-0.320618
H141	H	0.725954	-0.095266	0.094835
C142	C	0.963033	0.268402	-0.129179
C143	C	0.930617	0.253808	-0.077616
H144	H	0.958404	0.247934	-0.154261
H145	H	1.011654	0.241791	-0.107180
H146	H	0.941014	0.325383	-0.161071
H147	H	0.952639	0.196826	-0.045720
H148	H	0.881987	0.280417	-0.099615
H149	H	0.698216	0.262411	0.435643
C150	C	0.580453	0.219069	0.262676
C151	C	0.553546	0.253775	0.299639
H152	H	0.555375	0.198585	0.258078
H153	H	0.629073	0.175756	0.287754
H154	H	0.575149	0.259337	0.217124
H155	H	0.558855	0.213506	0.345194
H156	H	0.504914	0.297094	0.274562
H157	H	-0.109785	0.630949	0.094835
C158	C	0.607902	0.174210	0.132828
C159	C	0.665295	0.110273	0.133922
H160	H	0.618956	0.167528	0.176116
H161	H	0.567635	0.173805	0.126801
H162	H	0.598202	0.224660	0.094829
H163	H	0.674992	0.059823	0.171918
H164	H	0.705575	0.110670	0.139957
C165	C	-0.187984	0.700654	-0.147750
C166	C	-0.118423	0.630956	-0.109715
H167	H	-0.208470	0.700651	-0.183217
H168	H	-0.188083	0.747931	-0.169216
H169	H	-0.214578	0.700639	-0.116612
H170	H	-0.091828	0.630974	-0.140853
H171	H	-0.118321	0.583667	-0.088249
C172	C	0.760219	0.993510	-0.331984
C173	C	0.708665	1.008106	-0.299556
H174	H	0.785306	1.013975	-0.327361
H175	H	0.738210	1.020123	-0.380601
H176	H	0.792112	0.936529	-0.309971
H177	H	0.676769	1.065088	-0.321572
H178	H	0.730675	0.981496	-0.250929
C179	C	0.231301	0.920711	-0.109982
C180	C	0.302984	0.881468	-0.077556
H181	H	0.226677	0.900232	-0.135056
H182	H	0.209305	0.977679	-0.141880
H183	H	0.209311	0.910823	-0.074998
H184	H	0.324973	0.891362	-0.112540
H185	H	0.324989	0.824487	-0.045656
H186	H	1.054526	0.207639	0.423316
C187	C	0.168512	1.042811	-0.262556
C188	C	0.176277	1.008137	-0.299544
H189	H	0.122963	1.063270	-0.257934
H190	H	0.173794	1.086139	-0.287631
H191	H	0.203508	1.002534	-0.217014
H192	H	0.141285	1.048416	-0.345089
H193	H	0.170988	0.964804	-0.274470
C194	C	0.892034	0.439818	0.121360
C195	C	0.959191	0.380478	0.172903
H196	H	0.896633	0.460292	0.075803
H197	H	0.866965	0.483137	0.126657
H198	H	0.866966	0.416263	0.126658
H199	H	0.984258	0.404035	0.167608
H200	H	0.984271	0.337152	0.167603
H201	H	0.563969	0.765064	-0.326148
H202	H	0.631069	1.054272	-0.423305
H203	H	0.207801	1.054307	0.000040
H204	H	0.631155	0.207650	0.423368
H205	H	1.054382	0.207645	-0.000051
C206	C	0.124795	1.067511	-0.069723
C207	C	0.176315	1.008171	-0.077544
H208	H	0.079226	1.087988	-0.094788
H209	H	0.130094	1.110827	-0.087978
H210	H	0.130119	1.043953	-0.021096
H211	H	0.170995	1.031730	-0.126171
H212	H	0.171013	0.964847	-0.059292
H213	H	1.066735	0.262367	0.067015
C214	C	0.184306	0.700683	-0.147748
C215	C	0.253864	0.630979	-0.109713
H216	H	0.163816	0.700688	-0.183218
H217	H	0.184214	0.747956	-0.169209
H218	H	0.157712	0.700670	-0.116610
H219	H	0.280459	0.630996	-0.140851
H220	H	0.253960	0.583694	-0.088252
C221	C	0.859147	0.292987	0.448015
C222	C	0.930812	0.253770	0.454783
H223	H	0.854569	0.272505	0.493580
H224	H	0.837135	0.283089	0.422947
H225	H	0.837137	0.349966	0.422937
H226	H	0.952821	0.196791	0.479857
H227	H	0.952833	0.263661	0.479862
C228	C	0.700883	0.491395	-0.739048
C229	C	0.708742	0.475790	-0.671898
H230	H	0.725967	0.441234	-0.734444
H231	H	0.719100	0.521786	-0.764150
H232	H	0.652251	0.521739	-0.764084
H233	H	0.757374	0.445451	-0.646863
H234	H	0.690528	0.445386	-0.646785
C235	C	0.600551	0.365852	0.135981
C236	C	0.553525	0.380450	0.172937
H237	H	0.575462	0.386317	0.090428
H238	H	0.635520	0.308879	0.161071
H239	H	0.622553	0.392472	0.131373
H240	H	0.531526	0.353824	0.177550
H241	H	0.518543	0.437434	0.147842
H242	H	0.698103	0.496857	-0.192043
C243	C	0.709212	-0.266157	0.147789
C244	C	0.740856	-0.228255	0.109735
H245	H	0.744693	-0.322098	0.183260
H246	H	0.678087	-0.261650	0.116669
H247	H	0.683404	-0.240435	0.169258
H248	H	0.766660	-0.253973	0.088262
H249	H	0.771993	-0.232768	0.140860
C250	C	1.030882	0.341191	0.110021
C251	C	0.959200	0.380439	0.077589
H252	H	1.035506	0.361645	0.135118
H253	H	1.052870	0.351096	0.075044
H254	H	1.052882	0.284213	0.141905
H255	H	0.937202	0.437416	0.045701
H256	H	0.937204	0.370541	0.112570
C257	C	0.532325	-0.079229	-0.098568
C258	C	0.521311	-0.008843	-0.109634
H259	H	0.496793	-0.064241	-0.133977
H260	H	0.530246	-0.110613	-0.053414
H261	H	0.577404	-0.110558	-0.100819
H262	H	0.476233	0.022483	-0.107377
H263	H	0.523383	0.022555	-0.154799
C264	C	0.741119	0.920654	-0.179688
C265	C	0.708669	0.881431	-0.172892
H266	H	0.766217	0.900169	-0.134131
H267	H	0.706149	0.977625	-0.204760
H268	H	0.773007	0.910755	-0.204774
H269	H	0.676777	0.891335	-0.147810
H270	H	0.743643	0.824447	-0.147809
C271	C	0.561260	1.067500	-0.506294
C272	C	0.553452	1.008158	-0.454768
H273	H	0.536163	1.087999	-0.551857
H274	H	0.609878	1.043945	-0.500997
H275	H	0.543023	1.110810	-0.500976
H276	H	0.571694	0.964845	-0.460082
H277	H	0.504824	1.031713	-0.460067
H278	H	0.329631	0.999530	0.067087
C279	C	0.741155	0.341270	0.399753
C280	C	0.708717	0.380491	0.328082
H281	H	0.766225	0.361761	0.404358
H282	H	0.773061	0.284300	0.421756
H283	H	0.706176	0.351164	0.421749
H284	H	0.743697	0.370593	0.306086
H285	H	0.676809	0.437475	0.306069
H286	H	0.563985	0.890068	-0.326159
H287	H	0.621515	0.528230	-0.503393
H288	H	0.823211	0.371848	0.326176
C289	C	0.370149	0.822098	-0.121340
C290	C	0.302993	0.881452	-0.172882
H291	H	0.365551	0.801623	-0.075783
H292	H	0.395227	0.845636	-0.126634
H293	H	0.395210	0.778775	-0.126641
H294	H	0.277934	0.924778	-0.167584
H295	H	0.277905	0.857914	-0.167586
C296	C	0.760237	0.471276	-0.508217
C297	C	0.708696	0.475800	-0.545207
H298	H	0.785305	0.421117	-0.462660
H299	H	0.738218	0.515295	-0.503624
H300	H	0.792149	0.474333	-0.533280
H301	H	0.676781	0.472748	-0.520147
H302	H	0.730716	0.431769	-0.549798
C303	C	1.093670	0.317698	0.262572
C304	C	1.085903	0.253810	0.299557
H305	H	1.139216	0.297234	0.257943
H306	H	1.088397	0.341230	0.287652
H307	H	1.058670	0.357952	0.217032
H308	H	1.120901	0.213558	0.345099
H309	H	1.091183	0.230265	0.274477
C310	C	0.786692	0.185667	0.155586
C311	C	0.740806	0.270772	0.109712
H312	H	0.822162	0.170682	0.191057
H313	H	0.808157	0.164307	0.129768
H314	H	0.760877	0.164298	0.177052
H315	H	0.766620	0.292141	0.088242
H316	H	0.719340	0.292141	0.135533
C317	C	0.767006	0.365893	-0.030565
C318	C	0.803958	0.380485	-0.077594
H319	H	0.721446	0.386368	-0.055649
H320	H	0.762413	0.392499	-0.008556
H321	H	0.792096	0.308912	0.004399
H322	H	0.778871	0.437467	-0.112554
H323	H	0.808548	0.353881	-0.099614
H324	H	0.207657	1.054319	-0.423296
H325	H	0.329444	0.999583	-0.435631
C326	C	0.451275	0.920711	-0.399767
C327	C	0.458102	0.881468	-0.328090
H328	H	0.496826	0.900230	-0.404384
H329	H	0.426205	0.977679	-0.421757
H330	H	0.426173	0.910826	-0.421765
H331	H	0.483200	0.891359	-0.306093
H332	H	0.483183	0.824487	-0.306090
C333	C	0.451440	0.920683	0.110039
C334	C	0.458225	0.881443	0.077607
H335	H	0.497003	0.900210	0.135114
H336	H	0.426369	0.910792	0.141936
H337	H	0.426355	0.977659	0.075058
H338	H	0.483305	0.824467	0.112588
H339	H	0.483307	0.891327	0.045708
H340	H	0.601515	0.258355	-0.115742
C341	C	0.616806	0.005586	0.167587
C342	C	0.665316	-0.016435	0.133936
H343	H	0.627874	-0.042063	0.210885
H344	H	0.570516	0.033620	0.138002
H345	H	0.619141	0.040125	0.176707
H346	H	0.662978	-0.050969	0.124812
H347	H	0.711618	-0.044482	0.163527
C348	C	0.524570	0.134906	-0.176203
C349	C	0.521370	0.117853	-0.109706
H350	H	0.489096	0.190850	-0.211673
H351	H	0.517093	0.102121	-0.183676
H352	H	0.569690	0.123325	-0.178361
H353	H	0.476252	0.129429	-0.107546
H354	H	0.528842	0.150649	-0.102232
C355	C	0.582568	0.226045	-0.189908
C356	C	0.596887	0.151661	-0.133913
H357	H	0.571502	0.232740	-0.233200
H358	H	0.622842	0.226440	-0.183883
H359	H	0.543640	0.269401	-0.190622
H360	H	0.635819	0.108304	-0.133196
H361	H	0.556609	0.151259	-0.139939
H362	H	0.725922	0.167562	0.094824
H363	H	0.536211	0.466690	-0.094818
C364	C	0.483300	0.331964	-0.078032
C365	C	0.521326	0.363487	-0.109706
H366	H	0.447819	0.346954	-0.113495
H367	H	0.461849	0.353328	-0.052213
H368	H	0.514443	0.274228	-0.046915
H369	H	0.490184	0.421224	-0.140819
H370	H	0.542778	0.342127	-0.135537
H371	H	0.371962	0.630979	-0.094818
H372	H	0.228925	0.544778	-0.029546
H373	H	0.119430	0.544777	-0.029549
C374	C	0.615346	0.462405	-0.391638
C375	C	0.619979	0.512100	-0.377241
H376	H	0.611747	0.423988	-0.351961
H377	H	0.656381	0.434364	-0.401144
H378	H	0.574757	0.495162	-0.431569
H379	H	0.660571	0.479343	-0.337313
H380	H	0.578939	0.540143	-0.367726
H381	H	-0.000293	0.630955	0.094836
C382	C	0.028544	0.561257	-0.106510
C383	C	0.008275	0.630963	-0.109716
H384	H	0.049022	0.561254	-0.141975
H385	H	-0.011717	0.561260	-0.113994
H386	H	0.062083	0.513981	-0.061388
H387	H	-0.025269	0.678240	-0.154836
H388	H	0.048541	0.630967	-0.102238
C389	C	0.036280	0.772381	0.048509
C390	C	0.017888	0.730693	0.034201
H391	H	-0.000311	0.804612	0.059571
H392	H	0.042689	0.806630	0.008234
H393	H	0.078932	0.734171	0.087435
H394	H	-0.024761	0.768904	-0.004728
H395	H	0.011471	0.696441	0.074481
H396	H	0.142768	0.717111	0.029617
C397	C	0.233659	0.700661	0.106539
C398	C	0.253915	0.630962	0.109738
H399	H	0.213191	0.700657	0.142012
H400	H	0.200122	0.747937	0.061427
H401	H	0.273931	0.700648	0.114023
H402	H	0.213642	0.630978	0.102249
H403	H	0.287454	0.583673	0.154861
H404	H	0.563998	0.765061	-0.435636
C405	C	0.439957	0.630955	0.098710
C406	C	0.380613	0.630953	0.109746
H407	H	0.460443	0.630949	0.134183
H408	H	0.426195	0.678238	0.053598
H409	H	0.473485	0.583669	0.100875
H410	H	0.347083	0.678242	0.107576
H411	H	0.394374	0.583666	0.154869
C412	C	0.646812	0.799518	-0.560104
C413	C	0.642162	0.749821	-0.496039
H414	H	0.650401	0.837934	-0.558821
H415	H	0.605786	0.827561	-0.597673
H416	H	0.687411	0.766763	-0.567260
H417	H	0.601560	0.782576	-0.488885
H418	H	0.683192	0.721777	-0.458458
H419	H	0.640678	0.733691	-0.606077
H420	H	0.564056	0.765061	-0.698443
H421	H	0.698118	0.496864	-0.301543
C422	C	0.580460	0.830880	-0.834829
C423	C	0.553561	0.786119	-0.827062
H424	H	0.555375	0.881043	-0.880383
H425	H	0.629078	0.800516	-0.829526
H426	H	0.575156	0.841450	-0.799849
H427	H	0.558870	0.775544	-0.862039
H428	H	0.504931	0.816489	-0.832372
