data_functionalizedCrystal
_audit_creation_method	'MofGen! by Chris Wilmer'
_symmetry_space_group_name_H-M	'P1'
_symmetry_Int_Tables_number	1
_symmetry_cell_setting	triclinic
loop_
_symmetry_equiv_pos_as_xyz
  x,y,z
_cell_length_a	14.044220
_cell_length_b	10.540539
_cell_length_c	13.101039
_cell_angle_alpha	93.398267
_cell_angle_beta	86.340132
_cell_angle_gamma	88.857185
loop_
_atom_site_label
_atom_site_type_symbol
_atom_site_fract_x
_atom_site_fract_y
_atom_site_fract_z
O1	O	1.264944	0.299850	-0.085096
O2	O	0.988901	0.288796	-0.085123
O3	O	1.133220	0.110253	-0.085108
O4	O	1.120625	0.478393	-0.085111
O5	O	1.122866	0.123087	0.085321
O6	O	0.978547	0.301630	0.085306
O7	O	1.254589	0.312683	0.085332
Zn8	Zn	1.114924	0.309194	0.112379
Zn9	Zn	1.128566	0.292285	-0.112169
O10	O	1.110270	0.491226	0.085317
C11	C	0.948377	0.290375	0.000088
C12	C	0.843054	0.275945	0.000078
C13	C	0.650213	0.249565	0.000099
C14	C	0.593272	0.351908	0.000102
C15	C	0.485969	0.337230	0.000114
C16	C	0.757526	0.264241	0.000087
C17	C	1.127098	0.069271	0.000105
C18	C	1.124273	-0.071963	0.000099
C19	C	1.016007	-0.266367	-0.000294
C20	C	1.018849	-0.119430	0.000090
C21	C	1.169094	-0.121162	0.097427
C22	C	1.165492	-0.268064	0.097509
C23	C	1.179411	-0.282960	-0.096300
C24	C	1.180460	-0.135977	-0.097587
C25	C	1.295114	0.311104	0.000119
C26	C	1.400437	0.325534	0.000123
C27	C	1.116392	0.532208	0.000103
C28	C	1.119218	0.673442	0.000102
N29	N	1.105620	0.320734	0.265626
N30	N	1.137878	0.280737	-0.265416
C31	C	1.092962	0.336445	0.474667
C32	C	1.150533	0.265029	0.525549
C33	C	1.143490	0.273771	0.641867
C34	C	1.100004	0.327705	0.358339
H35	H	0.983167	-0.086117	-0.069679
C36	C	1.282328	-0.336433	-0.097186
H37	H	1.288625	-0.385098	-0.039126
H38	H	1.325482	-0.268211	-0.095047
H39	H	1.296359	-0.389010	-0.157925
H40	H	1.129451	-0.076672	0.169848
H41	H	1.205111	0.197322	0.481752
C42	C	0.636278	0.485164	0.000077
H43	H	0.703804	0.477678	0.000059
H44	H	0.612191	0.534500	0.059504
H45	H	0.619387	0.525511	-0.059368
H46	H	0.618376	0.150932	0.000105
H47	H	0.978603	-0.304433	-0.070090
H48	H	1.149772	-0.323517	-0.170068
H49	H	0.970315	-0.295542	0.069103
C50	C	0.958820	-0.061394	0.094495
H51	H	0.932608	-0.127632	0.132767
H52	H	0.908627	-0.009780	0.072794
H53	H	0.998205	-0.010981	0.136184
H54	H	1.038389	0.404149	0.518459
H55	H	1.123576	-0.294577	0.170256
H56	H	1.241043	-0.308035	0.101931
H57	H	1.246295	-0.090708	0.101053
C58	C	1.136308	-0.093051	-0.194862
H59	H	1.170608	-0.132094	-0.253694
H60	H	1.139577	-0.003273	-0.196650
H61	H	1.071501	-0.117318	-0.194261
C62	C	1.284778	-0.093367	-0.105519
H63	H	1.295480	-0.035729	-0.049102
H64	H	1.296890	-0.052614	-0.167634
H65	H	1.326328	-0.165481	-0.104687
