data_functionalizedCrystal
_audit_creation_method	'MofGen! by Chris Wilmer'
_symmetry_space_group_name_H-M	'P1'
_symmetry_Int_Tables_number	1
_symmetry_cell_setting	triclinic
loop_
_symmetry_equiv_pos_as_xyz
  x,y,z
_cell_length_a	18.215407
_cell_length_b	16.625545
_cell_length_c	18.215399
_cell_angle_alpha	90.026887
_cell_angle_beta	90.019833
_cell_angle_gamma	90.026006
loop_
_atom_site_label
_atom_site_type_symbol
_atom_site_fract_x
_atom_site_fract_y
_atom_site_fract_z
Zn1	Zn	1.125069	-0.321000	0.416121
Zn2	Zn	1.375069	-0.071000	0.666121
Zn3	Zn	1.625069	0.179000	0.916121
Zn4	Zn	1.875069	0.429000	1.166121
Zn5	Zn	1.124975	-0.455841	0.293057
Zn6	Zn	1.374975	-0.205841	0.543057
Zn7	Zn	1.624975	0.044159	0.793057
Zn8	Zn	1.874975	0.294159	1.043057
Zn9	Zn	1.002001	-0.321027	0.293069
Zn10	Zn	1.252001	-0.071027	0.543069
Zn11	Zn	1.502001	0.178973	0.793069
Zn12	Zn	1.752001	0.428973	1.043069
Zn13	Zn	1.001966	-0.455796	0.416082
Zn14	Zn	1.251966	-0.205796	0.666082
Zn15	Zn	1.501966	0.044204	0.916082
Zn16	Zn	1.751966	0.294204	1.166082
O17	O	1.063503	-0.388416	0.354582
O18	O	1.313503	-0.138416	0.604582
O19	O	1.563503	0.111584	0.854582
O20	O	1.813503	0.361584	1.104582
O21	O	1.228040	-0.338895	0.399808
O22	O	1.478040	-0.088895	0.649808
O23	O	1.728040	0.161105	0.899808
O24	O	1.978040	0.411105	1.149808
O25	O	1.108639	-0.437987	0.190074
O26	O	1.358639	-0.187987	0.440074
O27	O	1.608639	0.062013	0.690074
O28	O	1.858639	0.312013	0.940074
O29	O	1.018380	-0.208191	0.309413
O30	O	1.268380	0.041809	0.559413
O31	O	1.518380	0.291809	0.809413
O32	O	1.768380	0.541809	1.059413
O33	O	1.227972	-0.437961	0.309394
O34	O	1.477972	-0.187961	0.559394
O35	O	1.727972	0.062039	0.809394
O36	O	1.977972	0.312039	1.059394
O37	O	1.108797	-0.208171	0.399819
O38	O	1.358797	0.041829	0.649819
O39	O	1.608797	0.291829	0.899819
O40	O	1.858797	0.541829	1.149819
O41	O	1.018290	-0.338940	0.190083
O42	O	1.268290	-0.088940	0.440083
O43	O	1.518290	0.161060	0.690083
O44	O	1.768290	0.411060	0.940083
O45	O	0.899012	-0.338896	0.309375
O46	O	1.149012	-0.088896	0.559375
O47	O	1.399012	0.161104	0.809375
O48	O	1.649012	0.411104	1.059375
O49	O	1.018319	-0.437885	0.519072
O50	O	1.268319	-0.187885	0.769072
O51	O	1.518319	0.062115	1.019072
O52	O	1.768319	0.312115	1.269072
O53	O	0.898986	-0.437910	0.399753
O54	O	1.148986	-0.187910	0.649753
O55	O	1.398986	0.062090	0.899753
O56	O	1.648986	0.312090	1.149753
O57	O	1.108763	-0.338851	0.519100
O58	O	1.358763	-0.088851	0.769100
O59	O	1.608763	0.161149	1.019100
O60	O	1.858763	0.411149	1.269100
O61	O	1.108604	-0.568667	0.309356
O62	O	1.358604	-0.318667	0.559356
O63	O	1.608604	-0.068667	0.809356
O64	O	1.858604	0.181333	1.059356
O65	O	1.018229	-0.568634	0.399742
O66	O	1.268229	-0.318634	0.649742
O67	O	1.518229	-0.068634	0.899742
O68	O	1.768229	0.181366	1.149742
C69	C	0.872296	-0.388402	0.354561
C70	C	1.122296	-0.138402	0.604561
C71	C	1.372296	0.111598	0.854561
C72	C	1.622296	0.361598	1.104561
C73	C	0.790497	-0.388415	0.354570
C74	C	1.040497	-0.138415	0.604570
C75	C	1.290497	0.111585	0.854570
C76	C	1.540497	0.361585	1.104570
C77	C	0.602309	-0.440053	0.401570
C78	C	0.852309	-0.190053	0.651570
C79	C	1.102309	0.059947	0.901570
C80	C	1.352309	0.309947	1.151570
C81	C	0.525450	-0.440056	0.401579
C82	C	0.775450	-0.190056	0.651579
C83	C	1.025450	0.059944	0.901579
C84	C	1.275450	0.309944	1.151579
C85	C	0.525448	-0.336793	0.307611
C86	C	0.775448	-0.086793	0.557611
C87	C	1.025448	0.163207	0.807611
C88	C	1.275448	0.413207	1.057611
C89	C	0.602305	-0.336787	0.307606
C90	C	0.852305	-0.086787	0.557606
C91	C	1.102305	0.163213	0.807606
C92	C	1.352305	0.413213	1.057606
C93	C	0.640734	-0.388422	0.354584
C94	C	0.890734	-0.138422	0.604584
C95	C	1.140734	0.111578	0.854584
C96	C	1.390734	0.361578	1.104584
C97	C	0.487018	-0.388430	0.354598
C98	C	0.737018	-0.138430	0.604598
C99	C	0.987018	0.111570	0.854598
C100	C	1.237018	0.361570	1.104598
C101	C	0.403684	-0.388433	0.354608
C102	C	0.653684	-0.138433	0.604608
C103	C	0.903684	0.111567	0.854608
C104	C	1.153684	0.361567	1.104608
C105	C	0.724073	-0.388418	0.354576
C106	C	0.974073	-0.138418	0.604576
C107	C	1.224073	0.111582	0.854576
C108	C	1.474073	0.361582	1.104576
C109	C	1.063423	-0.597907	0.354559
C110	C	1.313423	-0.347907	0.604559
C111	C	1.563423	-0.097907	0.854559
C112	C	1.813423	0.152093	1.104559
C113	C	1.063456	-0.687528	0.354574
C114	C	1.313456	-0.437528	0.604574
C115	C	1.563456	-0.187528	0.854574
C116	C	1.813456	0.062472	1.104574
C117	C	1.063484	-0.760310	0.354589
C118	C	1.313484	-0.510310	0.604589
C119	C	1.563484	-0.260310	0.854589
C120	C	1.813484	-0.010310	1.104589
C121	C	1.063527	-0.851619	0.354605
C122	C	1.313527	-0.601619	0.604605
C123	C	1.563527	-0.351619	0.854605
C124	C	1.813527	-0.101619	1.104605
C125	C	1.063565	-0.924395	0.354614
C126	C	1.313565	-0.674395	0.604614
C127	C	1.563565	-0.424395	0.854614
C128	C	1.813565	-0.174395	1.104614
C129	C	1.063608	-1.015709	0.354629
C130	C	1.313608	-0.765709	0.604629
C131	C	1.563608	-0.515709	0.854629
C132	C	1.813608	-0.265709	1.104629
C133	C	1.255456	-0.388430	0.354604
C134	C	1.505456	-0.138430	0.604604
C135	C	1.755456	0.111570	0.854604
C136	C	2.005456	0.361570	1.104604
C137	C	1.337254	-0.388436	0.354613
C138	C	1.587254	-0.138436	0.604613
C139	C	1.837254	0.111564	0.854613
C140	C	2.087254	0.361564	1.104613
C141	C	1.063547	-0.388360	0.546535
C142	C	1.313547	-0.138360	0.796535
C143	C	1.563547	0.111640	1.046535
C144	C	1.813547	0.361640	1.296535
C145	C	1.063567	-0.388336	0.628334
C146	C	1.313567	-0.138336	0.878334
C147	C	1.563567	0.111664	1.128334
C148	C	1.813567	0.361664	1.378334
C149	C	1.063603	-0.178107	0.354622
C150	C	1.313603	0.071893	0.604622
C151	C	1.563603	0.321893	0.854622
C152	C	1.813603	0.571893	1.104622
C153	C	1.063646	-0.088486	0.354639
C154	C	1.313646	0.161514	0.604639
C155	C	1.563646	0.411514	0.854639
C156	C	1.813646	0.661514	1.104639
C157	C	1.063500	-0.388413	0.163376
C158	C	1.313500	-0.138413	0.413376
C159	C	1.563500	0.111587	0.663376
C160	C	1.813500	0.361587	0.913376
C161	C	1.063624	-0.388210	0.081578
C162	C	1.313624	-0.138210	0.331578
C163	C	1.563624	0.111790	0.581578
C164	C	1.813624	0.361790	0.831578
C165	C	1.110677	-0.336721	0.816544
C166	C	1.360677	-0.086721	1.066544
C167	C	1.610677	0.163279	1.316544
C168	C	1.860677	0.413279	1.566544
C169	C	1.110686	-0.336698	0.893403
C170	C	1.360686	-0.086698	1.143403
C171	C	1.610686	0.163302	1.393403
C172	C	1.860686	0.413302	1.643403
C173	C	1.016508	-0.439827	0.893362
C174	C	1.266508	-0.189827	1.143362
C175	C	1.516508	0.060173	1.393362
C176	C	1.766508	0.310173	1.643362
C177	C	1.016496	-0.439846	0.816505
C178	C	1.266496	-0.189846	1.066505
C179	C	1.516496	0.060154	1.316505
C180	C	1.766496	0.310154	1.566505
C181	C	1.063585	-0.388294	0.778098
C182	C	1.313585	-0.138294	1.028098
C183	C	1.563585	0.111706	1.278098
C184	C	1.813585	0.361706	1.528098
C185	C	1.063606	-0.388252	0.931814
C186	C	1.313606	-0.138252	1.181814
C187	C	1.563606	0.111748	1.431814
C188	C	1.813606	0.361748	1.681814
C189	C	1.063615	-0.388227	1.015148
C190	C	1.313615	-0.138227	1.265148
C191	C	1.563615	0.111773	1.515148
C192	C	1.813615	0.361773	1.765148
C193	C	1.063575	-0.388318	0.694759
C194	C	1.313575	-0.138318	0.944759
C195	C	1.563575	0.111682	1.194759
C196	C	1.813575	0.361682	1.444759
H197	H	0.633592	-0.294737	0.269344
H198	H	0.883592	-0.044737	0.519344
H199	H	1.133592	0.205263	0.769344
H200	H	1.383592	0.455263	1.019344
H201	H	0.494150	-0.294755	0.269361
H202	H	0.744150	-0.044755	0.519361
H203	H	0.994150	0.205245	0.769361
H204	H	1.244150	0.455245	1.019361
C205	C	1.162463	-0.280008	0.774299
C206	C	1.412463	-0.030008	1.024299
C207	C	1.662463	0.219992	1.274299
C208	C	1.912463	0.469992	1.524299
H209	H	1.190505	-0.249283	0.808207
H210	H	1.440505	0.000717	1.058207
H211	H	1.690505	0.250717	1.308207
H212	H	1.940505	0.500717	1.558207
H213	H	1.194513	-0.310853	0.744314
H214	H	1.444513	-0.060853	0.994314
H215	H	1.694513	0.189147	1.244314
H216	H	1.944513	0.439147	1.494314
H217	H	1.134313	-0.244881	0.744323
H218	H	1.384313	0.005119	0.994323
H219	H	1.634313	0.255119	1.244323
H220	H	1.884313	0.505119	1.494323
C221	C	0.644582	-0.496846	0.453244
C222	C	0.894582	-0.246846	0.703244
C223	C	1.144582	0.003154	0.953244
C224	C	1.394582	0.253154	1.203244
H225	H	0.695859	-0.489456	0.446507
H226	H	0.945859	-0.239456	0.696507
H227	H	1.195859	0.010544	0.946507
H228	H	1.445859	0.260544	1.196507
H229	H	0.632013	-0.485118	0.502711
H230	H	0.882013	-0.235118	0.752711
H231	H	1.132013	0.014882	1.002711
H232	H	1.382013	0.264882	1.252711
H233	H	0.631959	-0.551009	0.442381
H234	H	0.881959	-0.301009	0.692381
H235	H	1.131959	-0.051009	0.942381
H236	H	1.381959	0.198991	1.192381
H237	H	0.494168	-0.482098	0.439841
H238	H	0.744168	-0.232098	0.689841
H239	H	0.994168	0.017902	0.939841
H240	H	1.244168	0.267902	1.189841
H241	H	1.149032	-0.294701	0.924703
H242	H	1.399032	-0.044701	1.174703
H243	H	1.649032	0.205299	1.424703
H244	H	1.899032	0.455299	1.674703
H245	H	0.978142	-0.481842	0.785201
H246	H	1.228142	-0.231842	1.035201
H247	H	1.478142	0.018158	1.285201
H248	H	1.728142	0.268158	1.535201
C249	C	0.964721	-0.496536	0.935612
C250	C	1.214721	-0.246536	1.185612
C251	C	1.464721	0.003464	1.435612
C252	C	1.714721	0.253464	1.685612
H253	H	0.971478	-0.489145	0.986892
H254	H	1.221478	-0.239145	1.236892
H255	H	1.471478	0.010855	1.486892
H256	H	1.721478	0.260855	1.736892
H257	H	0.915277	-0.484740	0.923011
H258	H	1.165277	-0.234740	1.173011
H259	H	1.415277	0.015260	1.423011
H260	H	1.665277	0.265260	1.673011
H261	H	0.975472	-0.550716	0.923004
H262	H	1.225472	-0.300716	1.173004
H263	H	1.475472	-0.050716	1.423004
H264	H	1.725472	0.199284	1.673004
