data_functionalizedCrystal
_audit_creation_method	'MofGen! by Chris Wilmer'
_symmetry_space_group_name_H-M	'P1'
_symmetry_Int_Tables_number	1
_symmetry_cell_setting	triclinic
loop_
_symmetry_equiv_pos_as_xyz
  x,y,z
_cell_length_a	14.971486
_cell_length_b	19.288865
_cell_length_c	13.448316
_cell_angle_alpha	89.988163
_cell_angle_beta	89.998199
_cell_angle_gamma	83.375189
loop_
_atom_site_label
_atom_site_type_symbol
_atom_site_fract_x
_atom_site_fract_y
_atom_site_fract_z
O1	O	1.186458	0.090517	-0.082589
O2	O	0.925999	0.101357	-0.082618
O3	O	1.063755	-0.005169	-0.082583
O4	O	1.048703	0.197043	-0.082624
O5	O	1.063737	-0.005175	0.082801
O6	O	0.925982	0.101350	0.082766
O7	O	1.186441	0.090511	0.082794
Cu8	Cu	1.056210	0.095930	0.097881
Cu9	Cu	1.056230	0.095938	-0.097704
O10	O	1.048685	0.197036	0.082760
C11	C	0.892669	0.100869	0.000071
C12	C	0.793379	0.099416	0.000061
C13	C	0.735816	0.161997	0.000049
C14	C	0.642524	0.160628	0.000065
C15	C	0.606797	0.096677	0.000084
C16	C	0.664368	0.034092	0.000098
C17	C	0.757658	0.035461	0.000090
C18	C	0.469921	0.031241	0.000112
C19	C	0.376624	0.029871	0.000118
C20	C	0.354786	0.156407	0.000087
C21	C	0.448077	0.157777	0.000079
C22	C	0.505641	0.095191	0.000091
C23	C	1.063262	-0.031050	0.000112
C24	C	1.061808	-0.108158	0.000120
C25	C	1.142636	-0.152591	0.000134
C26	C	1.141271	-0.225043	0.000118
C27	C	1.059071	-0.253058	0.000109
C28	C	0.978232	-0.208615	0.000089
C29	C	0.979600	-0.136166	0.000095
C30	C	0.994447	-0.361558	0.058032
C31	C	0.993083	-0.434007	0.058032
C32	C	1.054848	-0.476517	0.000086
C33	C	1.117994	-0.446571	-0.057848
C34	C	1.119362	-0.374121	-0.057842
C35	C	1.057579	-0.331617	0.000101
C36	C	1.134201	-0.599511	0.000081
C37	C	1.132832	-0.671963	0.000059
C38	C	0.969791	-0.655535	0.000040
C39	C	0.971163	-0.583084	0.000052
C40	C	1.053370	-0.555077	0.000077
C41	C	1.219771	0.090999	0.000104
C42	C	1.319061	0.092452	0.000107
C43	C	1.049178	0.222918	0.000063
C44	C	1.050632	0.300026	0.000048
N45	N	1.056202	0.095924	0.235445
N46	N	1.056245	0.095938	-0.235269
C47	C	1.117219	0.048774	0.287501
C48	C	1.117224	0.048773	0.391604
C49	C	1.056217	0.095927	0.443650
C50	C	0.995193	0.143079	0.391587
C51	C	0.995184	0.143076	0.287486
C52	C	0.995218	0.143084	0.608567
C53	C	0.995228	0.143088	0.712675
C54	C	1.117258	0.048781	0.712686
C55	C	1.117249	0.048778	0.608584
C56	C	1.056227	0.095932	0.556529
H57	H	1.209576	-0.129793	0.000151
H58	H	1.166902	0.010379	0.245132
O59	O	1.176593	0.002954	0.442017
C60	C	1.230431	-0.038670	0.373757
H61	H	1.231305	-0.010194	0.299538
H62	H	1.301907	-0.049161	0.403824
H63	H	1.201617	-0.090314	0.362714
O64	O	1.176501	0.002879	0.763135
C65	C	1.162237	-0.065901	0.737738
H66	H	1.127751	-0.065862	0.662161
H67	H	1.229611	-0.100015	0.734173
H68	H	1.117817	-0.087444	0.796343
O69	O	0.525713	-0.029619	0.000075
C70	C	0.474178	-0.086358	0.000112
H71	H	0.404472	-0.068784	-0.031190
H72	H	0.508767	-0.130206	-0.047904
H73	H	0.467623	-0.105966	0.079458
H74	H	0.945549	0.181485	0.755046
H75	H	1.166930	0.010386	0.566209
H76	H	0.941662	-0.458383	0.105199
H77	H	1.170776	-0.349742	-0.105015
H78	H	0.945524	0.181479	0.566187
O79	O	1.214131	-0.572414	0.000044
C80	C	1.285183	-0.627173	0.000063
H81	H	1.260310	-0.676404	-0.031252
H82	H	1.342591	-0.611975	-0.047951
H83	H	1.310102	-0.637418	0.079405
H84	H	0.944148	-0.326952	0.105224
O85	O	0.935893	0.188788	0.442253
C86	C	0.880861	0.151519	0.502475
H87	H	0.916709	0.097213	0.518084
H88	H	0.866602	0.180494	0.575672
H89	H	0.814773	0.146713	0.462371
O90	O	1.178088	-0.487757	-0.114166
C91	C	1.234096	-0.445790	-0.165314
H92	H	1.234957	-0.394142	-0.124331
H93	H	1.305282	-0.473934	-0.169051
H94	H	1.207340	-0.435356	-0.243916
H95	H	0.945497	0.181469	0.245103
O96	O	1.211331	-0.715155	-0.000108
C97	C	1.215424	-0.757548	-0.085757
H98	H	1.169586	-0.731041	-0.145629
H99	H	1.287511	-0.765625	-0.114494
H100	H	1.192486	-0.810255	-0.066407
H101	H	0.764896	0.214073	0.000033
H102	H	0.902863	-0.678344	0.000027
O103	O	0.629815	-0.028091	0.000158
C104	C	0.700631	-0.083033	0.000140
H105	H	0.763929	-0.063511	0.031447
H106	H	0.681315	-0.127681	0.048163
H107	H	0.713911	-0.102335	-0.079200
O108	O	0.586734	0.221484	0.000008
C109	C	0.638272	0.278221	0.000008
H110	H	0.707971	0.260649	-0.031307
H111	H	0.603675	0.322075	-0.048015
H112	H	0.644843	0.297819	0.079345
H113	H	1.207093	-0.261227	0.000125
H114	H	0.477162	0.209852	0.000054
H115	H	0.911305	-0.231430	0.000079
O116	O	0.901103	-0.092971	-0.000089
C117	C	0.897038	-0.050542	-0.085724
H118	H	0.942892	-0.077024	-0.145588
H119	H	0.824960	-0.042449	-0.114485
H120	H	0.919975	0.002155	-0.066347
H121	H	0.905343	-0.546906	0.000046
O122	O	0.341769	-0.032189	0.000107
C123	C	0.247085	-0.019974	0.000135
H124	H	0.224961	0.034209	-0.031202
H125	H	0.218598	-0.060903	-0.047855
H126	H	0.221131	-0.023351	0.079483
H127	H	0.307912	0.207367	0.000081
O128	O	0.813615	-0.025312	0.000273
C129	C	0.868249	-0.028301	0.085911
H130	H	0.833939	0.007187	0.145772
H131	H	0.878967	-0.084242	0.114675
H132	H	0.936017	-0.010265	0.066537
