data_functionalizedCrystal
_audit_creation_method	'MofGen! by Chris Wilmer'
_symmetry_space_group_name_H-M	'P1'
_symmetry_Int_Tables_number	1
_symmetry_cell_setting	triclinic
loop_
_symmetry_equiv_pos_as_xyz
  x,y,z
_cell_length_a	14.971506
_cell_length_b	14.044220
_cell_length_c	13.448316
_cell_angle_alpha	89.992660
_cell_angle_beta	89.992937
_cell_angle_gamma	88.405633
loop_
_atom_site_label
_atom_site_type_symbol
_atom_site_fract_x
_atom_site_fract_y
_atom_site_fract_z
O1	O	1.196675	0.123630	-0.082702
O2	O	1.530009	0.456963	0.250632
O3	O	1.863342	0.790297	0.583965
O4	O	0.937442	0.138404	-0.082703
O5	O	1.270775	0.471737	0.250631
O6	O	1.604108	0.805071	0.583964
O7	O	1.063167	-0.006972	-0.082692
O8	O	1.396501	0.326361	0.250641
O9	O	1.729834	0.659694	0.583974
O10	O	1.070950	0.269006	-0.082712
O11	O	1.404283	0.602340	0.250621
O12	O	1.737616	0.935673	0.583955
O13	O	1.063149	-0.006981	0.082691
O14	O	1.396483	0.326352	0.416025
O15	O	1.729816	0.659685	0.749358
O16	O	0.937424	0.138395	0.082681
O17	O	1.270757	0.471728	0.416015
O18	O	1.604090	0.805062	0.749348
O19	O	1.196657	0.123621	0.082682
O20	O	1.529991	0.456954	0.416015
O21	O	1.863324	0.790288	0.749349
Cu22	Cu	1.067039	0.131007	0.097782
Cu23	Cu	1.400372	0.464341	0.431116
Cu24	Cu	1.733706	0.797674	0.764449
Cu25	Cu	1.067060	0.131018	-0.097803
Cu26	Cu	1.400393	0.464351	0.235530
Cu27	Cu	1.733727	0.797684	0.568864
O28	O	1.070932	0.268997	0.082672
O29	O	1.404265	0.602331	0.416005
O30	O	1.737598	0.935664	0.749338
C31	C	0.904056	0.137735	-0.000011
C32	C	1.237389	0.471069	0.333323
C33	C	1.570723	0.804402	0.666656
C34	C	0.804603	0.135745	-0.000011
C35	C	1.137936	0.469078	0.333323
C36	C	1.471270	0.802412	0.666656
C37	C	0.372450	0.213556	-0.000026
C38	C	0.705784	0.546889	0.333307
C39	C	1.039117	0.880222	0.666640
C40	C	0.465897	0.215418	-0.000031
C41	C	0.799230	0.548752	0.333303
C42	C	1.132564	0.882085	0.666636
C43	C	0.516388	0.130004	-0.000020
C44	C	0.849722	0.463338	0.333313
C45	C	1.183055	0.796671	0.666646
C46	C	0.473428	0.042722	-0.000015
C47	C	0.806761	0.376055	0.333318
C48	C	1.140095	0.709388	0.666651
C49	C	0.379983	0.040860	-0.000018
C50	C	0.713316	0.374193	0.333315
C51	C	1.046649	0.707527	0.666648
C52	C	0.668197	0.046608	-0.000007
C53	C	1.001530	0.379941	0.333326
C54	C	1.334864	0.713275	0.666659
C55	C	0.761649	0.048469	-0.000003
C56	C	1.094982	0.381803	0.333330
C57	C	1.428316	0.715136	0.666664
C58	C	0.754112	0.221166	-0.000020
C59	C	1.087445	0.554499	0.333313
C60	C	1.420778	0.887833	0.666647
C61	C	0.660666	0.219305	-0.000023
C62	C	0.994000	0.552638	0.333311
C63	C	1.327333	0.885971	0.666644
C64	C	0.617712	0.132022	-0.000016
C65	C	0.951046	0.465355	0.333317
C66	C	1.284379	0.798688	0.666651
C67	C	1.059752	-0.042295	-0.000000
C68	C	1.393085	0.291038	0.333333
C69	C	1.726419	0.624371	0.666667
C70	C	1.049591	-0.147533	0.000001
C71	C	1.382924	0.185800	0.333334
C72	C	1.716257	0.519133	0.666668
C73	C	1.031014	-0.340217	-0.000013
C74	C	1.364348	-0.006884	0.333320
C75	C	1.697681	0.326449	0.666653
C76	C	1.103081	-0.397763	-0.000016
C77	C	1.436414	-0.064430	0.333317
C78	C	1.769748	0.268903	0.666651
C79	C	1.092745	-0.504979	-0.000024
C80	C	1.426078	-0.171646	0.333309
C81	C	1.759411	0.161687	0.666643
C82	C	1.041349	-0.232991	-0.000005
C83	C	1.374682	0.100342	0.333328
C84	C	1.708016	0.433675	0.666661
C85	C	1.230043	0.124290	-0.000012
C86	C	1.563377	0.457623	0.333321
C87	C	1.896710	0.790956	0.666655
C88	C	1.329496	0.126280	-0.000019
C89	C	1.662829	0.459613	0.333315
C90	C	1.996163	0.792947	0.666648
C91	C	1.074347	0.304320	-0.000023
C92	C	1.407680	0.637654	0.333311
C93	C	1.741014	0.970987	0.666644
C94	C	1.084508	0.409558	-0.000030
C95	C	1.417842	0.742892	0.333303
C96	C	1.751175	1.076225	0.666636
N97	N	1.067030	0.130999	0.235347
N98	N	1.400364	0.464332	0.568680
N99	N	1.733697	0.797666	0.902013
N100	N	1.067075	0.131018	-0.235367
N101	N	1.400408	0.464352	0.097966
N102	N	1.733742	0.797685	0.431299
C103	C	1.122723	0.066653	0.287392
C104	C	1.456056	0.399986	0.620725
C105	C	1.789389	0.733320	0.954058
C106	C	1.122728	0.066652	0.391495
C107	C	1.456062	0.399986	0.724828
C108	C	1.789395	0.733319	1.058162
C109	C	1.067046	0.131003	0.443551
C110	C	1.400379	0.464336	0.776885
C111	C	1.733712	0.797670	1.110218
C112	C	1.011347	0.195352	0.391499
C113	C	1.344680	0.528685	0.724833
C114	C	1.678014	0.862019	1.058166
C115	C	1.011337	0.195348	0.287398
C116	C	1.344671	0.528681	0.620731
C117	C	1.678004	0.862014	0.954065
C118	C	1.011372	0.195358	0.608479
C119	C	1.344706	0.528692	0.941813
C120	C	1.678039	0.862025	1.275146
C121	C	1.011383	0.195364	0.712588
C122	C	1.344716	0.528698	1.045921
C123	C	1.678049	0.862031	1.379254
C124	C	1.122763	0.066663	0.712576
C125	C	1.456097	0.399996	1.045910
C126	C	1.789430	0.733330	1.379243
C127	C	1.122754	0.066659	0.608475
C128	C	1.456087	0.399992	0.941808
C129	C	1.789420	0.733325	1.275142
C130	C	1.067056	0.131009	0.556430
C131	C	1.400389	0.464343	0.889763
C132	C	1.733723	0.797676	1.223097
H133	H	0.514545	-0.026824	-0.000013
H134	H	0.847879	0.306510	0.333320
H135	H	1.181212	0.639843	0.666654
H136	H	0.961559	-0.371471	-0.000016
H137	H	1.294892	-0.038137	0.333317
H138	H	1.628225	0.295196	0.666651
Cl139	Cl	0.825123	-0.058910	0.000002
Cl140	Cl	1.158456	0.274423	0.333335
Cl141	Cl	1.491789	0.607757	0.666669
Cl142	Cl	0.308985	0.320940	-0.000032
Cl143	Cl	0.642318	0.654274	0.333302
Cl144	Cl	0.975651	0.987607	0.666635
H145	H	1.168070	0.014255	0.245014
H146	H	1.501404	0.347589	0.578347
H147	H	1.834737	0.680922	0.911681
Cl148	Cl	1.192742	-0.014242	0.456925
Cl149	Cl	1.526075	0.319091	0.790258
Cl150	Cl	1.859408	0.652424	1.123591
H151	H	1.168099	0.014264	0.566091
H152	H	1.501433	0.347598	0.899424
H153	H	1.834766	0.680931	1.232757
H154	H	0.966039	0.247764	0.754967
H155	H	1.299372	0.581098	1.088300
H156	H	1.632706	0.914431	1.421634
Cl157	Cl	1.192783	-0.014232	0.778008
Cl158	Cl	1.526116	0.319102	1.111341
Cl159	Cl	1.859450	0.652435	1.444674
H160	H	1.172542	-0.366508	-0.000083
H161	H	1.505875	-0.033175	0.333251
H162	H	1.839209	0.300158	0.666584
H163	H	0.966014	0.247757	0.566108
H164	H	1.299347	0.581090	0.899441
H165	H	1.632681	0.914423	1.232774
H166	H	0.966004	0.247744	0.433890
H167	H	1.299337	0.581078	0.767223
H168	H	1.632671	0.914411	1.100556
Cl169	Cl	0.941317	0.276240	0.221971
Cl170	Cl	1.274651	0.609574	0.555304
Cl171	Cl	1.607984	0.942907	0.888638
H172	H	0.500866	0.286487	-0.000046
H173	H	0.834199	0.619820	0.333287
H174	H	1.167533	0.953153	0.666620
Cl175	Cl	0.597193	0.326684	-0.000031
Cl176	Cl	0.930526	0.660017	0.333302
Cl177	Cl	1.263859	0.993351	0.666636
H178	H	0.633227	-0.024467	-0.000007
H179	H	0.966561	0.308867	0.333326
H180	H	1.299894	0.642200	0.666660
H181	H	0.789089	0.292235	-0.000025
H182	H	1.122422	0.625568	0.333309
H183	H	1.455756	0.958902	0.666642
Cl184	Cl	0.325983	-0.068863	-0.000008
Cl185	Cl	0.659317	0.264471	0.333325
Cl186	Cl	0.992650	0.597804	0.666658
