data_functionalizedCrystal
_audit_creation_method	'MofGen! by Chris Wilmer'
_symmetry_space_group_name_H-M	'P1'
_symmetry_Int_Tables_number	1
_symmetry_cell_setting	triclinic
loop_
_symmetry_equiv_pos_as_xyz
  x,y,z
_cell_length_a	6.817900
_cell_length_b	16.142996
_cell_length_c	13.168018
_cell_angle_alpha	79.396914
_cell_angle_beta	105.756000
_cell_angle_gamma	79.215221
loop_
_atom_site_label
_atom_site_type_symbol
_atom_site_fract_x
_atom_site_fract_y
_atom_site_fract_z
V1	V	-4.014540	0.274738	-0.149716
O2	O	-3.983739	0.257512	0.006384
O3	O	-3.983978	0.284396	-0.296083
O4	O	-3.952671	0.389297	-0.147769
O5	O	-4.015263	0.151885	-0.142957
V6	V	-4.497602	0.258642	-0.131003
O7	O	-4.276810	0.310045	-0.190766
O8	O	-4.685529	0.223335	-0.089953
O9	O	-4.304957	0.248984	0.015364
O10	O	-4.645799	0.275868	-0.287103
O11	O	-4.614275	0.381495	-0.137762
O12	O	-4.336264	0.144083	-0.132950
C13	C	-3.833754	0.283039	-0.331753
C14	C	-3.889963	0.291699	-0.451412
C15	C	-4.002403	0.382374	-0.635666
C16	C	-3.949595	0.374240	-0.523237
C17	C	-3.883145	0.217285	-0.492024
C18	C	-3.935952	0.225419	-0.604453
C19	C	-3.995577	0.307966	-0.676271
C20	C	-4.048371	0.316099	-0.788702
C21	C	-3.981934	0.159144	-0.757488
C22	C	-3.929126	0.151011	-0.645058
C23	C	-4.158460	0.116526	-0.138161
C24	C	-4.106881	0.022797	-0.138779
C25	C	-3.919203	-0.317799	-0.140880
C26	C	-4.146959	-0.287905	-0.133752
C27	C	-4.201079	-0.190326	-0.133556
C28	C	-4.012313	-0.148826	-0.139837
C29	C	-3.962849	-0.160705	-0.246587
C30	C	-3.910527	-0.258255	-0.247232
C31	C	-3.759777	-0.299426	-0.041644
C32	C	-3.816441	-0.202269	-0.039557
C33	C	-4.064926	-0.053328	-0.139251
C34	C	-3.866588	-0.413295	-0.141473
C35	C	-3.793818	0.416849	-0.142562
C36	C	-3.824635	0.510578	-0.141938
C37	C	-4.118524	0.250340	0.051028
C38	C	-4.041553	0.241685	0.170686
H39	H	-3.976363	0.098555	-0.790558
Br40	Br	-4.270537	-0.178851	-0.005662
H41	H	-3.850250	-0.196502	0.039363
Br42	Br	-4.103826	-0.273764	-0.372348
H43	H	-4.348436	-0.154381	-0.205041
H44	H	-4.050929	0.449587	-0.694141
Br45	Br	-3.733178	-0.113801	-0.260719
Br46	Br	-4.173903	-0.355453	-0.006267
H47	H	-3.673320	-0.174991	-0.037911
Br48	Br	-3.958875	0.475227	-0.468133
H49	H	-4.267268	-0.299935	-0.205001
H50	H	-3.593053	-0.318438	-0.045880
Br51	Br	-3.639580	-0.289063	-0.263227
H52	H	-4.096910	0.383313	-0.847175
Br53	Br	-4.196256	-0.097622	-0.370738
Br54	Br	-3.802440	0.105272	-0.394547
H55	H	-3.880582	0.083803	-0.586570
H56	H	-3.757189	-0.341531	0.038583
