data_functionalizedCrystal
_audit_creation_method	'MofGen! by Chris Wilmer'
_symmetry_space_group_name_H-M	'P1'
_symmetry_Int_Tables_number	1
_symmetry_cell_setting	triclinic
loop_
_symmetry_equiv_pos_as_xyz
  x,y,z
_cell_length_a	12.759401
_cell_length_b	14.908520
_cell_length_c	12.759393
_cell_angle_alpha	86.737580
_cell_angle_beta	90.019837
_cell_angle_gamma	93.322137
loop_
_atom_site_label
_atom_site_type_symbol
_atom_site_fract_x
_atom_site_fract_y
_atom_site_fract_z
Zn1	Zn	1.582069	-0.359067	0.618119
Zn2	Zn	1.571800	-0.509954	0.452565
Zn3	Zn	1.406368	-0.359118	0.442457
Zn4	Zn	1.396201	-0.509888	0.628198
O5	O	1.489109	-0.434507	0.535335
O6	O	1.727727	-0.379089	0.596170
O7	O	1.549813	-0.489994	0.304207
O8	O	1.438227	-0.232867	0.457310
O9	O	1.720183	-0.489945	0.474538
O10	O	1.567314	-0.232830	0.586368
O11	O	1.428270	-0.379176	0.296780
O12	O	1.257999	-0.379112	0.467084
O13	O	1.420899	-0.489832	0.773879
O14	O	1.250529	-0.489882	0.603547
O15	O	1.557456	-0.379025	0.766474
O16	O	1.539954	-0.636190	0.484312
O17	O	1.410942	-0.636141	0.613349
C18	C	1.216143	-0.434496	0.535313
C19	C	1.099365	-0.434513	0.535330
C20	C	1.040635	-0.492279	0.606287
C21	C	0.930911	-0.492282	0.606308
C22	C	0.938656	-0.376752	0.464407
C23	C	1.048379	-0.376744	0.464392
C24	C	1.473259	-0.668899	0.551044
C25	C	1.466574	-0.769173	0.557799
C26	C	1.588491	-0.957588	0.436236
C27	C	1.582214	-1.051804	0.442580
C28	C	1.447748	-1.051824	0.576836
C29	C	1.454025	-0.957607	0.570492
C30	C	1.524398	-0.910493	0.500189
C31	C	1.530670	-0.816275	0.493840
C32	C	1.396210	-0.816296	0.628100
C33	C	1.389932	-0.910512	0.634445
C34	C	1.763142	-0.434519	0.535357
C35	C	1.879918	-0.434524	0.535367
C36	C	1.489189	-0.434416	0.809362
C37	C	1.489223	-0.434377	0.926136
C38	C	1.505050	-0.199200	0.519587
C39	C	1.511844	-0.098926	0.512877
C40	C	1.489095	-0.434533	0.262369
C41	C	1.489282	-0.434317	0.145579
C42	C	1.425961	-0.376663	0.977130
C43	C	1.425987	-0.376635	1.086852
C44	C	1.552547	-0.492038	1.094577
C45	C	1.552514	-0.492069	0.984857
H46	H	1.587968	-0.777915	0.436593
C47	C	1.112986	-0.313200	0.386334
H48	H	1.066907	-0.278806	0.344078
H49	H	1.158463	-0.273933	0.423964
H50	H	1.153435	-0.347668	0.342793
C51	C	0.866313	-0.555822	0.684362
H52	H	0.912396	-0.590226	0.726602
H53	H	0.825866	-0.521360	0.727903
H54	H	0.820833	-0.595095	0.646733
C55	C	1.622179	-0.555483	1.159168
H56	H	1.659846	-0.589863	1.113081
H57	H	1.670305	-0.520958	1.199661
H58	H	1.579339	-0.594781	1.204599
H59	H	0.897129	-0.329720	0.406650
H60	H	1.374471	-0.329640	1.128366
C61	C	1.370345	-1.103660	0.654158
H62	H	1.375785	-1.166516	0.648770
H63	H	1.386702	-1.088164	0.723722
H64	H	1.300783	-1.088289	0.637669
C65	C	1.622102	-0.555558	0.928755
H66	H	1.613007	-0.547320	0.855001
H67	H	1.693594	-0.542360	0.945854
H68	H	1.602612	-0.616169	0.950789
H69	H	1.082145	-0.539315	0.664052
C70	C	1.665892	-0.905759	0.358905
H71	H	1.703168	-0.947302	0.321727
H72	H	1.628173	-0.869064	0.310624
H73	H	1.714104	-0.868946	0.396665
C74	C	1.312524	-0.962343	0.711767
H75	H	1.317959	-1.025200	0.706382
H76	H	1.328881	-0.946846	0.781330
H77	H	1.242965	-0.946967	0.695273
H78	H	1.344018	-0.777941	0.680172
C79	C	1.652711	-1.103606	0.372228
H80	H	1.695513	-1.062049	0.329446
H81	H	1.696018	-1.140301	0.414928
H82	H	1.610087	-1.140417	0.328887
H83	H	1.374425	-0.329687	0.929322
