data_functionalizedCrystal
_audit_creation_method	'MofGen! by Chris Wilmer'
_symmetry_space_group_name_H-M	'P1'
_symmetry_Int_Tables_number	1
_symmetry_cell_setting	triclinic
loop_
_symmetry_equiv_pos_as_xyz
  x,y,z
_cell_length_a	10.908937
_cell_length_b	14.519731
_cell_length_c	9.482900
_cell_angle_alpha	99.351580
_cell_angle_beta	83.036371
_cell_angle_gamma	71.887404
loop_
_atom_site_label
_atom_site_type_symbol
_atom_site_fract_x
_atom_site_fract_y
_atom_site_fract_z
O1	O	1.723475	-0.159880	-0.120932
O2	O	2.223475	0.340120	0.379068
O3	O	1.349787	-0.087892	-0.120928
O4	O	1.849787	0.412108	0.379072
O5	O	1.546522	-0.259650	-0.120917
O6	O	2.046522	0.240350	0.379083
O7	O	1.526740	0.011878	-0.120943
O8	O	2.026740	0.511878	0.379057
O9	O	1.506561	-0.224647	0.120873
O10	O	2.006561	0.275353	0.620873
O11	O	1.309826	-0.052889	0.120862
O12	O	1.809826	0.447111	0.620862
O13	O	1.683514	-0.124877	0.120858
O14	O	2.183514	0.375123	0.620858
Cu15	Cu	1.493021	-0.085687	0.142938
Cu16	Cu	1.993021	0.414313	0.642938
Cu17	Cu	1.540280	-0.127082	-0.143007
Cu18	Cu	2.040280	0.372918	0.356993
O19	O	1.486779	0.046881	0.120847
O20	O	1.986779	0.546881	0.620847
C21	C	1.281981	-0.063663	-0.000032
C22	C	1.781981	0.436337	0.499968
C23	C	1.139478	-0.043628	-0.000030
C24	C	1.639478	0.456372	0.499970
C25	C	0.943013	-0.096038	-0.000051
C26	C	1.443013	0.403962	0.499949
C27	C	1.090295	-0.116744	-0.000031
C28	C	1.590295	0.383256	0.499969
C29	C	1.525615	-0.276365	-0.000021
C30	C	2.025615	0.223635	0.499979
C31	C	1.522836	-0.378316	-0.000020
C32	C	2.022836	0.121684	0.499980
C33	C	1.520579	-0.461111	-0.000024
C34	C	2.020579	0.038889	0.499976
C35	C	1.517760	-0.564986	-0.000035
C36	C	2.017760	-0.064986	0.499965
C37	C	1.515523	-0.647780	-0.000044
C38	C	2.015523	-0.147780	0.499956
C39	C	1.512704	-0.751661	-0.000053
C40	C	2.012704	-0.251661	0.499947
C41	C	1.751320	-0.149106	-0.000041
C42	C	2.251320	0.350894	0.499959
C43	C	1.893825	-0.169143	-0.000052
C44	C	2.393825	0.330857	0.499948
C45	C	1.507687	0.063595	-0.000051
C46	C	2.007687	0.563595	0.499949
C47	C	1.510467	0.165545	-0.000062
C48	C	2.010467	0.665545	0.499938
N49	N	1.459791	-0.056574	0.344056
N50	N	1.959791	0.443426	0.844056
N51	N	1.573520	-0.156205	-0.344126
N52	N	2.073520	0.343795	0.155874
C53	C	1.530470	-0.118499	0.416259
C54	C	2.030470	0.381501	0.916259
C55	C	1.502831	-0.094270	0.583675
C56	C	2.002831	0.405730	1.083675
H57	H	1.157218	-0.194667	-0.000026
H58	H	1.657218	0.305333	0.499974
H59	H	1.378815	0.014377	0.406181
H60	H	1.878815	0.514377	0.906181
H61	H	1.421849	-0.023315	0.645795
H62	H	1.921849	0.476685	1.145795
F63	F	1.052015	0.058222	-0.000056
F64	F	1.552015	0.558222	0.499944
F65	F	1.636079	-0.211369	0.335063
F66	F	2.136079	0.288631	0.835063
F67	F	0.981297	-0.270990	-0.000044
F68	F	1.481297	0.229010	0.499956
F69	F	1.679579	-0.248832	0.574687
F70	F	2.179579	0.251168	1.074687
H71	H	0.876089	-0.018122	-0.000074
H72	H	1.376089	0.481878	0.499926
