data_functionalizedCrystal
_audit_creation_method	'MofGen! by Chris Wilmer'
_symmetry_space_group_name_H-M	'P1'
_symmetry_Int_Tables_number	1
_symmetry_cell_setting	triclinic
loop_
_symmetry_equiv_pos_as_xyz
  x,y,z
_cell_length_a	10.489741
_cell_length_b	14.519709
_cell_length_c	12.996460
_cell_angle_alpha	89.992910
_cell_angle_beta	89.997126
_cell_angle_gamma	84.109659
loop_
_atom_site_label
_atom_site_type_symbol
_atom_site_fract_x
_atom_site_fract_y
_atom_site_fract_z
O1	O	-1.692699	-0.130116	0.085506
O2	O	-1.192699	0.369884	0.585506
O3	O	-1.321376	-0.142329	0.085522
O4	O	-0.821376	0.357671	0.585522
O5	O	-1.516883	-0.002038	0.085504
O6	O	-1.016883	0.497962	0.585504
O7	O	-1.497193	-0.270408	0.085524
O8	O	-0.997193	0.229592	0.585524
O9	O	-1.516862	-0.002030	-0.085630
O10	O	-1.016862	0.497970	0.414370
O11	O	-1.321356	-0.142322	-0.085612
O12	O	-0.821356	0.357678	0.414388
O13	O	-1.692679	-0.130108	-0.085628
O14	O	-1.192679	0.369892	0.414372
Cu15	Cu	-1.507015	-0.136214	-0.101246
Cu16	Cu	-1.007015	0.363786	0.398754
Cu17	Cu	-1.507040	-0.136224	0.101140
Cu18	Cu	-1.007040	0.363776	0.601140
O19	O	-1.497172	-0.270400	-0.085610
O20	O	-0.997172	0.229600	0.414390
C21	C	-1.273844	-0.141403	-0.000043
C22	C	-0.773844	0.358597	0.499957
C23	C	-1.132243	-0.138643	-0.000037
C24	C	-0.632243	0.361357	0.499963
C25	C	-1.515955	0.032331	-0.000063
C26	C	-1.015955	0.532331	0.499937
C27	C	-1.513205	0.134727	-0.000063
C28	C	-1.013205	0.634727	0.499937
C29	C	-1.740211	-0.131035	-0.000061
C30	C	-1.240211	0.368965	0.499939
C31	C	-1.881812	-0.133794	-0.000060
C32	C	-1.381812	0.366206	0.499940
C33	C	-1.065034	-0.049380	-0.000053
C34	C	-0.565034	0.450620	0.499947
C35	C	-0.972477	-0.091551	0.084326
C36	C	-0.472477	0.408449	0.584326
C37	C	-0.972491	-0.091564	-0.084399
C38	C	-0.472491	0.408436	0.415601
C39	C	-1.041552	-0.180851	0.084411
C40	C	-0.541552	0.319149	0.584411
C41	C	-1.041575	-0.180852	-0.084389
C42	C	-0.541575	0.319148	0.415611
C43	C	-0.949046	-0.223088	0.000010
C44	C	-0.449046	0.276912	0.500010
C45	C	-1.498100	-0.304768	-0.000041
C46	C	-0.998100	0.195232	0.499959
C47	C	-1.500850	-0.407165	-0.000034
C48	C	-1.000850	0.092835	0.499966
N49	N	-1.507008	-0.136207	-0.243593
N50	N	-1.007008	0.363793	0.256407
C51	C	-1.503082	0.509678	-0.000036
C52	C	-1.003082	1.009678	0.499964
C53	C	-1.505893	0.405355	-0.000044
C54	C	-1.005893	0.905355	0.499956
C55	C	-1.508143	0.322206	-0.000051
C56	C	-1.008143	0.822206	0.499949
C57	C	-1.510955	0.217876	-0.000057
C58	C	-1.010955	0.717876	0.499943
C59	C	-1.507038	-0.136224	-0.663407
C60	C	-1.007038	0.363776	-0.163407
C61	C	-1.507026	-0.136223	-0.546602
C62	C	-1.007026	0.363777	-0.046602
C63	C	-1.507023	-0.136216	-0.453504
C64	C	-1.007023	0.363784	0.046496
C65	C	-1.507010	-0.136213	-0.336691
C66	C	-1.007010	0.363787	0.163309
N67	N	-1.507057	-0.136223	0.243487
N68	N	-1.007057	0.363777	0.743487
H69	H	-1.115488	0.024000	0.000047
H70	H	-0.615488	0.524000	0.500047
H71	H	-0.941898	-0.053776	-0.155735
H72	H	-0.441898	0.446224	0.344265
H73	H	-0.898856	-0.296546	0.000062
H74	H	-0.398856	0.203454	0.500062
N75	N	-1.081879	-0.230833	0.179017
N76	N	-0.581879	0.269167	0.679017
H77	H	-1.056164	-0.197369	0.242664
H78	H	-0.556164	0.302631	0.742664
H79	H	-1.038560	-0.296247	0.179224
H80	H	-0.538560	0.203753	0.679224
N81	N	-0.931921	-0.041535	0.178815
N82	N	-0.431921	0.458465	0.678815
H83	H	-0.974537	0.024081	0.178751
H84	H	-0.474537	0.524081	0.678751
H85	H	-0.835777	-0.040636	0.178394
H86	H	-0.335777	0.459364	0.678394
N87	N	-1.082129	-0.230863	-0.178876
N88	N	-0.582129	0.269137	0.321124
H89	H	-1.057280	-0.197092	-0.242586
H90	H	-0.557280	0.302908	0.257414
H91	H	-1.178070	-0.232894	-0.177739
H92	H	-0.678070	0.267106	0.322261
