data_functionalizedCrystal
_audit_creation_method	'MofGen! by Chris Wilmer'
_symmetry_space_group_name_H-M	'P1'
_symmetry_Int_Tables_number	1
_symmetry_cell_setting	triclinic
loop_
_symmetry_equiv_pos_as_xyz
  x,y,z
_cell_length_a	16.959454
_cell_length_b	16.959455
_cell_length_c	16.959447
_cell_angle_alpha	90.015228
_cell_angle_beta	89.973264
_cell_angle_gamma	89.985155
loop_
_atom_site_label
_atom_site_type_symbol
_atom_site_fract_x
_atom_site_fract_y
_atom_site_fract_z
Zn1	Zn	-0.314776	-1.208384	-0.446947
Zn2	Zn	-0.446969	-1.208306	-0.314777
Zn3	Zn	-0.314796	-1.076212	-0.314783
Zn4	Zn	-0.446905	-1.076177	-0.446914
O5	O	-0.380861	-1.142270	-0.380855
O6	O	-0.332330	-1.318984	-0.429427
O7	O	-0.429471	-1.190766	-0.204167
O8	O	-0.204183	-1.093792	-0.332331
O9	O	-0.429452	-1.318927	-0.332322
O10	O	-0.204168	-1.190898	-0.429432
O11	O	-0.332364	-1.093717	-0.204171
O12	O	-0.332302	-0.965597	-0.332299
O13	O	-0.429342	-1.093732	-0.557529
O14	O	-0.429362	-0.965571	-0.429374
O15	O	-0.332268	-1.190864	-0.557554
O16	O	-0.557571	-1.190732	-0.332289
O17	O	-0.557524	-1.093657	-0.429369
C18	C	-0.380828	-0.936904	-0.380834
C19	C	-0.380832	-0.849047	-0.380844
C20	C	-0.330256	-0.477560	-0.330403
C21	C	-0.431482	-0.477582	-0.431332
C22	C	-0.431473	-0.560128	-0.431328
C23	C	-0.380856	-0.601394	-0.380861
C24	C	-0.330248	-0.560114	-0.330396
C25	C	-0.482087	-0.601414	-0.481786
C26	C	-0.482081	-0.683965	-0.481784
C27	C	-0.431460	-0.725233	-0.431320
C28	C	-0.380848	-0.683948	-0.380854
C29	C	-0.330231	-0.725213	-0.330386
C30	C	-0.279615	-0.683930	-0.279924
C31	C	-0.279626	-0.601381	-0.279932
C32	C	-0.431449	-0.807781	-0.431311
C33	C	-0.330223	-0.807767	-0.330379
C34	C	-0.586228	-1.142204	-0.380842
C35	C	-0.674084	-1.142248	-0.380863
C36	C	-1.045565	-1.091796	-0.431399
C37	C	-1.045554	-1.192963	-0.330392
C38	C	-0.963008	-1.192936	-0.330384
C39	C	-0.921737	-1.142337	-0.380885
C40	C	-0.963012	-1.091765	-0.431392
C41	C	-0.921728	-1.243501	-0.279872
C42	C	-0.839177	-1.243475	-0.279862
C43	C	-0.797904	-1.192879	-0.330367
C44	C	-0.839184	-1.142306	-0.380877
C45	C	-0.797912	-1.091707	-0.431377
C46	C	-0.839190	-1.041137	-0.481892
C47	C	-0.921739	-1.041170	-0.481897
C48	C	-0.715356	-1.192847	-0.330362
C49	C	-0.715359	-1.091676	-0.431370
C50	C	-0.174693	-1.142358	-0.380886
C51	C	-0.086837	-1.142395	-0.380899
C52	C	-0.380796	-1.142303	-0.587024
C53	C	-0.380768	-1.142317	-0.674880
C54	C	-0.380886	-0.348438	-0.380873
C55	C	-0.380873	-0.436295	-0.380871
C56	C	-0.431227	-1.091839	-1.046346
C57	C	-0.330143	-1.192983	-1.046367
C58	C	-0.330159	-1.192962	-0.963821
C59	C	-0.380711	-1.142380	-0.922533
C60	C	-0.431247	-1.091818	-0.963792
C61	C	-0.279631	-1.243529	-0.922556
C62	C	-0.279646	-1.243510	-0.840005
C63	C	-0.330195	-1.192923	-0.798716
C64	C	-0.380731	-1.142359	-0.839980
C65	C	-0.431283	-1.091776	-0.798693
C66	C	-0.481817	-1.041207	-0.839955
C67	C	-0.481795	-1.041231	-0.922503
C68	C	-0.330216	-1.192899	-0.716168
C69	C	-0.431303	-1.091755	-0.716139
C70	C	-0.380870	-1.142282	-0.175489
C71	C	-0.380675	-1.142422	-0.087633
H72	H	-0.523302	-0.567810	-0.522869
H73	H	-0.289075	-1.234074	-0.682575
H74	H	-0.681751	-1.234016	-0.289230
Cl75	Cl	-0.495079	-0.859677	-0.494740
H76	H	-0.238498	-1.284686	-0.806416
H77	H	-0.523295	-0.717571	-0.522874
H78	H	-0.681761	-1.050475	-0.472497
H79	H	-0.955355	-0.999998	-0.523022
Cl80	Cl	-0.266582	-0.859637	-0.266934
Cl81	Cl	-0.266624	-0.425664	-0.266972
Cl82	Cl	-0.495127	-0.425704	-0.494757
Cl83	Cl	-0.787297	-0.977526	-0.545372
H84	H	-1.079178	-1.050626	-0.472530
Cl85	Cl	-0.266601	-1.256575	-1.098271
Cl86	Cl	-0.216002	-0.549478	-0.216499
Cl87	Cl	-0.215990	-0.735817	-0.216476
H88	H	-0.805573	-1.284651	-0.238731
H89	H	-0.472462	-1.050557	-0.682529
Cl90	Cl	-0.545369	-0.977625	-0.788041
Cl91	Cl	-1.097439	-1.256571	-0.266910
Cl92	Cl	-0.973615	-1.307111	-0.216395
Cl93	Cl	-0.545321	-0.977669	-0.974380
Cl94	Cl	-0.494749	-1.028268	-1.098215
H95	H	-0.238479	-1.284715	-0.956178
