data_functionalizedCrystal
_audit_creation_method	'MofGen! by Chris Wilmer'
_symmetry_space_group_name_H-M	'P1'
_symmetry_Int_Tables_number	1
_symmetry_cell_setting	triclinic
loop_
_symmetry_equiv_pos_as_xyz
  x,y,z
_cell_length_a	10.723023
_cell_length_b	10.654550
_cell_length_c	9.130313
_cell_angle_alpha	90.004369
_cell_angle_beta	89.996944
_cell_angle_gamma	95.523761
loop_
_atom_site_label
_atom_site_type_symbol
_atom_site_fract_x
_atom_site_fract_y
_atom_site_fract_z
O1	O	1.657214	-0.176145	-0.121784
O2	O	2.157214	0.323855	0.378216
O3	O	1.294064	-0.193006	-0.121790
O4	O	1.794064	0.306994	0.378210
O5	O	1.483988	-0.001835	-0.121778
O6	O	1.983988	0.498165	0.378222
O7	O	1.467289	-0.367316	-0.121796
O8	O	1.967289	0.132684	0.378204
O9	O	1.483975	-0.001829	0.121821
O10	O	1.983975	0.498171	0.621821
O11	O	1.294050	-0.193001	0.121809
O12	O	1.794050	0.306999	0.621809
O13	O	1.657200	-0.176139	0.121815
O14	O	2.157200	0.323861	0.621815
Cu15	Cu	1.475624	-0.184569	0.144054
Cu16	Cu	1.975624	0.315431	0.644054
Cu17	Cu	1.475640	-0.184576	-0.144030
Cu18	Cu	1.975640	0.315424	0.355970
O19	O	1.467276	-0.367310	0.121802
O20	O	1.967276	0.132690	0.621802
C21	C	1.247557	-0.191777	0.000009
C22	C	1.747557	0.308223	0.500009
C23	C	1.109002	-0.188106	0.000006
C24	C	1.609002	0.311894	0.500006
C25	C	0.904041	-0.182679	-0.126185
C26	C	1.404041	0.317321	0.373815
C27	C	1.047244	-0.186473	-0.126186
C28	C	1.547244	0.313527	0.373814
C29	C	1.482755	0.044966	0.000021
C30	C	1.982755	0.544966	0.500021
C31	C	1.479087	0.184408	0.000019
C32	C	1.979087	0.684408	0.500019
C33	C	1.703707	-0.177369	0.000013
C34	C	2.203707	0.322631	0.500013
C35	C	1.842262	-0.181039	0.000005
C36	C	2.342262	0.318961	0.500005
C37	C	1.468509	-0.414111	0.000001
C38	C	1.968509	0.085889	0.500001
C39	C	1.472177	-0.553554	-0.000007
C40	C	1.972177	-0.053554	0.499993
N41	N	1.475622	-0.184564	0.346677
N42	N	1.975622	0.315436	0.846677
C43	C	1.590911	0.263911	0.000020
C44	C	2.090911	0.763911	0.500020
C45	C	1.587457	0.394931	0.000002
C46	C	2.087457	0.894931	0.500002
C47	C	1.360344	0.366933	-0.000012
C48	C	1.860344	0.866933	0.499988
C49	C	1.363800	0.235916	-0.000005
C50	C	1.863800	0.735916	0.499995
N51	N	1.475651	-0.184572	-0.346652
N52	N	1.975651	0.315428	0.153348
C53	C	1.559750	-0.099949	0.423334
C54	C	2.059750	0.400051	0.923334
C55	C	1.559762	-0.099949	0.576671
C56	C	2.059762	0.400051	1.076671
C57	C	1.391515	-0.269190	0.576680
C58	C	1.891515	0.230810	1.076680
C59	C	1.391498	-0.269183	0.423346
C60	C	1.891498	0.230817	0.923346
H61	H	0.895389	-0.182439	0.108041
H62	H	1.395389	0.317561	0.608041
Br63	Br	1.277308	-0.384015	0.319298
Br64	Br	1.777308	0.115985	0.819298
Br65	Br	1.277353	-0.384029	0.680735
Br66	Br	1.777353	0.115971	1.180735
H67	H	1.684786	0.221979	0.000036
H68	H	2.184786	0.721979	0.500036
H69	H	1.628247	-0.031045	0.360914
H70	H	2.128247	0.468955	0.860914
Br71	Br	1.673933	0.014895	0.680704
Br72	Br	2.173933	0.514895	1.180704
H73	H	1.266481	0.408887	-0.000029
H74	H	1.766481	0.908887	0.499971
Br75	Br	0.815514	-0.180278	-0.306263
Br76	Br	1.315514	0.319722	0.193737
Br77	Br	1.739226	0.502825	-0.000005
Br78	Br	2.239226	1.002825	0.499995
H79	H	1.055881	-0.186703	0.108048
H80	H	1.555881	0.313297	0.608048
H81	H	1.272733	0.171181	-0.000011
H82	H	1.772733	0.671181	0.499989
H83	H	1.100372	-0.187890	-0.234222
H84	H	1.600372	0.312110	0.265778
