data_functionalizedCrystal
_audit_creation_method	'MofGen! by Chris Wilmer'
_symmetry_space_group_name_H-M	'P1'
_symmetry_Int_Tables_number	1
_symmetry_cell_setting	triclinic
loop_
_symmetry_equiv_pos_as_xyz
  x,y,z
_cell_length_a	16.974800
_cell_length_b	14.044220
_cell_length_c	15.455313
_cell_angle_alpha	92.908275
_cell_angle_beta	90.973911
_cell_angle_gamma	88.279480
loop_
_atom_site_label
_atom_site_type_symbol
_atom_site_fract_x
_atom_site_fract_y
_atom_site_fract_z
O1	O	1.057570	0.120854	0.002133
O2	O	1.557570	0.620854	0.502133
O3	O	0.829155	0.135333	-0.013909
O4	O	1.329155	0.635333	0.486091
O5	O	0.939934	-0.009900	-0.006120
O6	O	1.439934	0.490100	0.493880
O7	O	0.946791	0.266087	-0.005656
O8	O	1.446791	0.766087	0.494344
O9	O	0.933597	-0.001629	0.137696
O10	O	1.433597	0.498371	0.637696
O11	O	0.822818	0.143603	0.129907
O12	O	1.322818	0.643603	0.629907
O13	O	1.051233	0.129125	0.145949
O14	O	1.551233	0.629125	0.645949
Cu15	Cu	0.936447	0.137119	0.151060
Cu16	Cu	1.436447	0.637119	0.651060
Cu17	Cu	0.943941	0.127338	-0.019020
Cu18	Cu	1.443941	0.627338	0.480980
O19	O	0.940454	0.274357	0.138161
O20	O	1.440454	0.774357	0.638161
C21	C	0.796578	0.138766	0.055934
C22	C	1.296578	0.638766	0.555934
C23	C	0.708948	0.136662	0.049780
C24	C	1.208948	0.636662	0.549780
C25	C	0.664330	0.140180	0.125285
C26	C	1.164330	0.640180	0.625285
C27	C	0.581993	0.138188	0.119505
C28	C	1.081993	0.638188	0.619505
C29	C	0.544276	0.132685	0.038219
C30	C	1.044276	0.632685	0.538219
C31	C	0.588901	0.129165	-0.037292
C32	C	1.088901	0.629165	0.462708
C33	C	0.671236	0.131149	-0.031511
C34	C	1.171236	0.631149	0.468489
C35	C	0.298400	0.126259	0.012523
C36	C	0.798400	0.626259	0.512523
C37	C	0.216058	0.124277	0.006748
C38	C	0.716058	0.624277	0.506748
C39	C	0.209157	0.133299	0.163545
C40	C	0.709157	0.633299	0.663545
C41	C	0.291494	0.135290	0.169319
C42	C	0.791494	0.635290	0.669319
C43	C	0.336111	0.131764	0.093808
C44	C	0.836111	0.631764	0.593808
N45	N	0.460115	0.130653	0.032309
N46	N	0.960115	0.630653	0.532309
N47	N	0.420271	0.133790	0.099719
N48	N	0.920271	0.633790	0.599719
C49	C	0.933764	-0.041087	0.065577
C50	C	1.433764	0.458913	0.565577
C51	C	0.924810	-0.146336	0.064950
C52	C	1.424810	0.353664	0.564950
C53	C	0.908443	-0.339042	0.063788
C54	C	1.408443	0.160958	0.563788
C55	C	0.971942	-0.396506	0.068245
C56	C	1.471942	0.103494	0.568245
C57	C	0.962835	-0.503734	0.067598
C58	C	1.462835	-0.003734	0.567598
C59	C	0.917549	-0.231804	0.064434
C60	C	1.417549	0.268196	0.564434
C61	C	1.083810	0.125692	0.076105
C62	C	1.583810	0.625692	0.576105
C63	C	1.171440	0.127795	0.082253
C64	C	1.671440	0.627795	0.582253
C65	C	0.946625	0.305544	0.066461
C66	C	1.446625	0.805544	0.566461
C67	C	0.955578	0.410794	0.067083
C68	C	1.455578	0.910794	0.567083
N69	N	0.931181	0.143998	0.270685
N70	N	1.431181	0.643998	0.770685
N71	N	0.949212	0.120452	-0.138645
N72	N	1.449212	0.620452	0.361355
C73	C	0.978263	0.082321	0.319390
C74	C	1.478263	0.582321	0.819390
C75	C	0.974289	0.087532	0.409918
C76	C	1.474289	0.587532	0.909918
C77	C	0.923236	0.154426	0.451741
C78	C	1.423236	0.654426	0.951741
C79	C	0.876149	0.216105	0.403030
C80	C	1.376149	0.716105	0.903030
C81	C	0.880120	0.210889	0.312503
C82	C	1.380120	0.710889	0.812503
C83	C	0.906096	0.176915	0.722117
C84	C	1.406096	0.676915	1.222117
C85	C	0.902130	0.182129	0.812651
C86	C	1.402130	0.682129	1.312651
C87	C	1.000270	0.053554	0.819533
C88	C	1.500270	0.553554	1.319533
C89	C	1.004239	0.048348	0.729004
C90	C	1.504239	0.548348	1.229004
C91	C	0.957149	0.110024	0.680301
C92	C	1.457149	0.610024	1.180301
N93	N	0.919175	0.159756	0.544275
N94	N	1.419175	0.659756	1.044275
N95	N	0.961207	0.104689	0.587768
N96	N	1.461207	0.604689	1.087768
H97	H	1.033148	-0.365175	0.072485
H98	H	1.533148	0.134825	0.572485
H99	H	0.847245	-0.370375	0.059487
H100	H	1.347245	0.129625	0.559487
C101	C	1.025375	0.020417	0.462679
C102	C	1.525375	0.520417	0.962679
C103	C	1.007041	-0.074063	0.439302
C104	C	1.507041	0.425937	0.939302
C105	C	1.054098	-0.135917	0.487876
C106	C	1.554098	0.364083	0.987876
H107	H	1.015750	0.032964	0.522601
H108	H	1.515750	0.532964	1.022601
H109	H	1.079362	0.029991	0.451549
H110	H	1.579362	0.529991	0.951549
H111	H	0.953067	-0.083632	0.450439
H112	H	1.453067	0.416368	0.950439
H113	H	1.016670	-0.086640	0.379388
H114	H	1.516670	0.413360	0.879388
H115	H	1.108086	-0.126343	0.476746
H116	H	1.608086	0.373657	0.976746
H117	H	1.044470	-0.123361	0.547795
H118	H	1.544470	0.376639	1.047795
H119	H	1.041671	-0.200028	0.472016
H120	H	1.541671	0.299972	0.972016
H121	H	0.334718	0.123385	-0.048963
H122	H	0.834718	0.623385	0.451037
H123	H	0.834577	0.270568	0.437086
H124	H	1.334577	0.770568	0.937086
H125	H	0.841779	0.261112	0.272848
H126	H	1.341779	0.761112	0.772848
H127	H	1.019839	0.027854	0.285344
H128	H	1.519839	0.527854	0.785344
H129	H	0.172820	0.136168	0.225022
H130	H	0.672820	0.636168	0.725022
C131	C	1.059687	-0.024381	0.683758
C132	C	1.559687	0.475619	1.183758
C133	C	1.100055	-0.077299	0.745787
C134	C	1.600055	0.422701	1.245787
C135	C	1.151134	-0.144312	0.704138
C136	C	1.651134	0.355688	1.204138
H137	H	1.096509	0.007688	0.650902
H138	H	1.596509	0.507688	1.150902
H139	H	1.030124	-0.066028	0.646291
H140	H	1.530124	0.433972	1.146291
H141	H	1.129616	-0.035659	0.783239
H142	H	1.629616	0.464341	1.283239
H143	H	1.063253	-0.109389	0.778645
H144	H	1.563253	0.390611	1.278645
H145	H	1.121572	-0.185958	0.666671
H146	H	1.621572	0.314042	1.166671
H147	H	1.187951	-0.112234	0.671284
H148	H	1.687951	0.387766	1.171284
H149	H	1.178525	-0.180230	0.746218
H150	H	1.678525	0.319770	1.246218
C151	C	0.846609	0.254782	0.857897
C152	C	1.346609	0.754782	1.357897
C153	C	0.806200	0.307659	0.795869
C154	C	1.306200	0.807659	1.295869
C155	C	0.755041	0.374580	0.837517
C156	C	1.255041	0.874580	1.337517
H157	H	0.876094	0.296473	0.895383
H158	H	1.376094	0.796473	1.395383
H159	H	0.809821	0.222611	0.890731
H160	H	1.309821	0.722611	1.390731
H161	H	0.842983	0.339828	0.763049
H162	H	1.342983	0.839828	1.263049
H163	H	0.776700	0.265993	0.758381
H164	H	1.276700	0.765993	1.258381
H165	H	0.718252	0.342409	0.870351
H166	H	1.218252	0.842409	1.370351
H167	H	0.784532	0.416264	0.875001
H168	H	1.284532	0.916264	1.375001
H169	H	0.727612	0.410459	0.795437
H170	H	1.227612	0.910459	1.295437
H171	H	1.038608	0.003339	0.859196
H172	H	1.538608	0.503339	1.359196
C173	C	0.854886	0.243733	0.669189
C174	C	1.354886	0.743733	1.169189
C175	C	0.805349	0.190086	0.613613
C176	C	1.305349	0.690086	1.113613
C177	C	0.758160	0.251611	0.564845
C178	C	1.258160	0.751611	1.064845
H179	H	0.887480	0.281274	0.635972
H180	H	1.387480	0.781274	1.135972
H181	H	0.823871	0.284310	0.707030
H182	H	1.323871	0.784310	1.207030
H183	H	0.836362	0.149525	0.575776
H184	H	1.336362	0.649525	1.075776
H185	H	0.772740	0.152547	0.646807
H186	H	1.272740	0.652547	1.146807
H187	H	0.727144	0.292189	0.602686
H188	H	1.227144	0.792189	1.102686
H189	H	0.790759	0.289150	0.531633
H190	H	1.290759	0.789150	1.031633
H191	H	0.724539	0.215222	0.527137
H192	H	1.224539	0.715222	1.027137
C193	C	0.705132	0.146106	0.213621
C194	C	1.205132	0.646106	0.713621
C195	C	0.648431	0.148732	0.278507
C196	C	1.148431	0.648732	0.778507
C197	C	0.685986	0.154175	0.359895
C198	C	1.185986	0.654175	0.859895
H199	H	0.734976	0.202294	0.219109
H200	H	1.234976	0.702294	0.719109
H201	H	0.739218	0.091812	0.219332
H202	H	1.239218	0.591812	0.719332
H203	H	0.614358	0.203021	0.272798
H204	H	1.114358	0.703021	0.772798
H205	H	0.618583	0.092550	0.273048
H206	H	1.118583	0.592550	0.773048
H207	H	0.720072	0.099881	0.365606
H208	H	1.220072	0.599881	0.865606
H209	H	0.715829	0.210363	0.365374
H210	H	1.215829	0.710363	0.865374
H211	H	0.647521	0.155949	0.403929
H212	H	1.147521	0.655949	0.903929
H213	H	0.545669	0.141037	0.180989
H214	H	1.045669	0.641037	0.680989
H215	H	0.322197	0.139766	0.235511
H216	H	0.822197	0.639766	0.735511
H217	H	0.185352	0.119799	-0.059448
H218	H	0.685352	0.619799	0.440552
H219	H	0.558185	0.124677	-0.103477
H220	H	1.058185	0.624677	0.396523
H221	H	0.707564	0.128287	-0.092996
H222	H	1.207564	0.628287	0.407004
