data_functionalizedCrystal
_audit_creation_method	'MofGen! by Chris Wilmer'
_symmetry_space_group_name_H-M	'P1'
_symmetry_Int_Tables_number	1
_symmetry_cell_setting	triclinic
loop_
_symmetry_equiv_pos_as_xyz
  x,y,z
_cell_length_a	15.944551
_cell_length_b	15.944551
_cell_length_c	15.021413
_cell_angle_alpha	90.003065
_cell_angle_beta	89.997174
_cell_angle_gamma	83.498738
loop_
_atom_site_label
_atom_site_type_symbol
_atom_site_fract_x
_atom_site_fract_y
_atom_site_fract_z
O1	O	1.114529	0.108321	-0.073941
O2	O	1.614529	0.608321	0.426059
O3	O	0.869979	0.121677	-0.073964
O4	O	1.369979	0.621677	0.426036
O5	O	0.998932	-0.007276	-0.073944
O6	O	1.498932	0.492724	0.426056
O7	O	0.985576	0.237274	-0.073961
O8	O	1.485576	0.737274	0.426039
O9	O	0.998912	-0.007257	0.074121
O10	O	1.498912	0.492743	0.574121
O11	O	0.869959	0.121695	0.074101
O12	O	1.369959	0.621695	0.574101
O13	O	1.114508	0.108339	0.074123
O14	O	1.614508	0.608339	0.574123
Zn15	Zn	0.992230	0.115020	0.097620
Zn16	Zn	1.492230	0.615020	0.597620
Zn17	Zn	0.992257	0.114996	-0.097461
Zn18	Zn	1.492257	0.614996	0.402539
O19	O	0.985555	0.237292	0.074103
O20	O	1.485555	0.737292	0.574103
C21	C	0.838675	0.121132	0.000066
C22	C	1.338675	0.621132	0.500066
C23	C	0.745429	0.119470	0.000057
C24	C	1.245429	0.619470	0.500057
C25	C	0.998367	-0.038561	0.000089
C26	C	1.498367	0.461439	0.500089
C27	C	0.996705	-0.131807	0.000089
C28	C	1.496705	0.368193	0.500089
C29	C	0.530572	0.035565	0.000081
C30	C	1.030572	0.535565	0.500081
C31	C	0.469562	0.074518	-0.072926
C32	C	0.969562	0.574518	0.427074
C33	C	0.574703	0.116462	0.000068
C34	C	1.074703	0.616462	0.500068
C35	C	0.469564	0.074556	0.073054
C36	C	0.969564	0.574556	0.573054
C37	C	0.409790	0.113551	0.000083
C38	C	0.909790	0.613551	0.500083
C39	C	0.514921	0.155438	-0.072998
C40	C	1.014921	0.655438	0.427002
C41	C	0.514930	0.155464	0.073047
C42	C	1.014930	0.655464	0.573047
C43	C	0.453937	0.194476	0.000023
C44	C	0.953937	0.694476	0.500023
C45	C	0.669705	0.118137	0.000059
C46	C	1.169705	0.618137	0.500059
C47	C	0.314789	0.111883	0.000085
C48	C	0.814789	0.611883	0.500085
C49	C	0.912801	-0.346663	0.000069
C50	C	1.412801	0.153337	0.500069
C51	C	0.951753	-0.407672	0.073077
C52	C	1.451753	0.092328	0.573077
C53	C	0.993698	-0.302533	0.000082
C54	C	1.493698	0.197467	0.500082
C55	C	0.951792	-0.407673	-0.072903
C56	C	1.451792	0.092327	0.427097
C57	C	0.990787	-0.467445	0.000071
C58	C	1.490787	0.032555	0.500071
C59	C	1.032672	-0.362313	0.073150
C60	C	1.532672	0.137687	0.573150
C61	C	1.032700	-0.362308	-0.072895
C62	C	1.532700	0.137692	0.427105
C63	C	1.071711	-0.423298	0.000131
C64	C	1.571711	0.076702	0.500131
C65	C	0.995372	-0.207530	0.000089
C66	C	1.495372	0.292470	0.500089
C67	C	0.989119	-0.562446	0.000070
C68	C	1.489119	-0.062446	0.500070
C69	C	1.145813	0.108885	0.000092
C70	C	1.645813	0.608885	0.500092
C71	C	1.239059	0.110547	0.000094
C72	C	1.739059	0.610547	0.500094
C73	C	0.986120	0.268577	0.000069
C74	C	1.486120	0.768577	0.500069
C75	C	0.987782	0.361823	0.000063
C76	C	1.487782	0.861823	0.500063
N77	N	0.992218	0.115036	0.230758
N78	N	1.492218	0.615036	0.730758
N79	N	0.992276	0.114973	-0.230598
N80	N	1.492276	0.614973	0.269402
C81	C	0.932581	0.174636	0.470432
C82	C	1.432581	0.674636	0.970432
C83	C	1.008481	0.190943	0.529772
C84	C	1.508481	0.690943	1.029772
C85	C	0.992239	0.115015	0.412365
C86	C	1.492239	0.615015	0.912365
C87	C	0.916360	0.098727	0.529766
C88	C	1.416360	0.598727	1.029766
C89	C	0.992253	0.114997	0.587789
C90	C	1.492253	0.614997	1.087789
C91	C	1.068178	0.131360	0.470398
C92	C	1.568178	0.631360	0.970398
C93	C	0.976006	0.039111	0.470387
C94	C	1.476006	0.539111	0.970387
C95	C	1.051962	0.055386	0.529701
C96	C	1.551962	0.555386	1.029701
C97	C	0.992230	0.115028	0.311307
C98	C	1.492230	0.615028	0.811307
C99	C	0.992271	0.114984	0.688844
C100	C	1.492271	0.614984	1.188844
H101	H	0.563905	-0.031573	-0.000005
H102	H	1.063905	0.468427	0.499995
C103	C	0.442420	0.028329	0.156433
C104	C	0.942420	0.528329	0.656433
H105	H	0.468936	-0.028116	0.156340
H106	H	0.968936	0.471884	0.656340
H107	H	0.382876	0.028052	0.156126
H108	H	0.882876	0.528052	0.656126
H109	H	0.458721	0.056524	0.208274
H110	H	0.958721	0.556524	0.708274
C111	C	0.829669	0.080117	0.564996
C112	C	1.329669	0.580117	1.064996
H113	H	0.836341	0.030048	0.599786
H114	H	1.336341	0.530048	1.099786
H115	H	0.793228	0.072851	0.516254
H116	H	1.293228	0.572851	1.016254
H117	H	0.805960	0.125975	0.600698
H118	H	1.305960	0.625975	1.100698
C119	C	1.154894	0.150067	0.435329
C120	C	1.654894	0.650067	0.935329
H121	H	1.191097	0.157839	0.484149
H122	H	1.691097	0.657839	0.984149
H123	H	1.148165	0.199871	0.400135
H124	H	1.648165	0.699871	0.900135
H125	H	1.178925	0.104019	0.400078
H126	H	1.678925	0.604019	0.900078
C127	C	0.822095	-0.301661	0.000156
C128	C	1.322095	0.198339	0.500156
H129	H	0.793480	-0.317077	0.052091
H130	H	1.293480	0.182923	0.552091
H131	H	0.793075	-0.317839	-0.051181
H132	H	1.293075	0.182161	0.448819
H133	H	0.823775	-0.242295	-0.000367
H134	H	1.323775	0.257705	0.499633
H135	H	0.917528	-0.427772	0.134794
H136	H	1.417528	0.072228	0.634794
C137	C	1.120194	-0.012737	0.564646
C138	C	1.620194	0.487263	1.064646
H139	H	1.174044	-0.001032	0.544208
H140	H	1.674044	0.498968	1.044208
H141	H	1.109116	-0.066513	0.543414
H142	H	1.609116	0.433487	1.043414
H143	H	1.119527	-0.012679	0.627886
H144	H	1.619527	0.487321	1.127886
C145	C	0.442398	0.028288	-0.156295
C146	C	0.942398	0.528288	0.343705
H147	H	0.468898	-0.028163	-0.156203
H148	H	0.968898	0.471837	0.343797
H149	H	0.458685	0.056474	-0.208140
H150	H	0.958685	0.556474	0.291860
H151	H	0.382848	0.028014	-0.155961
H152	H	0.882848	0.528014	0.344039
H153	H	0.534918	0.189621	-0.134787
H154	H	1.034918	0.689621	0.365213
C155	C	0.864497	0.242795	0.435264
C156	C	1.364497	0.742795	0.935264
H157	H	0.824819	0.216934	0.400466
H158	H	1.324819	0.716934	0.900466
H159	H	0.890293	0.281868	0.399598
H160	H	1.390293	0.781868	0.899598
H161	H	0.836365	0.271625	0.484037
H162	H	1.336365	0.771625	0.984037
C163	C	1.078838	-0.335303	0.156628
C164	C	1.578838	0.164697	0.656628
H165	H	1.079582	-0.275810	0.156139
H166	H	1.579582	0.224190	0.656139
H167	H	1.135118	-0.362232	0.156849
H168	H	1.635118	0.137768	0.656849
H169	H	1.050278	-0.351191	0.208402
H170	H	1.550278	0.148809	0.708402
C171	C	0.957409	-0.047562	0.435112
C172	C	1.457409	0.452438	0.935112
H173	H	0.903439	-0.059044	0.455402
H174	H	1.403439	0.440956	0.955402
H175	H	0.999241	-0.090033	0.456286
H176	H	1.499241	0.409967	0.956286
H177	H	0.958052	-0.047073	0.371875
H178	H	1.458052	0.452927	0.871875
C179	C	1.162496	-0.468102	0.000194
C180	C	1.662496	0.031898	0.500194
H181	H	1.191087	-0.452584	0.052102
H182	H	1.691087	0.047416	0.552102
H183	H	1.191453	-0.451885	-0.051171
H184	H	1.691453	0.048115	0.448829
H185	H	1.160954	-0.527488	-0.000291
H186	H	1.660954	-0.027488	0.499709
H187	H	1.022224	0.255126	0.555856
H188	H	1.522224	0.755126	1.055856
H189	H	0.917574	-0.427758	-0.134630
H190	H	1.417574	0.072242	0.365370
C191	C	0.409134	0.285261	-0.000037
C192	C	0.909134	0.785261	0.499963
H193	H	0.424652	0.313852	-0.051944
H194	H	0.924652	0.813852	0.448056
H195	H	0.425354	0.314217	0.051328
H196	H	0.925354	0.814217	0.551328
H197	H	0.349749	0.283719	0.000449
H198	H	0.849749	0.783719	0.500449
H199	H	0.535052	0.189659	0.134767
H200	H	1.035052	0.689659	0.634767
H201	H	1.066896	-0.342185	-0.134615
H202	H	1.566896	0.157815	0.365385
