data_functionalizedCrystal
_audit_creation_method	'MofGen! by Chris Wilmer'
_symmetry_space_group_name_H-M	'P1'
_symmetry_Int_Tables_number	1
_symmetry_cell_setting	triclinic
loop_
_symmetry_equiv_pos_as_xyz
  x,y,z
_cell_length_a	12.759395
_cell_length_b	12.594516
_cell_length_c	12.759387
_cell_angle_alpha	89.970353
_cell_angle_beta	89.981185
_cell_angle_gamma	90.017589
loop_
_atom_site_label
_atom_site_type_symbol
_atom_site_fract_x
_atom_site_fract_y
_atom_site_fract_z
Zn1	Zn	1.606241	-0.423630	-0.594022
Zn2	Zn	1.606133	-0.601651	-0.418349
Zn3	Zn	1.430545	-0.423692	-0.418359
Zn4	Zn	1.430528	-0.601572	-0.593989
O5	O	1.518362	-0.512636	-0.506180
O6	O	1.753248	-0.447252	-0.570729
O7	O	1.582803	-0.578103	-0.271330
O8	O	1.453904	-0.274738	-0.441679
O9	O	1.753168	-0.578044	-0.441663
O10	O	1.582987	-0.274693	-0.570738
O11	O	1.453799	-0.447357	-0.271336
O12	O	1.283521	-0.447281	-0.441646
O13	O	1.453875	-0.577909	-0.741014
O14	O	1.283509	-0.577968	-0.570681
O15	O	1.582971	-0.447176	-0.741039
O16	O	1.582786	-0.750586	-0.441631
O17	O	1.453770	-0.750528	-0.570672
C18	C	1.245394	-0.512623	-0.506162
C19	C	1.128617	-0.512643	-0.506179
C20	C	1.518293	-0.789177	-0.506169
C21	C	1.518359	-0.907483	-0.506200
C22	C	1.128643	-0.648949	-0.640325
C23	C	1.073795	-0.717110	-0.707401
C24	C	0.964073	-0.717123	-0.707414
C25	C	0.909197	-0.648965	-0.640346
C26	C	0.964045	-0.580804	-0.573270
C27	C	1.073769	-0.580801	-0.573262
C28	C	0.964020	-0.444495	-0.439130
C29	C	1.073741	-0.444486	-0.439111
C30	C	0.909144	-0.376337	-0.372062
C31	C	0.963992	-0.308180	-0.304979
C32	C	1.073720	-0.308171	-0.304968
C33	C	1.128589	-0.376325	-0.372034
C34	C	1.448181	-0.976743	-0.576336
C35	C	1.422582	-1.047615	-0.480469
C36	C	1.544054	-1.047410	-0.602083
C37	C	1.492710	-0.976796	-0.410282
C38	C	1.614226	-0.976585	-0.531961
C39	C	1.588664	-1.047425	-0.436028
C40	C	1.792395	-0.512650	-0.506198
C41	C	1.909172	-0.512656	-0.506206
C42	C	1.518433	-0.512526	-0.780213
C43	C	1.518463	-0.512479	-0.896990
C44	C	1.518459	-0.235015	-0.506213
C45	C	1.518501	-0.116710	-0.506227
C46	C	1.384140	-0.376325	-0.897016
C47	C	1.316998	-0.308226	-0.951890
C48	C	1.317029	-0.308187	-1.061612
C49	C	1.384208	-0.376257	-1.116462
C50	C	1.451351	-0.444356	-1.061588
C51	C	1.451314	-0.444385	-0.951864
C52	C	1.585667	-0.580515	-1.061562
C53	C	1.585642	-0.580549	-0.951840
C54	C	1.652845	-0.648584	-1.116413
C55	C	1.719995	-0.716679	-1.061539
C56	C	1.719961	-0.716714	-0.951810
C57	C	1.652784	-0.648648	-0.896967
C58	C	1.518351	-0.512669	-0.233212
C59	C	1.518524	-0.512416	-0.116436
H60	H	1.217984	-0.648953	-0.640314
O61	O	1.383945	-0.376451	-0.790433
C62	C	1.283152	-0.403756	-0.632962
C63	C	1.283235	-0.403677	-0.753667
H64	H	1.201731	-0.425744	-0.603200
H65	H	1.342617	-0.464154	-0.603107
H66	H	1.305039	-0.321343	-0.603220
H67	H	1.261322	-0.486046	-0.783498
H68	H	1.223792	-0.343222	-0.783451
O69	O	1.785211	-0.782695	-1.114981
C70	C	1.844731	-0.843035	-1.284008
C71	C	1.770836	-0.768201	-1.223611
H72	H	1.833119	-0.831359	-1.371846
H73	H	1.929474	-0.824358	-1.262529
H74	H	1.826253	-0.928853	-1.262350
H75	H	1.789219	-0.682359	-1.245237
H76	H	1.686115	-0.786969	-1.245096
H77	H	1.565729	-1.078428	-0.683160
O78	O	1.251593	-0.242221	-0.898653
C79	C	1.072896	-0.190499	-0.865132
C80	C	1.146849	-0.265326	-0.925465
H81	H	0.988196	-0.209138	-0.886804
H82	H	1.084314	-0.202225	-0.777273
H83	H	1.091443	-0.104675	-0.886708
H84	H	1.128347	-0.351178	-0.903977
H85	H	1.135417	-0.253508	-1.013310
H86	H	1.774640	-0.772165	-0.907138
H87	H	1.118487	-0.772600	-0.762008
O88	O	1.377404	-0.939658	-0.647112
C89	C	1.349149	-0.835939	-0.803312
C90	C	1.429418	-0.877888	-0.723255
H91	H	1.391169	-0.785971	-0.864881
H92	H	1.308389	-0.905709	-0.843021
H93	H	1.288444	-0.785019	-0.761250
H94	H	1.490186	-0.928791	-0.765238
H95	H	1.470099	-0.808069	-0.683550
O96	O	0.910641	-0.242131	-0.239724
C97	C	0.786642	-0.227643	-0.097969
C98	C	0.847019	-0.302563	-0.171791
H99	H	0.735173	-0.276471	-0.043041
H100	H	0.844641	-0.178947	-0.049942
H101	H	0.735359	-0.172029	-0.146331
H102	H	0.898304	-0.358241	-0.123509
H103	H	0.788964	-0.351184	-0.219822
O104	O	1.652915	-0.648784	-0.790384
C105	C	1.726506	-0.723595	-0.632908
C106	C	1.726490	-0.723531	-0.753612
H107	H	1.785969	-0.784038	-0.603141
H108	H	1.748397	-0.641214	-0.603076
H109	H	1.645096	-0.745629	-0.603146
H110	H	1.807874	-0.701543	-0.783463
H111	H	1.704540	-0.805921	-0.783373
O112	O	0.910951	-0.783426	-0.772610
C113	C	0.922543	-0.918567	-0.905724
C114	C	0.982834	-0.843557	-0.831923
H115	H	0.980634	-0.967187	-0.953713
H116	H	0.871166	-0.974238	-0.857452
H117	H	0.871182	-0.869745	-0.960697
H118	H	1.034252	-0.892293	-0.776935
H119	H	1.034144	-0.787883	-0.880260
H120	H	0.819856	-0.648972	-0.640371
H121	H	1.262355	-0.252737	-1.106290
O122	O	1.325949	-1.084968	-0.454624
C123	C	1.177471	-1.190240	-0.507741
C124	C	1.286911	-1.148038	-0.537122
H125	H	1.145867	-1.241223	-0.574432
H126	H	1.183208	-1.240148	-0.433398
H127	H	1.122283	-1.120519	-0.493662
H128	H	1.342158	-1.217695	-0.551255
H129	H	1.281091	-1.098098	-0.611436
O130	O	0.802561	-0.376180	-0.372167
C131	C	0.645131	-0.274180	-0.399284
C132	C	0.765835	-0.274215	-0.399234
H133	H	0.615401	-0.191744	-0.421145
H134	H	0.615297	-0.334544	-0.458776
H135	H	0.615333	-0.296217	-0.317886
H136	H	0.795721	-0.252150	-0.480589
H137	H	0.795597	-0.213872	-0.339687
H138	H	1.217930	-0.376327	-0.372029
O139	O	1.126834	-0.241926	-0.239707
C140	C	1.115214	-0.106681	-0.106699
C141	C	1.054939	-0.181664	-0.180539
H142	H	1.057114	-0.057923	-0.058858
H143	H	1.166515	-0.155423	-0.051599
H144	H	1.166650	-0.051128	-0.155038
H145	H	1.003446	-0.237231	-0.132284
H146	H	1.003704	-0.132856	-0.235642
H147	H	1.470941	-0.945906	-0.329184
H148	H	1.695215	-0.945365	-0.553774
H149	H	1.648073	-1.078265	-0.376659
H150	H	1.384218	-0.376229	-1.205803
H151	H	1.652861	-0.648553	-1.205754
