data_functionalizedCrystal
_audit_creation_method	'MofGen! by Chris Wilmer'
_symmetry_space_group_name_H-M	'P1'
_symmetry_Int_Tables_number	1
_symmetry_cell_setting	triclinic
loop_
_symmetry_equiv_pos_as_xyz
  x,y,z
_cell_length_a	15.944551
_cell_length_b	11.792241
_cell_length_c	10.868271
_cell_angle_alpha	90.005281
_cell_angle_beta	89.991490
_cell_angle_gamma	96.153923
loop_
_atom_site_label
_atom_site_type_symbol
_atom_site_fract_x
_atom_site_fract_y
_atom_site_fract_z
O1	O	1.115184	-0.146380	-0.102442
O2	O	1.448518	0.186953	0.230891
O3	O	1.781851	0.520286	0.564224
O4	O	0.870716	-0.164428	-0.102419
O5	O	1.204050	0.168906	0.230915
O6	O	1.537383	0.502239	0.564248
O7	O	0.998883	0.009815	-0.102422
O8	O	1.332216	0.343149	0.230911
O9	O	1.665550	0.676482	0.564244
O10	O	0.987018	-0.320623	-0.102439
O11	O	1.320351	0.012710	0.230895
O12	O	1.653684	0.346043	0.564228
O13	O	0.998872	0.009822	0.102222
O14	O	1.332206	0.343156	0.435556
O15	O	1.665539	0.676489	0.768889
O16	O	0.870706	-0.164421	0.102226
O17	O	1.204039	0.168913	0.435559
O18	O	1.537372	0.502246	0.768893
O19	O	1.115174	-0.146374	0.102202
O20	O	1.448507	0.186960	0.435536
O21	O	1.781840	0.520293	0.768869
Zn22	Zn	0.992938	-0.155396	0.134706
Zn23	Zn	1.326271	0.177937	0.468039
Zn24	Zn	1.659605	0.511271	0.801373
Zn25	Zn	0.992952	-0.155405	-0.134922
Zn26	Zn	1.326285	0.177928	0.198411
Zn27	Zn	1.659619	0.511262	0.531744
O28	O	0.987007	-0.320617	0.102206
O29	O	1.320340	0.012717	0.435539
O30	O	1.653674	0.346050	0.768873
C31	C	0.839414	-0.163675	-0.000093
C32	C	1.172747	0.169658	0.333240
C33	C	1.506080	0.502992	0.666573
C34	C	0.746157	-0.161429	-0.000084
C35	C	1.079491	0.171905	0.333249
C36	C	1.412824	0.505238	0.666583
C37	C	0.998132	0.052104	-0.000100
C38	C	1.331466	0.385437	0.333233
C39	C	1.664799	0.718770	0.666566
C40	C	0.995901	0.178099	-0.000101
C41	C	1.329235	0.511432	0.333232
C42	C	1.662568	0.844766	0.666565
C43	C	1.146476	-0.147126	-0.000126
C44	C	1.479810	0.186207	0.333208
C45	C	1.813143	0.519540	0.666541
C46	C	1.239733	-0.149372	-0.000143
C47	C	1.573066	0.183961	0.333190
C48	C	1.906399	0.517294	0.666524
C49	C	1.455101	-0.262745	-0.000121
C50	C	1.788434	0.070588	0.333213
C51	C	2.121768	0.403922	0.666546
C52	C	1.515889	-0.210102	-0.101017
C53	C	1.849222	0.123231	0.232316
C54	C	2.182555	0.456565	0.565649
C55	C	1.410477	-0.153436	-0.000125
C56	C	1.743810	0.179898	0.333208
C57	C	2.077144	0.513231	0.666541
C58	C	1.515856	-0.210069	0.100746
C59	C	1.849189	0.123264	0.434080
C60	C	2.182523	0.456597	0.767413
C61	C	1.575407	-0.157369	-0.000103
C62	C	1.908741	0.175964	0.333230
C63	C	2.242074	0.509298	0.666564
C64	C	1.470036	-0.100763	-0.101106
C65	C	1.803370	0.232571	0.232228
C66	C	2.136703	0.565904	0.565561
C67	C	1.469997	-0.100745	0.100749
C68	C	1.803331	0.232588	0.434082
C69	C	2.136664	0.565921	0.767415
C70	C	1.530767	-0.048023	-0.000173
C71	C	1.864100	0.285311	0.333160
C72	C	2.197434	0.618644	0.666494
C73	C	1.315464	-0.151173	-0.000139
C74	C	1.648798	0.182160	0.333194
C75	C	1.982131	0.515493	0.666527
C76	C	1.670419	-0.159623	-0.000098
C77	C	2.003752	0.173710	0.333235
C78	C	2.337085	0.507044	0.666569
C79	C	0.987758	-0.362905	-0.000119
C80	C	1.321091	-0.029571	0.333215
C81	C	1.654424	0.303762	0.666548
C82	C	0.989989	-0.488900	-0.000126
C83	C	1.323322	-0.155567	0.333208
C84	C	1.656655	0.177767	0.666541
N85	N	0.992935	-0.155389	0.318720
N86	N	1.326268	0.177944	0.652053
N87	N	1.659601	0.511277	0.985387
C88	C	0.991799	0.408777	-0.000122
C89	C	1.325133	0.742111	0.333212
C90	C	1.658466	1.075444	0.666545
C91	C	0.994079	0.280411	-0.000111
C92	C	1.327412	0.613744	0.333223
C93	C	1.660745	0.947078	0.666556
N94	N	0.992962	-0.155403	-0.318936
N95	N	1.326295	0.177931	0.014397
N96	N	1.659629	0.511264	0.347730
C97	C	0.992948	-0.155403	0.569726
C98	C	1.326281	0.177931	0.903059
C99	C	1.659614	0.511264	1.236393
C100	C	0.992938	-0.155399	0.430049
C101	C	1.326271	0.177935	0.763382
C102	C	1.659604	0.511268	1.096715
H103	H	1.536216	-0.256340	-0.186320
H104	H	1.869549	0.076993	0.147014
H105	H	2.202883	0.410326	0.480347
C106	C	1.443054	-0.039390	-0.215085
C107	C	1.776387	0.293943	0.118248
C108	C	2.109720	0.627277	0.451581
C109	C	1.387367	-0.113895	-0.284385
C110	C	1.720701	0.219439	0.048948
C111	C	2.054034	0.552772	0.382281
C112	C	1.362501	-0.057409	-0.389399
C113	C	1.695834	0.275924	-0.056066
C114	C	2.029167	0.609258	0.277267
H115	H	1.415707	0.024841	-0.191137
H116	H	1.749041	0.358174	0.142196
H117	H	2.082374	0.691508	0.475530
H118	H	1.491311	-0.014781	-0.263276
H119	H	1.824645	0.318553	0.070057
H120	H	2.157978	0.651886	0.403391
H121	H	1.339118	-0.138487	-0.236204
H122	H	1.672451	0.194846	0.097129
H123	H	2.005784	0.528180	0.430463
H124	H	1.414695	-0.178126	-0.308365
H125	H	1.748029	0.155207	0.024968
H126	H	2.081362	0.488540	0.358301
H127	H	1.410758	-0.032800	-0.437590
H128	H	1.744092	0.300534	-0.104257
H129	H	2.077425	0.633867	0.229077
H130	H	1.335158	0.006820	-0.365439
H131	H	1.668491	0.340154	-0.032106
H132	H	2.001825	0.673487	0.301228
H133	H	1.324721	-0.107955	-0.436438
H134	H	1.658055	0.225379	-0.103105
H135	H	1.991388	0.558712	0.230229
H136	H	1.563510	0.042791	-0.000219
H137	H	1.896844	0.376125	0.333114
H138	H	2.230177	0.709458	0.666447
H139	H	1.449651	-0.054549	0.186059
H140	H	1.782985	0.278784	0.519392
H141	H	2.116318	0.612118	0.852725
H142	H	1.536145	-0.256319	0.186046
H143	H	1.869478	0.077014	0.519380
H144	H	2.202812	0.410347	0.852713
H145	H	1.422204	-0.353478	-0.000225
H146	H	1.755538	-0.020144	0.333108
H147	H	2.088871	0.313189	0.666441
