data_functionalizedCrystal
_audit_creation_method	'MofGen! by Chris Wilmer'
_symmetry_space_group_name_H-M	'P1'
_symmetry_Int_Tables_number	1
_symmetry_cell_setting	triclinic
loop_
_symmetry_equiv_pos_as_xyz
  x,y,z
_cell_length_a	12.837943
_cell_length_b	12.376492
_cell_length_c	12.811487
_cell_angle_alpha	106.625370
_cell_angle_beta	89.413002
_cell_angle_gamma	77.495738
loop_
_atom_site_label
_atom_site_type_symbol
_atom_site_fract_x
_atom_site_fract_y
_atom_site_fract_z
O1	O	1.390817	-0.067329	0.259982
O2	O	1.089252	-0.068747	0.246224
O3	O	1.250975	-0.083932	0.098006
O4	O	1.229094	-0.052144	0.408200
O5	O	1.210558	0.107871	0.135007
O6	O	1.048835	0.123057	0.283225
O7	O	1.350400	0.124474	0.296983
Zn8	Zn	1.193200	0.154218	0.295979
Zn9	Zn	1.246452	-0.098491	0.247228
O10	O	1.188677	0.139659	0.445201
C11	C	1.030504	0.026678	0.260077
C12	C	0.915668	0.025254	0.246217
N13	N	1.156865	0.326685	0.329250
C14	C	0.671815	0.042346	0.412842
C15	C	0.563916	0.041010	0.399824
C16	C	0.591965	0.021254	0.207165
C17	C	0.699865	0.022590	0.220183
C18	C	0.739786	0.033135	0.323024
C19	C	0.847689	0.034463	0.336040
C20	C	0.875735	0.014715	0.143384
C21	C	0.767835	0.013379	0.130366
C22	C	1.367131	0.661943	0.136704
C23	C	1.392556	0.541217	0.113416
C24	C	1.333635	0.487578	0.167373
C25	C	1.249286	0.554677	0.244620
C26	C	1.223863	0.675415	0.267916
C27	C	1.190368	0.501050	0.298585
C28	C	1.106018	0.568149	0.375833
C29	C	1.080599	0.688875	0.399124
C30	C	1.139520	0.742514	0.345168
C31	C	1.215790	0.380312	0.275289
C32	C	1.072522	0.393784	0.406502
C33	C	1.047097	0.514510	0.429789
C34	C	1.409149	0.029047	0.283129
C35	C	1.523987	0.030463	0.296988
C36	C	1.230779	0.007870	0.076527
C37	C	1.230802	-0.004346	-0.042601
N38	N	1.282788	0.729042	0.213956
C39	C	1.186797	0.181825	-0.226126
C40	C	1.186818	0.170352	-0.338057
C41	C	1.230871	-0.038762	-0.378394
C42	C	1.230851	-0.027289	-0.266464
C43	C	1.208811	0.083007	-0.190333
C44	C	1.208783	0.094479	-0.078401
C45	C	1.252844	-0.114634	-0.118740
C46	C	1.252865	-0.126107	-0.230671
C47	C	1.208874	0.047855	0.466680
C48	C	1.208852	0.060063	0.585806
H49	H	0.880190	0.043050	0.419779
H50	H	1.461233	0.486590	0.050523
H51	H	1.270757	-0.195099	-0.089587
H52	H	0.559422	0.012765	0.123455
H53	H	1.354340	0.389277	0.148408
H54	H	0.735313	0.004808	0.046637
C55	C	0.987816	0.762681	0.484104
N56	N	0.917930	0.818270	0.548109
C57	C	0.489151	0.051144	0.498631
N58	N	0.432837	0.058779	0.573057
H59	H	0.978418	0.569157	0.492686
C60	C	0.715733	0.053937	0.525965
N61	N	0.748809	0.062669	0.611172
H62	H	1.024545	0.350113	0.450440
H63	H	1.415102	0.705625	0.092785
C64	C	1.162548	0.303150	-0.142380
N65	N	1.144284	0.394535	-0.079303
C66	C	1.308567	0.306517	0.190312
N67	N	1.378449	0.250934	0.126299
C68	C	1.184543	0.215806	0.005342
N69	N	1.166288	0.307194	0.068414
H70	H	0.931091	0.007207	0.070246
H71	H	1.168892	0.250820	-0.367193
C72	C	1.111536	0.875318	0.370757
N73	N	1.090454	0.975346	0.390021
H74	H	1.270812	-0.215907	-0.292671
C75	C	1.255119	-0.160078	-0.462156
N76	N	1.273382	-0.251455	-0.525246
