data_functionalizedCrystal
_audit_creation_method	'MofGen! by Chris Wilmer'
_symmetry_space_group_name_H-M	'P1'
_symmetry_Int_Tables_number	1
_symmetry_cell_setting	triclinic
loop_
_symmetry_equiv_pos_as_xyz
  x,y,z
_cell_length_a	6.817900
_cell_length_b	14.359045
_cell_length_c	7.076028
_cell_angle_alpha	83.265728
_cell_angle_beta	62.299348
_cell_angle_gamma	63.445413
loop_
_atom_site_label
_atom_site_type_symbol
_atom_site_fract_x
_atom_site_fract_y
_atom_site_fract_z
V1	V	4.264076	-0.141789	-0.655569
O2	O	4.179978	0.008513	-0.652910
O3	O	4.278498	-0.282779	-0.641641
O4	O	4.289737	-0.138863	-0.945794
O5	O	4.168662	-0.136400	-0.346651
V6	V	4.729967	-0.123900	-0.619767
O7	O	4.564011	-0.181032	-0.734103
O8	O	4.880229	-0.084657	-0.541233
O9	O	4.492338	0.017090	-0.633696
O10	O	4.931462	-0.274202	-0.622426
O11	O	4.942778	-0.129289	-0.928685
O12	O	4.481100	-0.126826	-0.329542
C13	C	4.136404	-0.317174	-0.628871
C14	C	4.231738	-0.434597	-0.619245
C15	C	4.297809	0.051478	-0.646470
C16	C	4.181348	0.168898	-0.656147
V17	V	4.246383	0.359859	-0.652370
O18	O	4.128540	0.512781	-0.644613
O19	O	4.298003	0.213041	-0.649832
O20	O	4.308638	0.356916	-0.954069
O21	O	4.117831	0.367910	-0.338270
V22	V	4.645419	0.407005	-0.559232
O23	O	4.532201	0.334282	-0.704098
O24	O	4.755046	0.459092	-0.455540
O25	O	4.397738	0.540678	-0.587533
O26	O	4.866381	0.260996	-0.553439
O27	O	4.877090	0.405866	-0.859782
O28	O	4.387103	0.396804	-0.283296
C29	C	4.283442	-0.132099	-0.258487
C30	C	4.157683	-0.133585	-0.016830
C31	C	4.205083	0.381471	-0.231967
C32	C	4.061274	0.378771	0.007287
