data_functionalizedCrystal
_audit_creation_method	'MofGen! by Chris Wilmer'
_symmetry_space_group_name_H-M	'P1'
_symmetry_Int_Tables_number	1
_symmetry_cell_setting	triclinic
loop_
_symmetry_equiv_pos_as_xyz
  x,y,z
_cell_length_a	16.109318
_cell_length_b	17.699092
_cell_length_c	15.186229
_cell_angle_alpha	89.997943
_cell_angle_beta	90.000224
_cell_angle_gamma	83.377465
loop_
_atom_site_label
_atom_site_type_symbol
_atom_site_fract_x
_atom_site_fract_y
_atom_site_fract_z
O1	O	1.102957	0.097347	-0.073152
O2	O	1.602957	0.597347	0.426848
O3	O	0.860877	0.109440	-0.073169
O4	O	1.360877	0.609440	0.426831
O5	O	0.988753	-0.006785	-0.073158
O6	O	1.488753	0.493215	0.426842
O7	O	0.975081	0.213572	-0.073163
O8	O	1.475081	0.713572	0.426837
O9	O	0.988744	-0.006787	0.073299
O10	O	1.488744	0.493213	0.573299
O11	O	0.860868	0.109438	0.073288
O12	O	1.360868	0.609438	0.573288
O13	O	1.102949	0.097345	0.073305
O14	O	1.602949	0.597345	0.573305
Zn15	Zn	0.981907	0.103391	0.096550
Zn16	Zn	1.481907	0.603391	0.596550
Zn17	Zn	0.981918	0.103393	-0.096414
Zn18	Zn	1.481918	0.603393	0.403586
O19	O	0.975073	0.213570	0.073294
O20	O	1.475073	0.713570	0.573294
C21	C	0.829899	0.108947	0.000057
C22	C	1.329899	0.608947	0.500057
C23	C	0.737607	0.107471	0.000050
C24	C	1.237607	0.607471	0.500050
C25	C	0.438546	0.102707	-0.079768
C26	C	0.938546	0.602707	0.420232
C27	C	0.525264	0.104088	-0.079773
C28	C	1.025264	0.604088	0.420227
C29	C	0.525274	0.104076	0.079902
C30	C	1.025274	0.604076	0.579902
C31	C	0.438557	0.102689	0.079907
C32	C	0.938557	0.602689	0.579907
C33	C	0.395195	0.102008	0.000069
C34	C	0.895195	0.602008	0.500069
C35	C	0.568630	0.104776	0.000059
C36	C	1.068630	0.604776	0.500059
C37	C	0.662655	0.106274	0.000054
C38	C	1.162655	0.606274	0.500054
C39	C	0.301165	0.100509	0.000074
C40	C	0.801165	0.600509	0.500074
C41	C	0.988257	-0.034984	0.000069
C42	C	1.488257	0.465016	0.500069
C43	C	0.986784	-0.119004	0.000065
C44	C	1.486784	0.380996	0.500065
C45	C	0.986099	-0.158471	-0.079770
C46	C	1.486099	0.341529	0.420230
C47	C	0.984709	-0.237416	-0.079771
C48	C	1.484709	0.262584	0.420229
C49	C	0.984011	-0.276893	0.000064
C50	C	1.484011	0.223107	0.500064
C51	C	0.984694	-0.237420	0.079905
C52	C	1.484694	0.262580	0.579905
C53	C	0.986078	-0.158475	0.079905
C54	C	1.486078	0.341525	0.579905
C55	C	0.979114	-0.555793	0.079905
C56	C	1.479114	-0.055793	0.579905
C57	C	0.977733	-0.634743	0.079899
C58	C	1.477733	-0.134743	0.579899
C59	C	0.977745	-0.634734	-0.079770
C60	C	1.477745	-0.134734	0.420230
C61	C	0.979129	-0.555790	-0.079770
C62	C	1.479129	-0.055790	0.420230
C63	C	0.979807	-0.516323	0.000070
C64	C	1.479807	-0.016323	0.500070
C65	C	0.981312	-0.430721	0.000070
C66	C	1.481312	0.069279	0.500070
C67	C	0.982512	-0.362494	0.000064
C68	C	1.482512	0.137506	0.500064
C69	C	1.133927	0.097838	0.000077
C70	C	1.633927	0.597838	0.500077
C71	C	1.226219	0.099313	0.000078
C72	C	1.726219	0.599313	0.500078
C73	C	0.975568	0.241769	0.000065
C74	C	1.475568	0.741769	0.500065
C75	C	0.977041	0.325789	0.000063
C76	C	1.477041	0.825789	0.500063
N77	N	0.981905	0.103389	0.228242
N78	N	1.481905	0.603389	0.728242
N79	N	0.981926	0.103389	-0.228107
N80	N	1.481926	0.603389	0.271893
C81	C	1.038548	0.051942	0.453970
C82	C	1.538548	0.551942	0.953970
C83	C	1.038551	0.051940	0.546160
C84	C	1.538551	0.551940	1.046160
C85	C	0.925278	0.154839	0.546159
C86	C	1.425278	0.654839	1.046159
C87	C	0.925272	0.154837	0.453971
C88	C	1.425272	0.654837	0.953971
C89	C	0.981912	0.103389	0.407879
C90	C	1.481912	0.603389	0.907879
C91	C	0.981920	0.103390	0.592257
C92	C	1.481920	0.603390	1.092257
C93	C	0.981923	0.103388	0.692213
C94	C	1.481923	0.603388	1.192213
C95	C	0.981908	0.103389	0.307917
C96	C	1.481908	0.603389	0.807917
H97	H	0.560557	0.104655	-0.144785
H98	H	1.060557	0.604655	0.355215
O99	O	0.976928	-0.673157	0.157402
O100	O	1.476928	-0.173157	0.657402
C101	C	0.904138	-0.710220	0.162166
C102	C	1.404138	-0.210220	0.662166
H103	H	0.879953	-0.719183	0.092841
H104	H	1.379953	-0.219183	0.592841
H105	H	0.919342	-0.767665	0.195959
H106	H	1.419342	-0.267665	0.695959
H107	H	0.854261	-0.673783	0.201548
H108	H	1.354261	-0.173783	0.701548
H109	H	0.986672	-0.126336	-0.144781
H110	H	1.486672	0.373664	0.355219
H111	H	0.560590	0.104632	0.144903
H112	H	1.060590	0.604632	0.644903
H113	H	1.084668	0.010047	0.583685
H114	H	1.584668	0.510047	1.083685
O115	O	0.870182	0.204843	0.590798
O116	O	1.370182	0.704843	1.090798
C117	C	0.820203	0.250261	0.530345
C118	C	1.320203	0.750261	1.030345
H119	H	0.819325	0.219228	0.464632
H120	H	1.319325	0.719228	0.964632
H121	H	0.753789	0.261785	0.556984
H122	H	1.253789	0.761785	1.056984
H123	H	0.847081	0.306497	0.520534
H124	H	1.347081	0.806497	1.020534
O125	O	0.396564	0.102047	0.157544
O126	O	0.896564	0.602047	0.657544
C127	C	0.453432	0.102933	0.228010
C128	C	0.953432	0.602933	0.728010
H129	H	0.511756	0.127872	0.204608
H130	H	1.011756	0.627872	0.704608
H131	H	0.423025	0.139249	0.283850
H132	H	0.923025	0.639249	0.783850
H133	H	0.471499	0.042395	0.252554
H134	H	0.971499	0.542395	0.752554
H135	H	0.879148	0.196731	0.416441
H136	H	1.379148	0.696731	0.916441
H137	H	0.984154	-0.269548	-0.144781
H138	H	1.484154	0.230452	0.355219
O139	O	0.979767	-0.517555	-0.157400
O140	O	1.479767	-0.017555	0.342600
C141	C	0.978883	-0.569322	-0.227867
C142	C	1.478883	-0.069322	0.272133
H143	H	0.951587	-0.622460	-0.204466
H144	H	1.451587	-0.122460	0.295534
H145	H	0.938936	-0.541698	-0.283705
H146	H	1.438936	-0.041698	0.216295
H147	H	1.045411	-0.585668	-0.252413
H148	H	1.545411	-0.085668	0.247587
O149	O	0.976923	-0.673094	-0.157304
O150	O	1.476923	-0.173094	0.342696
C151	C	0.904153	-0.710185	-0.162071
C152	C	1.404153	-0.210185	0.337929
H153	H	0.854263	-0.680389	-0.116771
H154	H	1.354263	-0.180389	0.383229
H155	H	0.879981	-0.708201	-0.232683
H156	H	1.379981	-0.208201	0.267317
H157	H	0.919372	-0.771955	-0.140615
H158	H	1.419372	-0.271955	0.359385
O159	O	0.979834	-0.517586	0.157538
O160	O	1.479834	-0.017586	0.657538
C161	C	0.978915	-0.569360	0.227998
C162	C	1.478915	-0.069360	0.727998
H163	H	1.004225	-0.628772	0.204580
H164	H	1.504225	-0.128772	0.704580
H165	H	1.019681	-0.551376	0.283826
H166	H	1.519681	-0.051376	0.783826
H167	H	0.912100	-0.569798	0.252563
H168	H	1.412100	-0.069798	0.752563
H169	H	0.986624	-0.126341	0.144915
H170	H	1.486624	0.373659	0.644915
O171	O	0.984054	-0.275887	0.157378
O172	O	1.484054	0.224113	0.657378
C173	C	0.982670	-0.354027	0.140261
C174	C	1.482670	0.145973	0.640261
H175	H	1.008793	-0.367944	0.071649
H176	H	1.508793	0.132056	0.571649
H177	H	1.022494	-0.388841	0.191249
H178	H	1.522494	0.111159	0.691249
H179	H	0.915606	-0.368482	0.144044
H180	H	1.415606	0.131518	0.644044
H181	H	1.084667	0.010049	0.416444
H182	H	1.584667	0.510049	0.916444
H183	H	0.403242	0.102151	-0.144777
H184	H	0.903242	0.602151	0.355223
