data_functionalizedCrystal
_audit_creation_method	'MofGen! by Chris Wilmer'
_symmetry_space_group_name_H-M	'P1'
_symmetry_Int_Tables_number	1
_symmetry_cell_setting	triclinic
loop_
_symmetry_equiv_pos_as_xyz
  x,y,z
_cell_length_a	10.723024
_cell_length_b	10.489741
_cell_length_c	9.198806
_cell_angle_alpha	89.997101
_cell_angle_beta	89.996352
_cell_angle_gamma	84.503522
loop_
_atom_site_label
_atom_site_type_symbol
_atom_site_fract_x
_atom_site_fract_y
_atom_site_fract_z
O1	O	1.657297	0.178906	-0.120882
O2	O	1.294155	0.196031	-0.120887
O3	O	1.483989	0.001865	-0.120876
O4	O	1.467463	0.373072	-0.120893
O5	O	1.483974	0.001865	0.120909
O6	O	1.294140	0.196030	0.120898
O7	O	1.657282	0.178906	0.120903
Cu8	Cu	1.475710	0.187468	0.142977
Cu9	Cu	1.475728	0.187469	-0.142962
O10	O	1.467448	0.373071	0.120892
C11	C	1.247647	0.194785	0.000005
C12	C	1.109091	0.191056	0.000003
C13	C	1.482734	-0.045666	0.000016
C14	C	1.478999	-0.187293	0.000013
C15	C	1.034175	0.299701	-0.000003
C16	C	0.890969	0.295850	-0.000005
C17	C	1.358213	-0.255356	0.000001
C18	C	1.415264	-0.347515	0.119214
C19	C	1.415308	-0.347489	-0.119167
C20	C	1.536100	-0.277587	0.119325
C21	C	1.536126	-0.277551	-0.119163
C22	C	1.593265	-0.369683	0.000079
C23	C	1.703790	0.180152	0.000008
C24	C	1.842347	0.183881	-0.000000
C25	C	1.468704	0.420602	-0.000003
C26	C	1.472438	0.562229	-0.000010
N27	N	1.475706	0.187467	0.344091
N28	N	1.475741	0.187460	-0.344075
C29	C	1.555412	0.105583	0.416293
C30	C	1.555431	0.105578	0.583705
H31	H	1.076055	0.395567	0.000001
C32	C	1.383533	0.282175	0.428003
C33	C	1.433541	0.379927	0.532663
C34	C	1.341365	0.474639	0.616570
C35	C	1.199180	0.471597	0.595817
C36	C	1.149164	0.373841	0.491152
C37	C	1.241341	0.279129	0.407245
H38	H	1.538802	0.382182	0.548030
H39	H	1.378391	0.547004	0.694050
H40	H	1.130945	0.541708	0.657930
H41	H	1.043904	0.371586	0.475785
H42	H	1.204315	0.206763	0.329765
H43	H	1.587197	-0.246539	-0.219954
H44	H	0.906715	0.090867	-0.000004
C45	C	1.052527	0.061539	0.000008
C46	C	0.966769	0.027324	0.125561
C47	C	0.910210	-0.102198	0.125566
C48	C	0.939409	-0.197504	0.000019
C49	C	1.025172	-0.163292	-0.125543
C50	C	1.081731	-0.033770	-0.125549
H51	H	0.945150	0.097878	0.218507
H52	H	0.846722	-0.127524	0.218516
H53	H	0.897541	-0.293384	0.000023
H54	H	1.046791	-0.233845	-0.218489
H55	H	1.145219	-0.008444	-0.218499
H56	H	1.258904	-0.205641	0.000120
H57	H	0.826593	0.388858	-0.000016
C58	C	1.605069	-0.235991	0.255640
C59	C	1.621299	-0.093398	0.280874
C60	C	1.690261	-0.051799	0.417189
C61	C	1.742995	-0.152794	0.528270
C62	C	1.726767	-0.295396	0.503039
C63	C	1.657804	-0.336995	0.366724
H64	H	1.582261	-0.018628	0.198642
H65	H	1.702274	0.053765	0.435866
H66	H	1.794045	-0.122000	0.629179
H67	H	1.765804	-0.370166	0.585271
H68	H	1.645791	-0.442559	0.348047
C69	C	1.647624	0.010866	0.667574
C70	C	1.597641	-0.086853	0.772315
C71	C	1.689837	-0.181569	0.856187
C72	C	1.832016	-0.178566	0.835317
C73	C	1.882007	-0.080843	0.730571
C74	C	1.789810	0.013872	0.646699
H75	H	1.492385	-0.089079	0.787769
H76	H	1.652830	-0.253910	0.933727
H77	H	1.900266	-0.248680	0.897404
H78	H	1.987263	-0.078617	0.715117
H79	H	1.826817	0.086213	0.569159
H80	H	1.364150	-0.378494	0.219999
H81	H	1.692663	-0.419171	0.000147
H82	H	1.364191	-0.378420	-0.219962
H83	H	1.623633	0.035476	0.354171
H84	H	1.407503	0.257572	0.593844
