data_functionalizedCrystal
_audit_creation_method	'MofGen! by Chris Wilmer'
_symmetry_space_group_name_H-M	'P1'
_symmetry_Int_Tables_number	1
_symmetry_cell_setting	triclinic
loop_
_symmetry_equiv_pos_as_xyz
  x,y,z
_cell_length_a	10.654549
_cell_length_b	11.026607
_cell_length_c	9.482900
_cell_angle_alpha	78.599815
_cell_angle_beta	99.379624
_cell_angle_gamma	96.535397
loop_
_atom_site_label
_atom_site_type_symbol
_atom_site_fract_x
_atom_site_fract_y
_atom_site_fract_z
O1	O	1.720212	0.151900	0.120857
O2	O	1.358266	0.168168	0.120866
O3	O	1.509240	-0.016871	0.120857
O4	O	1.569237	0.336939	0.120866
O5	O	1.478608	0.020867	-0.120934
O6	O	1.327634	0.205906	-0.120924
O7	O	1.689580	0.189637	-0.120934
Cu8	Cu	1.505810	0.201218	-0.143006
Cu9	Cu	1.542036	0.156588	0.142939
O10	O	1.538605	0.374677	-0.120925
C11	C	1.295893	0.185842	-0.000028
C12	C	1.155674	0.182268	-0.000024
C13	C	0.968078	0.287850	-0.000027
C14	C	1.099830	0.291216	-0.000018
C15	C	1.079760	0.069944	-0.000023
C16	C	0.948011	0.066578	-0.000022
C17	C	1.482857	-0.043306	-0.000036
C18	C	1.449863	-0.178299	-0.000030
C19	C	1.540966	-0.251338	-0.000031
C20	C	1.506868	-0.390860	-0.000024
C21	C	1.751953	0.171963	-0.000037
C22	C	1.892173	0.175536	-0.000031
C23	C	1.564989	0.401111	-0.000028
C24	C	1.597984	0.536103	-0.000025
N25	N	1.480340	0.232607	-0.344125
C26	C	1.534513	0.165840	-0.416328
C27	C	1.513333	0.191966	-0.583744
N28	N	1.567514	0.125189	0.344057
H29	H	1.125239	-0.018764	-0.000019
N30	N	0.907834	0.405350	-0.000020
H31	H	0.842267	0.422870	-0.089654
H32	H	0.975985	0.476944	0.000041
H33	H	1.629573	0.048677	-0.593822
H34	H	1.596568	0.089332	-0.354203
H35	H	1.161628	0.382673	-0.000014
N36	N	0.866123	-0.054563	-0.000027
H37	H	0.896016	-0.116337	0.089601
H38	H	0.873332	-0.088250	-0.089722
N39	N	1.677723	-0.197360	-0.000052
H40	H	1.682696	-0.105340	-0.000063
H41	H	1.709597	-0.211397	-0.089696
N42	N	1.370104	-0.444832	-0.000006
H43	H	1.365130	-0.536851	-0.000001
H44	H	1.315497	-0.402829	-0.089641
N45	N	1.313100	-0.232265	-0.000038
H46	H	1.281124	-0.218321	0.089591
H47	H	1.308220	-0.324266	-0.000093
N48	N	1.431120	0.293311	-0.666012
H49	H	1.341959	0.274651	-0.639616
H50	H	1.427744	0.297560	-0.773920
N51	N	1.734753	-0.409932	-0.000018
H52	H	1.739729	-0.317913	-0.000019
H53	H	1.766646	-0.423965	-0.089652
N54	N	1.398121	0.333939	-0.426401
H55	H	1.394642	0.338236	-0.534335
H56	H	1.435729	0.416139	-0.399871
