data_functionalizedCrystal
_audit_creation_method	'MofGen! by Chris Wilmer'
_symmetry_space_group_name_H-M	'P1'
_symmetry_Int_Tables_number	1
_symmetry_cell_setting	triclinic
loop_
_symmetry_equiv_pos_as_xyz
  x,y,z
_cell_length_a	10.685661
_cell_length_b	18.050590
_cell_length_c	10.686551
_cell_angle_alpha	85.590282
_cell_angle_beta	80.927378
_cell_angle_gamma	85.639637
loop_
_atom_site_label
_atom_site_type_symbol
_atom_site_fract_x
_atom_site_fract_y
_atom_site_fract_z
Zn1	Zn	1.995678	-0.346640	-0.866129
Zn2	Zn	2.329012	-0.013307	-0.532796
Zn3	Zn	2.662345	0.320026	-0.199463
Zn4	Zn	1.979241	-0.479696	-0.653853
Zn5	Zn	2.312574	-0.146363	-0.320519
Zn6	Zn	2.645907	0.186970	0.012814
Zn7	Zn	1.767113	-0.346674	-0.637654
Zn8	Zn	2.100446	-0.013341	-0.304321
Zn9	Zn	2.433780	0.319992	0.029012
Zn10	Zn	1.783373	-0.461940	-0.849817
Zn11	Zn	2.116706	-0.128607	-0.516484
Zn12	Zn	2.450040	0.204727	-0.183151
O13	O	1.881351	-0.408738	-0.751863
O14	O	2.214685	-0.075404	-0.418530
O15	O	2.548018	0.257929	-0.085197
O16	O	2.171124	-0.371707	-0.851576
O17	O	2.504458	-0.038374	-0.518243
O18	O	2.837791	0.294959	-0.184909
O19	O	1.937417	-0.469496	-0.474075
O20	O	2.270751	-0.136162	-0.140741
O21	O	2.604084	0.197171	0.192592
O22	O	1.797507	-0.242746	-0.668010
O23	O	2.130840	0.090587	-0.334676
O24	O	2.464174	0.423920	-0.001343
O25	O	2.159048	-0.469463	-0.695617
O26	O	2.492381	-0.136130	-0.362284
O27	O	2.825714	0.197204	-0.028951
O28	O	1.965433	-0.242722	-0.835869
O29	O	2.298766	0.090612	-0.502536
O30	O	2.632100	0.423945	-0.169203
O31	O	1.781568	-0.371765	-0.462174
O32	O	2.114902	-0.038432	-0.128840
O33	O	2.448235	0.294902	0.204493
O34	O	1.591644	-0.354548	-0.652193
O35	O	1.924977	-0.021214	-0.318859
O36	O	2.258310	0.312119	0.014474
O37	O	1.825220	-0.439200	-1.029611
O38	O	2.158553	-0.105867	-0.696277
O39	O	2.491887	0.227467	-0.362944
O40	O	1.603590	-0.439233	-0.808068
O41	O	1.936923	-0.105900	-0.474734
O42	O	2.270256	0.227434	-0.141401
O43	O	1.981200	-0.354490	-1.041595
O44	O	2.314533	-0.021157	-0.708262
O45	O	2.647866	0.312177	-0.374928
O46	O	1.953184	-0.581264	-0.679800
O47	O	2.286517	-0.247931	-0.346467
O48	O	2.619851	0.085402	-0.013134
O49	O	1.809281	-0.568219	-0.823775
O50	O	2.142614	-0.234885	-0.490441
O51	O	2.475948	0.098448	-0.157108
C52	C	1.551560	-0.394968	-0.726603
C53	C	1.884893	-0.061634	-0.393270
C54	C	2.218227	0.271699	-0.059936
C55	C	1.410476	-0.389093	-0.715827
C56	C	1.743810	-0.055760	-0.382493
C57	C	2.077143	0.277573	-0.049160
C58	C	1.881250	-0.601688	-0.751805
C59	C	2.214583	-0.268355	-0.418472
C60	C	2.547916	0.064979	-0.085139
C61	C	1.881326	-0.684236	-0.751832
C62	C	2.214659	-0.350903	-0.418499
C63	C	2.547992	-0.017569	-0.085165
C64	C	1.959766	-0.890756	-0.673670
C65	C	2.293099	-0.557423	-0.340337
C66	C	2.626432	-0.224089	-0.007004
C67	C	1.999670	-0.936543	-0.791891
C68	C	2.333003	-0.603209	-0.458557
C69	C	2.666336	-0.269876	-0.125224
C70	C	1.881402	-0.835367	-0.751888
C71	C	2.214735	-0.502034	-0.418555
C72	C	2.548068	-0.168700	-0.085221
C73	C	1.841631	-0.936665	-0.633730
C74	C	2.174964	-0.603332	-0.300396
C75	C	2.508297	-0.269999	0.032937
C76	C	1.881477	-0.981354	-0.751932
C77	C	2.214810	-0.648020	-0.418599
C78	C	2.548143	-0.314687	-0.085266
C79	C	1.921370	-0.880066	-0.870174
C80	C	2.254703	-0.546733	-0.536840
C81	C	2.588037	-0.213400	-0.203507
C82	C	1.763271	-0.880186	-0.711930
C83	C	2.096605	-0.546852	-0.378597
C84	C	2.429938	-0.213519	-0.045264
C85	C	1.803137	-0.925945	-0.830227
C86	C	2.136471	-0.592612	-0.496894
C87	C	2.469804	-0.259278	-0.163561
C88	C	1.881362	-0.751268	-0.751861
C89	C	2.214695	-0.417935	-0.418528
C90	C	2.548028	-0.084602	-0.085194
C91	C	1.881518	-1.065450	-0.751972
C92	C	2.214851	-0.732117	-0.418639
C93	C	2.548184	-0.398783	-0.085305
C94	C	2.212430	-0.422562	-0.777223
C95	C	2.545764	-0.089229	-0.443890
C96	C	2.879097	0.244105	-0.110557
C97	C	2.353516	-0.428453	-0.788030
C98	C	2.686850	-0.095120	-0.454697
C99	C	3.020183	0.238213	-0.121363
C100	C	1.906857	-0.394861	-1.082948
C101	C	2.240190	-0.061527	-0.749615
C102	C	2.573524	0.271806	-0.416281
C103	C	1.917726	-0.388947	-1.224036
C104	C	2.251059	-0.055614	-0.890703
C105	C	2.584393	0.277720	-0.557370
C106	C	1.881490	-0.215034	-0.751952
C107	C	2.214823	0.118299	-0.418619
C108	C	2.548156	0.451632	-0.085285
C109	C	1.881549	-0.132490	-0.751990
C110	C	2.214882	0.200844	-0.418657
C111	C	2.548216	0.534177	-0.085323
C112	C	1.856018	-0.422510	-0.422073
C113	C	2.189351	-0.089177	-0.088739
C114	C	2.522684	0.244156	0.244594
C115	C	1.845395	-0.428225	-0.281004
C116	C	2.178728	-0.094892	0.052330
C117	C	2.512061	0.238442	0.385663
H118	H	2.026065	-0.875072	-0.607600
H119	H	2.359399	-0.541739	-0.274267
H120	H	2.692732	-0.208405	0.059066
Br121	Br	1.728325	-0.491822	-1.182397
Br122	Br	2.061658	-0.158489	-0.849064
Br123	Br	2.394991	0.174845	-0.515731
H124	H	1.412684	-0.466640	-0.858099
H125	H	1.746018	-0.133307	-0.524765
H126	H	2.079351	0.200027	-0.191432
Br127	Br	1.311860	-0.325428	-0.599051
Br128	Br	1.645194	0.007906	-0.265717
Br129	Br	1.978527	0.341239	0.067616
H130	H	1.663363	-0.855533	-0.678076
H131	H	1.996696	-0.522200	-0.344742
H132	H	2.330030	-0.188866	-0.011409
Br133	Br	2.166239	-0.977589	-0.848293
Br134	Br	2.499572	-0.644256	-0.514960
Br135	Br	2.832905	-0.310922	-0.181627
H136	H	1.736906	-0.941487	-0.896475
H137	H	2.070239	-0.608153	-0.563142
H138	H	2.403573	-0.274820	-0.229808
H139	H	1.987977	-0.350796	-1.283208
H140	H	2.321311	-0.017463	-0.949875
H141	H	2.654644	0.315871	-0.616541
Br142	Br	1.977697	-0.838990	-1.036814
Br143	Br	2.311030	-0.505656	-0.703481
Br144	Br	2.644364	-0.172323	-0.370147
H145	H	1.807963	-0.961410	-0.533786
H146	H	2.141296	-0.628077	-0.200453
H147	H	2.474629	-0.294743	0.132881
