data_functionalizedCrystal
_audit_creation_method	'MofGen! by Chris Wilmer'
_symmetry_space_group_name_H-M	'P1'
_symmetry_Int_Tables_number	1
_symmetry_cell_setting	triclinic
loop_
_symmetry_equiv_pos_as_xyz
  x,y,z
_cell_length_a	23.532355
_cell_length_b	14.044220
_cell_length_c	22.010155
_cell_angle_alpha	89.984852
_cell_angle_beta	89.995895
_cell_angle_gamma	91.991812
loop_
_atom_site_label
_atom_site_type_symbol
_atom_site_fract_x
_atom_site_fract_y
_atom_site_fract_z
O1	O	0.761497	-0.114787	0.050444
O2	O	1.261497	0.385213	0.550444
O3	O	0.596534	-0.131479	0.050463
O4	O	1.096534	0.368521	0.550463
O5	O	0.676540	0.014828	0.050448
O6	O	1.176540	0.514828	0.550448
O7	O	0.681492	-0.261093	0.050459
O8	O	1.181492	0.238907	0.550459
O9	O	0.676537	0.014859	-0.050603
O10	O	1.176537	0.514859	0.449397
O11	O	0.596532	-0.131448	-0.050587
O12	O	1.096532	0.368552	0.449413
O13	O	0.761495	-0.114756	-0.050607
O14	O	1.261495	0.385244	0.449393
Cu15	Cu	0.679013	-0.123099	-0.059824
Cu16	Cu	1.179013	0.376901	0.440176
Cu17	Cu	0.679016	-0.123135	0.059680
Cu18	Cu	1.179016	0.376865	0.559680
O19	O	0.681489	-0.261062	-0.050591
O20	O	1.181489	0.238938	0.449409
C21	C	0.575294	-0.131046	-0.000060
C22	C	1.075294	0.368954	0.499940
C23	C	0.512007	-0.129792	-0.000052
C24	C	1.012007	0.370208	0.499948
C25	C	0.119565	-0.121893	-0.055161
C26	C	0.619565	0.378107	0.444839
C27	C	0.060101	-0.120699	-0.055163
C28	C	0.560101	0.379301	0.444837
O29	O	0.029346	-0.120035	-0.102008
O30	O	0.529346	0.379965	0.397992
N31	N	0.030361	-0.120124	-0.000081
N32	N	0.530361	0.379876	0.499919
C33	C	0.060090	-0.120733	0.055008
C34	C	0.560090	0.379267	0.555008
O35	O	0.029334	-0.120134	0.101859
O36	O	0.529334	0.379866	0.601859
C37	C	0.119553	-0.121920	0.055009
C38	C	0.619553	0.378080	0.555009
C39	C	0.149289	-0.122504	-0.000077
C40	C	0.649289	0.377496	0.499923
C41	C	0.149301	-0.122476	-0.110242
C42	C	0.649301	0.377524	0.389758
C43	C	0.208761	-0.123671	-0.110239
C44	C	0.708761	0.376329	0.389761
C45	C	0.238485	-0.124283	-0.055155
C46	C	0.738485	0.375717	0.444845
C47	C	0.208749	-0.123700	-0.000074
C48	C	0.708749	0.376300	0.499926
C49	C	0.149280	-0.122522	0.110097
C50	C	0.649280	0.377478	0.610097
C51	C	0.208748	-0.123708	0.110094
C52	C	0.708748	0.376292	0.610094
C53	C	0.238484	-0.124293	0.055008
C54	C	0.738484	0.375707	0.555008
C55	C	0.297933	-0.125507	0.055013
C56	C	0.797933	0.374493	0.555013
N57	N	0.327672	-0.126082	-0.000070
N58	N	0.827672	0.373918	0.499930
C59	C	0.297948	-0.125470	-0.055154
C60	C	0.797948	0.374530	0.444846
C61	C	-0.064787	-0.118239	0.055000
C62	C	0.435213	0.381761	0.555000
C63	C	-0.124249	-0.117060	0.054999
C64	C	0.375751	0.382940	0.554999
C65	C	-0.124234	-0.117024	-0.055172
C66	C	0.375766	0.382976	0.444828
C67	C	-0.064771	-0.118211	-0.055171
C68	C	0.435229	0.381789	0.444829
C69	C	-0.035048	-0.118814	-0.000083
C70	C	0.464952	0.381186	0.499917
C71	C	0.422818	-0.127981	-0.055144
C72	C	0.922818	0.372019	0.444856
C73	C	0.482283	-0.129180	-0.055136
C74	C	0.982283	0.370820	0.444864
C75	C	0.482263	-0.129211	0.055034
C76	C	0.982263	0.370789	0.555034
C77	C	0.422803	-0.128016	0.055027
C78	C	0.922803	0.371984	0.555027
C79	C	0.393082	-0.127398	-0.000067
C80	C	0.893082	0.372602	0.499933
O81	O	0.328726	-0.126167	0.101834
O82	O	0.828726	0.373833	0.601834
O83	O	0.328711	-0.126057	-0.101997
O84	O	0.828711	0.373943	0.398003
C85	C	0.674371	0.050137	-0.000078
C86	C	1.174371	0.550137	0.499922
C87	C	0.667905	0.155300	-0.000078
C88	C	1.167905	0.655300	0.499922
C89	C	0.782735	-0.115188	-0.000083
C90	C	1.282735	0.384812	0.499917
C91	C	0.846022	-0.116443	-0.000086
C92	C	1.346022	0.383557	0.499914
C93	C	0.683658	-0.296371	-0.000065
C94	C	1.183658	0.203629	0.499935
C95	C	0.690124	-0.401534	-0.000061
C96	C	1.190124	0.098466	0.499939
N97	N	0.679015	-0.123073	-0.143876
N98	N	1.179015	0.376927	0.356124
C99	C	0.656083	0.347846	-0.000067
C100	C	1.156083	0.847846	0.499933
C101	C	0.701943	0.405925	-0.000071
C102	C	1.201943	0.905925	0.499929
C103	C	0.695365	0.513065	-0.000065
C104	C	1.195365	1.013065	0.499935
C105	C	0.662660	0.240696	-0.000073
C106	C	1.162660	0.740696	0.499927
N107	N	0.679018	-0.123154	0.143733
N108	N	1.179018	0.376846	0.643733
C109	C	0.716402	-0.180395	0.436338
C110	C	1.216402	0.319605	0.936338
C111	C	0.716402	-0.180400	0.372731
C112	C	1.216402	0.319600	0.872731
O113	O	0.748200	-0.229092	0.339834
O114	O	1.248200	0.270908	0.839834
N115	N	0.679026	-0.123126	0.340917
N116	N	1.179026	0.376874	0.840917
C117	C	0.641650	-0.065835	0.372713
C118	C	1.141650	0.434165	0.872713
O119	O	0.609858	-0.017119	0.339812
O120	O	1.109858	0.482881	0.839812
C121	C	0.641652	-0.065825	0.436320
C122	C	1.141652	0.434175	0.936320
C123	C	0.679028	-0.123111	0.468131
C124	C	1.179028	0.376889	0.968131
C125	C	0.753774	-0.237675	0.468149
C126	C	1.253774	0.262325	0.968149
C127	C	0.753773	-0.237670	0.531753
C128	C	1.253773	0.262330	1.031753
C129	C	0.716399	-0.180386	0.563545
C130	C	1.216399	0.319614	1.063545
C131	C	0.679026	-0.123106	0.531734
C132	C	1.179026	0.376894	1.031734
C133	C	0.604280	-0.008530	0.468116
C134	C	1.104280	0.491470	0.968116
C135	C	0.604286	-0.008524	0.531726
C136	C	1.104286	0.491476	1.031726
C137	C	0.641661	-0.065810	0.563537
C138	C	1.141661	0.434190	1.063537
C139	C	0.641651	-0.065818	0.627130
C140	C	1.141651	0.434182	1.127130
N141	N	0.679027	-0.123092	0.658944
N142	N	1.179027	0.376908	1.158944
C143	C	0.716401	-0.180376	0.627151
C144	C	1.216401	0.319624	1.127151
C145	C	0.641648	-0.065859	0.239136
C146	C	1.141648	0.434141	0.739136
C147	C	0.641642	-0.065873	0.175530
C148	C	1.141642	0.434127	0.675530
C149	C	0.716395	-0.180437	0.175552
C150	C	1.216395	0.319563	0.675552
C151	C	0.716398	-0.180428	0.239159
C152	C	1.216398	0.319572	0.739159
C153	C	0.679024	-0.123133	0.270950
C154	C	1.179024	0.376867	0.770950
C155	C	0.716395	-0.180363	0.760723
C156	C	1.216395	0.319637	1.260723
C157	C	0.716389	-0.180357	0.824331
C158	C	1.216389	0.319643	1.324331
C159	C	0.641638	-0.065789	0.824304
C160	C	1.141638	0.434211	1.324304
C161	C	0.641642	-0.065799	0.760701
C162	C	1.141642	0.434201	1.260701
C163	C	0.679025	-0.123089	0.728912
C164	C	1.179025	0.376911	1.228912
O165	O	0.609871	-0.017148	0.660066
O166	O	1.109871	0.482852	1.160066
O167	O	0.748193	-0.229075	0.660060
O168	O	1.248193	0.270925	1.160060
H169	H	0.232966	-0.124142	-0.155096
H170	H	0.732966	0.375858	0.344904
H171	H	0.573846	0.038119	0.442226
H172	H	1.073846	0.538119	0.942226
C173	C	0.514592	-0.130005	-0.114929
C174	C	1.014592	0.369995	0.385071
C175	C	0.546446	-0.212220	-0.118154
C176	C	1.046446	0.287780	0.381846
C177	C	0.576207	-0.213016	-0.173226
C178	C	1.076207	0.286984	0.326774
H179	H	0.539374	-0.075280	-0.117279
H180	H	1.039374	0.424720	0.382721
H181	H	0.488386	-0.129517	-0.147752
H182	H	0.988386	0.370483	0.352248
H183	H	0.572648	-0.212699	-0.085340
H184	H	1.072648	0.287301	0.414660
H185	H	0.521677	-0.266959	-0.115814
H186	H	1.021677	0.233041	0.384186
H187	H	0.550002	-0.212529	-0.206049
H188	H	1.050002	0.287471	0.293951
H189	H	0.600986	-0.158288	-0.175572
H190	H	1.100986	0.341712	0.324428
H191	H	0.597820	-0.268802	-0.175424
H192	H	1.097820	0.231198	0.324576
H193	H	0.784210	-0.284314	0.557647
H194	H	1.284210	0.215686	1.057647
H195	H	0.398626	-0.127486	-0.100007
H196	H	0.898626	0.372514	0.399993
C197	C	-0.156434	-0.116201	-0.115027
C198	C	0.343566	0.383799	0.384973
C199	C	-0.139684	-0.034970	-0.148266
C200	C	0.360316	0.465030	0.351734
C201	C	-0.169330	-0.034187	-0.203406
C202	C	0.330670	0.465813	0.296594
H203	H	-0.196114	-0.115358	-0.107222
H204	H	0.303886	0.384642	0.392778
H205	H	-0.148216	-0.171614	-0.137694
H206	H	0.351784	0.328386	0.362306
H207	H	-0.147907	0.020428	-0.125603
H208	H	0.352093	0.520428	0.374397
H209	H	-0.100010	-0.035797	-0.156086
H210	H	0.399990	0.464203	0.343914
H211	H	-0.161112	-0.089600	-0.226074
H212	H	0.338888	0.410400	0.273926
H213	H	-0.209008	-0.033346	-0.195596
H214	H	0.290992	0.466654	0.304404
H215	H	-0.157965	0.020923	-0.225968
H216	H	0.342035	0.520923	0.274032
C217	C	-0.032484	-0.118717	0.114796
C218	C	0.467516	0.381283	0.614796
C219	C	0.003914	-0.037871	0.118029
C220	C	0.503914	0.462129	0.618029
C221	C	0.033672	-0.038272	0.173107
C222	C	0.533672	0.461728	0.673107
H223	H	-0.010779	-0.174375	0.117149
H224	H	0.489221	0.325625	0.617149
H225	H	-0.058696	-0.118156	0.147614
H226	H	0.441304	0.381844	0.647614
H227	H	0.030124	-0.038441	0.085220
H228	H	0.530124	0.461559	0.585220
H229	H	-0.017776	0.017799	0.115686
H230	H	0.482224	0.517799	0.615686
H231	H	0.007459	-0.037711	0.205925
H232	H	0.507459	0.462289	0.705925
H233	H	0.055373	-0.093933	0.175455
H234	H	0.555373	0.406067	0.675455
H235	H	0.058367	0.016585	0.175310
H236	H	0.558367	0.516585	0.675310
C237	C	0.760834	0.364760	-0.000116
C238	C	1.260834	0.864760	0.499884
C239	C	0.755737	0.265135	-0.000136
C240	C	1.255737	0.765135	0.499864
C241	C	0.809972	0.227177	-0.000188
C242	C	1.309972	0.727177	0.499812
H243	H	0.780982	0.385625	0.035109
H244	H	1.280982	0.885625	0.535109
H245	H	0.780931	0.385715	-0.035372
H246	H	1.280931	0.885715	0.464628
H247	H	0.735648	0.244188	0.035117
H248	H	1.235648	0.744188	0.535117
H249	H	0.735598	0.244244	-0.035359
H250	H	1.235598	0.744244	0.464641
H251	H	0.830069	0.248132	-0.035445
H252	H	1.330069	0.748132	0.464555
H253	H	0.830116	0.248048	0.035038
H254	H	1.330116	0.748048	0.535038
H255	H	0.806521	0.159578	-0.000208
H256	H	1.306521	0.659578	0.499792
C257	C	0.597197	0.389012	-0.000095
C258	C	1.097197	0.889012	0.499905
C259	C	0.602299	0.488636	-0.000108
C260	C	1.102299	0.988636	0.499892
C261	C	0.548066	0.526603	-0.000144
C262	C	1.048066	1.026603	0.499856
H263	H	0.577049	0.368114	0.035134
H264	H	1.077049	0.868114	0.535134
H265	H	0.577097	0.368096	-0.035348
H266	H	1.077097	0.868096	0.464652
H267	H	0.622391	0.509544	0.035142
H268	H	1.122391	1.009544	0.535142
H269	H	0.622437	0.509561	-0.035334
H270	H	1.122437	1.009561	0.464666
H271	H	0.527966	0.505687	-0.035398
H272	H	1.027966	1.005687	0.464602
H273	H	0.527923	0.505698	0.035084
H274	H	1.027923	1.005698	0.535084
H275	H	0.551521	0.594201	-0.000159
H276	H	1.051521	1.094201	0.499841
H277	H	0.746824	-0.227010	0.850229
H278	H	1.246824	0.272990	1.350229
H279	H	0.746837	-0.227014	0.734847
H280	H	1.246837	0.272986	1.234847
C281	C	0.794377	-0.299982	0.433749
C282	C	1.294377	0.200018	0.933749
C283	C	0.827092	-0.350152	0.475234
C284	C	1.327092	0.149848	0.975234
C285	C	0.864495	-0.407578	0.443572
C286	C	1.364495	0.092422	0.943572
H287	H	0.818702	-0.261118	0.408920
H288	H	1.318702	0.238882	0.908920
H289	H	0.773229	-0.343783	0.408964
H290	H	1.273229	0.156217	0.908964
H291	H	0.848239	-0.306356	0.500008
H292	H	1.348239	0.193644	1.000008
H293	H	0.802783	-0.389033	0.500064
H294	H	1.302783	0.110967	1.000064
H295	H	0.843347	-0.451380	0.418787
H296	H	1.343347	0.048620	0.918787
H297	H	0.888816	-0.368707	0.418744
H298	H	1.388816	0.131293	0.918744
H299	H	0.886693	-0.441632	0.471714
H300	H	1.386693	0.058368	0.971714
H301	H	0.746832	-0.227075	0.265055
H302	H	1.246832	0.272925	0.765055
H303	H	0.746827	-0.227083	0.149655
H304	H	1.246827	0.272917	0.649655
C305	C	0.601035	-0.003584	0.141106
C306	C	1.101035	0.496416	0.641106
C307	C	0.568302	0.046573	0.182568
C308	C	1.068302	0.546573	0.682568
C309	C	0.530896	0.103978	0.150880
C310	C	1.030896	0.603978	0.650880
H311	H	0.576722	-0.042461	0.116289
H312	H	1.076722	0.457539	0.616289
H313	H	0.622182	0.040225	0.116307
H314	H	1.122182	0.540225	0.616307
H315	H	0.547157	0.002769	0.207356
H316	H	1.047157	0.502769	0.707356
H317	H	0.592599	0.085467	0.207386
H318	H	1.092599	0.585467	0.707386
H319	H	0.552043	0.147788	0.126082
H320	H	1.052043	0.647788	0.626082
H321	H	0.506587	0.065095	0.126065
H322	H	1.006587	0.565095	0.626065
H323	H	0.508686	0.138023	0.179008
H324	H	1.008686	0.638023	0.679008
H325	H	0.611208	-0.019207	0.265016
H326	H	1.111208	0.480793	0.765016
H327	H	-0.148455	-0.116599	0.099855
H328	H	0.351545	0.383401	0.599855
H329	H	0.573852	0.038133	0.557607
H330	H	1.073852	0.538133	1.057607
C331	C	0.601036	-0.003508	0.726271
C332	C	1.101036	0.496492	1.226271
C333	C	0.568307	0.046657	0.767733
C334	C	1.068307	0.546657	1.267733
C335	C	0.530904	0.104066	0.736044
C336	C	1.030904	0.604066	1.236044
H337	H	0.576722	-0.042382	0.701455
H338	H	1.076722	0.457618	1.201455
H339	H	0.622185	0.040297	0.701471
H340	H	1.122185	0.540297	1.201471
H341	H	0.547159	0.002857	0.792522
H342	H	1.047159	0.502857	1.292522
H343	H	0.592606	0.085549	0.792550
H344	H	1.092606	0.585549	1.292550
H345	H	0.552052	0.147871	0.711244
H346	H	1.052052	0.647871	1.211244
H347	H	0.506592	0.065185	0.711229
H348	H	1.006592	0.565185	1.211229
H349	H	0.508695	0.138116	0.764170
H350	H	1.008695	0.638116	1.264170
H351	H	0.125106	-0.121976	-0.155101
H352	H	0.625106	0.378024	0.344899
H353	H	-0.040564	-0.118688	-0.100026
H354	H	0.459436	0.381312	0.399974
H355	H	0.125080	-0.122045	0.154954
H356	H	0.625080	0.377955	0.654954
C357	C	0.240913	-0.124418	0.169970
C358	C	0.740913	0.375582	0.669970
C359	C	0.202139	-0.123678	0.218205
C360	C	0.702139	0.376322	0.718205
C361	C	0.231747	-0.124350	0.273370
C362	C	0.731747	0.375650	0.773370
H363	H	0.265653	-0.069646	0.172347
H364	H	0.765653	0.430354	0.672347
H365	H	0.262555	-0.180164	0.172297
H366	H	0.762555	0.319836	0.672297
H367	H	0.180508	-0.067939	0.215879
H368	H	0.680508	0.432061	0.715879
H369	H	0.177398	-0.178446	0.215848
H370	H	0.677398	0.321554	0.715848
H371	H	0.253388	-0.180095	0.275698
H372	H	0.753388	0.319905	0.775698
H373	H	0.256486	-0.069577	0.275741
H374	H	0.756486	0.430423	0.775741
H375	H	0.205443	-0.123856	0.306105
H376	H	0.705443	0.376144	0.806105
H377	H	0.398590	-0.127556	0.099882
H378	H	0.898590	0.372444	0.599882
H379	H	0.611207	-0.019153	0.850201
H380	H	1.111207	0.480847	1.350201
H381	H	0.506475	-0.129713	0.099882
H382	H	1.006475	0.370287	0.599882
