data_functionalizedCrystal
_audit_creation_method	'MofGen! by Chris Wilmer'
_symmetry_space_group_name_H-M	'P1'
_symmetry_Int_Tables_number	1
_symmetry_cell_setting	triclinic
loop_
_symmetry_equiv_pos_as_xyz
  x,y,z
_cell_length_a	8.497374
_cell_length_b	8.497374
_cell_length_c	26.712781
_cell_angle_alpha	89.998392
_cell_angle_beta	89.999021
_cell_angle_gamma	90.005237
loop_
_atom_site_label
_atom_site_type_symbol
_atom_site_fract_x
_atom_site_fract_y
_atom_site_fract_z
Zn1	Zn	0.628334	0.891966	0.767188
Zn2	Zn	0.892080	0.628232	0.767184
Zn3	Zn	0.628307	0.628209	0.683292
Zn4	Zn	0.892066	0.891978	0.683280
O5	O	0.760197	0.760096	0.725236
O6	O	0.663338	0.856985	0.837412
O7	O	0.857085	0.407466	0.756059
O8	O	0.407548	0.663182	0.694428
O9	O	0.857111	0.663221	0.837409
O10	O	0.407568	0.856963	0.756066
O11	O	0.663292	0.407449	0.694424
O12	O	0.663278	0.663194	0.613066
O13	O	0.857086	1.112739	0.694407
O14	O	0.857060	0.856984	0.613057
O15	O	0.663324	1.112730	0.756054
O16	O	1.112840	0.663233	0.756047
O17	O	1.112830	0.857007	0.694403
C18	C	0.760166	0.760089	0.594853
C19	C	0.760191	0.760123	0.539074
C20	C	0.659518	0.861196	0.410746
C21	C	0.659539	0.861209	0.358336
C22	C	0.861011	0.659131	0.358340
C23	C	0.860982	0.659110	0.410749
C24	C	0.760237	0.760152	0.436951
C25	C	0.760287	0.760186	0.332132
C26	C	0.760311	0.760200	0.275307
C27	C	0.760212	0.760136	0.493779
C28	C	1.170077	0.760119	0.725230
C29	C	1.348721	0.760093	0.725243
C30	C	0.760199	1.171576	0.725232
C31	C	0.760216	1.350221	0.725233
C32	C	0.760224	0.760115	0.856129
C33	C	0.760235	0.760116	0.912956
Zn34	Zn	0.892113	0.628258	1.001897
Zn35	Zn	0.892135	0.892024	1.085790
Zn36	Zn	0.628367	0.891992	1.001897
Zn37	Zn	0.628376	0.628254	1.085803
O38	O	0.760248	0.760132	1.043847
O39	O	1.112878	0.663261	1.013020
O40	O	0.857151	1.112782	1.074656
O41	O	0.663341	0.856996	0.931672
O42	O	1.112894	0.857049	1.074656
O43	O	0.857113	0.663231	0.931672
O44	O	0.663362	1.112759	1.013020
O45	O	0.407606	0.856992	1.013032
O46	O	0.663356	0.407492	1.074678
O47	O	0.407613	0.663225	1.074678
O48	O	0.857122	0.407495	1.013033
O49	O	0.857160	0.857045	1.156017
O50	O	0.663377	0.663255	1.156026
C51	C	0.350368	0.759977	1.043821
C52	C	0.171725	0.759575	1.043727
C53	C	0.760276	0.760158	1.174230
C54	C	0.760334	0.760214	1.230008
C55	C	0.760241	0.348652	1.043853
C56	C	0.760234	0.170008	1.043857
H57	H	0.577520	0.943487	0.337002
H58	H	0.577480	0.943465	0.432078
C59	C	0.971840	0.548004	0.329518
C60	C	0.971888	0.548028	0.271870
C61	C	1.082726	0.436904	0.243048
C62	C	1.193515	0.325755	0.271875
C63	C	1.193471	0.325727	0.329526
C64	C	1.082634	0.436851	0.358347
H65	H	0.889872	0.630311	0.250528
H66	H	1.082757	0.436926	0.200371
H67	H	1.275563	0.243495	0.250539
H68	H	1.275488	0.243444	0.350867
H69	H	1.082602	0.436829	0.401024
H70	H	0.943001	0.576820	0.432086
