data_functionalizedCrystal
_audit_creation_method	'MofGen! by Chris Wilmer'
_symmetry_space_group_name_H-M	'P1'
_symmetry_Int_Tables_number	1
_symmetry_cell_setting	triclinic
loop_
_symmetry_equiv_pos_as_xyz
  x,y,z
_cell_length_a	10.723024
_cell_length_b	14.421503
_cell_length_c	10.723024
_cell_angle_alpha	89.994498
_cell_angle_beta	84.467869
_cell_angle_gamma	90.007403
loop_
_atom_site_label
_atom_site_type_symbol
_atom_site_fract_x
_atom_site_fract_y
_atom_site_fract_z
O1	O	1.657196	0.077103	0.175010
O2	O	1.990529	0.410436	0.508343
O3	O	2.323863	0.743770	0.841677
O4	O	1.294044	0.077106	0.191763
O5	O	1.627377	0.410439	0.525097
O6	O	1.960710	0.743773	0.858430
O7	O	1.483996	0.077101	0.001811
O8	O	1.817330	0.410434	0.335144
O9	O	2.150663	0.743768	0.668477
O10	O	1.467243	0.077108	0.364963
O11	O	1.800576	0.410441	0.698296
O12	O	2.133910	0.743775	1.031630
O13	O	1.483965	-0.077122	0.001839
O14	O	1.817298	0.256211	0.335172
O15	O	2.150632	0.589544	0.668505
O16	O	1.294012	-0.077117	0.191792
O17	O	1.627345	0.256216	0.525125
O18	O	1.960679	0.589549	0.858458
O19	O	1.657164	-0.077120	0.175038
O20	O	1.990498	0.256213	0.508372
O21	O	2.323831	0.589546	0.841705
Cu22	Cu	1.475585	-0.091201	0.183418
Cu23	Cu	1.808919	0.242133	0.516751
Cu24	Cu	2.142252	0.575466	0.850084
Cu25	Cu	1.475623	0.091186	0.183384
Cu26	Cu	1.808956	0.424520	0.516718
Cu27	Cu	2.142289	0.757853	0.850051
O28	O	1.467212	-0.077115	0.364991
O29	O	1.800545	0.256218	0.698325
O30	O	2.133878	0.589551	1.031658
C31	C	1.247528	-0.000005	0.190558
C32	C	1.580862	0.333328	0.523892
C33	C	1.914195	0.666661	0.857225
C34	C	1.108974	-0.000004	0.186911
C35	C	1.442307	0.333329	0.520244
C36	C	1.775641	0.666662	0.853577
N37	N	1.475568	-0.219482	0.183440
N38	N	1.808902	0.113851	0.516774
N39	N	2.142235	0.447185	0.850107
C40	C	1.033991	-0.000002	0.293198
C41	C	1.367325	0.333332	0.626532
C42	C	1.700658	0.666665	0.959865
C43	C	0.890788	-0.000000	0.289431
C44	C	1.224121	0.333333	0.622764
C45	C	1.557455	0.666666	0.956097
C46	C	1.387718	-0.469133	0.271235
C47	C	1.721051	-0.135800	0.604568
C48	C	2.054385	0.197533	0.937901
C49	C	1.500687	-0.530936	0.296421
C50	C	1.834020	-0.197603	0.629754
C51	C	2.167354	0.135730	0.963088
C52	C	1.475598	-0.408643	0.183411
C53	C	1.808932	-0.075310	0.516744
C54	C	2.142265	0.258023	0.850077
C55	C	1.362659	-0.530934	0.158254
C56	C	1.695992	-0.197601	0.491587
C57	C	2.029326	0.135732	0.824921
C58	C	1.475617	-0.591365	0.183385
C59	C	1.808951	-0.258031	0.516718
C60	C	2.142284	0.075302	0.850052
C61	C	1.588625	-0.469086	0.208654
C62	C	1.921958	-0.135752	0.541987
C63	C	2.255291	0.197581	0.875320
C64	C	1.450522	-0.469078	0.070437
C65	C	1.783855	-0.135745	0.403771
C66	C	2.117189	0.197589	0.737104
C67	C	1.563572	-0.530853	0.095576
C68	C	1.896905	-0.197520	0.428910
C69	C	2.230239	0.135813	0.762243
C70	C	1.475586	-0.303382	0.183429
C71	C	1.808919	0.029951	0.516762
C72	C	2.142252	0.363284	0.850096
C73	C	1.475643	-0.696624	0.183366
C74	C	1.808976	-0.363290	0.516700
C75	C	2.142310	-0.029957	0.850033
C76	C	1.703680	-0.000007	0.176243
C77	C	2.037013	0.333326	0.509577
C78	C	2.370346	0.666660	0.842910
C79	C	1.842234	-0.000002	0.179891
C80	C	2.175567	0.333331	0.513224
C81	C	2.508901	0.666665	0.846558
C82	C	1.482762	-0.000010	-0.044675
C83	C	1.816095	0.333324	0.288658
C84	C	2.149428	0.666657	0.621992
C85	C	1.479114	-0.000006	-0.183229
C86	C	1.812447	0.333327	0.150104
C87	C	2.145780	0.666660	0.483437
N88	N	1.475650	0.219468	0.183352
N89	N	1.808983	0.552801	0.516685
N90	N	2.142316	0.886134	0.850018
C91	C	1.585401	-0.000006	-0.258212
C92	C	1.918735	0.333328	0.075122
C93	C	2.252068	0.666661	0.408455
C94	C	1.581634	-0.000002	-0.401415
C95	C	1.914967	0.333331	-0.068082
C96	C	2.248301	0.666664	0.265251
C97	C	1.468447	-0.000003	0.411477
C98	C	1.801780	0.333331	0.744810
C99	C	2.135113	0.666664	1.078143
C100	C	1.472094	0.000000	0.550031
C101	C	1.805428	0.333333	0.883364
C102	C	2.138761	0.666667	1.216698
H103	H	1.075814	-0.000005	0.386984
H104	H	1.409147	0.333328	0.720318
H105	H	1.742480	0.666662	1.053651
H106	H	1.684165	-0.442032	0.230034
H107	H	2.017499	-0.108699	0.563368
H108	H	2.350832	0.224634	0.896701
H109	H	1.672624	-0.000006	-0.465848
H110	H	2.005958	0.333327	-0.132514
H111	H	2.339291	0.666660	0.200819
H112	H	1.385328	0.000001	-0.225051
H113	H	1.718661	0.333334	0.108282
H114	H	2.051995	0.666667	0.441615
H115	H	1.313477	-0.442034	0.345565
H116	H	1.646811	-0.108700	0.678898
H117	H	1.980144	0.224633	1.012232
H118	H	1.381099	-0.000007	-0.385544
H119	H	1.714432	0.333327	-0.052211
H120	H	2.047765	0.666660	0.281123
H121	H	0.906659	0.000002	0.088896
H122	H	1.239993	0.333335	0.422229
H123	H	1.573326	0.666668	0.755562
H124	H	1.267140	-0.558104	0.136988
H125	H	1.600474	-0.224771	0.470322
H126	H	1.933807	0.108563	0.803655
H127	H	0.826355	0.000006	0.380421
H128	H	1.159689	0.333339	0.713754
H129	H	1.493022	0.666672	1.047088
H130	H	1.067152	0.000018	0.093125
H131	H	1.400485	0.333351	0.426458
H132	H	1.733818	0.666684	0.759791
H133	H	1.637979	-0.557783	0.021292
H134	H	1.971313	-0.224450	0.354625
H135	H	2.304646	0.108884	0.687958
H136	H	1.521915	-0.558107	0.391949
H137	H	1.855248	-0.224774	0.725282
H138	H	2.188581	0.108560	1.058616
H139	H	1.429259	-0.441886	-0.025061
H140	H	1.762593	-0.108552	0.308273
H141	H	2.095926	0.224781	0.641606
H142	H	1.679187	-0.000012	-0.216390
H143	H	2.012521	0.333321	0.116944
H144	H	2.345854	0.666654	0.450277
