data_functionalizedCrystal
_audit_creation_method	'MofGen! by Chris Wilmer'
_symmetry_space_group_name_H-M	'P1'
_symmetry_Int_Tables_number	1
_symmetry_cell_setting	triclinic
loop_
_symmetry_equiv_pos_as_xyz
  x,y,z
_cell_length_a	6.817900
_cell_length_b	11.102289
_cell_length_c	16.015572
_cell_angle_alpha	76.744036
_cell_angle_beta	104.485554
_cell_angle_gamma	108.605707
loop_
_atom_site_label
_atom_site_type_symbol
_atom_site_fract_x
_atom_site_fract_y
_atom_site_fract_z
V1	V	-3.999220	-0.051261	-0.269393
O2	O	-3.960391	0.130656	-0.264265
O3	O	-3.976766	-0.224933	-0.267550
O4	O	-3.927019	0.005776	-0.386885
O5	O	-4.010482	-0.101651	-0.144105
V6	V	-4.482571	-0.036148	-0.254407
O7	O	-4.260858	-0.084413	-0.302265
O8	O	-4.671130	-0.002996	-0.221536
O9	O	-4.281819	0.137524	-0.256250
O10	O	-4.638797	-0.218065	-0.259535
O11	O	-4.588706	0.014242	-0.379696
O12	O	-4.331565	-0.093185	-0.136916
C13	C	-3.828848	-0.269029	-0.263300
C14	C	-3.891617	-0.410646	-0.262577
C15	C	-4.103316	-0.481658	-0.266547
C16	C	-4.162285	-0.614720	-0.265875
C17	C	-3.797832	-0.605747	-0.257259
C18	C	-3.738869	-0.472686	-0.257937
C19	C	-4.313730	-0.486841	-0.271518
C20	C	-4.372698	-0.619903	-0.270846
C21	C	-3.765391	0.025266	-0.415522
C22	C	-3.787814	0.070751	-0.511572
C23	C	-4.136761	-0.332975	-0.889205
C24	C	-4.157829	-0.290194	-0.979454
C25	C	-4.047775	-0.068856	-0.954747
C26	C	-4.026687	-0.111619	-0.864494
C27	C	-4.071187	-0.243680	-0.831730
C28	C	-3.961113	-0.022324	-0.807019
C29	C	-3.940038	-0.065084	-0.716774
C30	C	-3.984537	-0.197140	-0.684003
C31	C	-4.050112	-0.286440	-0.741485
C32	C	-3.916629	0.109736	-0.839785
C33	C	-3.851054	0.199031	-0.782310
C34	C	-3.829964	0.156272	-0.692063
C35	C	-3.874463	0.024216	-0.659292
C36	C	-3.764390	0.245572	-0.634581
C37	C	-3.743314	0.202812	-0.544336
C38	C	-3.853388	-0.018544	-0.569047
C39	C	-4.093080	0.181612	-0.260497
C40	C	-4.009548	0.323230	-0.261226
C41	C	-4.156537	-0.112681	-0.108274
C42	C	-4.113352	-0.158160	-0.012223
H43	H	-3.673478	-0.656276	-0.253482
H44	H	-4.172970	-0.440512	-0.862526
O45	O	-4.344299	-0.457160	-0.198805
C46	C	-4.461837	-0.537702	-0.061407
C47	C	-4.427395	-0.571495	-0.143725
H48	H	-4.528983	-0.630121	-0.016844
H49	H	-4.577054	-0.476332	-0.081198
H50	H	-4.304808	-0.481620	-0.025208
H51	H	-4.584316	-0.627621	-0.179961
H52	H	-4.312084	-0.632805	-0.123876
H53	H	-4.477820	-0.648169	-0.334857
H54	H	-4.211221	-0.362919	-1.026249
O55	O	-4.004545	0.059379	-0.986722
C56	C	-3.988346	0.223355	-1.114800
C57	C	-4.037336	0.078093	-1.078709
H58	H	-4.014880	0.238530	-1.189177
H59	H	-3.817168	0.272876	-1.087654
H60	H	-4.096872	0.266198	-1.094281
H61	H	-3.928947	0.035136	-1.099215
H62	H	-4.208561	0.028663	-1.105851
O63	O	-3.808172	0.327314	-0.814111
C64	C	-3.893605	0.525507	-0.824736
C65	C	-3.942420	0.380234	-0.788688
H66	H	-4.002087	0.568342	-0.804180
H67	H	-3.920038	0.540800	-0.899115
H68	H	-3.722420	0.574945	-0.797547
H69	H	-4.113595	0.330701	-0.815811
H70	H	-3.915843	0.365035	-0.714309
H71	H	-3.933761	0.144548	-0.913269
H72	H	-4.448611	-0.672166	-0.211826
H73	H	-3.889597	-0.126081	-0.542368
H74	H	-3.967380	-0.231953	-0.610519
H75	H	-3.728184	0.353096	-0.661272
H76	H	-4.399399	-0.438562	-0.334356
H77	H	-3.689918	0.275526	-0.497538
O78	O	-4.093150	-0.414678	-0.709502
C79	C	-4.109571	-0.578645	-0.581421
C80	C	-4.060717	-0.433388	-0.617524
H81	H	-4.083411	-0.593819	-0.507054
H82	H	-4.000940	-0.621552	-0.601817
H83	H	-4.280694	-0.628107	-0.608679
H84	H	-3.889646	-0.383817	-0.590283
H85	H	-4.169486	-0.390578	-0.597136
O86	O	-3.533307	-0.403608	-0.254239
C87	C	-3.281094	-0.230581	-0.325179
C88	C	-3.513965	-0.308731	-0.329489
H89	H	-3.265386	-0.153838	-0.386001
H90	H	-3.181962	-0.297706	-0.321797
H91	H	-3.223549	-0.182287	-0.264505
H92	H	-3.571703	-0.357033	-0.390157
H93	H	-3.612955	-0.241545	-0.332824
