data_functionalizedCrystal
_audit_creation_method	'MofGen! by Chris Wilmer'
_symmetry_space_group_name_H-M	'P1'
_symmetry_Int_Tables_number	1
_symmetry_cell_setting	triclinic
loop_
_symmetry_equiv_pos_as_xyz
  x,y,z
_cell_length_a	23.532407
_cell_length_b	23.532357
_cell_length_c	8.140239
_cell_angle_alpha	89.990966
_cell_angle_beta	90.002624
_cell_angle_gamma	82.838485
loop_
_atom_site_label
_atom_site_type_symbol
_atom_site_fract_x
_atom_site_fract_y
_atom_site_fract_z
O1	O	0.755246	0.069136	-0.136428
O2	O	0.589381	0.079139	-0.136479
O3	O	0.677330	-0.008796	-0.136418
O4	O	0.667297	0.157071	-0.136489
O5	O	0.677325	-0.008797	0.136809
O6	O	0.589376	0.079138	0.136748
O7	O	0.755241	0.069135	0.136799
Zn8	Zn	0.672308	0.074136	0.180154
Zn9	Zn	0.672314	0.074138	-0.179834
O10	O	0.667292	0.157070	0.136738
C11	C	0.568162	0.078884	0.000128
C12	C	0.504945	0.078118	0.000111
C13	C	0.677076	-0.030013	0.000200
C14	C	0.676322	-0.093232	0.000216
C15	C	0.105834	0.125353	0.000165
C16	C	0.046434	0.124641	0.000175
O17	O	0.009681	0.168428	0.000216
N18	N	0.023817	0.072364	0.000195
C19	C	0.060604	0.020794	0.000221
O20	O	0.035912	-0.023737	0.000240
C21	C	0.120003	0.021506	0.000222
C22	C	0.142616	0.073787	0.000186
C23	C	0.128448	0.177629	0.000130
C24	C	0.187844	0.178341	0.000117
C25	C	0.224626	0.126775	0.000138
C26	C	0.202012	0.074498	0.000172
C27	C	0.156788	-0.030063	0.000260
C28	C	0.216191	-0.029346	0.000262
C29	C	0.238804	0.022935	0.000226
C30	C	0.298190	0.023644	0.000180
N31	N	0.320807	0.075922	0.000160
C32	C	0.284025	0.127487	0.000139
C33	C	-0.064139	0.019303	0.000221
C34	C	-0.123536	0.018590	0.000207
C35	C	-0.137702	0.122437	0.000165
C36	C	-0.078303	0.123149	0.000166
C37	C	-0.041522	0.071580	0.000201
C38	C	0.408761	0.128977	0.000110
C39	C	0.468163	0.129684	0.000090
C40	C	0.482324	0.025836	0.000141
C41	C	0.422927	0.025130	0.000152
C42	C	0.386147	0.076704	0.000142
O43	O	0.334977	-0.020120	0.000146
O44	O	0.308725	0.172011	0.000142
C45	C	0.671588	-0.485243	-0.148811
C46	C	0.670870	-0.544642	-0.148820
O47	O	0.670482	-0.575358	-0.275485
N48	N	0.670512	-0.574354	0.000114
C49	C	0.670865	-0.544662	0.149067
O50	O	0.670494	-0.575389	0.275746
C51	C	0.671578	-0.485263	0.149075
C52	C	0.671943	-0.455556	0.000131
C53	C	0.671951	-0.455535	-0.297742
C54	C	0.672669	-0.396140	-0.297732
C55	C	0.673024	-0.366452	-0.148790
C56	C	0.672661	-0.396160	0.000141
C57	C	0.671928	-0.455572	0.298026
C58	C	0.672640	-0.396169	0.298021
C59	C	0.673004	-0.366461	0.149078
C60	C	0.673734	-0.307078	0.149093
N61	N	0.674092	-0.277366	0.000159
C62	C	0.673737	-0.307053	-0.148782
C63	C	0.669367	-0.669404	0.149039
C64	C	0.668658	-0.728802	0.149033
C65	C	0.668662	-0.728778	-0.148855
C66	C	0.669375	-0.669379	-0.148847
C67	C	0.669725	-0.639692	0.000105
C68	C	0.675246	-0.182319	-0.148750
C69	C	0.675967	-0.122919	-0.148726
C70	C	0.675960	-0.122948	0.149161
C71	C	0.675242	-0.182344	0.149138
C72	C	0.674883	-0.212027	0.000170
O73	O	0.674120	-0.276324	0.275693
O74	O	0.674101	-0.276319	-0.275440
C75	C	0.776459	0.069390	0.000188
C76	C	0.839676	0.070156	0.000195
C77	C	0.667545	0.178287	0.000116
C78	C	0.668300	0.241506	0.000090
N79	N	0.672307	0.074135	0.425837
N80	N	0.672319	0.074134	-0.425517
H81	H	0.486571	0.172259	0.000059
O82	O	0.671563	-0.487541	-0.458414
H83	H	0.710057	-0.519904	-0.465558
H84	H	-0.141942	-0.023982	0.000211
H85	H	0.246136	-0.071341	0.000292
H86	H	0.378821	0.170974	0.000107
H87	H	-0.167662	0.164425	0.000156
H88	H	0.404515	-0.017442	0.000158
O89	O	0.668255	-0.760804	-0.309501
H90	H	0.668622	-0.730170	-0.413076
H91	H	0.668370	-0.752987	0.270318
H92	H	0.672917	-0.372000	0.419319
H93	H	0.676265	-0.098734	-0.270019
H94	H	-0.034193	-0.022694	0.000234
H95	H	0.512282	-0.016147	0.000151
O96	O	0.674851	-0.214392	0.309777
H97	H	0.675216	-0.183766	0.413346
H98	H	0.206249	0.220913	0.000087
O99	O	0.132406	-0.086452	0.000333
H100	H	0.167971	-0.122183	0.000378
H101	H	0.674951	-0.206480	-0.270054
H102	H	0.669653	-0.645237	0.270341
O103	O	0.676342	-0.090924	0.309803
H104	H	0.676896	-0.044630	0.284772
O105	O	0.673052	-0.364106	-0.458390
H106	H	0.712201	-0.342345	-0.465538
H107	H	0.669670	-0.645195	-0.270130
H108	H	0.098505	0.219623	0.000119
H109	H	-0.059896	0.165721	0.000146
H110	H	0.671632	-0.479750	0.419312
