data_functionalizedCrystal
_audit_creation_method	'MofGen! by Chris Wilmer'
_symmetry_space_group_name_H-M	'P1'
_symmetry_Int_Tables_number	1
_symmetry_cell_setting	triclinic
loop_
_symmetry_equiv_pos_as_xyz
  x,y,z
_cell_length_a	15.944551
_cell_length_b	14.421503
_cell_length_c	15.995350
_cell_angle_alpha	90.006523
_cell_angle_beta	96.504444
_cell_angle_gamma	90.003141
loop_
_atom_site_label
_atom_site_type_symbol
_atom_site_fract_x
_atom_site_fract_y
_atom_site_fract_z
O1	O	1.114523	0.077010	-0.107977
O2	O	1.614523	0.577010	0.392023
O3	O	0.869973	0.077033	-0.121291
O4	O	1.369973	0.577033	0.378709
O5	O	0.998933	0.077020	0.007253
O6	O	1.498933	0.577020	0.507253
O7	O	0.985563	0.077023	-0.236521
O8	O	1.485563	0.577023	0.263479
O9	O	0.998912	-0.077203	0.007234
O10	O	1.498912	0.422797	0.507234
O11	O	0.869951	-0.077191	-0.121310
O12	O	1.369951	0.422809	0.378690
O13	O	1.114502	-0.077213	-0.107996
O14	O	1.614502	0.422787	0.392004
Cu15	Cu	0.992225	-0.091284	-0.114655
Cu16	Cu	1.492225	0.408716	0.385345
Cu17	Cu	0.992250	0.091103	-0.114632
Cu18	Cu	1.492250	0.591103	0.385368
O19	O	0.985542	-0.077200	-0.236540
O20	O	1.485542	0.422800	0.263460
C21	C	0.838668	-0.000076	-0.120748
C22	C	1.338668	0.499924	0.379252
C23	C	0.745422	-0.000067	-0.119091
C24	C	1.245422	0.499933	0.380909
N25	N	0.992213	-0.219565	-0.114670
N26	N	1.492213	0.280435	0.385330
C27	C	0.530570	-0.000086	-0.035452
C28	C	1.030570	0.499914	0.464548
C29	C	0.469559	0.075955	-0.074282
C30	C	0.969559	0.575955	0.425718
C31	C	0.574697	-0.000078	-0.116093
C32	C	1.074697	0.499922	0.383907
C33	C	0.469560	-0.076098	-0.074320
C34	C	0.969560	0.423902	0.425680
C35	C	0.409784	-0.000093	-0.113192
C36	C	0.909784	0.499907	0.386808
C37	C	0.514913	0.076025	-0.154945
C38	C	1.014913	0.576025	0.345055
C39	C	0.514921	-0.076095	-0.154971
C40	C	1.014921	0.423905	0.345029
C41	C	0.453926	-0.000036	-0.193859
C42	C	0.953926	0.499964	0.306141
C43	C	0.669699	-0.000069	-0.117762
C44	C	1.169699	0.499931	0.382238
C45	C	0.314783	-0.000096	-0.111529
C46	C	0.814783	0.499904	0.388471
C47	C	0.932571	-0.469213	-0.174082
C48	C	1.432571	0.030787	0.325918
C49	C	1.008470	-0.531022	-0.190338
C50	C	1.508470	-0.031022	0.309662
C51	C	0.992234	-0.408726	-0.114650
C52	C	1.492234	0.091274	0.385350
C53	C	0.916354	-0.531011	-0.098414
C54	C	1.416354	-0.031011	0.401586
C55	C	0.992246	-0.591448	-0.114633
C56	C	1.492246	-0.091448	0.385367
C57	C	1.068171	-0.469175	-0.130944
C58	C	1.568171	0.030825	0.369056
C59	C	0.976004	-0.469158	-0.038987
C60	C	1.476004	0.030842	0.461013
C61	C	1.051958	-0.530940	-0.055210
C62	C	1.551958	-0.030940	0.444790
C63	C	0.992225	-0.303465	-0.114663
C64	C	1.492225	0.196535	0.385337
C65	C	0.992264	-0.696707	-0.114620
C66	C	1.492264	-0.196707	0.385380
C67	C	1.145806	-0.000102	-0.108539
C68	C	1.645806	0.499898	0.391461
C69	C	1.239052	-0.000105	-0.110196
C70	C	1.739052	0.499895	0.389804
C71	C	0.998370	-0.000090	0.038438
C72	C	1.498370	0.499910	0.538438
C73	C	0.996712	-0.000084	0.131389
C74	C	1.496712	0.499916	0.631389
N75	N	0.992268	0.219385	-0.114610
N76	N	1.492268	0.719385	0.385390
C77	C	0.986105	-0.000088	-0.267726
C78	C	1.486105	0.499912	0.232274
C79	C	0.987762	-0.000088	-0.360676
C80	C	1.487762	0.499912	0.139324
C81	C	0.990761	-0.000087	0.469137
C82	C	1.490761	0.499913	0.969137
C83	C	0.898918	0.000267	0.421708
C84	C	1.398918	0.500267	0.921708
C85	C	0.900576	-0.000080	0.325017
C86	C	1.400576	0.499920	0.825017
C87	C	0.993713	-0.000085	0.301576
C88	C	1.493713	0.499915	0.801576
C89	C	1.039001	-0.088157	0.342640
C90	C	1.539001	0.411843	0.842640
C91	C	1.036694	-0.088230	0.439276
C92	C	1.536694	0.411770	0.939276
C93	C	1.038616	0.087150	0.439656
C94	C	1.538616	0.587150	0.939656
C95	C	1.038594	0.088314	0.342710
C96	C	1.538594	0.588314	0.842710
C97	C	0.995386	-0.000087	0.206878
C98	C	1.495386	0.499913	0.706878
C99	C	0.989091	-0.000091	0.563835
C100	C	1.489091	0.499909	1.063835
H101	H	0.563907	0.000007	0.031473
H102	H	1.063907	0.500007	0.531473
C103	C	0.852475	0.085206	0.286631
C104	C	1.352475	0.585206	0.786631
N105	N	0.816238	0.149444	0.257721
N106	N	1.316238	0.649444	0.757721
C107	C	1.131436	-0.092602	0.323535
C108	C	1.631436	0.407398	0.823535
N109	N	1.201055	-0.095951	0.309138
N110	N	1.701055	0.404049	0.809138
H111	H	0.449459	0.140241	-0.040166
H112	H	0.949459	0.640241	0.459834
C113	C	1.154888	-0.432638	-0.149593
C114	C	1.654888	0.067362	0.350407
N115	N	1.220200	-0.405116	-0.163644
N116	N	1.720200	0.094884	0.336356
C117	C	0.957409	-0.432412	0.047417
C118	C	1.457409	0.067588	0.547417
N119	N	0.943394	-0.404733	0.112496
N120	N	1.443394	0.095267	0.612496
C121	C	1.027026	-0.567743	-0.276769
C122	C	1.527026	-0.067743	0.223231
N123	N	1.040995	-0.595400	-0.341870
N124	N	1.540995	-0.095400	0.158130
C125	C	0.541923	0.162974	-0.200970
C126	C	1.041923	0.662974	0.299030
N127	N	0.562269	0.228465	-0.235632
N128	N	1.062269	0.728465	0.264368
H129	H	1.102473	-0.557873	-0.004940
H130	H	1.602473	-0.057873	0.495060
H131	H	0.852179	-0.558175	-0.084690
H132	H	1.352179	-0.058175	0.415310
C133	C	0.864484	-0.432586	-0.242035
C134	C	1.364484	0.067414	0.257965
N135	N	0.813206	-0.404996	-0.293218
N136	N	1.313206	0.095004	0.206782
H137	H	0.862218	0.063425	0.440249
H138	H	1.362218	0.563425	0.940249
C139	C	0.409118	0.000024	-0.284362
C140	C	0.909118	0.500024	0.215638
N141	N	0.375365	0.000073	-0.352528
N142	N	0.875365	0.500073	0.147472
H143	H	0.862364	-0.062532	0.441296
H144	H	1.362364	0.437468	0.941296
H145	H	1.008597	0.153903	0.460205
H146	H	1.508597	0.653903	0.960205
H147	H	0.535041	-0.140385	-0.189059
H148	H	1.035041	0.359615	0.310941
H149	H	1.106331	0.087739	0.471413
H150	H	1.606331	0.587739	0.971413
H151	H	0.449467	-0.140382	-0.040205
H152	H	0.949467	0.359618	0.459795
C153	C	0.852137	-0.085510	0.287362
C154	C	1.352137	0.414490	0.787362
N155	N	0.815652	-0.149861	0.259001
N156	N	1.315652	0.350139	0.759001
H157	H	1.003652	-0.154062	0.457571
H158	H	1.503652	0.345938	0.957571
H159	H	1.104123	-0.092230	0.471520
H160	H	1.604123	0.407770	0.971520
H161	H	1.007529	-0.153693	0.314252
H162	H	1.507529	0.346307	0.814252
H163	H	1.005483	0.153467	0.315472
H164	H	1.505483	0.653467	0.815472
H165	H	1.106515	0.093628	0.327345
H166	H	1.606515	0.593628	0.827345
