data_functionalizedCrystal
_audit_creation_method	'MofGen! by Chris Wilmer'
_symmetry_space_group_name_H-M	'P1'
_symmetry_Int_Tables_number	1
_symmetry_cell_setting	triclinic
loop_
_symmetry_equiv_pos_as_xyz
  x,y,z
_cell_length_a	19.188905
_cell_length_b	18.266242
_cell_length_c	10.654550
_cell_angle_alpha	89.994866
_cell_angle_beta	96.190271
_cell_angle_gamma	90.016163
loop_
_atom_site_label
_atom_site_type_symbol
_atom_site_fract_x
_atom_site_fract_y
_atom_site_fract_z
O1	O	0.927185	0.061000	-0.156632
O2	O	1.427185	0.561000	0.343368
O3	O	0.724009	0.060975	-0.177770
O4	O	1.224009	0.560975	0.322230
O5	O	0.830268	0.060985	0.015638
O6	O	1.330268	0.560985	0.515638
O7	O	0.820926	0.060989	-0.350040
O8	O	1.320926	0.560989	0.149960
O9	O	0.830250	-0.060777	0.015648
O10	O	1.330250	0.439223	0.515648
O11	O	0.723991	-0.060787	-0.177760
O12	O	1.223991	0.439213	0.322240
O13	O	0.927167	-0.060762	-0.156622
O14	O	1.427167	0.439238	0.343378
Zn15	Zn	0.825576	-0.080107	-0.167190
Zn16	Zn	1.325576	0.419893	0.332810
Zn17	Zn	0.825600	0.080320	-0.167203
Zn18	Zn	1.325600	0.580320	0.332797
O19	O	0.820907	-0.060773	-0.350030
O20	O	1.320907	0.439227	0.149970
C21	C	0.697984	0.000090	-0.177086
C22	C	1.197984	0.500090	0.322914
C23	C	0.620466	0.000081	-0.175047
C24	C	1.120466	0.500081	0.324953
C25	C	0.584077	0.066455	-0.174073
C26	C	1.084077	0.566455	0.325927
C27	C	0.511241	0.066464	-0.172143
C28	C	1.011241	0.566464	0.327857
C29	C	0.474798	0.000095	-0.171162
C30	C	0.974798	0.500095	0.328838
C31	C	0.511194	-0.066288	-0.172143
C32	C	1.011194	0.433712	0.327857
C33	C	0.584028	-0.066295	-0.174086
C34	C	1.084028	0.433705	0.325914
N35	N	0.365283	-0.049298	-0.096644
N36	N	0.865283	0.450702	0.403356
N37	N	0.296094	-0.049286	-0.094796
N38	N	0.796094	0.450714	0.405204
C39	C	0.255353	0.000113	-0.165311
C40	C	0.755353	0.500113	0.334689
N41	N	0.286416	0.049511	-0.237729
N42	N	0.786416	0.549511	0.262271
N43	N	0.355612	0.049502	-0.239572
N44	N	0.855612	0.549502	0.260428
C45	C	0.395821	0.000096	-0.169056
C46	C	0.895821	0.500096	0.330944
C47	C	0.139987	0.066502	-0.162247
C48	C	0.639987	0.566502	0.337753
C49	C	0.067149	0.066508	-0.160324
C50	C	0.567149	0.566508	0.339676
C51	C	0.067104	-0.066246	-0.160312
C52	C	0.567104	0.433754	0.339688
C53	C	0.139940	-0.066251	-0.162247
C54	C	0.639940	0.433749	0.337753
C55	C	0.176377	0.000125	-0.163208
C56	C	0.676377	0.500125	0.336792
N57	N	0.825565	-0.189594	-0.167180
N58	N	1.325565	0.310406	0.332820
C59	C	0.872632	-0.227898	-0.081581
C60	C	1.372632	0.272102	0.418419
C61	C	0.872636	-0.304543	-0.081575
C62	C	1.372636	0.195457	0.418425
C63	C	0.825580	-0.342881	-0.167190
C64	C	1.325580	0.157119	0.332810
C65	C	0.778504	-0.304567	-0.252796
C66	C	1.278504	0.195433	0.247204
C67	C	0.778496	-0.227924	-0.252791
C68	C	1.278496	0.272076	0.247209
N69	N	0.817232	-0.463213	-0.278358
N70	N	1.317232	0.036787	0.221642
N71	N	0.817243	-0.536021	-0.278359
N72	N	1.317243	-0.036021	0.221641
C73	C	0.825600	-0.573803	-0.167208
C74	C	1.325600	-0.073803	0.332792
N75	N	0.833958	-0.536027	-0.056052
N76	N	1.333958	-0.036027	0.443948
N77	N	0.833950	-0.463212	-0.056053
N78	N	1.333950	0.036788	0.443947
C79	C	0.825583	-0.425988	-0.167204
C80	C	1.325583	0.074012	0.332796
C81	C	0.872675	-0.695215	-0.081595
C82	C	1.372675	-0.195215	0.418405
C83	C	0.872674	-0.771861	-0.081588
C84	C	1.372674	-0.271861	0.418412
C85	C	0.778545	-0.771884	-0.252819
C86	C	1.278545	-0.271884	0.247181
C87	C	0.778542	-0.695239	-0.252816
C88	C	1.278542	-0.195239	0.247184
C89	C	0.825611	-0.656909	-0.167205
C90	C	1.325611	-0.156909	0.332795
C91	C	0.953191	0.000124	-0.157306
C92	C	1.453191	0.500124	0.342694
C93	C	1.030710	0.000138	-0.159345
C94	C	1.530710	0.500138	0.340655
C95	C	0.829573	0.000105	0.062426
C96	C	1.329573	0.500105	0.562426
C97	C	0.827521	0.000107	0.201826
C98	C	1.327521	0.500107	0.701826
N99	N	0.825617	0.189807	-0.167202
N100	N	1.325617	0.689807	0.332798
C101	C	0.821603	0.000109	-0.396818
C102	C	1.321603	0.500109	0.103182
C103	C	0.823655	0.000112	-0.536218
C104	C	1.323655	0.500112	-0.036218
C105	C	0.890085	0.000113	0.282645
C106	C	1.390085	0.500113	0.782645
C107	C	0.888152	0.000118	0.413625
C108	C	1.388152	0.500118	0.913625
C109	C	0.761086	0.000108	0.382952
C110	C	1.261086	0.500108	0.882952
C111	C	0.763020	0.000109	0.251975
C112	C	1.263020	0.500109	0.751975
C113	C	0.963445	0.000115	0.300355
C114	C	1.463445	0.500115	0.800355
C115	C	0.961512	0.000120	0.431335
C116	C	1.461512	0.500120	0.931335
H117	H	0.613740	0.120504	-0.174855
H118	H	1.113740	0.620504	0.325145
H119	H	0.708572	0.000110	0.423800
H120	H	1.208572	0.500110	0.923800
F121	F	0.178669	-0.136896	-0.163277
F122	F	0.678669	0.363104	0.336723
F123	F	0.993959	-0.068603	0.254436
F124	F	1.493959	0.431397	0.754436
H125	H	0.989146	-0.050833	0.473688
H126	H	1.489146	0.449167	0.973688
H127	H	0.983691	0.052696	0.477446
H128	H	1.483691	0.552696	0.977446
H129	H	0.910956	-0.196692	-0.011869
H130	H	1.410956	0.303308	0.488131
H131	H	0.481608	0.120516	-0.171351
H132	H	0.981608	0.620516	0.328649
H133	H	0.481517	-0.120326	-0.171347
H134	H	0.981517	0.379674	0.328653
F135	F	1.000959	0.066718	0.262770
F136	F	1.500959	0.566718	0.762770
H137	H	0.613655	-0.120347	-0.174880
H138	H	1.113655	0.379653	0.325120
F139	F	0.696431	0.000118	0.165964
F140	F	1.196431	0.500118	0.665964
H141	H	0.740167	-0.196736	-0.322497
H142	H	1.240167	0.303264	0.177503
H143	H	0.740189	-0.335786	-0.322503
H144	H	1.240189	0.164214	0.177497
F145	F	0.922735	-0.345316	0.009536
F146	F	1.422735	0.154684	0.509536
F147	F	0.922766	-0.654420	0.009524
F148	F	1.422766	-0.154420	0.509524
F149	F	0.728450	-0.654470	-0.343928
F150	F	1.228450	-0.154470	0.156072
H151	H	0.740228	-0.803098	-0.322524
H152	H	1.240228	-0.303098	0.177476
F153	F	0.178768	0.137144	-0.163279
F154	F	0.678768	0.637144	0.336721
F155	F	0.028421	0.137157	-0.159298
F156	F	0.528421	0.637157	0.340702
H157	H	0.037432	-0.120285	-0.159521
H158	H	0.537432	0.379715	0.340479
H159	H	0.911000	-0.803049	-0.011876
H160	H	1.411000	-0.303049	0.488124
