data_functionalizedCrystal
_audit_creation_method	'MofGen! by Chris Wilmer'
_symmetry_space_group_name_H-M	'P1'
_symmetry_Int_Tables_number	1
_symmetry_cell_setting	triclinic
loop_
_symmetry_equiv_pos_as_xyz
  x,y,z
_cell_length_a	13.339071
_cell_length_b	14.044190
_cell_length_c	12.376457
_cell_angle_alpha	102.316217
_cell_angle_beta	75.590460
_cell_angle_gamma	104.410527
loop_
_atom_site_label
_atom_site_type_symbol
_atom_site_fract_x
_atom_site_fract_y
_atom_site_fract_z
O1	O	1.404426	0.473360	-0.094079
O2	O	1.104130	0.409472	-0.094069
O3	O	1.249763	0.302248	-0.094051
O4	O	1.258794	0.580584	-0.094096
O5	O	1.213364	0.329007	0.093956
O6	O	1.067732	0.436231	0.093939
O7	O	1.368028	0.500119	0.093929
Zn8	Zn	1.212101	0.472424	0.123784
Zn9	Zn	1.260057	0.437168	-0.123924
O10	O	1.222395	0.607343	0.093911
C11	C	1.047267	0.412060	-0.000064
C12	C	0.932061	0.379891	-0.000059
C13	C	1.227616	0.279276	-0.000044
C14	C	1.215840	0.170955	-0.000034
C15	C	0.882304	0.279577	-0.000039
C16	C	0.774063	0.249350	-0.000040
C17	C	0.715567	0.319435	-0.000052
C18	C	0.765322	0.419752	-0.000064
C19	C	0.873575	0.449981	-0.000072
C20	C	0.706838	0.489838	-0.000086
C21	C	0.756593	0.590155	-0.000098
C22	C	0.864836	0.620380	-0.000105
C23	C	0.923332	0.550295	-0.000093
C24	C	0.598585	0.459609	-0.000078
C25	C	0.589856	0.630012	-0.000111
C26	C	0.698097	0.660240	-0.000110
C27	C	1.277825	-0.063039	-0.000080
C28	C	1.194340	-0.027364	-0.000070
C29	C	1.206306	0.082991	-0.000050
C30	C	1.265861	-0.173404	-0.000100
C31	C	1.424891	0.497531	-0.000079
C32	C	1.540099	0.529698	-0.000091
C33	C	1.244543	0.630315	-0.000098
C34	C	1.256320	0.738635	-0.000116
N35	N	1.179379	0.496486	0.292838
N36	N	1.292787	0.413099	-0.292978
C37	C	1.368742	0.357223	0.647846
C38	C	1.391638	0.340380	0.529509
C39	C	1.338575	0.379405	0.470336
C40	C	1.262613	0.435276	0.529511
C41	C	1.239720	0.452128	0.647860
C42	C	1.209553	0.474309	0.470349
C43	C	1.133591	0.530181	0.529524
C44	C	1.110701	0.547029	0.647861
C45	C	1.163764	0.508004	0.707035
C46	C	1.232446	0.457458	0.352000
C47	C	1.103423	0.552363	0.352014
C48	C	1.080527	0.569206	0.470351
H49	H	0.558085	0.377930	-0.000068
H50	H	1.113878	-0.079702	-0.000074
Cl51	Cl	1.402042	0.017763	-0.000066
H52	H	1.018677	0.614698	0.518546
Cl53	Cl	1.327937	0.387221	0.277624
Cl54	Cl	1.367357	0.358226	0.321567
Cl55	Cl	1.487129	0.270146	0.455120
Cl56	Cl	1.435452	0.308179	0.722237
H57	H	1.048857	0.592532	0.696042
H58	H	1.145120	0.521714	0.803395
H59	H	1.060217	0.584143	0.303835
H60	H	0.733560	0.167672	-0.000031
Cl61	Cl	0.955847	0.191483	-0.000030
Cl62	Cl	0.579490	0.281432	-0.000051
H63	H	0.905347	0.702062	-0.000132
Cl64	Cl	1.059436	0.588274	-0.000212
H65	H	0.738623	0.741920	-0.000120
H66	H	0.542228	0.687081	-0.000122
