data_functionalizedCrystal
_audit_creation_method	'MofGen! by Chris Wilmer'
_symmetry_space_group_name_H-M	'P1'
_symmetry_Int_Tables_number	1
_symmetry_cell_setting	triclinic
loop_
_symmetry_equiv_pos_as_xyz
  x,y,z
_cell_length_a	17.639617
_cell_length_b	12.594516
_cell_length_c	17.640233
_cell_angle_alpha	101.028314
_cell_angle_beta	65.561595
_cell_angle_gamma	101.202304
loop_
_atom_site_label
_atom_site_type_symbol
_atom_site_fract_x
_atom_site_fract_y
_atom_site_fract_z
Zn1	Zn	1.356080	-0.248754	-0.721437
Zn2	Zn	1.327805	-0.397436	-0.583569
Zn3	Zn	1.189985	-0.249447	-0.555667
Zn4	Zn	1.218154	-0.456679	-0.693482
O5	O	1.273006	-0.338079	-0.638539
O6	O	1.467729	-0.243393	-0.726525
O7	O	1.285901	-0.353302	-0.464493
O8	O	1.212062	-0.100403	-0.577679
O9	O	1.446956	-0.352630	-0.625234
O10	O	1.334091	-0.099894	-0.699470
O11	O	1.184645	-0.244575	-0.443994
O12	O	1.078321	-0.302020	-0.550572
O13	O	1.260072	-0.453601	-0.812565
O14	O	1.099017	-0.454273	-0.651824
O15	O	1.361406	-0.300838	-0.833103
O16	O	1.313216	-0.554247	-0.598127
O17	O	1.232656	-0.597772	-0.678880
C18	C	1.058748	-0.384652	-0.595138
C19	C	0.967091	-0.404605	-0.576590
C20	C	0.719769	-0.186514	-0.779647
C21	C	0.633640	-0.205286	-0.762202
C22	C	0.611999	-0.318776	-0.656576
C23	C	0.698129	-0.300017	-0.674015
C24	C	0.752007	-0.233884	-0.735551
C25	C	0.730367	-0.347388	-0.629918
C26	C	0.816488	-0.328626	-0.647353
C27	C	0.870371	-0.262493	-0.708884
C28	C	0.838128	-0.215122	-0.752986
C29	C	0.676487	-0.413515	-0.568378
C30	C	0.708725	-0.460885	-0.524282
C31	C	0.794848	-0.442130	-0.541720
C32	C	0.848731	-0.375997	-0.603252
C33	C	0.827091	-0.489501	-0.497619
C34	C	0.913213	-0.470738	-0.515054
C35	C	0.934853	-0.357235	-0.620687
C36	C	1.272950	-0.614630	-0.638520
C37	C	1.273008	-0.732929	-0.638555
C38	C	1.229178	-0.825888	-0.682436
C39	C	1.193702	-0.885108	-0.603140
C40	C	1.308561	-0.884494	-0.717879
C41	C	1.237484	-0.790592	-0.559210
C42	C	1.352389	-0.789975	-0.674007
C43	C	1.316931	-0.849146	-0.594665
C44	C	1.488101	-0.291326	-0.682110
C45	C	1.579762	-0.271402	-0.700677
C46	C	1.273088	-0.060447	-0.638581
C47	C	1.273123	0.057863	-0.638598
C48	C	1.229196	-0.292498	-0.424338
C49	C	1.210593	-0.272701	-0.332731
C50	C	1.414885	-0.487642	-0.084999
C51	C	1.397400	-0.469010	0.001081
C52	C	1.291225	-0.356977	0.022489
C53	C	1.308703	-0.375595	-0.063591
C54	C	1.370534	-0.440930	-0.117329
C55	C	1.264352	-0.328883	-0.095921
C56	C	1.281826	-0.347505	-0.181993
C57	C	1.343652	-0.412839	-0.235736
C58	C	1.388008	-0.459551	-0.203401
C59	C	1.202518	-0.263555	-0.042181
C60	C	1.158166	-0.216843	-0.074511
C61	C	1.175644	-0.235458	-0.160586
C62	C	1.237470	-0.300792	-0.214328
C63	C	1.131288	-0.188745	-0.192921
C64	C	1.148763	-0.207367	-0.278993
C65	C	1.254944	-0.319413	-0.300401
C66	C	1.316981	-0.383871	0.146425
C67	C	1.335581	-0.403693	0.054818
H68	H	0.763640	-0.132666	-0.829759
H69	H	1.465240	-0.540834	-0.128757
O70	O	1.224544	-0.286502	0.080448
H71	H	1.219848	-0.281392	0.145731
O72	O	0.598866	-0.154199	-0.809771
H73	H	0.650803	-0.105070	-0.855493
H74	H	1.112650	-0.169325	-0.305316
O75	O	0.992970	-0.285906	-0.687061
H76	H	1.058270	-0.280825	-0.691776
H77	H	1.192015	-0.814895	-0.719461
H78	H	1.080941	-0.135559	-0.149154
H79	H	1.107822	-0.163651	-0.030746
H80	H	1.305299	-0.372605	-0.344159
O81	O	1.104845	-0.939931	-0.563439
H82	H	1.075083	-0.900929	-0.497976
O83	O	1.454696	-0.530022	-0.261368
H84	H	1.515998	-0.493579	-0.258095
H85	H	1.207383	-0.749865	-0.492112
H86	H	1.433535	-0.507033	0.027397
H87	H	0.664845	-0.514727	-0.474177
O88	O	1.348338	-0.938623	-0.806715
H89	H	1.311783	-0.929988	-0.842978
H90	H	0.940496	-0.247214	-0.723076
H91	H	1.354034	-0.859925	-0.557520
H92	H	1.419458	-0.748577	-0.703996
H93	H	1.188285	-0.248408	0.027905
O94	O	0.896251	-0.143793	-0.819357
H95	H	0.859368	-0.113999	-0.847093
O96	O	0.553888	-0.390103	-0.590206
H97	H	0.488586	-0.395196	-0.585492
H98	H	0.939461	-0.509312	-0.479146
O99	O	0.583595	-0.433747	-0.549563
H100	H	0.564275	-0.522525	-0.561510
O101	O	0.768977	-0.560819	-0.431244
H102	H	0.703675	-0.565906	-0.426529
O103	O	1.362591	-0.432929	-0.328591
H104	H	1.305129	-0.473404	-0.338638
