data_functionalizedCrystal
_audit_creation_method	'MofGen! by Chris Wilmer'
_symmetry_space_group_name_H-M	'P1'
_symmetry_Int_Tables_number	1
_symmetry_cell_setting	triclinic
loop_
_symmetry_equiv_pos_as_xyz
  x,y,z
_cell_length_a	21.395364
_cell_length_b	16.625545
_cell_length_c	21.395355
_cell_angle_alpha	89.983814
_cell_angle_beta	89.975448
_cell_angle_gamma	90.040509
loop_
_atom_site_label
_atom_site_type_symbol
_atom_site_fract_x
_atom_site_fract_y
_atom_site_fract_z
Zn1	Zn	0.957882	-0.320773	-0.354272
Zn2	Zn	0.957794	-0.455588	-0.249498
Zn3	Zn	0.853097	-0.320809	-0.249508
Zn4	Zn	0.853075	-0.455603	-0.354239
O5	O	0.905462	-0.388193	-0.301879
O6	O	1.045548	-0.338636	-0.340383
O7	O	0.943877	-0.437718	-0.161822
O8	O	0.867042	-0.207972	-0.263423
O9	O	1.045483	-0.437684	-0.263406
O10	O	0.944027	-0.207946	-0.340393
O11	O	0.866957	-0.338696	-0.161829
O12	O	0.765416	-0.338710	-0.263391
O13	O	0.867006	-0.437709	-0.441921
O14	O	0.765400	-0.437743	-0.340336
O15	O	0.944007	-0.338650	-0.441945
O16	O	0.943857	-0.568423	-0.263374
O17	O	0.866920	-0.568433	-0.340327
C18	C	0.742674	-0.388233	-0.301862
C19	C	0.673033	-0.388269	-0.301869
C20	C	0.640376	-0.336779	-0.342013
C21	C	0.574940	-0.336757	-0.342015
C22	C	0.542165	-0.388240	-0.301880
C23	C	0.574829	-0.439734	-0.261729
C24	C	0.640264	-0.439748	-0.261723
C25	C	0.438445	-0.460853	-0.296845
C26	C	0.373012	-0.460840	-0.296855
C27	C	0.340344	-0.388196	-0.301894
C28	C	0.373116	-0.315562	-0.306936
C29	C	0.438550	-0.315577	-0.306931
C30	C	0.471212	-0.388230	-0.301882
C31	C	0.236734	-0.336678	-0.342043
C32	C	0.171298	-0.336656	-0.342041
C33	C	0.171188	-0.439639	-0.261758
C34	C	0.236623	-0.439655	-0.261757
C35	C	0.269393	-0.388176	-0.301902
C36	C	0.905394	-0.597684	-0.301860
C37	C	0.905422	-0.687305	-0.301872
C38	C	0.905446	-0.760088	-0.301884
C39	C	0.905483	-0.851396	-0.301898
C40	C	0.905515	-0.924173	-0.301906
C41	C	0.905551	-1.015487	-0.301919
C42	C	1.068885	-0.388155	-0.301897
C43	C	1.138526	-0.388138	-0.301905
C44	C	0.905514	-0.388177	-0.465303
C45	C	0.905536	-0.388170	-0.534944
C46	C	0.905547	-0.177884	-0.301913
C47	C	0.905584	-0.088263	-0.301927
C48	C	0.945629	-0.336588	-0.567671
C49	C	0.945628	-0.336553	-0.633106
C50	C	0.905541	-0.388115	-0.665812
C51	C	0.865440	-0.439701	-0.633078
C52	C	0.865438	-0.439728	-0.567643
C53	C	0.900570	-0.460717	-0.769480
C54	C	0.900577	-0.460691	-0.834913
C55	C	0.905545	-0.388030	-0.867633
C56	C	0.910519	-0.315392	-0.834912
C57	C	0.910516	-0.315420	-0.769478
C58	C	0.905539	-0.388091	-0.736765
C59	C	0.945638	-0.336406	-0.971312
C60	C	0.945633	-0.336370	-1.036749
C61	C	0.865449	-0.439524	-1.036719
C62	C	0.865451	-0.439553	-0.971284
C63	C	0.905549	-0.387995	-0.938584
C64	C	0.905446	-0.388151	-0.139092
C65	C	0.905545	-0.387931	-0.069451
H66	H	0.465231	-0.256436	-0.311034
Cl67	Cl	0.681568	-0.272060	-0.392480
H68	H	0.978285	-0.294420	-0.944687
Cl69	Cl	0.815049	-0.504407	-0.930139
Cl70	Cl	0.332055	-0.224231	-0.313271
H71	H	0.978279	-0.294604	-0.541051
H72	H	0.263416	-0.294756	-0.374728
Cl73	Cl	0.130242	-0.271916	-0.392509
Cl74	Cl	0.815048	-0.504339	-1.077830
Cl75	Cl	0.277680	-0.504385	-0.211285
H76	H	0.144503	-0.481557	-0.229079
Cl77	Cl	0.331819	-0.552151	-0.290527
Cl78	Cl	0.479507	-0.552185	-0.290501
H79	H	0.666853	-0.481679	-0.229033
H80	H	0.548139	-0.481651	-0.229051
H81	H	0.896530	-0.519837	-0.861549
Cl82	Cl	0.815043	-0.504518	-0.674193
H83	H	0.978275	-0.294545	-0.659757
Cl84	Cl	0.916765	-0.224109	-0.728345
H85	H	0.978281	-0.294361	-1.063394
Cl86	Cl	0.916767	-0.224040	-0.876038
Cl87	Cl	0.815032	-0.504580	-0.526499
Cl88	Cl	0.533877	-0.272021	-0.392484
Cl89	Cl	0.894343	-0.552075	-0.728353
