data_functionalizedCrystal
_audit_creation_method	'MofGen! by Chris Wilmer'
_symmetry_space_group_name_H-M	'P1'
_symmetry_Int_Tables_number	1
_symmetry_cell_setting	triclinic
loop_
_symmetry_equiv_pos_as_xyz
  x,y,z
_cell_length_a	27.731988
_cell_length_b	7.088929
_cell_length_c	8.559649
_cell_angle_alpha	95.344185
_cell_angle_beta	103.801487
_cell_angle_gamma	96.162042
loop_
_atom_site_label
_atom_site_type_symbol
_atom_site_fract_x
_atom_site_fract_y
_atom_site_fract_z
O1	O	-0.628768	0.158460	0.206361
O2	O	-0.486954	0.158580	0.235408
O3	O	-0.570355	0.158508	-0.012036
O4	O	-0.545367	0.158533	0.453805
O5	O	-0.581504	-0.159477	-0.045179
O6	O	-0.498103	-0.159405	0.202266
O7	O	-0.639917	-0.159524	0.173218
Cu8	Cu	-0.570028	-0.188499	0.184716
Cu9	Cu	-0.556843	0.187555	0.223911
O10	O	-0.556516	-0.159452	0.420662
C11	C	-0.474541	-0.000397	0.218244
C12	C	-0.420946	-0.000352	0.216458
C13	C	-0.032163	0.172898	0.221533
C14	C	-0.233581	0.172945	0.228365
O15	O	-0.254458	0.320361	0.244548
N16	N	-0.264849	-0.000385	0.211153
C17	C	-0.245760	-0.173740	0.192222
O18	O	-0.276978	-0.321166	0.177722
C19	C	-0.044343	-0.173785	0.185378
C20	C	-0.013077	-0.000443	0.202607
C21	C	-0.000897	0.346225	0.238758
C22	C	0.049455	0.346211	0.237059
C23	C	0.068541	0.172870	0.218134
C24	C	0.037275	-0.000457	0.200908
C25	C	-0.025256	-0.347137	0.166436
C26	C	0.025101	-0.347133	0.164722
C27	C	0.056368	-0.173792	0.181951
C28	C	0.106714	-0.173812	0.180284
N29	N	0.137981	-0.000482	0.197495
C30	C	0.118895	0.172859	0.216420
C31	C	-0.351506	-0.173703	0.195819
C32	C	-0.401859	-0.173693	0.197533
C33	C	-0.389678	0.172993	0.233672
C34	C	-0.339322	0.172980	0.231970
C35	C	-0.320238	-0.000373	0.213030
C36	C	0.224638	0.172818	0.212852
C37	C	0.274994	0.172789	0.211157
C38	C	0.262807	-0.173895	0.175009
C39	C	0.212456	-0.173867	0.176712
C40	C	0.193372	-0.000495	0.195629
O41	O	0.127622	-0.321151	0.164089
O42	O	0.150118	0.320264	0.230881
C43	C	-0.082515	0.172911	0.223232
C44	C	-0.113781	-0.000416	0.206006
C45	C	-0.094695	-0.173757	0.187081
C46	C	-0.164135	-0.000405	0.207720
C47	C	-0.183221	0.172936	0.226645
C48	C	-0.151954	0.346266	0.243856
C49	C	-0.101601	0.346252	0.242157
C50	C	-0.125962	-0.347087	0.169869
C51	C	-0.176314	-0.347060	0.171572
C52	C	-0.195400	-0.173719	0.190497
N53	N	-0.579304	-0.452995	0.157147
C54	C	0.347672	-0.000537	0.190398
C55	C	0.294080	-0.000552	0.192232
C56	C	-0.577823	-0.000483	-0.088185
C57	C	-0.583459	-0.000477	-0.265708
N58	N	-0.547571	0.452051	0.251467
C59	C	-0.549048	-0.000457	0.496812
C60	C	-0.543411	-0.000451	0.674336
H61	H	-0.167502	0.487406	0.259275
H62	H	-0.201767	-0.488226	0.157554
H63	H	-0.504812	-0.000424	-0.241184
H64	H	-0.514683	-0.466274	0.349209
H65	H	-0.612198	-0.534680	0.059409
O66	O	-0.105340	-0.534004	0.149659
H67	H	-0.091025	-0.542434	0.039020
O68	O	0.204059	0.359805	0.233272
H69	H	0.234267	0.480313	0.244979
O70	O	0.308715	0.359756	0.229688
H71	H	0.286977	0.480287	0.243099
O72	O	0.083161	0.533193	0.255567
H73	H	0.084773	0.616366	0.373585
O74	O	-0.021478	0.533200	0.259184
H75	H	0.008731	0.653703	0.270884
O76	O	-0.305603	0.359936	0.250502
H77	H	-0.327342	0.480462	0.263929
H78	H	-0.622062	-0.000525	-0.350199
O79	O	-0.410269	0.359962	0.254057
H80	H	-0.450537	0.330830	0.252333
H81	H	-0.427311	-0.314845	0.183529
H82	H	-0.050706	-0.488291	0.152401
O83	O	-0.330923	-0.360688	0.175415
H84	H	-0.361127	-0.481196	0.163756
H85	H	0.187000	-0.315016	0.162714
O86	O	0.045687	-0.534110	0.144309
H87	H	0.015484	-0.654628	0.132632
O88	O	0.283587	-0.360576	0.155421
H89	H	0.297996	-0.369252	0.044969
O90	O	-0.067885	0.533213	0.260679
H91	H	-0.089627	0.653733	0.274091
