data_functionalizedCrystal
_audit_creation_method	'MofGen! by Chris Wilmer'
_symmetry_space_group_name_H-M	'P1'
_symmetry_Int_Tables_number	1
_symmetry_cell_setting	triclinic
loop_
_symmetry_equiv_pos_as_xyz
  x,y,z
_cell_length_a	13.339070
_cell_length_b	10.654562
_cell_length_c	9.130313
_cell_angle_alpha	90.000695
_cell_angle_beta	90.000326
_cell_angle_gamma	79.940321
loop_
_atom_site_label
_atom_site_type_symbol
_atom_site_fract_x
_atom_site_fract_y
_atom_site_fract_z
O1	O	0.142493	-1.715938	-0.121810
O2	O	0.156050	-1.355039	-0.121809
O3	O	0.001715	-1.494069	-0.121805
O4	O	0.296827	-1.576908	-0.121814
O5	O	0.001720	-1.494068	0.121794
O6	O	0.156054	-1.355038	0.121790
O7	O	0.142497	-1.715937	0.121789
Cu8	Cu	0.149276	-1.535487	0.144032
Cu9	Cu	0.149271	-1.535488	-0.144052
O10	O	0.296831	-1.576907	0.121785
C11	C	0.155054	-1.307904	-0.000010
C12	C	0.152067	-1.167453	-0.000009
C13	C	0.058391	-1.084283	-0.000002
C14	C	0.055591	-0.952316	-0.000013
C15	C	0.240153	-0.986701	-0.000031
C16	C	0.242952	-1.118666	-0.000031
C17	C	-0.032493	-1.133070	0.000019
C18	C	-0.126178	-1.049899	0.000028
C19	C	-0.128977	-0.917931	0.000017
C20	C	-0.038093	-0.869135	-0.000001
C21	C	-0.036070	-1.480075	-0.000008
C22	C	-0.148666	-1.438365	-0.000014
C23	C	-0.511172	-1.762682	-0.000014
C24	C	-0.405383	-1.801874	0.000000
C25	C	-0.341199	-1.711000	-0.000004
C26	C	-0.382814	-1.580927	-0.000020
C27	C	-0.488613	-1.541730	-0.000023
C28	C	-0.318640	-1.490049	-0.000013
C29	C	-0.360255	-1.359975	-0.000029
C30	C	-0.466044	-1.320785	-0.000033
C31	C	-0.530229	-1.411659	-0.000029
C32	C	-0.212840	-1.529246	-0.000011
C33	C	-0.190282	-1.308294	-0.000020
C34	C	-0.296071	-1.269101	-0.000033
C35	C	0.334617	-1.590901	-0.000016
C36	C	0.447213	-1.632611	-0.000020
N37	N	0.149278	-1.535496	0.346654
C38	C	0.143490	-0.763072	-0.000013
C39	C	0.146469	-0.903521	-0.000019
N40	N	0.149260	-1.535487	-0.346675
C41	C	0.080963	-1.597088	0.423308
C42	C	0.080951	-1.597080	0.576645
C43	C	0.217579	-1.473887	0.576661
C44	C	0.217585	-1.473888	0.423327
C45	C	0.012656	-1.658696	0.346636
C46	C	-0.055665	-1.720294	0.423290
C47	C	-0.055677	-1.720286	0.576626
C48	C	0.012632	-1.658680	0.653309
H49	H	-0.030224	-1.240522	0.000031
H50	H	-0.111285	-1.770443	0.360846
H51	H	-0.329969	-1.163193	-0.000046
H52	H	0.012609	-1.658669	0.778167
O53	O	-0.129364	-1.786712	0.659312
H54	H	-0.086211	-1.862761	0.729187
O55	O	-0.121060	-1.210275	-0.000023
H56	H	-0.135948	-1.149788	0.099272
O57	O	-0.224201	-1.102517	0.000054
H58	H	-0.206519	-1.208253	0.000077
O59	O	-0.510934	-1.180494	-0.000026
H60	H	-0.485229	-1.135042	-0.099318
H61	H	0.012662	-1.658710	0.221781
H62	H	-0.205259	-0.850216	0.000010
H63	H	-0.040380	-0.761677	-0.000023
O64	O	-0.360507	-1.942159	-0.000012
H65	H	-0.386231	-1.987616	0.099264
O66	O	0.291263	-1.407460	0.659358
H67	H	0.279789	-1.417821	0.778859
H68	H	0.314146	-0.946961	-0.000043
H69	H	0.319231	-1.186386	-0.000023
H70	H	-0.178968	-1.635152	0.000003
H71	H	-0.255061	-1.742919	0.000008
O72	O	-0.580393	-1.860688	0.000007
H73	H	-0.660948	-1.811577	0.000001
H74	H	0.273213	-1.423732	0.360915
H75	H	-0.616372	-1.379755	-0.000045
