data_functionalizedCrystal
_audit_creation_method	'MofGen! by Chris Wilmer'
_symmetry_space_group_name_H-M	'P1'
_symmetry_Int_Tables_number	1
_symmetry_cell_setting	triclinic
loop_
_symmetry_equiv_pos_as_xyz
  x,y,z
_cell_length_a	19.188933
_cell_length_b	17.666332
_cell_length_c	10.723024
_cell_angle_alpha	90.003996
_cell_angle_beta	83.806719
_cell_angle_gamma	90.007838
loop_
_atom_site_label
_atom_site_type_symbol
_atom_site_fract_x
_atom_site_fract_y
_atom_site_fract_z
O1	O	0.927161	0.062921	0.155793
O2	O	1.427161	0.562921	0.655793
O3	O	0.723986	0.062928	0.176761
O4	O	1.223986	0.562928	0.676761
O5	O	0.830260	0.062922	-0.015397
O6	O	1.330260	0.562922	0.484603
O7	O	0.820887	0.062928	0.347950
O8	O	1.320887	0.562928	0.847950
O9	O	0.830241	-0.062975	-0.015402
O10	O	1.330241	0.437025	0.484598
O11	O	0.723967	-0.062969	0.176755
O12	O	1.223967	0.437031	0.676755
O13	O	0.927142	-0.062976	0.155787
O14	O	1.427142	0.437024	0.655787
Cu15	Cu	0.825553	-0.074467	0.166271
Cu16	Cu	1.325553	0.425533	0.666271
Cu17	Cu	0.825575	0.074420	0.166277
Cu18	Cu	1.325575	0.574420	0.666277
O19	O	0.820868	-0.062969	0.347945
O20	O	1.320868	0.437031	0.847945
C21	C	0.697961	-0.000019	0.176079
C22	C	1.197961	0.499981	0.676079
C23	C	0.620444	-0.000017	0.174039
C24	C	1.120444	0.499983	0.674039
C25	C	0.067104	0.068601	0.159485
C26	C	0.567104	0.568601	0.659485
C27	C	0.139941	0.068604	0.161394
C28	C	0.639941	0.568604	0.661394
C29	C	0.176354	-0.000022	0.162352
C30	C	0.676354	0.499978	0.662352
C31	C	0.139926	-0.068656	0.161368
C32	C	0.639926	0.431344	0.661368
C33	C	0.067092	-0.068657	0.159446
C34	C	0.567092	0.431343	0.659446
N35	N	0.285847	-0.051102	0.236370
N36	N	0.785847	0.448898	0.736370
N37	N	0.355036	-0.051097	0.238198
N38	N	0.855036	0.448903	0.738198
C39	C	0.395800	-0.000023	0.168138
C40	C	0.895800	0.499977	0.668138
N41	N	0.364759	0.051056	0.096197
N42	N	0.864759	0.551056	0.596197
N43	N	0.295563	0.051053	0.094374
N44	N	0.795563	0.551053	0.594374
C45	C	0.255330	-0.000029	0.164434
C46	C	0.755330	0.499971	0.664434
C47	C	0.511197	0.068610	0.171183
C48	C	1.011197	0.568610	0.671183
C49	C	0.584036	0.068610	0.173084
C50	C	1.084036	0.568610	0.673084
C51	C	0.584019	-0.068652	0.173070
C52	C	1.084019	0.431348	0.673070
C53	C	0.511182	-0.068650	0.171156
C54	C	1.011182	0.431350	0.671156
C55	C	0.474776	-0.000017	0.170219
C56	C	0.974776	0.499983	0.670219
N57	N	0.825542	-0.179187	0.166265
N58	N	1.325542	0.320813	0.666265
C59	C	0.868242	-0.218791	0.241765
C60	C	1.368242	0.281209	0.741765
C61	C	0.868253	-0.298038	0.241761
C62	C	1.368253	0.201962	0.741761
C63	C	0.825552	-0.337679	0.166272
C64	C	1.325552	0.162321	0.666272
C65	C	0.782850	-0.298066	0.090758
C66	C	1.282850	0.201934	0.590758
C67	C	0.782845	-0.218820	0.090754
C68	C	1.282845	0.281180	0.590754
N69	N	0.764384	-0.462117	0.163198
N70	N	1.264384	0.037883	0.663198
N71	N	0.764390	-0.537397	0.163208
N72	N	1.264390	-0.037397	0.663208
C73	C	0.825565	-0.576443	0.166277
C74	C	1.325565	-0.076443	0.666277
N75	N	0.886733	-0.537365	0.169359
N76	N	1.386733	-0.037365	0.669359
N77	N	0.886726	-0.462077	0.169355
N78	N	1.386726	0.037923	0.669355
C79	C	0.825552	-0.423608	0.166267
C80	C	1.325552	0.076392	0.666267
C81	C	0.868280	-0.701976	0.241776
C82	C	1.368280	-0.201976	0.741776
C83	C	0.868292	-0.781225	0.241763
C84	C	1.368292	-0.281225	0.741763
C85	C	0.782882	-0.781251	0.090768
C86	C	1.282882	-0.281251	0.590768
C87	C	0.782876	-0.702004	0.090773
C88	C	1.282876	-0.202004	0.590773
C89	C	0.825574	-0.662371	0.166284
C90	C	1.325574	-0.162371	0.666284
C91	C	0.953167	-0.000026	0.156469
C92	C	1.453167	0.499974	0.656469
C93	C	1.030685	-0.000024	0.158509
C94	C	1.530685	0.499976	0.658509
C95	C	0.829569	-0.000026	-0.061885
C96	C	1.329569	0.499974	0.438115
C97	C	0.827528	-0.000023	-0.200397
C98	C	1.327528	0.499977	0.299603
N99	N	0.825592	0.179139	0.166273
N100	N	1.325592	0.679139	0.666273
C101	C	0.886993	-0.000024	-0.276613
C102	C	1.386993	0.499976	0.223387
C103	C	0.884885	-0.000021	-0.419773
C104	C	1.384885	0.499979	0.080227
C105	C	0.821560	-0.000020	0.394433
C106	C	1.321560	0.499980	0.894433
C107	C	0.823601	-0.000018	0.532945
C108	C	1.323601	0.499982	1.032945
H109	H	0.481553	0.124495	0.170415
H110	H	0.981553	0.624495	0.670415
H111	H	0.169578	-0.124532	0.162145
H112	H	0.669578	0.375468	0.662145
Cl113	Cl	0.629822	0.154890	0.174299
Cl114	Cl	1.129822	0.654890	0.674299
Cl115	Cl	0.746513	-0.000013	-0.263275
Cl116	Cl	1.246513	0.499987	0.236725
H117	H	0.903025	-0.330290	0.303245
H118	H	1.403025	0.169710	0.803245
Cl119	Cl	0.021305	-0.154936	0.158224
Cl120	Cl	0.521305	0.345064	0.658224
Cl121	Cl	0.629790	-0.154926	0.174253
Cl122	Cl	1.129790	0.345074	0.674253
H123	H	0.037466	0.124488	0.158717
H124	H	0.537466	0.624488	0.658717
H125	H	0.772691	-0.000022	-0.401574
H126	H	1.272691	0.499978	0.098426
H127	H	0.481529	-0.124532	0.170365
H128	H	0.981529	0.375468	0.670365
Cl129	Cl	0.968009	-0.000022	-0.213735
Cl130	Cl	1.468009	0.499978	0.286265
H131	H	0.169599	0.124489	0.162197
H132	H	0.669599	0.624489	0.662197
H133	H	0.748083	-0.330347	0.029293
H134	H	1.248083	0.169653	0.529293
H135	H	0.903012	-0.186526	0.303247
H136	H	1.403012	0.313474	0.803247
Cl137	Cl	0.963486	-0.000028	-0.520876
Cl138	Cl	1.463486	0.499972	-0.020876
H139	H	0.748072	-0.186575	0.029272
H140	H	1.248072	0.313425	0.529272
Cl141	Cl	0.729180	-0.652214	-0.004121
Cl142	Cl	1.229180	-0.152214	0.495879
Cl143	Cl	0.921971	-0.652148	0.336674
Cl144	Cl	1.421971	-0.152148	0.836674
Cl145	Cl	0.921981	-0.831013	0.336680
Cl146	Cl	1.421981	-0.331013	0.836680
Cl147	Cl	0.729208	-0.831078	-0.004148
Cl148	Cl	1.229208	-0.331078	0.495852
