data_functionalizedCrystal
_audit_creation_method	'MofGen! by Chris Wilmer'
_symmetry_space_group_name_H-M	'P1'
_symmetry_Int_Tables_number	1
_symmetry_cell_setting	triclinic
loop_
_symmetry_equiv_pos_as_xyz
  x,y,z
_cell_length_a	10.967971
_cell_length_b	10.967819
_cell_length_c	9.482944
_cell_angle_alpha	112.345149
_cell_angle_beta	88.380923
_cell_angle_gamma	87.248965
loop_
_atom_site_label
_atom_site_type_symbol
_atom_site_fract_x
_atom_site_fract_y
_atom_site_fract_z
O1	O	0.246303	1.728859	0.492326
O2	O	0.249273	1.351847	0.397130
O3	O	0.073103	1.555659	0.492321
O4	O	0.422473	1.525047	0.397135
O5	O	0.038099	1.520450	0.250477
O6	O	0.214268	1.316638	0.155285
O7	O	0.211299	1.693650	0.250482
Cu8	Cu	0.209587	1.501929	0.180801
Cu9	Cu	0.250984	1.543568	0.466810
O10	O	0.387468	1.489838	0.155291
C11	C	0.228909	1.286091	0.264861
C12	C	0.220366	1.142615	0.231057
C13	C	0.225878	0.948607	0.306354
C14	C	0.234698	1.096897	0.341286
C15	C	0.010745	1.538488	0.382747
C16	C	-0.122914	1.539763	0.416557
C17	C	-0.200642	1.522092	0.306349
C18	C	-0.338785	1.523409	0.341291
C19	C	0.449827	1.507010	0.264868
C20	C	0.583487	1.505736	0.231068
C21	C	0.231664	1.759407	0.382753
C22	C	0.240208	1.902884	0.416568
N23	N	0.180471	1.472652	-0.020360
C24	C	0.242395	1.534923	-0.092471
C25	C	0.218158	1.510575	-0.259917
N26	N	0.280092	1.572855	0.667976
H27	H	0.259012	0.973522	0.536785
H28	H	-0.164917	1.505995	0.186130
H29	H	-0.158640	1.555873	0.536779
C30	C	0.195378	1.047138	0.068520
H31	H	0.192897	0.959966	0.066311
H32	H	0.258706	1.049603	-0.000601
H33	H	0.119215	1.072912	0.039555
C34	C	-0.387029	1.545164	0.503709
H35	H	-0.473547	1.543186	0.505885
H36	H	-0.364592	1.628475	0.573153
H37	H	-0.352724	1.477226	0.532276
H38	H	-0.380796	1.489637	0.110840
C39	C	0.338257	1.631293	-0.008422
H40	H	0.341978	1.635007	0.093091
H41	H	0.315956	1.716772	-0.006274
H42	H	0.415993	1.601534	-0.060227
H43	H	0.147192	1.439236	-0.322137
C44	C	0.375957	1.669233	-0.247983
H45	H	0.379678	1.672951	-0.146468
H46	H	0.353652	1.754711	-0.245837
H47	H	0.453693	1.639477	-0.299787
C48	C	0.084616	1.376271	-0.104406
H49	H	0.048905	1.340364	-0.037449
H50	H	0.122922	1.306888	-0.190775
H51	H	0.022869	1.422110	-0.136822
C52	C	0.260093	1.192308	0.503703
H53	H	0.262682	1.279460	0.505878
H54	H	0.336313	1.166306	0.532287
H55	H	0.196931	1.190036	0.573142
C56	C	0.200428	0.853202	0.143962
H57	H	0.197806	0.766056	0.141797
H58	H	0.263551	0.855452	0.074475
H59	H	0.124186	0.879237	0.115443
