data_functionalizedCrystal
_audit_creation_method	'MofGen! by Chris Wilmer'
_symmetry_space_group_name_H-M	'P1'
_symmetry_Int_Tables_number	1
_symmetry_cell_setting	triclinic
loop_
_symmetry_equiv_pos_as_xyz
  x,y,z
_cell_length_a	10.489741
_cell_length_b	10.489741
_cell_length_c	8.965430
_cell_angle_alpha	89.999293
_cell_angle_beta	89.998843
_cell_angle_gamma	95.460826
loop_
_atom_site_label
_atom_site_type_symbol
_atom_site_fract_x
_atom_site_fract_y
_atom_site_fract_z
O1	O	1.694053	-0.179958	-0.123946
O2	O	1.322858	-0.196851	-0.123969
O3	O	1.516902	-0.002807	-0.123948
O4	O	1.500009	-0.374003	-0.123967
O5	O	1.516886	-0.002820	0.124130
O6	O	1.322841	-0.196864	0.124110
O7	O	1.694037	-0.179971	0.124133
Cu8	Cu	1.508438	-0.188419	0.146773
Cu9	Cu	1.508457	-0.188404	-0.146609
O10	O	1.499993	-0.374016	0.124112
C11	C	1.275318	-0.195582	0.000067
C12	C	1.133688	-0.191765	0.000059
C13	C	1.515618	0.044718	0.000090
C14	C	1.511801	0.186348	0.000087
C15	C	1.065548	-0.068300	0.000079
C16	C	0.973430	-0.126617	-0.122237
C17	C	0.973447	-0.126659	0.122349
C18	C	1.043435	-0.250133	-0.122358
C19	C	1.043462	-0.250158	0.122338
C20	C	0.951371	-0.308564	-0.000007
C21	C	1.741577	-0.181241	0.000093
C22	C	1.883206	-0.185058	0.000092
C23	C	1.501277	-0.421541	0.000070
C24	C	1.505094	-0.563170	0.000063
N25	N	1.508433	-0.188429	0.353122
C26	C	1.388336	0.254488	0.000069
C27	C	1.446652	0.346604	0.122388
C28	C	1.446697	0.346591	-0.122198
C29	C	1.570167	0.276599	0.122508
C30	C	1.570195	0.276576	-0.122189
C31	C	1.628600	0.368665	0.000161
N32	N	1.508471	-0.188384	-0.352958
C33	C	1.418666	-0.278138	0.450418
C34	C	1.534163	-0.303949	0.549838
C35	C	1.392986	-0.162629	0.549830
C36	C	1.623988	-0.214298	0.450352
C37	C	1.482735	-0.072927	0.450336
C38	C	1.598314	-0.098690	0.549711
H39	H	1.115238	0.033196	-0.000069
H40	H	1.622355	0.245761	0.226035
H41	H	1.342824	-0.354072	0.406821
H42	H	1.394404	0.377610	0.225794
C43	C	0.884590	-0.445812	-0.000093
H44	H	0.833170	-0.458612	0.086837
H45	H	0.832080	-0.458078	-0.086194
H46	H	0.947330	-0.505422	-0.000951
H47	H	1.555925	-0.401606	0.593543
H48	H	1.460937	0.024699	0.406596
H49	H	0.942422	-0.074371	-0.225643
C50	C	1.765848	0.435447	0.000259
H51	H	1.809486	0.411489	0.087229
H52	H	1.810043	0.410412	-0.085802
H53	H	1.762682	0.525653	-0.000555
C54	C	1.085076	-0.320668	-0.262195
H55	H	1.175433	-0.322636	-0.261372
H56	H	1.044949	-0.405759	-0.262514
H57	H	1.060554	-0.277113	-0.348968
C58	C	1.376118	0.388454	-0.261899
H59	H	1.432441	0.445151	-0.319501
H60	H	1.348326	0.315241	-0.319875
H61	H	1.304045	0.430818	-0.232492
C62	C	0.931592	-0.056073	0.262049
H63	H	0.971078	0.029278	0.261890
H64	H	0.841163	-0.054827	0.261538
H65	H	0.956744	-0.099112	0.348907
C66	C	1.085411	-0.320675	0.262031
H67	H	1.061708	-0.276692	0.348864
H68	H	1.044737	-0.405544	0.262908
H69	H	1.175683	-0.323262	0.260522
H70	H	1.286824	0.204837	0.000185
C71	C	1.755929	-0.243922	0.391583
H72	H	1.755095	-0.243805	0.285622
H73	H	1.819741	-0.180566	0.426371
H74	H	1.774333	-0.325698	0.426482
H75	H	1.295338	-0.140828	0.593530
C76	C	1.640713	0.234630	-0.261883
H77	H	1.596732	0.258334	-0.348716
H78	H	1.725583	0.275303	-0.262759
H79	H	1.643300	0.144357	-0.260375
C80	C	1.700993	0.003822	0.608255
H81	H	1.782932	-0.014703	0.574008
H82	H	1.683422	0.085638	0.572679
H83	H	1.699988	0.003749	0.714211
