data_functionalizedCrystal
_audit_creation_method	'MofGen! by Chris Wilmer'
_symmetry_space_group_name_H-M	'P1'
_symmetry_Int_Tables_number	1
_symmetry_cell_setting	triclinic
loop_
_symmetry_equiv_pos_as_xyz
  x,y,z
_cell_length_a	16.974800
_cell_length_b	10.654541
_cell_length_c	16.053934
_cell_angle_alpha	87.400873
_cell_angle_beta	96.214647
_cell_angle_gamma	83.935819
loop_
_atom_site_label
_atom_site_type_symbol
_atom_site_fract_x
_atom_site_fract_y
_atom_site_fract_z
O1	O	1.050098	0.159850	0.001551
O2	O	0.819262	0.181446	-0.014054
O3	O	0.939989	-0.012202	-0.005888
O4	O	0.929372	0.353498	-0.006615
O5	O	0.946598	-0.022824	0.133416
O6	O	0.825871	0.170824	0.125250
O7	O	1.056707	0.149228	0.140854
Zn8	Zn	0.942338	0.158340	0.155169
Zn9	Zn	0.933631	0.172335	-0.028369
O10	O	0.935980	0.342876	0.132688
C11	C	0.793009	0.175514	0.053600
C12	C	0.704936	0.173650	0.047646
C13	C	0.667167	0.166981	0.120786
C14	C	0.584415	0.165209	0.115194
C15	C	0.539434	0.170115	0.036462
C16	C	0.577209	0.176781	-0.036682
C17	C	0.659960	0.178544	-0.031090
C18	C	0.291559	0.165454	0.011594
C19	C	0.208802	0.163694	0.006007
C20	C	0.216014	0.152120	0.157884
C21	C	0.298766	0.153891	0.163470
C22	C	0.336534	0.160550	0.090325
N23	N	0.454848	0.168307	0.030745
N24	N	0.421120	0.162348	0.096043
C25	C	0.942514	-0.064295	0.063711
C26	C	0.940183	-0.203690	0.063552
C27	C	1.084545	-0.234657	0.073321
C28	C	1.155628	-0.315626	0.078133
C29	C	1.153432	-0.446599	0.077982
C30	C	1.080146	-0.496602	0.073016
C31	C	1.009064	-0.415633	0.068204
C32	C	1.011267	-0.284659	0.068358
C33	C	0.864703	-0.384666	0.058429
C34	C	0.866897	-0.253693	0.058586
C35	C	0.791417	-0.434669	0.053463
C36	C	0.720333	-0.353700	0.048656
C37	C	0.722532	-0.222720	0.048809
C38	C	0.795815	-0.172724	0.053774
C39	C	1.082960	0.155160	0.073199
C40	C	1.171033	0.157025	0.079147
C41	C	0.933455	0.394969	0.063087
C42	C	0.935786	0.534365	0.063241
N43	N	0.948287	0.148788	0.280429
N44	N	0.927689	0.181877	-0.153629
C45	C	0.896907	0.231155	0.320669
C46	C	0.901091	0.224468	0.408357
C47	C	0.956652	0.135406	0.455804
C48	C	1.008037	0.053035	0.415559
C49	C	1.003856	0.059730	0.327873
C50	C	0.974893	0.106200	0.718440
C51	C	0.979068	0.099509	0.806132
C52	C	0.872123	0.270944	0.798924
C53	C	0.867944	0.277625	0.711236
C54	C	0.919332	0.195259	0.670999
N55	N	0.960928	0.128566	0.545435
N56	N	0.915059	0.202106	0.581369
H57	H	0.185255	0.146696	0.217434
F58	F	0.817438	0.358602	0.841753
F59	F	0.642346	-0.406924	0.043363
F60	F	0.544221	0.158128	0.193039
F61	F	0.331744	0.172543	-0.066254
H62	H	0.859255	0.291538	0.441119
F63	F	1.038206	0.004710	0.856624
F64	F	1.067173	-0.041746	0.466057
H65	H	0.664647	-0.156800	0.044886
H66	H	0.822702	0.350146	0.672606
F67	F	1.086888	-0.095267	0.073499
F68	F	0.346633	0.148676	0.247267
F69	F	0.837768	0.325942	0.270179
F70	F	1.233620	-0.262400	0.083414
F71	F	0.700156	0.185637	-0.108935
F72	F	0.160930	0.168920	-0.077793
F73	F	1.029581	0.018537	0.675623
F74	F	0.529337	0.181964	-0.120475
H75	H	1.045696	-0.007341	0.295111
F76	F	0.715032	0.161767	0.204583
F77	F	1.229085	-0.532775	0.083097
H78	H	0.789635	-0.541314	0.053335
F79	F	1.077812	-0.635992	0.072810
H80	H	0.797612	-0.066082	0.053903
