data_functionalizedCrystal
_audit_creation_method	'MofGen! by Chris Wilmer'
_symmetry_space_group_name_H-M	'P1'
_symmetry_Int_Tables_number	1
_symmetry_cell_setting	triclinic
loop_
_symmetry_equiv_pos_as_xyz
  x,y,z
_cell_length_a	11.792254
_cell_length_b	10.654553
_cell_length_c	9.730223
_cell_angle_alpha	89.999314
_cell_angle_beta	89.996917
_cell_angle_gamma	95.657612
loop_
_atom_site_label
_atom_site_type_symbol
_atom_site_fract_x
_atom_site_fract_y
_atom_site_fract_z
O1	O	-0.159431	1.667389	-0.114291
O2	O	-0.174615	1.301869	-0.114288
O3	O	-0.001874	1.493491	-0.114296
O4	O	-0.332172	1.475767	-0.114283
O5	O	-0.001878	1.493488	0.114284
O6	O	-0.174620	1.301866	0.114291
O7	O	-0.159435	1.667387	0.114289
Zn8	Zn	-0.167028	1.484626	0.150582
Zn9	Zn	-0.167022	1.484629	-0.150581
O10	O	-0.332177	1.475765	0.114297
C11	C	-0.173502	1.255073	0.000002
C12	C	-0.170164	1.115639	0.000002
C13	C	-0.165455	0.919111	0.124591
C14	C	-0.168597	1.050123	0.124599
C15	C	-0.168599	1.050135	-0.124612
C16	C	-0.165465	0.919124	-0.124618
C17	C	-0.165449	0.919105	0.268471
C18	C	-0.168592	1.050117	0.268479
C19	C	-0.374468	1.476882	0.000008
C20	C	-0.500488	1.480224	0.000013
C21	C	-0.602831	1.482939	0.000005
C22	C	-0.731226	1.486334	-0.000011
C23	C	0.040417	1.492373	-0.000010
C24	C	0.166438	1.489031	-0.000024
C25	C	-0.160549	1.714182	-0.000004
C26	C	-0.163887	1.853616	-0.000013
N27	N	-0.167031	1.484633	0.356119
N28	N	-0.167010	1.484632	-0.356118
C29	C	-0.090568	1.569505	0.428042
C30	C	-0.090554	1.569502	0.571925
C31	C	-0.243478	1.399751	0.571949
C32	C	-0.243485	1.399749	0.428069
C33	C	-0.002282	1.667514	0.428028
C34	C	-0.002268	1.667511	0.571911
H35	H	-0.164202	0.865802	-0.226082
Cl36	Cl	-0.044977	1.808166	0.359119
Cl37	Cl	-0.170581	1.132497	-0.281249
H38	H	-0.021716	1.763968	0.610963
Cl39	Cl	-0.339598	1.293033	0.337650
Cl40	Cl	-0.296399	1.095419	0.337417
H41	H	-0.305723	1.330639	0.630547
Cl42	Cl	0.125007	1.620745	0.640802
H43	H	-0.090150	1.096619	0.323712
Cl44	Cl	-0.286547	0.847300	0.353763
H45	H	-0.082669	0.889762	0.313106
Cl46	Cl	0.132406	1.634781	0.367716
