data_functionalizedCrystal
_audit_creation_method	'MofGen! by Chris Wilmer'
_symmetry_space_group_name_H-M	'P1'
_symmetry_Int_Tables_number	1
_symmetry_cell_setting	triclinic
loop_
_symmetry_equiv_pos_as_xyz
  x,y,z
_cell_length_a	11.792241
_cell_length_b	14.971491
_cell_length_c	14.048226
_cell_angle_alpha	89.991693
_cell_angle_beta	90.001436
_cell_angle_gamma	96.095174
loop_
_atom_site_label
_atom_site_type_symbol
_atom_site_fract_x
_atom_site_fract_y
_atom_site_fract_z
O1	O	-0.147937	1.187537	-0.079191
O2	O	-0.165643	0.927208	-0.079182
O3	O	0.008421	1.063690	-0.079192
O4	O	-0.322001	1.051055	-0.079181
O5	O	0.008431	1.063673	0.079129
O6	O	-0.165633	0.927192	0.079139
O7	O	-0.147927	1.187520	0.079131
Zn8	Zn	-0.156778	1.057353	0.104272
Zn9	Zn	-0.156792	1.057375	-0.104323
O10	O	-0.321991	1.051039	0.079141
C11	C	-0.164845	0.893872	-0.000021
C12	C	-0.162469	0.794566	-0.000018
C13	C	-0.152222	0.366828	-0.086341
C14	C	-0.154451	0.460137	-0.086338
C15	C	-0.155567	0.506779	-0.000034
C16	C	-0.154443	0.460107	0.086273
C17	C	-0.152206	0.366800	0.086268
C18	C	-0.159109	0.654587	0.086276
C19	C	-0.161348	0.747900	0.086281
C20	C	-0.161354	0.747925	-0.086329
C21	C	-0.159117	0.654618	-0.086334
C22	C	-0.157995	0.607952	-0.000028
C23	C	-0.364282	1.051841	-0.000019
C24	C	-0.490280	1.054216	-0.000014
C25	C	-0.720965	1.058584	-0.000039
C26	C	-0.592595	1.056157	-0.000025
C27	C	0.050712	1.062888	-0.000035
C28	C	0.176710	1.060513	-0.000046
C29	C	-0.148725	1.220856	-0.000033
C30	C	-0.151101	1.320163	-0.000042
N31	N	-0.156768	1.057345	0.246632
N32	N	-0.156793	1.057391	-0.246684
C33	C	-0.079725	1.117798	0.296446
C34	C	-0.079724	1.117804	0.396104
C35	C	-0.156773	1.057361	0.445946
C36	C	-0.233821	0.996901	0.396125
C37	C	-0.233815	0.996891	0.296470
C38	C	-0.233829	0.996927	0.603840
C39	C	-0.233837	0.996937	0.703502
C40	C	-0.079738	1.117840	0.703474
C41	C	-0.079732	1.117830	0.603818
C42	C	-0.156781	1.057371	0.554004
H43	H	-0.155345	0.498090	0.156543
Cl44	Cl	-0.150786	0.308136	0.194764
Cl45	Cl	-0.330691	0.920917	0.541221
H46	H	-0.296577	0.947717	0.744079
H47	H	-0.151321	0.328859	-0.156621
H48	H	-0.296551	0.947663	0.255912
Cl49	Cl	-0.155854	0.518799	-0.194834
Cl50	Cl	0.017139	1.193794	0.233798
Cl51	Cl	-0.157685	0.595925	0.194778
Cl52	Cl	0.017120	1.193845	0.766100
H53	H	-0.158216	0.616644	-0.156611
H54	H	-0.296552	0.947682	0.436713
H55	H	-0.016988	1.167029	0.436661
Cl56	Cl	0.017123	1.193822	0.541157
H57	H	-0.162269	0.785924	-0.156604
Cl58	Cl	-0.162743	0.806535	0.194780
