data_functionalizedCrystal
_audit_creation_method	'MofGen! by Chris Wilmer'
_symmetry_space_group_name_H-M	'P1'
_symmetry_Int_Tables_number	1
_symmetry_cell_setting	triclinic
loop_
_symmetry_equiv_pos_as_xyz
  x,y,z
_cell_length_a	12.594517
_cell_length_b	12.594516
_cell_length_c	12.594510
_cell_angle_alpha	89.968094
_cell_angle_beta	89.976326
_cell_angle_gamma	90.015485
loop_
_atom_site_label
_atom_site_type_symbol
_atom_site_fract_x
_atom_site_fract_y
_atom_site_fract_z
Zn1	Zn	1.627282	-0.423666	-0.601900
Zn2	Zn	1.627169	-0.601694	-0.423928
Zn3	Zn	1.449282	-0.423728	-0.423926
Zn4	Zn	1.449268	-0.601601	-0.601855
O5	O	1.538250	-0.512672	-0.512902
O6	O	1.776213	-0.447295	-0.578311
O7	O	1.603530	-0.578151	-0.274982
O8	O	1.472947	-0.274774	-0.447553
O9	O	1.776129	-0.578091	-0.447556
O10	O	1.603723	-0.274729	-0.578310
O11	O	1.472837	-0.447401	-0.274981
O12	O	1.300334	-0.447311	-0.447509
O13	O	1.472924	-0.577933	-0.750807
O14	O	1.300324	-0.577993	-0.578233
O15	O	1.603710	-0.447205	-0.750840
O16	O	1.603517	-0.750628	-0.447512
O17	O	1.472814	-0.750559	-0.578235
C18	C	1.261709	-0.512649	-0.512867
C19	C	1.143404	-0.512665	-0.512877
C20	C	1.003362	-0.441509	-0.441939
C21	C	1.074223	-0.415566	-0.539064
C22	C	1.074114	-0.538560	-0.415762
C23	C	1.003479	-0.486714	-0.610131
C24	C	1.003365	-0.609753	-0.486764
C25	C	1.074194	-0.583847	-0.583956
C26	C	1.538181	-0.789213	-0.512892
C27	C	1.538248	-0.907519	-0.512923
C28	C	1.467152	-0.976774	-0.583973
C29	C	1.441216	-1.047648	-0.486850
C30	C	1.564281	-1.047443	-0.610063
C31	C	1.512261	-0.976835	-0.415748
C32	C	1.635371	-0.976624	-0.539028
C33	C	1.609472	-1.047467	-0.441837
C34	C	1.815871	-0.512696	-0.512939
C35	C	1.934177	-0.512707	-0.512954
C36	C	1.538329	-0.512552	-0.790524
C37	C	1.538362	-0.512500	-0.908829
C38	C	1.538349	-0.235052	-0.512936
C39	C	1.538391	-0.116746	-0.512951
C40	C	1.609522	-0.441376	-1.048864
C41	C	1.635509	-0.538497	-0.978047
C42	C	1.512422	-0.415390	-0.978074
C43	C	1.564444	-0.609640	-1.048798
C44	C	1.441312	-0.486468	-1.048832
C45	C	1.467262	-0.583656	-0.978047
C46	C	1.538233	-0.512716	-0.236362
C47	C	1.538406	-0.512468	-0.118057
H48	H	1.105097	-0.644040	-0.644048
O49	O	1.486120	-0.940048	-0.317662
C50	C	1.560766	-0.976930	-0.242848
H51	H	1.638274	-0.997118	-0.285023
H52	H	1.528462	-1.050961	-0.201916
C53	C	1.486045	-0.865152	-0.107644
C54	C	1.581245	-0.889938	-0.159444
H55	H	1.498674	-0.811494	-0.056194
H56	H	1.435752	-0.840306	-0.158046
H57	H	1.459135	-0.926851	-0.073544
H58	H	1.608146	-0.828242	-0.193555
H59	H	1.631543	-0.914771	-0.109045
O60	O	1.681138	-1.084403	-0.370027
C61	C	1.628575	-1.147488	-0.293867
H62	H	1.551167	-1.178760	-0.328807
H63	H	1.610557	-1.097571	-0.220560
C64	C	1.795134	-1.203174	-0.219590
C65	C	1.700064	-1.241591	-0.262507
H66	H	1.839232	-1.261218	-0.200240
H67	H	1.830548	-1.160669	-0.270897
H68	H	1.780105	-1.161577	-0.158506
H69	H	1.715093	-1.283176	-0.323596
H70	H	1.664654	-1.284105	-0.211209
H71	H	1.406921	-0.945732	-0.643970
O72	O	1.343242	-1.084821	-0.460687
C73	C	1.268444	-1.048788	-0.535762
H74	H	1.310716	-1.028831	-0.613302
H75	H	1.227094	-0.974791	-0.504059
C76	C	1.133572	-1.160855	-0.460615
C77	C	1.185491	-1.136353	-0.555854
H78	H	1.082399	-1.214866	-0.473006
H79	H	1.183963	-1.185129	-0.410033
H80	H	1.099122	-1.099184	-0.434205
H81	H	1.219950	-1.198020	-0.582255
H82	H	1.135103	-1.112091	-0.606442
H83	H	1.717420	-0.945406	-0.561131
O84	O	1.486088	-0.317517	-0.940887
C85	C	1.392838	-0.324841	-0.879334
H86	H	1.383372	-0.409535	-0.848777
H87	H	1.321288	-0.302963	-0.930256
C88	C	1.412041	-0.143962	-0.822114
C89	C	1.400420	-0.247983	-0.784577
H90	H	1.416714	-0.096549	-0.763666
H91	H	1.474863	-0.139026	-0.863587
H92	H	1.352413	-0.125746	-0.864549
H93	H	1.460053	-0.266202	-0.742154
H94	H	1.337608	-0.252920	-0.743094
H95	H	0.972218	-0.691818	-0.464610
O96	O	1.395482	-0.655551	-0.941354
C97	C	1.345948	-0.706311	-1.027929
H98	H	1.399415	-0.700728	-1.100777
H99	H	1.266865	-0.665906	-1.045386
C100	C	1.260776	-0.830741	-0.911037
C101	C	1.326449	-0.823891	-1.000508
H102	H	1.248743	-0.903269	-0.894123
H103	H	1.294144	-0.796542	-0.852709
H104	H	1.194881	-0.797064	-0.925597
H105	H	1.392347	-0.857557	-0.985943
H106	H	1.293091	-0.858100	-1.058834
O107	O	0.966500	-0.460635	-0.708171
C108	C	0.904190	-0.544636	-0.748055
H109	H	0.873210	-0.594614	-0.679194
H110	H	0.954641	-0.596344	-0.802575
C111	C	0.847873	-0.437651	-0.895570
C112	C	0.809815	-0.499029	-0.810993
H113	H	0.789660	-0.409521	-0.934398
H114	H	0.889855	-0.381059	-0.868702
H115	H	0.889916	-0.480751	-0.940992
H116	H	0.767785	-0.455927	-0.765567
H117	H	0.767823	-0.555614	-0.837855
O118	O	1.111005	-0.564553	-0.317666
C119	C	1.074934	-0.489282	-0.243100
H120	H	1.000434	-0.448787	-0.274732
H121	H	1.139405	-0.427266	-0.229257
C122	C	1.140581	-0.595273	-0.098765
C123	C	1.049073	-0.545543	-0.137613
H124	H	1.124634	-0.629975	-0.033694
H125	H	1.164887	-0.645983	-0.149002
H126	H	1.194298	-0.543584	-0.087239
H127	H	0.995363	-0.597233	-0.149151
H128	H	1.024758	-0.494843	-0.087376
H129	H	1.586242	-1.078459	-0.692203
H130	H	0.972264	-0.381271	-0.381990
O131	O	1.733451	-0.564908	-0.941080
C132	C	1.761363	-0.666580	-0.978648
H133	H	1.714251	-0.684970	-1.053689
H134	H	1.742506	-0.728427	-0.915252
C135	C	1.938829	-0.646668	-0.911787
C136	C	1.880972	-0.669250	-1.003959
H137	H	2.012610	-0.648318	-0.927395
H138	H	1.920024	-0.578171	-0.886473
H139	H	1.923103	-0.698211	-0.858966
H140	H	1.896688	-0.617701	-1.056772
H141	H	1.899782	-0.737739	-1.029282
H142	H	1.669727	-0.381317	-1.079957
H143	H	1.105328	-0.333474	-0.561202
H144	H	1.586522	-0.691768	-1.079734
H145	H	1.359244	-0.464426	-1.079949
