data_functionalizedCrystal
_audit_creation_method	'MofGen! by Chris Wilmer'
_symmetry_space_group_name_H-M	'P1'
_symmetry_Int_Tables_number	1
_symmetry_cell_setting	triclinic
loop_
_symmetry_equiv_pos_as_xyz
  x,y,z
_cell_length_a	10.654550
_cell_length_b	14.044220
_cell_length_c	9.130313
_cell_angle_alpha	89.997493
_cell_angle_beta	89.996220
_cell_angle_gamma	88.836890
loop_
_atom_site_label
_atom_site_type_symbol
_atom_site_fract_x
_atom_site_fract_y
_atom_site_fract_z
O1	O	1.681222	0.133227	-0.121925
O2	O	1.317019	0.145921	-0.121902
O3	O	1.493654	0.001554	-0.121899
O4	O	1.504587	0.277595	-0.121929
O5	O	1.493652	0.001557	0.121700
O6	O	1.317017	0.145925	0.121696
O7	O	1.681220	0.133231	0.121673
Cu8	Cu	1.499119	0.139578	0.143927
Cu9	Cu	1.499121	0.139574	-0.144156
O10	O	1.504585	0.277598	0.121670
C11	C	1.270127	0.144991	-0.000100
C12	C	1.130403	0.142202	-0.000091
C13	C	1.059459	0.227203	-0.000121
C14	C	0.928175	0.224578	-0.000146
C15	C	0.938790	0.051942	-0.000116
C16	C	1.070072	0.054569	-0.000081
C17	C	1.053329	0.326873	-0.000145
C18	C	0.922045	0.324247	-0.000170
C19	C	1.488867	-0.033790	-0.000099
C20	C	1.474592	-0.139110	-0.000096
C21	C	1.448493	-0.331943	-0.000116
C22	C	1.549741	-0.388911	-0.000126
C23	C	1.535219	-0.496210	-0.000137
C24	C	1.463013	-0.224634	-0.000105
C25	C	1.728113	0.134161	-0.000132
C26	C	1.867836	0.136950	-0.000151
C27	C	1.509372	0.312942	-0.000133
C28	C	1.523648	0.418262	-0.000146
N29	N	1.499126	0.139581	0.346550
N30	N	1.499122	0.139564	-0.346779
C31	C	1.577364	0.075677	0.423203
C32	C	1.577359	0.075666	0.576540
C33	C	1.420876	0.203470	0.576557
C34	C	1.420875	0.203477	0.423223
C35	C	1.667713	0.001893	0.423195
C36	C	1.667708	0.001881	0.576532
H37	H	1.127830	-0.014647	-0.000035
O38	O	1.332143	-0.369999	-0.000298
C39	C	1.185766	-0.469610	-0.126521
C40	C	1.317574	-0.426577	-0.126488
H41	H	1.173934	-0.515347	-0.228551
H42	H	1.173908	-0.515497	-0.024645
H43	H	1.111834	-0.409781	-0.126433
H44	H	1.391586	-0.486345	-0.126628
H45	H	1.329324	-0.380667	-0.228355
H46	H	1.765853	0.018134	0.618140
H47	H	1.647328	-0.357098	-0.000231
H48	H	1.086577	0.365856	0.101803
O49	O	1.344828	0.265637	0.348988
C50	C	1.189544	0.392349	0.365192
C51	C	1.275631	0.322017	0.449444
H52	H	1.133557	0.437937	0.446374
H53	H	1.249038	0.440194	0.293439
H54	H	1.122239	0.350930	0.293371
H55	H	1.342951	0.363359	0.521344
H56	H	1.216059	0.274173	0.521104
H57	H	1.357165	0.255492	0.639000
O58	O	0.871361	0.360252	0.125348
C59	C	0.910611	0.430468	0.361327
C60	C	0.968177	0.389744	0.219243
H61	H	0.988861	0.454305	0.437293
H62	H	0.846512	0.493986	0.334005
H63	H	0.853832	0.373192	0.417914
H64	H	1.025017	0.446952	0.162586
H65	H	1.032206	0.326204	0.246660
H66	H	1.761218	0.024996	0.375628
H67	H	1.638943	-0.071017	0.381585
H68	H	1.092175	0.358608	-0.105320
O69	O	1.623109	-0.080400	0.633039
C70	C	1.539149	-0.234953	0.582147
C71	C	1.589636	-0.141825	0.517956
H72	H	1.512047	-0.284633	0.489135
H73	H	1.614838	-0.270912	0.652347
H74	H	1.453094	-0.218226	0.652501
H75	H	1.675671	-0.158470	0.447537
H76	H	1.513869	-0.105893	0.447840
H77	H	0.889652	-0.019406	-0.000131
H78	H	0.884087	0.361800	-0.102127
