data_functionalizedCrystal
_audit_creation_method	'MofGen! by Chris Wilmer'
_symmetry_space_group_name_H-M	'P1'
_symmetry_Int_Tables_number	1
_symmetry_cell_setting	triclinic
loop_
_symmetry_equiv_pos_as_xyz
  x,y,z
_cell_length_a	19.288864
_cell_length_b	14.044220
_cell_length_c	18.366186
_cell_angle_alpha	89.993222
_cell_angle_beta	89.977106
_cell_angle_gamma	88.162561
loop_
_atom_site_label
_atom_site_type_symbol
_atom_site_fract_x
_atom_site_fract_y
_atom_site_fract_z
O1	O	0.928948	0.118214	-0.060787
O2	O	0.727712	0.134161	-0.060738
O3	O	0.825310	-0.011784	-0.060755
O4	O	0.831351	0.264160	-0.060770
O5	O	0.825291	-0.011791	0.060345
O6	O	0.727694	0.134154	0.060362
O7	O	0.928930	0.118207	0.060312
Zn8	Zn	0.828309	0.126180	0.079564
Zn9	Zn	0.828333	0.126189	-0.079990
O10	O	0.831332	0.264152	0.060329
C11	C	0.701794	0.133645	-0.000182
C12	C	0.624591	0.132104	-0.000163
C13	C	0.585397	0.217738	-0.000179
C14	C	0.512857	0.216291	-0.000187
C15	C	0.479514	0.129205	-0.000193
C16	C	0.518717	0.043560	-0.000173
C17	C	0.591256	0.045010	-0.000157
C18	C	0.366860	0.060749	-0.042640
C19	C	0.294322	0.059303	-0.042660
C20	C	0.255781	0.124731	-0.000237
C21	C	0.289785	0.191621	0.042196
C22	C	0.362323	0.193071	0.042212
C23	C	0.400858	0.127624	-0.000209
C24	C	0.137930	0.208802	-0.000261
C25	C	0.065389	0.207351	-0.000264
C26	C	0.071251	0.034617	-0.000257
C27	C	0.143790	0.036071	-0.000247
C28	C	0.177126	0.123165	-0.000252
C29	C	0.822656	-0.047091	-0.000204
C30	C	0.814768	-0.152283	-0.000201
C31	C	0.800348	-0.344882	-0.000208
C32	C	0.856291	-0.402755	-0.000224
C33	C	0.848267	-0.509924	-0.000228
C34	C	0.808370	-0.237703	-0.000204
C35	C	0.954848	0.118724	-0.000245
C36	C	1.032051	0.120264	-0.000269
C37	C	0.833986	0.299459	-0.000223
C38	C	0.841874	0.404651	-0.000231
N39	N	0.828297	0.126173	0.188455
N40	N	0.828350	0.126188	-0.188881
C41	C	0.871531	0.061580	0.226548
C42	C	0.871535	0.061575	0.302776
C43	C	0.828313	0.126180	0.340908
C44	C	0.785071	0.190778	0.302806
C45	C	0.785063	0.190774	0.226579
C46	C	0.824562	0.212524	0.461665
C47	C	0.824575	0.212529	0.537890
C48	C	0.828333	0.126192	0.576015
C49	C	0.832093	0.039847	0.537907
C50	C	0.832085	0.039843	0.461681
C51	C	0.828316	0.126191	0.423563
C52	C	0.871574	0.061589	0.696763
C53	C	0.871573	0.061584	0.772993
C54	C	0.785113	0.190795	0.773021
C55	C	0.785110	0.190792	0.696793
C56	C	0.828344	0.126190	0.658669
H57	H	0.266642	0.004840	-0.077215
O58	O	0.920584	-0.365740	-0.000328
C59	C	0.928575	-0.309243	-0.063052
H60	H	0.875349	-0.284500	-0.083955
H61	H	0.956651	-0.352973	-0.106976
C62	C	1.036649	-0.252269	-0.018326
C63	C	0.971276	-0.221873	-0.043995
H64	H	1.062991	-0.198377	-0.006572
H65	H	1.031267	-0.290334	0.023932
H66	H	1.060037	-0.288711	-0.054933
H67	H	0.947886	-0.185442	-0.007384
H68	H	0.976655	-0.183799	-0.086246
O69	O	0.820891	0.296484	0.574792
C70	C	0.817579	0.372687	0.524798
H71	H	0.796872	0.346538	0.470477
H72	H	0.871669	0.401347	0.516656
C73	C	0.794300	0.484649	0.621284
C74	C	0.768861	0.452535	0.554568
H75	H	0.764251	0.533905	0.639648
H76	H	0.796533	0.433311	0.654967
H77	H	0.839374	0.508526	0.614490
H78	H	0.723792	0.428648	0.561364
H79	H	0.766619	0.503871	0.520887
O80	O	0.736074	-0.381943	-0.000157
C81	C	0.742272	-0.482248	-0.000180
H82	H	0.795049	-0.505573	0.022726
H83	H	0.737240	-0.509749	-0.058277
C84	C	0.619726	-0.494510	0.019196
C85	C	0.684545	-0.523158	0.047336
H86	H	0.584116	-0.519747	0.048503
H87	H	0.615549	-0.426933	0.019209
H88	H	0.615542	-0.517430	-0.029217
H89	H	0.688732	-0.500228	0.095745
H90	H	0.688721	-0.590732	0.047332
O91	O	0.395435	0.257908	0.083480
C92	C	0.439005	0.209950	0.134085
H93	H	0.452424	0.135144	0.113263
H94	H	0.411162	0.205102	0.188662
C95	C	0.489598	0.357041	0.169340
C96	C	0.506085	0.265166	0.143763
H97	H	0.530975	0.391102	0.175313
H98	H	0.460243	0.389353	0.135249
H99	H	0.466395	0.352988	0.214818
H100	H	0.529280	0.269220	0.098282
H101	H	0.535446	0.232856	0.177847
O102	O	0.742984	0.253441	0.339812
C103	C	0.673290	0.238284	0.321213
H104	H	0.668253	0.162412	0.300270
H105	H	0.656138	0.290877	0.276971
C106	C	0.633319	0.346359	0.414674
C107	C	0.627132	0.253169	0.388958
H108	H	0.604846	0.355544	0.456461
H109	H	0.680273	0.356574	0.427203
H110	H	0.619027	0.390176	0.377799
H111	H	0.641432	0.209354	0.425829
H112	H	0.580179	0.242947	0.376436
H113	H	0.749856	0.243374	0.195563
O114	O	0.170241	0.293459	-0.000354
C115	C	0.150781	0.345644	-0.063084
H116	H	0.098956	0.320041	-0.084002
H117	H	0.192036	0.334491	-0.106995
C118	C	0.207455	0.483746	-0.018340
C119	C	0.143800	0.452306	-0.044029
H120	H	0.203151	0.549540	-0.006588
H121	H	0.220567	0.448587	0.023921
H122	H	0.241827	0.474444	-0.054937
H123	H	0.109431	0.461597	-0.007429
H124	H	0.130681	0.487469	-0.086284
H125	H	0.491565	-0.027346	-0.000188
H126	H	0.612534	0.288658	-0.000185
O127	O	0.629228	-0.038267	-0.000179
C128	C	0.584248	-0.115445	-0.000164
H129	H	0.531692	-0.091161	-0.023099
H130	H	0.577406	-0.142158	0.057934
C131	C	0.679902	-0.226297	-0.019478
C132	C	0.615354	-0.196472	-0.047653
H133	H	0.699090	-0.276280	-0.048768
H134	H	0.710207	-0.174301	-0.019485
H135	H	0.674191	-0.248551	0.028936
H136	H	0.621066	-0.174207	-0.096062
H137	H	0.585050	-0.248466	-0.047655
O138	O	0.913542	-0.001271	0.189629
C139	C	0.951715	-0.058268	0.239603
H140	H	0.923185	-0.059234	0.293956
H141	H	1.005205	-0.027675	0.247676
C142	C	0.994736	-0.159365	0.143109
C143	C	0.959692	-0.160558	0.209864
H144	H	0.999660	-0.222461	0.124764
H145	H	0.969020	-0.120963	0.109440
H146	H	1.039307	-0.133866	0.149845
H147	H	0.915118	-0.186045	0.203125
H148	H	0.985400	-0.198966	0.243532
H149	H	0.906742	0.008974	0.333797
H150	H	0.480939	0.286027	-0.000198
O151	O	0.835703	-0.044112	0.424775
C152	C	0.839041	-0.120320	0.474763
H153	H	0.816146	-0.095841	0.529112
H154	H	0.895445	-0.144765	0.482839
C155	C	0.825542	-0.233673	0.378290
C156	C	0.797416	-0.203611	0.445041
H157	H	0.799869	-0.285054	0.359956
H158	H	0.823296	-0.182332	0.344612
H159	H	0.872544	-0.254038	0.385029
H160	H	0.750418	-0.183235	0.438299
H161	H	0.799653	-0.254951	0.478718
O162	O	0.913584	-0.001260	0.659837
C163	C	0.951753	-0.058266	0.709809
H164	H	0.923220	-0.059236	0.764160
H165	H	1.005243	-0.027677	0.717887
C166	C	0.994775	-0.159353	0.613310
C167	C	0.959728	-0.160552	0.680064
H168	H	0.999698	-0.222447	0.594961
H169	H	0.969062	-0.120946	0.579642
H170	H	1.039347	-0.133858	0.620051
H171	H	0.915154	-0.186035	0.673321
H172	H	0.985433	-0.198966	0.713730
H173	H	0.835153	-0.030457	0.568947
O174	O	0.252460	0.255276	0.083430
C175	C	0.298027	0.314604	0.120898
H176	H	0.349754	0.315527	0.090902
H177	H	0.306681	0.286241	0.178453
C178	C	0.202706	0.415347	0.161440
C179	C	0.266236	0.416486	0.124595
H180	H	0.183095	0.478191	0.163725
H181	H	0.172006	0.375375	0.136200
H182	H	0.209926	0.391707	0.209399
H183	H	0.259013	0.440114	0.076635
H184	H	0.296934	0.456464	0.149828
H185	H	0.749918	0.243394	0.804067
H186	H	0.906777	0.008980	0.804009
O187	O	0.743098	0.253638	0.659898
C188	C	0.704936	0.310645	0.709897
H189	H	0.733476	0.311619	0.764219
H190	H	0.651447	0.280054	0.718035
C191	C	0.661897	0.411726	0.613420
C192	C	0.696954	0.412929	0.680137
H193	H	0.656970	0.474819	0.595062
H194	H	0.687605	0.373318	0.579734
H195	H	0.617326	0.386230	0.620211
H196	H	0.741526	0.438414	0.673344
H197	H	0.671253	0.451344	0.713822
H198	H	0.033478	0.277088	-0.000273
O199	O	0.181763	-0.047203	-0.000271
C200	C	0.136782	-0.124380	-0.000259
H201	H	0.084228	-0.100094	-0.023198
H202	H	0.129936	-0.151093	0.057838
C203	C	0.232436	-0.235234	-0.019568
C204	C	0.167889	-0.205407	-0.047747
H205	H	0.251624	-0.285218	-0.048857
H206	H	0.262741	-0.183239	-0.019573
H207	H	0.226722	-0.257489	0.028846
H208	H	0.173605	-0.183143	-0.096156
H209	H	0.137585	-0.257401	-0.047751
O210	O	0.821009	0.296338	0.424549
C211	C	0.880432	0.303777	0.380439
H212	H	0.903574	0.229568	0.369022
H213	H	0.920346	0.347977	0.409788
C214	C	0.831740	0.443583	0.322056
C215	C	0.860160	0.352437	0.308028
H216	H	0.819237	0.473603	0.277390
H217	H	0.791707	0.438574	0.351775
H218	H	0.865007	0.480405	0.346515
H219	H	0.826891	0.315614	0.283578
H220	H	0.900188	0.357441	0.278302
H221	H	0.398235	0.007467	-0.077190
H222	H	0.044104	-0.036290	-0.000308
