data_functionalizedCrystal
_audit_creation_method	'MofGen! by Chris Wilmer'
_symmetry_space_group_name_H-M	'P1'
_symmetry_Int_Tables_number	1
_symmetry_cell_setting	triclinic
loop_
_symmetry_equiv_pos_as_xyz
  x,y,z
_cell_length_a	14.519709
_cell_length_b	15.711784
_cell_length_c	14.185197
_cell_angle_alpha	99.897449
_cell_angle_beta	104.754698
_cell_angle_gamma	101.634473
loop_
_atom_site_label
_atom_site_type_symbol
_atom_site_fract_x
_atom_site_fract_y
_atom_site_fract_z
O1	O	0.481467	1.130173	-0.083475
O2	O	0.411210	0.878402	-0.083466
O3	O	0.314342	1.010965	-0.083462
O4	O	0.578334	0.997610	-0.083480
O5	O	0.363514	1.046022	0.083378
O6	O	0.460381	0.913459	0.083374
O7	O	0.530638	1.165230	0.083364
Cu8	Cu	0.500000	1.042546	0.098603
Cu9	Cu	0.441848	1.001086	-0.098705
O10	O	0.627505	1.032667	0.083360
C11	C	0.424318	0.863709	-0.000045
C12	C	0.390109	0.767699	-0.000041
C13	C	0.304360	1.027871	-0.000042
C14	C	0.201353	1.026007	-0.000041
C15	C	0.261323	0.642554	-0.000031
C16	C	0.293477	0.732769	-0.000035
C17	C	0.454625	0.712418	-0.000049
C18	C	0.422483	0.622199	-0.000051
C19	C	0.325831	0.587274	-0.000041
C20	C	0.486991	0.566919	-0.000061
C21	C	0.454853	0.476708	-0.000057
C22	C	0.358206	0.441777	-0.000044
C23	C	0.293693	0.497063	-0.000037
C24	C	0.583644	0.601847	-0.000064
C25	C	0.648153	0.546567	-0.000073
C26	C	0.616013	0.456353	-0.000077
C27	C	0.519366	0.421422	-0.000064
C28	C	0.680526	0.401066	-0.000083
C29	C	0.648387	0.310856	-0.000080
C30	C	0.487228	0.331211	-0.000060
C31	C	-0.175854	1.019137	-0.000067
C32	C	-0.070904	1.021045	-0.000060
C33	C	0.012746	1.022572	-0.000053
C34	C	0.117703	1.024480	-0.000048
C35	C	0.637487	1.015761	-0.000062
C36	C	0.740492	1.017623	-0.000069
C37	C	0.517529	1.179922	-0.000059
C38	C	0.551736	1.275931	-0.000070
N39	N	0.540902	1.071712	0.237378
N40	N	0.400941	0.971927	-0.237480
C41	C	0.280816	0.886290	0.605001
C42	C	0.311788	0.908372	0.710026
C43	C	0.459154	1.013429	0.710002
C44	C	0.428192	0.991359	0.604975
C45	C	0.339023	0.927789	0.552483
C46	C	0.486399	1.032858	0.552457
C47	C	0.455441	1.010786	0.447439
C48	C	0.366277	0.947216	0.394940
C49	C	0.308065	0.905717	0.447465
C50	C	0.575571	1.096423	0.604951
C51	C	0.633778	1.137922	0.552433
C52	C	0.602817	1.115855	0.447414
C53	C	0.513653	1.052285	0.394914
C54	C	0.661029	1.157354	0.394888
C55	C	0.630071	1.135283	0.289871
C56	C	0.482695	1.030214	0.289896
H57	H	0.408521	0.302772	-0.000062
C58	C	0.731860	1.207850	0.610187
N59	N	0.805736	1.260524	0.653686
C60	C	0.557237	1.083357	0.767756
N61	N	0.631112	1.136031	0.811255
C62	C	0.759116	1.227276	0.452644
N63	N	0.832996	1.279943	0.496146
H64	H	0.533320	0.740868	-0.000054
H65	H	0.609809	0.675303	-0.000063
C66	C	0.187367	0.458640	-0.000037
N67	N	0.107287	0.429699	-0.000035
H68	H	0.677471	1.169072	0.247109
H69	H	0.332043	0.368323	-0.000032
H70	H	0.182616	0.614115	-0.000034
C71	C	0.209971	0.835790	0.389717
N72	N	0.136091	0.783121	0.346222
H73	H	0.240938	0.777776	-0.000030
H74	H	0.726848	0.575016	-0.000078
H75	H	0.208203	0.834529	0.562258
H76	H	0.759223	0.429518	-0.000082
C77	C	0.719347	0.250043	-0.000099
N78	N	0.772796	0.204238	-0.000114
C79	C	0.384601	0.960286	0.232149
N80	N	0.310720	0.907618	0.188653
C81	C	0.247744	0.862720	0.767792
N82	N	0.199507	0.828337	0.811301
H83	H	0.341076	0.929242	0.309427
H84	H	0.600775	1.114391	0.690464
