data_functionalizedCrystal
_audit_creation_method	'MofGen! by Chris Wilmer'
_symmetry_space_group_name_H-M	'P1'
_symmetry_Int_Tables_number	1
_symmetry_cell_setting	triclinic
loop_
_symmetry_equiv_pos_as_xyz
  x,y,z
_cell_length_a	18.215407
_cell_length_b	12.759394
_cell_length_c	18.215399
_cell_angle_alpha	90.023582
_cell_angle_beta	90.016899
_cell_angle_gamma	90.011315
loop_
_atom_site_label
_atom_site_type_symbol
_atom_site_fract_x
_atom_site_fract_y
_atom_site_fract_z
Zn1	Zn	1.125128	-0.418349	0.416081
Zn2	Zn	1.125060	-0.594046	0.293024
Zn3	Zn	1.002061	-0.418374	0.293034
Zn4	Zn	1.002050	-0.593978	0.416055
O5	O	1.063575	-0.506187	0.354548
O6	O	1.228104	-0.441673	0.399763
O7	O	1.108720	-0.570781	0.190041
O8	O	1.018419	-0.271349	0.309372
O9	O	1.228054	-0.570757	0.309354
O10	O	1.108836	-0.271331	0.399773
O11	O	1.018353	-0.441716	0.190049
O12	O	0.899075	-0.441650	0.309347
O13	O	1.018401	-0.570642	0.519043
O14	O	0.899068	-0.570666	0.399730
O15	O	1.108826	-0.441607	0.519061
O16	O	1.108710	-0.741058	0.309329
O17	O	1.018335	-0.741008	0.399719
C18	C	0.872369	-0.506154	0.354537
C19	C	0.790570	-0.506166	0.354550
C20	C	1.063534	-0.779154	0.354536
C21	C	1.063584	-0.895931	0.354556
C22	C	0.525528	-0.573475	0.401546
C23	C	0.602386	-0.573467	0.401542
C24	C	0.602364	-0.438921	0.307564
C25	C	0.525506	-0.438936	0.307564
C26	C	0.487090	-0.506212	0.354559
C27	C	0.640806	-0.506188	0.354555
C28	C	0.724140	-0.506178	0.354551
C29	C	0.403751	-0.506224	0.354563
C30	C	1.157665	-0.895753	0.448761
C31	C	1.204728	-0.950525	0.495870
C32	C	1.204772	-1.060247	0.495886
C33	C	1.157746	-1.115199	0.448790
C34	C	1.110682	-1.060427	0.401681
C35	C	1.110645	-0.950703	0.401669
C36	C	1.016599	-1.060604	0.307480
C37	C	1.016557	-0.950883	0.307460
C38	C	0.969572	-1.115556	0.260384
C39	C	0.922511	-1.060784	0.213271
C40	C	0.922470	-0.951056	0.213256
C41	C	0.969494	-0.896111	0.260351
C42	C	1.255528	-0.506220	0.354560
C43	C	1.337327	-0.506234	0.354565
C44	C	1.063620	-0.506114	0.546501
C45	C	1.063639	-0.506083	0.628300
C46	C	1.063636	-0.232153	0.354577
C47	C	1.063662	-0.115376	0.354589
C48	C	1.063573	-0.506183	0.163342
C49	C	1.063696	-0.505918	0.081544
C50	C	1.110740	-0.438832	0.816505
C51	C	1.110749	-0.438802	0.893364
C52	C	1.016590	-0.573172	0.893333
C53	C	1.016578	-0.573196	0.816476
C54	C	1.063657	-0.506028	0.778064
C55	C	1.063678	-0.505973	0.931780
C56	C	1.063687	-0.505940	1.015114
C57	C	1.063647	-0.506059	0.694725
H58	H	0.494251	-0.628256	0.439812
H59	H	0.494210	-0.384161	0.269298
H60	H	0.969468	-0.806770	0.260341
H61	H	1.149073	-0.384137	0.785233
O62	O	0.639610	-0.638838	0.447257
C63	C	0.589219	-0.698235	0.488719
H64	H	0.534436	-0.655213	0.491316
H65	H	0.581030	-0.777984	0.461680
C66	C	0.686523	-0.766346	0.563837
C67	C	0.619240	-0.713502	0.567032
H68	H	0.705041	-0.775769	0.612143
H69	H	0.720473	-0.726333	0.535901
H70	H	0.679690	-0.832798	0.541301
H71	H	0.626075	-0.647047	0.589558
H72	H	0.585291	-0.753505	0.594973
O73	O	0.970864	-0.638378	0.779015
C74	C	0.980961	-0.624010	0.702943
H75	H	1.005079	-0.542936	0.692463
H76	H	1.020136	-0.686338	0.681128
C77	C	0.876871	-0.733214	0.676339
C78	C	0.906487	-0.633634	0.663468
H79	H	0.830933	-0.739155	0.651988
H80	H	0.870069	-0.742898	0.727591
H81	H	0.909524	-0.785143	0.658161
H82	H	0.873838	-0.581707	0.681655
H83	H	0.913281	-0.623941	0.612219
H84	H	0.633651	-0.384147	0.269303
O85	O	0.970796	-0.638457	0.930534
C86	C	0.929249	-0.697790	0.880121
H87	H	0.926698	-0.654772	0.825341
H88	H	0.956184	-0.777587	0.871937
C89	C	0.854061	-0.765756	0.977388
C90	C	0.850922	-0.712916	0.910107
H91	H	0.805746	-0.775092	0.995885
H92	H	0.882053	-0.725786	1.011353
H93	H	0.876510	-0.832248	0.970559
H94	H	0.828482	-0.646422	0.916938
H95	H	0.822924	-0.752876	0.876144
O96	O	1.250524	-1.113568	0.541547
C97	C	1.298115	-1.177002	0.499695
H98	H	1.272196	-1.193515	0.443904
H99	H	1.352641	-1.134666	0.491649
C100	C	1.343293	-1.260897	0.608734
C101	C	1.311455	-1.281186	0.540213
H102	H	1.351524	-1.325161	0.633728
H103	H	1.311232	-1.218158	0.636931
H104	H	1.388727	-1.225614	0.602019
H105	H	1.266017	-1.316456	0.546929
H106	H	1.343508	-1.323933	0.512018
O107	O	1.156451	-0.373382	0.930623
C108	C	1.140375	-0.268675	0.911861
H109	H	1.112075	-0.266518	0.856054
H110	H	1.102553	-0.233263	0.955115
C111	C	1.246890	-0.207696	0.976866
C112	C	1.212138	-0.205047	0.908320
H113	H	1.291155	-0.168445	0.974685
H114	H	1.257720	-0.278239	0.989509
H115	H	1.215365	-0.178188	1.012904
H116	H	1.243659	-0.234566	0.872286
H117	H	1.201315	-0.134507	0.895671
H118	H	0.884142	-0.906467	0.174898
H119	H	1.157641	-0.806412	0.448746
H120	H	1.243016	-0.905774	0.534217
O121	O	0.876798	-1.114278	0.167630
C122	C	0.829255	-1.177732	0.209505
H123	H	0.855188	-1.194086	0.265301
H124	H	0.774698	-1.135493	0.217538
C125	C	0.784136	-1.261925	0.100496
C126	C	0.815991	-1.282019	0.169023
H127	H	0.775951	-1.326253	0.075524
H128	H	0.816165	-1.219173	0.072283
H129	H	0.738676	-1.226723	0.107200
H130	H	0.861454	-1.317208	0.162318
H131	H	0.783970	-1.324780	0.197234
H132	H	1.157779	-1.204540	0.448813
H133	H	0.969608	-1.204898	0.260403
