data_functionalizedCrystal
_audit_creation_method	'MofGen! by Chris Wilmer'
_symmetry_space_group_name_H-M	'P1'
_symmetry_Int_Tables_number	1
_symmetry_cell_setting	triclinic
loop_
_symmetry_equiv_pos_as_xyz
  x,y,z
_cell_length_a	6.817900
_cell_length_b	16.305681
_cell_length_c	16.305550
_cell_angle_alpha	95.371254
_cell_angle_beta	103.455250
_cell_angle_gamma	103.457389
loop_
_atom_site_label
_atom_site_type_symbol
_atom_site_fract_x
_atom_site_fract_y
_atom_site_fract_z
V1	V	-4.026191	-0.117429	-0.263322
O2	O	-4.013843	0.004910	-0.258012
O3	O	-3.977589	-0.232137	-0.261807
O4	O	-3.977598	-0.115944	-0.378035
O5	O	-4.013834	-0.112087	-0.140979
V6	V	-4.509870	-0.102758	-0.248654
O7	O	-4.287107	-0.149611	-0.295497
O8	O	-4.699152	-0.070575	-0.216479
O9	O	-4.335266	0.011951	-0.250169
O10	O	-4.639615	-0.225097	-0.253964
O11	O	-4.639624	-0.108100	-0.370997
O12	O	-4.335257	-0.104243	-0.133941
C13	C	-3.822547	-0.260091	-0.257726
C14	C	-3.864094	-0.353868	-0.257252
C15	C	-3.940236	-0.525570	-0.256406
C16	C	-3.736017	-0.556086	-0.251127
C17	C	-3.779332	-0.653679	-0.250964
C18	C	-4.015199	-0.694622	-0.255573
C19	C	-4.151340	-0.674609	-0.339102
C20	C	-4.106672	-0.577011	-0.339618
C21	C	-4.026207	-0.551426	-0.178454
C22	C	-4.064811	-0.648742	-0.176814
C23	C	-4.057579	-0.790163	-0.255105
C24	C	-3.897866	-0.430030	-0.256880
C25	C	-3.822557	-0.111874	-0.405986
C26	C	-3.864109	-0.111419	-0.499767
C27	C	-4.015197	-0.109656	-0.840508
C28	C	-3.779151	-0.104421	-0.799567
C29	C	-3.735957	-0.105244	-0.702074
C30	C	-3.940239	-0.110530	-0.671462
C31	C	-4.107233	-0.193843	-0.722295
C32	C	-4.149097	-0.193372	-0.819843
C33	C	-4.069988	-0.032242	-0.794473
C34	C	-4.022059	-0.031583	-0.696629
C35	C	-3.897889	-0.111027	-0.575926
C36	C	-4.057556	-0.109164	-0.936046
C37	C	-4.153650	0.039900	-0.254247
C38	C	-4.091341	0.133676	-0.254727
C39	C	-4.153640	-0.108316	-0.105985
C40	C	-4.091326	-0.108767	-0.012203
H41	H	-4.118080	-0.706837	-0.397594
H42	H	-4.177665	-0.532034	-0.181547
N43	N	-3.568429	-0.025901	-0.655477
H44	H	-3.522038	0.009925	-0.698230
H45	H	-3.445182	-0.042761	-0.620558
N46	N	-3.719383	-0.178098	-0.841477
H47	H	-3.567532	-0.174256	-0.814804
H48	H	-3.741410	-0.175616	-0.904532
N49	N	-4.381321	-0.710975	-0.347613
H50	H	-4.465852	-0.697352	-0.401743
H51	H	-4.419683	-0.684989	-0.296839
H52	H	-4.051772	-0.252463	-0.705627
H53	H	-3.669505	-0.161503	-0.685919
N54	N	-3.875718	-0.503752	-0.095282
H55	H	-3.750275	-0.464905	-0.107294
H56	H	-3.828767	-0.545947	-0.058810
N57	N	-4.309055	-0.551488	-0.349313
H58	H	-4.281645	-0.487950	-0.349727
H59	H	-4.369405	-0.566536	-0.299998
N60	N	-4.310104	-0.202961	-0.697268
H61	H	-4.284776	-0.205905	-0.634201
H62	H	-4.415052	-0.256935	-0.730779
N63	N	-3.931183	-0.664356	-0.095012
H64	H	-3.963795	-0.634696	-0.044584
H65	H	-3.778734	-0.641135	-0.092571
H66	H	-4.112925	-0.251976	-0.850370
N67	N	-4.379347	-0.203044	-0.856953
H68	H	-4.453228	-0.207598	-0.809931
H69	H	-4.439961	-0.256337	-0.901024
H70	H	-3.978616	0.030884	-0.807685
H71	H	-3.901041	0.030041	-0.662098
N72	N	-4.217064	-0.030163	-0.668291
H73	H	-4.255320	-0.080909	-0.638614
H74	H	-4.335596	-0.032824	-0.719735
N75	N	-4.288316	-0.684949	-0.174800
H76	H	-4.360906	-0.731814	-0.225138
H77	H	-4.363154	-0.638206	-0.177831
H78	H	-4.242052	-0.035336	-0.821297
N79	N	-3.639423	-0.670552	-0.171450
H80	H	-3.548989	-0.614514	-0.136190
H81	H	-3.547653	-0.706108	-0.188126
N82	N	-3.567360	-0.510129	-0.171875
H83	H	-3.621686	-0.469079	-0.138622
H84	H	-3.441567	-0.477489	-0.188791
N85	N	-3.638573	-0.024704	-0.815747
H86	H	-3.726525	0.008792	-0.849776
H87	H	-3.541698	-0.041112	-0.848838
H88	H	-3.669674	-0.538725	-0.307126
N89	N	-3.719414	-0.694164	-0.325346
H90	H	-3.664741	-0.648610	-0.358372
H91	H	-3.846168	-0.737338	-0.364005
H92	H	-4.050850	-0.562046	-0.398575
