data_functionalizedCrystal
_audit_creation_method	'MofGen! by Chris Wilmer'
_symmetry_space_group_name_H-M	'P1'
_symmetry_Int_Tables_number	1
_symmetry_cell_setting	triclinic
loop_
_symmetry_equiv_pos_as_xyz
  x,y,z
_cell_length_a	10.268362
_cell_length_b	15.538191
_cell_length_c	11.792241
_cell_angle_alpha	114.267245
_cell_angle_beta	90.000297
_cell_angle_gamma	89.993725
loop_
_atom_site_label
_atom_site_type_symbol
_atom_site_fract_x
_atom_site_fract_y
_atom_site_fract_z
O1	O	0.108351	-1.248033	-0.367849
O2	O	0.108337	-0.974442	-0.237074
O3	O	0.108352	-1.117877	-0.470417
O4	O	0.108336	-1.104599	-0.134507
O5	O	-0.108249	-1.117865	-0.470419
O6	O	-0.108263	-0.974430	-0.237076
O7	O	-0.108250	-1.248021	-0.367851
Cu8	Cu	-0.128034	-1.111224	-0.302464
Cu9	Cu	0.128121	-1.111239	-0.302461
O10	O	-0.108265	-1.104586	-0.134509
C11	C	0.000035	-0.939410	-0.223392
C12	C	0.000031	-0.835045	-0.182637
N13	N	-0.308200	-1.111221	-0.302469
C14	C	0.000057	-1.117037	-0.512359
C15	C	0.000071	-1.114540	-0.637325
C16	C	-0.573870	-1.111234	-0.302462
C17	C	-0.426033	-1.111224	-0.302461
N18	N	0.308287	-1.111250	-0.302468
C19	C	0.000055	-1.283053	-0.381533
C20	C	0.000068	-1.387418	-0.422289
C21	C	0.000071	-0.545186	-0.587535
C22	C	0.000070	-0.447116	-0.549210
C23	C	0.000059	-0.425774	-0.333642
C24	C	0.000054	-0.523845	-0.371948
C25	C	0.000061	-0.583543	-0.498896
C26	C	0.000044	-0.562202	-0.283310
C27	C	0.000045	-0.660263	-0.321614
C28	C	0.000057	-0.719968	-0.448557
C29	C	0.000063	-0.681605	-0.537201
C30	C	0.000046	-0.502501	-0.156363
C31	C	0.000036	-0.540858	-0.067724
C32	C	0.000028	-0.638921	-0.106028
C33	C	0.000040	-0.698626	-0.232971
C34	C	0.000022	-0.677284	-0.017384
C35	C	0.000024	-0.775346	-0.055688
C36	C	0.000041	-0.796688	-0.271275
C37	C	0.000034	-1.105426	-0.092566
C38	C	0.000028	-1.107923	0.032400
C39	C	0.000061	-1.112514	0.261187
C40	C	0.000043	-1.109963	0.133872
H41	H	0.000039	-0.845299	-0.374648
Br42	Br	0.000039	-0.459831	0.104556
Br43	Br	0.000059	-0.626215	-0.759824
Br44	Br	0.000072	-0.853054	-0.500547
H45	H	0.000061	-0.730216	-0.640574
H46	H	0.000059	-0.377155	-0.230280
Br47	Br	0.000065	-0.395064	-0.669519
Br48	Br	0.000048	-0.369415	-0.104377
H49	H	0.000029	-0.628663	0.085977
H50	H	0.000004	-0.806576	0.016490
