data_functionalizedCrystal
_audit_creation_method	'MofGen! by Chris Wilmer'
_symmetry_space_group_name_H-M	'P1'
_symmetry_Int_Tables_number	1
_symmetry_cell_setting	triclinic
loop_
_symmetry_equiv_pos_as_xyz
  x,y,z
_cell_length_a	14.044191
_cell_length_b	16.109302
_cell_length_c	15.186229
_cell_angle_alpha	89.994701
_cell_angle_beta	90.000101
_cell_angle_gamma	91.673221
loop_
_atom_site_label
_atom_site_type_symbol
_atom_site_fract_x
_atom_site_fract_y
_atom_site_fract_z
O1	O	-0.121838	1.112198	-0.073262
O2	O	-0.136999	0.871264	-0.073254
O3	O	0.008565	0.988112	-0.073259
O4	O	-0.267402	0.995350	-0.073256
O5	O	0.008567	0.988103	0.073198
O6	O	-0.136997	0.871256	0.073203
O7	O	-0.121836	1.112189	0.073195
Zn8	Zn	-0.129416	0.991721	0.096453
Zn9	Zn	-0.129419	0.991732	-0.096511
O10	O	-0.267400	0.995342	0.073201
C11	C	-0.136384	0.840239	-0.000025
C12	C	-0.134543	0.747807	-0.000022
C13	C	-0.130283	0.535144	0.079803
C14	C	-0.128542	0.448295	0.079800
C15	C	-0.128550	0.448315	-0.079876
C16	C	-0.130283	0.535163	-0.079872
C17	C	-0.131155	0.578576	-0.000030
C18	C	-0.127681	0.404878	-0.000037
C19	C	-0.125793	0.310712	-0.000041
C20	C	-0.133040	0.672748	-0.000025
C21	C	-0.302715	0.998513	-0.000027
C22	C	-0.407938	1.007959	-0.000027
C23	C	-0.658240	0.958234	-0.000033
C24	C	-0.600590	1.025215	-0.000034
C25	C	-0.493389	1.015612	-0.000030
C26	C	-0.765451	0.967837	-0.000037
C27	C	0.043879	0.984940	-0.000033
C28	C	0.149103	0.975494	-0.000040
C29	C	-0.122451	1.143214	-0.000036
C30	C	-0.124293	1.235646	-0.000044
N31	N	-0.129414	0.991719	0.228145
N32	N	-0.129414	0.991740	-0.228204
C33	C	-0.064980	1.043480	0.453866
C34	C	-0.064977	1.043482	0.546055
C35	C	-0.193851	0.939974	0.546069
C36	C	-0.193848	0.939967	0.453881
C37	C	-0.129414	0.991725	0.407782
C38	C	-0.129414	0.991734	0.592160
C39	C	-0.129412	0.991736	0.692116
C40	C	-0.129414	0.991722	0.307819
H41	H	-0.127833	0.412937	0.144808
H42	H	-0.130991	0.570526	-0.144885
N43	N	-0.127611	0.401484	-0.165983
H44	H	-0.185616	0.363068	-0.169541
H45	H	-0.128388	0.442229	-0.216509
N46	N	-0.616981	0.872725	-0.000026
H47	H	-0.545137	0.877900	-0.000021
H48	H	-0.639150	0.841540	0.054272
H49	H	-0.246314	0.897835	0.583613
N50	N	-0.641849	1.110731	-0.000038
H51	H	-0.713693	1.105561	-0.000038
H52	H	-0.619681	1.141909	0.054258
H53	H	-0.012509	1.085625	0.583574
N54	N	-0.131223	0.581970	0.165914
H55	H	-0.130405	0.541274	0.216486
H56	H	-0.073218	0.620389	0.169391
N57	N	0.004515	1.099300	0.404142
H58	H	0.045335	1.132085	0.447329
H59	H	0.046430	1.064361	0.365899
N60	N	-0.263340	0.884136	0.404168
H61	H	-0.304163	0.851352	0.447359
H62	H	-0.305253	0.919067	0.365908
