data_functionalizedCrystal
_audit_creation_method	'MofGen! by Chris Wilmer'
_symmetry_space_group_name_H-M	'P1'
_symmetry_Int_Tables_number	1
_symmetry_cell_setting	triclinic
loop_
_symmetry_equiv_pos_as_xyz
  x,y,z
_cell_length_a	10.654544
_cell_length_b	16.109301
_cell_length_c	14.586319
_cell_angle_alpha	89.998390
_cell_angle_beta	90.006949
_cell_angle_gamma	96.026834
loop_
_atom_site_label
_atom_site_type_symbol
_atom_site_fract_x
_atom_site_fract_y
_atom_site_fract_z
O1	O	1.666262	-0.116768	0.076267
O2	O	1.300632	-0.127893	0.076264
O3	O	1.493491	-0.001359	0.076256
O4	O	1.473403	-0.243302	0.076274
O5	O	1.493467	-0.001367	-0.076225
O6	O	1.300608	-0.127901	-0.076217
O7	O	1.666238	-0.116775	-0.076214
Cu8	Cu	1.483421	-0.122339	-0.090138
Cu9	Cu	1.483449	-0.122330	0.090188
O10	O	1.473379	-0.243309	-0.076206
C11	C	1.253833	-0.127080	0.000023
C12	C	1.114423	-0.124636	0.000021
C13	C	1.114372	-0.124654	-0.166218
C14	C	1.048853	-0.123517	-0.249335
C15	C	0.917865	-0.121219	-0.249331
C16	C	0.852395	-0.120056	-0.166201
C17	C	0.917915	-0.121193	-0.083084
C18	C	1.048905	-0.123493	-0.083097
C19	C	0.917966	-0.121169	0.083153
C20	C	1.048953	-0.123473	0.083151
C21	C	0.852496	-0.120006	0.166282
C22	C	0.918015	-0.121149	0.249401
C23	C	1.049010	-0.123448	0.249394
C24	C	1.114472	-0.124610	0.166268
C25	C	1.492665	0.029617	0.000015
C26	C	1.490226	0.121927	0.000014
C27	C	1.713037	-0.117588	0.000029
C28	C	1.852447	-0.120032	0.000036
N29	N	1.483411	-0.122344	-0.216970
C30	C	1.474204	-0.274285	0.000036
C31	C	1.476644	-0.366595	0.000044
C32	C	1.598992	0.343552	0.000029
C33	C	1.596690	0.430287	0.000037
C34	C	1.367869	0.411773	0.000031
C35	C	1.370173	0.325040	0.000030
C36	C	1.485738	0.290933	0.000025
C37	C	1.481132	0.464399	0.000033
C38	C	1.478635	0.558440	0.000041
C39	C	1.488235	0.196886	0.000018
C40	C	1.559573	-0.173226	-0.451972
C41	C	1.559586	-0.173220	-0.547953
C42	C	1.407304	-0.071430	-0.547972
C43	C	1.407298	-0.071432	-0.451993
C44	C	1.483431	-0.122335	-0.403995
C45	C	1.483449	-0.122327	-0.595956
C46	C	1.483463	-0.122321	-0.700023
C47	C	1.483419	-0.122340	-0.299921
N48	N	1.483469	-0.122317	0.217020
H49	H	1.102349	-0.124371	0.317078
H50	H	1.221128	-0.126487	0.166254
H51	H	0.864518	-0.120300	-0.317012
H52	H	1.345292	-0.029986	-0.412929
F53	F	1.640608	-0.227396	-0.400892
H54	H	1.102173	-0.124462	-0.317017
H55	H	1.221027	-0.126536	-0.166229
F56	F	1.640630	-0.227384	-0.599009
H57	H	0.745841	-0.118129	0.166280
F58	F	0.712987	-0.117605	-0.166201
F59	F	0.848334	-0.119892	0.337863
H60	H	1.345318	-0.029988	-0.587063
F61	F	1.721986	0.307256	0.000024
H62	H	1.688913	0.473127	0.000042
F63	F	1.244883	0.448080	0.000038
F64	F	1.249625	0.269034	0.000032
