data_functionalizedCrystal
_audit_creation_method	'MofGen! by Chris Wilmer'
_symmetry_space_group_name_H-M	'P1'
_symmetry_Int_Tables_number	1
_symmetry_cell_setting	triclinic
loop_
_symmetry_equiv_pos_as_xyz
  x,y,z
_cell_length_a	19.077236
_cell_length_b	19.121063
_cell_length_c	19.076919
_cell_angle_alpha	85.393653
_cell_angle_beta	90.112677
_cell_angle_gamma	94.855924
loop_
_atom_site_label
_atom_site_type_symbol
_atom_site_fract_x
_atom_site_fract_y
_atom_site_fract_z
Zn1	Zn	1.046920	-0.255828	0.451002
Zn2	Zn	1.046539	-0.368770	0.338113
Zn3	Zn	0.934152	-0.255459	0.328767
Zn4	Zn	0.923941	-0.378172	0.451236
O5	O	0.987888	-0.314557	0.392279
O6	O	1.145371	-0.267030	0.439841
O7	O	1.035745	-0.349650	0.238375
O8	O	0.953543	-0.156885	0.340972
O9	O	1.145091	-0.350008	0.356902
O10	O	1.036393	-0.157156	0.430778
O11	O	0.953174	-0.266400	0.231509
O12	O	0.834295	-0.275517	0.341199
O13	O	0.936140	-0.366033	0.549703
O14	O	0.826793	-0.365674	0.431176
O15	O	1.026492	-0.276147	0.549531
O16	O	1.025844	-0.468640	0.357129
O17	O	0.935771	-0.475548	0.440239
C18	C	0.805004	-0.321576	0.385199
C19	C	0.726764	-0.324597	0.382188
C20	C	0.690147	-0.282888	0.424026
C21	C	0.616632	-0.285723	0.421191
C22	C	0.579736	-0.330270	0.376519
C23	C	0.616359	-0.371980	0.334676
C24	C	0.689872	-0.369142	0.337509
C25	C	0.359860	-0.343381	0.363406
C26	C	0.286341	-0.346218	0.360578
C27	C	0.286620	-0.259959	0.447092
C28	C	0.360135	-0.257127	0.449924
C29	C	0.396751	-0.298835	0.408078
N30	N	0.504593	-0.333170	0.373621
N31	N	0.471894	-0.295931	0.410973
C32	C	0.979677	-0.497666	0.399740
C33	C	0.976227	-0.575999	0.402957
C34	C	1.021536	-0.609180	0.361236
C35	C	1.018296	-0.682783	0.364266
C36	C	0.969743	-0.723203	0.409014
C37	C	0.924432	-0.690016	0.450740
C38	C	0.927676	-0.616415	0.447713
C39	C	0.957603	-0.945612	0.420321
C40	C	0.954361	-1.019218	0.423343
C41	C	1.048226	-1.011979	0.336870
C42	C	1.051463	-0.938377	0.333843
C43	C	1.006155	-0.905197	0.375572
C44	C	0.966428	-0.798436	0.412111
C45	C	1.009473	-0.829965	0.372478
C46	C	1.171486	-0.307511	0.399388
C47	C	1.249724	-0.304509	0.402417
C48	C	0.980219	-0.322180	0.575870
C49	C	0.976952	-0.325428	0.654106
C50	C	0.996150	-0.130734	0.384806
C51	C	0.999670	-0.052399	0.381622
C52	C	0.995569	-0.306912	0.209402
C53	C	0.998982	-0.303460	0.131164
C54	C	1.022455	-0.280158	0.690773
C55	C	1.019376	-0.283207	0.764283
C56	C	0.970797	-0.331531	0.801125
C57	C	0.925288	-0.376804	0.764453
C58	C	0.928364	-0.373750	0.690944
C59	C	0.956549	-0.345679	1.020983
C60	C	0.953478	-0.348731	1.094497
C61	C	1.047566	-0.255133	1.094322
C62	C	1.050641	-0.252086	1.020812
C63	C	1.005130	-0.297356	0.984146
N64	N	0.967650	-0.334651	0.876264
N65	N	1.008274	-0.294232	0.909008
H66	H	0.256799	-0.226002	0.481160
C67	C	0.576173	-0.420328	0.286245
C68	C	0.503954	-0.413903	0.292733
C69	C	0.466915	-0.458440	0.248137
H70	H	0.590565	-0.407559	0.238979
H71	H	0.585638	-0.467673	0.298869
H72	H	0.494495	-0.366569	0.280105
H73	H	0.489542	-0.426678	0.339989
H74	H	0.476379	-0.505784	0.260761
H75	H	0.481313	-0.445667	0.200874
H76	H	0.417911	-0.454091	0.252538
H77	H	0.919501	-0.382551	0.991139
C78	C	0.246361	-0.394697	0.312123
C79	C	0.260505	-0.464391	0.330849
C80	C	0.223694	-0.509067	0.286228
H81	H	0.197323	-0.390507	0.316394
H82	H	0.260847	-0.381921	0.264876
H83	H	0.246015	-0.477163	0.378084
H84	H	0.309536	-0.468603	0.326575
H85	H	0.238180	-0.496291	0.238981
H86	H	0.174657	-0.504871	0.290503
H87	H	0.233290	-0.556358	0.298923
H88	H	1.061070	-0.576275	0.324794
H89	H	0.891303	-0.410608	0.661090
H90	H	0.389664	-0.377343	0.329333
H91	H	0.920710	-0.918602	0.454296
H92	H	0.890782	-0.589400	0.481688
C93	C	1.103409	-0.199544	0.980939
C94	C	1.142589	-0.160537	1.028783
C95	C	1.191201	-0.112124	0.992077
H96	H	1.134132	-0.224055	0.954544
H97	H	1.079078	-0.168641	0.949984
H98	H	1.166918	-0.191435	1.059725
H99	H	1.111885	-0.136011	1.055179
H100	H	1.166871	-0.081221	0.961123
H101	H	1.221919	-0.136641	0.965685
H102	H	1.217786	-0.085647	1.024534
C103	C	0.576782	-0.240561	0.466664
C104	C	0.530903	-0.284037	0.511701
C105	C	0.494177	-0.242457	0.553598
H106	H	0.609204	-0.213619	0.493740
H107	H	0.550556	-0.209812	0.437454
H108	H	0.557128	-0.314774	0.540908
H109	H	0.498468	-0.310979	0.484644
H110	H	0.467951	-0.211708	0.524388
H111	H	0.526604	-0.215517	0.580669
H112	H	0.463040	-0.271949	0.584156
C113	C	1.096887	-0.206014	1.134256
C114	C	1.083786	-0.219016	1.206517
C115	C	1.129200	-0.173771	1.243324
H116	H	1.144250	-0.213969	1.124547
H117	H	1.089207	-0.158544	1.119923
H118	H	1.091472	-0.266474	1.220845
H119	H	1.036432	-0.211057	1.216247
H120	H	1.121520	-0.126300	1.228991
H121	H	1.176560	-0.181729	1.233610
H122	H	1.120313	-0.182581	1.292356
C123	C	0.871740	-0.734021	0.499254
C124	C	0.878581	-0.805581	0.492961
C125	C	0.830044	-0.846137	0.537633
H126	H	0.880510	-0.723589	0.546486
H127	H	0.825399	-0.723430	0.486583
H128	H	0.924912	-0.816167	0.505637
H129	H	0.869805	-0.816034	0.445739
H130	H	0.783703	-0.835546	0.524962
H131	H	0.838819	-0.835698	0.584862
H132	H	0.834675	-0.894694	0.533365
H133	H	1.062017	-0.240809	0.660781
C134	C	0.900657	-0.401223	1.134370
C135	C	0.861445	-0.440203	1.086526
C136	C	0.812778	-0.488558	1.123231
H137	H	0.924923	-0.432155	1.165338
H138	H	0.869965	-0.376646	1.160748
H139	H	0.892132	-0.464779	1.060161
H140	H	0.837164	-0.409291	1.055557
H141	H	0.782087	-0.463980	1.149609
H142	H	0.837050	-0.519485	1.154198
H143	H	0.786163	-0.515007	1.090775
C144	C	0.901624	-1.062981	0.472006
C145	C	0.862653	-1.018172	0.507919
C146	C	0.814075	-1.058461	0.552757
H147	H	0.870767	-1.091798	0.445130
H148	H	0.925970	-1.091885	0.504949
H149	H	0.838309	-0.989280	0.474981
H150	H	0.893492	-0.989355	0.534808
H151	H	0.838421	-1.087365	0.585699
H152	H	0.783223	-1.087276	0.525876
H153	H	0.787632	-1.028064	0.577134
C154	C	1.068868	-0.234024	0.803968
C155	C	1.112087	-0.191067	0.755971
C156	C	1.157695	-0.145755	0.792503
H157	H	1.042207	-0.205472	0.830354
H158	H	1.097163	-0.260982	0.834916
H159	H	1.083795	-0.164110	0.725036
H160	H	1.138763	-0.219600	0.729584
H161	H	1.185990	-0.172714	0.823451
H162	H	1.131028	-0.117207	0.818888
H163	H	1.187029	-0.116608	0.759943
H164	H	0.390170	-0.220855	0.486303
C165	C	0.729586	-0.414551	0.292177
C166	C	0.707966	-0.485628	0.309556
C167	C	0.744541	-0.527480	0.267815
H168	H	0.719996	-0.402758	0.243993
H169	H	0.778656	-0.406527	0.300269
H170	H	0.658908	-0.493649	0.301458
H171	H	0.717557	-0.497443	0.357733
H172	H	0.793611	-0.519455	0.275907
H173	H	0.734949	-0.515680	0.219633
H174	H	0.729883	-0.575710	0.279605
H175	H	1.055191	-0.709796	0.330292
H176	H	0.720182	-0.246615	0.460405
C177	C	0.872614	-0.429245	0.804579
C178	C	0.879672	-0.422245	0.876805
C179	C	0.831167	-0.470551	0.913790
H180	H	0.826253	-0.420294	0.790365
H181	H	0.881295	-0.475719	0.794897
H182	H	0.870985	-0.375782	0.886483
H183	H	0.926022	-0.431203	0.891041
H184	H	0.839848	-0.517025	0.904107
H185	H	0.784809	-0.461595	0.899570
H186	H	0.835953	-0.465812	0.962799
C187	C	1.062257	-0.786206	0.323874
C188	C	1.101256	-0.831014	0.287989
C189	C	1.149889	-0.790722	0.243213
H190	H	1.037975	-0.757282	0.290909
H191	H	1.093085	-0.757410	0.350813
H192	H	1.070432	-0.859798	0.261051
H193	H	1.125552	-0.859938	0.320936
H194	H	1.180718	-0.761926	0.270152
H195	H	1.125602	-0.761800	0.210252
H196	H	1.176360	-0.821118	0.218864
C197	C	1.097540	-1.047908	0.291614
C198	C	1.167319	-1.027883	0.308947
C199	C	1.212772	-1.060957	0.267266
H200	H	1.088757	-1.097537	0.299782
H201	H	1.089828	-1.034287	0.243410
H202	H	1.175028	-1.041509	0.357140
H203	H	1.176125	-0.978260	0.300776
H204	H	1.205060	-1.047336	0.219061
H205	H	1.203982	-1.110584	0.275437
H206	H	1.260122	-1.047370	0.279016
H207	H	1.090999	-0.905468	0.297406
H208	H	0.926895	-0.831354	0.448544
