data_functionalizedCrystal
_audit_creation_method	'MofGen! by Chris Wilmer'
_symmetry_space_group_name_H-M	'P1'
_symmetry_Int_Tables_number	1
_symmetry_cell_setting	triclinic
loop_
_symmetry_equiv_pos_as_xyz
  x,y,z
_cell_length_a	27.440280
_cell_length_b	27.440280
_cell_length_c	14.809374
_cell_angle_alpha	67.419961
_cell_angle_beta	90.004513
_cell_angle_gamma	60.007024
loop_
_atom_site_label
_atom_site_type_symbol
_atom_site_fract_x
_atom_site_fract_y
_atom_site_fract_z
Zr1	Zr	0.475986	0.520540	-0.107914
O2	O	0.405981	0.606613	-0.239273
O3	O	0.497436	0.423655	-0.067635
O4	O	0.507639	0.504939	-0.239236
O5	O	0.387742	0.541404	0.067679
O6	O	0.587840	0.504932	-0.239219
O7	O	0.395778	0.525328	-0.067671
O8	O	0.569589	0.359529	0.067744
O9	O	0.405993	0.686807	-0.239284
O10	O	0.566450	0.467504	-0.050456
O11	O	0.500600	0.479506	0.050542
O12	O	0.512612	0.575208	-0.151497
O13	O	0.446762	0.587211	-0.050499
Zr14	Zr	0.591083	0.546167	0.107981
Zr15	Zr	0.603899	0.520528	-0.107887
Zr16	Zr	0.463170	0.546179	0.107954
Zr17	Zr	0.476006	0.648440	-0.107933
Zr18	Zr	0.591063	0.418266	0.108000
O19	O	0.569633	0.643051	0.067702
O20	O	0.587856	0.606596	-0.239234
O21	O	0.387758	0.643068	0.067664
O22	O	0.661088	0.460094	0.239340
O23	O	0.679311	0.423638	-0.067596
O24	O	0.479213	0.460111	0.239302
O25	O	0.679327	0.525302	-0.067611
O26	O	0.559430	0.561767	0.239304
O27	O	0.479228	0.561775	0.239287
O28	O	0.671291	0.541378	0.067739
O29	O	0.507667	0.686798	-0.239263
O30	O	0.559402	0.379909	0.239331
O31	O	0.661075	0.379899	0.239352
O32	O	0.671263	0.359520	0.067766
O33	O	0.395806	0.707187	-0.067698
O34	O	0.497480	0.707177	-0.067677
O35	O	0.554456	0.491498	0.151565
O36	O	0.620307	0.479495	0.050567
O37	O	0.566469	0.587200	-0.050474
O38	O	0.500618	0.599203	0.050524
C39	C	0.533510	0.373369	0.000058
C40	C	0.533501	0.319072	0.000066
C41	C	0.573290	0.049038	0.074620
C42	C	0.573284	0.100061	0.074623
O43	O	0.607099	0.096411	0.138032
N44	N	0.533528	0.160899	0.000045
C45	C	0.493778	0.170714	-0.074547
O46	O	0.459962	0.227147	-0.137982
C47	C	0.493787	0.119691	-0.074554
C48	C	0.533542	0.058854	0.000034
C49	C	0.613042	-0.011796	0.149202
C50	C	0.613047	-0.062815	0.149199
C51	C	0.573300	-0.052999	0.074613
C52	C	0.533547	0.007836	0.000031
C53	C	0.454041	0.129506	-0.149150
C54	C	0.454054	0.078477	-0.149152
C55	C	0.493809	0.017640	-0.074563
C56	C	0.493805	-0.033367	-0.074557
N57	N	0.533561	-0.094206	0.000021
C58	C	0.573308	-0.104021	0.074606
C59	C	0.493763	0.277861	-0.074528
C60	C	0.493751	0.328884	-0.074517
C61	C	0.573258	0.258227	0.074653
C62	C	0.573267	0.207204	0.074646
C63	C	0.533520	0.217023	0.000050
C64	C	0.573315	-0.211162	0.074595
C65	C	0.573315	-0.262181	0.074587
C66	C	0.493811	-0.191520	-0.074585
C67	C	0.493809	-0.140504	-0.074575
C68	C	0.533566	-0.150330	0.000019
O69	O	0.460008	-0.029765	-0.137936
O70	O	0.607124	-0.160456	0.138023
C71	C	0.373535	0.533368	-0.000000
C72	C	0.319233	0.533373	-0.000011
C73	C	0.010634	0.477125	0.052804
C74	C	-0.040385	0.477122	0.052813
O75	O	-0.042874	0.429312	0.097699
N76	N	-0.094005	0.533342	0.000070
C77	C	-0.096605	0.589569	-0.052678
O78	O	-0.146897	0.637388	-0.097538
C79	C	-0.045587	0.589572	-0.052680
C80	C	0.008032	0.533347	0.000058
C81	C	0.064251	0.420905	0.105539
C82	C	0.115266	0.420907	0.105528
C83	C	0.112665	0.477130	0.052782
C84	C	0.059048	0.533350	0.000048
C85	C	-0.048188	0.645799	-0.105421
C86	C	0.002836	0.645797	-0.105418
C87	C	0.056455	0.589572	-0.052680
C88	C	0.107462	0.589575	-0.052709
N89	N	0.161081	0.533356	0.000034
C90	C	0.163683	0.477133	0.052780
C91	C	-0.203744	0.589559	-0.052667
C92	C	-0.254761	0.589556	-0.052671
C93	C	-0.198538	0.477109	0.052821
C94	C	-0.147520	0.477112	0.052819
C95	C	-0.150125	0.533339	0.000076
C96	C	0.270817	0.477143	0.052753
C97	C	0.321835	0.477150	0.052734
C98	C	0.265607	0.589598	-0.052753
C99	C	0.214593	0.589590	-0.052739
C100	C	0.217202	0.533358	0.000021
O101	O	0.109995	0.637361	-0.097568
O102	O	0.213977	0.429323	0.097644
C103	C	0.693533	0.533339	0.000068
C104	C	0.747836	0.533334	0.000079
C105	C	0.549565	0.501283	-0.269984
C106	C	0.555006	0.490398	-0.361626
C107	C	0.533559	0.693338	0.000010
C108	C	0.533568	0.747635	0.000002
C109	C	0.530725	0.538974	-0.452605
C110	C	0.536347	0.527726	-0.547323
C111	C	0.517503	0.565424	0.270052
C112	C	0.512062	0.576308	0.361693
C113	C	0.693509	0.373354	0.000091
C114	C	0.747803	0.319052	0.000111
C115	C	0.517478	0.405440	0.270075
C116	C	0.512029	0.362027	0.361725
C117	C	0.677478	0.405425	0.270109
C118	C	0.726331	0.362007	0.361770
C119	C	0.389591	0.661282	-0.270042
C120	C	0.340738	0.704699	-0.361703
C121	C	0.373560	0.693352	-0.000024
C122	C	0.319266	0.747654	-0.000043
C123	C	0.549590	0.661267	-0.270008
C124	C	0.555039	0.704680	-0.361657
C125	C	0.745187	0.287290	-0.052622
C126	C	0.796199	0.236272	-0.052624
C127	C	0.849824	0.217014	0.000114
C128	C	0.852438	0.248781	0.052848
C129	C	0.801428	0.299801	0.052843
C130	C	0.537582	0.347901	0.457507
C131	C	0.532459	0.307118	0.543630
C132	C	0.501787	0.280459	0.533969
C133	C	0.476230	0.294589	0.438177
C134	C	0.481350	0.335374	0.352056
C135	C	0.783651	0.335352	0.352096
C136	C	0.829559	0.294563	0.438213
C137	C	0.818145	0.280426	0.534004
C138	C	0.760819	0.307085	0.543676
C139	C	0.714912	0.347877	0.457560
C140	C	0.283417	0.731360	-0.352028
C141	C	0.237509	0.772165	-0.438145
C142	C	0.248923	0.786306	-0.533936
C143	C	0.306250	0.759643	-0.543609
C144	C	0.352157	0.718842	-0.457493
C145	C	0.321882	0.779420	0.052681
C146	C	0.270872	0.830450	0.052659
C147	C	0.217247	0.849709	-0.000082
C148	C	0.214633	0.817941	-0.052812
C149	C	0.265642	0.766915	-0.052796
C150	C	0.585716	0.731326	-0.351964
C151	C	0.590848	0.772111	-0.438070
C152	C	0.565298	0.786252	-0.533869
C153	C	0.534620	0.759601	-0.543561
C154	C	0.529493	0.718813	-0.457455
H155	H	0.645413	-0.019800	0.209939
H156	H	0.398829	0.697133	-0.465382
Br157	Br	0.067796	0.344592	0.177137
H158	H	0.175716	0.891258	-0.000087
Br159	Br	0.880455	0.225063	0.650867
H160	H	0.605639	0.157671	0.135382
H161	H	-0.196427	0.431329	0.095766
Br162	Br	0.141825	0.665892	-0.124337
H163	H	0.701529	0.302968	-0.095580
Br164	Br	0.141851	0.844085	-0.124381
Br165	Br	0.925220	0.222635	0.124419
Br166	Br	0.637120	0.384045	0.470709
Br167	Br	0.792637	0.193170	-0.124194
H168	H	0.274113	0.719850	-0.274038
H169	H	0.211538	0.819529	-0.604049
H170	H	0.605623	0.250242	0.135384
H171	H	0.190836	0.793868	-0.430250
H172	H	0.315537	0.771161	-0.621612
Br173	Br	0.446669	0.354537	0.222070
Br174	Br	0.262087	0.665898	-0.124317
Br175	Br	0.394652	0.753296	0.124262
Br176	Br	0.745338	0.287893	0.673687
Br177	Br	0.499943	0.778804	-0.673581
Br178	Br	-0.000705	0.722111	-0.176997
H179	H	0.803564	0.325656	0.095791
H180	H	0.891355	0.175469	0.000110
Br181	Br	0.439786	0.411446	-0.175734
Br182	Br	0.487851	0.682659	-0.470629
Br183	Br	0.434605	0.258403	0.425083
H184	H	0.569477	0.819466	-0.603974
H185	H	0.562559	0.369603	0.465392
H186	H	0.553273	0.295618	0.621619
Br187	Br	0.494844	0.225108	0.650859
H188	H	0.263504	0.741052	-0.095727
Br189	Br	0.489141	0.622174	-0.465568
H190	H	0.792956	0.346856	0.274106
H191	H	0.273012	0.856308	0.095602
H192	H	0.461447	-0.183538	-0.135308
H193	H	0.579959	0.440483	-0.353857
Br194	Br	0.632481	0.808276	-0.424894
Br195	Br	0.620396	0.712145	-0.221962
H196	H	0.876233	0.272860	0.430319
Br197	Br	-0.074755	0.400805	0.124394
H198	H	0.421687	0.086479	-0.209900
Br199	Br	0.627272	-0.224504	0.175830
Br200	Br	0.667004	-0.145375	0.250431
Br201	Br	0.439812	0.291197	-0.175768
Br202	Br	0.627269	-0.344746	0.175826
H203	H	0.421672	0.179034	-0.209896
H204	H	0.461421	-0.090964	-0.135287
H205	H	0.365493	0.431364	0.095683
H206	H	0.158922	0.375123	0.148469
Br207	Br	-0.327524	0.665862	-0.124266
Br208	Br	-0.207288	0.665874	-0.124261
Br209	Br	0.274365	0.400827	0.124356
Br210	Br	0.577944	0.444523	-0.534354
Br211	Br	-0.120947	0.722110	-0.176991
H212	H	0.487111	0.626228	-0.646084
