data_functionalizedCrystal
_audit_creation_method	'MofGen! by Chris Wilmer'
_symmetry_space_group_name_H-M	'P1'
_symmetry_Int_Tables_number	1
_symmetry_cell_setting	triclinic
loop_
_symmetry_equiv_pos_as_xyz
  x,y,z
_cell_length_a	14.971482
_cell_length_b	10.540510
_cell_length_c	13.448316
_cell_angle_alpha	89.995897
_cell_angle_beta	89.993798
_cell_angle_gamma	84.062960
loop_
_atom_site_label
_atom_site_type_symbol
_atom_site_fract_x
_atom_site_fract_y
_atom_site_fract_z
O1	O	1.187869	0.165403	-0.082673
O2	O	0.927578	0.185218	-0.082678
O3	O	1.063676	-0.009466	-0.082675
O4	O	1.051771	0.360087	-0.082676
O5	O	1.063659	-0.009478	0.082709
O6	O	0.927561	0.185206	0.082706
O7	O	1.187852	0.165391	0.082710
Cu8	Cu	1.057705	0.175297	0.097809
Cu9	Cu	1.057725	0.175312	-0.097776
O10	O	1.051754	0.360075	0.082708
C11	C	0.894240	0.184327	0.000014
C12	C	0.794928	0.181674	0.000012
C13	C	0.748267	0.180418	0.090164
C14	C	0.654955	0.177905	0.090165
C15	C	0.608304	0.176657	0.000013
C16	C	0.654972	0.177909	-0.090146
C17	C	0.748284	0.180413	-0.090146
C18	C	0.460481	0.172693	-0.090139
C19	C	0.367163	0.170191	-0.090140
C20	C	0.367152	0.170185	0.090171
C21	C	0.460464	0.172689	0.090171
C22	C	0.507125	0.173943	0.000012
C23	C	1.062780	-0.056766	0.000015
C24	C	1.060126	-0.197685	0.000009
C25	C	1.154672	-0.416216	0.000389
C26	C	1.157504	-0.269652	0.000011
C27	C	1.010288	-0.241870	-0.094432
C28	C	1.008147	-0.388607	-0.094506
C29	C	1.006099	-0.388406	0.093566
C30	C	1.010718	-0.242118	0.094809
C31	C	1.221190	0.166282	0.000017
C32	C	1.320502	0.168935	0.000012
C33	C	1.052650	0.407375	0.000016
C34	C	1.055304	0.548294	0.000015
N35	N	1.057697	0.175287	0.235373
N36	N	1.057740	0.175312	-0.235341
C37	C	1.117980	0.089116	0.287415
C38	C	1.117986	0.089115	0.391518
C39	C	1.057712	0.175292	0.443578
C40	C	0.997422	0.261466	0.391529
C41	C	0.997413	0.261460	0.287428
C42	C	0.997447	0.261475	0.608509
C43	C	0.997457	0.261483	0.712618
C44	C	1.118020	0.089130	0.712600
C45	C	1.118010	0.089124	0.608498
C46	C	1.057722	0.175300	0.556457
H47	H	0.329183	0.169176	-0.163549
H48	H	1.196499	-0.240756	0.067709
C49	C	1.184284	-0.005682	0.230155
C50	C	1.184281	-0.005696	0.115647
C51	C	1.250585	-0.100500	0.058390
C52	C	1.316891	-0.195291	0.115641
C53	C	1.316895	-0.195281	0.230155
C54	C	1.250592	-0.100477	0.287412
H55	H	1.135196	0.064478	0.073261
H56	H	1.250581	-0.100507	-0.026381
H57	H	1.365972	-0.265471	0.073256
H58	H	1.365981	-0.265454	0.272541
H59	H	1.250596	-0.100470	0.372183
H60	H	0.786242	0.181444	0.163576
C61	C	0.603622	0.176529	0.189330
C62	C	0.548941	0.064660	0.214130
C63	C	0.497606	0.063282	0.313298
C64	C	0.500952	0.173772	0.387668
C65	C	0.555635	0.285649	0.362870
C66	C	0.606970	0.287027	0.263702
H67	H	0.546462	-0.017139	0.159075
H68	H	0.457126	-0.019537	0.331654
H69	H	0.462951	0.172752	0.461078
H70	H	0.558114	0.367448	0.417924
H71	H	0.647450	0.369846	0.245345
C72	C	1.054184	-0.443463	-0.189869
C73	C	1.153071	-0.424322	-0.210528
C74	C	1.199112	-0.479170	-0.305892
C75	C	1.146267	-0.553159	-0.380596
C76	C	1.047375	-0.572304	-0.359938
C77	C	1.001334	-0.517455	-0.264575
H78	H	1.192195	-0.369548	-0.155226
H79	H	1.272318	-0.464998	-0.321183
H80	H	1.180350	-0.593761	-0.451189
H81	H	1.008251	-0.627078	-0.415240
H82	H	0.928127	-0.531628	-0.249283
H83	H	1.037037	-0.430945	0.165153
H84	H	0.935314	-0.410774	-0.098786
C85	C	0.511813	0.174078	-0.189313
C86	C	0.508460	0.063604	-0.263695
C87	C	0.559792	0.064997	-0.362864
C88	C	0.614477	0.176865	-0.387651
C89	C	0.617832	0.287348	-0.313267
C90	C	0.566500	0.285955	-0.214097
H91	H	0.467977	-0.019215	-0.245348
H92	H	0.557309	-0.016790	-0.417928
H93	H	0.652477	0.177897	-0.461062
H94	H	0.658315	0.370167	-0.331614
H95	H	0.568983	0.367742	-0.159033
H96	H	1.192603	-0.458607	0.068118
C97	C	0.913444	-0.176747	-0.099192
C98	C	0.878406	-0.082465	-0.017181
C99	C	0.781563	-0.017339	-0.021939
C100	C	0.719758	-0.046496	-0.108708
C101	C	0.754796	-0.140784	-0.190725
C102	C	0.851639	-0.205909	-0.185967
H103	H	0.924158	-0.060876	0.047056
H104	H	0.755626	0.052459	0.038775
H105	H	0.648069	0.001713	-0.112230
H106	H	0.709044	-0.162372	-0.254962
H107	H	0.877576	-0.275707	-0.246682
C108	C	1.205641	-0.475541	-0.090593
C109	C	1.157433	-0.555987	-0.165122
C110	C	1.208399	-0.615312	-0.256107
C111	C	1.307572	-0.594191	-0.272562
C112	C	1.355786	-0.513741	-0.198031
C113	C	1.304820	-0.454417	-0.107046
H114	H	1.084014	-0.571625	-0.152943
H115	H	1.172707	-0.674866	-0.311280
H116	H	1.345300	-0.638106	-0.339915
H117	H	1.429205	-0.498103	-0.210210
H118	H	1.340512	-0.394862	-0.051873
C119	C	1.184311	-0.005667	0.551227
C120	C	1.148742	-0.102825	0.479674
C121	C	1.215041	-0.197619	0.422401
C122	C	1.316908	-0.195254	0.436681
C123	C	1.352482	-0.098092	0.508238
C124	C	1.286184	-0.003299	0.565511
H125	H	1.073329	-0.104579	0.469099
H126	H	1.188706	-0.269545	0.369430
H127	H	1.365986	-0.265426	0.394285
H128	H	1.427895	-0.096339	0.518812
H129	H	1.312518	0.068627	0.618482
C130	C	0.914672	-0.174747	0.102513
C131	C	0.846370	-0.190535	0.018961
C132	C	0.750320	-0.123163	0.026654
C133	C	0.722571	-0.040003	0.117899
C134	C	0.790875	-0.024211	0.201457
C135	C	0.886925	-0.091583	0.193764
H136	H	0.866909	-0.252099	-0.048590
H137	H	0.699757	-0.134854	-0.035202
H138	H	0.651469	0.009870	0.123594
H139	H	0.770335	0.037353	0.269008
H140	H	0.937487	-0.079892	0.255620
C141	C	0.931149	0.356271	0.769881
C142	C	0.931158	0.356286	0.884388
C143	C	0.864847	0.451076	0.941649
C144	C	0.798527	0.545851	0.884402
C145	C	0.798515	0.545839	0.769888
C146	C	0.864826	0.451049	0.712628
H147	H	0.980255	0.286126	0.926771
H148	H	0.864857	0.451084	1.026420
H149	H	0.749440	0.616020	0.926790
H150	H	0.749418	0.616000	0.727505
H151	H	0.864816	0.451041	0.627857
C152	C	1.184334	-0.005670	0.769844
C153	C	1.181935	-0.150229	0.755542
C154	C	1.248250	-0.245019	0.812792
C155	C	1.316963	-0.195250	0.884344
C156	C	1.319365	-0.050684	0.898649
C157	C	1.253051	0.044106	0.841399
H158	H	1.131066	-0.187078	0.702572
H159	H	1.246471	-0.352037	0.802202
H160	H	1.366054	-0.265419	0.926724
H161	H	1.370234	-0.013835	0.951619
H162	H	1.254829	0.151124	0.851989
H163	H	0.498443	0.173713	0.163581
C164	C	0.799615	0.181799	-0.189314
C165	C	0.796258	0.071317	-0.263689
C166	C	0.847590	0.072697	-0.362859
C167	C	0.902279	0.184558	-0.387654
C168	C	0.905638	0.295048	-0.313278
C169	C	0.854306	0.293668	-0.214107
H170	H	0.755772	-0.011496	-0.245335
H171	H	0.845103	-0.009096	-0.417918
H172	H	0.940278	0.185579	-0.461066
H173	H	0.946124	0.377861	-0.331631
H174	H	0.856793	0.375461	-0.159049
H175	H	0.329156	0.169163	0.163582
H176	H	0.948351	0.331645	0.566140
H177	H	0.616983	0.176884	-0.163549
H178	H	1.196740	-0.241688	-0.067803
H179	H	1.167072	0.018948	0.433890
H180	H	1.044913	-0.211402	-0.164714
H181	H	1.046982	-0.213923	0.164676
H182	H	0.932987	-0.409725	0.094201
H183	H	0.948342	0.331629	0.433922
H184	H	0.948323	0.331628	0.245057
