data_functionalizedCrystal
_audit_creation_method	'MofGen! by Chris Wilmer'
_symmetry_space_group_name_H-M	'P1'
_symmetry_Int_Tables_number	1
_symmetry_cell_setting	triclinic
loop_
_symmetry_equiv_pos_as_xyz
  x,y,z
_cell_length_a	12.811438
_cell_length_b	10.654550
_cell_length_c	9.130313
_cell_angle_alpha	90.004369
_cell_angle_beta	84.565021
_cell_angle_gamma	95.736932
loop_
_atom_site_label
_atom_site_type_symbol
_atom_site_fract_x
_atom_site_fract_y
_atom_site_fract_z
O1	O	1.393906	-0.169159	-0.306934
O2	O	1.088455	-0.187552	-0.266368
O3	O	1.248204	0.004420	-0.287575
O4	O	1.234158	-0.361131	-0.285728
O5	O	1.248193	0.004426	-0.043974
O6	O	1.088444	-0.187546	-0.022768
O7	O	1.393895	-0.169154	-0.063334
Cu8	Cu	1.241169	-0.178350	-0.020808
Cu9	Cu	1.241182	-0.178356	-0.308894
O10	O	1.234147	-0.361126	-0.042127
C11	C	1.049338	-0.186518	-0.139373
C12	C	0.932798	-0.183432	-0.123896
N13	N	1.241167	-0.178344	0.181815
C14	C	1.247167	0.051215	-0.165638
C15	C	1.244081	0.190643	-0.165231
C16	C	0.768533	-0.179078	0.030698
C17	C	0.878033	-0.181979	0.016161
C18	C	0.878054	-0.181986	-0.249426
C19	C	0.768554	-0.179085	-0.234890
C20	C	0.713798	-0.177629	-0.094824
C21	C	0.604296	-0.174719	-0.080289
C22	C	0.604318	-0.174736	-0.345875
C23	C	0.713818	-0.177637	-0.360411
C24	C	1.433012	-0.170187	-0.190332
C25	C	1.549553	-0.173274	-0.205819
C26	C	1.235184	-0.407921	-0.164067
C27	C	1.238269	-0.547348	-0.164484
C28	C	1.338138	0.270617	-0.177723
C29	C	1.335233	0.401623	-0.177355
C30	C	1.144205	0.372667	-0.151995
C31	C	1.147111	0.241664	-0.152374
N32	N	1.241191	-0.178352	-0.511518
C33	C	1.311928	-0.093375	0.249073
C34	C	1.311938	-0.093375	0.402408
C35	C	1.170423	-0.263325	0.421214
C36	C	1.170409	-0.263318	0.267882
H37	H	0.559715	-0.173542	0.033760
H38	H	1.369542	-0.024182	0.179000
Br39	Br	1.469739	0.201377	-0.195170
Br40	Br	1.019453	0.133118	-0.135439
Br41	Br	1.012609	0.441919	-0.134552
H42	H	1.112815	-0.332510	0.491305
H43	H	1.112782	-0.332511	0.213118
Br44	Br	1.407969	0.021951	0.493685
H45	H	0.723949	-0.177900	0.144745
H46	H	0.922654	-0.183183	-0.363461
H47	H	0.922595	-0.183163	0.118374
H48	H	0.758415	-0.178827	-0.474449
Br49	Br	0.530024	-0.172811	-0.516236
H50	H	1.411824	0.466733	-0.187530
