data_functionalizedCrystal
_audit_creation_method	'MofGen! by Chris Wilmer'
_symmetry_space_group_name_H-M	'P1'
_symmetry_Int_Tables_number	1
_symmetry_cell_setting	triclinic
loop_
_symmetry_equiv_pos_as_xyz
  x,y,z
_cell_length_a	12.759401
_cell_length_b	13.897448
_cell_length_c	13.897441
_cell_angle_alpha	89.969401
_cell_angle_beta	89.981301
_cell_angle_gamma	90.017853
loop_
_atom_site_label
_atom_site_type_symbol
_atom_site_fract_x
_atom_site_fract_y
_atom_site_fract_z
Zn1	Zn	1.606236	-0.383980	-0.545329
Zn2	Zn	2.106236	0.116020	-0.045329
Zn3	Zn	1.606120	-0.545302	-0.384030
Zn4	Zn	2.106120	-0.045302	0.115970
Zn5	Zn	1.430537	-0.384023	-0.384053
Zn6	Zn	1.930537	0.115977	0.115947
Zn7	Zn	1.430517	-0.545235	-0.545289
Zn8	Zn	1.930517	-0.045235	-0.045289
O9	O	1.518352	-0.464635	-0.464675
O10	O	2.018352	0.035365	0.035325
O11	O	1.753241	-0.405390	-0.523940
O12	O	2.253241	0.094610	-0.023940
O13	O	1.582789	-0.523953	-0.249052
O14	O	2.082789	-0.023953	0.250948
O15	O	1.453900	-0.249035	-0.405473
O16	O	1.953900	0.250965	0.094527
O17	O	1.753156	-0.523912	-0.405434
O18	O	2.253156	-0.023912	0.094566
O19	O	1.582985	-0.249004	-0.523962
O20	O	2.082985	0.250996	-0.023962
O21	O	1.453788	-0.405463	-0.249068
O22	O	1.953788	0.094537	0.250932
O23	O	1.283513	-0.405398	-0.405434
O24	O	1.783513	0.094602	0.094566
O25	O	1.453866	-0.523799	-0.680276
O26	O	1.953866	-0.023799	-0.180276
O27	O	1.283499	-0.523840	-0.523893
O28	O	1.783499	-0.023840	-0.023893
O29	O	1.582966	-0.405325	-0.680305
O30	O	2.082966	0.094675	-0.180305
O31	O	1.582769	-0.680275	-0.405395
O32	O	2.082769	-0.180275	0.094605
O33	O	1.453755	-0.680226	-0.523871
O34	O	1.953755	-0.180226	-0.023871
C35	C	1.245385	-0.464617	-0.464662
C36	C	1.745385	0.035383	0.035338
C37	C	1.128608	-0.464633	-0.464679
C38	C	1.628608	0.035367	0.035321
C39	C	1.073766	-0.526404	-0.526259
C40	C	1.573766	-0.026404	-0.026259
C41	C	0.964042	-0.526417	-0.526269
C42	C	1.464042	-0.026417	-0.026269
C43	C	0.964012	-0.402883	-0.403112
C44	C	1.464012	0.097117	0.096888
C45	C	1.073734	-0.402867	-0.403107
C46	C	1.573734	0.097133	0.096893
C47	C	1.073783	-0.597728	-0.597360
C48	C	1.573783	-0.097728	-0.097360
C49	C	0.964059	-0.597741	-0.597370
C50	C	1.464059	-0.097741	-0.097370
C51	C	1.518276	-0.715249	-0.464647
C52	C	2.018276	-0.215249	0.035353
C53	C	1.518339	-0.822463	-0.464668
C54	C	2.018339	-0.322463	0.035332
C55	C	1.518449	-1.018758	-0.464728
C56	C	2.018449	-0.518758	0.035272
C57	C	1.518385	-0.909526	-0.464697
C58	C	2.018385	-0.409526	0.035303
C59	C	1.792386	-0.464653	-0.464689
C60	C	2.292386	0.035347	0.035311
C61	C	1.909162	-0.464661	-0.464695
C62	C	2.409162	0.035339	0.035305
C63	C	1.518427	-0.464550	-0.716268
C64	C	2.018427	0.035450	-0.216268
C65	C	1.518459	-0.464513	-0.823482
C66	C	2.018459	0.035487	-0.323482
C67	C	1.518458	-0.213042	-0.464724
C68	C	2.018458	0.286958	0.035276
C69	C	1.518503	-0.105828	-0.464745
C70	C	2.018503	0.394172	0.035255
C71	C	1.518487	-0.464448	-1.019778
C72	C	2.018487	0.035552	-0.519778
C73	C	1.518468	-0.464487	-0.910545
C74	C	2.018468	0.035513	-0.410545
C75	C	1.518339	-0.464650	-0.214061
C76	C	2.018339	0.035350	0.285939
C77	C	1.518510	-0.464415	-0.106847
C78	C	2.018510	0.035585	0.393153
H79	H	0.930063	-0.571078	-0.668389
H80	H	1.430063	-0.071078	-0.168389
H81	H	0.934259	-0.672428	-0.577232
H82	H	1.434259	-0.172428	-0.077232
Cl83	Cl	1.126300	-0.707263	-0.555939
Cl84	Cl	1.626300	-0.207263	-0.055939
Cl85	Cl	1.142676	-0.325190	-0.325707
Cl86	Cl	1.642676	0.174810	0.174293
H87	H	0.919320	-0.352594	-0.352984
H88	H	1.419320	0.147406	0.147016
H89	H	1.103592	-0.577810	-0.672101
H90	H	1.603592	-0.077810	-0.172101
