data_functionalizedCrystal
_audit_creation_method	'MofGen! by Chris Wilmer'
_symmetry_space_group_name_H-M	'P1'
_symmetry_Int_Tables_number	1
_symmetry_cell_setting	triclinic
loop_
_symmetry_equiv_pos_as_xyz
  x,y,z
_cell_length_a	14.560438
_cell_length_b	14.560438
_cell_length_c	14.560438
_cell_angle_alpha	90.000844
_cell_angle_beta	60.000378
_cell_angle_gamma	60.001909
loop_
_atom_site_label
_atom_site_type_symbol
_atom_site_fract_x
_atom_site_fract_y
_atom_site_fract_z
Zr1	Zr	1.005288	-0.120512	0.884754
O2	O	1.196883	-0.267153	0.738107
O3	O	0.813688	-0.075561	0.929709
O4	O	1.005286	-0.267158	0.929708
O5	O	1.005288	0.075583	0.738109
O6	O	1.005288	-0.267159	1.080846
O7	O	1.005286	-0.075556	0.738108
O8	O	0.662556	0.075574	1.080848
O9	O	1.348021	-0.267150	0.738108
O10	O	0.892499	-0.056387	1.061675
O11	O	0.892499	0.056406	0.948882
O12	O	1.118080	-0.169175	0.948882
O13	O	1.118080	-0.056382	0.836089
Zr14	Zr	1.005296	0.120535	1.125803
Zr15	Zr	1.005292	-0.120513	1.125802
Zr16	Zr	1.005292	0.120536	0.884755
Zr17	Zr	1.246335	-0.120507	0.884754
Zr18	Zr	0.764248	0.120530	1.125803
O19	O	1.196895	0.075584	1.080849
O20	O	1.196889	-0.267156	1.080847
O21	O	1.196889	0.075586	0.738109
O22	O	0.813700	0.267176	1.272450
O23	O	0.813694	-0.075563	1.272448
O24	O	0.813694	0.267179	0.929711
O25	O	1.005295	-0.075560	1.272449
O26	O	1.005297	0.267181	1.080849
O27	O	1.005295	0.267182	0.929711
O28	O	1.005297	0.075579	1.272449
O29	O	1.348025	-0.267152	0.929709
O30	O	0.662559	0.267175	1.080849
O31	O	0.662562	0.267173	1.272450
O32	O	0.662559	0.075572	1.272449
O33	O	1.348025	-0.075549	0.738109
O34	O	1.348028	-0.075551	0.929710
O35	O	0.892503	0.169198	1.061676
O36	O	0.892503	0.056405	1.174468
O37	O	1.118084	-0.056383	1.061675
O38	O	1.118084	0.056410	0.948883
C39	C	0.703778	0.000006	1.005278
C40	C	0.601447	0.000004	1.005278
C41	C	1.005287	0.000014	0.703764
C42	C	1.005285	0.000014	0.601433
C43	C	1.005297	0.301526	1.005280
C44	C	1.005299	0.403857	1.005281
C45	C	0.553371	-0.058873	1.064152
C46	C	0.457211	-0.058863	1.064156
C47	C	0.457217	0.058904	0.946404
C48	C	0.553368	0.058899	0.946406
C49	C	1.306806	0.000017	1.005279
C50	C	1.409137	0.000019	1.005279
C51	C	1.005287	-0.301503	1.005277
C52	C	1.005285	-0.403834	1.005277
C53	C	1.123047	0.393061	0.946406
C54	C	1.123041	0.489216	0.946400
C55	C	0.887527	0.606959	1.064153
C56	C	0.887534	0.510805	1.064152
C57	C	0.887536	0.058884	0.612231
C58	C	0.887542	0.058885	0.516077
C59	C	1.123057	-0.058863	0.398328
C60	C	1.123049	-0.058857	0.494482
C61	C	1.005297	0.000009	1.306793
C62	C	1.005299	0.000009	1.409124
C63	C	0.703783	0.000004	1.306793
C64	C	0.601454	0.000001	1.409124
C65	C	0.703783	0.301520	1.005280
C66	C	0.601454	0.403850	1.005280
C67	C	0.703788	0.301518	1.306794
C68	C	0.601460	0.403847	1.409126
C69	C	1.306795	-0.301495	0.703763
C70	C	1.409123	-0.403824	0.601432
C71	C	1.306800	0.000019	0.703765
C72	C	1.409130	0.000022	0.601434
C73	C	1.306800	-0.301497	1.005278
C74	C	1.409130	-0.403827	1.005277
C75	C	0.553375	-0.058874	1.398325
C76	C	0.457233	-0.058880	1.494480
C77	C	0.457255	0.058872	1.612228
C78	C	0.553401	0.058871	1.516075
C79	C	0.553379	0.510800	1.064156
C80	C	0.457239	0.606946	1.064144
C81	C	0.457252	0.489176	0.946377
C82	C	0.553397	0.393033	0.946384
C83	C	0.553385	0.393047	1.516078
C84	C	0.457245	0.489199	1.612225
C85	C	0.457263	0.606948	1.494455
C86	C	0.553407	0.510797	1.398310
H87	H	0.418069	-0.106804	1.112099
N88	N	0.605238	0.277688	1.527722
H89	H	0.588499	0.235176	1.490456
H90	H	0.560178	0.285522	1.610085
H91	H	0.592543	0.305942	0.898434
N92	N	0.405404	0.122382	1.727582
H93	H	0.450455	0.159679	1.719830
H94	H	0.422133	0.068326	1.770045
N95	N	0.405395	0.477552	1.727581
H96	H	0.450430	0.395209	1.719838
H97	H	0.308875	0.514886	1.770041
N98	N	0.405412	0.477512	0.882864
H99	H	0.337205	0.554646	0.891797
H100	H	0.365596	0.434991	0.913783
N101	N	0.405411	0.722301	1.482797
H102	H	0.450460	0.714550	1.400451
H103	H	0.422142	0.764764	1.520124
N104	N	0.605208	-0.122374	1.282974
H105	H	0.673408	-0.113438	1.223696
H106	H	0.531765	-0.091453	1.274082
H107	H	0.791645	0.106833	0.699312
H108	H	0.791659	0.106824	0.524879
H109	H	0.592554	0.519599	1.311219
N110	N	1.250068	-0.122355	0.282976
H111	H	1.232208	-0.113429	0.223700
H112	H	1.301494	-0.204691	0.274073
H113	H	1.218924	0.480416	0.898456
N114	N	0.605280	0.122362	1.527713
H115	H	0.531943	0.204731	1.570181
H116	H	0.673503	0.113326	1.450529
H117	H	0.592513	-0.106827	1.112091
H118	H	0.418103	0.694027	1.112085
N119	N	0.605213	0.522461	1.127677
H120	H	0.560166	0.604806	1.164972
H121	H	0.701731	0.485136	1.073622
H122	H	0.592510	0.106849	0.898463
N123	N	0.760515	0.722308	1.127664
H124	H	0.778375	0.781585	1.118740
H125	H	0.709108	0.731197	1.209999
H126	H	1.218940	-0.106793	0.485681
N127	N	0.405389	-0.122390	1.482822
H128	H	0.365489	-0.091503	1.440355
H129	H	0.337244	-0.113448	1.559996
N130	N	0.405360	0.122423	0.882909
H131	H	0.337155	0.113492	0.891838
H132	H	0.478791	0.091513	0.800572
H133	H	0.791643	0.519604	1.112095
N134	N	1.250058	0.277711	0.882923
H135	H	1.324649	0.285467	0.845627
H136	H	1.255204	0.235237	0.823728
