data_functionalizedCrystal
_audit_creation_method	'MofGen! by Chris Wilmer'
_symmetry_space_group_name_H-M	'P1'
_symmetry_Int_Tables_number	1
_symmetry_cell_setting	triclinic
loop_
_symmetry_equiv_pos_as_xyz
  x,y,z
_cell_length_a	10.540539
_cell_length_b	23.532357
_cell_length_c	9.616153
_cell_angle_alpha	89.992198
_cell_angle_beta	89.995174
_cell_angle_gamma	83.676892
loop_
_atom_site_label
_atom_site_type_symbol
_atom_site_fract_x
_atom_site_fract_y
_atom_site_fract_z
O1	O	1.683226	0.080253	-0.115599
O2	O	1.313562	0.087815	-0.115618
O3	O	1.509575	0.001174	-0.115579
O4	O	1.487214	0.166894	-0.115638
O5	O	1.509548	0.001176	0.115712
O6	O	1.313536	0.087816	0.115673
O7	O	1.683200	0.080255	0.115692
Zn8	Zn	1.498363	0.084036	0.152405
Zn9	Zn	1.498399	0.084033	-0.152331
O10	O	1.487187	0.166895	0.115654
C11	C	1.266265	0.087248	0.000026
C12	C	1.125373	0.085552	0.000020
C13	C	1.509002	-0.020045	0.000071
C14	C	1.507320	-0.083275	0.000084
C15	C	0.944106	0.020542	0.000582
C16	C	1.090667	0.022261	0.000046
C17	C	1.062704	0.116009	-0.132065
C18	C	0.916231	0.113849	-0.132160
C19	C	0.915670	0.115138	0.130861
C20	C	1.062632	0.115721	0.132592
C21	C	1.496778	-0.475357	-0.126069
C22	C	1.495180	-0.534767	-0.126077
O23	O	1.494322	-0.565490	-0.233301
N24	N	1.494372	-0.564483	-0.000002
C25	C	1.495151	-0.534784	0.126090
O26	O	1.494316	-0.565515	0.233326
C27	C	1.496740	-0.475375	0.126096
C28	C	1.497560	-0.445663	0.000013
C29	C	1.497597	-0.445645	-0.252142
C30	C	1.499198	-0.386240	-0.252134
C31	C	1.499980	-0.356546	-0.126052
C32	C	1.499161	-0.386257	0.000021
C33	C	1.497509	-0.445677	0.252186
C34	C	1.499098	-0.386264	0.252182
C35	C	1.499918	-0.356552	0.126098
C36	C	1.501544	-0.297158	0.126112
N37	N	1.502351	-0.267442	0.000036
C38	C	1.501569	-0.297136	-0.126045
C39	C	1.491811	-0.659548	0.126066
C40	C	1.490231	-0.718957	0.126061
C41	C	1.490257	-0.718935	-0.126106
C42	C	1.491846	-0.659526	-0.126099
C43	C	1.492618	-0.629832	-0.000009
C44	C	1.504932	-0.172380	-0.126018
C45	C	1.506538	-0.112969	-0.125998
C46	C	1.506505	-0.112995	0.126168
C47	C	1.504905	-0.172401	0.126149
C48	C	1.504115	-0.202092	0.000045
O49	O	1.502397	-0.266397	0.233280
O50	O	1.502387	-0.266398	-0.233263
C51	C	1.730497	0.080821	0.000046
C52	C	1.871389	0.082517	0.000042
C53	C	1.487760	0.188115	0.000001
C54	C	1.489442	0.251344	-0.000022
N55	N	1.498349	0.084037	0.360380
N56	N	1.498423	0.084028	-0.360306
C57	C	1.393185	0.130229	0.580729
C58	C	1.393407	0.130402	0.419562
C59	C	1.630623	0.097555	0.418830
C60	C	1.630048	0.097882	0.580048
C61	C	1.472565	0.024176	0.580311
C62	C	1.469506	0.024564	0.419084
H63	H	1.134066	-0.001703	0.094731
C64	C	1.489382	-0.751606	-0.264795
H65	H	1.488303	-0.791241	-0.246731
H66	H	1.563673	-0.745915	-0.316607
H67	H	1.415607	-0.737821	-0.316596
C68	C	1.507358	-0.080324	0.264847
H69	H	1.508413	-0.040687	0.246783
H70	H	1.581112	-0.094104	0.316672
H71	H	1.433046	-0.086016	0.316634
H72	H	1.104322	0.093471	0.230308
H73	H	1.710765	0.064823	0.380493
C74	C	1.662323	0.155878	0.364263
H75	H	1.595127	0.172065	0.305877
H76	H	1.739639	0.150827	0.312739
H77	H	1.671731	0.180730	0.440522
C78	C	1.496742	-0.478303	-0.390841
H79	H	1.495672	-0.517942	-0.372812
H80	H	1.571039	-0.472601	-0.442629
H81	H	1.422973	-0.464515	-0.442647
H82	H	1.083514	0.162488	-0.136995
C83	C	1.148166	-0.010336	-0.128069
H84	H	1.081938	-0.024677	-0.179998
H85	H	1.207648	-0.041260	-0.098614
H86	H	1.190369	0.014826	-0.184657
H87	H	1.652952	0.141548	0.617622
H88	H	1.710763	0.065587	0.619051
C89	C	0.873961	0.087472	0.266113
H90	H	0.829149	0.055763	0.244060
H91	H	0.819825	0.114734	0.317669
H92	H	0.947186	0.074836	0.320038
H93	H	0.914736	-0.004357	-0.093599
C94	C	1.093280	0.178057	0.143349
H95	H	1.144963	0.186538	0.066781
H96	H	1.137703	0.183059	0.227642
H97	H	1.016074	0.203034	0.142227
H98	H	1.372207	0.014318	0.380883
H99	H	1.499707	-0.362089	0.354862
H100	H	1.504249	-0.196594	0.228817
C101	C	0.849827	0.176894	0.132048
H102	H	0.795606	0.182792	0.053254
H103	H	0.912660	0.202874	0.129131
H104	H	0.800571	0.183110	0.214478
C105	C	1.345132	0.006807	0.635283
H106	H	1.306503	0.035899	0.694970
H107	H	1.360421	-0.028037	0.685505
H108	H	1.289838	0.001860	0.559275
C109	C	0.906591	-0.013236	0.128544
H110	H	0.846237	0.010152	0.182785
H111	H	0.980382	-0.024386	0.182927
H112	H	0.869977	-0.046312	0.098860
H113	H	1.489582	-0.743144	0.228731
C114	C	1.576240	-0.022280	0.631831
H115	H	1.635006	-0.005315	0.689254
H116	H	1.620100	-0.040084	0.554308
H117	H	1.537569	-0.050095	0.683751
C118	C	1.260546	0.119425	0.366170
H119	H	1.205948	0.114822	0.443012
H120	H	1.267946	0.085710	0.311108
H121	H	1.225763	0.150982	0.311473
C122	C	1.492736	-0.626848	-0.264789
H123	H	1.492036	-0.653046	-0.339873
H124	H	1.567381	-0.607713	-0.270032
H125	H	1.419316	-0.599630	-0.270037
C126	C	1.496594	-0.478346	0.390880
H127	H	1.497270	-0.452144	0.465958
H128	H	1.569994	-0.505570	0.396152
H129	H	1.421929	-0.497472	0.396111
H130	H	1.409831	0.174806	0.380967
C131	C	1.504097	-0.205033	-0.264729
H132	H	1.504834	-0.178824	-0.339802
H133	H	1.429457	-0.224168	-0.270014
H134	H	1.577523	-0.232249	-0.269952
H135	H	0.888780	0.091337	-0.230879
H136	H	0.866751	0.159366	-0.138171
H137	H	1.541229	-0.011468	0.378805
H138	H	1.294526	0.122220	0.619539
H139	H	1.507209	-0.088781	-0.228675
H140	H	1.106007	0.094850	-0.230349
H141	H	1.499861	-0.362053	-0.354804
H142	H	1.492443	-0.635375	0.228751
H143	H	1.409385	0.174382	0.621213
