data_functionalizedCrystal
_audit_creation_method	'MofGen! by Chris Wilmer'
_symmetry_space_group_name_H-M	'P1'
_symmetry_Int_Tables_number	1
_symmetry_cell_setting	triclinic
loop_
_symmetry_equiv_pos_as_xyz
  x,y,z
_cell_length_a	16.625548
_cell_length_b	14.908520
_cell_length_c	14.908308
_cell_angle_alpha	83.639235
_cell_angle_beta	93.277965
_cell_angle_gamma	86.678216
loop_
_atom_site_label
_atom_site_type_symbol
_atom_site_fract_x
_atom_site_fract_y
_atom_site_fract_z
Zn1	Zn	1.185085	0.389851	-0.532572
Zn2	Zn	1.685085	0.889851	-0.032572
Zn3	Zn	1.184994	0.532497	-0.389942
Zn4	Zn	1.684994	1.032497	0.110058
Zn5	Zn	1.058507	0.381156	-0.381229
Zn6	Zn	1.558507	0.881156	0.118771
Zn7	Zn	1.041965	0.541172	-0.541251
Zn8	Zn	1.541965	1.041172	-0.041251
O9	O	1.117638	0.461169	-0.461249
O10	O	1.617638	0.961169	0.038751
O11	O	1.297904	0.408782	-0.513666
O12	O	1.797904	0.908782	-0.013666
O13	O	1.175099	0.505151	-0.262126
O14	O	1.675099	1.005151	0.237874
O15	O	1.082259	0.255645	-0.394027
O16	O	1.582259	0.755645	0.105973
O17	O	1.297837	0.513582	-0.408877
O18	O	1.797837	1.013582	0.091123
O19	O	1.175255	0.262033	-0.505217
O20	O	1.675255	0.762033	-0.005217
O21	O	1.082170	0.393962	-0.255724
O22	O	1.582170	0.893962	0.244276
O23	O	0.943482	0.402375	-0.402442
O24	O	1.443482	0.902375	0.097558
O25	O	1.054066	0.528369	-0.666760
O26	O	1.554066	1.028369	-0.166760
O27	O	0.931328	0.519938	-0.520009
O28	O	1.431328	1.019938	-0.020009
O29	O	1.159215	0.417194	-0.660384
O30	O	1.659215	0.917194	-0.160384
O31	O	1.159059	0.660312	-0.417292
O32	O	1.659059	1.160312	0.082708
O33	O	1.053977	0.666686	-0.528458
O34	O	1.553977	1.166686	-0.028458
C35	C	1.104734	0.696343	-0.474782
C36	C	1.604734	1.196343	0.025218
C37	C	1.099286	0.796953	-0.480602
C38	C	1.599286	1.296953	0.019398
C39	C	0.908149	0.461155	-0.461222
C40	C	1.408149	0.961155	0.038778
C41	C	0.818526	0.461172	-0.461234
C42	C	1.318526	0.961172	0.038766
C43	C	1.104806	0.474719	-0.697332
C44	C	1.604806	0.974719	-0.197332
C45	C	1.099337	0.480494	-0.797936
C46	C	1.599337	0.980494	-0.297936
C47	C	0.490348	0.461180	-0.461273
C48	C	0.990348	0.961180	0.038727
C49	C	0.581658	0.461175	-0.461259
C50	C	1.081658	0.961175	0.038741
C51	C	0.654434	0.461176	-0.461253
C52	C	1.154434	0.961176	0.038747
C53	C	0.745750	0.461170	-0.461240
C54	C	1.245750	0.961170	0.038760
C55	C	1.327944	0.461184	-0.461275
C56	C	1.827944	0.961184	0.038725
C57	C	1.417565	0.461191	-0.461287
C58	C	1.917565	0.961191	0.038713
C59	C	1.130613	0.225078	-0.447682
C60	C	1.630613	0.725078	0.052318
C61	C	1.136142	0.124470	-0.441901
C62	C	1.636142	0.624470	0.058099
C63	C	1.198572	0.979318	-0.375875
C64	C	1.698572	1.479318	0.124125
C65	C	1.193455	1.073850	-0.381340
C66	C	1.693455	1.573850	0.118660
C67	C	1.083942	1.080552	-0.497002
C68	C	1.583942	1.580552	0.002998
C69	C	1.089058	0.986019	-0.491537
C70	C	1.589058	1.486019	0.008463
C71	C	1.146374	0.935406	-0.430970
C72	C	1.646374	1.435406	0.069030
C73	C	1.151486	0.840872	-0.425501
C74	C	1.651486	1.340872	0.074499
C75	C	1.041977	0.847575	-0.541167
C76	C	1.541977	1.347575	-0.041167
C77	C	1.036861	0.942107	-0.546632
C78	C	1.536861	1.442107	-0.046632
C79	C	1.198553	0.375556	-0.980344
C80	C	1.698553	0.875556	-0.480344
C81	C	1.193418	0.380979	-1.074871
C82	C	1.693418	0.880979	-0.574871
C83	C	1.083928	0.496755	-1.081518
C84	C	1.583928	0.996755	-0.581518
C85	C	1.089064	0.491333	-0.986991
C86	C	1.589064	0.991333	-0.486991
C87	C	1.146379	0.430732	-0.936408
C88	C	1.646379	0.930732	-0.436408
C89	C	1.151517	0.425315	-0.841879
C90	C	1.651517	0.925315	-0.341879
C91	C	1.042025	0.541087	-0.848528
C92	C	1.542025	1.041087	-0.348528
C93	C	1.036889	0.546509	-0.943055
C94	C	1.536889	1.046509	-0.443055
C95	C	1.130470	0.447606	-0.226080
C96	C	1.630470	0.947606	0.273920
C97	C	1.136108	0.441577	-0.125461
C98	C	1.636108	0.941577	0.374539
H99	H	1.245235	0.938107	-0.326553
H100	H	1.745235	1.438107	0.173447
C101	C	0.974746	0.612276	-0.998140
C102	C	1.474746	1.112276	-0.498140
C103	C	0.981426	0.605231	-1.090328
C104	C	1.481426	1.105231	-0.590328
C105	C	0.924200	0.665812	-1.141097
C106	C	1.424200	1.165812	-0.641097
H107	H	0.922098	0.598207	-0.981993
H108	H	1.422098	1.098207	-0.481993
H109	H	0.984055	0.672227	-0.986201
H110	H	1.484055	1.172227	-0.486201
H111	H	0.972110	0.545293	-1.102261
H112	H	1.472110	1.045293	-0.602261
H113	H	1.034061	0.619308	-1.106502
H114	H	1.534061	1.119308	-0.606502
H115	H	0.933509	0.725763	-1.129159
H116	H	1.433509	1.225763	-0.629159
H117	H	0.871555	0.651738	-1.124942
H118	H	1.371555	1.151738	-0.624942
H119	H	0.928729	0.661046	-1.203652
H120	H	1.428729	1.161046	-0.703652
C121	C	1.213667	0.786023	-0.359606
C122	C	1.713667	1.286023	0.140394
C123	C	1.199817	0.803946	-0.271367
C124	C	1.699817	1.303946	0.228633
C125	C	1.257091	0.753448	-0.210642
C126	C	1.757091	1.253448	0.289358
H127	H	1.209298	0.723413	-0.364115
H128	H	1.709298	1.223413	0.135885
H129	H	1.266289	0.802236	-0.373754
H130	H	1.766289	1.302236	0.126246
H131	H	1.147208	0.787727	-0.257223
H132	H	1.647208	1.287727	0.242777
H133	H	1.204193	0.866547	-0.266829
H134	H	1.704193	1.366547	0.233171
H135	H	1.309713	0.769660	-0.224791
H136	H	1.809713	1.269660	0.275209
H137	H	1.252717	0.690840	-0.215159
H138	H	1.752717	1.190840	0.284841
H139	H	1.247706	0.765608	-0.150767
H140	H	1.747706	1.265608	0.349233
H141	H	0.999472	0.811812	-0.586026
H142	H	1.499472	1.311812	-0.086026
H143	H	1.235962	1.109599	-0.336478
H144	H	1.735962	1.609599	0.163522
C145	C	1.021746	1.135671	-0.562667
C146	C	1.521746	1.635671	-0.062667
C147	C	1.028431	1.227855	-0.555643
C148	C	1.528431	1.727855	-0.055643
C149	C	0.971141	1.278657	-0.616110
C150	C	1.471141	1.778657	-0.116110
H151	H	1.030971	1.123748	-0.622641
H152	H	1.530971	1.623748	-0.122641
H153	H	0.969118	1.119531	-0.548461
H154	H	1.469118	1.619531	-0.048461
H155	H	1.081046	1.243988	-0.569855
H156	H	1.581046	1.743988	-0.069855
H157	H	1.019198	1.239805	-0.495683
H158	H	1.519198	1.739805	0.004317
H159	H	0.918513	1.262517	-0.601905
H160	H	1.418513	1.762517	-0.101905
H161	H	0.980371	1.266726	-0.676080
H162	H	1.480371	1.766726	-0.176080
H163	H	0.975664	1.341208	-0.611347
H164	H	1.475664	1.841208	-0.111347
H165	H	1.245225	0.326218	-0.939158
H166	H	1.745225	0.826218	-0.439158
C167	C	1.250165	0.321031	-1.122409
C168	C	1.750165	0.821031	-0.622409
C169	C	1.301468	0.266818	-1.057875
C170	C	1.801468	0.766818	-0.557875
C171	C	1.353763	0.211589	-1.101633
C172	C	1.853763	0.711589	-0.601633
H173	H	1.219579	0.283628	-1.157013
H174	H	1.719579	0.783628	-0.657013
H175	H	1.281439	0.357751	-1.161257
H176	H	1.781439	0.857751	-0.661257
H177	H	1.270198	0.230102	-1.019043
H178	H	1.770198	0.730102	-0.519043
H179	H	1.332073	0.304198	-1.023267
H180	H	1.832073	0.804198	-0.523267
H181	H	1.385037	0.248308	-1.140481
H182	H	1.885037	0.748308	-0.640481
H183	H	1.323169	0.174191	-1.136236
H184	H	1.823169	0.674191	-0.636236
H185	H	1.388583	0.174805	-1.057854
H186	H	1.888583	0.674805	-0.557854
H187	H	1.037265	0.546093	-1.122720
H188	H	1.537265	1.046093	-0.622720
C189	C	0.974729	0.997026	-0.612534
C190	C	1.474729	1.497026	-0.112534
C191	C	0.988603	0.979139	-0.700778
C192	C	1.488603	1.479139	-0.200778
C193	C	0.931389	1.029721	-0.761511
C194	C	1.431389	1.529721	-0.261511
H195	H	0.922085	0.980878	-0.598455
H196	H	1.422085	1.480878	-0.098455
H197	H	0.979162	1.059627	-0.607961
H198	H	1.479162	1.559627	-0.107961
H199	H	0.984163	0.916552	-0.705348
H200	H	1.484163	1.416552	-0.205348
H201	H	1.041237	0.995291	-0.714885
H202	H	1.541237	1.495291	-0.214885
H203	H	0.935821	1.092322	-0.756938
H204	H	1.435821	1.592322	-0.256938
H205	H	0.878748	1.013568	-0.747424
H206	H	1.378748	1.513568	-0.247424
H207	H	0.940799	1.017598	-0.821392
H208	H	1.440799	1.517598	-0.321392
H209	H	1.198187	0.375973	-0.800695
H210	H	1.698187	0.875973	-0.300695
C211	C	0.985419	0.600890	-0.800656
C212	C	1.485419	1.100890	-0.300656
C213	C	1.002170	0.583161	-0.707045
C214	C	1.502170	1.083161	-0.207045
C215	C	0.950038	0.638227	-0.662917
C216	C	1.450038	1.138227	-0.162917
H217	H	0.992992	0.662625	-0.819542
H218	H	1.492992	1.162625	-0.319542
H219	H	0.931114	0.588521	-0.815325
H220	H	1.431114	1.088521	-0.315325
H221	H	1.056461	0.595537	-0.692383
H222	H	1.556461	1.095537	-0.192383
H223	H	0.994591	0.521436	-0.688133
H224	H	1.494591	1.021436	-0.188133
H225	H	0.895734	0.625858	-0.677586
H226	H	1.395734	1.125858	-0.177586
H227	H	0.957616	0.699959	-0.681810
H228	H	1.457616	1.199959	-0.181810
H229	H	0.961392	0.626200	-0.599397
H230	H	1.461392	1.126200	-0.099397
