data_functionalizedCrystal
_audit_creation_method	'MofGen! by Chris Wilmer'
_symmetry_space_group_name_H-M	'P1'
_symmetry_Int_Tables_number	1
_symmetry_cell_setting	triclinic
loop_
_symmetry_equiv_pos_as_xyz
  x,y,z
_cell_length_a	12.759395
_cell_length_b	11.169416
_cell_length_c	11.169409
_cell_angle_alpha	90.030874
_cell_angle_beta	89.979216
_cell_angle_gamma	89.988123
loop_
_atom_site_label
_atom_site_type_symbol
_atom_site_fract_x
_atom_site_fract_y
_atom_site_fract_z
Zn1	Zn	1.606303	0.477661	-0.678586
Zn2	Zn	1.606207	0.678401	-0.477908
Zn3	Zn	1.430601	0.477736	-0.477917
Zn4	Zn	1.430607	0.678306	-0.678549
O5	O	1.518429	0.578026	-0.578240
O6	O	1.753312	0.504298	-0.651977
O7	O	1.582869	0.651854	-0.309959
O8	O	1.453946	0.309776	-0.504555
O9	O	1.753240	0.651781	-0.504540
O10	O	1.583034	0.309721	-0.651986
O11	O	1.453852	0.504426	-0.309966
O12	O	1.283581	0.504334	-0.504520
O13	O	1.453957	0.651618	-0.846504
O14	O	1.283585	0.651692	-0.651923
O15	O	1.583040	0.504205	-0.846531
O16	O	1.582875	0.846338	-0.504504
O17	O	1.453863	0.846268	-0.651915
C18	C	1.245462	0.578011	-0.578219
C19	C	1.128685	0.578034	-0.578239
C20	C	1.128729	0.731726	-0.731482
C21	C	1.073890	0.808581	-0.808107
C22	C	0.964168	0.808596	-0.808122
C23	C	0.909283	0.731744	-0.731506
C24	C	0.964122	0.654889	-0.654881
C25	C	1.073846	0.654885	-0.654872
C26	C	0.964079	0.501193	-0.501645
C27	C	1.073800	0.501182	-0.501623
C28	C	0.909193	0.424341	-0.425029
C29	C	0.964032	0.347490	-0.348396
C30	C	1.073761	0.347480	-0.348384
C31	C	1.128639	0.424327	-0.424998
C32	C	1.518388	0.889851	-0.578231
C33	C	1.518466	1.023251	-0.578267
C34	C	1.518510	0.577893	-0.891282
C35	C	1.518545	0.577836	-1.024683
C36	C	1.792463	0.578042	-0.578261
C37	C	1.909240	0.578048	-0.578270
C38	C	1.518500	0.264984	-0.578275
C39	C	1.518530	0.131584	-0.578290
C40	C	1.518410	0.578072	-0.266415
C41	C	1.518579	0.577791	-0.133016
H42	H	0.819942	0.731753	-0.731535
H43	H	1.118404	0.284886	-0.285994
H44	H	1.218070	0.731731	-0.731469
N45	N	1.246981	0.424328	-0.424984
H46	H	1.273444	0.402370	-0.507354
H47	H	1.273315	0.363992	-0.364766
H48	H	0.919336	0.284918	-0.286027
H49	H	0.919519	0.871172	-0.870523
H50	H	1.118589	0.871150	-0.870488
N51	N	0.790852	0.424360	-0.425032
H52	H	0.764437	0.484714	-0.485190
H53	H	0.764487	0.446287	-0.342616
