data_functionalizedCrystal
_audit_creation_method	'MofGen! by Chris Wilmer'
_symmetry_space_group_name_H-M	'P1'
_symmetry_Int_Tables_number	1
_symmetry_cell_setting	triclinic
loop_
_symmetry_equiv_pos_as_xyz
  x,y,z
_cell_length_a	34.408637
_cell_length_b	34.407814
_cell_length_c	34.404193
_cell_angle_alpha	60.004510
_cell_angle_beta	60.009006
_cell_angle_gamma	59.994604
loop_
_atom_site_label
_atom_site_type_symbol
_atom_site_fract_x
_atom_site_fract_y
_atom_site_fract_z
O1	O	0.053973	-0.567860	0.474801
O2	O	0.553973	-0.067860	0.974801
O3	O	0.020377	-0.442124	0.382567
O4	O	0.520377	0.057876	0.882567
O5	O	0.100004	-0.521670	0.382483
O6	O	0.600004	-0.021670	0.882483
O7	O	-0.025653	-0.488314	0.474886
O8	O	0.474347	0.011686	0.974886
O9	O	0.126426	-0.495253	0.408816
O10	O	0.626426	0.004747	0.908816
O11	O	0.046800	-0.415707	0.408900
O12	O	0.546800	0.084293	0.908900
O13	O	0.080396	-0.541443	0.501134
O14	O	0.580396	-0.041443	1.001134
Zn15	Zn	0.067793	-0.474381	0.459198
Zn16	Zn	0.567793	0.025619	0.959198
Zn17	Zn	0.032980	-0.509186	0.424503
Zn18	Zn	0.532980	-0.009186	0.924503
O19	O	0.000769	-0.461897	0.501219
O20	O	0.500769	0.038103	1.001219
N21	N	0.091552	-0.450631	0.482879
N22	N	0.591552	0.049369	0.982879
N23	N	0.009225	-0.532940	0.400823
N24	N	0.509225	-0.032940	0.900823
C25	C	0.142848	-0.268847	0.534081
C26	C	0.642848	0.231153	1.034081
C27	C	0.142979	-0.399386	0.664559
C28	C	0.642979	0.100614	1.164559
C29	C	0.142862	-0.399365	0.534081
C30	C	0.642862	0.100635	1.034081
C31	C	0.273409	-0.399338	0.533986
C32	C	0.773409	0.100662	1.033986
C33	C	0.157225	-0.311914	0.548422
C34	C	0.657225	0.188086	1.048422
C35	C	0.157300	-0.385019	0.621491
C36	C	0.657300	0.114981	1.121491
C37	C	0.230339	-0.384991	0.548370
C38	C	0.730339	0.115009	1.048370
C39	C	0.157235	-0.385007	0.548422
C40	C	0.657235	0.114993	1.048422
C41	C	0.124548	-0.214028	0.515827
C42	C	0.624548	0.285972	1.015827
C43	C	0.124571	-0.417639	0.515827
C44	C	0.624571	0.082361	1.015827
C45	C	0.175526	-0.366733	0.566676
C46	C	0.675526	0.133267	1.066676
C47	C	0.353121	-0.385580	0.491988
C48	C	0.853121	0.114420	0.991988
C49	C	0.402952	-0.402180	0.475348
C50	C	0.902952	0.097820	0.975348
C51	C	0.402981	-0.482812	0.506096
C52	C	0.902981	0.017188	1.006096
C53	C	0.353151	-0.466211	0.522737
C54	C	0.853151	0.033789	1.022737
C55	C	0.136544	-0.189099	0.466839
C56	C	0.636544	0.310901	0.966839
C57	C	0.119905	-0.139265	0.450247
C58	C	0.619905	0.360735	0.950247
C59	C	0.079280	-0.139291	0.531632
C60	C	0.579280	0.360709	1.031632
C61	C	0.095918	-0.189125	0.548224
C62	C	0.595918	0.310875	1.048224
C63	C	0.075577	-0.405615	0.527900
C64	C	0.575577	0.094385	1.027900
C65	C	0.058953	-0.422228	0.511301
C66	C	0.558953	0.077772	1.011301
C67	C	0.140315	-0.462889	0.470566
C68	C	0.640315	0.037111	0.970566
C69	C	0.156941	-0.446276	0.487159
C70	C	0.656941	0.053724	0.987159
C71	C	0.075772	-0.405653	0.744326
C72	C	0.575772	0.094347	1.244326
C73	C	0.059206	-0.422280	0.794159
C74	C	0.559206	0.077720	1.294159
C75	C	0.140607	-0.462951	0.794094
C76	C	0.640607	0.037049	1.294094
C77	C	0.157172	-0.446325	0.744260
C78	C	0.657172	0.053675	1.244260
C79	C	0.124753	-0.417674	0.719377
C80	C	0.624753	0.082326	1.219377
C81	C	0.328223	-0.417595	0.515681
C82	C	0.828223	0.082405	1.015681
C83	C	-0.172390	-0.583988	0.349141
C84	C	0.327610	-0.083988	0.849141
C85	C	-0.041751	-0.584138	0.218783
C86	C	0.458249	-0.084138	0.718783
C87	C	-0.041941	-0.584130	0.349402
C88	C	0.458059	-0.084130	0.849402
C89	C	-0.041957	-0.714607	0.349338
C90	C	0.458043	-0.214607	0.849338
C91	C	-0.129326	-0.598388	0.334853
C92	C	0.370674	-0.098388	0.834853
C93	C	-0.056165	-0.598473	0.261852
C94	C	0.443835	-0.098473	0.761852
C95	C	-0.056282	-0.671535	0.334962
C96	C	0.443718	-0.171535	0.834962
C97	C	-0.056272	-0.598469	0.334999
C98	C	0.443728	-0.098469	0.834999
C99	C	-0.227205	-0.565659	0.367327
C100	C	0.272795	-0.065659	0.867327
C101	C	-0.023703	-0.565882	0.367734
C102	C	0.476297	-0.065882	0.867734
C103	C	-0.074511	-0.616717	0.316667
C104	C	0.425489	-0.116717	0.816667
C105	C	-0.055754	-0.794298	0.391257
C106	C	0.444246	-0.294298	0.891257
C107	C	-0.039181	-0.844132	0.407888
C108	C	0.460819	-0.344132	0.907888
C109	C	0.041447	-0.844215	0.377269
C110	C	0.541447	-0.344215	0.877269
C111	C	0.024873	-0.794381	0.360637
C112	C	0.524873	-0.294381	0.860637
C113	C	-0.252183	-0.577666	0.416302
C114	C	0.247817	-0.077666	0.916302
C115	C	-0.302014	-0.561001	0.432833
C116	C	0.197986	-0.061001	0.932833
C117	C	-0.301886	-0.520329	0.351410
C118	C	0.198114	-0.020329	0.851410
C119	C	-0.252055	-0.536994	0.334880
C120	C	0.247945	-0.036994	0.834880
C121	C	-0.035709	-0.516892	0.355682
C122	C	0.464291	-0.016892	0.855682
C123	C	-0.019129	-0.500308	0.372353
C124	C	0.480871	-0.000308	0.872353
C125	C	0.021465	-0.581700	0.413115
C126	C	0.521465	-0.081700	0.913115
C127	C	0.004884	-0.598286	0.396450
C128	C	0.504884	-0.098286	0.896450
C129	C	-0.035389	-0.516907	0.139026
C130	C	0.464611	-0.016907	0.639026
C131	C	-0.018707	-0.500324	0.089193
C132	C	0.481293	-0.000324	0.589193
C133	C	0.021949	-0.581721	0.089240
C134	C	0.521949	-0.081721	0.589240
C135	C	0.005268	-0.598303	0.139074
C136	C	0.505268	-0.098303	0.639074
C137	C	-0.023402	-0.565894	0.163965
C138	C	0.476598	-0.065894	0.663965
C139	C	-0.023728	-0.769425	0.367633
C140	C	0.476272	-0.269425	0.867633
N141	N	0.427173	-0.450553	0.482630
N142	N	0.927173	0.049447	0.982630
O143	O	0.589997	-0.458460	0.365361
O144	O	1.089997	0.041540	0.865361
O145	O	0.590185	-0.550997	0.490963
O146	O	1.090185	-0.050997	0.990963
O147	O	0.590104	-0.550786	0.411309
O148	O	1.090104	-0.050786	0.911309
O149	O	0.590077	-0.458671	0.445016
O150	O	1.090077	0.041329	0.945016
O151	O	0.510940	-0.524462	0.437777
O152	O	1.010940	-0.024462	0.937777
O153	O	0.511020	-0.524674	0.517432
O154	O	1.011020	-0.024674	1.017432
O155	O	0.510832	-0.432136	0.391830
O156	O	1.010832	0.067864	0.891830
Zn157	Zn	0.498357	-0.474225	0.458833
Zn158	Zn	0.998357	0.025775	0.958833
Zn159	Zn	0.602660	-0.508908	0.423960
Zn160	Zn	1.102660	-0.008908	0.923960
O161	O	0.510913	-0.432348	0.471484
O162	O	1.010913	0.067652	0.971484
N163	N	0.673844	-0.532580	0.400158
N164	N	1.173844	-0.032580	0.900158
N165	N	0.091520	-0.115070	0.482873
N166	N	0.591520	0.384930	0.982873
O167	O	-0.025663	0.047841	0.474857
O168	O	0.474337	0.547841	0.974857
O169	O	0.099940	0.047877	0.382299
O170	O	0.599940	0.547877	0.882299
O171	O	0.020247	0.047844	0.382560
O172	O	0.520247	0.547844	0.882560
O173	O	0.054030	0.047874	0.474596
O174	O	0.554030	0.547874	0.974596
O175	O	0.046674	-0.031326	0.408942
O176	O	0.546674	0.468674	0.908942
O177	O	0.126367	-0.031293	0.408680
O178	O	0.626367	0.468707	0.908680
O179	O	0.000764	-0.031329	0.501238
O180	O	0.500764	0.468671	1.001238
Zn181	Zn	0.067761	-0.043881	0.459148
Zn182	Zn	0.567761	0.456119	0.959148
Zn183	Zn	0.032943	0.060429	0.424389
Zn184	Zn	0.532943	0.560429	0.924389
O185	O	0.080457	-0.031296	0.500977
O186	O	0.580457	0.468704	1.000977
N187	N	0.009178	0.131618	0.400665
N188	N	0.509178	0.631618	0.900665
N189	N	0.091852	-0.450680	0.818332
N190	N	0.591852	0.049320	1.318332
O191	O	0.083862	-0.567845	0.981235
O192	O	0.583862	-0.067845	1.481235
O193	O	-0.008657	-0.442198	0.981276
O194	O	0.491343	0.057802	1.481276
O195	O	-0.008441	-0.521875	0.981252
O196	O	0.491559	-0.021875	1.481252
O197	O	0.083646	-0.488168	0.981258
O198	O	0.583646	0.011832	1.481258
O199	O	0.017919	-0.495468	0.902085
O200	O	0.517919	0.004532	1.402085
O201	O	0.017703	-0.415791	0.902109
O202	O	0.517703	0.084209	1.402109
O203	O	0.110222	-0.541438	0.902067
O204	O	0.610222	-0.041438	1.402067
Zn205	Zn	0.068148	-0.474422	0.889518
Zn206	Zn	0.568148	0.025578	1.389518
Zn207	Zn	0.033417	-0.509214	0.993825
Zn208	Zn	0.533417	-0.009214	1.493825
O209	O	0.110006	-0.461761	0.902091
O210	O	0.610006	0.038239	1.402091
N211	N	0.009712	-0.532961	1.065011
N212	N	0.509712	-0.032961	1.565011
C213	C	0.030439	-0.413071	0.383027
C214	C	0.530439	0.086929	0.883027
C215	C	0.129046	-0.511580	0.382922
C216	C	0.629046	-0.011580	0.882922
C217	C	0.070334	-0.570496	0.500675
C218	C	0.570334	-0.070496	1.000675
C219	C	-0.028274	-0.471987	0.500780
C220	C	0.471726	0.028013	1.000780
C221	C	0.550625	-0.550579	0.520021
C222	C	1.050625	-0.050579	1.020021
C223	C	0.550527	-0.550317	0.421379
C224	C	1.050527	-0.050317	0.921379
C225	C	0.550389	-0.432554	0.362773
C226	C	1.050389	0.067446	0.862773
C227	C	0.550491	-0.432816	0.461414
C228	C	1.050491	0.067184	0.961414
C229	C	0.128944	0.008394	0.382712
C230	C	0.628944	0.508394	0.882712
C231	C	0.030287	0.008256	0.383068
C232	C	0.530287	0.508256	0.883068
C233	C	-0.028273	0.008252	0.500793
C234	C	0.471727	0.508252	1.000793
C235	C	0.070417	0.008292	0.500470
C236	C	0.570417	0.508292	1.000470
C237	C	-0.008218	-0.413165	0.941698
C238	C	0.491782	0.086835	1.441698
C239	C	-0.007945	-0.511830	0.941653
C240	C	0.492055	-0.011830	1.441653
C241	C	0.109783	-0.570471	0.941646
C242	C	0.609783	-0.070471	1.441646
C243	C	0.109516	-0.471800	0.941673
C244	C	0.609516	0.028200	1.441673
H245	H	0.019320	-0.412483	0.814467
H246	H	0.519320	0.087517	1.314467
O247	O	-0.042859	-0.370096	0.941627
O248	O	0.457141	0.129904	1.441627
C249	C	-0.055660	-0.349029	0.900635
C250	C	0.444340	0.150971	1.400635
H251	H	-0.025093	-0.364771	0.871970
H252	H	0.474907	0.135229	1.371970
H253	H	-0.088705	-0.356308	0.909906
H254	H	0.411295	0.143692	1.409906
C255	C	-0.103840	-0.275583	0.917264
C256	C	0.396160	0.224417	1.417264
C257	C	-0.066295	-0.294915	0.882055
C258	C	0.433705	0.205085	1.382055
H259	H	-0.110402	-0.242203	0.905804
H260	H	0.389598	0.257797	1.405804
H261	H	-0.095217	-0.289776	0.944882
H262	H	0.404783	0.210224	1.444882
H263	H	-0.131373	-0.281653	0.924986
H264	H	0.368627	0.218347	1.424986
H265	H	-0.038761	-0.288849	0.874338
H266	H	0.461239	0.211151	1.374338
H267	H	-0.074913	-0.280719	0.854435
H268	H	0.425087	0.219281	1.354435
H269	H	0.023260	-0.376951	0.354059
H270	H	0.523260	0.123049	0.854059
O271	O	0.144454	-0.613521	0.941694
O272	O	0.644454	-0.113521	1.441694
C273	C	0.157239	-0.634602	0.982698
C274	C	0.657239	-0.134602	1.482698
H275	H	0.147593	-0.605739	0.996379
H276	H	0.647593	-0.105739	1.496379
H277	H	0.137268	-0.660580	1.011403
H278	H	0.637268	-0.160580	1.511403
C279	C	0.223059	-0.696979	0.953427
C280	C	0.723059	-0.196979	1.453427
C281	C	0.211215	-0.661528	0.970228
C282	C	0.711215	-0.161528	1.470228
H283	H	0.256354	-0.713590	0.945737
H284	H	0.756354	-0.213590	1.445737
H285	H	0.214445	-0.682778	0.925803
H286	H	0.714445	-0.182778	1.425803
H287	H	0.206413	-0.718623	0.977351
H288	H	0.706413	-0.218623	1.477351
H289	H	0.227857	-0.639882	0.946302
H290	H	0.727857	-0.139882	1.446302
H291	H	0.219834	-0.675726	0.997849
H292	H	0.719834	-0.175726	1.497849
H293	H	0.015032	-0.638195	0.159378
H294	H	0.515032	-0.138195	0.659378
H295	H	-0.036863	-0.519031	0.941619
H296	H	0.463137	-0.019031	1.441619
O297	O	0.550502	-0.398248	0.469928
O298	O	1.050502	0.101752	0.969928
C299	C	0.550423	-0.357153	0.429070
C300	C	1.050423	0.142847	0.929070
H301	H	0.565382	-0.367537	0.396339
H302	H	1.065382	0.132463	0.896339
H303	H	0.512427	-0.331289	0.432953
H304	H	1.012427	0.168711	0.932953
C305	C	0.563083	-0.320422	0.463612
C306	C	1.063083	0.179578	0.963612
C307	C	0.581460	-0.333176	0.423410
C308	C	1.081460	0.166824	0.923410
H309	H	0.582226	-0.305630	0.460120
H310	H	1.082226	0.194370	0.960120
H311	H	0.563135	-0.348107	0.491139
H312	H	1.063135	0.151893	0.991139
H313	H	0.531420	-0.298870	0.466842
H314	H	1.031420	0.201130	0.966842
H315	H	0.613120	-0.354731	0.420183
H316	H	1.113120	0.145269	0.920183
H317	H	0.581414	-0.305493	0.395882
H318	H	1.081414	0.194507	0.895882
O319	O	0.550772	-0.585251	0.563035
O320	O	1.050772	-0.085251	1.063035
C321	C	0.591785	-0.596266	0.571543
C322	C	1.091785	-0.096266	1.071543
H323	H	0.620405	-0.585702	0.536196
H324	H	1.120405	-0.085702	1.036196
H325	H	0.582522	-0.575878	0.594551
H326	H	1.082522	-0.075878	1.094551
C327	C	0.575286	-0.663086	0.640920
C328	C	1.075286	-0.163086	1.140920
C329	C	0.610439	-0.650115	0.597505
C330	C	1.110439	-0.150115	1.097505
H331	H	0.586792	-0.696301	0.656937
H332	H	1.086792	-0.196301	1.156937
H333	H	0.547654	-0.655664	0.635189
H334	H	1.047654	-0.155664	1.135189
H335	H	0.567570	-0.646091	0.660088
H336	H	1.067570	-0.146091	1.160088
H337	H	0.618149	-0.667104	0.578337
H338	H	1.118149	-0.167104	1.078337
H339	H	0.638073	-0.657541	0.603234
H340	H	1.138073	-0.157541	1.103234
O341	O	0.021649	0.008327	0.348532
O342	O	0.521649	0.508327	0.848532
C343	C	0.026915	0.049325	0.308382
C344	C	0.526915	0.549325	0.808382
H345	H	0.021767	0.077993	0.319761
H346	H	0.521767	0.577993	0.819761
H347	H	0.064071	0.040062	0.281398
H348	H	0.564071	0.540062	0.781398
C349	C	-0.004247	0.032687	0.271631
C350	C	0.495753	0.532687	0.771631
C351	C	-0.010574	0.067899	0.285607
C352	C	0.489426	0.567899	0.785607
H353	H	-0.027370	0.044143	0.257580
H354	H	0.472630	0.544143	0.757580
H355	H	-0.007793	0.005065	0.298680
H356	H	0.492207	0.505065	0.798680
H357	H	0.026718	0.024971	0.249146
H358	H	0.526718	0.524971	0.749146
H359	H	-0.041536	0.075610	0.308095
H360	H	0.458464	0.575610	0.808095
H361	H	-0.007034	0.095523	0.258561
H362	H	0.492966	0.595523	0.758561
O363	O	0.171905	0.008692	0.348003
O364	O	0.671905	0.508692	0.848003
C365	C	0.201521	0.008785	0.365087
C366	C	0.701521	0.508785	0.865087
H367	H	0.178632	0.023614	0.395756
H368	H	0.678632	0.523614	0.895756
H369	H	0.225747	-0.029143	0.378129
H370	H	0.725747	0.470857	0.878129
C371	C	0.260181	0.021877	0.287035
C372	C	0.760181	0.521877	0.787035
C373	C	0.232068	0.040094	0.324701
C374	C	0.732068	0.540094	0.824701
H375	H	0.279026	0.041188	0.262122
H376	H	0.779026	0.541188	0.762122
H377	H	0.240230	0.021812	0.275525
H378	H	0.740230	0.521812	0.775525
H379	H	0.280365	-0.009730	0.297909
H380	H	0.780365	0.490270	0.797909
H381	H	0.211881	0.071698	0.313827
H382	H	0.711881	0.571698	0.813827
H383	H	0.252017	0.040165	0.336208
H384	H	0.752017	0.540165	0.836208
O385	O	0.044113	-0.377727	0.555672
O386	O	0.544113	0.122273	1.055672
C387	C	0.015265	-0.335938	0.530538
C388	C	0.515265	0.164062	1.030538
H389	H	0.034478	-0.329000	0.490666
H390	H	0.534478	0.171000	0.990666
H391	H	-0.019744	-0.340474	0.541168
H392	H	0.480256	0.159526	1.041168
C393	C	-0.018509	-0.302059	0.591555
C394	C	0.481491	0.197941	1.091555
C395	C	0.005091	-0.293535	0.542583
C396	C	0.505091	0.206465	1.042583
H397	H	-0.024787	-0.275903	0.598986
H398	H	0.475213	0.224097	1.098986
H399	H	0.000925	-0.330213	0.608489
H400	H	0.500925	0.169787	1.108489
H401	H	-0.047680	-0.305840	0.600408
H402	H	0.452320	0.194160	1.100408
H403	H	0.034264	-0.289760	0.533733
H404	H	0.534264	0.210240	1.033733
H405	H	-0.014339	-0.265379	0.525648
H406	H	0.485661	0.234621	1.025648
O407	O	0.079134	0.008271	0.534925
O408	O	0.579134	0.508271	1.034925
C409	C	0.125920	0.008296	0.517561
C410	C	0.625920	0.508296	1.017561
H411	H	0.148422	-0.006684	0.486998
H412	H	0.648422	0.493316	0.986998
H413	H	0.125208	0.046281	0.504285
H414	H	0.625208	0.546281	1.004285
C415	C	0.119955	-0.004356	0.595348
C416	C	0.619955	0.495644	1.095348
C417	C	0.147593	-0.022758	0.557814
C418	C	0.647593	0.477242	1.057814
H419	H	0.133324	-0.023510	0.620178
H420	H	0.633324	0.476490	1.120178
H421	H	0.088434	-0.004371	0.607047
H422	H	0.588434	0.495629	1.107047
H423	H	0.119364	0.027297	0.584279
H424	H	0.619364	0.527297	1.084279
H425	H	0.148179	-0.054408	0.568882
H426	H	0.648179	0.445592	1.068882
H427	H	0.179116	-0.022749	0.546118
H428	H	0.679116	0.477251	1.046118
H429	H	0.550329	-0.403500	0.326702
H430	H	1.050329	0.096500	0.826702
H431	H	0.138447	-0.464586	0.941669
H432	H	0.638447	0.035414	1.441669
O433	O	0.044214	-0.377842	0.720231
O434	O	0.544214	0.122158	1.220231
C435	C	-0.002570	-0.370786	0.752939
C436	C	0.497430	0.129214	1.252939
H437	H	-0.002445	-0.400839	0.788451
H438	H	0.497555	0.099161	1.288451
H439	H	-0.016847	-0.335290	0.758250
H440	H	0.483153	0.164710	1.258250
C441	C	-0.034712	-0.333523	0.689906
C442	C	0.465288	0.166477	1.189906
C443	C	-0.034559	-0.370436	0.733521
C444	C	0.465441	0.129564	1.233521
H445	H	-0.054445	-0.333305	0.677928
H446	H	0.445555	0.166695	1.177928
H447	H	-0.003192	-0.338275	0.667870
H448	H	0.496808	0.161725	1.167870
H449	H	-0.046608	-0.303947	0.694338
H450	H	0.453392	0.196053	1.194338
H451	H	-0.022657	-0.400012	0.729088
H452	H	0.477343	0.099988	1.229088
H453	H	-0.066077	-0.365689	0.755557
H454	H	0.433923	0.134311	1.255557
O455	O	0.172163	-0.490791	0.818192
O456	O	0.672163	0.009209	1.318192
C457	C	0.218948	-0.497826	0.785486
C458	C	0.718948	0.002174	1.285486
H459	H	0.218826	-0.492246	0.749971
H460	H	0.718826	0.007754	1.249971
H461	H	0.233223	-0.471301	0.780181
H462	H	0.733223	0.028699	1.280181
C463	C	0.251086	-0.555733	0.848519
C464	C	0.751086	-0.055733	1.348519
C465	C	0.250937	-0.548884	0.804901
C466	C	0.750937	-0.048884	1.304901
H467	H	0.270820	-0.587227	0.860496
H468	H	0.770820	-0.087227	1.360496
H469	H	0.219566	-0.550992	0.870555
H470	H	0.719566	-0.050992	1.370555
H471	H	0.262981	-0.533626	0.844093
H472	H	0.762981	-0.033626	1.344093
H473	H	0.239037	-0.570987	0.809329
H474	H	0.739037	-0.070987	1.309329
H475	H	0.282456	-0.553629	0.782867
H476	H	0.782456	-0.053629	1.282867
H477	H	-0.064344	0.008241	0.529850
H478	H	0.435656	0.508241	1.029850
H479	H	0.165136	-0.518689	0.353905
H480	H	0.665136	-0.018689	0.853905
O481	O	-0.071309	-0.463598	0.535442
O482	O	0.428691	0.036402	1.035442
C483	C	-0.071332	-0.504535	0.576459
C484	C	0.428668	-0.004535	1.076459
H485	H	-0.043164	-0.537202	0.565961
H486	H	0.456836	-0.037202	1.065961
H487	H	-0.063017	-0.500710	0.602315
H488	H	0.436983	-0.000710	1.102315
C489	C	-0.155241	-0.470170	0.613410
C490	C	0.344759	0.029830	1.113410
C491	C	-0.120646	-0.510293	0.600516
C492	C	0.379354	-0.010293	1.100516
H493	H	-0.185660	-0.473721	0.628251
H494	H	0.314340	0.026279	1.128251
H495	H	-0.155225	-0.442590	0.585778
H496	H	0.344775	0.057410	1.085778
H497	H	-0.148305	-0.466987	0.634955
H498	H	0.351695	0.033013	1.134955
H499	H	-0.127579	-0.513472	0.578967
H500	H	0.372421	-0.013472	1.078967
H501	H	-0.120664	-0.537874	0.628145
H502	H	0.379336	-0.037874	1.128145
O503	O	0.078816	-0.613587	0.535253
O504	O	0.578816	-0.113587	1.035253
C505	C	0.046166	-0.634742	0.548074
C506	C	0.546166	-0.134742	1.048074
H507	H	0.013194	-0.605916	0.538547
H508	H	0.513194	-0.105916	1.038547
H509	H	0.063406	-0.660661	0.528029
H510	H	0.563406	-0.160661	1.028029
C511	C	0.072247	-0.697180	0.613728
C512	C	0.572247	-0.197180	1.113728
C513	C	0.031749	-0.661775	0.602031
C514	C	0.531749	-0.161775	1.102031
H515	H	0.063356	-0.713858	0.647010
H516	H	0.563356	-0.213858	1.147010
H517	H	0.094246	-0.682930	0.605089
H518	H	0.594246	-0.182930	1.105089
H519	H	0.086610	-0.718775	0.597020
H520	H	0.586610	-0.218775	1.097020
H521	H	0.017391	-0.640179	0.618734
H522	H	0.517391	-0.140179	1.118734
H523	H	0.009748	-0.676023	0.610674
H524	H	0.509748	-0.176023	1.110674
H525	H	0.197059	-0.456117	0.723950
H526	H	0.697059	0.043883	1.223950
H527	H	0.019058	-0.412426	0.521121
H528	H	0.519058	0.087574	1.021121
O529	O	0.550455	-0.584798	0.412783
O530	O	1.050455	-0.084798	0.912783
C531	C	0.509434	-0.568424	0.401612
C532	C	1.009434	-0.068424	0.901612
H533	H	0.480771	-0.538882	0.416999
H534	H	0.980771	-0.038882	0.916999
H535	H	0.518655	-0.554051	0.361304
H536	H	1.018655	-0.054051	0.861304
C537	C	0.526092	-0.646143	0.404172
C538	C	1.026092	-0.146143	0.904172
C539	C	0.490886	-0.609862	0.423075
C540	C	0.990886	-0.109862	0.923075
H541	H	0.514652	-0.671704	0.417410
H542	H	1.014652	-0.171704	0.917410
H543	H	0.553730	-0.657174	0.411697
H544	H	1.053730	-0.157174	0.911697
H545	H	0.533773	-0.634159	0.370583
H546	H	1.033773	-0.134159	0.870583
H547	H	0.483210	-0.621844	0.456663
H548	H	0.983210	-0.121844	0.956663
H549	H	0.463247	-0.598834	0.415556
H550	H	0.963247	-0.098834	0.915556
O551	O	0.171784	-0.490638	0.442651
O552	O	0.671784	0.009362	0.942651
C553	C	0.200569	-0.465462	0.400856
C554	C	0.700569	0.034538	0.900856
H555	H	0.181310	-0.425595	0.393944
H556	H	0.681310	0.074405	0.893944
H557	H	0.235591	-0.476064	0.405359
H558	H	0.735591	0.023936	0.905359
C559	C	0.234374	-0.526458	0.366941
C560	C	0.734374	-0.026458	0.866941
C561	C	0.210718	-0.477493	0.358450
C562	C	0.710718	0.022507	0.858450
H563	H	0.240637	-0.533881	0.340784
H564	H	0.740637	-0.033881	0.840784
H565	H	0.214982	-0.543421	0.395101
H566	H	0.714982	-0.043421	0.895101
H567	H	0.263556	-0.535288	0.370695
H568	H	0.763556	-0.035288	0.870695
H569	H	0.181534	-0.468666	0.354702
H570	H	0.681534	0.031334	0.854702
H571	H	0.230105	-0.460529	0.330289
H572	H	0.730105	0.039471	0.830289
O573	O	0.204519	-0.457894	0.475462
O574	O	0.704519	0.042106	0.975462
C575	C	0.212253	-0.437101	0.496268
C576	C	0.712253	0.062899	0.996268
H577	H	0.179549	-0.405119	0.503805
H578	H	0.679549	0.094881	1.003805
H579	H	0.218929	-0.464370	0.531015
H580	H	0.718929	0.035630	1.031015
C581	C	0.296026	-0.460037	0.452619
C582	C	0.796026	0.039963	0.952619
C583	C	0.255860	-0.420753	0.461872
C584	C	0.755860	0.079247	0.961872
H585	H	0.322927	-0.449954	0.431403
H586	H	0.822927	0.050046	0.931403
H587	H	0.290817	-0.474047	0.438602
H588	H	0.790817	0.025953	0.938602
H589	H	0.301584	-0.482757	0.481578
H590	H	0.801584	0.017243	0.981578
H591	H	0.250300	-0.398037	0.432914
H592	H	0.750300	0.101963	0.932914
H593	H	0.261070	-0.406739	0.475883
H594	H	0.761070	0.093261	0.975883
O595	O	0.328992	-0.497323	0.545674
O596	O	0.828992	0.002677	1.045674
C597	C	0.341162	-0.520662	0.515177
C598	C	0.841162	-0.020662	1.015177
H599	H	0.354826	-0.497961	0.476600
H600	H	0.854826	0.002039	0.976600
H601	H	0.370108	-0.556619	0.523189
H602	H	0.870108	-0.056619	1.023189
C603	C	0.280116	-0.556129	0.570534
C604	C	0.780116	-0.056129	1.070534
C605	C	0.296894	-0.528246	0.523152
C606	C	0.796894	-0.028246	1.023152
H607	H	0.252810	-0.560810	0.575454
H608	H	0.752810	-0.060810	1.075454
H609	H	0.271917	-0.540407	0.591081
H610	H	0.771917	-0.040407	1.091081
H611	H	0.304242	-0.586090	0.577204
H612	H	0.804242	-0.086090	1.077204
H613	H	0.272770	-0.498284	0.516484
H614	H	0.772770	0.001716	1.016484
H615	H	0.305087	-0.543963	0.502604
H616	H	0.805087	-0.043963	1.002604
O617	O	0.427249	-0.530033	0.512974
O618	O	0.927249	-0.030033	1.012974
C619	C	0.456096	-0.547300	0.540060
C620	C	0.956096	-0.047300	1.040060
H621	H	0.463557	-0.516534	0.536149
H622	H	0.963557	-0.016534	1.036149
H623	H	0.436922	-0.564475	0.579115
H624	H	0.936922	-0.064475	1.079115
C625	C	0.494266	-0.622310	0.526974
C626	C	0.994266	-0.122310	1.026974
C627	C	0.503434	-0.584522	0.522168
C628	C	1.003434	-0.084522	1.022168
H629	H	0.523465	-0.645272	0.515939
H630	H	1.023465	-0.145272	1.015939
H631	H	0.474830	-0.610678	0.508727
H632	H	0.974830	-0.110678	1.008727
H633	H	0.478287	-0.636617	0.559520
H634	H	0.978287	-0.136617	1.059520
H635	H	0.519407	-0.570212	0.489621
H636	H	1.019407	-0.070212	0.989621
H637	H	0.522874	-0.596153	0.540408
H638	H	1.022874	-0.096153	1.040408
O639	O	0.427068	-0.371013	0.452321
O640	O	0.927068	0.128987	0.952321
C641	C	0.394381	-0.324544	0.449671
C642	C	0.894381	0.175456	0.949671
H643	H	0.358851	-0.322609	0.452963
H644	H	0.858851	0.177391	0.952963
H645	H	0.389109	-0.315243	0.479856
H646	H	0.889109	0.184757	0.979856
C647	C	0.457431	-0.291340	0.397512
C648	C	0.957431	0.208660	0.897512
C649	C	0.413794	-0.288962	0.401551
C650	C	0.913794	0.211038	0.901551
H651	H	0.469406	-0.269390	0.367830
H652	H	0.969406	0.230610	0.867830
H653	H	0.479453	-0.322647	0.399298
H654	H	0.979453	0.177353	0.899298
H655	H	0.453032	-0.283589	0.422668
H656	H	0.953032	0.216411	0.922668
H657	H	0.418195	-0.296718	0.376398
H658	H	0.918195	0.203282	0.876398
H659	H	0.391773	-0.257655	0.399759
H660	H	0.891773	0.242345	0.899759
H661	H	0.332825	-0.345993	0.486242
H662	H	0.832825	0.154007	0.986242
H663	H	0.129672	-0.118967	0.410356
H664	H	0.629672	0.381033	0.910356
O665	O	0.164282	-0.213267	0.435349
O666	O	0.664282	0.286733	0.935349
C667	C	0.139090	-0.201083	0.406559
C668	C	0.639090	0.298917	0.906559
H669	H	0.099229	-0.187399	0.425827
H670	H	0.599229	0.312601	0.925827
H671	H	0.149667	-0.172145	0.371548
H672	H	0.649667	0.327855	0.871548
C673	C	0.200090	-0.262155	0.372711
C674	C	0.700090	0.237845	0.872711
C675	C	0.151131	-0.245352	0.396378
C676	C	0.651131	0.254648	0.896378
H677	H	0.207519	-0.289462	0.366429
H678	H	0.707519	0.210538	0.866429
H679	H	0.217064	-0.270363	0.392106
H680	H	0.717064	0.229637	0.892106
H681	H	0.208898	-0.238037	0.343538
H682	H	0.708898	0.261963	0.843538
H683	H	0.142326	-0.269468	0.425553
H684	H	0.642326	0.230532	0.925553
H685	H	0.134156	-0.237150	0.376988
H686	H	0.634156	0.262850	0.876988
O687	O	0.051460	-0.115172	0.563167
O688	O	0.551460	0.384828	1.063167
C689	C	0.044458	-0.147863	0.609964
C690	C	0.544458	0.352137	1.109964
H691	H	0.050030	-0.183386	0.609874
H692	H	0.550030	0.316614	1.109874
H693	H	0.071003	-0.153156	0.624212
H694	H	0.571003	0.346844	1.124212
C695	C	-0.013423	-0.084803	0.642067
C696	C	0.486577	0.415197	1.142067
C697	C	-0.006582	-0.128433	0.641957
C698	C	0.493418	0.371567	1.141957
H699	H	-0.044905	-0.072818	0.661803
H700	H	0.455095	0.427182	1.161803
H701	H	-0.008704	-0.062779	0.610539
H702	H	0.491296	0.437221	1.110539
H703	H	0.008702	-0.089220	0.653940
H704	H	0.508702	0.410780	1.153940
H705	H	-0.028702	-0.124015	0.630080
H706	H	0.471298	0.375985	1.130080
H707	H	-0.011306	-0.150457	0.673484
H708	H	0.488694	0.349543	1.173484
H709	H	0.086148	-0.209418	0.588113
H710	H	0.586148	0.290582	1.088113
H711	H	-0.028474	-0.460433	0.068892
H712	H	0.471526	0.039567	0.568892
H713	H	0.045284	-0.608113	0.068976
H714	H	0.545284	-0.108113	0.568976
O715	O	-0.063173	-0.485404	0.163180
O716	O	0.436827	0.014596	0.663180
C717	C	-0.038009	-0.456617	0.151046
C718	C	0.461991	0.043383	0.651046
H719	H	0.001858	-0.475896	0.137411
H720	H	0.501858	0.024104	0.637411
H721	H	-0.048566	-0.421610	0.122088
H722	H	0.451434	0.078390	0.622088
C723	C	-0.099083	-0.422741	0.212073
C724	C	0.400917	0.077259	0.712073
C725	C	-0.050116	-0.446421	0.195331
C726	C	0.449884	0.053579	0.695331
H727	H	-0.106552	-0.416449	0.239389
H728	H	0.393448	0.083551	0.739389
H729	H	-0.116037	-0.442133	0.220247
H730	H	0.383963	0.057867	0.720247
H731	H	-0.107874	-0.393571	0.187937
H732	H	0.392126	0.106429	0.687937
H733	H	-0.041327	-0.475593	0.219464
H734	H	0.458673	0.024407	0.719464
H735	H	-0.033161	-0.427033	0.187162
H736	H	0.466839	0.072967	0.687162
O737	O	-0.063494	-0.485350	0.327814
O738	O	0.436506	0.014650	0.827814
C739	C	-0.070529	-0.438554	0.320749
C740	C	0.429471	0.061446	0.820749
H741	H	-0.065008	-0.438649	0.350828
H742	H	0.434992	0.061351	0.850828
H743	H	-0.043966	-0.424309	0.285280
H744	H	0.456034	0.075691	0.785280
C745	C	-0.128334	-0.406435	0.283368
C746	C	0.371666	0.093565	0.783368
C747	C	-0.121557	-0.406551	0.320314
C748	C	0.378443	0.093449	0.820314
H749	H	-0.159810	-0.386694	0.283097
H750	H	0.340190	0.113306	0.783097
H751	H	-0.123594	-0.437963	0.288126
H752	H	0.376406	0.062037	0.788126
H753	H	-0.106195	-0.394566	0.253814
H754	H	0.393805	0.105434	0.753814
H755	H	-0.143691	-0.418427	0.349867
H756	H	0.356309	0.081573	0.849867
H757	H	-0.126302	-0.375025	0.315560
H758	H	0.373698	0.124975	0.815560
H759	H	-0.028907	-0.460416	0.362542
H760	H	0.471093	0.039584	0.862542
O761	O	0.049308	-0.613161	0.440939
O762	O	0.549308	-0.113161	0.940939
C763	C	0.093620	-0.606030	0.418367
C764	C	0.593620	-0.106030	0.918367
H765	H	0.100526	-0.587960	0.378408
H766	H	0.600526	-0.087960	0.878408
H767	H	0.093156	-0.582517	0.433084
H768	H	0.593156	-0.082517	0.933084
C769	C	0.124839	-0.676606	0.476888
C770	C	0.624839	-0.176606	0.976888
C771	C	0.133323	-0.654416	0.427808
C772	C	0.633323	-0.154416	0.927808
H773	H	0.149329	-0.706452	0.482713
H774	H	0.649329	-0.206452	0.982713
H775	H	0.094984	-0.681410	0.492097
H776	H	0.594984	-0.181410	0.992097
H777	H	0.124451	-0.657008	0.489146
H778	H	0.624451	-0.157008	0.989146
H779	H	0.133704	-0.674012	0.415552
H780	H	0.633704	-0.174012	0.915552
H781	H	0.163178	-0.649617	0.412598
H782	H	0.663178	-0.149617	0.912598
H783	H	0.014660	-0.638178	0.406265
H784	H	0.514660	-0.138178	0.906265
H785	H	0.081021	-0.864532	0.371574
H786	H	0.581021	-0.364532	0.871574
O787	O	0.056047	-0.770295	0.337717
O788	O	0.556047	-0.270295	0.837717
C789	C	0.102497	-0.803013	0.335103
C790	C	0.602497	-0.303013	0.835103
H791	H	0.100556	-0.838521	0.364536
H792	H	0.600556	-0.338521	0.864536
H793	H	0.121560	-0.808332	0.298994
H794	H	0.621560	-0.308332	0.798994
C795	C	0.132495	-0.739990	0.305115
C796	C	0.632495	-0.239990	0.805115
C797	C	0.130110	-0.783601	0.341268
C798	C	0.630110	-0.283601	0.841268
H799	H	0.149528	-0.728015	0.308916
H800	H	0.649528	-0.228015	0.808916
H801	H	0.101200	-0.717946	0.306874
H802	H	0.601200	-0.217946	0.806874
H803	H	0.148379	-0.744428	0.275027
H804	H	0.648379	-0.244428	0.775027
H805	H	0.114221	-0.779160	0.371354
H806	H	0.614221	-0.279160	0.871354
H807	H	0.161402	-0.805643	0.339514
H808	H	0.661402	-0.305643	0.839514
H809	H	-0.065262	-0.864385	0.427124
H810	H	0.434738	-0.364385	0.927124
H811	H	-0.095331	-0.773979	0.396956
H812	H	0.404669	-0.273979	0.896956
H813	H	-0.231954	-0.601008	0.442726
H814	H	0.268046	-0.101008	0.942726
O815	O	-0.325953	-0.492475	0.319827
O816	O	0.174047	0.007525	0.819827
C817	C	-0.293220	-0.485469	0.273054
C818	C	0.206780	0.014531	0.773054
H819	H	-0.257714	-0.491074	0.273208
H820	H	0.242286	0.008926	0.773208
H821	H	-0.287908	-0.511993	0.258769
H822	H	0.212092	-0.011993	0.758769
C823	C	-0.356209	-0.427531	0.240860
C824	C	0.143791	0.072469	0.740860
C825	C	-0.312601	-0.434411	0.241049
C826	C	0.187399	0.065589	0.741049
H827	H	-0.368164	-0.396037	0.221117
H828	H	0.131836	0.103963	0.721117
H829	H	-0.378262	-0.432253	0.272372
H830	H	0.121738	0.067747	0.772372
H831	H	-0.351776	-0.449638	0.228957
H832	H	0.148224	0.050362	0.728957
H833	H	-0.317035	-0.412309	0.252957
H834	H	0.182965	0.087691	0.752957
H835	H	-0.290549	-0.429685	0.209538
H836	H	0.209451	0.070315	0.709538
H837	H	-0.231721	-0.527215	0.295000
H838	H	0.268279	-0.027215	0.795000
H839	H	-0.322352	-0.570775	0.472713
H840	H	0.177648	-0.070775	0.972713
