data_functionalizedCrystal
_audit_creation_method	'MofGen! by Chris Wilmer'
_symmetry_space_group_name_H-M	'P1'
_symmetry_Int_Tables_number	1
_symmetry_cell_setting	triclinic
loop_
_symmetry_equiv_pos_as_xyz
  x,y,z
_cell_length_a	17.699083
_cell_length_b	10.540539
_cell_length_c	16.776229
_cell_angle_alpha	89.995514
_cell_angle_beta	89.998886
_cell_angle_gamma	83.904253
loop_
_atom_site_label
_atom_site_type_symbol
_atom_site_fract_x
_atom_site_fract_y
_atom_site_fract_z
O1	O	1.005122	0.160520	-0.066173
O2	O	0.784880	0.181404	-0.066198
O3	O	0.900026	-0.013836	-0.066184
O4	O	0.889976	0.355761	-0.066187
O5	O	0.900010	-0.013848	0.066393
O6	O	0.784864	0.181392	0.066378
O7	O	1.005107	0.160508	0.066404
Zn8	Zn	0.894983	0.170948	0.087440
Zn9	Zn	0.895003	0.170964	-0.087235
O10	O	0.889961	0.355749	0.066389
C11	C	0.756670	0.180650	0.000087
C12	C	0.672637	0.178405	0.000077
C13	C	0.624761	0.293007	0.000076
C14	C	0.545804	0.290890	0.000086
C15	C	0.514725	0.174170	0.000092
C16	C	0.562607	0.059559	0.000095
C17	C	0.641562	0.061677	0.000090
C18	C	0.244188	0.051014	0.000115
C19	C	0.165226	0.048904	0.000117
C20	C	0.148430	0.280227	0.000111
C21	C	0.227386	0.282345	0.000106
C22	C	0.275261	0.167735	0.000113
C23	C	0.360875	0.170032	0.000104
C24	C	0.429112	0.171872	0.000096
C25	C	0.899264	-0.061131	0.000103
C26	C	0.897009	-0.202038	0.000098
C27	C	0.810610	-0.383885	-0.000209
C28	C	0.812896	-0.237308	0.000089
C29	C	0.937480	-0.264443	0.075811
C30	C	0.934609	-0.410935	0.075874
C31	C	0.936337	-0.411471	-0.074890
C32	C	0.937112	-0.264503	-0.075891
C33	C	1.033316	0.161263	0.000117
C34	C	1.117349	0.163508	0.000122
C35	C	0.890722	0.403044	0.000101
C36	C	0.892977	0.543951	0.000100
N37	N	0.894974	0.170937	0.206652
N38	N	0.895018	0.170966	-0.206446
C39	C	0.945977	0.084520	0.248375
C40	C	0.945981	0.084519	0.331827
C41	C	0.894986	0.170942	0.373555
C42	C	0.843978	0.257363	0.331825
C43	C	0.843971	0.257357	0.248375
C44	C	0.844005	0.257388	0.668372
C45	C	0.844018	0.257390	0.751829
C46	C	0.946016	0.084550	0.751825
C47	C	0.946009	0.084544	0.668374
C48	C	0.894998	0.170960	0.626652
C49	C	0.894993	0.170958	0.536164
C50	C	0.894994	0.170950	0.464041
H51	H	0.680543	-0.031644	0.000090
H52	H	0.802472	0.327753	0.634409
H53	H	0.781051	-0.194118	-0.054185
N54	N	0.530875	-0.059680	0.000093
N55	N	0.573633	-0.161995	0.000093
H56	H	0.551224	-0.246213	0.000089
H57	H	0.987536	0.014174	0.634403
H58	H	0.987549	0.014181	0.785804
N59	N	0.791920	0.345683	0.794442
N60	N	0.746379	0.422832	0.757182
H61	H	0.709586	0.485188	0.787276
N62	N	1.014970	-0.237818	0.079344
N63	N	1.041295	-0.172394	0.025973
H64	H	1.096023	-0.153588	0.028465
H65	H	0.283159	-0.042309	0.000121
N66	N	0.768943	-0.418990	-0.068329
N67	N	0.799461	-0.497611	-0.117444
H68	H	0.770035	-0.522409	-0.165558
N69	N	0.769094	-0.421035	0.067512
N70	N	0.799904	-0.500429	0.116003
H71	H	0.770585	-0.526671	0.163833
H72	H	0.987511	0.014151	0.365798
H73	H	0.506826	0.384211	0.000085
H74	H	0.780815	-0.194971	0.054446
H75	H	0.904687	-0.438592	0.132464
N76	N	0.099525	0.397302	0.000130
N77	N	0.102726	0.474977	0.056014
H78	H	0.068188	0.557660	0.056027
N79	N	0.259130	0.401573	0.000120
N80	N	0.301312	0.428550	0.056007
H81	H	0.323731	0.512759	0.056022
H82	H	0.907500	-0.223098	-0.131901
N83	N	0.133465	-0.070317	0.000123
N84	N	0.091278	-0.097303	-0.055758
H85	H	0.068843	-0.181497	-0.055755
H86	H	0.998438	-0.241403	-0.080455
N87	N	1.010495	-0.472493	0.080217
N88	N	1.051677	-0.452584	0.138456
H89	H	1.105271	-0.496055	0.141530
H90	H	0.802453	0.327726	0.365804
N91	N	0.902192	-0.210359	0.146479
N92	N	0.847246	-0.125873	0.141279
H93	H	0.822319	-0.087677	0.191188
H94	H	0.909121	-0.442521	-0.132275
H95	H	0.997092	-0.459808	-0.075392
H96	H	0.802438	0.327725	0.214404
N97	N	0.656492	0.412248	0.000063
N98	N	0.613733	0.514561	0.000064
H99	H	0.636140	0.598780	0.000057
N100	N	0.998033	-0.003837	0.205768
N101	N	1.043535	-0.081040	0.243035
H102	H	1.080284	-0.143477	0.212947
