data_functionalizedCrystal
_audit_creation_method	'MofGen! by Chris Wilmer'
_symmetry_space_group_name_H-M	'P1'
_symmetry_Int_Tables_number	1
_symmetry_cell_setting	triclinic
loop_
_symmetry_equiv_pos_as_xyz
  x,y,z
_cell_length_a	19.851628
_cell_length_b	14.628931
_cell_length_c	19.851628
_cell_angle_alpha	60.004206
_cell_angle_beta	90.005779
_cell_angle_gamma	59.998289
loop_
_atom_site_label
_atom_site_type_symbol
_atom_site_fract_x
_atom_site_fract_y
_atom_site_fract_z
Zr1	Zr	0.648979	1.000464	-0.088319
O2	O	0.541413	1.191173	-0.195888
O3	O	0.681953	0.809757	-0.055343
O4	O	0.681955	1.000445	-0.195870
O5	O	0.541411	1.000499	0.055490
O6	O	0.792817	1.000428	-0.195857
O7	O	0.541412	1.000485	-0.055360
O8	O	0.792814	0.659322	0.055521
O9	O	0.541413	1.341605	-0.195888
O10	O	0.778752	0.888184	-0.041269
O11	O	0.696016	0.888207	0.041447
O12	O	0.696018	1.112718	-0.124006
O13	O	0.613282	1.112741	-0.041290
Zr14	Zr	0.825789	1.000458	0.088496
Zr15	Zr	0.825791	1.000436	-0.088297
Zr16	Zr	0.648977	1.000486	0.088474
Zr17	Zr	0.648979	1.240386	-0.088319
Zr18	Zr	0.825789	0.760536	0.088496
O19	O	0.792815	1.191165	0.055520
O20	O	0.792817	1.191133	-0.195857
O21	O	0.541411	1.191205	0.055490
O22	O	0.933355	0.809749	0.196065
O23	O	0.933357	0.809717	-0.055313
O24	O	0.681951	0.809789	0.196034
O25	O	0.933357	1.000423	-0.055313
O26	O	0.792813	1.000477	0.196047
O27	O	0.681952	1.000494	0.196034
O28	O	0.933356	1.000437	0.055537
O29	O	0.681955	1.341583	-0.195871
O30	O	0.792813	0.659339	0.196048
O31	O	0.933355	0.659317	0.196065
O32	O	0.933356	0.659299	0.055538
O33	O	0.541412	1.341623	-0.055361
O34	O	0.681954	1.341600	-0.055344
O35	O	0.778750	0.888204	0.124183
O36	O	0.861486	0.888181	0.041467
O37	O	0.778752	1.112715	-0.041270
O38	O	0.696016	1.112738	0.041447
C39	C	0.737384	0.700356	0.000089
C40	C	0.737384	0.598503	0.000089
C41	C	0.778426	0.553082	-0.040944
C42	C	0.778427	0.447811	-0.040945
C43	C	0.516220	1.000496	0.000062
C44	C	0.441158	1.000508	0.000053
C45	C	0.214703	1.122905	-0.045031
C46	C	0.192342	1.061701	-0.077718
C47	C	0.303752	1.000475	0.000076
C48	C	0.192372	1.061686	0.032748
C49	C	0.171020	1.000451	0.000099
C50	C	0.282379	0.939270	-0.032656
C51	C	0.282407	0.939273	0.077853
C52	C	0.260099	0.877980	0.045186
C53	C	0.380214	1.000492	0.000061
C54	C	0.094562	1.000425	0.000112
C55	C	0.958549	1.000426	0.000115
C56	C	1.033610	1.000414	0.000125
C57	C	0.737386	1.000433	-0.221053
C58	C	0.737386	1.000424	-0.296106
C59	C	0.737384	1.300566	0.000088
C60	C	0.737384	1.402419	0.000088
C61	C	0.782497	0.878026	-0.477256
C62	C	0.815200	0.939194	-0.454872
C63	C	0.737384	1.000475	-0.566289
C64	C	0.704721	0.939244	-0.454912
C65	C	0.737386	1.000443	-0.433537
C66	C	0.770132	1.061643	-0.544894
C67	C	0.659610	1.061676	-0.544931
C68	C	0.692294	1.122933	-0.522601
C69	C	0.737384	1.000489	-0.642763
C70	C	0.737387	1.000438	-0.357068
C71	C	0.737382	1.000489	0.221230
C72	C	0.737382	1.000498	0.296283
C73	C	0.958548	0.700320	0.000116
C74	C	1.033609	0.598456	0.000125
C75	C	0.737382	0.700383	0.221230
C76	C	0.737381	0.598540	0.296284
C77	C	0.958547	0.700348	0.221257
C78	C	1.033607	0.598493	0.296320
C79	C	0.516222	1.300574	-0.221080
C80	C	0.441161	1.402429	-0.296143
C81	C	0.516220	1.300601	0.000061
C82	C	0.441159	1.402466	0.000052
C83	C	0.737386	1.300539	-0.221053
C84	C	0.737387	1.402382	-0.296107
C85	C	1.025672	0.550620	-0.043066
C86	C	1.096194	0.454920	-0.043073
C87	C	1.174651	0.407051	0.000115
C88	C	1.182586	0.454896	0.043306
C89	C	1.112066	0.550601	0.043309
C90	C	0.780567	0.550711	0.374725
C91	C	0.780564	0.455032	0.445252
C92	C	0.737378	0.407176	0.437337
C93	C	0.694187	0.455014	0.358888
C94	C	0.694186	0.550698	0.288362
C95	C	1.112051	0.550648	0.288393
C96	C	1.182585	0.454957	0.358915
C97	C	1.174673	0.407106	0.437364
C98	C	1.096221	0.454960	0.445289
C99	C	1.025689	0.550656	0.374767
C100	C	0.362717	1.450286	-0.288216
C101	C	0.292183	1.546006	-0.358738
C102	C	0.300095	1.593862	-0.437187
C103	C	0.378547	1.546002	-0.445112
C104	C	0.449079	1.450290	-0.374590
C105	C	0.449096	1.450312	0.043235
C106	C	0.378575	1.546038	0.043224
C107	C	0.300117	1.593910	0.000033
C108	C	0.292182	1.546061	-0.043155
C109	C	0.362702	1.450343	-0.043148
C110	C	0.780581	1.450208	-0.288165
C111	C	0.780598	1.545888	-0.358679
C112	C	0.737415	1.593747	-0.437134
C113	C	0.694220	1.545912	-0.445074
C114	C	0.694208	1.450227	-0.374561
H115	H	0.196252	1.226425	-0.083232
H116	H	0.278705	0.774375	0.083332
C117	C	0.570773	1.131536	-0.597360
N118	N	0.503860	1.184143	-0.636848
C119	C	0.646685	0.603285	0.202079
N120	N	0.610906	0.642886	0.137091
C121	C	1.087533	0.402300	0.531591
N122	N	1.080991	0.362625	0.596595
H123	H	0.702241	0.441479	0.035216
C124	C	1.252270	0.301828	0.514933
N125	N	1.310718	0.222528	0.573354
C126	C	1.120774	0.603273	0.202106
N127	N	1.127351	0.642911	0.137116
C128	C	0.387236	1.598646	-0.531414
N129	N	0.393777	1.638292	-0.596418
C130	C	0.139882	1.131611	-0.166556
N131	N	0.100358	1.184280	-0.233466
C132	C	0.939376	0.603265	-0.090585
N133	N	0.874379	0.642918	-0.126383
C134	C	0.939402	0.603272	0.383501
N135	N	0.874412	0.642899	0.390085
H136	H	0.677094	0.887479	-0.416122
H137	H	0.815771	1.584825	-0.352198
H138	H	0.321074	0.887557	-0.060354
H139	H	1.089716	0.415977	-0.078245
C140	C	0.353958	1.397709	-0.090645
N141	N	0.347365	1.358068	-0.126421
H142	H	1.232066	0.329122	0.000107
C143	C	1.268874	0.402323	0.350179
N144	N	1.333865	0.362679	0.343597
H145	H	0.321214	0.887579	0.143605
C146	C	1.268897	0.402217	0.090817
N147	N	1.333909	0.362528	0.126607
C148	C	0.205894	1.598633	-0.350002
N149	N	0.140903	1.638268	-0.343420
H150	H	0.153571	1.113460	0.060370
C151	C	0.737434	1.699006	-0.514693
N152	N	0.737450	1.778290	-0.573108
H153	H	0.512950	1.411326	-0.381054
H154	H	0.659062	1.584894	-0.508961
C155	C	0.222498	1.699139	-0.514755
N156	N	0.164050	1.778428	-0.573177
H157	H	0.820692	0.774514	-0.458827
H158	H	0.659031	1.411298	-0.381038
C159	C	0.828089	0.402416	0.531538
N160	N	0.863887	0.362785	0.596527
H161	H	0.813568	0.592123	-0.076070
C162	C	0.904057	0.869266	-0.402442
N163	N	0.970984	0.816589	-0.362950
C164	C	0.535392	1.397676	0.090747
N165	N	0.600389	1.358043	0.126531
C166	C	0.387322	1.598644	0.090744
N167	N	0.393913	1.638262	0.126538
H168	H	0.815745	1.411256	-0.224290
H169	H	0.813561	0.408757	-0.076078
C170	C	0.222550	1.699197	0.000038
N171	N	0.164130	1.778496	0.000047
H172	H	0.797833	1.113350	-0.583580
H173	H	0.702248	0.559452	0.035220
C174	C	0.640770	1.262884	-0.547700
N175	N	0.601967	1.368293	-0.566602
H176	H	0.737385	0.329264	0.494770
C177	C	0.205871	1.598717	-0.090649
N178	N	0.140859	1.638370	-0.126412
C179	C	0.646690	0.402351	0.350195
N180	N	0.610921	0.362676	0.343650
H181	H	1.118540	0.589536	0.078485
H182	H	0.815734	0.589665	0.381185
H183	H	0.356260	1.411327	-0.224345
