data_functionalizedCrystal
_audit_creation_method	'MofGen! by Chris Wilmer'
_symmetry_space_group_name_H-M	'P1'
_symmetry_Int_Tables_number	1
_symmetry_cell_setting	triclinic
loop_
_symmetry_equiv_pos_as_xyz
  x,y,z
_cell_length_a	6.817900
_cell_length_b	16.255748
_cell_length_c	16.255661
_cell_angle_alpha	95.347428
_cell_angle_beta	103.488922
_cell_angle_gamma	103.490428
loop_
_atom_site_label
_atom_site_type_symbol
_atom_site_fract_x
_atom_site_fract_y
_atom_site_fract_z
V1	V	-4.026718	-0.117775	-0.264162
O2	O	-4.014190	0.004956	-0.258836
O3	O	-3.978277	-0.232852	-0.262642
O4	O	-3.978280	-0.116272	-0.379242
O5	O	-4.014186	-0.112431	-0.141429
V6	V	-4.510357	-0.103059	-0.249447
O7	O	-4.287724	-0.150057	-0.296440
O8	O	-4.699549	-0.070777	-0.217170
O9	O	-4.335592	0.012018	-0.250968
O10	O	-4.640282	-0.225790	-0.254774
O11	O	-4.640286	-0.108403	-0.372181
O12	O	-4.335588	-0.104562	-0.134368
C13	C	-3.823268	-0.260896	-0.258548
C14	C	-3.864948	-0.354974	-0.258072
C15	C	-3.800462	-0.634058	-0.252241
C16	C	-3.906949	-0.591123	-0.324865
C17	C	-4.015121	-0.693616	-0.256396
C18	C	-3.834252	-0.568919	-0.184633
C19	C	-3.941325	-0.527229	-0.257218
C20	C	-4.122189	-0.651929	-0.329071
C21	C	-4.049434	-0.629719	-0.188775
C22	C	-4.156080	-0.586816	-0.261419
C23	C	-4.057627	-0.789466	-0.255923
C24	C	-3.898837	-0.431382	-0.257697
C25	C	-3.823272	-0.112186	-0.407282
C26	C	-3.864952	-0.111718	-0.501362
C27	C	-3.775508	-0.106135	-0.724167
C28	C	-3.931928	-0.178192	-0.793821
C29	C	-3.941336	-0.110842	-0.673609
C30	C	-3.859207	-0.037960	-0.771590
C31	C	-4.015104	-0.109991	-0.839990
C32	C	-4.097238	-0.182963	-0.742033
C33	C	-4.024455	-0.042667	-0.719786
C34	C	-4.181011	-0.114745	-0.789421
C35	C	-3.898835	-0.111332	-0.577760
C36	C	-4.057622	-0.109507	-0.935837
C37	C	-4.153942	0.040057	-0.255059
C38	C	-4.091501	0.134135	-0.255540
C39	C	-4.153938	-0.108651	-0.106323
C40	C	-4.091497	-0.109114	-0.012242
H41	H	-3.650608	-0.654960	-0.248445
O42	O	-4.122031	-0.650384	-0.120219
C43	C	-4.405383	-0.730671	-0.071188
C44	C	-4.323470	-0.707323	-0.148913
H45	H	-4.568237	-0.776723	-0.094358
H46	H	-4.413125	-0.670075	-0.032120
H47	H	-4.295337	-0.762547	-0.029535
H48	H	-4.433439	-0.675468	-0.190629
H49	H	-4.315677	-0.767946	-0.187916
H50	H	-4.063046	0.014633	-0.687536
O51	O	-3.688314	-0.526047	-0.111834
C52	C	-3.335412	-0.501287	-0.024806
C53	C	-3.500513	-0.549905	-0.107264
H54	H	-3.183523	-0.520544	-0.021093
H55	H	-3.394461	-0.517846	0.033264
H56	H	-3.305993	-0.429423	-0.025574
H57	H	-3.530005	-0.621780	-0.106580
H58	H	-3.441384	-0.533275	-0.165298
H59	H	-3.603754	-0.102588	-0.695678
O60	O	-4.334937	-0.561927	-0.266031
C61	C	-4.495935	-0.444693	-0.271056
C62	C	-4.293227	-0.472760	-0.265806
H63	H	-4.462293	-0.372603	-0.270894
H64	H	-4.557622	-0.461341	-0.213601
H65	H	-4.618010	-0.479376	-0.332629
H66	H	-4.171008	-0.438093	-0.204269
H67	H	-4.231715	-0.456128	-0.323304
O68	O	-3.885433	-0.246475	-0.832220
C69	C	-3.619768	-0.319196	-0.842313
C70	C	-3.672145	-0.241819	-0.798780
H71	H	-3.447336	-0.315467	-0.815282
H72	H	-3.653551	-0.318524	-0.914282
H73	H	-3.719705	-0.380920	-0.829562
H74	H	-3.572242	-0.180055	-0.811464
H75	H	-3.638420	-0.242567	-0.726825
H76	H	-3.758969	0.023305	-0.785048
O77	O	-3.834974	-0.570514	-0.393581
C78	C	-3.891157	-0.509093	-0.523625
C79	C	-3.972950	-0.532407	-0.445865
H80	H	-4.002648	-0.478263	-0.565909
H81	H	-3.880694	-0.569549	-0.562026
H82	H	-3.729466	-0.462151	-0.500470
H83	H	-4.134673	-0.579326	-0.468946
H84	H	-3.983259	-0.471912	-0.407481
H85	H	-4.197458	-0.244311	-0.728718
O86	O	-4.385952	-0.118952	-0.823269
C87	C	-4.634189	-0.050406	-0.899697
C88	C	-4.402023	-0.045518	-0.861382
H89	H	-4.647257	0.008949	-0.930537
H90	H	-4.718649	-0.053755	-0.846780
H91	H	-4.708543	-0.110072	-0.950196
H92	H	-4.327486	0.014143	-0.810894
H93	H	-4.317716	-0.042216	-0.914347
O94	O	-4.267704	-0.694912	-0.401935
C95	C	-4.470632	-0.832357	-0.483211
C96	C	-4.305792	-0.783786	-0.400667
H97	H	-4.501510	-0.904219	-0.482206
H98	H	-4.410604	-0.816279	-0.541180
H99	H	-4.621938	-0.812520	-0.487331
H100	H	-4.154434	-0.803596	-0.396465
H101	H	-4.365991	-0.799866	-0.342738
