data_functionalizedCrystal
_audit_creation_method	'MofGen! by Chris Wilmer'
_symmetry_space_group_name_H-M	'P1'
_symmetry_Int_Tables_number	1
_symmetry_cell_setting	triclinic
loop_
_symmetry_equiv_pos_as_xyz
  x,y,z
_cell_length_a	18.426585
_cell_length_b	12.970454
_cell_length_c	12.970454
_cell_angle_alpha	89.998622
_cell_angle_beta	60.001617
_cell_angle_gamma	59.998654
loop_
_atom_site_label
_atom_site_type_symbol
_atom_site_fract_x
_atom_site_fract_y
_atom_site_fract_z
Zr1	Zr	0.794354	0.993210	-0.135280
O2	O	0.945754	0.828586	-0.299893
O3	O	0.642955	1.043677	-0.084823
O4	O	0.794355	1.043677	-0.299906
O5	O	0.794353	0.828586	0.084857
O6	O	0.794356	1.213343	-0.299910
O7	O	0.794353	0.828587	-0.084810
O8	O	0.523528	1.213345	0.084834
O9	O	1.065180	0.828585	-0.299887
O10	O	0.705228	1.191820	-0.063300
O11	O	0.705227	1.065200	0.063324
O12	O	0.883481	1.065199	-0.189908
O13	O	0.883480	0.938579	-0.063285
Zr14	Zr	0.794354	1.263809	0.135314
Zr15	Zr	0.794355	1.263809	-0.135286
Zr16	Zr	0.794353	0.993210	0.135320
Zr17	Zr	0.984826	0.993209	-0.135270
Zr18	Zr	0.603883	1.263810	0.135304
O19	O	0.945754	1.213342	0.084857
O20	O	0.945755	1.213342	-0.299902
O21	O	0.945752	0.828585	0.084865
O22	O	0.642955	1.428433	0.299927
O23	O	0.642956	1.428434	-0.084832
O24	O	0.642953	1.043677	0.299935
O25	O	0.794356	1.428433	-0.084824
O26	O	0.794353	1.213342	0.299940
O27	O	0.794353	1.043676	0.299943
O28	O	0.794355	1.428432	0.084844
O29	O	1.065181	1.043675	-0.299892
O30	O	0.523527	1.213344	0.299925
O31	O	0.523528	1.428434	0.299920
O32	O	0.523529	1.428434	0.084829
O33	O	1.065179	0.828585	-0.084796
O34	O	1.065180	1.043674	-0.084801
O35	O	0.705227	1.191820	0.189942
O36	O	0.705228	1.318440	0.063318
O37	O	0.883481	1.191819	-0.063290
O38	O	0.883480	1.065199	0.063333
C39	C	0.556103	1.128511	0.000004
C40	C	0.475243	1.128512	-0.000000
C41	C	0.794353	1.128509	0.338496
C42	C	0.794352	1.128509	0.453373
C43	C	0.794355	1.466987	0.000009
C44	C	0.794356	1.581863	0.000007
C45	C	0.179133	1.128505	0.000037
C46	C	0.261520	1.128503	0.000029
C47	C	0.327186	1.128507	0.000017
C48	C	0.409577	1.128508	0.000012
C49	C	1.032605	1.128508	0.000029
C50	C	1.113465	1.128507	0.000034
C51	C	0.794353	0.790032	0.000024
C52	C	0.794352	0.675156	0.000027
C53	C	0.794355	1.128510	-0.338462
C54	C	0.794356	1.128510	-0.453339
C55	C	0.556105	1.466989	-0.000003
C56	C	0.475245	1.581865	-0.000010
C57	C	0.556102	1.128511	0.338483
C58	C	0.475242	1.128511	0.453356
C59	C	0.556103	1.466988	0.338476
C60	C	0.475243	1.581865	0.453346
C61	C	1.032605	0.790031	-0.338442
C62	C	1.113465	0.675154	-0.453312
C63	C	1.032604	0.790030	0.000037
C64	C	1.113463	0.675154	0.000044
C65	C	1.032606	1.128508	-0.338450
C66	C	1.113467	1.128508	-0.453322
C67	C	0.437272	1.569718	-0.066118
C68	C	0.361307	1.677647	-0.066150
C69	C	0.323310	1.797721	-0.000066
C70	C	0.361290	1.809866	0.066044
C71	C	0.437259	1.701939	0.066068
C72	C	0.437269	1.194605	0.573406
C73	C	0.361302	1.194601	0.681351
C74	C	0.323305	1.128509	0.669244
C75	C	0.361285	1.062406	0.549181
C76	C	0.437256	1.062404	0.441239
C77	C	0.437271	1.701918	0.441194
C78	C	0.361305	1.809867	0.549116
C79	C	0.323307	1.797760	0.669189
C80	C	0.361287	1.677694	0.681339
C81	C	0.437257	1.569748	0.573418
C82	C	1.151447	0.555101	-0.441160
C83	C	1.227436	0.447152	-0.549082
C84	C	1.265438	0.459259	-0.669155
C85	C	1.227453	0.579325	-0.681305
C86	C	1.151470	0.687271	-0.573384
C87	C	1.151444	0.687301	0.066140
C88	C	1.227431	0.579372	0.066142
C89	C	1.265430	0.459298	0.000054
C90	C	1.227447	0.447153	-0.066050
C91	C	1.151466	0.555080	-0.066059
C92	C	1.151440	1.194613	-0.441174
C93	C	1.227407	1.194637	-0.549099
C94	C	1.265405	1.128548	-0.669170
C95	C	1.227424	1.062441	-0.681316
C96	C	1.151453	1.062425	-0.573392
H97	H	0.330393	1.667734	-0.119984
H98	H	1.120546	0.785021	-0.583294
H99	H	1.327265	1.128571	-0.757038
H100	H	0.330389	1.907620	0.539201
O101	O	0.478067	0.991316	0.311755
H102	H	0.438820	0.945444	0.321484
H103	H	1.258373	1.008633	-0.779092
H104	H	0.468198	1.711800	0.343434
O105	O	1.110481	0.816803	0.137404
H106	H	1.149680	0.807097	0.183341
O107	O	0.478244	1.265895	0.586480
H108	H	0.512871	1.227681	0.638876
H109	H	1.120544	1.008589	-0.583301
H110	H	1.327298	0.371426	0.000072
O111	O	0.241356	1.914200	0.785580
H112	H	0.221308	1.885623	0.871124
O113	O	0.320345	1.265912	0.810833
H114	H	0.261143	1.254806	0.883869
O115	O	1.110462	1.265917	-0.311681
H116	H	1.125051	1.199199	-0.259333
H117	H	1.120510	0.545219	-0.343400
H118	H	1.258350	0.349400	-0.539165
O119	O	1.268378	0.592484	0.137462
H120	H	1.229169	0.694113	0.183434
H121	H	0.468209	1.471958	-0.119947
O122	O	1.347390	0.342826	-0.785554
H123	H	1.416623	0.342892	-0.842535
H124	H	0.261450	1.885592	-0.000094
H125	H	1.258323	1.248468	-0.539185
H126	H	0.261445	1.128521	0.757148
O127	O	1.110494	0.541973	-0.137339
H128	H	1.149680	0.440343	-0.183276
H129	H	0.330342	1.907645	0.119847
H130	H	0.468167	1.711847	0.119908
O131	O	0.320290	1.664655	0.810854
H132	H	0.359456	1.563040	0.801189
H133	H	0.330337	1.008595	0.539342
O134	O	0.478183	1.440266	0.586544
H135	H	0.512783	1.429287	0.638975
H136	H	1.258404	0.589167	-0.779081
H137	H	1.258398	0.349374	-0.119858
