data_functionalizedCrystal
_audit_creation_method	'MofGen! by Chris Wilmer'
_symmetry_space_group_name_H-M	'P1'
_symmetry_Int_Tables_number	1
_symmetry_cell_setting	triclinic
loop_
_symmetry_equiv_pos_as_xyz
  x,y,z
_cell_length_a	17.639617
_cell_length_b	17.640280
_cell_length_c	17.639306
_cell_angle_alpha	87.821350
_cell_angle_beta	65.670249
_cell_angle_gamma	87.821186
loop_
_atom_site_label
_atom_site_type_symbol
_atom_site_fract_x
_atom_site_fract_y
_atom_site_fract_z
Zn1	Zn	1.383751	-0.175192	-0.691745
Zn2	Zn	1.883751	0.324808	-0.191745
Zn3	Zn	1.373154	-0.278154	-0.536639
Zn4	Zn	1.873154	0.221846	-0.036639
Zn5	Zn	1.218069	-0.175164	-0.526043
Zn6	Zn	1.718069	0.324836	-0.026043
Zn7	Zn	1.270217	-0.319687	-0.639537
Zn8	Zn	1.770217	0.180313	-0.139537
O9	O	1.311298	-0.237049	-0.598491
O10	O	1.811298	0.262951	-0.098491
O11	O	1.494763	-0.171480	-0.697454
O12	O	1.994763	0.328520	-0.197454
O13	O	1.326323	-0.247099	-0.422824
O14	O	1.826323	0.252901	0.077176
O15	O	1.222657	-0.071593	-0.565438
O16	O	1.722657	0.428407	-0.065438
O17	O	1.486977	-0.247126	-0.583499
O18	O	1.986977	0.252874	-0.083499
O19	O	1.344383	-0.071614	-0.687179
O20	O	1.844383	0.428386	-0.187179
O21	O	1.212382	-0.171432	-0.415038
O22	O	1.712382	0.328568	0.084962
O23	O	1.112569	-0.211705	-0.514814
O24	O	1.612569	0.288295	-0.014814
O25	O	1.311537	-0.317913	-0.758872
O26	O	1.811537	0.182087	-0.258872
O27	O	1.150882	-0.317886	-0.598197
O28	O	1.650882	0.182114	-0.098197
O29	O	1.394949	-0.211753	-0.797230
O30	O	1.894949	0.288247	-0.297230
O31	O	1.376889	-0.387237	-0.532874
O32	O	1.876889	0.112763	-0.032874
O33	O	1.301262	-0.417752	-0.608472
O34	O	1.801262	0.082248	-0.108472
C35	C	1.102577	-0.269300	-0.549691
C36	C	1.602577	0.230700	-0.049691
C37	C	1.013293	-0.283118	-0.528830
C38	C	1.513293	0.216882	-0.028830
C39	C	0.740039	-0.132092	-0.757171
C40	C	1.240039	0.367908	-0.257171
C41	C	0.656142	-0.145092	-0.737549
C42	C	1.156142	0.354908	-0.237549
C43	C	0.647996	-0.223682	-0.618766
C44	C	1.147996	0.276318	-0.118766
C45	C	0.731895	-0.210692	-0.638379
C46	C	1.231895	0.289308	-0.138379
C47	C	0.777909	-0.164896	-0.707583
C48	C	1.277909	0.335104	-0.207583
C49	C	0.769765	-0.243496	-0.588791
C50	C	1.269765	0.256504	-0.088791
C51	C	0.853656	-0.230503	-0.608401
C52	C	1.353656	0.269497	-0.108401
C53	C	0.899675	-0.184707	-0.677599
C54	C	1.399675	0.315293	-0.177599
C55	C	0.861800	-0.151903	-0.727193
C56	C	1.361800	0.348097	-0.227193
C57	C	0.723748	-0.289288	-0.519585
C58	C	1.223748	0.210712	-0.019585
C59	C	0.761618	-0.322091	-0.469997
C60	C	1.261618	0.177909	0.030003
C61	C	0.845512	-0.309103	-0.489610
C62	C	1.345512	0.190897	0.010390
C63	C	0.891532	-0.263307	-0.558808
C64	C	1.391532	0.236693	-0.058808
C65	C	0.883388	-0.341907	-0.440017
C66	C	1.383388	0.158093	0.059983
C67	C	0.967278	-0.328914	-0.459627
C68	C	1.467278	0.171086	0.040373
C69	C	0.975422	-0.250314	-0.578418
C70	C	1.475422	0.249686	-0.078418
C71	C	1.343610	-0.429349	-0.566180
C72	C	1.843610	0.070651	-0.066180
C73	C	1.357513	-0.511609	-0.552401
C74	C	1.857513	-0.011609	-0.052401
C75	C	1.206075	-0.861711	-0.703535
C76	C	1.706075	-0.361711	-0.203535
C77	C	1.219135	-0.939002	-0.690563
C78	C	1.719135	-0.439002	-0.190563
C79	C	1.297973	-0.907169	-0.611961
C80	C	1.797973	-0.407169	-0.111961
C81	C	1.284924	-0.829873	-0.624930
C82	C	1.784924	-0.329873	-0.124930
C83	C	1.238973	-0.807151	-0.670717
C84	C	1.738973	-0.307151	-0.170717
C85	C	1.317822	-0.775313	-0.592112
C86	C	1.817822	-0.275313	-0.092112
C87	C	1.304769	-0.698024	-0.605077
C88	C	1.804769	-0.198024	-0.105077
C89	C	1.258819	-0.675296	-0.650860
C90	C	1.758819	-0.175296	-0.150860
C91	C	1.225921	-0.729862	-0.683682
C92	C	1.725921	-0.229862	-0.183682
C93	C	1.363767	-0.798037	-0.546321
C94	C	1.863767	-0.298037	-0.046321
C95	C	1.396665	-0.743477	-0.513503
C96	C	1.896665	-0.243477	-0.013503
C97	C	1.383618	-0.666187	-0.526472
C98	C	1.883618	-0.166187	-0.026472
C99	C	1.337667	-0.643458	-0.572255
C100	C	1.837667	-0.143458	-0.072255
C101	C	1.416516	-0.611620	-0.493650
C102	C	1.916516	-0.111620	0.006350
C103	C	1.403464	-0.534331	-0.506615
C104	C	1.903464	-0.034331	-0.006615
C105	C	1.324615	-0.566169	-0.585219
C106	C	1.824615	-0.066169	-0.085219
C107	C	1.520834	-0.204673	-0.647482
C108	C	2.020834	0.295327	-0.147482
C109	C	1.610125	-0.190876	-0.668359
C110	C	2.110125	0.309124	-0.168359
C111	C	1.360242	-0.269469	-0.808013
C112	C	1.860242	0.230531	-0.308013
C113	C	1.381099	-0.283284	-0.897298
C114	C	1.881099	0.216716	-0.397298
C115	C	1.278885	-0.043997	-0.630951
C116	C	1.778885	0.456003	-0.130951
C117	C	1.265073	0.038270	-0.644783
C118	C	1.765073	0.538270	-0.144783
C119	C	1.153114	-0.131771	-1.170705
C120	C	1.653114	0.368229	-0.670705
C121	C	1.172733	-0.144766	-1.254604
C122	C	1.672733	0.355234	-0.754604
C123	C	1.291367	-0.223549	-1.262690
C124	C	1.791367	0.276451	-0.762690
C125	C	1.271760	-0.210559	-1.178791
C126	C	1.771760	0.289441	-0.678791
C127	C	1.202632	-0.164670	-1.132805
C128	C	1.702632	0.335330	-0.632805
C129	C	1.321278	-0.243457	-1.140891
C130	C	1.821278	0.256543	-0.640891
C131	C	1.301670	-0.230470	-1.056998
C132	C	1.801670	0.269530	-0.556998
C133	C	1.232543	-0.184585	-1.011005
C134	C	1.732543	0.315415	-0.511005
C135	C	1.183024	-0.151683	-1.048912
C136	C	1.683024	0.348317	-0.548912
C137	C	1.390402	-0.289350	-1.186877
C138	C	1.890402	0.210650	-0.686877
C139	C	1.439920	-0.322248	-1.148977
C140	C	1.939920	0.177752	-0.648977
C141	C	1.420316	-0.309257	-1.065084
C142	C	1.920316	0.190743	-0.565084
C143	C	1.351189	-0.263372	-1.019091
C144	C	1.851189	0.236628	-0.519091
C145	C	1.469835	-0.342160	-1.027177
C146	C	1.969835	0.157840	-0.527177
C147	C	1.450227	-0.329173	-0.943285
C148	C	1.950227	0.170827	-0.443285
C149	C	1.331581	-0.250386	-0.935199
C150	C	1.831581	0.249614	-0.435199
C151	C	1.262581	-0.204695	-0.389804
C152	C	1.762581	0.295305	0.110196
C153	C	1.241844	-0.190647	-0.300590
C154	C	1.741844	0.309353	0.199410
H155	H	0.845908	-0.379188	-0.383667
H156	H	1.345908	0.120812	0.116333
F157	F	1.346877	-0.931360	-0.563234
F158	F	1.846877	-0.431360	-0.063234
H159	H	1.526114	-0.379529	-1.064630
H160	H	2.026114	0.120471	-0.564630
F161	F	1.502927	-0.364190	-0.902945
F162	F	2.002927	0.135810	-0.402945
H163	H	1.216575	-0.174018	-0.942692
H164	H	1.716575	0.325982	-0.442692
F165	F	1.120040	-0.109726	-1.294945
F166	F	1.620040	0.390274	-0.794945
F167	F	1.177023	-0.705676	-0.732422
F168	F	1.677023	-0.205676	-0.232422
F169	F	1.024401	-0.201578	-0.652077
F170	F	1.524401	0.298422	-0.152077
H171	H	0.967983	-0.174126	-0.693562
H172	H	1.467983	0.325874	-0.193562
H173	H	0.899269	-0.114614	-0.783547
H174	H	1.399269	0.385386	-0.283547
F175	F	1.184107	-0.997069	-0.725487
F176	F	1.684107	-0.497069	-0.225487
H177	H	1.496202	-0.359614	-1.186429
H178	H	1.996202	0.140386	-0.686429
F179	F	1.438470	-0.476261	-0.471679
F180	F	1.938470	0.023739	0.028321
H181	H	1.406366	-0.299920	-1.255189
H182	H	1.906366	0.200080	-0.755189
F183	F	1.377685	-0.880296	-0.532551
F184	F	1.877685	-0.380296	-0.032551
F185	F	1.364933	-0.272389	-1.311639
F186	F	1.864933	0.227611	-0.811639
H187	H	1.168665	-0.843211	-0.740827
H188	H	1.668665	-0.343211	-0.240827
H189	H	0.777508	-0.094803	-0.813525
H190	H	1.277508	0.405197	-0.313525
F191	F	1.445569	-0.767669	-0.464776
F192	F	1.945569	-0.267669	0.035224
F193	F	1.465412	-0.635813	-0.444916
F194	F	1.965412	-0.135813	0.055084
H195	H	1.275297	-0.213010	-0.897757
H196	H	1.775297	0.286990	-0.397757
H197	H	0.610518	-0.260967	-0.562418
H198	H	1.110518	0.239033	-0.062418
F199	F	0.615839	-0.110170	-0.790331
F200	F	1.115839	0.389830	-0.290331
H201	H	0.998113	-0.355626	-0.419247
H202	H	1.498113	0.144374	0.080753
F203	F	1.079546	-0.082923	-1.121761
F204	F	1.579546	0.417077	-0.621761
F205	F	0.634461	-0.303110	-0.498712
F206	F	1.134461	0.196890	0.001288
H207	H	0.724141	-0.359376	-0.413649
H208	H	1.224141	0.140624	0.086351
F209	F	1.275717	-0.541983	-0.633960
F210	F	1.775717	-0.041983	-0.133960
F211	F	1.109456	-0.102834	-0.999968
F212	F	1.609456	0.397166	-0.499968
H213	H	1.248186	-0.612361	-0.661408
H214	H	1.748186	-0.112361	-0.161408
