data_functionalizedCrystal
_audit_creation_method	'MofGen! by Chris Wilmer'
_symmetry_space_group_name_H-M	'P1'
_symmetry_Int_Tables_number	1
_symmetry_cell_setting	triclinic
loop_
_symmetry_equiv_pos_as_xyz
  x,y,z
_cell_length_a	18.101395
_cell_length_b	18.101398
_cell_length_c	15.296720
_cell_angle_alpha	99.671158
_cell_angle_beta	99.643705
_cell_angle_gamma	90.026661
loop_
_atom_site_label
_atom_site_type_symbol
_atom_site_fract_x
_atom_site_fract_y
_atom_site_fract_z
Zn1	Zn	-0.367331	1.059634	-0.509865
Zn2	Zn	0.132669	1.559634	-0.009865
Zn3	Zn	-0.469755	1.080976	-0.359013
Zn4	Zn	0.030245	1.580976	0.140987
Zn5	Zn	-0.345927	0.957234	-0.359050
Zn6	Zn	0.154073	1.457234	0.140950
Zn7	Zn	-0.491122	0.935746	-0.509843
Zn8	Zn	0.008878	1.435746	-0.009843
O9	O	-0.418534	1.008397	-0.434443
O10	O	0.081466	1.508397	0.065557
O11	O	-0.380933	1.166099	-0.489848
O12	O	0.119067	1.666099	0.010152
O13	O	-0.435429	1.082486	-0.232778
O14	O	0.064571	1.582486	0.267222
O15	O	-0.245137	0.970878	-0.379081
O16	O	0.254863	1.470878	0.120919
O17	O	-0.456183	1.181779	-0.379017
O18	O	0.043817	1.681779	0.120983
O19	O	-0.260862	1.046111	-0.489884
O20	O	0.239138	1.546111	0.010116
O21	O	-0.344453	0.991573	-0.232805
O22	O	0.155547	1.491573	0.267195
O23	O	-0.365173	0.850750	-0.379060
O24	O	0.134827	1.350750	0.120940
O25	O	-0.492601	0.934256	-0.636086
O26	O	0.007399	1.434256	-0.136086
O27	O	-0.471847	0.834963	-0.489847
O28	O	0.028153	1.334963	0.010153
O29	O	-0.401652	1.025275	-0.636102
O30	O	0.098348	1.525275	-0.136102
O31	O	-0.576219	1.061650	-0.378996
O32	O	-0.076219	1.561650	0.121004
O33	O	-0.591917	0.954951	-0.489811
O34	O	-0.091917	1.454951	0.010189
C35	C	-0.418506	0.815985	-0.434455
C36	C	0.081494	1.315985	0.065545
C37	C	-0.418516	0.733667	-0.434482
C38	C	0.081484	1.233667	0.065518
C39	C	-0.610941	1.008302	-0.434416
C40	C	-0.110941	1.508302	0.065584
C41	C	-0.693257	1.008325	-0.434435
C42	C	-0.193257	1.508325	0.065565
C43	C	-0.418554	0.434582	-0.434445
C44	C	0.081446	0.934582	0.065555
C45	C	-0.485898	0.456048	-0.503805
C46	C	0.014102	0.956048	-0.003805
C47	C	-0.485759	0.541626	-0.504090
C48	C	0.014241	1.041626	-0.004090
C49	C	-0.418536	0.582962	-0.434463
C50	C	0.081464	1.082962	0.065537
C51	C	-0.344222	0.548214	-0.460441
C52	C	0.155778	1.048214	0.039559
C53	C	-0.344638	0.462499	-0.460934
C54	C	0.155362	0.962499	0.039066
C55	C	-0.424811	0.479707	-0.338939
C56	C	0.075189	0.979707	0.161061
C57	C	-0.426595	0.565284	-0.339450
C58	C	0.073405	1.065284	0.160550
C59	C	-0.418520	0.666820	-0.434472
C60	C	0.081480	1.166820	0.065528
C61	C	-0.418564	0.350723	-0.434438
C62	C	0.081436	0.850723	0.065562
C63	C	-0.992355	1.008480	-0.434484
C64	C	-0.492355	1.508480	0.065516
C65	C	-0.970963	0.941456	-0.504378
C66	C	-0.470963	1.441456	-0.004378
C67	C	-0.885314	0.941216	-0.504160
C68	C	-0.385314	1.441216	-0.004160
C69	C	-0.843969	1.008403	-0.434460
C70	C	-0.343969	1.508403	0.065540
C71	C	-0.861617	1.000790	-0.339389
C72	C	-0.361617	1.500790	0.160611
C73	C	-0.947321	1.000363	-0.339807
C74	C	-0.447321	1.500363	0.160193
C75	C	-0.964162	1.083362	-0.458824
C76	C	-0.464162	1.583362	0.041176
C77	C	-0.878807	1.082605	-0.460909
C78	C	-0.378807	1.582605	0.039091
C79	C	-0.760107	1.008362	-0.434441
C80	C	-0.260107	1.508362	0.065559
C81	C	-1.076216	1.008521	-0.434496
C82	C	-0.576216	1.508521	0.065504
C83	C	-0.225378	1.008511	-0.434489
C84	C	0.274622	1.508511	0.065511
C85	C	-0.143067	1.008559	-0.434509
C86	C	0.356933	1.508559	0.065491
C87	C	-0.451897	0.974988	-0.669742
C88	C	0.048103	1.474988	-0.169742
C89	C	-0.466115	0.960751	-0.770013
C90	C	0.033885	1.460751	-0.270013
C91	C	-0.418562	1.201561	-0.434431
C92	C	0.081438	1.701561	0.065569
C93	C	-0.418574	1.283876	-0.434426
C94	C	0.081426	1.783876	0.065574
C95	C	-0.316788	1.110180	-1.052693
C96	C	0.183212	1.610180	-0.552693
C97	C	-0.303432	1.123562	-0.958483
C98	C	0.196568	1.623562	-0.458483
C99	C	-0.344101	1.082860	-0.911361
C100	C	0.155899	1.582860	-0.411361
C101	C	-0.398130	1.028775	-0.958457
C102	C	0.101870	1.528775	-0.458457
C103	C	-0.411493	1.015397	-1.052676
C104	C	0.088507	1.515397	-0.552676
C105	C	-0.438805	0.988076	-0.911344
C106	C	0.061195	1.488076	-0.411344
C107	C	-0.492834	0.933991	-0.958440
C108	C	0.007166	1.433991	-0.458440
C109	C	-0.506194	0.920615	-1.052650
C110	C	-0.006194	1.420615	-0.552650
C111	C	-0.465524	0.961317	-1.099772
C112	C	0.034476	1.461317	-0.599772
C113	C	-0.425443	1.001455	-0.817126
C114	C	0.074557	1.501455	-0.317126
C115	C	-0.520147	0.906671	-0.817109
C116	C	-0.020147	1.406671	-0.317109
C117	C	-0.533504	0.893289	-0.911318
C118	C	-0.033504	1.393289	-0.411318
C119	C	-0.385246	1.041720	-0.200059
C120	C	0.114754	1.541720	0.299941
C121	C	-0.370820	1.056100	-0.099789
C122	C	0.129180	1.556100	0.400211
H123	H	-0.541644	0.437721	-0.487706
H124	H	-0.041644	0.937721	0.012294
C125	C	-0.272058	1.154943	-1.104527
C126	C	0.227942	1.654943	-0.604527
H127	H	-0.287752	1.139225	-1.167381
H128	H	0.212248	1.639225	-0.667381
H129	H	-0.280711	1.206888	-1.089084
H130	H	0.219289	1.706888	-0.589084
H131	H	-0.220107	1.146320	-1.089104
H132	H	0.279893	1.646320	-0.589104
C133	C	-0.358330	0.462266	-0.269118
C134	C	0.141670	0.962266	0.230882
H135	H	-0.362417	0.489700	-0.211546
H136	H	0.137583	0.989700	0.288454
H137	H	-0.358861	0.410122	-0.267010
H138	H	0.141139	0.910122	0.232990
H139	H	-0.312693	0.476228	-0.285724
H140	H	0.187307	0.976228	0.214276
H141	H	-0.868382	1.088591	-0.530876
H142	H	-0.368382	1.588591	-0.030876
C143	C	-0.275533	0.443778	-0.395681
C144	C	0.224467	0.943778	0.104319
H145	H	-0.247327	0.488542	-0.368993
H146	H	0.252673	0.988542	0.131007
H147	H	-0.291386	0.421096	-0.350012
H148	H	0.208614	0.921096	0.149988
H149	H	-0.245242	0.410154	-0.427795
H150	H	0.254758	0.910154	0.072205
H151	H	-0.874262	0.944413	-0.574655
H152	H	-0.374262	1.444413	-0.074655
C153	C	-1.012378	0.945484	-0.599901
C154	C	-0.512378	1.445484	-0.099901
H155	H	-1.043082	0.988081	-0.598017
H156	H	-0.543082	1.488081	-0.098017
H157	H	-0.976870	0.949464	-0.638224
H158	H	-0.476870	1.449464	-0.138224
H159	H	-1.042777	0.901374	-0.622381
H160	H	-0.542777	1.401374	-0.122381
C161	C	-0.840844	1.152170	-0.397139
C162	C	-0.340844	1.652170	0.102861
H163	H	-0.803086	1.136802	-0.353352
H164	H	-0.303086	1.636802	0.146648
H165	H	-0.818822	1.183103	-0.430770
H166	H	-0.318822	1.683103	0.069230
H167	H	-0.877211	1.179515	-0.367931
H168	H	-0.377211	1.679515	0.132069
C169	C	-0.592938	0.833806	-0.963130
C170	C	-0.092938	1.333806	-0.463130
H171	H	-0.595072	0.831674	-1.025987
H172	H	-0.095072	1.331674	-0.525987
H173	H	-0.579907	0.786244	-0.947699
H174	H	-0.079907	1.286244	-0.447699
H175	H	-0.640510	0.846812	-0.947678
H176	H	-0.140510	1.346812	-0.447678
C177	C	-0.500368	0.596485	-0.312970
C178	C	-0.000368	1.096485	0.187030
H179	H	-0.526154	0.620189	-0.359617
H180	H	-0.026154	1.120189	0.140383
H181	H	-0.530861	0.556587	-0.304096
H182	H	-0.030861	1.056587	0.195904
H183	H	-0.489595	0.631952	-0.258863
H184	H	0.010405	1.131952	0.241137
H185	H	-0.333223	1.093758	-0.834652
H186	H	0.166777	1.593758	-0.334652
H187	H	-0.862596	0.885439	-0.488038
H188	H	-0.362596	1.385439	0.011962
H189	H	-0.482942	0.424535	-0.574159
H190	H	0.017058	0.924535	-0.074159
C191	C	-0.275391	0.585107	-0.394320
C192	C	0.224609	1.085107	0.105680
H193	H	-0.231075	0.563260	-0.411263
H194	H	0.268925	1.063260	0.088737
H195	H	-0.273737	0.637345	-0.395704
H196	H	0.226263	1.137345	0.104296
H197	H	-0.278891	0.577459	-0.335192
H198	H	0.221109	1.077459	0.164808
C199	C	-0.823836	1.065461	-0.267115
C200	C	-0.323836	1.565461	0.232885
H201	H	-0.796897	1.097754	-0.294344
H202	H	-0.296897	1.597754	0.205656
H203	H	-0.861045	1.092914	-0.239627
H204	H	-0.361045	1.592914	0.260373
H205	H	-0.790244	1.045609	-0.222791
H206	H	-0.290244	1.545609	0.277209
H207	H	-0.977185	1.133131	-0.407917
H208	H	-0.477185	1.633131	0.092083
C209	C	-0.564883	0.861894	-0.765284
C210	C	-0.064883	1.361894	-0.265284
H211	H	-0.549182	0.877602	-0.702430
H212	H	-0.049182	1.377602	-0.202430
H213	H	-0.616832	0.870508	-0.780707
H214	H	-0.116832	1.370508	-0.280707
H215	H	-0.556221	0.809947	-0.780731
H216	H	-0.056221	1.309947	-0.280731
H217	H	-0.381451	1.045490	-0.778789
H218	H	0.118549	1.545490	-0.278789
C219	C	-0.244003	1.183048	-0.906684
C220	C	0.255997	1.683048	-0.406684
H221	H	-0.221691	1.205367	-0.948239
H222	H	0.278309	1.705367	-0.448239
H223	H	-0.267125	1.220516	-0.869923
H224	H	0.232875	1.720516	-0.369923
H225	H	-0.206517	1.159953	-0.869942
H226	H	0.293483	1.659953	-0.369942
H227	H	-0.837247	0.947114	-0.318399
H228	H	-0.337247	1.447114	0.181601
C229	C	-0.480216	0.946599	-1.203403
C230	C	0.019784	1.446599	-0.703403
H231	H	-0.448257	0.978587	-1.224718
H232	H	0.051743	1.478587	-0.724718
H233	H	-0.470427	0.895790	-1.224721
H234	H	0.029573	1.395790	-0.724721
H235	H	-0.531031	0.956357	-1.224705
H236	H	-0.031031	1.456357	-0.724705
H237	H	-0.482694	0.552068	-0.574853
H238	H	0.017306	1.052068	-0.074853
C239	C	-0.334346	0.563938	-0.553735
C240	C	0.165654	1.063938	-0.053735
H241	H	-0.289214	0.542689	-0.568857
H242	H	0.210786	1.042689	-0.068857
H243	H	-0.375612	0.542284	-0.597401
H244	H	0.124388	1.042284	-0.097401
H245	H	-0.332107	0.616546	-0.552496
H246	H	0.167893	1.116546	-0.052496
C247	C	-0.560777	0.573118	-0.482106
C248	C	-0.060777	1.073118	0.017894
H249	H	-0.591615	0.533603	-0.472925
H250	H	-0.091615	1.033603	0.027075
H251	H	-0.551629	0.609908	-0.429074
H252	H	-0.051629	1.109908	0.070926
H253	H	-0.585380	0.595257	-0.530775
H254	H	-0.085380	1.095257	-0.030775
C255	C	-0.335332	0.422119	-0.555253
C256	C	0.164668	0.922119	-0.055253
H257	H	-0.331338	0.458152	-0.592909
H258	H	0.168662	0.958152	-0.092909
H259	H	-0.291273	0.393539	-0.550776
H260	H	0.208727	0.893539	-0.050776
H261	H	-0.377659	0.389766	-0.580272
H262	H	0.122341	0.889766	-0.080272
C263	C	-1.006340	1.096302	-0.550880
C264	C	-0.506340	1.596302	-0.050880
H265	H	-0.988483	1.141770	-0.564284
H266	H	-0.488483	1.641770	-0.064284
H267	H	-0.998091	1.055778	-0.596060
H268	H	-0.498091	1.555778	-0.096060
H269	H	-1.058471	1.099349	-0.549082
H270	H	-0.558471	1.599349	-0.049082
C271	C	-0.495805	0.455046	-0.307044
C272	C	0.004195	0.955046	0.192956
H273	H	-0.522295	0.416994	-0.351681
H274	H	-0.022295	0.916994	0.148319
H275	H	-0.481973	0.436120	-0.252497
H276	H	0.018027	0.936120	0.247503
H277	H	-0.526957	0.496813	-0.297300
H278	H	-0.026957	0.996813	0.202700
H279	H	-0.960394	1.047795	-0.285955
H280	H	-0.460394	1.547795	0.214045
H281	H	-0.380027	0.594426	-0.284996
H282	H	0.119973	1.094426	0.215004
H283	H	-0.964431	0.946027	-0.319187
H284	H	-0.464431	1.446027	0.180813
C285	C	-0.565635	0.861136	-1.104458
C286	C	-0.065635	1.361136	-0.604458
H287	H	-0.567774	0.859005	-1.167315
H288	H	-0.067774	1.359005	-0.667315
H289	H	-0.552608	0.813573	-1.089029
H290	H	-0.052608	1.313573	-0.589029
H291	H	-0.613203	0.874149	-1.088998
H292	H	-0.113203	1.374149	-0.588998
H293	H	-0.990284	0.886003	-0.488460
H294	H	-0.490284	1.386003	0.011540
