data_functionalizedCrystal
_audit_creation_method	'MofGen! by Chris Wilmer'
_symmetry_space_group_name_H-M	'P1'
_symmetry_Int_Tables_number	1
_symmetry_cell_setting	triclinic
loop_
_symmetry_equiv_pos_as_xyz
  x,y,z
_cell_length_a	15.298708
_cell_length_b	29.839131
_cell_length_c	15.296720
_cell_angle_alpha	80.368922
_cell_angle_beta	72.673117
_cell_angle_gamma	99.731160
loop_
_atom_site_label
_atom_site_type_symbol
_atom_site_fract_x
_atom_site_fract_y
_atom_site_fract_z
Zn1	Zn	1.330585	-0.088169	0.280142
Zn2	Zn	1.830585	0.411831	0.780142
Zn3	Zn	1.357380	-0.147588	0.124638
Zn4	Zn	1.857380	0.352412	0.624638
Zn5	Zn	1.202000	-0.088198	0.151523
Zn6	Zn	1.702000	0.411802	0.651523
Zn7	Zn	1.175012	-0.179006	0.306936
Zn8	Zn	1.675012	0.320994	0.806936
O9	O	1.266244	-0.125740	0.215810
O10	O	1.766244	0.374260	0.715810
O11	O	1.464274	-0.082890	0.237049
O12	O	1.964274	0.417110	0.737049
O13	O	1.359278	-0.126574	-0.001916
O14	O	1.859278	0.373426	0.498084
O15	O	1.219138	-0.025323	0.168622
O16	O	1.719138	0.474677	0.668622
O17	O	1.483960	-0.126545	0.122801
O18	O	1.983960	0.373455	0.622801
O19	O	1.313608	-0.025302	0.263118
O20	O	1.813608	0.474698	0.763118
O21	O	1.245121	-0.082940	0.017836
O22	O	1.745121	0.417060	0.517836
O23	O	1.068285	-0.113405	0.194603
O24	O	1.568285	0.386595	0.694603
O25	O	1.173140	-0.180093	0.433502
O26	O	1.673140	0.319907	0.933502
O27	O	1.048457	-0.180121	0.308785
O28	O	1.548457	0.319879	0.808785
O29	O	1.287438	-0.113355	0.413816
O30	O	1.787438	0.386645	0.913816
O31	O	1.333108	-0.214627	0.148783
O32	O	1.833108	0.285373	0.648783
O33	O	1.199122	-0.237710	0.282716
O34	O	1.699122	0.262290	0.782716
C35	C	1.024629	-0.150176	0.257520
C36	C	1.524629	0.349824	0.757520
C37	C	0.921261	-0.160642	0.275385
C38	C	1.421261	0.339358	0.775385
C39	C	0.671009	-0.051070	0.088348
C40	C	1.171009	0.448930	0.588348
C41	C	0.768128	-0.041233	0.071564
C42	C	1.268128	0.458767	0.571564
C43	C	0.806416	-0.071085	0.122517
C44	C	1.306416	0.428915	0.622517
C45	C	0.747575	-0.110774	0.190259
C46	C	1.247575	0.389226	0.690259
C47	C	0.650445	-0.120610	0.207051
C48	C	1.150445	0.379390	0.707051
C49	C	0.785853	-0.140625	0.241220
C50	C	1.285853	0.359375	0.741220
C51	C	0.727012	-0.180314	0.308962
C52	C	1.227012	0.319686	0.808962
C53	C	0.629892	-0.190148	0.325750
C54	C	1.129892	0.309852	0.825750
C55	C	0.591604	-0.160297	0.274796
C56	C	1.091604	0.339703	0.774796
C57	C	0.882982	-0.130789	0.224428
C58	C	1.382982	0.369211	0.724428
C59	C	0.862419	-0.200329	0.343131
C60	C	1.362419	0.299671	0.843131
C61	C	0.765300	-0.210166	0.359915
C62	C	1.265300	0.289834	0.859915
C63	C	1.266116	-0.242469	0.215756
C64	C	1.766116	0.257531	0.715756
C65	C	1.266141	-0.292401	0.215749
C66	C	1.766141	0.207599	0.715749
C67	C	1.315407	-0.602005	0.265101
C68	C	1.815407	-0.102005	0.765101
C69	C	1.315498	-0.789673	0.265139
C70	C	1.815498	-0.289673	0.765139
O71	O	1.357258	-0.813912	0.307065
O72	O	1.857258	-0.313912	0.807065
N73	N	1.266384	-0.813177	0.215886
N74	N	1.766384	-0.313177	0.715886
C75	C	1.217239	-0.789762	0.166624
C76	C	1.717239	-0.289762	0.666624
O77	O	1.175458	-0.814061	0.124740
O78	O	1.675458	-0.314061	0.624740
C79	C	1.217142	-0.602095	0.166592
C80	C	1.717142	-0.102095	0.666592
C81	C	1.266268	-0.578592	0.215841
C82	C	1.766268	-0.078592	0.715841
C83	C	1.364528	-0.578502	0.314346
C84	C	1.864528	-0.078502	0.814346
C85	C	1.364508	-0.531587	0.314332
C86	C	1.864508	-0.031587	0.814332
C87	C	1.315369	-0.508174	0.265072
C88	C	1.815369	-0.008174	0.765072
C89	C	1.266249	-0.531677	0.215826
C90	C	1.766249	-0.031677	0.715826
C91	C	1.167992	-0.578682	0.117336
C92	C	1.667992	-0.078682	0.617336
C93	C	1.167970	-0.531762	0.117334
C94	C	1.667970	-0.031762	0.617334
C95	C	1.217096	-0.508259	0.166583
C96	C	1.717096	-0.008259	0.666583
C97	C	1.217090	-0.461350	0.166552
C98	C	1.717090	0.038650	0.666552
N99	N	1.266204	-0.437846	0.215805
N100	N	1.766204	0.062154	0.715805
C101	C	1.315344	-0.461258	0.265065
C102	C	1.815344	0.038742	0.765065
C103	C	1.217294	-0.888289	0.166643
C104	C	1.717294	-0.388289	0.666643
C105	C	1.217319	-0.935205	0.166649
C106	C	1.717319	-0.435205	0.666649
C107	C	1.315578	-0.935114	0.265166
C108	C	1.815578	-0.435114	0.765166
C109	C	1.315558	-0.888196	0.265154
C110	C	1.815558	-0.388196	0.765154
C111	C	1.266408	-0.864785	0.215896
C112	C	1.766408	-0.364785	0.715896
C113	C	1.315300	-0.362733	0.265031
C114	C	1.815300	0.137267	0.765031
C115	C	1.315280	-0.315813	0.265009
C116	C	1.815280	0.184187	0.765009
C117	C	1.217018	-0.315910	0.166497
C118	C	1.717018	0.184090	0.666497
C119	C	1.217042	-0.362825	0.166514
C120	C	1.717042	0.137175	0.666514
C121	C	1.266185	-0.386236	0.215788
C122	C	1.766185	0.113764	0.715788
O123	O	1.175344	-0.437083	0.124656
O124	O	1.675344	0.062917	0.624656
O125	O	1.357101	-0.436954	0.306961
O126	O	1.857101	0.063046	0.806961
C127	C	1.315426	-0.648920	0.265115
C128	C	1.815426	-0.148920	0.765115
C129	C	1.266306	-0.672422	0.215869
C130	C	1.766306	-0.172422	0.715869
C131	C	1.217166	-0.649010	0.166609
C132	C	1.717166	-0.149010	0.666609
C133	C	1.266331	-0.719338	0.215876
C134	C	1.766331	-0.219338	0.715876
C135	C	1.315471	-0.742751	0.265136
C136	C	1.815471	-0.242751	0.765136
C137	C	1.364585	-0.719247	0.314389
C138	C	1.864585	-0.219247	0.814389
C139	C	1.364566	-0.672332	0.314375
C140	C	1.864566	-0.172332	0.814375
C141	C	1.168052	-0.672514	0.117356
C142	C	1.668052	-0.172514	0.617356
C143	C	1.168076	-0.719429	0.117373
C144	C	1.668076	-0.219429	0.617373
C145	C	1.217216	-0.742841	0.166633
C146	C	1.717216	-0.242841	0.666633
C147	C	1.508803	-0.101210	0.173937
C148	C	2.008803	0.398790	0.673937
C149	C	1.612167	-0.090756	0.156094
C150	C	2.112167	0.409244	0.656094
C151	C	1.224290	-0.150225	0.458341
C152	C	1.724290	0.349775	0.958341
C153	C	1.206411	-0.160659	0.561693
C154	C	1.706411	0.339341	1.061693
C155	C	1.266395	-0.008555	0.215880
C156	C	1.766395	0.491445	0.715880
C157	C	1.266459	0.041382	0.215910
C158	C	1.766459	0.541382	0.715910
C159	C	1.308089	-0.101313	-0.025787
C160	C	1.808089	0.398687	0.474213
C161	C	1.326148	-0.090735	-0.129170
C162	C	1.826148	0.409265	0.370830
C163	C	1.394059	-0.051085	0.812028
C164	C	1.894059	0.448915	1.312028
C165	C	1.410863	-0.041282	0.714922
C166	C	1.910863	0.458718	1.214922
C167	C	1.359751	-0.071126	0.676610
C168	C	1.859751	0.428874	1.176610
C169	C	1.291833	-0.110774	0.735413
C170	C	1.791833	0.389226	1.235413
C171	C	1.275033	-0.120580	0.832528
C172	C	1.775033	0.379420	1.332528
C173	C	1.240725	-0.140620	0.697110
C174	C	1.740725	0.359380	1.197110
C175	C	1.172807	-0.180268	0.755913
C176	C	1.672807	0.319732	1.255913
C177	C	1.156010	-0.190072	0.853018
C178	C	1.656010	0.309928	1.353018
C179	C	1.207122	-0.160229	0.891330
C180	C	1.707122	0.339771	1.391330
C181	C	1.257525	-0.130814	0.599995
C182	C	1.757525	0.369186	1.099995
C183	C	1.138499	-0.200308	0.620495
C184	C	1.638499	0.299692	1.120495
C185	C	1.121696	-0.210111	0.717601
C186	C	1.621696	0.289889	1.217601
H187	H	0.639824	-0.026767	0.046874
H188	H	1.139824	0.473233	0.546874
H189	H	1.100714	-0.222359	0.900892
H190	H	1.600714	0.277641	1.400892
H191	H	1.177012	-0.296840	0.126386
H192	H	1.677012	0.203160	0.626386
H193	H	1.435672	-0.026794	0.843230
H194	H	1.935672	0.473206	1.343230
H195	H	1.193444	-0.168208	0.970400
H196	H	1.693444	0.331792	1.470400
Cl197	Cl	1.426260	-0.502049	0.376258
Cl198	Cl	1.926260	-0.002049	0.876258
Cl199	Cl	1.036318	-0.259953	0.791535
Cl200	Cl	1.536318	0.240047	1.291535
H201	H	1.312824	-0.098532	0.552127
H202	H	1.812824	0.401468	1.052127
H203	H	1.466164	-0.009002	0.667050
H204	H	1.966164	0.490998	1.167050
H205	H	1.355287	-0.296679	0.305113
H206	H	1.855287	0.203321	0.805113
Cl207	Cl	0.956942	-0.080896	0.139269
Cl208	Cl	1.456942	0.419104	0.639269
Cl209	Cl	0.842091	0.008662	-0.013588
Cl210	Cl	1.342091	0.508662	0.486412
Cl211	Cl	0.928511	-0.058718	0.101414
Cl212	Cl	1.428511	0.441282	0.601414
Cl213	Cl	0.469505	-0.172659	0.295900
Cl214	Cl	0.969505	0.327341	0.795900
H215	H	1.404542	-0.597560	0.354465
H216	H	1.904542	-0.097560	0.854465
Cl217	Cl	1.377085	-0.392156	0.326973
Cl218	Cl	1.877085	0.107844	0.826973
Cl219	Cl	1.377315	-0.858655	0.327071
Cl220	Cl	1.877315	-0.358655	0.827071
H221	H	0.581984	-0.222463	0.380917
H222	H	1.081984	0.277537	0.880917
H223	H	0.717378	-0.242481	0.415072
H224	H	1.217378	0.257519	0.915072
Cl225	Cl	0.910543	-0.237856	0.407199
Cl226	Cl	1.410543	0.262144	0.907199
Cl227	Cl	1.074246	-0.237829	0.572339
Cl228	Cl	1.574246	0.262171	1.072339
H229	H	1.127944	-0.512704	0.077225
H230	H	1.627944	-0.012704	0.577225
H231	H	1.177049	-0.381960	0.126403
H232	H	1.677049	0.118040	0.626403
H233	H	1.404568	-0.653199	0.354478
H234	H	1.904568	-0.153199	0.854478
Cl235	Cl	1.377352	-0.964555	0.327094
Cl236	Cl	1.877352	-0.464555	0.827094
Cl237	Cl	1.155574	-0.964743	0.104719
Cl238	Cl	1.655574	-0.464743	0.604719
Cl239	Cl	1.155497	-0.858866	0.104716
Cl240	Cl	1.655497	-0.358866	0.604716
H241	H	1.127989	-0.597809	0.077232
H242	H	1.627989	-0.097809	0.577232
H243	H	1.404600	-0.738317	0.354495
H244	H	1.904600	-0.238317	0.854495
Cl245	Cl	1.106316	-0.748969	0.055449
Cl246	Cl	1.606316	-0.248969	0.555449
Cl247	Cl	1.106265	-0.643089	0.055427
Cl248	Cl	1.606265	-0.143089	0.555427
H249	H	1.373437	-0.063142	0.597541
H250	H	1.873437	0.436858	1.097541
