data_functionalizedCrystal
_audit_creation_method	'MofGen! by Chris Wilmer'
_symmetry_space_group_name_H-M	'P1'
_symmetry_Int_Tables_number	1
_symmetry_cell_setting	triclinic
loop_
_symmetry_equiv_pos_as_xyz
  x,y,z
_cell_length_a	19.805407
_cell_length_b	19.076808
_cell_length_c	19.805399
_cell_angle_alpha	87.672943
_cell_angle_beta	89.982197
_cell_angle_gamma	92.320774
loop_
_atom_site_label
_atom_site_type_symbol
_atom_site_fract_x
_atom_site_fract_y
_atom_site_fract_z
Zn1	Zn	1.023912	-0.280283	-0.371852
Zn2	Zn	1.019281	-0.397988	-0.254114
Zn3	Zn	0.910726	-0.280297	-0.258680
Zn4	Zn	0.906146	-0.397945	-0.367265
O5	O	0.965016	-0.339128	-0.312978
O6	O	1.118013	-0.295909	-0.356243
O7	O	1.004860	-0.382400	-0.160002
O8	O	0.929595	-0.181799	-0.277523
O9	O	1.114611	-0.382386	-0.269740
O10	O	1.012752	-0.181788	-0.360670
O11	O	0.925105	-0.295932	-0.163357
O12	O	0.815402	-0.295891	-0.273075
O13	O	0.921789	-0.382313	-0.462591
O14	O	0.812037	-0.382326	-0.352853
O15	O	1.008311	-0.295867	-0.465961
O16	O	1.000419	-0.496478	-0.265293
O17	O	0.917299	-0.496447	-0.348425
C18	C	0.789161	-0.339106	-0.312962
C19	C	0.713929	-0.339113	-0.312971
C20	C	0.680354	-0.294164	-0.358075
C21	C	0.609665	-0.294168	-0.358078
C22	C	0.572553	-0.339125	-0.312979
C23	C	0.606133	-0.384076	-0.267869
C24	C	0.676820	-0.384068	-0.267864
C25	C	0.321058	-0.384108	-0.267889
C26	C	0.250366	-0.384113	-0.267899
C27	C	0.253903	-0.294207	-0.358102
C28	C	0.324590	-0.294200	-0.358097
C29	C	0.358164	-0.339148	-0.312986
C30	C	0.434813	-0.339142	-0.312983
C31	C	0.495905	-0.339134	-0.312984
C32	C	0.957878	-0.522001	-0.305881
C33	C	0.954886	-0.600235	-0.302867
C34	C	0.996743	-0.636924	-0.344777
C35	C	0.993929	-0.710433	-0.341946
C36	C	0.949261	-0.747253	-0.297202
C37	C	0.907399	-0.710559	-0.255291
C38	C	0.910210	-0.637051	-0.258125
C39	C	0.936211	-0.967105	-0.284083
C40	C	0.933405	-1.040618	-0.281250
C41	C	1.019935	-1.040487	-0.367907
C42	C	1.022745	-0.966978	-0.370734
C43	C	0.980880	-0.930290	-0.328826
N44	N	0.946385	-0.822391	-0.294307
N45	N	0.983753	-0.855154	-0.331725
C46	C	1.141558	-0.339151	-0.312994
C47	C	1.216789	-0.339160	-0.313001
C48	C	0.965056	-0.339084	-0.489522
C49	C	0.965073	-0.339065	-0.564755
C50	C	0.972201	-0.155540	-0.320117
C51	C	0.975262	-0.077306	-0.323160
C52	C	1.010126	-0.294050	-0.601855
C53	C	1.010133	-0.294030	-0.672544
C54	C	0.965091	-0.339028	-0.706132
C55	C	0.920033	-0.384045	-0.669027
C56	C	0.920022	-0.384061	-0.598339
C57	C	0.920074	-0.383979	-0.954103
C58	C	0.920089	-0.383961	-1.024796
C59	C	1.010185	-0.293948	-1.028308
C60	C	1.010174	-0.293964	-0.957620
C61	C	0.965114	-0.338978	-0.920522
C62	C	0.965105	-0.338998	-0.843872
C63	C	0.965102	-0.339011	-0.782780
C64	C	0.965017	-0.339121	-0.137122
C65	C	0.965139	-0.338942	-0.061897
H66	H	0.704156	-0.420670	-0.231135
H67	H	0.226559	-0.257606	-0.394832
H68	H	0.575910	-0.420677	-0.231146
H69	H	0.883407	-0.420605	-1.052141
O70	O	0.876272	-0.427761	-0.918174
C71	C	0.836506	-0.467455	-0.962981
H72	H	0.864151	-0.469899	-1.013272
H73	H	0.827091	-0.522911	-0.940394
H74	H	0.786121	-0.441655	-0.971507
H75	H	0.902125	-0.937239	-0.249958
H76	H	0.348385	-0.420708	-0.231157
O77	O	0.214417	-0.427806	-0.224019
C78	C	0.259207	-0.467489	-0.184212
H79	H	0.310717	-0.438652	-0.183026
H80	H	0.238468	-0.474921	-0.130586
H81	H	0.264653	-0.520982	-0.206832
O82	O	1.040151	-0.601270	-0.388303
C83	C	1.076501	-0.649419	-0.424676
H84	H	1.046771	-0.701840	-0.424969
H85	H	1.084499	-0.628144	-0.478832
H86	H	1.127625	-0.657208	-0.399639
O87	O	1.066044	-0.931140	-0.414239
C88	C	1.029109	-0.888639	-0.459572
H89	H	0.978249	-0.877681	-0.436077
H90	H	1.058654	-0.836921	-0.470664
H91	H	1.020559	-0.916946	-0.508632
O92	O	0.577020	-0.250435	-0.401801
C93	C	0.537875	-0.204933	-0.365112
H94	H	0.559330	-0.200502	-0.311982
H95	H	0.539187	-0.150802	-0.391786
H96	H	0.483455	-0.226699	-0.361902
H97	H	0.871026	-0.740543	-0.218862
H98	H	1.054018	-1.070366	-0.402027
O99	O	1.034622	-0.746155	-0.382554
C100	C	1.076739	-0.788649	-0.342410
H101	H	1.052468	-0.799707	-0.290671
H102	H	1.083817	-0.840319	-0.367991
H103	H	1.127989	-0.760286	-0.336108
O104	O	0.869523	-0.601518	-0.217347
C105	C	0.829481	-0.649776	-0.177260
H106	H	0.855205	-0.702152	-0.172917
H107	H	0.823097	-0.628573	-0.124744
H108	H	0.777763	-0.657626	-0.201702
O109	O	1.053894	-0.250308	-0.924887
C110	C	1.044207	-0.259958	-0.854541
H111	H	1.019927	-0.314282	-0.842767
H112	H	1.095084	-0.255177	-0.827864
H113	H	1.009778	-0.218217	-0.836109
O114	O	0.889949	-1.076276	-0.237769
C115	C	0.853611	-1.028133	-0.201376
H116	H	0.853253	-0.975719	-0.231117
H117	H	0.799474	-1.049427	-0.193292
H118	H	0.878721	-1.020326	-0.150291
O119	O	0.360717	-0.250494	-0.401814
C120	C	0.403349	-0.204966	-0.365111
H121	H	0.412953	-0.229721	-0.312816
H122	H	0.453434	-0.195566	-0.393054
H123	H	0.378134	-0.152798	-0.359783
H124	H	0.883329	-0.420709	-0.568133
H125	H	1.046807	-0.257409	-0.574513
H126	H	1.046822	-0.257376	-0.702748
O127	O	1.053923	-0.250116	-1.064276
C128	C	1.041865	-0.179967	-1.049738
H129	H	1.015894	-0.178519	-0.998467
H130	H	1.091949	-0.148414	-1.048553
H131	H	1.008002	-0.156241	-1.090438
H132	H	0.710565	-0.257557	-0.394802
H133	H	0.883356	-0.420680	-0.696380
