data_functionalizedCrystal
_audit_creation_method	'MofGen! by Chris Wilmer'
_symmetry_space_group_name_H-M	'P1'
_symmetry_Int_Tables_number	1
_symmetry_cell_setting	triclinic
loop_
_symmetry_equiv_pos_as_xyz
  x,y,z
_cell_length_a	16.120490
_cell_length_b	18.215404
_cell_length_c	18.215399
_cell_angle_alpha	89.972485
_cell_angle_beta	92.915256
_cell_angle_gamma	92.883826
loop_
_atom_site_label
_atom_site_type_symbol
_atom_site_fract_x
_atom_site_fract_y
_atom_site_fract_z
Zn1	Zn	1.274549	0.350181	0.473068
Zn2	Zn	1.274448	0.473248	0.349998
Zn3	Zn	1.135132	0.343949	0.343786
Zn4	Zn	1.135096	0.466953	0.466797
O5	O	1.204806	0.408583	0.408412
O6	O	1.391202	0.371749	0.461967
O7	O	1.255940	0.456122	0.246189
O8	O	1.153683	0.241794	0.360960
O9	O	1.391128	0.462166	0.371548
O10	O	1.256113	0.246373	0.455944
O11	O	1.153585	0.361127	0.241625
O12	O	1.018461	0.355023	0.354879
O13	O	1.153622	0.451437	0.570614
O14	O	1.018434	0.445394	0.445255
O15	O	1.256078	0.365645	0.575222
O16	O	1.255905	0.575395	0.365467
O17	O	1.153524	0.570770	0.451278
C18	C	1.204722	0.599785	0.408383
C19	C	1.204762	0.681586	0.408399
C20	C	0.988197	0.398849	0.398713
C21	C	0.895531	0.394703	0.394580
C22	C	1.258202	0.872169	0.363819
C23	C	1.258241	0.949030	0.363843
C24	C	1.151538	0.944250	0.453117
C25	C	1.151504	0.867391	0.453097
C26	C	1.204835	0.831353	0.408444
C27	C	1.204908	0.985072	0.408488
C28	C	1.204949	1.068408	0.408513
C29	C	1.204794	0.748012	0.408419
C30	C	0.684589	0.430085	0.429848
C31	C	0.725874	0.387140	0.387035
C32	C	0.820280	0.391349	0.391235
C33	C	0.590175	0.425876	0.425649
C34	C	1.422261	0.418355	0.418150
C35	C	1.514927	0.422519	0.422300
C36	C	1.204857	0.408534	0.600368
C37	C	1.204879	0.408514	0.682168
C38	C	1.204919	1.216635	0.408472
C39	C	1.204980	1.134839	0.408532
C40	C	1.204804	0.408580	0.217206
C41	C	1.204943	0.408401	0.135414
C42	C	1.258247	0.363799	0.872763
C43	C	1.258257	0.363778	0.949622
C44	C	1.151570	0.453118	0.944813
C45	C	1.151556	0.453134	0.867955
C46	C	1.204899	0.408476	0.831932
C47	C	1.204923	0.408439	0.985649
C48	C	1.204933	0.408416	1.068983
C49	C	1.204888	0.408497	0.748593
H50	H	1.301628	0.842829	0.327461
H51	H	1.108141	0.489478	0.974152
H52	H	1.301699	0.982260	0.327507
H53	H	1.108108	0.489515	0.834709
H54	H	1.108117	0.973602	0.489471
Cl55	Cl	1.084413	0.816075	0.509205
Cl56	Cl	0.739483	0.491735	0.491294
H57	H	0.690318	0.347212	0.347228
H58	H	1.301680	0.327433	0.843435
Cl59	Cl	1.325332	0.307616	1.000950
