data_functionalizedCrystal
_audit_creation_method	'MofGen! by Chris Wilmer'
_symmetry_space_group_name_H-M	'P1'
_symmetry_Int_Tables_number	1
_symmetry_cell_setting	triclinic
loop_
_symmetry_equiv_pos_as_xyz
  x,y,z
_cell_length_a	15.625950
_cell_length_b	19.288865
_cell_length_c	17.766277
_cell_angle_alpha	89.988397
_cell_angle_beta	108.064049
_cell_angle_gamma	83.719661
loop_
_atom_site_label
_atom_site_type_symbol
_atom_site_fract_x
_atom_site_fract_y
_atom_site_fract_z
O1	O	1.195671	0.090738	0.263649
O2	O	0.933191	0.101529	0.192025
O3	O	1.072015	-0.004971	0.229922
O4	O	1.056847	0.197238	0.225753
O5	O	1.071991	-0.004977	0.355103
O6	O	0.933166	0.101523	0.317207
O7	O	1.195647	0.090732	0.388831
Cu8	Cu	1.064405	0.096127	0.364449
Cu9	Cu	1.064433	0.096134	0.216407
O10	O	1.056822	0.197232	0.350934
C11	C	1.071515	-0.030852	0.292382
C12	C	1.070050	-0.107961	0.291988
C13	C	0.899598	0.101035	0.245453
C14	C	0.799538	0.099564	0.218151
C15	C	1.151506	-0.152378	0.314219
C16	C	1.150130	-0.224830	0.313831
C17	C	1.067292	-0.252861	0.291227
C18	C	0.985826	-0.208433	0.268989
C19	C	0.987205	-0.135983	0.269370
C20	C	1.002164	-0.361373	0.317306
C21	C	1.000789	-0.433822	0.316931
C22	C	1.063036	-0.476321	0.290049
C23	C	1.126675	-0.446364	0.263555
C24	C	1.128053	-0.373913	0.263936
C25	C	1.065788	-0.331420	0.290812
C26	C	1.143006	-0.599300	0.311860
C27	C	1.141626	-0.671753	0.311467
C28	C	0.977319	-0.655354	0.266632
C29	C	0.978702	-0.582903	0.267018
C30	C	1.061547	-0.554881	0.289636
C31	C	0.470293	0.094748	0.469446
C32	C	0.376270	0.093380	0.443756
C33	C	0.376343	0.093386	0.307300
C34	C	0.470368	0.094759	0.332979
C35	C	0.517336	0.095439	0.414053
C36	C	0.517411	0.095449	0.277586
C37	C	0.611428	0.096817	0.303263
C38	C	0.658403	0.097495	0.384334
C39	C	0.611354	0.096807	0.439730
C40	C	0.470442	0.094764	0.196512
C41	C	0.517484	0.095454	0.141119
C42	C	0.611503	0.096827	0.166796
C43	C	0.658478	0.097505	0.247867
C44	C	0.658552	0.097515	0.111399
C45	C	0.752570	0.098884	0.137077
C46	C	0.752495	0.098874	0.273544
C47	C	1.229240	0.091226	0.335401
C48	C	1.329300	0.092697	0.362699
C49	C	1.057323	0.223113	0.288473
C50	C	1.058788	0.300222	0.288861
N51	N	1.064391	0.096122	0.468576
N52	N	1.064454	0.096133	0.112282
C53	C	1.125882	0.048987	0.524748
C54	C	1.125887	0.048984	0.603552
C55	C	1.064410	0.096128	0.626181
C56	C	1.002907	0.143266	0.569996
C57	C	1.002898	0.143264	0.491193
C58	C	1.052343	0.159374	0.747717
C59	C	1.052358	0.159378	0.826520
C60	C	1.064434	0.096136	0.869234
C61	C	1.076513	0.032888	0.833141
C62	C	1.076503	0.032885	0.754338
C63	C	1.064413	0.096136	0.711628
C64	C	1.125934	0.048994	1.010855
C65	C	1.125933	0.048990	1.089658
C66	C	1.002957	0.143278	1.056102
C67	C	1.002954	0.143276	0.977300
C68	C	1.064447	0.096135	0.954682
H69	H	1.218965	-0.129567	0.332634
H70	H	0.952885	0.181661	0.931561
Cl71	Cl	1.037180	0.238889	0.871889
H72	H	1.175963	0.010600	0.649296
H73	H	0.620298	0.096954	0.045389
H74	H	1.210463	-0.576483	0.330274
Cl75	Cl	1.252539	-0.280680	0.341780
Cl76	Cl	1.037245	0.238888	0.694051
Cl77	Cl	1.208046	-0.336254	0.230625
H78	H	1.207960	-0.707918	0.329566
H79	H	0.920871	-0.099818	0.251267
H80	H	0.790872	0.099449	0.091970
H81	H	0.790738	0.099438	0.339562
H82	H	1.177362	-0.480965	0.241665
Cl83	Cl	0.458434	0.094576	0.039202
Cl84	Cl	0.923904	-0.307953	0.351108
H85	H	0.952850	0.181650	0.588425
H86	H	0.909872	-0.678176	0.248223
Cl87	Cl	0.317135	0.092500	0.513403
H88	H	0.734959	0.098609	0.405239
Cl89	Cl	0.876294	-0.527061	0.239072
Cl90	Cl	1.091677	-0.046622	0.708962
Cl91	Cl	1.203182	-0.010278	0.496314
H92	H	0.508536	0.095313	0.535464
H93	H	0.948967	-0.458207	0.338499
Cl94	Cl	1.091702	-0.046621	0.886831
Cl95	Cl	0.352250	0.093022	0.164234
Cl96	Cl	0.881687	-0.243671	0.240566
Cl97	Cl	1.203235	-0.010273	0.982419
H98	H	1.176004	0.010603	1.135396
Cl99	Cl	0.925664	0.202539	1.084544
H100	H	0.649596	0.097371	0.505748
H101	H	0.952823	0.181647	0.445454
H102	H	0.338089	0.092829	0.241289
