data_functionalizedCrystal
_audit_creation_method	'MofGen! by Chris Wilmer'
_symmetry_space_group_name_H-M	'P1'
_symmetry_Int_Tables_number	1
_symmetry_cell_setting	triclinic
loop_
_symmetry_equiv_pos_as_xyz
  x,y,z
_cell_length_a	6.817900
_cell_length_b	16.418049
_cell_length_c	16.015572
_cell_angle_alpha	77.934069
_cell_angle_beta	104.485554
_cell_angle_gamma	103.389670
loop_
_atom_site_label
_atom_site_type_symbol
_atom_site_fract_x
_atom_site_fract_y
_atom_site_fract_z
V1	V	-3.991464	-0.033756	-0.269482
O2	O	-3.980161	0.086040	-0.264039
O3	O	-3.942731	-0.148123	-0.267939
O4	O	-3.927893	0.003804	-0.386875
O5	O	-3.995101	-0.066939	-0.144280
V6	V	-4.477101	-0.023804	-0.254470
O7	O	-4.248085	-0.055588	-0.302411
O8	O	-4.670677	-0.001973	-0.221541
O9	O	-4.302628	0.090562	-0.256012
O10	O	-4.605801	-0.143600	-0.259913
O11	O	-4.590861	0.009378	-0.379671
O12	O	-4.317465	-0.061364	-0.137077
C13	C	-3.788141	-0.177160	-0.263766
C14	C	-3.829481	-0.270418	-0.263287
C15	C	-4.106096	-0.487922	-0.266521
C16	C	-4.144927	-0.575546	-0.266079
C17	C	-3.781827	-0.569636	-0.257436
C18	C	-3.743001	-0.482013	-0.257884
C19	C	-3.905141	-0.441159	-0.262423
C20	C	-3.982798	-0.616406	-0.261532
C21	C	-4.024899	-0.711412	-0.261053
C22	C	-3.863038	-0.346147	-0.262903
C23	C	-3.769214	0.016638	-0.415478
C24	C	-3.798519	0.046591	-0.511450
C25	C	-4.086378	-0.219271	-0.889781
C26	C	-4.113920	-0.191098	-0.979956
C27	C	-4.037357	-0.045343	-0.954866
C28	C	-4.009798	-0.073503	-0.864687
C29	C	-4.034315	-0.160468	-0.832152
C30	C	-3.957735	-0.014701	-0.807058
C31	C	-3.930190	-0.042859	-0.716886
C32	C	-3.954708	-0.129820	-0.684344
C33	C	-4.006770	-0.188626	-0.741980
C34	C	-3.933233	0.072263	-0.839595
C35	C	-3.881170	0.131066	-0.781966
C36	C	-3.853610	0.102908	-0.691793
C37	C	-3.878128	0.015947	-0.659250
C38	C	-3.801548	0.161714	-0.634156
C39	C	-3.774002	0.133556	-0.543985
C40	C	-3.850582	-0.012212	-0.569079
C41	C	-4.120560	0.119595	-0.260183
C42	C	-4.058457	0.212853	-0.260667
C43	C	-4.139487	-0.074203	-0.108469
C44	C	-4.089421	-0.104152	-0.012497
H45	H	-3.649823	-0.602911	-0.253739
H46	H	-4.106315	-0.290085	-0.863288
H47	H	-3.579353	-0.443936	-0.254549
H48	H	-4.026707	-0.259441	-0.715488
H49	H	-3.870519	-0.083026	-0.542587
C50	C	-3.924404	-0.160795	-0.585152
N51	N	-3.901574	-0.184125	-0.510440
H52	H	-4.156307	-0.238989	-1.026876
C53	C	-4.284462	-0.442983	-0.271530
N54	N	-4.418817	-0.409137	-0.275308
C55	C	-3.963541	0.103236	-0.938788
N56	N	-3.986367	0.126564	-1.013500
C57	C	-3.854190	0.226725	-0.817766
N58	N	-3.833855	0.298777	-0.844728
C59	C	-4.365990	-0.626982	-0.270586
N60	N	-4.532503	-0.665724	-0.273979
H61	H	-4.017408	0.025464	-0.981370
H62	H	-3.781612	0.232521	-0.660661
H63	H	-3.731609	0.181439	-0.497061
