data_functionalizedCrystal
_audit_creation_method	'MofGen! by Chris Wilmer'
_symmetry_space_group_name_H-M	'P1'
_symmetry_Int_Tables_number	1
_symmetry_cell_setting	triclinic
loop_
_symmetry_equiv_pos_as_xyz
  x,y,z
_cell_length_a	27.732048
_cell_length_b	16.176319
_cell_length_c	17.699083
_cell_angle_alpha	89.998504
_cell_angle_beta	82.962835
_cell_angle_gamma	89.998122
loop_
_atom_site_label
_atom_site_type_symbol
_atom_site_fract_x
_atom_site_fract_y
_atom_site_fract_z
O1	O	0.641253	-0.068642	0.090053
O2	O	0.500509	-0.068667	0.103746
O3	O	0.574858	-0.068646	-0.013325
O4	O	0.566905	-0.068662	0.207124
O5	O	0.574846	0.068847	-0.013318
O6	O	0.500498	0.068826	0.103752
O7	O	0.641242	0.068851	0.090059
Cu8	Cu	0.570869	0.081393	0.096906
Cu9	Cu	0.570882	-0.081209	0.096899
O10	O	0.566894	0.068831	0.207130
C11	C	0.482496	0.000076	0.103462
C12	C	0.428838	0.000067	0.102596
N13	N	0.570863	0.195758	0.096911
C14	C	0.574567	0.000100	-0.041516
C15	C	0.573712	0.000100	-0.125527
C16	C	0.090252	0.000098	0.166329
C17	C	-0.111419	0.000106	0.163117
O18	O	-0.142466	0.000137	0.221396
N19	N	-0.130793	0.000109	0.093699
C20	C	-0.099745	0.000116	0.025079
O21	O	-0.120851	0.000128	-0.034039
C22	C	0.101925	0.000115	0.028291
C23	C	0.121296	0.000103	0.097714
C24	C	0.109623	0.000087	0.235746
C25	C	0.160037	0.000081	0.236548
C26	C	0.191081	0.000085	0.167933
C27	C	0.171710	0.000096	0.098516
C28	C	0.132972	0.000128	-0.040329
C29	C	0.183392	0.000129	-0.039519
C30	C	0.202763	0.000117	0.029903
C31	C	0.253169	0.000095	0.030703
N32	N	0.272543	0.000091	0.100121
C33	C	0.241499	0.000086	0.168736
C34	C	-0.205625	0.000116	0.023397
C35	C	-0.256042	0.000115	0.022594
C36	C	-0.267713	0.000106	0.160633
C37	C	-0.217295	0.000101	0.161435
C38	C	-0.186252	0.000112	0.092815
C39	C	0.347374	0.000072	0.170415
C40	C	0.397794	0.000062	0.171211
C41	C	0.409460	0.000076	0.033173
C42	C	0.359045	0.000081	0.032376
C43	C	0.328002	0.000082	0.101004
O44	O	0.284244	0.000072	-0.027545
O45	O	0.262614	0.000093	0.227845
C46	C	0.039837	0.000105	0.165526
C47	C	0.020466	0.000116	0.096109
C48	C	0.051510	0.000120	0.027494
C49	C	-0.029951	0.000115	0.095306
C50	C	-0.060995	0.000110	0.163921
C51	C	-0.041622	0.000106	0.233339
C52	C	0.008793	0.000100	0.234141
C53	C	0.032137	0.000124	-0.041924
C54	C	-0.018279	0.000129	-0.042720
C55	C	-0.049323	0.000125	0.025895
C56	C	0.659256	0.000106	0.090343
C57	C	0.712914	0.000110	0.091209
N58	N	0.570892	-0.195574	0.096888
C59	C	0.603818	0.761150	0.045067
C60	C	0.603815	0.674603	0.045073
C61	C	0.570885	0.631334	0.096895
C62	C	0.537958	0.674616	0.148721
C63	C	0.537963	0.761161	0.148719
C64	C	0.537938	0.325588	0.148732
C65	C	0.537935	0.239036	0.148729
C66	C	0.603791	0.239029	0.045086
C67	C	0.603796	0.325575	0.045083
C68	C	0.570871	0.368849	0.096912
C69	C	0.570874	0.462693	0.096906
C70	C	0.570879	0.537491	0.096898
C71	C	0.617353	0.000109	-0.174532
C72	C	0.616547	0.000102	-0.253469
C73	C	0.572099	0.000091	-0.283398
C74	C	0.528455	0.000080	-0.234386
C75	C	0.529262	0.000081	-0.155451
C76	C	0.525201	0.000073	-0.552720
C77	C	0.524398	0.000074	-0.631661
C78	C	0.612486	0.000093	-0.650738
C79	C	0.613293	0.000095	-0.571803
C80	C	0.569649	0.000079	-0.522798
C81	C	0.570524	0.000085	-0.437206
C82	C	0.571224	0.000091	-0.368987
C83	C	0.567184	0.000082	0.235321
C84	C	0.568039	0.000077	0.319332
H85	H	0.322104	0.000076	0.226298
H86	H	0.649487	0.000107	-0.547440
H87	H	0.630609	0.360802	0.002882
N88	N	0.659559	0.000100	-0.703600
H89	H	0.678961	-0.050862	-0.694031
H90	H	0.678910	0.051109	-0.694012
H91	H	0.434745	0.000076	-0.022692
H92	H	-0.271809	0.000111	-0.033937
H93	H	0.630626	0.639368	0.002877
H94	H	0.653548	0.000123	-0.150171
H95	H	0.630602	0.203785	0.002886
H96	H	0.493725	0.000074	-0.115550
H97	H	0.511152	0.796396	0.190917
N98	N	-0.172145	0.000132	-0.050619
H99	H	-0.192074	0.000133	-0.094711
H100	H	-0.150970	-0.050837	-0.053301
N101	N	0.639339	0.807816	-0.010823
H102	H	0.620914	0.843728	-0.044141
H103	H	0.660189	0.767212	-0.043595
H104	H	0.208666	0.000139	-0.095399
H105	H	0.024559	0.000091	0.290672
N106	N	-0.075112	0.000134	0.307345
H107	H	-0.055194	0.000138	0.351450
H108	H	-0.096293	-0.050826	0.310030
H109	H	0.511147	0.639381	0.190920
N110	N	0.663617	0.000116	-0.306326
H111	H	0.691896	0.000131	-0.275388
H112	H	0.665192	0.051087	-0.339492
H113	H	0.117210	0.000138	-0.096860
H114	H	0.511118	0.203808	0.190932
N115	N	0.502417	0.372256	0.204613
H116	H	0.481552	0.331710	0.237434
H117	H	0.481090	0.408161	0.175851
H118	H	0.488201	0.000067	-0.656025
N119	N	0.478130	0.000059	-0.499871
H120	H	0.449852	0.000056	-0.530811
H121	H	0.476541	0.051029	-0.466705
N122	N	0.480513	0.000068	-0.266657
H123	H	0.478218	-0.050900	-0.298983
H124	H	0.478238	0.051072	-0.298943
N125	N	0.418681	0.000044	0.246095
H126	H	0.407355	0.051011	0.276132
H127	H	0.455328	0.000007	0.236138
N128	N	0.180926	0.000064	0.311425
H129	H	0.153604	0.000061	0.354764
H130	H	0.201590	0.051032	0.314775
H131	H	0.084351	0.000086	0.291623
H132	H	-0.201528	0.000096	0.217965
H133	H	-0.292998	0.000102	0.216502
H134	H	0.343273	0.000079	-0.024153
H135	H	-0.034045	0.000132	-0.099257
H136	H	0.057408	0.000130	-0.097800
