data_functionalizedCrystal
_audit_creation_method	'MofGen! by Chris Wilmer'
_symmetry_space_group_name_H-M	'P1'
_symmetry_Int_Tables_number	1
_symmetry_cell_setting	triclinic
loop_
_symmetry_equiv_pos_as_xyz
  x,y,z
_cell_length_a	14.853567
_cell_length_b	14.519709
_cell_length_c	13.930277
_cell_angle_alpha	89.994503
_cell_angle_beta	89.995755
_cell_angle_gamma	83.657538
loop_
_atom_site_label
_atom_site_type_symbol
_atom_site_fract_x
_atom_site_fract_y
_atom_site_fract_z
O1	O	1.196415	0.120405	-0.079767
O2	O	0.933961	0.134748	-0.079783
O3	O	1.072147	-0.006665	-0.079766
O4	O	1.058230	0.261817	-0.079784
O5	O	1.072128	-0.006668	0.079896
O6	O	0.933942	0.134745	0.079878
O7	O	1.196396	0.120402	0.079895
Zn8	Zn	1.065166	0.127573	0.105236
Zn9	Zn	1.065191	0.127577	-0.105125
O10	O	1.058210	0.261814	0.079878
C11	C	0.900363	0.134096	0.000045
C12	C	0.800278	0.132149	0.000039
C13	C	0.387709	0.039914	0.000067
C14	C	0.366493	0.207916	0.000055
C15	C	0.460527	0.209747	0.000052
C16	C	0.518157	0.126660	0.000055
C17	C	0.481752	0.041743	0.000061
C18	C	0.496939	0.294663	0.000035
C19	C	0.590979	0.296498	0.000031
C20	C	0.648610	0.213410	0.000041
C21	C	0.612200	0.128489	0.000049
C22	C	0.669830	0.045403	0.000052
C23	C	0.633422	-0.039520	0.000066
C24	C	0.539383	-0.041345	0.000071
C25	C	0.742649	0.215235	0.000036
C26	C	0.763873	0.047231	0.000046
C27	C	1.071488	-0.041026	0.000065
C28	C	1.069545	-0.143407	0.000065
C29	C	1.062390	-0.518299	0.000040
C30	C	1.064377	-0.413992	0.000047
C31	C	1.065967	-0.330856	0.000054
C32	C	1.067955	-0.226543	0.000059
C33	C	1.229994	0.121053	0.000064
C34	C	1.330079	0.123001	0.000064
C35	C	1.058869	0.296175	0.000044
C36	C	1.060812	0.398556	0.000038
N37	N	1.065155	0.127569	0.248803
N38	N	1.065209	0.127573	-0.248691
C39	C	1.004000	0.190170	0.701064
C40	C	1.126407	0.064977	0.701049
C41	C	1.126396	0.064974	0.600553
C42	C	1.065188	0.127571	0.550308
C43	C	1.003989	0.190171	0.600559
C44	C	1.187599	0.002381	0.550295
C45	C	1.187592	0.002376	0.449793
C46	C	1.126378	0.064970	0.399546
C47	C	1.065177	0.127571	0.449803
C48	C	1.003968	0.190168	0.399558
C49	C	0.942762	0.252767	0.449814
C50	C	0.942776	0.252764	0.550312
C51	C	1.126364	0.064972	0.299047
C52	C	1.003957	0.190169	0.299053
H53	H	0.954110	0.241140	0.258150
H54	H	1.237438	-0.048579	0.591208
C55	C	0.500028	-0.133633	0.000121
C56	C	0.570621	-0.206008	0.000147
C57	C	0.534398	-0.291034	0.000200
H58	H	0.463802	-0.137962	-0.055543
H59	H	0.463805	-0.137892	0.055819
H60	H	0.606829	-0.201751	-0.055546
H61	H	0.606852	-0.201709	0.055806
H62	H	0.498175	-0.295293	0.055898
H63	H	0.498173	-0.295354	-0.055465
H64	H	0.582289	-0.340151	0.000226
H65	H	0.772288	0.284378	0.000026
C66	C	1.192706	-0.003119	0.244522
C67	C	1.177952	-0.093782	0.268949
C68	C	1.239043	-0.156531	0.218724
H69	H	1.252927	0.006894	0.260931
H70	H	1.183919	0.005793	0.177466
H71	H	1.186746	-0.102691	0.335990
H72	H	1.117743	-0.103824	0.252537
H73	H	1.230257	-0.147619	0.151668
H74	H	1.299261	-0.146510	0.235138
H75	H	1.229036	-0.218053	0.235284
C76	C	0.303819	0.298048	-0.000099
C77	C	0.249200	0.301896	-0.082228
C78	C	0.191440	0.384909	-0.082394
H79	H	0.338855	0.348960	-0.000151
H80	H	0.266638	0.300827	0.055551
H81	H	0.286376	0.299126	-0.137863
H82	H	0.214144	0.251003	-0.082193
H83	H	0.154259	0.387689	-0.026744
H84	H	0.226484	0.435815	-0.082444
H85	H	0.154369	0.387528	-0.138113
H86	H	0.810790	-0.020429	0.000052
H87	H	1.237428	-0.048595	0.408882
C88	C	0.696146	-0.129626	0.000116
C89	C	0.786290	-0.109840	0.000124
C90	C	0.844100	-0.192820	0.000182
H91	H	0.685213	-0.164510	-0.055541
H92	H	0.685155	-0.164448	0.055822
H93	H	0.797277	-0.075033	-0.055576
H94	H	0.797253	-0.074970	0.055777
H95	H	0.833109	-0.227642	0.055888
H96	H	0.833158	-0.227697	-0.055475
H97	H	0.905269	-0.179406	0.000197
C98	C	0.876349	0.320626	0.395083
C99	C	0.889436	0.307212	0.296315
C100	C	0.828268	0.369697	0.245864
H101	H	0.886174	0.382237	0.411429
H102	H	0.816149	0.310488	0.411501
H103	H	0.949622	0.317358	0.279904
H104	H	0.879604	0.245614	0.279941
H105	H	0.768068	0.359559	0.262282
H106	H	0.838098	0.431304	0.262218
H107	H	0.837133	0.360598	0.178845
C108	C	0.876291	0.320579	0.605002
C109	C	0.821057	0.271347	0.662740
C110	C	0.759813	0.333787	0.713148
H111	H	0.839743	0.357888	0.560801
H112	H	0.908767	0.359014	0.644249
H113	H	0.788583	0.232928	0.623496
H114	H	0.857579	0.234042	0.706959
H115	H	0.792288	0.372223	0.752395
H116	H	0.723272	0.371093	0.668940
H117	H	0.722334	0.300393	0.752336
C118	C	0.937507	0.257983	0.755745
C119	C	0.882266	0.208749	0.813472
C120	C	0.821010	0.271187	0.863869
H121	H	0.900966	0.295290	0.711537
H122	H	0.969974	0.296421	0.794999
H123	H	0.849801	0.170327	0.774222
H124	H	0.918782	0.171446	0.857698
H125	H	0.853477	0.309625	0.903122
H126	H	0.784475	0.308490	0.819654
H127	H	0.783527	0.237791	0.903049
H128	H	0.620614	0.365646	0.000019
C129	C	0.348011	-0.052190	0.000033
C130	C	0.253322	-0.036016	0.000018
C131	C	0.216721	-0.120841	-0.000027
H132	H	0.367686	-0.086476	0.055696
H133	H	0.367731	-0.086412	-0.055667
H134	H	0.233610	-0.001809	0.055711
H135	H	0.233622	-0.001745	-0.055642
H136	H	0.236441	-0.155063	-0.055726
H137	H	0.236402	-0.155120	0.055637
H138	H	0.152472	-0.109878	-0.000046
C139	C	0.434262	0.384793	-0.000117
C140	C	0.379634	0.388634	-0.082239
C141	C	0.321870	0.471644	-0.082402
H142	H	0.469294	0.435708	-0.000177
H143	H	0.397087	0.387573	0.055538
H144	H	0.416804	0.385863	-0.137879
H145	H	0.344582	0.337738	-0.082196
H146	H	0.284695	0.474423	-0.026748
H147	H	0.356910	0.522552	-0.082460
H148	H	0.284792	0.474257	-0.138116
H149	H	1.176246	0.014016	0.741962
