data_functionalizedCrystal
_audit_creation_method	'MofGen! by Chris Wilmer'
_symmetry_space_group_name_H-M	'P1'
_symmetry_Int_Tables_number	1
_symmetry_cell_setting	triclinic
loop_
_symmetry_equiv_pos_as_xyz
  x,y,z
_cell_length_a	14.519709
_cell_length_b	13.101018
_cell_length_c	14.519709
_cell_angle_alpha	93.364108
_cell_angle_beta	83.680145
_cell_angle_gamma	86.637576
loop_
_atom_site_label
_atom_site_type_symbol
_atom_site_fract_x
_atom_site_fract_y
_atom_site_fract_z
O1	O	-1.228930	0.085070	-0.115822
O2	O	-0.728930	0.585070	0.384178
O3	O	-0.960455	0.085105	-0.130057
O4	O	-0.460455	0.585105	0.369943
O5	O	-1.101810	0.085078	0.011299
O6	O	-0.601810	0.585078	0.511299
O7	O	-1.087575	0.085098	-0.257177
O8	O	-0.587575	0.585098	0.242823
O9	O	-1.091656	-0.085351	0.001148
O10	O	-0.591656	0.414649	0.501148
O11	O	-0.950301	-0.085324	-0.140208
O12	O	-0.450301	0.414676	0.359792
O13	O	-1.218776	-0.085358	-0.125973
O14	O	-0.718776	0.414642	0.374027
Zn15	Zn	-1.082926	-0.112400	-0.134702
Zn16	Zn	-0.582926	0.387600	0.365298
Zn17	Zn	-1.096304	0.112147	-0.121328
Zn18	Zn	-0.596304	0.612147	0.378672
O19	O	-1.077421	-0.085331	-0.267328
O20	O	-0.577421	0.414669	0.232672
C21	C	-0.921018	-0.000105	-0.134468
C22	C	-0.421018	0.499895	0.365532
C23	C	-0.818638	-0.000092	-0.132479
C24	C	-0.318638	0.499908	0.367521
C25	C	-0.443740	-0.000136	-0.125162
C26	C	0.056260	0.499864	0.374838
C27	C	-0.548048	-0.000123	-0.127194
C28	C	-0.048048	0.499877	0.372806
C29	C	-0.631186	-0.000113	-0.128821
C30	C	-0.131186	0.499887	0.371179
C31	C	-0.735501	-0.000103	-0.130853
C32	C	-0.235501	0.499897	0.369147
N33	N	-1.073803	-0.265647	-0.143829
N34	N	-0.573803	0.234353	0.356171
C35	C	-1.117843	-0.525565	-0.099772
C36	C	-0.617843	-0.025565	0.400228
C37	C	-1.061398	-0.474681	-0.156247
C38	C	-0.561398	0.025319	0.343753
C39	C	-1.068302	-0.358364	-0.149336
C40	C	-0.568302	0.141636	0.350664
C41	C	-1.110940	-0.641893	-0.106682
C42	C	-0.610940	-0.141893	0.393318
C43	C	-0.258213	-0.000143	-0.121561
C44	C	0.241787	0.499857	0.378439
C45	C	-0.360594	-0.000142	-0.123549
C46	C	0.139406	0.499858	0.376451
C47	C	-1.096070	-0.000137	0.040583
C48	C	-0.596070	0.499863	0.540583
C49	C	-1.094081	-0.000137	0.142964
C50	C	-0.594081	0.499863	0.642964
N51	N	-1.105435	0.265394	-0.112193
N52	N	-0.605435	0.765394	0.387807
C53	C	-1.083161	-0.000114	-0.296612
C54	C	-0.583161	0.499886	0.203388
C55	C	-1.085150	-0.000107	-0.398993
C56	C	-0.585150	0.499893	0.101007
C57	C	-1.086764	-0.000110	0.517861
C58	C	-0.586764	0.499890	1.017861
C59	C	-1.088796	-0.000118	0.413553
C60	C	-0.588796	0.499882	0.913553
C61	C	-1.090422	-0.000124	0.330416
C62	C	-0.590422	0.499876	0.830416
C63	C	-1.092455	-0.000130	0.226101
C64	C	-0.592455	0.499870	0.726101
H65	H	-1.007890	-0.518476	-0.209788
H66	H	-0.507890	-0.018476	0.290212
C67	C	-1.190131	-0.466415	-0.027452
C68	C	-0.690131	0.033585	0.472548
H69	H	-1.224639	-0.513634	0.007079
H70	H	-0.724639	-0.013634	0.507079
H71	H	-1.231034	-0.424559	-0.058246
H72	H	-0.731034	0.075441	0.441754
H73	H	-1.159311	-0.424562	0.013440
H74	H	-0.659311	0.075438	0.513440
