data_functionalizedCrystal
_audit_creation_method	'MofGen! by Chris Wilmer'
_symmetry_space_group_name_H-M	'P1'
_symmetry_Int_Tables_number	1
_symmetry_cell_setting	triclinic
loop_
_symmetry_equiv_pos_as_xyz
  x,y,z
_cell_length_a	14.853567
_cell_length_b	15.500227
_cell_length_c	14.853569
_cell_angle_alpha	87.169028
_cell_angle_beta	83.635248
_cell_angle_gamma	92.845498
loop_
_atom_site_label
_atom_site_type_symbol
_atom_site_fract_x
_atom_site_fract_y
_atom_site_fract_z
O1	O	1.200550	0.071886	0.113527
O2	O	0.938092	0.071902	0.127548
O3	O	1.076331	0.071885	-0.010692
O4	O	1.062312	0.071903	0.251767
O5	O	1.067942	-0.072002	-0.002336
O6	O	0.929703	-0.071986	0.135904
O7	O	1.192162	-0.072001	0.121883
Cu8	Cu	1.060167	-0.085132	0.129656
Cu9	Cu	1.070087	0.085032	0.119775
O10	O	1.053923	-0.071985	0.260123
C11	C	0.900309	-0.000040	0.131090
C12	C	0.800226	-0.000035	0.129186
N13	N	1.053195	-0.204816	0.136606
C14	C	0.387690	-0.000060	0.039022
C15	C	0.366410	-0.000049	0.203254
C16	C	0.460444	-0.000046	0.205044
C17	C	0.518105	-0.000049	0.123822
C18	C	0.481733	-0.000055	0.040809
C19	C	0.496825	-0.000031	0.288054
C20	C	0.590864	-0.000027	0.289848
C21	C	0.648527	-0.000036	0.208625
C22	C	0.612149	-0.000043	0.125609
C23	C	0.669810	-0.000046	0.044387
C24	C	0.633433	-0.000060	-0.038630
C25	C	0.539396	-0.000064	-0.040414
C26	C	0.742564	-0.000032	0.210409
C27	C	0.763853	-0.000041	0.046174
C28	C	1.111792	-0.250099	0.078051
C29	C	1.106529	-0.340672	0.083315
C30	C	1.042672	-0.385959	0.147140
C31	C	0.984068	-0.340669	0.205697
C32	C	0.989328	-0.250098	0.200428
C33	C	1.023722	-0.659423	0.166106
C34	C	1.018468	-0.750000	0.171373
C35	C	1.140928	-0.749997	0.048989
C36	C	1.146186	-0.659424	0.043729
C37	C	1.087580	-0.614143	0.102284
C38	C	1.037291	-0.478538	0.152524
C39	C	1.092956	-0.521565	0.096894
C40	C	1.229945	-0.000057	0.118341
C41	C	1.330029	-0.000057	0.120244
C42	C	1.071501	-0.000059	-0.040102
C43	C	1.069596	-0.000059	-0.140186
N44	N	1.077065	0.204716	0.112818
C45	C	0.986586	-0.000056	-0.176563
C46	C	1.150818	-0.000056	-0.197852
C47	C	1.149032	-0.000052	-0.291886
C48	C	1.066021	-0.000049	-0.328263
C49	C	0.984797	-0.000050	-0.270606
C50	C	1.230255	-0.000043	-0.349551
C51	C	1.228472	-0.000038	-0.443592
C52	C	1.145460	-0.000041	-0.479970
C53	C	1.064233	-0.000043	-0.422306
C54	C	0.981222	-0.000040	-0.458683
C55	C	0.899993	-0.000047	-0.401020
C56	C	0.901785	-0.000053	-0.306984
C57	C	1.143668	-0.000036	-0.574007
C58	C	0.979433	-0.000033	-0.552726
C59	C	1.058753	-0.000039	0.289533
C60	C	1.060658	-0.000033	0.389616
H61	H	0.810795	-0.000047	-0.019968
H62	H	0.985299	-0.515418	0.204493
H63	H	0.911835	-0.000038	-0.582335
H64	H	0.832406	-0.000039	-0.430651
Br65	Br	0.288157	-0.000029	0.313478
Br66	Br	0.897396	-0.402126	0.292312
Br67	Br	0.909794	-0.188642	0.279894
Br68	Br	0.711699	-0.000054	-0.148856
Br69	Br	1.179612	-0.460104	0.010273
H70	H	0.772178	-0.000023	0.277999
H71	H	1.198184	-0.622554	-0.008242
Br72	Br	1.198467	-0.188648	-0.008566
Br73	Br	0.418569	-0.000008	0.398277
Br74	Br	1.220460	-0.811454	-0.030476
H75	H	0.835653	-0.000057	-0.260027
Br76	Br	0.931801	-0.811456	0.258004
H77	H	1.218401	-0.000076	-0.168227
H78	H	0.920451	-0.000066	-0.129610
Br79	Br	0.490022	-0.000079	-0.153068
Br80	Br	0.640225	-0.000009	0.402509
H81	H	1.154242	-0.377541	0.035634
Br82	Br	1.342907	-0.000034	-0.300180
Br83	Br	0.944189	-0.597974	0.245573
H84	H	0.358067	-0.000074	-0.028568
H85	H	1.294614	-0.000034	-0.490534
H86	H	1.209804	-0.000021	-0.620952
