data_functionalizedCrystal
_audit_creation_method	'MofGen! by Chris Wilmer'
_symmetry_space_group_name_H-M	'P1'
_symmetry_Int_Tables_number	1
_symmetry_cell_setting	triclinic
loop_
_symmetry_equiv_pos_as_xyz
  x,y,z
_cell_length_a	14.044220
_cell_length_b	19.188930
_cell_length_c	13.101039
_cell_angle_alpha	93.345801
_cell_angle_beta	86.340132
_cell_angle_gamma	88.166830
loop_
_atom_site_label
_atom_site_type_symbol
_atom_site_fract_x
_atom_site_fract_y
_atom_site_fract_z
O1	O	1.262233	0.164759	-0.085127
O2	O	1.762233	0.664759	0.414873
O3	O	0.986290	0.158685	-0.085152
O4	O	1.486290	0.658685	0.414848
O5	O	1.132223	0.060581	-0.085119
O6	O	1.632223	0.560581	0.414881
O7	O	1.116300	0.262863	-0.085160
O8	O	1.616300	0.762863	0.414840
O9	O	1.121753	0.067633	0.085309
O10	O	1.621753	0.567633	0.585309
O11	O	0.975820	0.165737	0.085275
O12	O	1.475820	0.665737	0.585275
O13	O	1.251762	0.171810	0.085300
O14	O	1.751762	0.671810	0.585300
Zn15	Zn	1.112128	0.169893	0.112347
Zn16	Zn	1.612128	0.669893	0.612347
Zn17	Zn	1.125924	0.160602	-0.112199
Zn18	Zn	1.625924	0.660602	0.387801
O19	O	1.105829	0.269914	0.085267
O20	O	1.605829	0.769914	0.585267
C21	C	0.945752	0.159553	0.000059
C22	C	1.445752	0.659553	0.500059
C23	C	0.840559	0.151623	0.000050
C24	C	1.340559	0.651623	0.500050
C25	C	0.647957	0.137129	0.000073
C26	C	1.147957	0.637129	0.500073
C27	C	0.590091	0.193363	0.000066
C28	C	1.090091	0.693363	0.500066
C29	C	0.482920	0.185298	0.000079
C30	C	0.982920	0.685298	0.500079
C31	C	0.755137	0.145193	0.000060
C32	C	1.255137	0.645193	0.500060
C33	C	1.126472	0.038063	0.000098
C34	C	1.626472	0.538063	0.500098
C35	C	1.124923	-0.039541	0.000106
C36	C	1.624923	0.460459	0.500106
C37	C	1.210553	-0.078939	0.000119
C38	C	1.710553	0.421061	0.500119
C39	C	1.209099	-0.151857	0.000103
C40	C	1.709099	0.348143	0.500103
C41	C	1.122010	-0.185374	0.000094
C42	C	1.622010	0.314626	0.500094
C43	C	1.036370	-0.145968	0.000075
C44	C	1.536370	0.354032	0.500075
C45	C	1.037827	-0.073051	0.000082
C46	C	1.537827	0.426949	0.500082
N47	N	1.051878	-0.295275	0.058088
N48	N	1.551878	0.204725	0.558088
N49	N	1.050500	-0.364543	0.058084
N50	N	1.550500	0.135457	0.558084
C51	C	1.117617	-0.405067	0.000073
C52	C	1.617617	0.094933	0.500073
N53	N	1.186177	-0.373707	-0.057921
N54	N	1.686177	0.126293	0.442079
N55	N	1.187558	-0.304433	-0.057913
N56	N	1.687558	0.195567	0.442087
C57	C	1.120421	-0.264440	0.000086
C58	C	1.620421	0.235560	0.500086
C59	C	1.201676	-0.523532	0.000066
C60	C	1.701676	-0.023532	0.500066
C61	C	1.200219	-0.596452	0.000043
C62	C	1.700219	-0.096452	0.500043
C63	C	1.027487	-0.590560	0.000026
C64	C	1.527487	-0.090560	0.500026
C65	C	1.028947	-0.517642	0.000039
C66	C	1.528947	-0.017642	0.500039
C67	C	1.116043	-0.484132	0.000064
C68	C	1.616043	0.015868	0.500064
C69	C	1.292301	0.170943	0.000087
C70	C	1.792301	0.670943	0.500087
C71	C	1.397494	0.178872	0.000089
C72	C	1.897494	0.678872	0.500089
C73	C	1.111580	0.292433	0.000048
C74	C	1.611580	0.792433	0.500048
C75	C	1.113129	0.370037	0.000033
C76	C	1.613129	0.870037	0.500033
N77	N	1.102720	0.176234	0.265593
N78	N	1.602720	0.676234	0.765593
N79	N	1.135340	0.154257	-0.265445
N80	N	1.635340	0.654257	0.234555
C81	C	1.089920	0.184867	0.474633
C82	C	1.589920	0.684867	0.974633
C83	C	1.148137	0.145626	0.525522
C84	C	1.648137	0.645626	1.025522
C85	C	1.141014	0.150429	0.641839
C86	C	1.641014	0.650429	1.141839
C87	C	1.097041	0.180064	0.358306
C88	C	1.597041	0.680064	0.858306
H89	H	0.617011	0.082932	0.000090
H90	H	1.117011	0.582932	0.500090
C91	C	1.381142	-0.092092	0.000140
C92	C	1.881142	0.407908	0.500140
C93	C	1.306289	-0.042107	0.000135
C94	C	1.806289	0.457893	0.500135
H95	H	1.440245	-0.069351	0.000142
H96	H	1.940245	0.430649	0.500142
H97	H	1.373328	-0.117956	0.059566
H98	H	1.873328	0.382044	0.559566
H99	H	1.380627	-0.122863	-0.059298
H100	H	1.880627	0.377137	0.440702
H101	H	1.306800	-0.011338	0.059577
H102	H	1.806800	0.488662	0.559577
H103	H	1.314106	-0.016231	-0.059297
H104	H	1.814106	0.483769	0.440703
C105	C	1.313056	-0.240895	-0.087488
C106	C	1.813056	0.259105	0.412512
C107	C	1.303228	-0.195175	0.000123
C108	C	1.803228	0.304825	0.500123
H109	H	1.371170	-0.267633	-0.087475
H110	H	1.871170	0.232367	0.412525
H111	H	1.260983	-0.271284	-0.087494
H112	H	1.760983	0.228716	0.412506
H113	H	1.313696	-0.214773	-0.146913
H114	H	1.813696	0.285227	0.353087
H115	H	1.302581	-0.221298	0.059548
H116	H	1.802581	0.278702	0.559548
H117	H	1.355315	-0.164783	0.000138
H118	H	1.855315	0.335217	0.500138
H119	H	0.959218	-0.485564	0.000034
H120	H	1.459218	0.014436	0.500034
C121	C	1.022712	0.230193	0.639194
C122	C	1.522712	0.730193	1.139194
C123	C	1.015428	0.235095	0.533739
C124	C	1.515428	0.735095	1.033739
H125	H	0.976729	0.261206	0.675690
H126	H	1.476729	0.761206	1.175690
H127	H	1.011440	0.183696	0.656718
H128	H	1.511440	0.683696	1.156718
H129	H	1.084905	0.242365	0.656694
H130	H	1.584905	0.742365	1.156694
H131	H	0.953237	0.222917	0.516238
H132	H	1.453237	0.722917	1.016238
H133	H	1.026693	0.281602	0.516208
H134	H	1.526693	0.781602	1.016208
H135	H	0.968095	-0.040974	0.000072
H136	H	1.468095	0.459026	0.500072
C137	C	0.957443	-0.255128	0.000074
C138	C	1.457443	0.244872	0.500074
C139	C	0.940640	-0.182807	0.000070
C140	C	1.440640	0.317193	0.500070
H141	H	0.898339	-0.277868	0.000074
H142	H	1.398339	0.222132	0.500074
H143	H	0.996334	-0.270736	-0.059350
H144	H	1.496334	0.229264	0.440650
H145	H	0.989038	-0.265827	0.059514
H146	H	1.489038	0.234173	0.559514
H147	H	0.909051	-0.172107	-0.059374
H148	H	1.409051	0.327893	0.440626
H149	H	0.901733	-0.167193	0.059501
H150	H	1.401733	0.332807	0.559501
C151	C	0.856900	-0.577408	0.000006
C152	C	1.356900	-0.077408	0.500006
C153	C	0.931755	-0.627392	0.000013
C154	C	1.431755	-0.127392	0.500013
H155	H	0.797799	-0.600151	-0.000011
H156	H	1.297799	-0.100151	0.499989
H157	H	0.857408	-0.546643	0.059439
H158	H	1.357408	-0.046643	0.559439
H159	H	0.864721	-0.551539	-0.059425
H160	H	1.364721	-0.051539	0.440575
H161	H	0.923938	-0.653258	0.059448
H162	H	1.423938	-0.153258	0.559448
H163	H	0.931246	-0.658170	-0.059426
H164	H	1.431246	-0.158170	0.440574
H165	H	0.621038	0.247564	0.000050
H166	H	1.121038	0.747564	0.500050
C167	C	1.354723	-0.509705	-0.087543
C168	C	1.854723	-0.009705	0.412457
C169	C	1.297408	-0.486689	0.000071
C170	C	1.797408	0.013311	0.500071
H171	H	1.413820	-0.486956	-0.087543
H172	H	1.913820	0.013044	0.412457
H173	H	1.366113	-0.558763	-0.087541
H174	H	1.866113	-0.058763	0.412459
H175	H	1.323110	-0.498992	-0.146966
H176	H	1.823110	0.001008	0.353034
H177	H	1.329018	-0.497406	0.059494
H178	H	1.829018	0.002594	0.559494
H179	H	1.286020	-0.437619	0.000078
H180	H	1.786020	0.062381	0.500078
C181	C	1.304182	-0.685470	-0.087571
C182	C	1.804182	-0.185470	0.412429
C183	C	1.294353	-0.639759	0.000049
C184	C	1.794353	-0.139759	0.500049
H185	H	1.362301	-0.712203	-0.087569
H186	H	1.862301	-0.212203	0.412431
H187	H	1.252115	-0.715865	-0.087578
H188	H	1.752115	-0.215865	0.412422
H189	H	1.304811	-0.659342	-0.146989
H190	H	1.804811	-0.159342	0.353011
H191	H	1.293717	-0.665887	0.059468
H192	H	1.793717	-0.165887	0.559468
H193	H	1.346434	-0.609361	0.000066
H194	H	1.846434	-0.109361	0.500066
C195	C	1.215075	0.100067	0.360959
C196	C	1.715075	0.600067	0.860959
C197	C	1.222439	0.095239	0.466416
C198	C	1.722439	0.595239	0.966416
H199	H	1.260889	0.068917	0.324469
H200	H	1.760889	0.568917	0.824469
H201	H	1.152805	0.088041	0.343572
H202	H	1.652805	0.588041	0.843572
H203	H	1.226555	0.146518	0.343315
H204	H	1.726555	0.646518	0.843315
H205	H	1.210953	0.048789	0.484061
H206	H	1.710953	0.548789	0.984061
H207	H	1.284724	0.107261	0.483810
H208	H	1.784724	0.607261	0.983810
