data_functionalizedCrystal
_audit_creation_method	'MofGen! by Chris Wilmer'
_symmetry_space_group_name_H-M	'P1'
_symmetry_Int_Tables_number	1
_symmetry_cell_setting	triclinic
loop_
_symmetry_equiv_pos_as_xyz
  x,y,z
_cell_length_a	14.971486
_cell_length_b	10.654551
_cell_length_c	14.048226
_cell_angle_alpha	89.996418
_cell_angle_beta	89.998499
_cell_angle_gamma	84.049745
loop_
_atom_site_label
_atom_site_type_symbol
_atom_site_fract_x
_atom_site_fract_y
_atom_site_fract_z
O1	O	1.187838	0.163659	-0.079045
O2	O	0.927545	0.183257	-0.079070
O3	O	1.063675	-0.009345	-0.079057
O4	O	1.051707	0.356261	-0.079058
O5	O	1.063659	-0.009357	0.079264
O6	O	0.927528	0.183246	0.079251
O7	O	1.187821	0.163648	0.079276
Zn8	Zn	1.057672	0.173445	0.104401
Zn9	Zn	1.057694	0.173460	-0.104195
O10	O	1.051691	0.356250	0.079264
C11	C	0.894207	0.182375	0.000087
C12	C	0.794895	0.179749	0.000077
C13	C	1.062788	-0.056139	0.000101
C14	C	1.060158	-0.195554	0.000094
C15	C	0.738286	0.292897	0.000079
C16	C	0.644973	0.290422	0.000093
C17	C	0.608271	0.174796	0.000099
C18	C	0.664888	0.061639	0.000100
C19	C	0.758199	0.064116	0.000093
C20	C	0.470397	0.056485	0.000114
C21	C	0.377080	0.054007	0.000119
C22	C	0.357172	0.282791	0.000113
C23	C	0.450483	0.285268	0.000106
C24	C	0.507093	0.172110	0.000106
C25	C	1.058934	-0.261047	-0.086205
C26	C	1.056455	-0.392041	-0.086201
C27	C	1.056430	-0.392039	0.086410
C28	C	1.058902	-0.261046	0.086404
C29	C	1.058952	-0.261050	-0.185861
C30	C	1.056474	-0.392044	-0.185857
C31	C	1.221159	0.164530	0.000117
C32	C	1.320471	0.167156	0.000120
C33	C	1.052578	0.403044	0.000103
C34	C	1.055208	0.542459	0.000104
N35	N	1.057664	0.173434	0.246761
N36	N	1.057709	0.173461	-0.246555
C37	C	1.117962	0.088185	0.296585
C38	C	1.117968	0.088184	0.396243
C39	C	1.057679	0.173439	0.446075
C40	C	0.997375	0.258693	0.396244
C41	C	0.997365	0.258686	0.296588
C42	C	0.997401	0.258702	0.603958
C43	C	0.997411	0.258710	0.703621
C44	C	1.118003	0.088199	0.703613
C45	C	1.117994	0.088193	0.603957
C46	C	1.057690	0.173448	0.554133
H47	H	0.768161	0.387053	0.000073
H48	H	1.167059	0.018765	0.256018
Cl49	Cl	0.955763	-0.436621	-0.233615
Cl50	Cl	0.963530	-0.188558	-0.244950
Cl51	Cl	1.193771	-0.018989	0.458880
Cl52	Cl	0.573810	0.432673	0.000089
H53	H	0.480362	0.379420	0.000092
Cl54	Cl	1.060412	-0.178711	0.194900
H55	H	0.804290	-0.028022	0.000091
Cl56	Cl	0.286005	0.425047	0.000116
Cl57	Cl	1.193790	-0.018978	0.541309
H58	H	1.055405	-0.445377	0.156680
Cl59	Cl	0.330942	-0.091352	0.000159
Cl60	Cl	0.541563	-0.085774	0.000115
Cl61	Cl	1.159673	-0.216468	-0.233594
Cl62	Cl	1.193813	-0.018974	0.766251
H63	H	0.948317	0.328133	0.744189
H64	H	1.118290	-0.438995	-0.224114
Cl65	Cl	0.921586	0.365880	0.541327
Cl66	Cl	0.921555	0.365858	0.233954
Cl67	Cl	0.618748	-0.083720	0.000114
Cl68	Cl	0.921578	0.365867	0.458888
