data_functionalizedCrystal
_audit_creation_method	'MofGen! by Chris Wilmer'
_symmetry_space_group_name_H-M	'P1'
_symmetry_Int_Tables_number	1
_symmetry_cell_setting	triclinic
loop_
_symmetry_equiv_pos_as_xyz
  x,y,z
_cell_length_a	19.188905
_cell_length_b	19.188930
_cell_length_c	7.540329
_cell_angle_alpha	90.008296
_cell_angle_beta	90.008725
_cell_angle_gamma	83.139668
loop_
_atom_site_label
_atom_site_type_symbol
_atom_site_fract_x
_atom_site_fract_y
_atom_site_fract_z
O1	O	0.926153	0.087083	0.147794
O2	O	0.722839	0.098836	0.147736
O3	O	0.830363	-0.008697	0.147732
O4	O	0.818629	0.194616	0.147798
O5	O	0.830360	-0.008698	-0.147233
O6	O	0.722836	0.098835	-0.147229
O7	O	0.926149	0.087082	-0.147171
Cu8	Cu	0.824492	0.092959	-0.174132
Cu9	Cu	0.824497	0.092959	0.174698
O10	O	0.818625	0.194615	-0.147167
C11	C	0.696826	0.098458	0.000246
C12	C	0.619321	0.097324	0.000222
C13	C	0.582931	0.096780	0.161012
C14	C	0.510107	0.095707	0.161034
C15	C	0.473678	0.095164	0.000257
C16	C	0.510076	0.095712	-0.160555
C17	C	0.582898	0.096792	-0.160572
N18	N	0.364656	0.053735	-0.119408
N19	N	0.295479	0.052707	-0.119381
C20	C	0.254272	0.091911	0.000298
N21	N	0.284855	0.132172	0.119976
N22	N	0.354039	0.133197	0.119954
C23	C	0.394716	0.093993	0.000257
C24	C	0.138918	0.090205	0.161123
C25	C	0.066092	0.089136	0.161138
C26	C	0.066064	0.089134	-0.160455
C27	C	0.138887	0.090210	-0.160466
C28	C	0.175310	0.090742	0.000328
C29	C	0.829982	-0.034708	0.000245
C30	C	0.828841	-0.112213	0.000229
C31	C	0.952163	0.087460	0.000324
C32	C	1.029668	0.088594	0.000359
C33	C	0.891933	-0.157142	0.000239
C34	C	0.890861	-0.229966	0.000267
C35	C	0.826694	-0.257857	0.000250
C36	C	0.763594	-0.212917	0.000250
C37	C	0.764668	-0.140095	0.000240
N38	N	0.777645	-0.365858	-0.100146
N39	N	0.776629	-0.435036	-0.100140
C40	C	0.823456	-0.477265	0.000285
N41	N	0.871347	-0.447704	0.100681
N42	N	0.872364	-0.378519	0.100667
C43	C	0.825523	-0.336819	0.000262
C44	C	0.885390	-0.601159	0.000327
C45	C	0.884315	-0.673984	0.000366
C46	C	0.757047	-0.656933	0.000332
C47	C	0.758123	-0.584110	0.000311
C48	C	0.822296	-0.556228	0.000300
C49	C	0.819007	0.220626	0.000325
C50	C	0.820148	0.298131	0.000352
N51	N	0.824494	0.092957	-0.419481
N52	N	0.824500	0.092955	0.420047
H53	H	0.036403	0.088696	-0.291363
H54	H	0.612582	0.097213	0.291944
H55	H	0.612526	0.097236	-0.291510
H56	H	0.711349	-0.235631	0.000240
N57	N	0.952367	-0.722449	0.000365
H58	H	0.954766	-0.753033	0.109716
H59	H	0.993141	-0.693684	0.000283
H60	H	0.944187	-0.134445	0.000236
N61	N	0.687833	-0.686998	0.000318
H62	H	0.684550	-0.716822	0.109667
H63	H	0.684587	-0.716805	-0.109093
N64	N	0.178142	0.090796	-0.333890
H65	H	0.144016	0.090290	-0.435742
H66	H	0.214156	0.047972	-0.340920
N67	N	0.690074	-0.535645	0.000290
H68	H	0.649260	-0.564361	0.000283
H69	H	0.687746	-0.505068	-0.109063
H70	H	0.480473	0.095265	0.291973
H71	H	0.036464	0.088697	0.292078
N72	N	0.958912	-0.278438	0.000281
H73	H	0.999727	-0.249724	0.000276
H74	H	0.961230	-0.309030	-0.109064
H75	H	0.713289	-0.103513	0.000232
N76	N	0.954601	-0.571078	0.000323
H77	H	0.994408	-0.610595	0.000348
H78	H	0.957819	-0.541224	0.109661
H79	H	0.480411	0.095272	-0.291461
H80	H	0.168574	0.090645	0.292051
