data_functionalizedCrystal
_audit_creation_method	'MofGen! by Chris Wilmer'
_symmetry_space_group_name_H-M	'P1'
_symmetry_Int_Tables_number	1
_symmetry_cell_setting	triclinic
loop_
_symmetry_equiv_pos_as_xyz
  x,y,z
_cell_length_a	16.625548
_cell_length_b	19.805405
_cell_length_c	19.805399
_cell_angle_alpha	90.030709
_cell_angle_beta	89.984078
_cell_angle_gamma	89.972522
loop_
_atom_site_label
_atom_site_type_symbol
_atom_site_fract_x
_atom_site_fract_y
_atom_site_fract_z
Zn1	Zn	1.232621	0.269450	-0.382694
Zn2	Zn	1.732621	0.769450	0.117306
Zn3	Zn	1.232526	0.382641	-0.269502
Zn4	Zn	1.732526	0.882641	0.230498
Zn5	Zn	1.097794	0.269474	-0.269521
Zn6	Zn	1.597794	0.769474	0.230479
Zn7	Zn	1.097744	0.382605	-0.382651
Zn8	Zn	1.597744	0.882605	0.117349
O9	O	1.165172	0.326042	-0.326092
O10	O	1.665172	0.826042	0.173908
O11	O	1.345441	0.284471	-0.367689
O12	O	1.845441	0.784471	0.132311
O13	O	1.214635	0.367655	-0.174788
O14	O	1.714635	0.867655	0.325212
O15	O	1.115740	0.174754	-0.284559
O16	O	1.615740	0.674754	0.215441
O17	O	1.345371	0.367632	-0.284528
O18	O	1.845371	0.867632	0.215472
O19	O	1.214797	0.174737	-0.367707
O20	O	1.714797	0.674737	0.132293
O21	O	1.115648	0.284511	-0.174802
O22	O	1.615648	0.784511	0.325198
O23	O	0.984955	0.284475	-0.284517
O24	O	1.484955	0.784475	0.215483
O25	O	1.115655	0.367569	-0.477373
O26	O	1.615655	0.867569	0.022627
O27	O	0.984919	0.367592	-0.367634
O28	O	1.484919	0.867592	0.132366
O29	O	1.214749	0.284435	-0.477405
O30	O	1.714749	0.784435	0.022595
O31	O	1.214587	0.477353	-0.284486
O32	O	1.714587	0.977353	0.215514
O33	O	1.115563	0.477326	-0.367616
O34	O	1.615563	0.977326	0.132384
C35	C	1.165081	0.501899	-0.326059
C36	C	1.665081	1.001899	0.173941
C37	C	1.165116	0.577131	-0.326068
C38	C	1.665116	1.077131	0.173932
C39	C	0.955681	0.326033	-0.326073
C40	C	1.455681	0.826033	0.173927
C41	C	0.866060	0.326045	-0.326081
C42	C	1.366060	0.826045	0.173919
C43	C	1.165207	0.325996	-0.502635
C44	C	1.665207	0.825996	-0.002635
C45	C	1.165222	0.325976	-0.577867
C46	C	1.665222	0.825976	-0.077867
C47	C	0.537884	0.326049	-0.326110
C48	C	1.037884	0.826049	0.173890
C49	C	0.629192	0.326046	-0.326100
C50	C	1.129192	0.826046	0.173900
C51	C	0.701969	0.326048	-0.326095
C52	C	1.201969	0.826048	0.173905
C53	C	0.793283	0.326044	-0.326086
C54	C	1.293283	0.826044	0.173914
C55	C	1.375480	0.326053	-0.326111
C56	C	1.875480	0.826053	0.173889
C57	C	1.465102	0.326057	-0.326120
C58	C	1.965102	0.826057	0.173880
C59	C	1.165285	0.149500	-0.326140
C60	C	1.665285	0.649500	0.173860
C61	C	1.165333	0.074268	-0.326160
C62	C	1.665333	0.574268	0.173840
C63	C	1.216727	0.612466	-0.282828
C64	C	1.716727	1.112466	0.217172
C65	C	1.216762	0.683155	-0.282843
C66	C	1.716762	1.183155	0.217157
C67	C	1.165180	0.718506	-0.326095
C68	C	1.665180	1.218506	0.173905
C69	C	1.113566	0.683165	-0.369340
C70	C	1.613566	1.183165	0.130660
C71	C	1.113536	0.612478	-0.369328
C72	C	1.613536	1.112478	0.130672
C73	C	1.113685	0.968239	-0.369390
C74	C	1.613685	1.468239	0.130610
C75	C	1.113716	1.038931	-0.369398
C76	C	1.613716	1.538931	0.130602
C77	C	1.216910	1.038915	-0.282905
C78	C	1.716910	1.538915	0.217095
C79	C	1.216881	0.968228	-0.282893
C80	C	1.716881	1.468228	0.217107
C81	C	1.165270	0.932893	-0.326140
C82	C	1.665270	1.432893	0.173860
C83	C	1.165235	0.856245	-0.326124
C84	C	1.665235	1.356245	0.173876
C85	C	1.165210	0.795153	-0.326108
C86	C	1.665210	1.295153	0.173892
C87	C	1.113694	0.282678	-0.613218
C88	C	1.613694	0.782678	-0.113218
C89	C	1.113705	0.282665	-0.683906
C90	C	1.613705	0.782665	-0.183906
C91	C	1.165249	0.325946	-0.719243
C92	C	1.665249	0.825946	-0.219243
C93	C	1.216779	0.369248	-0.683887
C94	C	1.716779	0.869248	-0.183887
C95	C	1.216763	0.369264	-0.613200
C96	C	1.716763	0.869264	-0.113200
C97	C	1.216843	0.369185	-0.968961
C98	C	1.716843	0.869185	-0.468961
C99	C	1.216856	0.369164	-1.039653
C100	C	1.716856	0.869164	-0.539653
C101	C	1.113785	0.282586	-1.039667
C102	C	1.613785	0.782586	-0.539667
C103	C	1.113769	0.282602	-0.968979
C104	C	1.613769	0.782602	-0.468979
C105	C	1.165296	0.325906	-0.933630
C106	C	1.665296	0.825906	-0.433630
C107	C	1.165282	0.325921	-0.856982
C108	C	1.665282	0.825921	-0.356982
C109	C	1.165267	0.325929	-0.795890
C110	C	1.665267	0.825929	-0.295890
C111	C	1.165183	0.326040	-0.150236
C112	C	1.665183	0.826040	0.349764
C113	C	1.165324	0.325870	-0.075005
C114	C	1.665324	0.825870	0.424995
H115	H	1.258728	0.583688	-0.247604
H116	H	1.758728	1.083688	0.252396
H117	H	1.071570	0.711954	-0.404560
H118	H	1.571570	1.211954	0.095440
H119	H	1.258789	0.711922	-0.247631
H120	H	1.758789	1.211922	0.252369
N121	N	1.272416	0.415887	-0.930837
N122	N	1.772416	0.915887	-0.430837
H123	H	1.305073	0.443300	-0.963948
H124	H	1.805073	0.943300	-0.463948
H125	H	1.309740	0.388345	-0.901518
H126	H	1.809740	0.888345	-0.401518
N127	N	1.058195	0.235890	-1.077796
N128	N	1.558195	0.735890	-0.577796
H129	H	1.070745	0.187531	-1.065516
H130	H	1.570745	0.687531	-0.565516
H131	H	1.066048	0.242509	-1.127925
H132	H	1.566048	0.742509	-0.627925
H133	H	1.071510	0.583709	-0.404540
H134	H	1.571510	1.083709	0.095460
N135	N	1.058108	0.235990	-0.575107
N136	N	1.558108	0.735990	-0.075107
H137	H	1.025467	0.208560	-0.608230
H138	H	1.525467	0.708560	-0.108230
H139	H	1.020768	0.263543	-0.545765
H140	H	1.520768	0.763543	-0.045765
H141	H	1.258937	1.067693	-0.247693
H142	H	1.758937	1.567693	0.252307
H143	H	1.071713	1.067712	-0.404624
H144	H	1.571713	1.567712	0.095376
H145	H	1.071743	0.247411	-0.712685
H146	H	1.571743	0.747411	-0.212685
H147	H	1.071800	0.247356	-0.940212
H148	H	1.571800	0.747356	-0.440212
H149	H	1.258743	0.404492	-0.712664
H150	H	1.758743	0.904492	-0.212664
N151	N	1.058015	0.930133	-0.416027
N152	N	1.558015	1.430133	0.083973
H153	H	1.025340	0.963256	-0.443424
H154	H	1.525340	1.463256	0.056576
H155	H	1.020711	0.900851	-0.388439
H156	H	1.520711	1.400851	0.111561
N157	N	1.272452	0.415848	-1.077768
N158	N	1.772452	0.915848	-0.577768
H159	H	1.305090	0.443285	-1.044649
H160	H	1.805090	0.943285	-0.544649
H161	H	1.239612	0.447157	-1.107087
H162	H	1.739612	0.947157	-0.607087
N163	N	1.272342	0.415966	-0.575075
N164	N	1.772342	0.915966	-0.075075
H165	H	1.329962	0.405454	-0.587384
H166	H	1.829962	0.905454	-0.087384
H167	H	1.264444	0.409392	-0.524945
H168	H	1.764444	0.909392	-0.024945
N169	N	1.272517	0.930099	-0.236244
N170	N	1.772517	1.430099	0.263756
H171	H	1.305222	0.963211	-0.208855
H172	H	1.805222	1.463211	0.291145
H173	H	1.309794	0.900727	-0.263826
H174	H	1.809794	1.400727	0.236174
