data_functionalizedCrystal
_audit_creation_method	'MofGen! by Chris Wilmer'
_symmetry_space_group_name_H-M	'P1'
_symmetry_Int_Tables_number	1
_symmetry_cell_setting	triclinic
loop_
_symmetry_equiv_pos_as_xyz
  x,y,z
_cell_length_a	10.654550
_cell_length_b	14.519709
_cell_length_c	9.130313
_cell_angle_alpha	89.994534
_cell_angle_beta	89.999724
_cell_angle_gamma	84.082538
loop_
_atom_site_label
_atom_site_type_symbol
_atom_site_fract_x
_atom_site_fract_y
_atom_site_fract_z
O1	O	1.666594	0.129532	-0.121694
O2	O	1.300997	0.141873	-0.121721
O3	O	1.493489	0.001515	-0.121693
O4	O	1.474102	0.269891	-0.121721
O5	O	1.493476	0.001510	0.121906
O6	O	1.300984	0.141869	0.121878
O7	O	1.666581	0.129528	0.121905
Cu8	Cu	1.483781	0.135698	0.144134
Cu9	Cu	1.483797	0.135703	-0.143950
O10	O	1.474089	0.269887	0.121878
C11	C	1.254201	0.140965	0.000075
C12	C	1.114784	0.138254	0.000065
C13	C	1.034504	0.220895	0.000061
C14	C	0.903507	0.218342	0.000087
C15	C	0.933084	0.050500	0.000115
C16	C	1.064078	0.053054	0.000100
C17	C	1.492579	-0.032852	0.000106
C18	C	1.489871	-0.135247	0.000107
C19	C	1.479904	-0.510195	0.000068
C20	C	1.482672	-0.405872	0.000079
C21	C	1.484887	-0.322724	0.000089
C22	C	1.487656	-0.218395	0.000097
C23	C	1.713377	0.130436	0.000106
C24	C	1.852794	0.133147	0.000106
C25	C	1.474999	0.304253	0.000075
C26	C	1.477706	0.406649	0.000065
N27	N	1.483779	0.135694	0.346757
N28	N	1.483808	0.135700	-0.346572
C29	C	1.569043	0.073570	0.423421
C30	C	1.569055	0.073570	0.576758
C31	C	1.398535	0.197827	0.576753
C32	C	1.398518	0.197822	0.423419
H33	H	0.891783	-0.018867	0.000152
N34	N	1.311455	0.261279	0.655087
N35	N	1.311481	0.261277	0.791991
H36	H	1.249980	0.306092	0.847315
N37	N	1.146110	-0.031358	0.000088
N38	N	1.263065	-0.029062	0.000075
H39	H	1.321002	-0.088675	0.000072
N40	N	1.656136	0.010092	0.655053
N41	N	1.654220	-0.075162	0.637924
H42	H	1.715721	-0.120001	0.693215
N43	N	1.656105	0.010103	0.345089
N44	N	1.656079	0.010103	0.208185
H45	H	1.717565	-0.034724	0.152863
H46	H	1.329080	0.248411	0.360995
H47	H	0.838147	0.285637	0.000086
N48	N	1.086279	0.307929	0.000028
N49	N	1.014579	0.381708	0.000027
H50	H	1.051141	0.443180	0.000007
