data_functionalizedCrystal
_audit_creation_method	'MofGen! by Chris Wilmer'
_symmetry_space_group_name_H-M	'P1'
_symmetry_Int_Tables_number	1
_symmetry_cell_setting	triclinic
loop_
_symmetry_equiv_pos_as_xyz
  x,y,z
_cell_length_a	10.967926
_cell_length_b	17.019294
_cell_length_c	10.066323
_cell_angle_alpha	77.395626
_cell_angle_beta	110.763607
_cell_angle_gamma	84.884424
loop_
_atom_site_label
_atom_site_type_symbol
_atom_site_fract_x
_atom_site_fract_y
_atom_site_fract_z
O1	O	1.700013	0.082616	0.276618
O2	O	1.322011	0.102447	0.185386
O3	O	1.523839	-0.023939	0.247712
O4	O	1.498186	0.209002	0.214292
O5	O	1.562295	-0.048131	0.486575
O6	O	1.360468	0.078254	0.424248
O7	O	1.738469	0.058423	0.515481
Zn8	Zn	1.555575	0.064498	0.507789
Zn9	Zn	1.504906	0.096373	0.193077
O10	O	1.536642	0.184809	0.453154
C11	C	1.292915	0.090736	0.293407
C12	C	1.148923	0.091874	0.259408
C13	C	1.104648	0.079849	0.367988
C14	C	0.955825	0.081025	0.332851
C15	C	1.542853	-0.065777	0.370587
C16	C	1.542199	-0.154399	0.380844
C17	C	1.520932	-0.182841	0.255461
C18	C	1.520310	-0.266111	0.265101
C19	C	1.540965	-0.320936	0.400128
C20	C	1.562229	-0.292488	0.525520
C21	C	1.562842	-0.209220	0.515876
C22	C	1.540156	-0.573013	0.435758
C23	C	1.539546	-0.656287	0.445393
C24	C	1.497625	-0.629903	0.184972
C25	C	1.498247	-0.546635	0.175342
C26	C	1.519504	-0.518193	0.300732
C27	C	1.540334	-0.406051	0.409986
C28	C	1.520126	-0.433078	0.290871
C29	C	1.767565	0.070135	0.407457
C30	C	1.911556	0.068998	0.441446
C31	C	1.517628	0.226648	0.330276
C32	C	1.518280	0.315270	0.320010
N33	N	1.590164	0.042743	0.722574
N34	N	1.470327	0.118121	-0.021704
C35	C	1.516924	0.088805	0.767741
C36	C	1.543578	0.072053	0.933136
H37	H	1.176922	0.068678	0.486960
Br38	Br	1.680999	-0.014346	1.072756
H39	H	0.983824	0.057828	0.560427
Br40	Br	1.492100	-0.358672	0.107626
Br41	Br	1.028478	0.110476	0.061106
H42	H	1.672605	-0.009091	0.806351
H43	H	1.387890	0.169964	0.894524
H44	H	1.434491	0.140645	0.683967
H45	H	0.883556	0.092189	0.213871
Br46	Br	1.492914	-0.108443	0.072204
H47	H	1.480316	-0.653069	0.082886
H48	H	1.502998	-0.289264	0.163001
H49	H	1.481430	-0.502000	0.065389
Br50	Br	1.567593	-0.730696	0.628660
H51	H	1.557492	-0.549869	0.537866
Br52	Br	1.591697	-0.170618	0.686045
Br53	Br	1.568352	-0.480463	0.593230
Br54	Br	1.590239	-0.366892	0.708769
