data_functionalizedCrystal
_audit_creation_method	'MofGen! by Chris Wilmer'
_symmetry_space_group_name_H-M	'P1'
_symmetry_Int_Tables_number	1
_symmetry_cell_setting	triclinic
loop_
_symmetry_equiv_pos_as_xyz
  x,y,z
_cell_length_a	19.805407
_cell_length_b	16.959454
_cell_length_c	19.805398
_cell_angle_alpha	89.976589
_cell_angle_beta	89.986879
_cell_angle_gamma	90.020075
loop_
_atom_site_label
_atom_site_type_symbol
_atom_site_fract_x
_atom_site_fract_y
_atom_site_fract_z
Zn1	Zn	1.034722	-0.314692	-0.382744
Zn2	Zn	1.368056	0.018641	-0.049411
Zn3	Zn	1.701389	0.351975	0.283923
Zn4	Zn	1.034662	-0.446877	-0.269566
Zn5	Zn	1.367996	-0.113543	0.063767
Zn6	Zn	1.701329	0.219790	0.397101
Zn7	Zn	0.921550	-0.314716	-0.269569
Zn8	Zn	1.254883	0.018617	0.063765
Zn9	Zn	1.588216	0.351951	0.397098
Zn10	Zn	0.921513	-0.446832	-0.382713
Zn11	Zn	1.254846	-0.113499	-0.049380
Zn12	Zn	1.588180	0.219834	0.283954
O13	O	0.978112	-0.380779	-0.326148
O14	O	1.311445	-0.047446	0.007185
O15	O	1.644779	0.285887	0.340519
O16	O	1.129431	-0.332235	-0.367743
O17	O	1.462764	0.001098	-0.034409
O18	O	1.796098	0.334432	0.298924
O19	O	1.019648	-0.429374	-0.174850
O20	O	1.352981	-0.096041	0.158484
O21	O	1.686315	0.237293	0.491817
O22	O	0.936603	-0.204102	-0.284596
O23	O	1.269936	0.129231	0.048738
O24	O	1.603269	0.462565	0.382071
O25	O	1.129387	-0.429350	-0.284591
O26	O	1.462720	-0.096017	0.048742
O27	O	1.796054	0.237316	0.382075
O28	O	1.019750	-0.204084	-0.367745
O29	O	1.353084	0.129249	-0.034412
O30	O	1.686417	0.462582	0.298921
O31	O	0.936545	-0.332276	-0.174852
O32	O	1.269878	0.001057	0.158482
O33	O	1.603211	0.334391	0.491815
O34	O	0.826828	-0.332233	-0.284565
O35	O	1.160162	0.001100	0.048768
O36	O	1.493495	0.334434	0.382101
O37	O	0.936540	-0.429275	-0.477434
O38	O	1.269874	-0.095942	-0.144100
O39	O	1.603207	0.237392	0.189233
O40	O	0.826801	-0.429298	-0.367692
O41	O	1.160135	-0.095965	-0.034359
O42	O	1.493468	0.237368	0.298975
O43	O	1.019715	-0.332192	-0.477457
O44	O	1.353048	0.001141	-0.144123
O45	O	1.686381	0.334475	0.189210
O46	O	1.019613	-0.557482	-0.284561
O47	O	1.352946	-0.224148	0.048772
O48	O	1.686279	0.109185	0.382106
O49	O	0.936482	-0.557449	-0.367690
O50	O	1.269815	-0.224116	-0.034356
O51	O	1.603149	0.109218	0.298977
C52	C	0.802256	-0.380764	-0.326126
C53	C	1.135589	-0.047431	0.007207
C54	C	1.468923	0.285903	0.340541
C55	C	0.727024	-0.380777	-0.326133
C56	C	1.060357	-0.047443	0.007201
C57	C	1.393691	0.285890	0.340534
C58	C	0.691683	-0.431395	-0.369347
C59	C	1.025017	-0.098061	-0.036013
C60	C	1.358350	0.235272	0.297320
C61	C	0.620995	-0.431396	-0.369356
C62	C	0.954328	-0.098063	-0.036023
C63	C	1.287662	0.235271	0.297310
C64	C	0.585648	-0.380783	-0.326148
C65	C	0.918982	-0.047449	0.007185
C66	C	1.252315	0.285884	0.340519
C67	C	0.620994	-0.330159	-0.282932
C68	C	0.954327	0.003174	0.050401
C69	C	1.287660	0.336507	0.383735
C70	C	0.691681	-0.330154	-0.282926
C71	C	1.025014	0.003179	0.050407
C72	C	1.358348	0.336512	0.383740
C73	C	0.335920	-0.330177	-0.282954
C74	C	0.669254	0.003157	0.050379
C75	C	1.002587	0.336490	0.383712
C76	C	0.265228	-0.330187	-0.282962
C77	C	0.598562	0.003146	0.050371
C78	C	0.931895	0.336480	0.383705
C79	C	0.265235	-0.431418	-0.369384
C80	C	0.598568	-0.098085	-0.036051
C81	C	0.931901	0.235248	0.297282
C82	C	0.335922	-0.431413	-0.369379
C83	C	0.669255	-0.098080	-0.036045
C84	C	1.002588	0.235253	0.297288
C85	C	0.371261	-0.380787	-0.326166
C86	C	0.704594	-0.047454	0.007168
C87	C	1.037928	0.285879	0.340501
C88	C	0.447909	-0.380785	-0.326157
C89	C	0.781243	-0.047452	0.007177
C90	C	1.114576	0.285881	0.340510
C91	C	0.509001	-0.380788	-0.326153
C92	C	0.842335	-0.047455	0.007180
C93	C	1.175668	0.285878	0.340514
C94	C	0.978055	-0.586145	-0.326136
C95	C	1.311389	-0.252812	0.007197
C96	C	1.644722	0.080521	0.340530
C97	C	0.978093	-0.674002	-0.326154
C98	C	1.311426	-0.340669	0.007179
C99	C	1.644760	-0.007335	0.340513
C100	C	0.934889	-1.045491	-0.369428
C101	C	1.268222	-0.712157	-0.036095
C102	C	1.601555	-0.378824	0.297238
C103	C	1.021524	-1.045465	-0.282937
C104	C	1.354857	-0.712131	0.050397
C105	C	1.688190	-0.378798	0.383730
C106	C	1.021500	-0.962919	-0.282930
C107	C	1.354833	-0.629585	0.050403
C108	C	1.688167	-0.296252	0.383736
C109	C	0.978169	-0.921655	-0.326173
C110	C	1.311503	-0.588322	0.007160
C111	C	1.644836	-0.254988	0.340494
C112	C	0.934862	-0.962937	-0.369422
C113	C	1.268196	-0.629604	-0.036089
C114	C	1.601529	-0.296270	0.297245
C115	C	1.064801	-0.921630	-0.239677
C116	C	1.398135	-0.588297	0.093656
C117	C	1.731468	-0.254964	0.426989
C118	C	1.064779	-0.839080	-0.239669
C119	C	1.398112	-0.505746	0.093665
C120	C	1.731446	-0.172413	0.426998
C121	C	1.021451	-0.797814	-0.282915
C122	C	1.354784	-0.464481	0.050418
C123	C	1.688118	-0.131148	0.383751
C124	C	0.978143	-0.839101	-0.326167
C125	C	1.311476	-0.505768	0.007167
C126	C	1.644810	-0.172435	0.340500
C127	C	0.934812	-0.797838	-0.369409
C128	C	1.268146	-0.464504	-0.036076
C129	C	1.601479	-0.131171	0.297257
C130	C	0.891507	-0.839123	-0.412665
C131	C	1.224840	-0.505790	-0.079331
C132	C	1.558174	-0.172457	0.254002
C133	C	0.891535	-0.921672	-0.412669
C134	C	1.224868	-0.588338	-0.079335
C135	C	1.558201	-0.255005	0.253998
C136	C	1.021424	-0.715266	-0.282911
C137	C	1.354757	-0.381932	0.050422
C138	C	1.688090	-0.048599	0.383755
C139	C	0.934786	-0.715284	-0.369403
C140	C	1.268119	-0.381951	-0.036070
C141	C	1.601453	-0.048617	0.297264
C142	C	1.154655	-0.380795	-0.326170
C143	C	1.487988	-0.047462	0.007163
C144	C	1.821321	0.285872	0.340496
C145	C	1.229887	-0.380802	-0.326180
C146	C	1.563220	-0.047468	0.007154
C147	C	1.896553	0.285865	0.340487
C148	C	0.978130	-0.380726	-0.502691
C149	C	1.311463	-0.047392	-0.169357
C150	C	1.644797	0.285941	0.163976
C151	C	0.978138	-0.380703	-0.577923
C152	C	1.311471	-0.047370	-0.244589
C153	C	1.644804	0.285964	0.088744
C154	C	0.978187	-0.174611	-0.326174
C155	C	1.311521	0.158722	0.007159
C156	C	1.644854	0.492056	0.340492
C157	C	0.978219	-0.086754	-0.326186
C158	C	1.311553	0.246579	0.007148
C159	C	1.644886	0.579912	0.340481
C160	C	1.021516	-0.431136	-1.039711
C161	C	1.354850	-0.097803	-0.706377
C162	C	1.688183	0.235531	-0.373044
C163	C	1.021498	-0.431158	-0.969022
C164	C	1.354831	-0.097824	-0.635689
C165	C	1.688164	0.235509	-0.302355
C166	C	0.978222	-0.380614	-0.933685
C167	C	1.311555	-0.047281	-0.600351
C168	C	1.644888	0.286053	-0.267018
C169	C	0.934957	-0.330051	-0.969039
C170	C	1.268290	0.003282	-0.635706
C171	C	1.601624	0.336616	-0.302373
C172	C	0.934973	-0.330034	-1.039727
C173	C	1.268306	0.003299	-0.706393
C174	C	1.601639	0.336633	-0.373060
C175	C	0.934892	-0.330119	-0.683966
C176	C	1.268225	0.003215	-0.350633
C177	C	1.601558	0.336548	-0.017299
C178	C	0.934881	-0.330138	-0.613274
C179	C	1.268214	0.003196	-0.279940
C180	C	1.601547	0.336529	0.053393
C181	C	1.021417	-0.431242	-0.613261
C182	C	1.354750	-0.097909	-0.279928
C183	C	1.688083	0.235425	0.053405
C184	C	1.021432	-0.431225	-0.683949
C185	C	1.354766	-0.097892	-0.350615
C186	C	1.688099	0.235441	-0.017282
C187	C	0.978165	-0.380666	-0.719297
C188	C	1.311499	-0.047332	-0.385964
C189	C	1.644832	0.286001	-0.052631
C190	C	0.978185	-0.380644	-0.795946
C191	C	1.311519	-0.047311	-0.462612
C192	C	1.644852	0.286023	-0.129279
C193	C	0.978205	-0.380631	-0.857037
C194	C	1.311538	-0.047298	-0.523704
C195	C	1.644871	0.286036	-0.190371
C196	C	0.978133	-0.380775	-0.150292
C197	C	1.311466	-0.047442	0.183041
C198	C	1.644800	0.285891	0.516375
C199	C	0.978256	-0.380576	-0.075060
C200	C	1.311590	-0.047242	0.258273
C201	C	1.644923	0.286091	0.591606
H202	H	0.592224	-0.472615	-0.404545
H203	H	0.925557	-0.139282	-0.071211
H204	H	1.258891	0.194052	0.262122
H205	H	1.056716	-0.472339	-0.940243
H206	H	1.390049	-0.139005	-0.606910
H207	H	1.723383	0.194328	-0.273577
Cl208	Cl	0.837033	-0.787239	-0.467021
Cl209	Cl	1.170367	-0.453906	-0.133688
Cl210	Cl	1.503700	-0.120573	0.199645
H211	H	0.236451	-0.288967	-0.247776
H212	H	0.569784	0.044366	0.085557
H213	H	0.903118	0.377700	0.418890
Cl214	Cl	0.880468	-0.266593	-0.728395
Cl215	Cl	1.213801	0.066740	-0.395062
Cl216	Cl	1.547135	0.400073	-0.061728
Cl217	Cl	0.837097	-0.973578	-0.467040
Cl218	Cl	1.170431	-0.640245	-0.133706
Cl219	Cl	1.503764	-0.306912	0.199627
Cl220	Cl	1.075853	-0.663367	-0.228531
Cl221	Cl	1.409186	-0.330034	0.104802
Cl222	Cl	1.742519	0.003299	0.438136
Cl223	Cl	0.880562	-0.266499	-0.924615
Cl224	Cl	1.213895	0.066834	-0.591282
Cl225	Cl	1.547228	0.400168	-0.257948
H226	H	0.364697	-0.472631	-0.404561
H227	H	0.698031	-0.139297	-0.071228
H228	H	1.031364	0.194036	0.262106
Cl229	Cl	0.380338	-0.266530	-0.228631
Cl230	Cl	0.713671	0.066803	0.104702
Cl231	Cl	1.047004	0.400137	0.438035
H232	H	1.100041	-0.805470	-0.204449
H233	H	1.433374	-0.472136	0.128884
H234	H	1.766707	-0.138803	0.462218
H235	H	0.899638	-0.288977	-0.584504
H236	H	1.232971	0.044357	-0.251171
H237	H	1.566304	0.377690	0.082163
H238	H	0.899503	-0.681692	-0.404619
H239	H	1.232836	-0.348359	-0.071286
H240	H	1.566170	-0.015026	0.262047
Cl241	Cl	0.880454	-1.097390	-0.423806
Cl242	Cl	1.213787	-0.764056	-0.090473
Cl243	Cl	1.547120	-0.430723	0.242860
H244	H	0.236453	-0.472638	-0.404573
H245	H	0.569786	-0.139304	-0.071240
H246	H	0.903120	0.194029	0.262094
Cl247	Cl	1.075928	-0.494676	-1.084128
Cl248	Cl	1.409261	-0.161343	-0.750794
Cl249	Cl	1.742594	0.171991	-0.417461
Cl250	Cl	0.576558	-0.266526	-0.228617
Cl251	Cl	0.909891	0.066808	0.104716
Cl252	Cl	1.243224	0.400141	0.438050
H253	H	1.056645	-0.472413	-0.584472
H254	H	1.389978	-0.139079	-0.251139
H255	H	1.723311	0.194254	0.082195
H256	H	1.056674	-0.472380	-0.712717
H257	H	1.390008	-0.139047	-0.379384
H258	H	1.723341	0.194286	-0.046050
H259	H	0.720458	-0.472612	-0.404530
H260	H	1.053791	-0.139279	-0.071196
H261	H	1.387124	0.194054	0.262137
Cl262	Cl	0.880590	-0.266465	-1.084166
Cl263	Cl	1.213923	0.066868	-0.750833
Cl264	Cl	1.547256	0.400201	-0.417500
H265	H	0.720454	-0.288932	-0.247741
H266	H	1.053788	0.044401	0.085593
H267	H	1.387121	0.377735	0.418926
Cl268	Cl	1.075994	-1.097340	-0.228578
Cl269	Cl	1.409327	-0.764006	0.104755
Cl270	Cl	1.742660	-0.430673	0.438089
Cl271	Cl	1.119274	-0.973508	-0.185323
Cl272	Cl	1.452608	-0.640174	0.148010
Cl273	Cl	1.785941	-0.306841	0.481344
