data_functionalizedCrystal
_audit_creation_method	'MofGen! by Chris Wilmer'
_symmetry_space_group_name_H-M	'P1'
_symmetry_Int_Tables_number	1
_symmetry_cell_setting	triclinic
loop_
_symmetry_equiv_pos_as_xyz
  x,y,z
_cell_length_a	19.188930
_cell_length_b	17.038272
_cell_length_c	17.666332
_cell_angle_alpha	89.996433
_cell_angle_beta	89.988397
_cell_angle_gamma	87.128169
loop_
_atom_site_label
_atom_site_type_symbol
_atom_site_fract_x
_atom_site_fract_y
_atom_site_fract_z
O1	O	0.151587	1.036898	-0.062869
O2	O	0.651587	1.536898	0.437131
O3	O	0.149180	0.809275	-0.062891
O4	O	0.649180	1.309275	0.437109
O5	O	0.049136	0.929655	-0.062864
O6	O	0.549136	1.429655	0.437136
O7	O	0.251631	0.916518	-0.062895
O8	O	0.751631	1.416518	0.437105
O9	O	0.049129	0.929634	0.063033
O10	O	0.549129	1.429634	0.563033
O11	O	0.149173	0.809254	0.063006
O12	O	0.649173	1.309254	0.563006
O13	O	0.151580	1.036877	0.063028
O14	O	0.651580	1.536877	0.563028
Cu15	Cu	0.150376	0.923064	0.074512
Cu16	Cu	0.650376	1.423064	0.574512
Cu17	Cu	0.150384	0.923089	-0.074375
Cu18	Cu	0.650384	1.423089	0.425625
O19	O	0.251624	0.916497	0.063002
O20	O	0.751624	1.416497	0.563002
C21	C	0.146987	0.780143	0.000055
C22	C	0.646987	1.280143	0.500055
C23	C	0.140456	0.693371	0.000047
C24	C	0.640456	1.193371	0.500047
C25	C	0.200422	0.643069	0.000039
C26	C	0.700422	1.143069	0.500039
C27	C	0.194281	0.561538	0.000050
C28	C	0.694281	1.061538	0.500050
C29	C	0.128173	0.530310	0.000065
C30	C	0.628173	1.030310	0.500065
C31	C	0.068202	0.580618	0.000076
C32	C	0.568202	1.080618	0.500076
C33	C	0.074344	0.662147	0.000070
C34	C	0.574344	1.162147	0.500070
C35	C	0.106475	0.284619	0.000088
C36	C	0.606475	0.784619	0.500088
C37	C	0.100337	0.203083	0.000092
C38	C	0.600337	0.703083	0.500092
C39	C	0.226417	0.184009	0.000068
C40	C	0.726417	0.684009	0.500068
C41	C	0.232553	0.265541	0.000058
C42	C	0.732553	0.765541	0.500058
C43	C	0.172582	0.315842	0.000072
C44	C	0.672582	0.815842	0.500072
C45	C	0.121894	0.446972	0.000074
C46	C	0.621894	0.946972	0.500074
C47	C	0.178862	0.399178	0.000069
C48	C	0.678862	0.899178	0.500069
C49	C	0.023095	0.929219	0.000086
C50	C	0.523095	1.429219	0.500086
C51	C	-0.054489	0.927942	0.000093
C52	C	0.445511	1.427942	0.500093
C53	C	-0.095025	0.998578	0.000103
C54	C	0.404975	1.498578	0.500103
C55	C	-0.167923	0.997378	0.000091
C56	C	0.332077	1.497378	0.500091
C57	C	-0.200283	0.925539	0.000083
C58	C	0.299717	1.425539	0.500083
C59	C	-0.159738	0.854894	0.000069
C60	C	0.340262	1.354894	0.500069
C61	C	-0.086841	0.856096	0.000073
C62	C	0.413159	1.356096	0.500073
N63	N	-0.311702	0.870619	0.042923
N64	N	0.188298	1.370619	0.542923
N65	N	-0.380951	0.869482	0.042920
N66	N	0.119049	1.369482	0.542920
C67	C	-0.419917	0.921913	0.000068
C68	C	0.080083	1.421913	0.500068
N69	N	-0.387018	0.975536	-0.042772
N70	N	0.112982	1.475536	0.457228
N71	N	-0.317762	0.976675	-0.042766
N72	N	0.182238	1.476675	0.457234
C73	C	-0.279327	0.924228	0.000078
C74	C	0.220673	1.424228	0.500078
C75	C	-0.539497	0.991253	0.000064
C76	C	-0.039497	1.491253	0.500064
C77	C	-0.612397	0.990050	0.000047
C78	C	-0.112397	1.490050	0.500047
C79	C	-0.604210	0.847564	0.000032
C80	C	-0.104210	1.347564	0.500032
C81	C	-0.531312	0.848769	0.000042
C82	C	-0.031312	1.348769	0.500042
C83	C	-0.498960	0.920615	0.000061
C84	C	0.001040	1.420615	0.500061
C85	C	0.277665	0.916933	0.000050
C86	C	0.777665	1.416933	0.500050
C87	C	0.355249	0.918210	0.000038
C88	C	0.855249	1.418210	0.500038
C89	C	0.153772	1.066009	0.000081
C90	C	0.653772	1.566009	0.500081
C91	C	0.160304	1.152782	0.000083
C92	C	0.660304	1.652782	0.500083
N93	N	0.150370	0.923052	0.179232
N94	N	0.650370	1.423052	0.679232
N95	N	0.150385	0.923107	-0.179094
N96	N	0.650385	1.423107	0.320906
C97	C	0.106095	0.976374	0.218853
C98	C	0.606095	1.476374	0.718853
C99	C	0.106091	0.976378	0.298101
C100	C	0.606091	1.476378	0.798101
C101	C	0.150376	0.923068	0.337724
C102	C	0.650376	1.423068	0.837724
C103	C	0.194654	0.869737	0.298093
C104	C	0.694654	1.369737	0.798093
C105	C	0.194651	0.869729	0.218847
C106	C	0.694651	1.369729	0.718847
N107	N	0.211552	0.912907	0.462133
N108	N	0.711552	1.412907	0.962133
N109	N	0.211553	0.912919	0.537413
N110	N	0.711553	1.412919	1.037413
C111	C	0.150387	0.923089	0.576488
C112	C	0.650387	1.423089	1.076488
N113	N	0.089219	0.933261	0.537439
N114	N	0.589219	1.433261	1.037439
N115	N	0.089219	0.933252	0.462151
N116	N	0.589219	1.433252	0.962151
C117	C	0.150384	0.923071	0.423653
C118	C	0.650384	1.423071	0.923653
C119	C	0.106105	0.976418	0.702039
C120	C	0.606105	1.476418	1.202039
C121	C	0.106100	0.976418	0.781288
C122	C	0.606100	1.476418	1.281288
C123	C	0.194670	0.869780	0.781279
C124	C	0.694670	1.369780	1.281279
C125	C	0.194668	0.869777	0.702031
C126	C	0.694668	1.369777	1.202031
C127	C	0.150386	0.923101	0.662416
C128	C	0.650386	1.423101	1.162416
H129	H	0.057642	0.325565	0.000101
H130	H	0.557642	0.825565	0.500101
O131	O	0.003999	0.550247	-0.000044
O132	O	0.503999	1.050247	0.499956
C133	C	-0.003316	0.503643	-0.065235
C134	C	0.496684	1.003643	0.434765
H135	H	0.034309	0.522802	-0.110815
H136	H	0.534309	1.022802	0.389185
H137	H	-0.059139	0.511155	-0.087112
H138	H	0.440861	1.011155	0.412888
H139	H	0.008966	0.439290	-0.050494
H140	H	0.508966	0.939290	0.449506
H141	H	0.286386	0.290960	0.000037
H142	H	0.786386	0.790960	0.500037
H143	H	0.230706	0.826307	0.186587
H144	H	0.730706	1.326307	0.686587
O145	O	-0.491857	0.780205	0.000140
O146	O	0.008143	1.280205	0.500140
C147	C	-0.449473	0.776618	0.065355
C148	C	0.050527	1.276618	0.565355
H149	H	-0.442112	0.838647	0.087101
H150	H	0.057888	1.338647	0.587101
H151	H	-0.396475	0.747316	0.050690
H152	H	0.103525	1.247316	0.550690
H153	H	-0.475557	0.740989	0.111007
H154	H	0.024443	1.240989	0.611007
O155	O	-0.207383	1.065945	0.000207
O156	O	0.292617	1.565945	0.500207
C157	C	-0.249793	1.069499	0.065420
C158	C	0.250207	1.569499	0.565420
H159	H	-0.257162	1.007459	0.087143
H160	H	0.242838	1.507459	0.587143
H161	H	-0.302784	1.098808	0.050762
H162	H	0.197216	1.598808	0.550762
H163	H	-0.223728	1.105105	0.111087
H164	H	0.276272	1.605105	0.611087
O165	O	-0.651672	1.058741	0.000090
O166	O	-0.151672	1.558741	0.500090
C167	C	-0.607481	1.122407	0.000090
C168	C	-0.107481	1.622407	0.500090
H169	H	-0.554325	1.102372	0.023927
H170	H	-0.054325	1.602372	0.523927
H171	H	-0.631416	1.171874	0.036649
H172	H	-0.131416	1.671874	0.536649
H173	H	-0.600970	1.144456	-0.060303
H174	H	-0.100970	1.644456	0.439697
O175	O	0.016021	0.710902	0.000040
O176	O	0.516021	1.210902	0.500040
C177	C	-0.043646	0.665859	0.000071
C178	C	0.456354	1.165859	0.500071
H179	H	-0.029543	0.604945	-0.023763
H180	H	0.470457	1.104945	0.476237
H181	H	-0.085958	0.696088	-0.036474
H182	H	0.414042	1.196088	0.463526
H183	H	-0.063685	0.660121	0.060474
H184	H	0.436315	1.160121	0.560474
H185	H	0.070036	1.019791	0.186601
H186	H	0.570036	1.519791	0.686601
O187	O	0.036132	0.172707	-0.000023
O188	O	0.536132	0.672707	0.499977
C189	C	0.028816	0.126104	-0.065214
C190	C	0.528816	0.626104	0.434786
H191	H	0.066435	0.145269	-0.110798
H192	H	0.566435	0.645269	0.389202
H193	H	-0.027009	0.133609	-0.087085
H194	H	0.472991	0.633609	0.412915
H195	H	0.041107	0.061752	-0.050475
H196	H	0.541107	0.561752	0.449525
O197	O	-0.047431	0.787498	-0.000067
O198	O	0.452569	1.287498	0.499933
C199	C	-0.004989	0.783952	-0.065255
C200	C	0.495011	1.283952	0.434745
H201	H	-0.029267	0.824025	-0.110826
H202	H	0.470733	1.324025	0.389174
H203	H	-0.000535	0.720962	-0.087150
H204	H	0.499465	1.220962	0.412850
H205	H	0.049154	0.804001	-0.050505
H206	H	0.549154	1.304001	0.449495
O207	O	0.252555	0.512710	-0.000095
O208	O	0.752555	1.012710	0.499905
C209	C	0.292411	0.526845	-0.065300
C210	C	0.792411	1.026845	0.434700
H211	H	0.257211	0.554834	-0.110867
H212	H	0.757211	1.054834	0.389133
H213	H	0.316970	0.468902	-0.087187
H214	H	0.816970	0.968902	0.412813
H215	H	0.335279	0.568226	-0.050574
H216	H	0.835279	1.068226	0.449426
O217	O	-0.635747	0.777847	0.000055
O218	O	-0.135747	1.277847	0.500055
C219	C	-0.708781	0.791931	0.000029
C220	C	-0.208781	1.291931	0.500029
H221	H	-0.722261	0.852986	0.023872
H222	H	-0.222261	1.352986	0.523872
H223	H	-0.733882	0.745968	0.036569
H224	H	-0.233882	1.245968	0.536569
H225	H	-0.729256	0.788227	-0.060374
H226	H	-0.229256	1.288227	0.439626
O227	O	-0.507984	1.060990	-0.000028
O228	O	-0.007984	1.560990	0.499972
C229	C	-0.466057	1.065962	-0.065235
C230	C	0.033943	1.565962	0.434765
H231	H	-0.451580	1.004291	-0.086976
H232	H	0.048420	1.504291	0.413024
H233	H	-0.416531	1.096954	-0.050563
H234	H	0.083469	1.596954	0.449437
H235	H	-0.496157	1.100662	-0.110894
H236	H	0.003843	1.600662	0.389106
H237	H	0.232687	0.424608	0.000061
H238	H	0.732687	0.924608	0.500061
H239	H	0.070036	1.019800	0.330367
H240	H	0.570036	1.519800	0.830367
H241	H	0.230710	0.826330	0.330358
H242	H	0.730710	1.326330	0.830358
O243	O	0.237749	0.817957	0.663656
O244	O	0.737749	1.317957	1.163656
C245	C	0.276824	0.770890	0.715618
C246	C	0.776824	1.270890	1.215618
H247	H	0.279534	0.802939	0.772102
H248	H	0.779534	1.302939	1.272102
H249	H	0.331856	0.758770	0.692708
H250	H	0.831856	1.258770	1.192708
H251	H	0.250679	0.712904	0.724061
H252	H	0.750679	1.212904	1.224061
H253	H	-0.186090	0.796402	0.000061
H254	H	0.313910	1.296402	0.500061
H255	H	0.070046	1.019835	0.669783
H256	H	0.570046	1.519835	1.169783
O257	O	0.057661	0.416674	0.000213
O258	O	0.557661	0.916674	0.500213
C259	C	0.020795	0.442414	0.065407
C260	C	0.520795	0.942414	0.565407
H261	H	0.059360	0.459250	0.110977
H262	H	0.559360	0.959250	0.610977
H263	H	-0.011838	0.393122	0.087298
H264	H	0.488162	0.893122	0.587298
H265	H	-0.014948	0.495684	0.050664
H266	H	0.485052	0.995684	0.550664
H267	H	0.254254	0.668488	0.000027
H268	H	0.754254	1.168488	0.500027
O269	O	0.063068	1.028294	0.819661
O270	O	0.563068	1.528294	1.319661
C271	C	0.023976	1.075341	0.767699
C272	C	0.523976	1.575341	1.267699
H273	H	0.052648	1.076115	0.711202
H274	H	0.552648	1.576115	1.211202
H275	H	0.017075	1.137804	0.790589
H276	H	0.517075	1.637804	1.290589
H277	H	-0.029406	1.050150	0.759287
H278	H	0.470594	1.550150	1.259287
O279	O	0.237590	0.817961	0.819841
O280	O	0.737590	1.317961	1.319841
C281	C	0.197315	0.769859	0.865682
C282	C	0.697315	1.269859	1.365682
H283	H	0.144558	0.801183	0.877564
H284	H	0.644558	1.301183	1.377564
H285	H	0.225713	0.757394	0.921402
H286	H	0.725713	1.257394	1.421402
H287	H	0.189109	0.712105	0.835149
H288	H	0.689109	1.212105	1.335149
H289	H	0.275242	0.143046	0.000058
H290	H	0.775242	0.643046	0.500058
H291	H	-0.068689	1.057080	0.000116
H292	H	0.431311	1.557080	0.500116
