data_functionalizedCrystal
_audit_creation_method	'MofGen! by Chris Wilmer'
_symmetry_space_group_name_H-M	'P1'
_symmetry_Int_Tables_number	1
_symmetry_cell_setting	triclinic
loop_
_symmetry_equiv_pos_as_xyz
  x,y,z
_cell_length_a	19.188928
_cell_length_b	22.610064
_cell_length_c	19.188930
_cell_angle_alpha	90.001060
_cell_angle_beta	96.855705
_cell_angle_gamma	89.975098
loop_
_atom_site_label
_atom_site_type_symbol
_atom_site_fract_x
_atom_site_fract_y
_atom_site_fract_z
O1	O	-0.926151	0.049420	0.087150
O2	O	-0.592817	0.382753	0.420484
O3	O	-0.259484	0.716087	0.753817
O4	O	-0.722839	0.049372	0.098886
O5	O	-0.389506	0.382705	0.432220
O6	O	-0.056173	0.716038	0.765553
O7	O	-0.830362	0.049386	-0.008638
O8	O	-0.497029	0.382719	0.324696
O9	O	-0.163695	0.716052	0.658029
O10	O	-0.818628	0.049406	0.194674
O11	O	-0.485295	0.382739	0.528007
O12	O	-0.151961	0.716073	0.861341
O13	O	-0.830343	-0.048983	-0.008622
O14	O	-0.497010	0.284350	0.324712
O15	O	-0.163676	0.617683	0.658045
O16	O	-0.722820	-0.048997	0.098902
O17	O	-0.389487	0.284336	0.432235
O18	O	-0.056154	0.617669	0.765569
O19	O	-0.926132	-0.048949	0.087166
O20	O	-0.592798	0.284384	0.420499
O21	O	-0.259465	0.617717	0.753833
Zn22	Zn	-0.824473	-0.064592	0.093036
Zn23	Zn	-0.491140	0.268742	0.426370
Zn24	Zn	-0.157806	0.602075	0.759703
Zn25	Zn	-0.824498	0.065014	0.093016
Zn26	Zn	-0.491165	0.398347	0.426349
Zn27	Zn	-0.157831	0.731681	0.759682
O28	O	-0.818609	-0.048963	0.194690
O29	O	-0.485276	0.284370	0.528023
O30	O	-0.151942	0.617704	0.861356
C31	C	-0.696819	0.000181	0.098514
C32	C	-0.363485	0.333514	0.431848
C33	C	-0.030152	0.666848	0.765181
C34	C	-0.619314	0.000162	0.097374
C35	C	-0.285981	0.333495	0.430708
C36	C	0.047353	0.666829	0.764041
N37	N	-0.824461	-0.153044	0.093050
N38	N	-0.491128	0.180289	0.426383
N39	N	-0.157794	0.513623	0.759717
C40	C	-0.574390	0.000176	0.160465
C41	C	-0.241057	0.333509	0.493799
C42	C	0.092277	0.666843	0.827132
C43	C	-0.501566	0.000179	0.159394
C44	C	-0.168233	0.333513	0.492728
C45	C	0.165100	0.666846	0.826061
C46	C	-0.473670	0.000181	0.095229
C47	C	-0.140336	0.333514	0.428562
C48	C	0.192997	0.666847	0.761895
C49	C	-0.518603	0.000163	0.032129
C50	C	-0.185270	0.333497	0.365462
C51	C	0.148063	0.666830	0.698796
C52	C	-0.591426	0.000154	0.033202
C53	C	-0.258092	0.333487	0.366535
C54	C	0.075241	0.666821	0.699869
N55	N	-0.365696	0.033674	0.046177
N56	N	-0.032362	0.367008	0.379510
N57	N	0.300971	0.700341	0.712844
N58	N	-0.296517	0.033684	0.045162
N59	N	0.036816	0.367018	0.378496
N60	N	0.370150	0.700351	0.711829
C61	C	-0.254261	0.000207	0.091992
C62	C	0.079073	0.333541	0.425326
C63	C	0.412406	0.666874	0.758659
N64	N	-0.283795	-0.033273	0.139886
N65	N	0.049538	0.300061	0.473219
N66	N	0.382872	0.633394	0.806553
N67	N	-0.352980	-0.033280	0.140903
N68	N	-0.019646	0.300053	0.474236
N69	N	0.313687	0.633386	0.807570
C70	C	-0.394707	0.000190	0.094058
C71	C	-0.061374	0.333524	0.427391
C72	C	0.271960	0.666857	0.760725
C73	C	-0.130372	0.000224	0.153927
C74	C	0.202961	0.333557	0.487260
C75	C	0.536294	0.666891	0.820593
C76	C	-0.057547	0.000224	0.152853
C77	C	0.275786	0.333557	0.486186
C78	C	0.609119	0.666890	0.819519
C79	C	-0.074586	0.000214	0.025586
C80	C	0.258747	0.333547	0.358919
C81	C	0.592080	0.666880	0.692252
C82	C	-0.147409	0.000208	0.026661
C83	C	0.185924	0.333541	0.359994
C84	C	0.519257	0.666875	0.693328
C85	C	-0.175298	0.000216	0.090833
C86	C	0.158036	0.333549	0.424167
C87	C	0.491369	0.666883	0.757500
C88	C	-0.872111	-0.561679	0.045411
C89	C	-0.538778	-0.228346	0.378745
C90	C	-0.205445	0.104987	0.712078
C91	C	-0.872115	-0.623599	0.045406
C92	C	-0.538782	-0.290266	0.378740
C93	C	-0.205448	0.043068	0.712073
O94	O	-0.912599	-0.655613	0.004913
O95	O	-0.579266	-0.322279	0.338246
O96	O	-0.245932	0.011054	0.671579
N97	N	-0.824498	-0.654581	0.093001
N98	N	-0.491164	-0.321248	0.426335
N99	N	-0.157831	0.012086	0.759668
C100	C	-0.776869	-0.623640	0.140599
C101	C	-0.443535	-0.290307	0.473933
C102	C	-0.110202	0.043027	0.807266
O103	O	-0.736366	-0.655678	0.181082
O104	O	-0.403033	-0.322345	0.514415
O105	O	-0.069700	0.010988	0.847748
C106	C	-0.776862	-0.561721	0.140601
C107	C	-0.443529	-0.228388	0.473934
C108	C	-0.110196	0.104945	0.807267
C109	C	-0.824488	-0.530742	0.093007
C110	C	-0.491154	-0.197409	0.426341
C111	C	-0.157821	0.135924	0.759674
C112	C	-0.919732	-0.530700	-0.002178
C113	C	-0.586399	-0.197367	0.331155
C114	C	-0.253065	0.135966	0.664488
C115	C	-0.919729	-0.468785	-0.002172
C116	C	-0.586396	-0.135451	0.331161
C117	C	-0.253063	0.197882	0.664494
C118	C	-0.872106	-0.437848	0.045424
C119	C	-0.538772	-0.104515	0.378757
C120	C	-0.205439	0.228819	0.712090
C121	C	-0.824485	-0.468827	0.093014
C122	C	-0.491151	-0.135493	0.426347
C123	C	-0.157818	0.197840	0.759680
C124	C	-0.729231	-0.530781	0.188195
C125	C	-0.395898	-0.197448	0.521528
C126	C	-0.062564	0.135885	0.854862
C127	C	-0.729228	-0.468858	0.188192
C128	C	-0.395895	-0.135525	0.521525
C129	C	-0.062562	0.197808	0.854858
C130	C	-0.776853	-0.437879	0.140599
C131	C	-0.443520	-0.104546	0.473932
C132	C	-0.110187	0.228787	0.807265
C133	C	-0.776858	-0.375974	0.140616
C134	C	-0.443525	-0.042641	0.473949
C135	C	-0.110191	0.290692	0.807282
N136	N	-0.824475	-0.344992	0.093021
N137	N	-0.491142	-0.011659	0.426354
N138	N	-0.157809	0.321674	0.759688
C139	C	-0.872099	-0.375929	0.045425
C140	C	-0.538766	-0.042596	0.378758
C141	C	-0.205433	0.290738	0.712092
C142	C	-0.776885	-0.753674	0.140593
C143	C	-0.443552	-0.420340	0.473926
C144	C	-0.110218	-0.087007	0.807259
C145	C	-0.776894	-0.815591	0.140595
C146	C	-0.443561	-0.482258	0.473929
C147	C	-0.110227	-0.148925	0.807262
C148	C	-0.872139	-0.815546	0.045401
C149	C	-0.538806	-0.482213	0.378734
C150	C	-0.205473	-0.148879	0.712068
C151	C	-0.872133	-0.753627	0.045402
C152	C	-0.538800	-0.420294	0.378736
C153	C	-0.205466	-0.086961	0.712069
C154	C	-0.824502	-0.722692	0.092998
C155	C	-0.491169	-0.389358	0.426331
C156	C	-0.157836	-0.056025	0.759664
C157	C	-0.872090	-0.245902	0.045442
C158	C	-0.538757	0.087432	0.378775
C159	C	-0.205423	0.420765	0.712108
C160	C	-0.872085	-0.183981	0.045454
C161	C	-0.538751	0.149353	0.378787
C162	C	-0.205418	0.482686	0.712121
C163	C	-0.776837	-0.184031	0.140645
C164	C	-0.443504	0.149302	0.473979
C165	C	-0.110170	0.482635	0.807312
C166	C	-0.776844	-0.245947	0.140636
C167	C	-0.443511	0.087386	0.473969
C168	C	-0.110178	0.420720	0.807303
C169	C	-0.824474	-0.276881	0.093028
C170	C	-0.491140	0.056453	0.426362
C171	C	-0.157807	0.389786	0.759695
O172	O	-0.736393	-0.343922	0.181087
O173	O	-0.403059	-0.010588	0.514420
O174	O	-0.069726	0.322745	0.847753
O175	O	-0.912589	-0.343883	0.004943
O176	O	-0.579255	-0.010550	0.338277
O177	O	-0.245922	0.322783	0.671610
C178	C	0.047848	0.000233	0.087540
C179	C	0.381181	0.333566	0.420873
C180	C	0.714515	0.666899	0.754207
C181	C	-0.029656	0.000224	0.088686
C182	C	0.303678	0.333557	0.422020
C183	C	0.637011	0.666891	0.755353
C184	C	-0.829973	0.000199	-0.034641
C185	C	-0.496639	0.333533	0.298693
C186	C	-0.163306	0.666866	0.632026
C187	C	-0.828832	0.000194	-0.112145
C188	C	-0.495499	0.333527	0.221188
C189	C	-0.162165	0.666861	0.554521
N190	N	-0.824516	0.153467	0.092996
N191	N	-0.491182	0.486800	0.426330
N192	N	-0.157849	0.820133	0.759663
C193	C	-0.891923	0.000206	-0.157070
C194	C	-0.558590	0.333539	0.176264
C195	C	-0.225256	0.666873	0.509597
C196	C	-0.890851	0.000215	-0.229893
C197	C	-0.557518	0.333549	0.103440
C198	C	-0.224185	0.666882	0.436773
C199	C	-0.826685	0.000201	-0.257789
C200	C	-0.493352	0.333534	0.075544
C201	C	-0.160018	0.666867	0.408877
C202	C	-0.763586	0.000192	-0.212855
C203	C	-0.430252	0.333525	0.120478
C204	C	-0.096919	0.666858	0.453812
C205	C	-0.764659	0.000188	-0.140033
C206	C	-0.431326	0.333522	0.193300
C207	C	-0.097993	0.666855	0.526634
N208	N	-0.777631	-0.033288	-0.365789
N209	N	-0.444298	0.300045	-0.032455
N210	N	-0.110965	0.633379	0.300878
N211	N	-0.776616	-0.033286	-0.434967
N212	N	-0.443282	0.300047	-0.101634
N213	N	-0.109949	0.633381	0.231699
C214	C	-0.823447	0.000212	-0.477198
C215	C	-0.490114	0.333545	-0.143865
C216	C	-0.156780	0.666878	0.189469
N217	N	-0.871343	0.033700	-0.447638
N218	N	-0.538009	0.367034	-0.114305
N219	N	-0.204676	0.700367	0.219028
N220	N	-0.872360	0.033696	-0.378454
N221	N	-0.539027	0.367029	-0.045120
N222	N	-0.205693	0.700362	0.288213
C223	C	-0.825514	0.000205	-0.336752
C224	C	-0.492181	0.333538	-0.003419
C225	C	-0.158847	0.666871	0.329915
C226	C	-0.885380	0.000235	-0.601087
C227	C	-0.552047	0.333568	-0.267754
C228	C	-0.218714	0.666901	0.065580
C229	C	-0.884306	0.000248	-0.673912
C230	C	-0.550973	0.333581	-0.340578
C231	C	-0.217639	0.666914	-0.007245
C232	C	-0.757039	0.000218	-0.656872
C233	C	-0.423705	0.333551	-0.323539
C234	C	-0.090372	0.666885	0.009795
C235	C	-0.758115	0.000211	-0.584049
C236	C	-0.424781	0.333544	-0.250715
C237	C	-0.091448	0.666878	0.082618
C238	C	-0.822287	0.000217	-0.556161
C239	C	-0.488954	0.333550	-0.222828
C240	C	-0.155621	0.666883	0.110506
C241	C	-0.818998	0.000225	0.220693
C242	C	-0.485665	0.333558	0.554026
C243	C	-0.152332	0.666891	0.887359
C244	C	-0.820139	0.000234	0.298197
C245	C	-0.486806	0.333567	0.631531
C246	C	-0.153472	0.666900	0.964864
H247	H	-0.597092	0.000183	0.212720
H248	H	-0.263758	0.333517	0.546053
H249	H	0.069575	0.666850	0.879386
Br250	Br	-0.712209	-0.142036	0.205240
Br251	Br	-0.378876	0.191297	0.538573
Br252	Br	-0.045542	0.524631	0.871906
H253	H	-0.935684	0.000261	-0.710489
H254	H	-0.602351	0.333594	-0.377156
H255	H	-0.269018	0.666927	-0.043823
Br256	Br	-0.440586	0.000194	0.245024
Br257	Br	-0.107253	0.333528	0.578357
Br258	Br	0.226081	0.666861	0.911691
H259	H	-0.706739	0.000198	-0.547470
H260	H	-0.373406	0.333531	-0.214137
H261	H	-0.040073	0.666865	0.119197
Br262	Br	-0.676502	0.000179	-0.250712
Br263	Br	-0.343169	0.333513	0.082622
Br264	Br	-0.009836	0.666846	0.415955
H265	H	-0.020970	0.000232	0.204231
H266	H	0.312363	0.333565	0.537565
H267	H	0.645697	0.666898	0.870898
H268	H	-0.944177	0.000213	-0.134369
H269	H	-0.610844	0.333546	0.198965
H270	H	-0.277511	0.666879	0.532298
H271	H	-0.628004	0.000143	-0.018176
H272	H	-0.294670	0.333476	0.315157
H273	H	0.038663	0.666810	0.648490
Br274	Br	-0.679029	0.000174	-0.079059
Br275	Br	-0.345696	0.333507	0.254274
Br276	Br	-0.012362	0.666840	0.587607
Br277	Br	-0.712269	-0.857627	0.205200
Br278	Br	-0.378936	-0.524294	0.538533
Br279	Br	-0.045602	-0.190960	0.871866
H280	H	-0.704793	0.000209	-0.679584
H281	H	-0.371460	0.333542	-0.346251
H282	H	-0.038127	0.666876	-0.012917
Br283	Br	-0.036735	0.000206	-0.061498
Br284	Br	0.296599	0.333539	0.271835
Br285	Br	0.629932	0.666872	0.605168
H286	H	-0.495885	0.000173	-0.020115
H287	H	-0.162552	0.333506	0.313218
H288	H	0.170781	0.666839	0.646551
Br289	Br	-0.936772	-0.857545	-0.019194
Br290	Br	-0.603438	-0.524212	0.314140
Br291	Br	-0.270105	-0.190878	0.647473
H292	H	-0.738100	-0.728489	0.179356
H293	H	-0.404766	-0.395155	0.512689
H294	H	-0.071433	-0.061822	0.846023
Br295	Br	-0.168225	0.000230	0.241015
Br296	Br	0.165108	0.333564	0.574348
Br297	Br	0.498441	0.666897	0.907682
H298	H	-0.183988	0.000200	-0.024715
H299	H	0.149346	0.333533	0.308619
H300	H	0.482679	0.666867	0.641952
Br301	Br	-0.984372	-0.572675	-0.066782
Br302	Br	-0.651038	-0.239342	0.266551
Br303	Br	-0.317705	0.093991	0.599884
H304	H	-0.910869	-0.158760	0.006698
H305	H	-0.577536	0.174574	0.340031
H306	H	-0.244203	0.507907	0.673365
Br307	Br	-0.936730	-0.287873	-0.019170
Br308	Br	-0.603396	0.045460	0.314164
Br309	Br	-0.270063	0.378793	0.647497
H310	H	-0.910913	-0.728408	0.006648
H311	H	-0.577580	-0.395075	0.339981
H312	H	-0.244247	-0.061741	0.673314
Br313	Br	-0.984362	-0.426749	-0.066769
Br314	Br	-0.651029	-0.093416	0.266565
Br315	Br	-0.317695	0.239918	0.599898
Br316	Br	-0.972469	0.000236	-0.563235
Br317	Br	-0.639136	0.333570	-0.229901
Br318	Br	-0.305802	0.666903	0.103432
H319	H	-0.690450	-0.555996	0.226949
H320	H	-0.357117	-0.222662	0.560283
H321	H	-0.023783	0.110671	0.893616
Br322	Br	-0.664579	-0.426878	0.252787
Br323	Br	-0.331246	-0.093545	0.586120
Br324	Br	0.002087	0.239788	0.919454
H325	H	-0.738070	-0.271170	0.179397
H326	H	-0.404737	0.062163	0.512731
H327	H	-0.071404	0.395496	0.846064
H328	H	-0.942229	0.000228	-0.266478
H329	H	-0.608896	0.333561	0.066855
H330	H	-0.275562	0.666894	0.400189
