data_functionalizedCrystal
_audit_creation_method	'MofGen! by Chris Wilmer'
_symmetry_space_group_name_H-M	'P1'
_symmetry_Int_Tables_number	1
_symmetry_cell_setting	triclinic
loop_
_symmetry_equiv_pos_as_xyz
  x,y,z
_cell_length_a	10.723024
_cell_length_b	23.532407
_cell_length_c	9.198806
_cell_angle_alpha	89.992171
_cell_angle_beta	89.996352
_cell_angle_gamma	83.658273
loop_
_atom_site_label
_atom_site_type_symbol
_atom_site_fract_x
_atom_site_fract_y
_atom_site_fract_z
O1	O	1.654700	0.079871	-0.120900
O2	O	1.291309	0.087516	-0.120906
O3	O	1.483962	0.000833	-0.120876
O4	O	1.462046	0.166554	-0.120930
O5	O	1.483947	0.000833	0.120909
O6	O	1.291294	0.087516	0.120879
O7	O	1.654684	0.079871	0.120885
Cu8	Cu	1.472988	0.083693	0.142959
Cu9	Cu	1.473006	0.083693	-0.142980
O10	O	1.462031	0.166554	0.120855
C11	C	1.244819	0.086960	-0.000014
C12	C	1.106317	0.085295	-0.000015
C13	C	1.029823	0.133798	-0.000032
C14	C	0.886673	0.132079	-0.000033
C15	C	1.483397	-0.020387	0.000020
C16	C	1.481719	-0.083615	0.000031
C17	C	1.585203	-0.482046	-0.000046
C18	C	1.583644	-0.541457	-0.000058
O19	O	1.679575	-0.577579	-0.000109
N20	N	1.469112	-0.564826	-0.000059
C21	C	1.356131	-0.528782	-0.000063
O22	O	1.258569	-0.554114	-0.000067
C23	C	1.357691	-0.469373	-0.000063
C24	C	1.472230	-0.446007	-0.000047
C25	C	1.699733	-0.458680	-0.000032
C26	C	1.701291	-0.399274	-0.000019
C27	C	1.588319	-0.363234	-0.000019
C28	C	1.473789	-0.386600	-0.000033
C29	C	1.244711	-0.433329	-0.000078
C30	C	1.246281	-0.373917	-0.000078
C31	C	1.360821	-0.350551	-0.000062
C32	C	1.362374	-0.291154	-0.000020
N33	N	1.476907	-0.267785	-0.000019
C34	C	1.589879	-0.303825	-0.000018
C35	C	1.352863	-0.653545	-0.000067
C36	C	1.351302	-0.712953	-0.000057
C37	C	1.578816	-0.725625	-0.000054
C38	C	1.580376	-0.666215	-0.000054
C39	C	1.467395	-0.630176	-0.000066
C40	C	1.593143	-0.179067	0.000012
C41	C	1.594691	-0.119655	0.000032
C42	C	1.367178	-0.106989	0.000021
C43	C	1.365629	-0.166396	0.000009
C44	C	1.478622	-0.202434	-0.000001
O45	O	1.266494	-0.254997	0.000026
O46	O	1.687425	-0.278484	-0.000034
C47	C	1.701174	0.080427	-0.000010
C48	C	1.839677	0.082092	-0.000018
C49	C	1.462597	0.187774	-0.000044
C50	C	1.464275	0.251001	-0.000065
N51	N	1.472984	0.083693	0.344073
N52	N	1.473019	0.083689	-0.344094
C53	C	1.553879	0.047136	0.416283
C54	C	1.553898	0.047134	0.583695
H55	H	1.065828	0.042497	-0.000039
H56	H	1.623160	0.015839	0.645792
N57	N	1.824833	-0.374079	-0.000045
H58	H	1.808698	-0.330974	-0.000047
H59	H	1.874241	-0.387237	0.089580
N60	N	0.799620	0.187083	0.000007
H61	H	0.850658	0.220678	0.000015
H62	H	0.744939	0.188675	-0.089611
H63	H	1.403737	0.114986	0.406190
N64	N	0.926711	0.027082	0.000000
H65	H	0.981399	0.025450	-0.089628
H66	H	0.981305	0.025484	0.089691
N67	N	1.245324	-0.068119	0.000013
H68	H	1.195310	-0.075693	0.089636
H69	H	1.263790	-0.026953	-0.000038
H70	H	1.403763	0.114991	0.593818
N71	N	1.715006	-0.217933	0.000026
H72	H	1.719456	-0.242860	-0.089605
H73	H	1.787721	-0.194071	0.000098
N74	N	1.083431	0.190495	-0.000049
H75	H	1.136743	0.193423	0.089580
H76	H	1.136693	0.193387	-0.089738
N77	N	1.718234	-0.094453	0.000057
H78	H	1.789562	-0.126303	0.000051
H79	H	1.723848	-0.070072	-0.089569
H80	H	1.791734	-0.488018	-0.000037
H81	H	1.673644	-0.647195	-0.000042
H82	H	1.258032	-0.731972	-0.000045
N83	N	1.700669	-0.764502	-0.000054
H84	H	1.682291	-0.805682	-0.000062
H85	H	1.750623	-0.756882	-0.089686
H86	H	1.260855	-0.624205	-0.000065
H87	H	1.272361	-0.185421	0.000036
N88	N	1.121171	-0.458521	-0.000076
H89	H	1.049852	-0.426668	-0.000079
H90	H	1.115561	-0.482889	-0.089709
N91	N	1.124429	-0.335040	-0.000084
H92	H	1.074431	-0.342600	-0.089718
H93	H	1.074518	-0.342633	0.089601
N94	N	1.645574	0.005664	0.334019
H95	H	1.632549	0.011538	0.226085
H96	H	1.734110	0.012475	0.360505
