data_functionalizedCrystal
_audit_creation_method	'MofGen! by Chris Wilmer'
_symmetry_space_group_name_H-M	'P1'
_symmetry_Int_Tables_number	1
_symmetry_cell_setting	triclinic
loop_
_symmetry_equiv_pos_as_xyz
  x,y,z
_cell_length_a	19.805407
_cell_length_b	19.805405
_cell_length_c	19.805398
_cell_angle_alpha	89.975049
_cell_angle_beta	89.984135
_cell_angle_gamma	90.026726
loop_
_atom_site_label
_atom_site_type_symbol
_atom_site_fract_x
_atom_site_fract_y
_atom_site_fract_z
Zn1	Zn	1.034709	-0.269490	-0.382724
Zn2	Zn	1.034631	-0.382675	-0.269538
Zn3	Zn	0.921531	-0.269505	-0.269549
Zn4	Zn	0.921487	-0.382642	-0.382685
O5	O	0.978090	-0.326078	-0.326124
O6	O	1.129416	-0.284511	-0.367722
O7	O	1.019614	-0.367683	-0.174823
O8	O	0.936596	-0.174787	-0.284583
O9	O	1.129358	-0.367668	-0.284564
O10	O	1.019748	-0.174775	-0.367732
O11	O	0.936520	-0.284538	-0.174831
O12	O	0.826809	-0.284506	-0.284544
O13	O	0.936520	-0.367612	-0.477406
O14	O	0.826776	-0.367627	-0.367665
O15	O	1.019704	-0.284480	-0.477436
O16	O	1.019571	-0.477387	-0.284526
O17	O	0.936444	-0.477363	-0.367654
C18	C	0.802234	-0.326065	-0.326102
C19	C	0.727002	-0.326076	-0.326109
C20	C	0.978013	-0.501934	-0.326099
C21	C	0.978041	-0.577166	-0.326112
C22	C	0.691658	-0.369422	-0.369319
C23	C	0.620970	-0.369424	-0.369329
C24	C	0.585626	-0.326081	-0.326124
C25	C	0.620974	-0.282730	-0.282911
C26	C	0.691662	-0.282726	-0.282906
C27	C	0.335901	-0.282745	-0.282934
C28	C	0.265209	-0.282754	-0.282941
C29	C	0.265209	-0.369443	-0.369357
C30	C	0.335896	-0.369439	-0.369351
C31	C	0.371239	-0.326085	-0.326142
C32	C	0.447887	-0.326083	-0.326133
C33	C	0.508979	-0.326086	-0.326129
C34	C	1.021313	-0.612446	-0.369441
C35	C	1.021337	-0.683135	-0.369454
C36	C	0.978093	-0.718542	-0.326133
C37	C	0.934817	-0.683257	-0.282801
C38	C	0.934790	-0.612570	-0.282792
C39	C	0.934926	-0.968330	-0.282836
C40	C	0.934958	-1.039022	-0.282846
C41	C	1.021473	-1.038895	-0.369497
C42	C	1.021446	-0.968208	-0.369489
C43	C	0.978168	-0.932929	-0.326160
C44	C	0.978141	-0.856281	-0.326147
C45	C	0.978123	-0.795189	-0.326141
C46	C	1.154632	-0.326092	-0.326146
C47	C	1.229864	-0.326097	-0.326156
C48	C	0.978116	-0.326041	-0.502667
C49	C	0.978128	-0.326025	-0.577899
C50	C	0.978186	-0.149535	-0.326163
C51	C	0.978226	-0.074303	-0.326180
C52	C	1.021523	-0.282618	-1.039706
C53	C	1.021512	-0.282638	-0.969018
C54	C	0.978197	-0.325931	-0.933661
C55	C	0.934894	-0.369210	-0.968996
C56	C	0.934909	-0.369192	-1.039683
C57	C	0.934835	-0.369283	-0.683922
C58	C	0.934823	-0.369296	-0.613230
C59	C	1.021439	-0.282730	-0.613257
C60	C	1.021454	-0.282712	-0.683944
C61	C	0.978154	-0.325993	-0.719273
C62	C	0.978166	-0.325971	-0.795922
C63	C	0.978180	-0.325950	-0.857013
C64	C	0.978102	-0.326067	-0.150268
C65	C	0.978222	-0.325892	-0.075036
H66	H	0.720430	-0.404719	-0.404500
O67	O	1.063536	-0.240584	-1.074154
C68	C	1.054277	-0.249856	-1.144121
H69	H	1.002032	-0.272017	-1.153769
H70	H	1.094409	-0.285897	-1.164177
C71	C	1.124692	-0.154144	-1.168574
C72	C	1.060522	-0.181357	-1.180424
H73	H	1.128547	-0.111892	-1.190968
H74	H	1.130932	-0.147898	-1.121436
H75	H	1.158128	-0.184185	-1.185288
H76	H	1.027087	-0.151320	-1.163702
H77	H	1.054276	-0.187596	-1.227560
H78	H	0.899629	-0.404462	-0.940202
H79	H	0.364670	-0.404735	-0.404531
H80	H	0.236425	-0.404741	-0.404543
H81	H	1.056661	-0.939382	-0.404762
H82	H	0.899545	-0.404549	-0.584444
O83	O	0.370122	-0.240612	-0.240898
C84	C	0.323766	-0.202348	-0.202779
H85	H	0.273369	-0.230077	-0.200387
H86	H	0.316272	-0.150979	-0.227663
C87	C	0.413230	-0.158425	-0.133697
C88	C	0.351333	-0.192486	-0.130754
H89	H	0.430236	-0.152339	-0.089269
H90	H	0.444462	-0.184202	-0.159380
H91	H	0.406976	-0.115622	-0.154436
H92	H	0.357590	-0.235291	-0.110023
H93	H	0.320104	-0.166716	-0.105066
H94	H	0.899577	-0.404524	-0.712678
O95	O	1.063595	-0.240536	-0.934803
C96	C	1.101837	-0.202331	-0.981168
H97	H	1.074123	-0.199974	-1.031553
H98	H	1.153232	-0.227115	-0.988687
C99	C	1.145662	-0.133195	-0.891709
C100	C	1.111620	-0.130296	-0.953592
H101	H	1.151699	-0.088762	-0.874699
H102	H	1.119899	-0.158937	-0.860472
H103	H	1.188487	-0.153852	-0.897984
H104	H	1.068792	-0.109647	-0.947315
H105	H	1.137375	-0.104550	-0.984828
O106	O	0.586559	-0.411565	-0.411205
C107	C	0.545651	-0.455237	-0.372589
H108	H	0.535056	-0.431291	-0.321341
H109	H	0.572867	-0.505386	-0.365057
C110	C	0.491524	-0.496956	-0.472754
C111	C	0.478507	-0.467543	-0.409812
H112	H	0.450108	-0.504550	-0.495716
H113	H	0.519087	-0.467536	-0.498771
H114	H	0.514206	-0.538743	-0.466469
H115	H	0.455833	-0.425753	-0.416099
H116	H	0.450939	-0.496957	-0.383797
H117	H	1.056710	-1.067628	-0.404780
O118	O	0.892745	-0.717545	-0.240697
C119	C	0.854558	-0.671245	-0.202440
H120	H	0.852176	-0.620844	-0.230156
H121	H	0.879375	-0.663733	-0.151056
C122	C	0.785464	-0.760804	-0.158578
C123	C	0.782533	-0.698902	-0.192623
H124	H	0.741037	-0.777864	-0.152519
H125	H	0.811193	-0.791998	-0.184351
H126	H	0.806148	-0.754536	-0.115763
H127	H	0.761858	-0.705172	-0.235440
H128	H	0.756799	-0.667710	-0.166857
H129	H	1.056698	-0.247490	-0.584484
H130	H	0.899649	-0.404431	-1.068448
O131	O	1.063446	-0.717301	-0.411555
C132	C	1.101604	-0.670892	-0.449793
H133	H	1.103933	-0.620515	-0.422067
H134	H	1.076798	-0.663372	-0.501183
C135	C	1.170792	-0.760280	-0.493646
C136	C	1.173656	-0.698408	-0.459591
H137	H	1.215236	-0.777253	-0.499694
H138	H	1.145083	-0.791547	-0.467887
H139	H	1.150117	-0.754005	-0.536468
H140	H	1.194324	-0.704685	-0.416767
H141	H	1.199371	-0.667142	-0.485343
O142	O	0.892881	-1.073313	-0.240743
C143	C	0.854686	-1.027018	-0.202487
H144	H	0.852303	-0.976616	-0.230201
H145	H	0.879497	-1.019508	-0.151101
C146	C	0.785594	-1.116585	-0.158638
C147	C	0.782663	-1.054681	-0.192679
H148	H	0.741167	-1.133649	-0.152585
H149	H	0.811328	-1.147775	-0.184410
H150	H	0.806273	-1.110318	-0.115820
H151	H	0.761992	-1.060950	-0.235500
H152	H	0.756924	-1.023492	-0.166914
H153	H	1.056723	-0.247457	-0.712728
O154	O	0.586716	-0.240660	-0.240849
C155	C	0.603946	-0.255369	-0.173360
H156	H	0.655260	-0.281381	-0.171906
H157	H	0.564141	-0.290141	-0.150504
C158	C	0.544197	-0.157380	-0.134266
C159	C	0.607223	-0.189324	-0.132479
H160	H	0.546215	-0.116641	-0.109047
H161	H	0.532586	-0.147471	-0.179734
H162	H	0.511032	-0.186364	-0.115221
H163	H	0.640384	-0.160344	-0.151532
H164	H	0.618840	-0.199226	-0.087013
H165	H	0.236434	-0.247455	-0.247758
H166	H	0.720437	-0.247425	-0.247723
H167	H	1.056530	-0.583622	-0.404715
O168	O	0.892685	-0.578265	-0.240798
C169	C	0.848940	-0.537382	-0.279290
H170	H	0.844734	-0.558660	-0.332597
H171	H	0.869846	-0.483790	-0.281637
C172	C	0.783763	-0.510238	-0.180688
C173	C	0.778593	-0.536376	-0.246158
H174	H	0.740370	-0.509614	-0.160249
H175	H	0.813236	-0.537779	-0.154754
H176	H	0.801187	-0.465580	-0.182652
H177	H	0.761178	-0.581035	-0.244192
H178	H	0.749115	-0.508841	-0.272091
H179	H	0.899688	-0.939612	-0.247554
