data_functionalizedCrystal
_audit_creation_method	'MofGen! by Chris Wilmer'
_symmetry_space_group_name_H-M	'P1'
_symmetry_Int_Tables_number	1
_symmetry_cell_setting	triclinic
loop_
_symmetry_equiv_pos_as_xyz
  x,y,z
_cell_length_a	10.685904
_cell_length_b	13.897441
_cell_length_c	10.686285
_cell_angle_alpha	94.394146
_cell_angle_beta	90.334098
_cell_angle_gamma	85.605969
loop_
_atom_site_label
_atom_site_type_symbol
_atom_site_fract_x
_atom_site_fract_y
_atom_site_fract_z
Zn1	Zn	1.956325	-0.639587	0.352411
Zn2	Zn	1.972329	-0.466954	0.562214
Zn3	Zn	1.746541	-0.465049	0.368538
Zn4	Zn	1.762633	-0.614964	0.578198
O5	O	1.859457	-0.546639	0.465341
O6	O	2.134001	-0.627789	0.366803
O7	O	1.942341	-0.331714	0.536582
O8	O	1.760937	-0.497709	0.190852
O9	O	2.145759	-0.500956	0.520945
O10	O	1.915064	-0.625941	0.179004
O11	O	1.776456	-0.330314	0.394290
O12	O	1.573123	-0.473834	0.409789
O13	O	1.788364	-0.753218	0.548188
O14	O	1.584945	-0.583976	0.563825
O15	O	1.930668	-0.771308	0.382303
O16	O	1.957945	-0.477081	0.739881
O17	O	1.803882	-0.585823	0.751625
C18	C	1.533515	-0.526027	0.490293
C19	C	1.394078	-0.517230	0.500997
C20	C	1.859526	-0.798242	0.465229
C21	C	1.859555	-0.905461	0.465182
C22	C	1.859578	-0.992534	0.465144
C23	C	1.859610	-1.101772	0.465085
C24	C	2.186672	-0.567332	0.440292
C25	C	2.326111	-0.576150	0.429618
C26	C	1.884430	-0.529010	0.791268
C27	C	1.895229	-0.521508	0.930692
C28	C	1.859454	-0.296023	0.465355
C29	C	1.859640	-0.188840	0.465031
C30	C	1.834420	-0.564359	0.138138
C31	C	1.823751	-0.571911	-0.001296
H32	H	1.374602	-0.633321	0.360310
C33	C	1.989057	-0.455442	0.996130
N34	N	2.059728	-0.405682	1.045418
H35	H	1.345593	-0.460056	0.570292
C36	C	1.729925	-0.637971	0.933271
N37	N	1.659256	-0.687730	0.883979
