data_functionalizedCrystal
_audit_creation_method	'MofGen! by Chris Wilmer'
_symmetry_space_group_name_H-M	'P1'
_symmetry_Int_Tables_number	1
_symmetry_cell_setting	triclinic
loop_
_symmetry_equiv_pos_as_xyz
  x,y,z
_cell_length_a	13.339070
_cell_length_b	15.944551
_cell_length_c	11.804365
_cell_angle_alpha	101.830656
_cell_angle_beta	74.875130
_cell_angle_gamma	99.564016
loop_
_atom_site_label
_atom_site_type_symbol
_atom_site_fract_x
_atom_site_fract_y
_atom_site_fract_z
O1	O	1.362759	0.408901	-0.099080
O2	O	1.068226	0.353629	-0.099072
O3	O	1.223533	0.260866	-0.099066
O4	O	1.207452	0.501664	-0.099087
O5	O	1.182647	0.285253	0.098989
O6	O	1.027340	0.378016	0.098982
O7	O	1.321872	0.433288	0.098974
Cu8	Cu	1.170873	0.407879	0.117062
Cu9	Cu	1.219226	0.379038	-0.117160
O10	O	1.166565	0.526051	0.098968
C11	C	1.010093	0.356486	-0.000044
C12	C	0.897788	0.328657	-0.000040
C13	C	0.533018	0.545045	-0.000078
C14	C	0.638534	0.571194	-0.000085
C15	C	0.703352	0.510562	-0.000073
C16	C	0.662645	0.423776	-0.000055
C17	C	0.557121	0.397622	-0.000058
C18	C	0.727455	0.363140	-0.000053
C19	C	0.686748	0.276354	-0.000035
C20	C	0.581234	0.250205	-0.000037
C21	C	0.516415	0.310837	-0.000048
C22	C	0.832980	0.389293	-0.000051
C23	C	0.857083	0.241871	-0.000031
C24	C	0.751567	0.215721	-0.000024
C25	C	1.202422	0.241610	-0.000038
C26	C	1.200420	0.147897	-0.000038
C27	C	1.099370	-0.090508	-0.000051
C28	C	1.126136	-0.128567	0.097600
C29	C	1.196800	-0.023674	-0.000047
C30	C	1.166470	-0.152588	-0.097666
C31	C	1.193297	-0.189405	-0.000060
C32	C	1.223576	-0.060489	0.097685
C33	C	1.263915	-0.084518	-0.097668
C34	C	1.290747	-0.122540	0.000007
C35	C	1.198815	0.071799	-0.000038
C36	C	1.191288	-0.284874	-0.000061
C37	C	1.380006	0.430430	-0.000057
C38	C	1.492312	0.458259	-0.000068
C39	C	1.187677	0.545307	-0.000062
C40	C	1.189681	0.639019	-0.000071
N41	N	1.136871	0.428165	0.281801
N42	N	1.253235	0.358748	-0.281899
C43	C	1.334885	0.310017	0.655758
C44	C	1.360606	0.294667	0.531097
C45	C	1.304674	0.328040	0.468767
C46	C	1.223018	0.376766	0.531110
C47	C	1.197300	0.392123	0.655783
C48	C	1.167089	0.410146	0.468792
C49	C	1.085432	0.458872	0.531135
C50	C	1.059718	0.474226	0.655795
C51	C	1.115650	0.440854	0.718126
C52	C	1.192807	0.394789	0.344119
C53	C	1.055221	0.476895	0.344144
C54	C	1.029500	0.492245	0.468805
H55	H	0.548096	0.179536	-0.000035
H56	H	0.789268	0.531858	-0.000082
H57	H	0.993236	0.513910	0.706555
C58	C	1.134265	-0.205581	-0.207850
C59	C	1.115169	-0.150222	-0.275854
C60	C	1.085505	-0.199003	-0.377365
H61	H	1.072536	-0.243406	-0.184532
H62	H	1.188841	-0.238388	-0.253911
H63	H	1.060597	-0.117429	-0.229801
H64	H	1.176884	-0.112396	-0.299202
H65	H	1.140081	-0.231811	-0.423427
H66	H	1.023778	-0.236827	-0.354036
H67	H	1.072554	-0.161450	-0.423524
H68	H	0.909859	0.192498	-0.000026
H69	H	0.430494	0.289550	-0.000042
H70	H	1.009678	0.504072	0.293396
C71	C	1.255582	-0.007593	0.208036
C72	C	1.183701	-0.030437	0.309924
C73	C	1.213154	0.018265	0.411600
H74	H	1.256612	0.052046	0.207554
H75	H	1.323291	-0.018713	0.208383
H76	H	1.116011	-0.019310	0.309578
H77	H	1.182661	-0.090068	0.310445
H78	H	1.280863	0.007144	0.411946
H79	H	1.214184	0.077901	0.411106
H80	H	1.164394	0.002766	0.480742
C81	C	1.332690	0.311547	0.333420
C82	C	1.361642	0.390438	0.292154
C83	C	1.387473	0.375273	0.167475
H84	H	1.273913	0.281515	0.305085
H85	H	1.389368	0.277786	0.305172
H86	H	1.304970	0.424185	0.320391
H87	H	1.420425	0.420482	0.320457
H88	H	1.444150	0.341512	0.139227
H89	H	1.328692	0.345239	0.139152
H90	H	1.407129	0.428797	0.139461
H91	H	1.371679	-0.136831	0.000060
C92	C	0.991424	-0.071367	0.000139
C93	C	0.922207	-0.147687	0.001297
C94	C	0.822758	-0.130084	0.001495
H95	H	0.995128	-0.048454	-0.069244
H96	H	0.967203	-0.030575	0.068890
H97	H	0.946423	-0.188464	-0.067448
H98	H	0.918472	-0.170611	0.070675
H99	H	0.798536	-0.089293	0.070247
H100	H	0.826472	-0.107170	-0.067889
H101	H	0.775780	-0.181862	0.002292
C102	C	0.877065	0.483519	-0.000249
C103	C	0.865135	0.509082	-0.102135
C104	C	0.905718	0.595886	-0.102348
H105	H	0.949199	0.490529	-0.000308
H106	H	0.840532	0.518057	0.068777
H107	H	0.901669	0.474555	-0.171143
H108	H	0.793010	0.502093	-0.102097
H109	H	0.869186	0.630423	-0.033322
H110	H	0.977851	0.602887	-0.102404
H111	H	0.897621	0.613243	-0.171470
C112	C	1.341533	-0.058250	-0.207648
C113	C	1.343055	0.030063	-0.205569
C114	C	1.414546	0.054293	-0.306864
H115	H	1.321222	-0.090128	-0.277053
H116	H	1.409318	-0.069828	-0.208354
H117	H	1.275284	0.041633	-0.204874
H118	H	1.363377	0.061961	-0.136187
H119	H	1.482331	0.042715	-0.307570
H120	H	1.394229	0.022410	-0.376261
H121	H	1.415596	0.114216	-0.305461
C122	C	1.048554	-0.154795	0.207637
C123	C	1.048431	-0.242761	0.206717
C124	C	0.976980	-0.266949	0.308065
H125	H	0.980538	-0.144230	0.207639
H126	H	1.068199	-0.122104	0.277014
H127	H	1.028780	-0.275442	0.137359
H128	H	1.116430	-0.253349	0.206733
H129	H	0.996626	-0.234259	0.377442
H130	H	0.908970	-0.256379	0.308059
H131	H	0.976895	-0.326634	0.307461
H132	H	0.671672	0.641854	-0.000109
H133	H	0.480236	0.594401	-0.000097
H134	H	0.718410	0.145057	-0.000019
H135	H	1.259292	0.355116	0.293371
H136	H	1.427091	0.254996	0.480342
H137	H	1.380423	0.282855	0.706515
H138	H	1.094705	0.453348	0.819635
H139	H	0.963014	0.531919	0.519580
