data_functionalizedCrystal
_audit_creation_method	'MofGen! by Chris Wilmer'
_symmetry_space_group_name_H-M	'P1'
_symmetry_Int_Tables_number	1
_symmetry_cell_setting	triclinic
loop_
_symmetry_equiv_pos_as_xyz
  x,y,z
_cell_length_a	17.077404
_cell_length_b	19.120900
_cell_length_c	17.077396
_cell_angle_alpha	92.471365
_cell_angle_beta	90.021457
_cell_angle_gamma	92.472284
loop_
_atom_site_label
_atom_site_type_symbol
_atom_site_fract_x
_atom_site_fract_y
_atom_site_fract_z
Zn1	Zn	-1.186663	0.279647	-0.430533
Zn2	Zn	-0.853330	0.612980	-0.097199
Zn3	Zn	-0.519997	0.946314	0.236134
Zn4	Zn	-1.180945	0.397111	-0.293659
Zn5	Zn	-0.847612	0.730444	0.039675
Zn6	Zn	-0.514279	1.063778	0.373008
Zn7	Zn	-1.055394	0.279669	-0.299275
Zn8	Zn	-0.722061	0.613003	0.034058
Zn9	Zn	-0.388727	0.946336	0.367392
Zn10	Zn	-1.049740	0.397067	-0.424880
Zn11	Zn	-0.716407	0.730400	-0.091547
Zn12	Zn	-0.383073	1.063734	0.241787
O13	O	-1.118186	0.338374	-0.362087
O14	O	-0.784852	0.671707	-0.028753
O15	O	-0.451519	1.005040	0.304580
O16	O	-1.295751	0.295238	-0.412391
O17	O	-0.962418	0.628571	-0.079058
O18	O	-0.629085	0.961905	0.254275
O19	O	-1.164264	0.381560	-0.184555
O20	O	-0.830931	0.714893	0.148778
O21	O	-0.497597	1.048227	0.482111
O22	O	-1.077566	0.181376	-0.321403
O23	O	-0.744233	0.514710	0.011930
O24	O	-0.410900	0.848043	0.345264
O25	O	-1.291550	0.381538	-0.311831
O26	O	-0.958217	0.714872	0.021503
O27	O	-0.624884	1.048205	0.354836
O28	O	-1.174009	0.181360	-0.417837
O29	O	-0.840676	0.514693	-0.084504
O30	O	-0.507343	0.848026	0.248829
O31	O	-1.072022	0.295276	-0.188682
O32	O	-0.738688	0.628609	0.144652
O33	O	-0.405355	0.961943	0.477985
O34	O	-0.944798	0.295233	-0.315922
O35	O	-0.611464	0.628567	0.017412
O36	O	-0.278131	0.961900	0.350745
O37	O	-1.067930	0.381463	-0.535478
O38	O	-0.734597	0.714797	-0.202145
O39	O	-0.401263	1.048130	0.131189
O40	O	-0.940644	0.381485	-0.408203
O41	O	-0.607310	0.714818	-0.074870
O42	O	-0.273977	1.048152	0.258464
O43	O	-1.168527	0.295195	-0.539631
O44	O	-0.835194	0.628529	-0.206298
O45	O	-0.501860	0.961862	0.127036
O46	O	-1.158782	0.495396	-0.306349
O47	O	-0.825448	0.828729	0.026984
O48	O	-0.492115	1.162062	0.360317
O49	O	-1.062386	0.495363	-0.402757
O50	O	-0.729052	0.828697	-0.069424
O51	O	-0.395719	1.162030	0.263910
C52	C	-0.914239	0.338357	-0.362059
C53	C	-0.580905	0.671691	-0.028725
C54	C	-0.247572	1.005024	0.304608
C55	C	-0.826988	0.338367	-0.362065
C56	C	-0.493655	0.671701	-0.028731
C57	C	-0.160322	1.005034	0.304602
C58	C	-0.783853	0.383346	-0.410030
C59	C	-0.450519	0.716679	-0.076697
C60	C	-0.117186	1.050012	0.256636
C61	C	-0.701872	0.383346	-0.410040
C62	C	-0.368539	0.716679	-0.076707
C63	C	-0.035205	1.050012	0.256627
C64	C	-0.663029	0.338371	-0.362079
C65	C	-0.329695	0.671704	-0.028746
C66	C	0.003638	1.005037	0.304587
C67	C	-0.706170	0.293387	-0.314112
C68	C	-0.372837	0.626721	0.019222
C69	C	-0.039504	0.960054	0.352555
C70	C	-0.788150	0.293384	-0.314107
C71	C	-0.454816	0.626718	0.019227
C72	C	-0.121483	0.960051	0.352560
C73	C	-0.535300	0.293398	-0.314124
C74	C	-0.201967	0.626732	0.019209
C75	C	0.131367	0.960065	0.352542
C76	C	-0.453315	0.293402	-0.314128
C77	C	-0.119982	0.626735	0.019205
C78	C	0.213352	0.960069	0.352539
C79	C	-0.449022	0.383360	-0.410058
C80	C	-0.115689	0.716693	-0.076724
C81	C	0.217644	1.050026	0.256609
C82	C	-0.531002	0.383356	-0.410053
C83	C	-0.197668	0.716690	-0.076719
C84	C	0.135665	1.050023	0.256614
C85	C	-0.574138	0.338374	-0.362084
C86	C	-0.240804	0.671707	-0.028750
C87	C	0.092529	1.005041	0.304583
C88	C	-1.109371	0.520865	-0.353347
C89	C	-0.776038	0.854198	-0.020014
C90	C	-0.442704	1.187532	0.313319
C91	C	-1.105672	0.598936	-0.349635
C92	C	-0.772339	0.932269	-0.016302
C93	C	-0.439005	1.265602	0.317032
C94	C	-1.118236	0.338322	-0.566833
C95	C	-0.784902	0.671655	-0.233500
C96	C	-0.451569	1.004989	0.099833
C97	C	-1.118257	0.338300	-0.654084
C98	C	-0.784924	0.671633	-0.320751
C99	C	-0.451590	1.004967	0.012582
C100	C	-0.322929	0.338386	-0.362107
C101	C	0.010404	0.671720	-0.028773
C102	C	0.343737	1.005053	0.304560
C103	C	-0.410179	0.338380	-0.362094
C104	C	-0.076846	0.671714	-0.028760
C105	C	0.256487	1.005047	0.304573
C106	C	-1.082213	1.040491	-0.326144
C107	C	-0.748880	1.373824	0.007190
C108	C	-0.415546	1.707157	0.340523
C109	C	-1.085690	0.967135	-0.329632
C110	C	-0.752357	1.300468	0.003702
C111	C	-0.419024	1.633802	0.337035
C112	C	-1.137608	0.930389	-0.381624
C113	C	-0.804274	1.263723	-0.048290
C114	C	-0.470941	1.597056	0.285043
C115	C	-1.186045	0.967003	-0.430136
C116	C	-0.852712	1.300337	-0.096803
C117	C	-0.519378	1.633670	0.236531
C118	C	-1.182563	1.040357	-0.426651
C119	C	-0.849230	1.373691	-0.093318
C120	C	-0.515897	1.707024	0.240015
C121	C	-1.150627	0.708904	-0.394663
C122	C	-0.817294	1.042237	-0.061329
C123	C	-0.483961	1.375570	0.272004
C124	C	-1.154107	0.635544	-0.398142
C125	C	-0.820774	0.968878	-0.064809
C126	C	-0.487441	1.302211	0.268525
C127	C	-1.053751	0.635681	-0.297638
C128	C	-0.720418	0.969015	0.035695
C129	C	-0.387084	1.302348	0.369028
C130	C	-1.050277	0.709037	-0.294155
C131	C	-0.716944	1.042370	0.039178
C132	C	-0.383611	1.375703	0.372512
C133	C	-1.098712	0.745644	-0.342670
C134	C	-0.765378	1.078977	-0.009337
C135	C	-0.432045	1.412311	0.323996
C136	C	-1.141165	0.855408	-0.385188
C137	C	-0.807832	1.188742	-0.051855
C138	C	-0.474498	1.522075	0.281478
C139	C	-1.095150	0.820624	-0.339109
C140	C	-0.761816	1.153957	-0.005775
C141	C	-0.428483	1.487291	0.327558
C142	C	-1.127009	1.155170	-0.370884
C143	C	-0.793676	1.488503	-0.037551
C144	C	-0.460342	1.821836	0.295783
C145	C	-1.130648	1.077099	-0.374651
C146	C	-0.797315	1.410433	-0.041317
C147	C	-0.463982	1.743766	0.292016
C148	C	-1.170640	0.293376	-0.697238
C149	C	-0.837306	0.626710	-0.363905
C150	C	-0.503973	0.960043	-0.030572
C151	C	-1.170650	0.293353	-0.779220
C152	C	-0.837317	0.626686	-0.445887
C153	C	-0.503984	0.960020	-0.112553
C154	C	-1.118281	0.338257	-0.818046
C155	C	-0.784948	0.671591	-0.484713
C156	C	-0.451615	1.004924	-0.151379
C157	C	-1.065893	0.383183	-0.774886
C158	C	-0.732560	0.716516	-0.441553
C159	C	-0.399226	1.049849	-0.108219
C160	C	-1.065879	0.383202	-0.692906
C161	C	-0.732546	0.716535	-0.359573
C162	C	-0.399212	1.049869	-0.026239
C163	C	-1.065927	0.383140	-0.945758
C164	C	-0.732593	0.716474	-0.612425
C165	C	-0.399260	1.049807	-0.279091
C166	C	-1.065941	0.383122	-1.027744
C167	C	-0.732608	0.716456	-0.694410
C168	C	-0.399274	1.049789	-0.361077
C169	C	-1.170698	0.293292	-1.032072
C170	C	-0.837364	0.626625	-0.698739
C171	C	-0.504031	0.959958	-0.365405
C172	C	-1.170684	0.293311	-0.950092
C173	C	-0.837351	0.626644	-0.616759
C174	C	-0.504017	0.959978	-0.283426
C175	C	-1.118296	0.338237	-0.906938
C176	C	-0.784963	0.671571	-0.573605
C177	C	-0.451630	1.004904	-0.240271
C178	C	-1.118184	0.338375	-0.158139
C179	C	-0.784850	0.671708	0.175195
C180	C	-0.451517	1.005041	0.508528
C181	C	-1.118324	0.338199	-0.070898
C182	C	-0.784990	0.671532	0.262436
C183	C	-0.451657	1.004865	0.595769
H184	H	-1.039939	1.070404	-0.283804
H185	H	-0.706606	1.403737	0.049530
H186	H	-0.373272	1.737070	0.382863
O187	O	-1.033462	0.927647	-0.277302
O188	O	-0.700129	1.260981	0.056032
O189	O	-0.366796	1.594314	0.389365
H190	H	-0.996788	0.965522	-0.240552
H191	H	-0.663454	1.298856	0.092781
H192	H	-0.330121	1.632189	0.426114
H193	H	-1.008002	0.738950	-0.251816
H194	H	-0.674669	1.072284	0.081517
H195	H	-0.341336	1.405617	0.414850
O196	O	-1.001506	0.596200	-0.245319
O197	O	-0.668173	0.929533	0.088015
O198	O	-0.334840	1.262866	0.421348
H199	H	-1.012642	0.539019	-0.256478
H200	H	-0.679309	0.872352	0.076855
H201	H	-0.345976	1.205685	0.410188
O202	O	-0.664288	0.244874	-0.262377
O203	O	-0.330955	0.578208	0.070957
O204	O	0.002378	0.911541	0.404290
H205	H	-0.679434	0.256851	-0.200177
H206	H	-0.346100	0.590185	0.133157
H207	H	-0.012767	0.923518	0.466490
H208	H	-0.666754	0.419972	-0.449098
H209	H	-0.333421	0.753305	-0.115765
H210	H	-0.000088	1.086639	0.217569
H211	H	-1.228314	0.937081	-0.472473
H212	H	-0.894981	1.270414	-0.139140
H213	H	-0.561648	1.603747	0.194194
H214	H	-0.413897	0.419984	-0.449118
H215	H	-0.080564	0.753317	-0.115785
H216	H	0.252769	1.086651	0.217548
O217	O	-1.210098	0.595907	-0.454229
O218	O	-0.876764	0.929240	-0.120896
O219	O	-0.543431	1.262573	0.212437
H220	H	-1.243186	0.633685	-0.487387
H221	H	-0.909853	0.967018	-0.154054
H222	H	-0.576519	1.300352	0.179280
H223	H	-1.023255	0.419713	-0.910625
H224	H	-0.689922	0.753047	-0.577291
H225	H	-0.356589	1.086380	-0.243958
O226	O	-0.411398	0.244903	-0.262405
O227	O	-0.078065	0.578236	0.070929
O228	O	0.255269	0.911570	0.404262
H229	H	-0.429775	0.189786	-0.278609
H230	H	-0.096441	0.523120	0.054724
H231	H	0.236892	0.856453	0.388058
H232	H	-0.570419	0.256762	-0.275070
H233	H	-0.237086	0.590096	0.058263
H234	H	0.096247	0.923429	0.391597
O235	O	-0.834681	0.244873	-0.262373
O236	O	-0.501348	0.578206	0.070960
O237	O	-0.168014	0.911539	0.404294
H238	H	-0.870504	0.276264	-0.220879
H239	H	-0.537171	0.609597	0.112454
H240	H	-0.203837	0.942930	0.445788
H241	H	-1.221998	1.070163	-0.466157
H242	H	-0.888665	1.403497	-0.132824
H243	H	-0.555332	1.736830	0.200510
H244	H	-1.023250	0.419742	-0.806504
H245	H	-0.689917	0.753075	-0.473171
H246	H	-0.356584	1.086408	-0.139838
H247	H	-1.190075	0.738700	-0.434158
H248	H	-0.856742	1.072034	-0.100825
H249	H	-0.523408	1.405367	0.232508
O250	O	-1.009368	0.431647	-0.646362
O251	O	-0.676035	0.764981	-0.313028
O252	O	-0.342702	1.098314	0.020305
H253	H	-1.020157	0.486775	-0.659443
H254	H	-0.686823	0.820108	-0.326109
H255	H	-0.353490	1.153442	0.007224
O256	O	-0.825748	0.431852	-0.461763
O257	O	-0.492414	0.765185	-0.128430
O258	O	-0.159081	1.098518	0.204904
H259	H	-0.781976	0.463122	-0.495125
H260	H	-0.448643	0.796455	-0.161791
H261	H	-0.115310	1.129788	0.171542
O262	O	-0.572902	0.431861	-0.461783
O263	O	-0.239569	0.765194	-0.128449
O264	O	0.093764	1.098528	0.204884
H265	H	-0.529137	0.463135	-0.495146
H266	H	-0.195803	0.796468	-0.161813
H267	H	0.137530	1.129802	0.171520
O268	O	-1.039165	0.860257	-0.283025
O269	O	-0.705832	1.193591	0.050308
O270	O	-0.372498	1.526924	0.383641
H271	H	-0.997626	0.893690	-0.316530
H272	H	-0.664293	1.227024	0.016804
H273	H	-0.330960	1.560357	0.350137
H274	H	-1.213307	0.256774	-0.814353
H275	H	-0.879974	0.590107	-0.481019
H276	H	-0.546641	0.923440	-0.147686
H277	H	-1.183439	0.825484	-0.427520
H278	H	-0.850105	1.158817	-0.094186
H279	H	-0.516772	1.492151	0.239147
H280	H	-1.213287	0.256812	-0.665632
H281	H	-0.879954	0.590146	-0.332299
H282	H	-0.546620	0.923479	0.001034
H283	H	-1.213332	0.256750	-0.918482
H284	H	-0.879998	0.590083	-0.585149
H285	H	-0.546665	0.923417	-0.251816
H286	H	-1.213352	0.256710	-1.067212
H287	H	-0.880019	0.590043	-0.733879
H288	H	-0.546686	0.923376	-0.400546
H289	H	-1.023296	0.419686	-1.059353
H290	H	-0.689963	0.753019	-0.726020
H291	H	-0.356629	1.086352	-0.392687
