data_functionalizedCrystal
_audit_creation_method	'MofGen! by Chris Wilmer'
_symmetry_space_group_name_H-M	'P1'
_symmetry_Int_Tables_number	1
_symmetry_cell_setting	triclinic
loop_
_symmetry_equiv_pos_as_xyz
  x,y,z
_cell_length_a	19.077068
_cell_length_b	19.077241
_cell_length_c	19.076919
_cell_angle_alpha	89.886096
_cell_angle_beta	85.529249
_cell_angle_gamma	85.292229
loop_
_atom_site_label
_atom_site_type_symbol
_atom_site_fract_x
_atom_site_fract_y
_atom_site_fract_z
Zn1	Zn	-0.256332	-1.047582	0.450414
Zn2	Zn	-0.369488	-1.047495	0.337255
Zn3	Zn	-0.255959	-0.934813	0.328177
Zn4	Zn	-0.378906	-0.924921	0.450353
O5	O	-0.315171	-0.988703	0.391550
O6	O	-0.267556	-1.146062	0.439228
O7	O	-0.350331	-1.036651	0.237563
O8	O	-0.157199	-0.953949	0.340619
O9	O	-0.350692	-1.145999	0.356091
O10	O	-0.157472	-1.036800	0.430426
O11	O	-0.266922	-0.953864	0.230893
O12	O	-0.276054	-0.835009	0.340559
O13	O	-0.366744	-0.937089	0.548849
O14	O	-0.366383	-0.827742	0.430321
O15	O	-0.276689	-1.027207	0.548894
O16	O	-0.469548	-1.027059	0.356031
O17	O	-0.476467	-0.937004	0.439123
C18	C	-0.322201	-0.805838	0.384449
C19	C	-0.325226	-0.727606	0.381428
C20	C	-0.283437	-0.690880	0.423366
C21	C	-0.286276	-0.617373	0.420521
C22	C	-0.330907	-0.580593	0.375743
C23	C	-0.372697	-0.617324	0.333801
C24	C	-0.369855	-0.690829	0.336642
C25	C	-0.344039	-0.360751	0.362593
C26	C	-0.346880	-0.287240	0.359757
C27	C	-0.260457	-0.287295	0.446477
C28	C	-0.257622	-0.360802	0.449317
C29	C	-0.299409	-0.397526	0.407372
N30	N	-0.333811	-0.505457	0.372836
N31	N	-0.296501	-0.472661	0.410276
C32	C	-0.498628	-0.980967	0.398572
C33	C	-0.577110	-0.977721	0.401602
C34	C	-0.610355	-1.023116	0.359802
C35	C	-0.684097	-1.020067	0.362657
C36	C	-0.724593	-0.971619	0.407307
C37	C	-0.691343	-0.926222	0.449111
C38	C	-0.617602	-0.929275	0.446260
C39	C	-0.945524	-0.957461	0.420472
C40	C	-1.019270	-0.954410	0.423319
C41	C	-1.012019	-1.048256	0.336865
C42	C	-0.938277	-1.051302	0.334015
C43	C	-0.905033	-1.005907	0.375821
N44	N	-0.799970	-0.968500	0.410224
N45	N	-0.829658	-1.009030	0.372908
C46	C	-0.130999	-0.996487	0.384516
C47	C	-0.052515	-0.999805	0.381519
C48	C	-0.322808	-0.981054	0.575122
C49	C	-0.326063	-0.977795	0.653350
C50	C	-0.308111	-0.172283	0.398673
C51	C	-0.305092	-0.250515	0.401694
C52	C	-0.307512	-0.996364	0.208691
C53	C	-0.304053	-0.999769	0.130461
C54	C	-0.280707	-1.023181	0.690126
C55	C	-0.283762	-1.020110	0.763629
C56	C	-0.332177	-0.971656	0.800354
C57	C	-0.377535	-0.926265	0.763573
C58	C	-0.374476	-0.929333	0.690071
C59	C	-0.346352	-0.957446	1.020178
C60	C	-0.349409	-0.954382	1.093685
C61	C	-0.255635	-1.048227	1.093736
C62	C	-0.252583	-1.051294	1.020233
C63	C	-0.297938	-1.005900	0.983458
N64	N	-0.335303	-0.968517	0.875486
N65	N	-0.294808	-1.009036	0.908327
H66	H	-0.409034	-0.587371	0.297337
H67	H	-0.383228	-0.257295	0.323292
H68	H	-0.905307	-1.090752	0.297657
H69	H	-0.213160	-1.090752	0.990336
H70	H	-0.378066	-0.390643	0.328439
C71	C	-1.048585	-1.098190	0.290885
H72	H	-1.013906	-1.127478	0.263881
H73	H	-1.077257	-1.126523	0.320131
H74	H	-1.077145	-1.071374	0.260262
H75	H	-0.918463	-0.920497	0.454512
H76	H	-0.403883	-0.720730	0.302491
H77	H	-0.711162	-1.057032	0.328619
H78	H	-0.577388	-1.062565	0.323440
C79	C	-1.063814	-0.901120	0.472442
H80	H	-1.033455	-0.874527	0.496939
H81	H	-1.092678	-0.870404	0.445422
H82	H	-1.092785	-0.925562	0.505282
H83	H	-0.724320	-0.886778	0.485470
H84	H	-0.590535	-0.892311	0.480299
H85	H	-0.241284	-1.062640	0.660230
C86	C	-0.233874	-1.070039	0.804080
H87	H	-0.204608	-1.099342	0.771681
H88	H	-0.205333	-1.043223	0.830531
H89	H	-0.260906	-1.098367	0.834977
C90	C	-0.205744	-1.098150	1.134189
H91	H	-0.214494	-1.089382	1.183224
H92	H	-0.213756	-1.145506	1.124378
H93	H	-0.158194	-1.090351	1.119930
C94	C	-0.208520	-0.401256	0.498567
H95	H	-0.184033	-0.368855	0.523132
H96	H	-0.235739	-0.427525	0.531333
H97	H	-0.175485	-0.432338	0.471614
H98	H	-0.252248	-0.587474	0.454673
C99	C	-0.402666	-0.901078	1.134082
H100	H	-0.429236	-0.874479	1.101653
H101	H	-0.433591	-0.925505	1.164976
H102	H	-0.378021	-0.870359	1.160532
H103	H	-0.383293	-0.920493	0.990245
C104	C	-0.430792	-0.872965	0.803966
H105	H	-0.457362	-0.846370	0.771534
H106	H	-0.461717	-0.897391	0.834860
H107	H	-0.406150	-0.842241	0.830414
C108	C	-0.234342	-0.731332	0.472623
H109	H	-0.209856	-0.698930	0.497186
H110	H	-0.261563	-0.757600	0.505389
H111	H	-0.201305	-0.762416	0.445674
C112	C	-0.214489	-0.246897	0.492605
H113	H	-0.222568	-0.197852	0.484498
H114	H	-0.226393	-0.256545	0.540741
H115	H	-0.166138	-0.261366	0.481023
C116	C	-0.424384	-0.879425	0.649619
H117	H	-0.453666	-0.850136	0.682018
H118	H	-0.397373	-0.851092	0.618714
H119	H	-0.452919	-0.906263	0.623177
