data_functionalizedCrystal
_audit_creation_method	'MofGen! by Chris Wilmer'
_symmetry_space_group_name_H-M	'P1'
_symmetry_Int_Tables_number	1
_symmetry_cell_setting	triclinic
loop_
_symmetry_equiv_pos_as_xyz
  x,y,z
_cell_length_a	14.908571
_cell_length_b	15.299816
_cell_length_c	14.908308
_cell_angle_alpha	76.545456
_cell_angle_beta	89.824947
_cell_angle_gamma	77.679493
loop_
_atom_site_label
_atom_site_type_symbol
_atom_site_fract_x
_atom_site_fract_y
_atom_site_fract_z
Zn1	Zn	1.423314	-0.480234	0.675272
Zn2	Zn	1.455541	-0.625789	0.551491
Zn3	Zn	1.278757	-0.462558	0.513043
Zn4	Zn	1.296391	-0.624695	0.692943
O5	O	1.363501	-0.548319	0.608187
O6	O	1.554691	-0.507396	0.667548
O7	O	1.438197	-0.597196	0.419299
O8	O	1.277066	-0.336133	0.511077
O9	O	1.578368	-0.614335	0.576606
O10	O	1.383271	-0.349119	0.630266
O11	O	1.308316	-0.477271	0.391051
O12	O	1.153994	-0.476211	0.528211
O13	O	1.307120	-0.612472	0.817691
O14	O	1.166950	-0.595333	0.660383
O15	O	1.400370	-0.506336	0.804708
O16	O	1.455296	-0.754414	0.593741
O17	O	1.338369	-0.753610	0.697665
C18	C	1.127516	-0.533736	0.592043
C19	C	1.026563	-0.527521	0.585163
C20	C	0.850438	-0.640057	0.709741
C21	C	0.755584	-0.634220	0.703279
C22	C	0.741999	-0.510007	0.565783
C23	C	0.836853	-0.515844	0.572244
C24	C	0.891070	-0.580872	0.644225
C25	C	0.985926	-0.586712	0.650682
C26	C	0.972338	-0.462495	0.513190
C27	C	0.877485	-0.456658	0.506728
C28	C	1.402267	-0.787403	0.651814
C29	C	1.418933	-0.889692	0.670514
C30	C	1.244967	-1.151286	0.474886
C31	C	1.229304	-1.055181	0.457319
C32	C	1.276710	-1.013804	0.510616
C33	C	1.339782	-1.068541	0.581484
C34	C	1.355441	-1.164656	0.599058
C35	C	1.387184	-1.027173	0.634787
C36	C	1.450255	-1.081911	0.705655
C37	C	1.465912	-1.178016	0.723226
C38	C	1.418506	-1.219393	0.669929
C39	C	1.371524	-0.931059	0.617213
C40	C	1.481998	-0.944429	0.741385
C41	C	1.497661	-1.040534	0.758952
C42	C	1.600407	-0.562959	0.624395
C43	C	1.701362	-0.569198	0.631302
C44	C	1.352117	-0.561254	0.845075
C45	C	1.347266	-0.566766	0.946022
C46	C	1.324607	-0.308303	0.564412
C47	C	1.308033	-0.206023	0.545757
C48	C	1.374882	-0.535371	0.372213
C49	C	1.379866	-0.529611	0.271231
C50	C	1.435245	-0.466583	1.122191
C51	C	1.430689	-0.471759	1.217040
C52	C	1.333594	-0.582288	1.230568
C53	C	1.338150	-0.577112	1.135719
C54	C	1.388978	-0.519259	1.081534
C55	C	1.393538	-0.514088	0.986685
C56	C	1.296438	-0.624612	1.000214
C57	C	1.291883	-0.629788	1.095062
H58	H	0.722506	-0.682413	0.756630
O59	O	1.484614	-0.410471	1.069426
C60	C	1.534626	-0.353481	0.917302
C61	C	1.478698	-0.417080	0.976952
H62	H	1.529846	-0.358789	0.842521
H63	H	1.609611	-0.375187	0.943841
H64	H	1.505770	-0.279325	0.921379
H65	H	1.507474	-0.491254	0.972901
H66	H	1.403719	-0.395297	0.950395
H67	H	1.177951	-1.010617	0.399620
O68	O	1.528006	-0.904097	0.793049
C69	C	1.552798	-0.761957	0.821042
C70	C	1.500657	-0.807520	0.762452
H71	H	1.530692	-0.683867	0.796340
H72	H	1.629891	-0.784382	0.813597
H73	H	1.536365	-0.783900	0.896620
H74	H	1.517014	-0.785598	0.686853
H75	H	1.423578	-0.785095	0.769977
H76	H	1.320171	-0.886500	0.559512
O77	O	0.824687	-0.393571	0.436848
C78	C	0.672529	-0.329482	0.365995
C79	C	0.732215	-0.400986	0.445169
H80	H	0.597751	-0.335440	0.372707
H81	H	0.697215	-0.342672	0.296909
H82	H	0.678435	-0.257345	0.369791
H83	H	0.726336	-0.473152	0.441461
H84	H	0.707513	-0.387716	0.514222
O85	O	1.284356	-0.638577	1.283281
C86	C	1.287094	-0.767839	1.412256
C87	C	1.342974	-0.704180	1.352618
H88	H	1.334459	-0.820882	1.468341
H89	H	1.254823	-0.804674	1.366969
H90	H	1.230608	-0.725038	1.445649
H91	H	1.399504	-0.746913	1.319214
H92	H	1.375179	-0.667341	1.397949
H93	H	1.434927	-0.466982	0.942569
H94	H	1.468362	-0.428862	1.250138
O95	O	1.011949	-0.405042	0.449642
C96	C	1.152065	-0.359030	0.398616
C97	C	1.107320	-0.424130	0.470658
H98	H	1.229182	-0.374453	0.415571
H99	H	1.120678	-0.284565	0.399872
H100	H	1.139460	-0.369921	0.327022
H101	H	1.119910	-0.413321	0.542287
H102	H	1.138712	-0.498572	0.469321
H103	H	1.250498	-0.676889	1.139192
O104	O	1.251513	-0.675693	0.960566
C105	C	1.215555	-0.716759	0.820456
C106	C	1.266452	-0.658842	0.865233
H107	H	1.227631	-0.703170	0.743377
H108	H	1.138784	-0.697092	0.831076
H109	H	1.242626	-0.792952	0.853788
H110	H	1.239458	-0.582633	0.831931
H111	H	1.343217	-0.678586	0.854622
H112	H	1.030068	-0.639663	0.709291
O113	O	1.527241	-1.231053	0.792073
C114	C	1.635136	-1.234168	0.913403
C115	C	1.565720	-1.173997	0.835452
H116	H	1.666252	-1.188063	0.948510
H117	H	1.692041	-1.279775	0.883251
H118	H	1.598451	-1.279222	0.966202
H119	H	1.602324	-1.128888	0.782626
H120	H	1.508820	-1.128451	0.865671
H121	H	1.549014	-1.085114	0.816654
O122	O	1.261414	-0.920452	0.493690
C123	C	1.211420	-0.785824	0.553935
C124	C	1.228681	-0.891552	0.573227
H125	H	1.184971	-0.762427	0.618234
H126	H	1.158160	-0.753757	0.494170
H127	H	1.278421	-0.763018	0.535130
H128	H	1.161730	-0.914440	0.592072
H129	H	1.281980	-0.923557	0.632965
O130	O	0.902970	-0.703249	0.779737
C131	C	0.906447	-0.825880	0.915396
C132	C	0.846847	-0.754343	0.836183
H133	H	0.861100	-0.867222	0.961043
H134	H	0.941716	-0.789081	0.958349
H135	H	0.960670	-0.874341	0.885393
H136	H	0.792576	-0.705861	0.866107
H137	H	0.811645	-0.791202	0.793242
H138	H	0.697839	-0.457059	0.507184
O139	O	1.198813	-1.191330	0.423062
C140	C	1.087623	-1.167943	0.298018
C141	C	1.139821	-1.122473	0.356656
H142	H	1.039930	-1.112293	0.244302
H143	H	1.045370	-1.212269	0.344612
H144	H	1.138985	-1.212940	0.261689
H145	H	1.088524	-1.077432	0.392994
H146	H	1.182088	-1.078202	0.310016
H147	H	1.431259	-1.297649	0.684225
