data_functionalizedCrystal
_audit_creation_method	'MofGen! by Chris Wilmer'
_symmetry_space_group_name_H-M	'P1'
_symmetry_Int_Tables_number	1
_symmetry_cell_setting	triclinic
loop_
_symmetry_equiv_pos_as_xyz
  x,y,z
_cell_length_a	19.121063
_cell_length_b	16.625548
_cell_length_c	19.120904
_cell_angle_alpha	87.578974
_cell_angle_beta	94.741613
_cell_angle_gamma	87.531074
loop_
_atom_site_label
_atom_site_type_symbol
_atom_site_fract_x
_atom_site_fract_y
_atom_site_fract_z
Zn1	Zn	-0.297115	-1.197998	-0.409803
Zn2	Zn	0.202885	-0.697998	0.090197
Zn3	Zn	-0.409762	-1.197899	-0.297153
Zn4	Zn	0.090238	-0.697899	0.202847
Zn5	Zn	-0.292115	-1.069176	-0.292152
Zn6	Zn	0.207885	-0.569176	0.207848
Zn7	Zn	-0.414741	-1.057114	-0.414770
Zn8	Zn	0.085259	-0.557114	0.085230
O9	O	-0.353433	-1.130547	-0.353470
O10	O	0.146567	-0.630547	0.146530
O11	O	-0.312066	-1.310816	-0.394874
O12	O	0.187934	-0.810816	0.105126
O13	O	-0.389979	-1.185830	-0.198030
O14	O	0.110021	-0.685830	0.301970
O15	O	-0.194315	-1.091355	-0.303587
O16	O	0.305685	-0.591355	0.196413
O17	O	-0.394827	-1.310743	-0.312111
O18	O	0.105173	-0.810743	0.187889
O19	O	-0.197989	-1.186000	-0.390024
O20	O	0.302011	-0.686000	0.109976
O21	O	-0.303545	-1.091258	-0.194355
O22	O	0.196455	-0.591258	0.305645
O23	O	-0.308373	-0.954745	-0.308403
O24	O	0.191627	-0.454745	0.191597
O25	O	-0.403314	-1.070797	-0.512571
O26	O	0.096686	-0.570797	-0.012571
O27	O	-0.398466	-0.945883	-0.398490
O28	O	0.101534	-0.445883	0.101510
O29	O	-0.316894	-1.174304	-0.508922
O30	O	0.183106	-0.674304	-0.008922
O31	O	-0.508885	-1.174133	-0.316928
O32	O	-0.008885	-0.674133	0.183072
O33	O	-0.512543	-1.070700	-0.403340
O34	O	-0.012543	-0.570700	0.096660
C35	C	-0.353418	-0.921058	-0.353444
C36	C	0.146582	-0.421058	0.146556
C37	C	-0.353429	-0.831436	-0.353450
C38	C	0.146571	-0.331436	0.146550
C39	C	-0.536245	-1.121118	-0.361231
C40	C	-0.036245	-0.621118	0.138769
C41	C	-0.614454	-1.117157	-0.364575
C42	C	-0.114454	-0.617157	0.135425
C43	C	-0.353429	-0.503259	-0.353471
C44	C	0.146571	-0.003259	0.146529
C45	C	-0.353427	-0.594568	-0.353463
C46	C	0.146573	-0.094568	0.146537
C47	C	-0.353429	-0.667345	-0.353460
C48	C	0.146571	-0.167345	0.146540
C49	C	-0.353427	-0.758660	-0.353453
C50	C	0.146573	-0.258660	0.146547
C51	C	-0.649270	-1.169186	-0.321193
C52	C	-0.149270	-0.669186	0.178807
C53	C	-0.722756	-1.165466	-0.324342
C54	C	-0.222756	-0.665466	0.175658
C55	C	-0.761424	-1.109711	-0.370870
C56	C	-0.261424	-0.609711	0.129130
C57	C	-0.726603	-1.057679	-0.414256
C58	C	-0.226603	-0.557679	0.085744
C59	C	-0.653118	-1.061404	-0.411111
C60	C	-0.153118	-0.561404	0.088889
C61	C	-0.983395	-1.095770	-0.382621
C62	C	-0.483395	-0.595770	0.117379
C63	C	-1.056884	-1.092047	-0.385762
C64	C	-0.556884	-0.592047	0.114238
C65	C	-1.053032	-1.199835	-0.295847
C66	C	-0.553032	-0.699835	0.204153
C67	C	-0.979547	-1.203552	-0.292703
C68	C	-0.479547	-0.703552	0.207297
C69	C	-0.944732	-1.151523	-0.336092
C70	C	-0.444732	-0.651523	0.163908
C71	C	-0.836538	-1.105904	-0.374088
C72	C	-0.336538	-0.605904	0.125912
C73	C	-0.869619	-1.155334	-0.332877
C74	C	-0.369619	-0.655334	0.167123
C75	C	-0.169908	-1.140034	-0.345693
C76	C	0.330092	-0.640034	0.154307
C77	C	-0.091700	-1.144076	-0.342380
C78	C	0.408300	-0.644076	0.157620
C79	C	-0.361218	-1.121216	-0.536990
C80	C	0.138782	-0.621216	-0.036990
C81	C	-0.364535	-1.117239	-0.615196
C82	C	0.135465	-0.617239	-0.115196
C83	C	-0.353444	-0.340854	-0.353489
C84	C	0.146556	0.159146	0.146511
C85	C	-0.353436	-0.430476	-0.353479
C86	C	0.146564	0.069524	0.146521
C87	C	-0.321101	-1.169259	-0.650038
C88	C	0.178899	-0.669259	-0.150038
C89	C	-0.324215	-1.165513	-0.723520
C90	C	0.175785	-0.665513	-0.223520
C91	C	-0.370767	-1.109751	-0.762159
C92	C	0.129233	-0.609751	-0.262159
C93	C	-0.414203	-1.057726	-0.727312
C94	C	0.085797	-0.557726	-0.227312
C95	C	-0.411084	-1.061468	-0.653831
C96	C	0.088916	-0.561468	-0.153831
C97	C	-0.382430	-1.095751	-0.984119
C98	C	0.117570	-0.595751	-0.484119
C99	C	-0.385546	-1.092014	-1.057605
C100	C	0.114454	-0.592014	-0.557605
C101	C	-0.295558	-1.199801	-1.053808
C102	C	0.204442	-0.699801	-0.553808
C103	C	-0.292447	-1.203542	-0.980326
C104	C	0.207553	-0.703542	-0.480326
C105	C	-0.335879	-1.151514	-0.945485
C106	C	0.164121	-0.651514	-0.445485
C107	C	-0.373953	-1.105922	-0.837270
C108	C	0.126047	-0.605922	-0.337270
C109	C	-0.332689	-1.155339	-0.870376
C110	C	0.167311	-0.655339	-0.370376
C111	C	-0.345628	-1.139891	-0.170661
C112	C	0.154372	-0.639891	0.329339
C113	C	-0.342113	-1.144033	-0.092447
C114	C	0.157887	-0.644033	0.407553
H115	H	-0.617791	-1.214585	-0.283301
H116	H	-0.117791	-0.714585	0.216699
Br117	Br	-0.269504	-1.231004	-0.817936
Br118	Br	0.230496	-0.731004	-0.317936
H119	H	-0.868030	-1.060507	-0.411970
H120	H	-0.368030	-0.560507	0.088030
Br121	Br	-0.257926	-1.244946	-0.597606
Br122	Br	0.242074	-0.744946	-0.097606
Br123	Br	-0.236615	-1.270405	-1.101096
Br124	Br	0.263385	-0.770405	-0.601096
Br125	Br	-1.100284	-1.270446	-0.236968
Br126	Br	-0.600284	-0.770446	0.263032
Br127	Br	-1.109362	-1.016361	-0.448899
Br128	Br	-0.609362	-0.516361	0.051101
Br129	Br	-0.441374	-1.025139	-0.936844
Br130	Br	0.058626	-0.525139	-0.436844
H131	H	-0.288849	-1.207875	-0.751885
H132	H	0.211151	-0.707875	-0.251885
Br133	Br	-0.779080	-0.982017	-0.477409
Br134	Br	-0.279080	-0.482017	0.022591
H135	H	-0.955055	-1.053404	-0.417949
H136	H	-0.455055	-0.553404	0.082051
Br137	Br	-0.477377	-0.982042	-0.779749
Br138	Br	0.022623	-0.482042	-0.279749
H139	H	-0.624772	-1.019037	-0.446438
H140	H	-0.124772	-0.519037	0.053562
H141	H	-0.838134	-1.200733	-0.294996
H142	H	-0.338134	-0.700733	0.205004
Br143	Br	-0.770004	-1.236085	-0.265467
Br144	Br	-0.270004	-0.736085	0.234533
Br145	Br	-0.229269	-1.279224	-0.927893
Br146	Br	0.270731	-0.779224	-0.427893
Br147	Br	-0.448726	-1.016329	-1.110044
Br148	Br	0.051274	-0.516329	-0.610044
Br149	Br	-0.470028	-0.990862	-0.606543
Br150	Br	0.029972	-0.490862	-0.106543
H151	H	-0.948064	-1.248952	-0.254816
H152	H	-0.448064	-0.748952	0.245184
H153	H	-0.411859	-1.060524	-0.868738
H154	H	0.088141	-0.560524	-0.368738
