data_functionalizedCrystal
_audit_creation_method	'MofGen! by Chris Wilmer'
_symmetry_space_group_name_H-M	'P1'
_symmetry_Int_Tables_number	1
_symmetry_cell_setting	triclinic
loop_
_symmetry_equiv_pos_as_xyz
  x,y,z
_cell_length_a	6.817900
_cell_length_b	17.982959
_cell_length_c	17.982968
_cell_angle_alpha	95.926238
_cell_angle_beta	102.451960
_cell_angle_gamma	102.451857
loop_
_atom_site_label
_atom_site_type_symbol
_atom_site_fract_x
_atom_site_fract_y
_atom_site_fract_z
V1	V	-4.009936	-0.106127	-0.237869
O2	O	-4.003034	0.004365	-0.233013
O3	O	-3.956505	-0.209726	-0.236557
O4	O	-3.956507	-0.104817	-0.341468
O5	O	-4.003032	-0.101270	-0.127376
V6	V	-4.494867	-0.092873	-0.224615
O7	O	-4.268105	-0.135201	-0.266943
O8	O	-4.686896	-0.063799	-0.195541
O9	O	-4.325092	0.010726	-0.225927
O10	O	-4.619167	-0.203366	-0.229470
O11	O	-4.619168	-0.097730	-0.335108
O12	O	-4.325090	-0.094183	-0.121016
C13	C	-3.800445	-0.234971	-0.232886
C14	C	-3.838012	-0.319667	-0.232503
C15	C	-3.800446	-0.101148	-0.366709
C16	C	-3.838012	-0.100762	-0.451404
C17	C	-4.037393	-0.363349	-0.236136
C18	C	-4.072682	-0.442930	-0.235781
C19	C	-3.908585	-0.478826	-0.231789
C20	C	-3.709188	-0.435138	-0.228158
C21	C	-3.673905	-0.355560	-0.228518
C22	C	-3.851479	-0.756070	-0.226707
C23	C	-3.886778	-0.835654	-0.226345
C24	C	-4.250256	-0.843439	-0.233970
C25	C	-4.214973	-0.763861	-0.234330
C26	C	-4.015583	-0.720181	-0.230704
C27	C	-3.977322	-0.633891	-0.231090
C28	C	-3.946841	-0.565114	-0.231397
C29	C	-4.037396	-0.104399	-0.495087
C30	C	-4.072681	-0.104036	-0.574666
C31	C	-3.908583	-0.100042	-0.610563
C32	C	-3.709182	-0.096403	-0.566874
C33	C	-3.673896	-0.096760	-0.487295
C34	C	-3.851479	-0.094960	-0.887806
C35	C	-3.886782	-0.094605	-0.967391
C36	C	-4.250264	-0.102236	-0.975178
C37	C	-4.214978	-0.102593	-0.895599
C38	C	-4.015580	-0.098950	-0.851916
C39	C	-3.977321	-0.099342	-0.765627
C40	C	-3.946842	-0.099655	-0.696851
C41	C	-4.144494	0.035967	-0.229596
C42	C	-4.086164	0.120662	-0.229983
C43	C	-4.144493	-0.097854	-0.095770
C44	C	-4.086166	-0.098236	-0.011075
H45	H	-4.171022	-0.334127	-0.239380
H46	H	-3.575570	-0.093146	-0.596106
H47	H	-3.689136	-0.092020	-0.852254
N48	N	-3.532185	-0.473849	-0.223840
H49	H	-3.584783	-0.530889	-0.224155
H50	H	-3.422003	-0.450687	-0.174761
N51	N	-3.458851	-0.308443	-0.224593
H52	H	-3.461399	-0.252584	-0.225430
H53	H	-3.410331	-0.328196	-0.270338
N54	N	-4.214380	-0.108707	-0.456367
H55	H	-4.324653	-0.157783	-0.479460
H56	H	-4.275134	-0.062805	-0.464386
N57	N	-4.465336	-0.106162	-1.022292
H58	H	-4.462799	-0.105327	-1.078152
H59	H	-4.513867	-0.060420	-1.002540
H60	H	-4.348609	-0.105850	-0.866377
N61	N	-3.709751	-0.090294	-1.006094
H62	H	-3.691616	-0.042507	-1.031401
H63	H	-3.741056	-0.137484	-1.046437
N64	N	-3.458841	-0.092839	-0.440182
H65	H	-3.460760	-0.140286	-0.414528
H66	H	-3.411555	-0.045314	-0.399494
H67	H	-4.235035	-0.478493	-0.238741
N68	N	-4.287722	-0.107944	-0.621780
H69	H	-4.386322	-0.110529	-0.586964
H70	H	-4.334968	-0.155430	-0.662515
H71	H	-4.348600	-0.734638	-0.237577
H72	H	-4.412613	-0.879014	-0.236924
H73	H	-3.753141	-0.864879	-0.223099
H74	H	-3.689127	-0.720514	-0.223750
