data_functionalizedCrystal
_audit_creation_method	'MofGen! by Chris Wilmer'
_symmetry_space_group_name_H-M	'P1'
_symmetry_Int_Tables_number	1
_symmetry_cell_setting	triclinic
loop_
_symmetry_equiv_pos_as_xyz
  x,y,z
_cell_length_a	14.044220
_cell_length_b	22.610064
_cell_length_c	14.044220
_cell_angle_alpha	89.996475
_cell_angle_beta	93.188878
_cell_angle_gamma	90.004031
loop_
_atom_site_label
_atom_site_type_symbol
_atom_site_fract_x
_atom_site_fract_y
_atom_site_fract_z
O1	O	1.277173	0.049124	0.230155
O2	O	1.000502	0.049139	0.221849
O3	O	1.134685	0.049126	0.087667
O4	O	1.142991	0.049137	0.364338
O5	O	1.134661	-0.049243	0.087686
O6	O	1.000478	-0.049230	0.221869
O7	O	1.277149	-0.049245	0.230174
Zn8	Zn	1.138810	-0.064856	0.226025
Zn9	Zn	1.138842	0.064750	0.225999
O10	O	1.142966	-0.049232	0.364357
C11	C	0.964868	-0.000044	0.218223
C12	C	0.858725	-0.000038	0.207379
N13	N	1.138795	-0.153308	0.226042
C14	C	0.664388	-0.000051	0.187553
C15	C	0.613258	-0.000050	0.264467
C16	C	0.505122	-0.000057	0.253435
C17	C	0.772534	-0.000044	0.198583
C18	C	1.198262	-0.561956	0.166593
C19	C	1.198266	-0.623876	0.166587
O20	O	1.248787	-0.655899	0.116052
N21	N	1.138839	-0.654846	0.225979
C22	C	1.079397	-0.623893	0.285375
O23	O	1.028850	-0.655921	0.335892
C24	C	1.079389	-0.561974	0.285376
C25	C	1.138826	-0.531007	0.225987
C26	C	1.257694	-0.530989	0.107208
C27	C	1.257690	-0.469073	0.107216
C28	C	1.198255	-0.438124	0.166609
C29	C	1.138823	-0.469091	0.225995
C30	C	1.019943	-0.531022	0.344766
C31	C	1.019939	-0.469099	0.344762
C32	C	1.079376	-0.438132	0.285372
C33	C	1.079385	-0.376227	0.285396
N34	N	1.138811	-0.345257	0.226004
C35	C	1.198247	-0.376206	0.166610
C36	C	1.079418	-0.753926	0.285368
C37	C	1.079431	-0.815844	0.285373
C38	C	1.198299	-0.815823	0.166582
C39	C	1.198290	-0.753904	0.166583
C40	C	1.138845	-0.722956	0.225975
C41	C	1.198236	-0.246178	0.166632
C42	C	1.198230	-0.184257	0.166648
C43	C	1.079360	-0.184284	0.285434
C44	C	1.079368	-0.246199	0.285422
C45	C	1.138810	-0.277145	0.226013
O46	O	1.028887	-0.344164	0.335902
O47	O	1.248776	-0.344170	0.116093
C48	C	1.312783	-0.000061	0.233800
C49	C	1.418926	-0.000063	0.244645
C50	C	1.131037	-0.000059	0.052054
C51	C	1.120193	-0.000059	-0.054088
N52	N	1.138863	0.153202	0.225975
C53	C	1.100366	-0.000049	-0.248426
C54	C	1.177281	-0.000052	-0.299556
C55	C	1.166249	-0.000046	-0.407692
C56	C	1.111397	-0.000055	-0.140280
C57	C	1.146614	-0.000046	0.399969
C58	C	1.157459	-0.000042	0.506112
H59	H	0.650697	-0.000044	0.338600
O60	O	0.619581	-0.000027	0.099186
C61	C	0.520023	-0.000046	0.107707
H62	H	0.503064	0.018575	0.180269
H63	H	0.484597	0.028513	0.048956
H64	H	0.491903	-0.047240	0.100786
O65	O	1.255857	-0.154240	0.108760
C66	C	1.232300	-0.169431	0.012966
H67	H	1.155807	-0.186431	0.006062
H68	H	1.239242	-0.128741	-0.034084
H69	H	1.282799	-0.205403	-0.010543
H70	H	1.251414	-0.000016	-0.262117
O71	O	1.256030	-0.276297	0.109059
C72	C	1.319274	-0.312101	0.165196
H73	H	1.287561	-0.321395	0.236661
H74	H	1.331026	-0.355633	0.126618
H75	H	1.390372	-0.288227	0.177702
O76	O	1.315448	-0.439088	0.049427
C77	C	1.367916	-0.479692	-0.002974
H78	H	1.328681	-0.523831	-0.007373
H79	H	1.376032	-0.461805	-0.077983
H80	H	1.441459	-0.486274	0.034058
O81	O	1.315487	-0.561112	0.049645
C82	C	1.378732	-0.596910	0.105788
H83	H	1.347018	-0.606202	0.177253
H84	H	1.390491	-0.640444	0.067217
H85	H	1.449828	-0.573033	0.118293
O86	O	1.256050	-0.723917	0.108799
C87	C	1.308527	-0.764518	0.056402
H88	H	1.269297	-0.808659	0.051998
H89	H	1.316649	-0.746629	-0.018606
H90	H	1.382068	-0.771098	0.093441
O91	O	1.255941	-0.845984	0.108907
C92	C	1.243211	-0.907274	0.121663
H93	H	1.170325	-0.915732	0.150889
H94	H	1.247715	-0.930805	0.050266
H95	H	1.301296	-0.924846	0.174144
O96	O	1.011910	0.000059	-0.293039
C97	C	0.962022	0.050997	-0.266289
H98	H	1.015115	0.086605	-0.241142
H99	H	0.916411	0.068099	-0.330121
H100	H	0.914199	0.039476	-0.205975
H101	H	1.031043	-0.841053	0.333744
H102	H	1.031014	-0.728732	0.333740
O103	O	0.962113	-0.561002	0.402484
C104	C	0.909674	-0.520396	0.454911
H105	H	0.905299	-0.476258	0.415670
H106	H	0.834657	-0.538284	0.462980
H107	H	0.946660	-0.513810	0.528476
O108	O	0.962328	-0.438972	0.402511
C109	C	1.018428	-0.403169	0.465788
H110	H	1.089921	-0.393882	0.434129
H111	H	0.979849	-0.359633	0.477506
H112	H	1.030877	-0.427039	0.536896
H113	H	1.030979	-0.271413	0.333793
O114	O	1.021652	-0.154122	0.343034
C115	C	1.034414	-0.092832	0.330311
H116	H	1.063694	-0.084375	0.257449
H117	H	0.963011	-0.069302	0.334763
H118	H	1.086855	-0.075258	0.388431
