data_functionalizedCrystal
_audit_creation_method	'MofGen! by Chris Wilmer'
_symmetry_space_group_name_H-M	'P1'
_symmetry_Int_Tables_number	1
_symmetry_cell_setting	triclinic
loop_
_symmetry_equiv_pos_as_xyz
  x,y,z
_cell_length_a	10.489741
_cell_length_b	15.186229
_cell_length_c	16.109301
_cell_angle_alpha	90.005167
_cell_angle_beta	95.999673
_cell_angle_gamma	89.999333
loop_
_atom_site_label
_atom_site_type_symbol
_atom_site_fract_x
_atom_site_fract_y
_atom_site_fract_z
O1	O	1.692350	-0.073177	-0.117298
O2	O	2.192350	0.426823	0.382702
O3	O	1.320995	-0.073191	-0.128308
O4	O	1.820995	0.426809	0.371692
O5	O	1.516874	-0.073175	-0.001835
O6	O	2.016874	0.426825	0.498165
O7	O	1.496471	-0.073194	-0.243771
O8	O	1.996471	0.426806	0.256229
O9	O	1.516861	0.073282	-0.001833
O10	O	2.016861	0.573282	0.498167
O11	O	1.320981	0.073266	-0.128306
O12	O	1.820981	0.573266	0.371694
O13	O	1.692337	0.073280	-0.117296
O14	O	2.192337	0.573280	0.382704
Zn15	Zn	1.506657	0.096526	-0.122801
Zn16	Zn	2.006657	0.596526	0.377199
Zn17	Zn	1.506674	-0.096438	-0.122803
Zn18	Zn	2.006674	0.403562	0.377197
O19	O	1.496458	0.073264	-0.243769
O20	O	1.996458	0.573264	0.256231
C21	C	1.273468	0.000036	-0.127475
C22	C	1.773468	0.500036	0.372525
C23	C	1.131875	0.000031	-0.124987
C24	C	1.631875	0.500031	0.375013
N25	N	1.506655	0.228219	-0.122798
N26	N	2.006655	0.728219	0.377202
N27	N	1.506687	-0.228130	-0.122799
N28	N	2.006687	0.271870	0.377201
C29	C	1.064902	0.000045	-0.044516
C30	C	1.564902	0.500045	0.455484
C31	C	0.972231	-0.072167	-0.082531
C32	C	1.472231	0.427833	0.417469
C33	C	0.972251	0.072228	-0.082548
C34	C	1.472251	0.572228	0.417452
C35	C	1.041068	-0.072241	-0.163035
C36	C	1.541068	0.427759	0.336965
C37	C	1.041099	0.072219	-0.163041
C38	C	1.541099	0.572219	0.336959
C39	C	0.948453	-0.000011	-0.201115
C40	C	1.448453	0.499989	0.298885
C41	C	1.739863	0.000051	-0.118128
C42	C	2.239863	0.500051	0.381872
C43	C	1.881456	0.000050	-0.120616
C44	C	2.381456	0.500050	0.379384
C45	C	1.516041	0.000054	0.029146
C46	C	2.016041	0.500054	0.529146
C47	C	1.513563	0.000055	0.121457
C48	C	2.013563	0.500055	0.621457
C49	C	1.593419	0.453949	-0.066815
C50	C	2.093419	0.953949	0.433185
C51	C	1.593423	0.546139	-0.066813
C52	C	2.093423	1.046139	0.433187
C53	C	1.419913	0.546133	-0.178784
C54	C	1.919913	1.046133	0.321216
C55	C	1.419904	0.453945	-0.178782
C56	C	1.919904	0.953945	0.321218
C57	C	1.506664	0.407856	-0.122798
C58	C	2.006664	0.907856	0.377202
C59	C	1.506677	0.592233	-0.122799
C60	C	2.006677	1.092233	0.377201
C61	C	1.506681	0.692189	-0.122797
C62	C	2.006681	1.192189	0.377203
C63	C	1.506659	0.307893	-0.122799
C64	C	2.006659	0.807893	0.377201
C65	C	1.497291	0.000033	-0.274750
C66	C	1.997291	0.500033	0.225250
C67	C	1.499769	0.000026	-0.367060
C68	C	1.999769	0.500026	0.132940
C69	C	1.624032	0.000045	0.343048
C70	C	2.124032	0.500045	0.843048
C71	C	1.621694	0.000038	0.429783
C72	C	2.121694	0.500038	0.929783
C73	C	1.389290	0.000033	0.411341
C74	C	1.889290	0.500033	0.911341
C75	C	1.391630	0.000034	0.324608
C76	C	1.891630	0.500034	0.824608
C77	C	1.509004	0.000045	0.290464
C78	C	2.009004	0.500045	0.790464
C79	C	1.504327	0.000036	0.463932
C80	C	2.004327	0.500036	0.963932
C81	C	1.501791	0.000028	0.557974
C82	C	2.001791	0.500028	1.057974
C83	C	1.511541	0.000051	0.196417
C84	C	2.011541	0.500051	0.696417
H85	H	0.941716	-0.133213	-0.048483
H86	H	1.441716	0.366787	0.451517
N87	N	1.081241	-0.153203	-0.208103
N88	N	1.581241	0.346797	0.291897
H89	H	1.177277	-0.152725	-0.209484
H90	H	1.677277	0.347275	0.290516
H91	H	1.055527	-0.207630	-0.177909
H92	H	1.555527	0.292370	0.322091
N93	N	1.687012	0.595850	-0.006440
N94	N	2.187012	1.095850	0.493560
H95	H	1.638309	0.634106	0.030690
H96	H	2.138309	1.134106	0.530690
H97	H	1.741945	0.552601	0.028962
H98	H	2.241945	1.052601	0.528962
N99	N	1.081586	0.153069	-0.208120
N100	N	1.581586	0.653069	0.291880
H101	H	1.037501	0.153631	-0.266938
H102	H	1.537501	0.653631	0.233062
H103	H	1.056855	0.207558	-0.177620
H104	H	1.556855	0.707558	0.322380
N105	N	1.326358	0.595848	-0.239174
N106	N	1.826358	1.095848	0.260826
H107	H	1.271397	0.552656	-0.274638
H108	H	1.771397	1.052656	0.225362
H109	H	1.269991	0.634108	-0.206991
H110	H	1.769991	1.134108	0.293009
H111	H	1.349251	0.416413	-0.224370
H112	H	1.849251	0.916413	0.275630
H113	H	1.719606	0.000052	0.315251
H114	H	2.219606	0.500052	0.815251
N115	N	1.745759	0.000039	0.486500
N116	N	2.245759	0.500039	0.986500
H117	H	1.820465	0.000046	0.451706
H118	H	2.320465	0.500046	0.951706
H119	H	1.749845	0.054331	0.522894
H120	H	2.249845	0.554331	1.022894
H121	H	1.293728	0.000026	0.439152
H122	H	1.793728	0.500026	0.939152
H123	H	1.297954	0.000031	0.281792
H124	H	1.797954	0.500031	0.781792
H125	H	0.898069	-0.000055	-0.267337
H126	H	1.398069	0.499945	0.232663
N127	N	1.131933	-0.000029	0.043125
N128	N	1.631933	0.499971	0.543125
H129	H	1.107076	-0.054623	0.073412
H130	H	1.607076	0.445377	0.573412
H131	H	1.227763	0.000562	0.040766
H132	H	1.727763	0.500562	0.540766
H133	H	0.941762	0.133278	-0.048484
H134	H	1.441762	0.633278	0.451516
H135	H	1.664063	0.416425	-0.021229
H136	H	2.164063	0.916425	0.478771
