data_functionalizedCrystal
_audit_creation_method	'MofGen! by Chris Wilmer'
_symmetry_space_group_name_H-M	'P1'
_symmetry_Int_Tables_number	1
_symmetry_cell_setting	triclinic
loop_
_symmetry_equiv_pos_as_xyz
  x,y,z
_cell_length_a	17.077404
_cell_length_b	25.639240
_cell_length_c	17.077396
_cell_angle_alpha	89.961743
_cell_angle_beta	89.981638
_cell_angle_gamma	90.030728
loop_
_atom_site_label
_atom_site_type_symbol
_atom_site_fract_x
_atom_site_fract_y
_atom_site_fract_z
Zn1	Zn	1.200001	-0.208179	-0.443765
Zn2	Zn	1.199885	-0.295617	-0.312477
Zn3	Zn	1.068733	-0.208194	-0.312516
Zn4	Zn	1.068678	-0.295582	-0.443703
O5	O	1.134324	-0.251893	-0.378115
O6	O	1.309832	-0.219786	-0.426360
O7	O	1.182462	-0.284041	-0.202635
O8	O	1.086217	-0.135027	-0.329969
O9	O	1.309747	-0.284026	-0.329902
O10	O	1.182659	-0.135016	-0.426397
O11	O	1.086105	-0.219811	-0.202664
O12	O	0.958878	-0.219778	-0.329909
O13	O	1.086124	-0.283967	-0.553559
O14	O	0.958838	-0.283982	-0.426291
O15	O	1.182606	-0.219753	-0.553604
O16	O	1.182409	-0.368777	-0.329842
O17	O	1.086012	-0.368752	-0.426254
C18	C	0.930376	-0.251878	-0.378098
C19	C	0.843126	-0.251884	-0.378109
C20	C	0.802181	-0.218494	-0.428411
C21	C	0.720201	-0.218498	-0.428414
C22	C	0.679167	-0.251894	-0.378120
C23	C	0.720118	-0.285286	-0.327812
C24	C	0.802097	-0.285280	-0.327805
C25	C	0.549248	-0.285298	-0.327832
C26	C	0.467263	-0.285305	-0.327840
C27	C	0.467352	-0.218516	-0.428441
C28	C	0.549331	-0.218509	-0.428434
C29	C	0.590276	-0.251902	-0.378127
C30	C	1.134213	-0.387736	-0.378054
C31	C	1.134238	-0.445850	-0.378054
C32	C	1.184566	-0.806168	-0.428416
C33	C	1.184590	-0.860773	-0.428432
O34	O	1.227249	-0.888972	-0.471189
N35	N	1.134433	-0.888132	-0.378191
C36	C	1.084244	-0.860884	-0.327937
O37	O	1.041584	-0.889169	-0.285205
C38	C	1.084218	-0.806281	-0.327925
C39	C	1.134383	-0.778924	-0.378164
C40	C	1.234727	-0.778812	-0.478651
C41	C	1.234705	-0.724211	-0.478634
C42	C	1.184522	-0.696967	-0.428382
C43	C	1.134361	-0.724324	-0.378147
C44	C	1.034026	-0.779034	-0.277675
C45	C	1.034003	-0.724427	-0.277669
C46	C	1.084169	-0.697071	-0.327907
C47	C	1.084156	-0.642479	-0.327877
N48	N	1.134312	-0.615120	-0.378118
C49	C	1.184495	-0.642364	-0.428371
C50	C	1.084303	-0.975555	-0.327966
C51	C	1.084333	-1.030157	-0.327972
C52	C	1.184677	-1.030042	-0.428469
C53	C	1.184651	-0.975439	-0.428458
C54	C	1.134460	-0.948196	-0.378206
C55	C	1.184445	-0.527699	-0.428330
C56	C	1.184421	-0.473094	-0.428306
C57	C	1.084074	-0.473214	-0.327813
C58	C	1.084101	-0.527814	-0.327833
C59	C	1.134289	-0.555056	-0.378099
O60	O	1.041516	-0.614245	-0.285145
O61	O	1.227141	-0.614072	-0.471102
C62	C	1.339068	-0.251908	-0.378134
C63	C	1.426318	-0.251915	-0.378141
C64	C	1.134372	-0.251855	-0.582860
C65	C	1.134392	-0.251838	-0.670110
C66	C	1.134457	-0.115520	-0.378194
C67	C	1.134513	-0.057406	-0.378228
C68	C	1.184632	-0.218399	-0.711125
C69	C	1.184641	-0.218381	-0.793105
C70	C	1.134414	-0.251806	-0.834069
C71	C	1.084168	-0.285247	-0.793048
C72	C	1.084156	-0.285262	-0.711069
C73	C	1.084200	-0.285216	-0.963918
C74	C	1.084214	-0.285202	-1.045903
C75	C	1.184686	-0.218335	-1.045955
C76	C	1.184673	-0.218350	-0.963976
C77	C	1.134428	-0.251792	-0.922960
C78	C	1.134322	-0.251894	-0.174168
C79	C	1.134454	-0.251763	-0.086918
H80	H	1.225274	-0.450822	-0.469216
C81	C	1.239908	-0.181596	-0.838218
C82	C	1.329139	-0.185874	-0.826959
C83	C	1.384407	-0.149085	-0.872070
C84	C	1.350444	-0.108019	-0.928440
C85	C	1.261208	-0.103739	-0.939702
C86	C	1.205941	-0.140528	-0.894591
H87	H	1.354284	-0.216276	-0.785229
H88	H	1.450465	-0.152254	-0.863733
H89	H	1.391356	-0.080785	-0.961834
H90	H	1.236063	-0.073337	-0.981432
H91	H	1.139883	-0.137359	-0.902928
C92	C	1.239876	-1.060016	-0.483755
C93	C	1.329115	-1.052469	-0.477434
C94	C	1.384311	-1.082444	-0.532715
C95	C	1.350269	-1.119966	-0.594318
C96	C	1.261026	-1.127515	-0.600642
C97	C	1.205829	-1.097540	-0.545360
H98	H	1.354320	-1.024691	-0.431829
H99	H	1.450376	-1.076856	-0.528034
H100	H	1.391128	-1.142156	-0.635241
H101	H	1.235821	-1.155293	-0.646246
H102	H	1.139765	-1.103128	-0.550042
H103	H	0.686702	-0.312476	-0.286858
C104	C	0.675153	-0.181779	-0.483758
C105	C	0.618798	-0.140705	-0.449886
C106	C	0.573746	-0.103989	-0.505236
C107	C	0.585049	-0.108348	-0.594458
C108	C	0.641405	-0.149424	-0.628334
C109	C	0.686457	-0.186140	-0.572985
H110	H	0.610429	-0.137476	-0.383835
H111	H	0.532027	-0.073582	-0.480158
H112	H	0.551699	-0.081169	-0.635431
H113	H	0.649774	-0.152653	-0.694386
H114	H	0.728176	-0.216547	-0.598063
C115	C	1.239955	-0.181548	-1.091067
C116	C	1.239971	-0.181526	-1.181241
C117	C	1.295241	-0.144743	-1.226357
C118	C	1.350496	-0.107980	-1.181300
C119	C	1.350483	-0.108000	-1.091122
C120	C	1.295212	-0.144784	-1.046005
H121	H	1.199066	-0.208742	-1.214600
H122	H	1.295251	-0.144728	-1.293114
H123	H	1.391411	-0.080750	-1.214698
H124	H	1.391388	-0.080785	-1.057763
H125	H	1.295203	-0.144798	-0.979249
C126	C	1.028991	-0.321987	-1.090965
C127	C	0.973740	-0.358783	-1.045854
C128	C	0.918533	-0.395579	-1.090917
C129	C	0.918576	-0.395579	-1.181091
C130	C	0.973829	-0.358782	-1.226207
C131	C	1.029037	-0.321986	-1.181144
H132	H	0.973706	-0.358784	-0.979098
H133	H	0.877630	-0.422818	-1.057519
H134	H	0.877708	-0.422817	-1.214449
H135	H	0.973863	-0.358781	-1.292963
H136	H	1.069939	-0.294747	-1.214543
H137	H	0.433856	-0.312500	-0.286886
H138	H	1.043258	-0.550089	-0.286919
H139	H	0.582738	-0.191318	-0.469393
C140	C	0.594291	-0.322030	-0.272496
C141	C	0.582987	-0.317691	-0.183272
C142	C	0.628031	-0.354424	-0.127941
C143	C	0.684379	-0.395495	-0.161834
C144	C	0.695686	-0.399834	-0.251062
C145	C	0.650642	-0.363102	-0.306393
H146	H	0.541273	-0.287287	-0.158178
H147	H	0.619661	-0.351211	-0.061888
H148	H	0.717724	-0.422686	-0.120875
H149	H	0.737400	-0.430239	-0.276156
H150	H	0.659012	-0.366315	-0.372446
C151	C	1.028939	-0.322010	-0.918806
C152	C	1.062918	-0.363071	-0.862437
C153	C	1.007664	-0.399871	-0.817327
C154	C	0.918432	-0.395608	-0.828587
C155	C	0.884448	-0.354545	-0.884958
C156	C	0.939702	-0.317746	-0.930068
H157	H	1.128977	-0.366228	-0.854100
H158	H	1.032822	-0.430268	-0.775597
H159	H	0.877530	-0.422849	-0.795194
H160	H	0.818389	-0.351389	-0.893295
H161	H	0.914544	-0.287349	-0.971798
H162	H	1.043270	-0.312460	-0.826407
C163	C	1.239656	-0.557660	-0.483617
C164	C	1.328891	-0.550100	-0.477280
C165	C	1.384105	-0.580061	-0.532562
C166	C	1.350084	-0.617581	-0.594180
C167	C	1.260844	-0.625142	-0.600519
C168	C	1.205630	-0.595181	-0.545238
H169	H	1.354080	-0.522324	-0.431664
H170	H	1.450167	-0.574464	-0.527868
H171	H	1.390957	-0.639759	-0.635102
H172	H	1.235656	-0.652917	-0.646135
H173	H	1.139569	-0.600778	-0.549931
C174	C	1.289939	-0.808774	-0.533932
C175	C	1.379173	-0.801207	-0.527593
C176	C	1.434394	-0.831163	-0.582872
C177	C	1.400382	-0.868686	-0.644491
C178	C	1.311143	-0.876255	-0.650832
C179	C	1.255922	-0.846298	-0.595553
H180	H	1.404355	-0.773428	-0.481977
H181	H	1.500454	-0.825560	-0.578178
H182	H	1.441260	-0.890862	-0.685412
H183	H	1.285961	-0.904033	-0.696448
H184	H	1.189862	-0.851901	-0.600248
H185	H	1.225577	-0.191135	-0.930625
C186	C	0.847315	-0.181755	-0.483735
C187	C	0.937488	-0.181745	-0.483732
C188	C	0.982619	-0.145003	-0.539055
C189	C	0.937576	-0.108271	-0.594381
C190	C	0.847397	-0.108280	-0.594386
C191	C	0.802267	-0.145022	-0.539063
H192	H	0.970836	-0.208938	-0.442775
H193	H	1.049375	-0.144997	-0.539051
H194	H	0.970984	-0.081072	-0.635334
H195	H	0.814049	-0.081087	-0.635343
H196	H	0.735510	-0.145028	-0.539067
H197	H	1.043237	-0.312486	-0.677676
H198	H	0.434010	-0.191325	-0.469401
C199	C	1.029155	-1.060245	-0.272703
C200	C	1.035608	-1.052780	-0.183471
C201	C	0.980423	-1.082865	-0.128204
C202	C	0.918786	-1.120415	-0.162169
C203	C	0.912331	-1.127882	-0.251406
C204	C	0.967515	-1.097797	-0.306673
H205	H	1.081237	-1.024981	-0.158324
H206	H	0.985202	-1.077337	-0.062145
H207	H	0.877935	-1.142686	-0.121257
H208	H	0.866701	-1.155681	-0.276554
H209	H	0.962736	-1.103325	-0.372733
H210	H	0.835434	-0.312469	-0.286844
H211	H	1.275552	-0.701941	-0.519545
H212	H	1.225499	-0.953168	-0.469367
H213	H	1.043434	-0.953376	-0.287038
H214	H	1.043217	-0.451023	-0.286895
H215	H	0.993176	-0.801298	-0.236765
H216	H	0.993129	-0.702248	-0.236749
H217	H	1.225535	-0.191182	-0.677778
