data_functionalizedCrystal
_audit_creation_method	'MofGen! by Chris Wilmer'
_symmetry_space_group_name_H-M	'P1'
_symmetry_Int_Tables_number	1
_symmetry_cell_setting	triclinic
loop_
_symmetry_equiv_pos_as_xyz
  x,y,z
_cell_length_a	14.971486
_cell_length_b	15.186229
_cell_length_c	14.971486
_cell_angle_alpha	89.996046
_cell_angle_beta	96.385871
_cell_angle_gamma	89.998401
loop_
_atom_site_label
_atom_site_type_symbol
_atom_site_fract_x
_atom_site_fract_y
_atom_site_fract_z
O1	O	1.186943	0.073128	-0.116562
O2	O	1.520277	0.406461	0.216772
O3	O	1.853610	0.739794	0.550105
O4	O	0.926543	0.073152	-0.130520
O5	O	1.259877	0.406485	0.202813
O6	O	1.593210	0.739818	0.536146
O7	O	1.063723	0.073133	0.006659
O8	O	1.397056	0.406466	0.339992
O9	O	1.730389	0.739800	0.673326
O10	O	1.049764	0.073147	-0.253741
O11	O	1.383097	0.406480	0.079592
O12	O	1.716431	0.739813	0.412926
O13	O	1.063713	-0.073324	0.006661
O14	O	1.397047	0.260009	0.339994
O15	O	1.730380	0.593342	0.673328
O16	O	0.926534	-0.073305	-0.130518
O17	O	1.259867	0.260028	0.202815
O18	O	1.593201	0.593361	0.536148
O19	O	1.186934	-0.073330	-0.116560
O20	O	1.520268	0.260004	0.216774
O21	O	1.853601	0.593337	0.550107
Zn22	Zn	1.056733	-0.096571	-0.123539
Zn23	Zn	1.390066	0.236763	0.209795
Zn24	Zn	1.723399	0.570096	0.543128
Zn25	Zn	1.056745	0.096393	-0.123541
Zn26	Zn	1.390078	0.429726	0.209792
Zn27	Zn	1.723411	0.763060	0.543125
O28	O	1.049755	-0.073311	-0.253739
O29	O	1.383088	0.260023	0.079594
O30	O	1.716421	0.593356	0.412928
C31	C	0.893214	-0.000074	-0.129895
C32	C	1.226547	0.333260	0.203438
C33	C	1.559881	0.666593	0.536772
C34	C	0.793917	-0.000065	-0.128024
C35	C	1.127250	0.333269	0.205309
C36	C	1.460583	0.666602	0.538642
N37	N	1.056731	-0.228263	-0.123536
N38	N	1.390064	0.105070	0.209797
N39	N	1.723398	0.438403	0.543130
C40	C	0.736692	-0.000062	-0.208614
C41	C	1.070025	0.333272	0.124720
C42	C	1.403358	0.666605	0.458053
C43	C	0.643392	-0.000075	-0.206850
C44	C	0.976725	0.333258	0.126483
C45	C	1.310059	0.666592	0.459816
C46	C	0.607320	-0.000085	-0.124497
C47	C	0.940653	0.333248	0.208836
C48	C	1.273986	0.666582	0.542169
C49	C	0.664552	-0.000091	-0.043902
C50	C	0.997886	0.333243	0.289431
C51	C	1.331219	0.666576	0.622765
C52	C	0.757850	-0.000084	-0.045666
C53	C	1.091183	0.333250	0.287667
C54	C	1.424517	0.666583	0.621001
C55	C	0.470090	-0.000103	-0.040231
C56	C	0.803423	0.333230	0.293103
C57	C	1.136757	0.666564	0.626436
C58	C	0.376786	-0.000108	-0.038466
C59	C	0.710119	0.333225	0.294867
C60	C	1.043453	0.666558	0.628200
C61	C	0.355632	-0.000094	-0.201415
C62	C	0.688965	0.333239	0.131918
C63	C	1.022299	0.666572	0.465251
C64	C	0.448930	-0.000087	-0.203179
C65	C	0.782263	0.333246	0.130154
C66	C	1.115596	0.666579	0.463487
C67	C	0.506156	-0.000091	-0.122584
C68	C	0.839489	0.333242	0.210750
C69	C	1.172822	0.666575	0.544083
C70	C	1.117495	-0.453995	-0.062814
C71	C	1.450828	-0.120661	0.270520
C72	C	1.784161	0.212672	0.603853
C73	C	1.117498	-0.546184	-0.062812
C74	C	1.450831	-0.212851	0.270522
C75	C	1.784164	0.120482	0.603855
C76	C	0.995983	-0.546177	-0.184262
C77	C	1.329317	-0.212843	0.149071
C78	C	1.662650	0.120490	0.482405
C79	C	0.995977	-0.453989	-0.184259
C80	C	1.329310	-0.120655	0.149074
C81	C	1.662644	0.212678	0.482408
C82	C	1.056738	-0.407900	-0.123536
C83	C	1.390071	-0.074567	0.209797
C84	C	1.723404	0.258767	0.543131
C85	C	1.056747	-0.592278	-0.123537
C86	C	1.390080	-0.258944	0.209797
C87	C	1.723413	0.074389	0.543130
C88	C	1.056749	-0.692234	-0.123535
C89	C	1.390083	-0.358900	0.209798
C90	C	1.723416	-0.025567	0.543132
C91	C	1.056734	-0.307938	-0.123536
C92	C	1.390067	0.025396	0.209797
C93	C	1.723401	0.358729	0.543130
C94	C	1.220263	-0.000102	-0.117185
C95	C	1.553597	0.333231	0.216149
C96	C	1.886930	0.666565	0.549482
C97	C	1.319561	-0.000105	-0.119056
C98	C	1.652894	0.333228	0.214278
C99	C	1.986227	0.666561	0.547611
C100	C	1.063094	-0.000095	0.039985
C101	C	1.396427	0.333238	0.373318
C102	C	1.729761	0.666571	0.706652
C103	C	1.061223	-0.000095	0.139282
C104	C	1.394556	0.333239	0.472615
C105	C	1.727890	0.666572	0.805949
N106	N	1.056754	0.228086	-0.123536
N107	N	1.390087	0.561419	0.209797
N108	N	1.723420	0.894752	0.543130
C109	C	1.050384	-0.000080	-0.287065
C110	C	1.383717	0.333253	0.046269
C111	C	1.717050	0.666586	0.379602
C112	C	1.052254	-0.000076	-0.386362
C113	C	1.385588	0.333258	-0.053028
C114	C	1.718921	0.666591	0.280305
C115	C	1.141812	-0.000103	0.196507
C116	C	1.475146	0.333231	0.529841
C117	C	1.808479	0.666564	0.863174
C118	C	1.140049	-0.000094	0.289807
C119	C	1.473383	0.333240	0.623140
C120	C	1.806716	0.666573	0.956473
C121	C	1.057696	-0.000083	0.325879
C122	C	1.391029	0.333251	0.659212
C123	C	1.724363	0.666584	0.992546
C124	C	0.977101	-0.000072	0.268646
C125	C	1.310434	0.333261	0.601980
C126	C	1.643767	0.666595	0.935313
C127	C	0.978865	-0.000075	0.175349
C128	C	1.312198	0.333259	0.508682
C129	C	1.645531	0.666592	0.842015
C130	C	0.973430	-0.000069	0.463109
C131	C	1.306763	0.333265	0.796442
C132	C	1.640096	0.666598	1.129776
C133	C	0.971665	-0.000067	0.556413
C134	C	1.304998	0.333266	0.889746
C135	C	1.638332	0.666599	1.223080
C136	C	1.134614	-0.000087	0.577567
C137	C	1.467947	0.333246	0.910900
C138	C	1.801281	0.666579	1.244233
C139	C	1.136378	-0.000090	0.484269
C140	C	1.469712	0.333243	0.817603
C141	C	1.803045	0.666577	1.150936
C142	C	1.055782	-0.000081	0.427043
C143	C	1.389116	0.333252	0.760376
C144	C	1.722449	0.666586	1.093710
H145	H	0.766054	-0.000053	-0.275675
H146	H	1.099387	0.333280	0.057658
H147	H	1.432720	0.666614	0.390992
Cl148	Cl	1.245348	-0.000125	0.151169
Cl149	Cl	1.578682	0.333208	0.484503
Cl150	Cl	1.912015	0.666541	0.817836
Cl151	Cl	1.239909	-0.000099	0.438922
Cl152	Cl	1.573243	0.333234	0.772256
Cl153	Cl	1.906576	0.666567	1.105589
Cl154	Cl	0.331439	-0.000150	0.065065
Cl155	Cl	0.664772	0.333183	0.398398
Cl156	Cl	0.998106	0.666516	0.731732
Cl157	Cl	1.241366	-0.000106	0.361744
Cl158	Cl	1.574700	0.333227	0.695077
Cl159	Cl	1.908033	0.666560	1.028411
H160	H	1.166970	-0.583712	-0.013365
H161	H	1.500304	-0.250379	0.319968
H162	H	1.833637	0.082955	0.653302
Cl163	Cl	0.873570	-0.000048	0.313995
Cl164	Cl	1.206903	0.333286	0.647328
Cl165	Cl	1.540237	0.666619	0.980661
Cl166	Cl	0.829791	-0.000091	0.055651
Cl167	Cl	1.163125	0.333242	0.388984
Cl168	Cl	1.496458	0.666575	0.722317
Cl169	Cl	0.919605	-0.604121	-0.260599
Cl170	Cl	1.252938	-0.270787	0.072734
Cl171	Cl	1.586272	0.062546	0.406067
H172	H	0.907800	-0.000059	0.416517
H173	H	1.241133	0.333274	0.749850
H174	H	1.574466	0.666608	1.083184
Cl175	Cl	1.193876	-0.396058	0.013527
Cl176	Cl	1.527210	-0.062725	0.346861
Cl177	Cl	1.860543	0.270608	0.680194
H178	H	0.946497	-0.416456	-0.233707
H179	H	1.279830	-0.083123	0.099627
H180	H	1.613163	0.250211	0.432960
H181	H	1.200238	-0.000092	0.624165
H182	H	1.533572	0.333241	0.957499
H183	H	1.866905	0.666575	1.290832
H184	H	0.596802	-0.000072	-0.272474
H185	H	0.930136	0.333262	0.060859
H186	H	1.263469	0.666595	0.394192
H187	H	0.478296	-0.000071	-0.270239
H188	H	0.811630	0.333263	0.063095
H189	H	1.144963	0.666596	0.396428
H190	H	0.913240	-0.000068	0.128756
H191	H	1.246574	0.333265	0.462089
H192	H	1.579907	0.666599	0.795423
Cl193	Cl	0.283691	-0.000091	-0.302736
Cl194	Cl	0.617024	0.333242	0.030597
Cl195	Cl	0.950358	0.666576	0.363931
Cl196	Cl	0.542030	-0.000110	0.061092
Cl197	Cl	0.875364	0.333224	0.394425
Cl198	Cl	1.208697	0.666557	0.727758
H199	H	0.904606	-0.000073	0.585780
H200	H	1.237939	0.333261	0.919113
H201	H	1.571273	0.666594	1.252446
H202	H	0.635175	-0.000111	0.023152
H203	H	0.968508	0.333222	0.356485
H204	H	1.301842	0.666555	0.689818
