data_functionalizedCrystal
_audit_creation_method	'MofGen! by Chris Wilmer'
_symmetry_space_group_name_H-M	'P1'
_symmetry_Int_Tables_number	1
_symmetry_cell_setting	triclinic
loop_
_symmetry_equiv_pos_as_xyz
  x,y,z
_cell_length_a	16.959455
_cell_length_b	19.805405
_cell_length_c	16.959434
_cell_angle_alpha	90.093187
_cell_angle_beta	89.940565
_cell_angle_gamma	89.976642
loop_
_atom_site_label
_atom_site_type_symbol
_atom_site_fract_x
_atom_site_fract_y
_atom_site_fract_z
Zn1	Zn	1.208701	0.269107	-0.446891
Zn2	Zn	1.708701	0.769107	0.053109
Zn3	Zn	1.208505	0.382422	-0.314705
Zn4	Zn	1.708505	0.882422	0.185295
Zn5	Zn	1.076425	0.269246	-0.314729
Zn6	Zn	1.576425	0.769246	0.185271
Zn7	Zn	1.076479	0.382254	-0.446844
Zn8	Zn	1.576479	0.882254	0.053156
O9	O	1.142528	0.325757	-0.380792
O10	O	1.642528	0.825757	0.119208
O11	O	1.319286	0.284151	-0.429367
O12	O	1.819286	0.784151	0.070633
O13	O	1.190879	0.367537	-0.204097
O14	O	1.690879	0.867537	0.295903
O15	O	1.094031	0.174511	-0.332290
O16	O	1.594031	0.674511	0.167710
O17	O	1.319142	0.367403	-0.332250
O18	O	1.819142	0.867403	0.167750
O19	O	1.191214	0.174409	-0.429390
O20	O	1.691214	0.674409	0.070610
O21	O	1.093841	0.284388	-0.204114
O22	O	1.593841	0.784388	0.295886
O23	O	0.965822	0.284224	-0.332244
O24	O	1.465822	0.784224	0.167756
O25	O	1.094124	0.367116	-0.557461
O26	O	1.594124	0.867116	-0.057461
O27	O	0.965861	0.367251	-0.429308
O28	O	1.465861	0.867251	0.070692
O29	O	1.191266	0.283988	-0.557496
O30	O	1.691266	0.783988	-0.057496
O31	O	1.190932	0.477116	-0.332204
O32	O	1.690932	0.977116	0.167796
O33	O	1.093933	0.476993	-0.429285
O34	O	1.593933	0.976993	0.070715
C35	C	0.937161	0.325735	-0.380774
C36	C	1.437161	0.825735	0.119226
C37	C	0.849305	0.325742	-0.380785
C38	C	1.349305	0.825742	0.119215
C39	C	1.142439	0.501613	-0.380754
C40	C	1.642439	1.001613	0.119246
C41	C	1.142473	0.576845	-0.380764
C42	C	1.642473	1.076845	0.119236
C43	C	1.142723	0.325518	-0.586961
C44	C	1.642723	0.825518	-0.086961
C45	C	1.142806	0.325416	-0.674818
C46	C	1.642806	0.825416	-0.174818
C47	C	0.477784	0.282490	-0.330356
C48	C	0.977784	0.782490	0.169644
C49	C	0.477874	0.369080	-0.431273
C50	C	0.977874	0.869080	0.068727
C51	C	0.560420	0.369070	-0.431269
C52	C	1.060420	0.869070	0.068731
C53	C	0.601652	0.325771	-0.380806
C54	C	1.101652	0.825771	0.119194
C55	C	0.560338	0.282480	-0.330348
C56	C	1.060338	0.782480	0.169652
C57	C	0.601740	0.412365	-0.481720
C58	C	1.101740	0.912365	0.018280
C59	C	0.684291	0.412357	-0.481716
C60	C	1.184291	0.912357	0.018284
C61	C	0.725525	0.369053	-0.431257
C62	C	1.225525	0.869053	0.068743
C63	C	0.684205	0.325761	-0.380798
C64	C	1.184205	0.825761	0.119202
C65	C	0.725437	0.282461	-0.330335
C66	C	1.225437	0.782461	0.169665
C67	C	0.684119	0.239165	-0.279880
C68	C	1.184119	0.739165	0.220120
C69	C	0.601571	0.239176	-0.279889
C70	C	1.101571	0.739176	0.220111
C71	C	0.808073	0.369042	-0.431248
C72	C	1.308073	0.869042	0.068752
C73	C	0.807991	0.282451	-0.330327
C74	C	1.307991	0.782451	0.169673
C75	C	1.348696	0.325780	-0.380811
C76	C	1.848696	0.825780	0.119189
C77	C	1.436552	0.325790	-0.380819
C78	C	1.936552	0.825790	0.119181
C79	C	1.142639	0.149214	-0.380848
C80	C	1.642639	0.649214	0.119152
C81	C	1.142686	0.073982	-0.380872
C82	C	1.642686	0.573982	0.119128
C83	C	1.193029	0.612231	-0.330266
C84	C	1.693029	1.112231	0.169734
C85	C	1.193063	0.682920	-0.330284
C86	C	1.693063	1.182920	0.169716
C87	C	1.142536	0.718221	-0.380796
C88	C	1.642536	1.218221	0.119204
C89	C	1.091977	0.682830	-0.431299
C90	C	1.591977	1.182830	0.068701
C91	C	1.091948	0.612143	-0.431285
C92	C	1.591948	1.112143	0.068715
C93	C	1.092094	0.967903	-0.431357
C94	C	1.592094	1.467903	0.068643
C95	C	1.092125	1.038595	-0.431366
C96	C	1.592125	1.538595	0.068634
C97	C	1.193208	1.038680	-0.330357
C98	C	1.693208	1.538680	0.169643
C99	C	1.193179	0.967993	-0.330342
C100	C	1.693179	1.467993	0.169658
C101	C	1.142624	0.932608	-0.380848
C102	C	1.642624	1.432608	0.119152
C103	C	1.142589	0.855960	-0.380830
C104	C	1.642589	1.355960	0.119170
C105	C	1.142566	0.794868	-0.380811
C106	C	1.642566	1.294868	0.119189
C107	C	1.142379	0.325947	-0.175425
C108	C	1.642379	0.825947	0.324575
C109	C	1.142449	0.325858	-0.087569
C110	C	1.642449	0.825858	0.412431
C111	C	1.193660	0.368437	0.283955
C112	C	1.693660	0.868437	0.783955
C113	C	1.091881	0.282484	0.283856
C114	C	1.591881	0.782484	0.783856
C115	C	1.091810	0.282570	0.201310
C116	C	1.591810	0.782570	0.701310
C117	C	1.142663	0.325592	0.160083
C118	C	1.642663	0.825592	0.660083
C119	C	1.193588	0.368527	0.201402
C120	C	1.693588	0.868527	0.701402
C121	C	1.040880	0.239641	0.159985
C122	C	1.540880	0.739641	0.659985
C123	C	1.040806	0.239727	0.077434
C124	C	1.540806	0.739727	0.577434
C125	C	1.091664	0.282746	0.036206
C126	C	1.591664	0.782746	0.536206
C127	C	1.142592	0.325682	0.077530
C128	C	1.642592	0.825682	0.577530
C129	C	1.193445	0.368703	0.036303
C130	C	1.693445	0.868703	0.536303
C131	C	1.244377	0.411637	0.077626
C132	C	1.744377	0.911637	0.577626
C133	C	1.244446	0.411546	0.160174
C134	C	1.744446	0.911546	0.660174
C135	C	1.091595	0.282837	-0.046342
C136	C	1.591595	0.782837	0.453658
C137	C	1.193373	0.368793	-0.046250
C138	C	1.693373	0.868793	0.453750
H139	H	0.717701	0.203913	-0.238790
H140	H	1.217701	0.703913	0.261210
H141	H	0.999334	0.204768	0.043796
H142	H	1.499334	0.704768	0.543796
H143	H	1.050474	0.247461	0.317427
H144	H	1.550474	0.747461	0.817427
O145	O	1.242332	0.717168	-0.281270
O146	O	1.742332	1.217168	0.218730
C147	C	1.321072	0.699754	-0.298685
C148	C	1.821072	1.199754	0.201315
H149	H	1.322600	0.648399	-0.329103
H150	H	1.822600	1.148399	0.170897
H151	H	1.356536	0.697329	-0.241693
H152	H	1.856536	1.197329	0.258307
H153	H	1.347752	0.739452	-0.339340
H154	H	1.847752	1.239452	0.160660
O155	O	0.561812	0.454477	-0.530772
O156	O	1.061812	0.954477	-0.030772
C157	C	0.615978	0.492671	-0.575322
C158	C	1.115978	0.992671	-0.075322
H159	H	0.674780	0.495021	-0.542929
H160	H	1.174780	0.995021	-0.042929
H161	H	0.592107	0.545997	-0.583663
H162	H	1.092107	1.045997	-0.083663
H163	H	0.624847	0.467881	-0.635397
H164	H	1.124847	0.967881	-0.135397
H165	H	0.999473	0.204620	0.193558
H166	H	1.499473	0.704620	0.693558
O167	O	1.242072	0.578017	-0.281088
O168	O	1.742072	1.078017	0.218912
C169	C	1.224780	0.595411	-0.202295
C170	C	1.724780	1.095411	0.297705
H171	H	1.194416	0.646757	-0.200640
H172	H	1.694416	1.146757	0.299360
H173	H	1.281823	0.597847	-0.166904
H174	H	1.781823	1.097847	0.333096
H175	H	1.184122	0.555695	-0.175627
H176	H	1.684122	1.055695	0.324373
O177	O	0.437908	0.411100	-0.480403
O178	O	0.937908	0.911100	0.019597
C179	C	0.458155	0.396297	-0.559212
C180	C	0.958155	0.896297	-0.059212
H181	H	0.518104	0.370277	-0.560899
H182	H	1.018104	0.870277	-0.060899
H183	H	0.460994	0.445147	-0.594561
H184	H	0.960994	0.945147	-0.094561
H185	H	0.411739	0.361500	-0.585902
H186	H	0.911739	0.861500	-0.085902
O187	O	1.242885	0.410551	-0.086207
O188	O	1.742885	0.910551	0.413793
C189	C	1.321564	0.395241	-0.066253
C190	C	1.821564	0.895241	0.433747
H191	H	1.323049	0.369143	-0.006410
H192	H	1.823049	0.869143	0.493590
H193	H	1.357396	0.443867	-0.063328
H194	H	1.857396	0.943867	0.436672
H195	H	1.347871	0.360332	-0.112883
H196	H	1.847871	0.860332	0.387117
H197	H	0.567923	0.203928	-0.238810
H198	H	1.067923	0.703928	0.261190
O199	O	1.242300	0.933627	-0.281386
O200	O	1.742300	1.433627	0.218614
C201	C	1.293353	0.892649	-0.326429
C202	C	1.793353	1.392649	0.173571
H203	H	1.265477	0.881988	-0.386303
H204	H	1.765477	1.381988	0.113697
H205	H	1.303920	0.842983	-0.294235
H206	H	1.803920	1.342983	0.205765
H207	H	1.351942	0.919839	-0.335172
H208	H	1.851942	1.419839	0.164828
O209	O	0.724509	0.454314	-0.530772
O210	O	1.224509	0.954314	-0.030772
C211	C	0.772307	0.415776	-0.581917
C212	C	1.272307	0.915776	-0.081917
H213	H	0.784659	0.364477	-0.554144
H214	H	1.284659	0.864477	-0.054144
H215	H	0.830359	0.443338	-0.592455
H216	H	1.330359	0.943338	-0.092455
H217	H	0.740555	0.408349	-0.640508
H218	H	1.240555	0.908349	-0.140508
H219	H	1.050126	0.247882	-0.079983
H220	H	1.550126	0.747882	0.420017
O221	O	0.848297	0.411000	-0.480292
O222	O	1.348297	0.911000	0.019708
C223	C	0.896099	0.372469	-0.531439
C224	C	1.396099	0.872469	-0.031439
H225	H	0.908448	0.321166	-0.503674
H226	H	1.408448	0.821166	-0.003674
H227	H	0.954152	0.400032	-0.541966
H228	H	1.454152	0.900032	-0.041966
H229	H	0.864353	0.365051	-0.590034
H230	H	1.364353	0.865051	-0.090034
O231	O	0.437531	0.240497	-0.281371
O232	O	0.937531	0.740497	0.218629
C233	C	0.355829	0.249771	-0.292213
C234	C	0.855829	0.749771	0.207787
H235	H	0.344562	0.302011	-0.317988
H236	H	0.844562	0.802011	0.182012
H237	H	0.324390	0.245169	-0.233019
H238	H	0.824390	0.745169	0.266981
H239	H	0.332469	0.209633	-0.334395
H240	H	0.832469	0.709633	0.165605
H241	H	1.050981	1.067335	-0.472504
H242	H	1.550981	1.567335	0.027496
O243	O	1.243058	0.410120	0.324213
O244	O	1.743058	0.910120	0.824213
C245	C	1.232238	0.400805	0.405913
C246	C	1.732238	0.900805	0.905913
H247	H	1.171076	0.378998	0.417236
H248	H	1.671076	0.878998	0.917236
H249	H	1.238028	0.451435	0.437446
H250	H	1.738028	0.951435	0.937446
H251	H	1.278861	0.364449	0.429124
H252	H	1.778861	0.864449	0.929124
H253	H	0.841556	0.247187	-0.289239
H254	H	1.341556	0.747187	0.210761
O255	O	1.242313	1.073158	-0.281387
O256	O	1.742313	1.573158	0.218613
C257	C	1.231504	1.143119	-0.292221
C258	C	1.731504	1.643119	0.207779
H259	H	1.205615	1.152695	-0.353195
H260	H	1.705615	1.652695	0.146805
H261	H	1.290728	1.169944	-0.286938
H262	H	1.790728	1.669944	0.213062
H263	H	1.189430	1.163289	-0.245294
H264	H	1.689430	1.663289	0.254706
H265	H	1.050840	0.711578	-0.472430
H266	H	1.550840	1.211578	0.027570
O267	O	1.042901	0.933641	-0.480430
O268	O	1.542901	1.433641	0.019570
C269	C	0.998320	0.979959	-0.525021
C270	C	1.498320	1.479959	-0.025021
H271	H	0.995612	1.030399	-0.492651
H272	H	1.495612	1.530399	0.007349
H273	H	0.936032	0.959569	-0.533381
H274	H	1.436032	1.459569	-0.033381
H275	H	1.027267	0.987364	-0.585086
H276	H	1.527267	1.487364	-0.085086
H277	H	1.285779	0.446667	0.044048
H278	H	1.785779	0.946667	0.544048
O279	O	1.042766	0.577871	-0.480366
O280	O	1.542766	1.077871	0.019634
C281	C	0.998190	0.624185	-0.524968
C282	C	1.498190	1.124185	-0.024968
H283	H	0.995462	0.674623	-0.492597
H284	H	1.495462	1.174623	0.007403
H285	H	0.935908	0.603786	-0.533349
H286	H	1.435908	1.103786	-0.033349
H287	H	1.027154	0.631595	-0.585023
H288	H	1.527154	1.131595	-0.085023
O289	O	1.293982	0.453278	0.200192
O290	O	1.793982	0.953278	0.700192
C291	C	1.338836	0.491284	0.146106
C292	C	1.838836	0.991284	0.646106
H293	H	1.341319	0.463606	0.087166
H294	H	1.841319	0.963606	0.587166
H295	H	1.401185	0.498110	0.169870
H296	H	1.901185	0.998110	0.669870
H297	H	1.310277	0.542870	0.137548
H298	H	1.810277	1.042870	0.637548
