data_functionalizedCrystal
_audit_creation_method	'MofGen! by Chris Wilmer'
_symmetry_space_group_name_H-M	'P1'
_symmetry_Int_Tables_number	1
_symmetry_cell_setting	triclinic
loop_
_symmetry_equiv_pos_as_xyz
  x,y,z
_cell_length_a	21.295417
_cell_length_b	16.120542
_cell_length_c	16.120297
_cell_angle_alpha	90.127087
_cell_angle_beta	87.132998
_cell_angle_gamma	92.878379
loop_
_atom_site_label
_atom_site_type_symbol
_atom_site_fract_x
_atom_site_fract_y
_atom_site_fract_z
Zn1	Zn	-0.318985	-1.247394	0.534551
Zn2	Zn	0.014348	-0.914061	0.867884
Zn3	Zn	0.347682	-0.580728	1.201218
Zn4	Zn	-0.419195	-1.254330	0.395481
Zn5	Zn	-0.085862	-0.920996	0.728814
Zn6	Zn	0.247472	-0.587663	1.062147
Zn7	Zn	-0.308340	-1.115386	0.388467
Zn8	Zn	0.024993	-0.782053	0.721801
Zn9	Zn	0.358326	-0.448719	1.055134
Zn10	Zn	-0.418607	-1.108286	0.527447
Zn11	Zn	-0.085274	-0.774952	0.860780
Zn12	Zn	0.248060	-0.441619	1.194113
O13	O	-0.366282	-1.181349	0.461486
O14	O	-0.032949	-0.848016	0.794820
O15	O	0.300385	-0.514682	1.128153
O16	O	-0.336979	-1.364680	0.522011
O17	O	-0.003645	-1.031347	0.855344
O18	O	0.329688	-0.698014	1.188678
O19	O	-0.400281	-1.241772	0.278185
O20	O	-0.066948	-0.908439	0.611519
O21	O	0.266386	-0.575106	0.944852
O22	O	-0.221667	-1.132966	0.407884
O23	O	0.111666	-0.799633	0.741217
O24	O	0.445000	-0.466300	1.074551
O25	O	-0.410603	-1.369776	0.419837
O26	O	-0.077269	-1.036442	0.753170
O27	O	0.256064	-0.703109	1.086503
O28	O	-0.229488	-1.229952	0.515211
O29	O	0.103846	-0.896619	0.848544
O30	O	0.437179	-0.563286	1.181877
O31	O	-0.318837	-1.139691	0.273033
O32	O	0.014497	-0.806358	0.606366
O33	O	0.347830	-0.473024	0.939700
O34	O	-0.318267	-0.998078	0.400995
O35	O	0.015067	-0.664745	0.734328
O36	O	0.348400	-0.331412	1.067662
O37	O	-0.409601	-1.120865	0.644754
O38	O	-0.076267	-0.787532	0.978087
O39	O	0.257066	-0.454198	1.311420
O40	O	-0.399279	-0.992862	0.503103
O41	O	-0.065946	-0.659528	0.836436
O42	O	0.267387	-0.326195	1.169769
O43	O	-0.336409	-1.223067	0.649973
O44	O	-0.003075	-0.889734	0.983307
O45	O	0.330258	-0.556401	1.316640
O46	O	-0.507202	-1.234887	0.412948
O47	O	-0.173869	-0.901554	0.746281
O48	O	0.159464	-0.568221	1.079615
O49	O	-0.506770	-1.127590	0.509903
O50	O	-0.173437	-0.794256	0.843236
O51	O	0.159896	-0.460923	1.176570
C52	C	-0.357555	-0.965298	0.450517
C53	C	-0.024221	-0.631964	0.783851
C54	C	0.309112	-0.298631	1.117184
C55	C	-0.353837	-0.872869	0.445845
C56	C	-0.020504	-0.539536	0.779178
C57	C	0.312830	-0.206202	1.112511
C58	C	-0.529827	-1.181242	0.461435
C59	C	-0.196494	-0.847909	0.794768
C60	C	0.136839	-0.514576	1.128101
C61	C	-0.599797	-1.181271	0.461444
C62	C	-0.266464	-0.847938	0.794778
C63	C	0.066870	-0.514605	1.128111
C64	C	-0.385546	-0.659902	0.485680
C65	C	-0.052213	-0.326569	0.819014
C66	C	0.281120	0.006764	1.152347
C67	C	-0.347055	-0.703646	0.437312
C68	C	-0.013722	-0.370312	0.770645
C69	C	0.319612	-0.036979	1.103979
C70	C	-0.350830	-0.797810	0.442061
C71	C	-0.017496	-0.464477	0.775394
C72	C	0.315837	-0.131143	1.108728
C73	C	-0.381773	-0.565729	0.480932
C74	C	-0.048439	-0.232396	0.814266
C75	C	0.284894	0.100937	1.147599
C76	C	-0.632872	-1.237186	0.411017
C77	C	-0.299538	-0.903852	0.744350
C78	C	0.033795	-0.570519	1.077684
C79	C	-0.698616	-1.237224	0.411038
C80	C	-0.365283	-0.903890	0.744371
C81	C	-0.031950	-0.570557	1.077704
C82	C	-0.731283	-1.181333	0.461476
C83	C	-0.397950	-0.848000	0.794810
C84	C	-0.064616	-0.514666	1.128143
C85	C	-0.698201	-1.125414	0.511914
C86	C	-0.364868	-0.792081	0.845247
C87	C	-0.031534	-0.458748	1.178581
C88	C	-0.632458	-1.125383	0.511898
C89	C	-0.299124	-0.792050	0.845231
C90	C	0.034209	-0.458717	1.178565
N91	N	-0.831845	-1.108267	0.464122
N92	N	-0.498512	-0.774934	0.797456
N93	N	-0.165178	-0.441601	1.130789
N94	N	-0.894298	-1.108299	0.464133
N95	N	-0.560965	-0.774966	0.797466
N96	N	-0.227631	-0.441633	1.130799
C97	C	-0.929363	-1.181424	0.461529
C98	C	-0.596030	-0.848090	0.794862
C99	C	-0.262697	-0.514757	1.128195
N100	N	-0.899616	-1.254517	0.458898
N101	N	-0.566282	-0.921184	0.792231
N102	N	-0.232949	-0.587851	1.125564
N103	N	-0.837157	-1.254485	0.458883
N104	N	-0.503823	-0.921151	0.792216
N105	N	-0.170490	-0.587818	1.125550
C106	C	-0.802570	-1.181361	0.461500
C107	C	-0.469237	-0.848027	0.794833
C108	C	-0.135904	-0.514694	1.128166
C109	C	-1.033726	-1.237384	0.411121
C110	C	-0.700392	-0.904051	0.744454
C111	C	-0.367059	-0.570717	1.077788
C112	C	-1.099472	-1.237423	0.411148
C113	C	-0.766139	-0.904090	0.744481
C114	C	-0.432805	-0.570756	1.077814
C115	C	-1.099055	-1.125606	0.512019
C116	C	-0.765722	-0.792273	0.845353
C117	C	-0.432388	-0.458940	1.178686
C118	C	-1.033310	-1.125574	0.511997
C119	C	-0.699977	-0.792241	0.845331
C120	C	-0.366644	-0.458908	1.178664
C121	C	-1.000650	-1.181462	0.461544
C122	C	-0.667316	-0.848129	0.794877
C123	C	-0.333983	-0.514796	1.128210
C124	C	-0.202099	-1.181478	0.461558
C125	C	0.131234	-0.848144	0.794891
C126	C	0.464567	-0.514811	1.128224
C127	C	-0.132134	-1.181533	0.461588
C128	C	0.201199	-0.848199	0.794921
C129	C	0.534532	-0.514866	1.128254
C130	C	-0.374127	-1.170401	0.678379
C131	C	-0.040793	-0.837067	1.011713
C132	C	0.292540	-0.503734	1.345046
C133	C	-0.377470	-1.165735	0.770806
C134	C	-0.044136	-0.832402	1.104139
C135	C	0.289197	-0.499068	1.437473
C136	C	-0.375040	-0.398245	0.472487
C137	C	-0.041707	-0.064911	0.805820
C138	C	0.291627	0.268422	1.139154
C139	C	-0.378763	-0.490674	0.477145
C140	C	-0.045429	-0.157341	0.810478
C141	C	0.287904	0.175993	1.143812
C142	C	-0.358424	-1.192303	0.245440
C143	C	-0.025091	-0.858969	0.578773
C144	C	0.308242	-0.525636	0.912106
C145	C	-0.354910	-1.197129	0.153022
C146	C	-0.021577	-0.863796	0.486355
C147	C	0.311756	-0.530463	0.819688
C148	C	-0.383558	-1.157186	0.940030
C149	C	-0.050224	-0.823853	1.273363
C150	C	0.283109	-0.490520	1.606696
C151	C	-0.348824	-1.205675	0.983803
C152	C	-0.015491	-0.872342	1.317136
C153	C	0.317843	-0.539009	1.650470
C154	C	-0.352212	-1.200919	1.077965
C155	C	-0.018878	-0.867586	1.411298
C156	C	0.314455	-0.534252	1.744632
C157	C	-0.380171	-1.161942	0.845859
C158	C	-0.046838	-0.828608	1.179193
C159	C	0.286496	-0.495275	1.512526
H160	H	-0.311267	-0.670375	0.392336
H161	H	0.022067	-0.337042	0.725669
H162	H	0.355400	-0.003709	1.059003
H163	H	-0.421332	-0.693171	0.530652
H164	H	-0.087999	-0.359837	0.863985
H165	H	0.245334	-0.026504	1.197319
N166	N	-0.597646	-1.297474	0.356614
N167	N	-0.264312	-0.964140	0.689948
N168	N	0.069021	-0.630807	1.023281
H169	H	-0.628579	-1.332905	0.324676
H170	H	-0.295245	-0.999572	0.658009
H171	H	0.038088	-0.666238	0.991342
H172	H	-0.573113	-1.334204	0.392449
H173	H	-0.239779	-1.000870	0.725783
H174	H	0.093554	-0.667537	1.059116
N175	N	-0.306073	-1.265409	0.939776
N176	N	0.027260	-0.932075	1.273110
N177	N	0.360593	-0.598742	1.606443
H178	H	-0.283367	-1.297110	0.982111
H179	H	0.049966	-0.963777	1.315444
H180	H	0.383300	-0.630443	1.648778
H181	H	-0.274302	-1.233375	0.902018
H182	H	0.059031	-0.900042	1.235351
H183	H	0.392364	-0.566709	1.568685
N184	N	-0.426323	-1.097471	0.984044
N185	N	-0.092990	-0.764138	1.317377
N186	N	0.240344	-0.430804	1.650711
H187	H	-0.413618	-1.038810	0.965958
H188	H	-0.080284	-0.705477	1.299292
H189	H	0.253049	-0.372143	1.632625
H190	H	-0.422699	-1.102564	1.046034
H191	H	-0.089365	-0.769231	1.379367
H192	H	0.243968	-0.435898	1.712701
N193	N	-0.596776	-1.065071	0.566283
N194	N	-0.263443	-0.731737	0.899616
N195	N	0.069890	-0.398404	1.232950
H196	H	-0.610853	-1.074941	0.626365
H197	H	-0.277519	-0.741608	0.959698
H198	H	0.055814	-0.408275	1.293032
H199	H	-0.605411	-1.006353	0.550237
H200	H	-0.272077	-0.673020	0.883570
H201	H	0.061256	-0.339686	1.216904
N202	N	-0.734301	-1.297535	0.356647
N203	N	-0.400967	-0.964201	0.689981
N204	N	-0.067634	-0.630868	1.023314
H205	H	-0.703634	-1.332935	0.324685
H206	H	-0.370301	-0.999601	0.658018
H207	H	-0.036967	-0.666268	0.991351
H208	H	-0.758856	-1.265666	0.316431
H209	H	-0.425523	-0.932333	0.649765
H210	H	-0.092189	-0.599000	0.983098
H211	H	-1.007133	-1.282894	0.370041
H212	H	-0.673799	-0.949561	0.703374
H213	H	-0.340466	-0.616227	1.036708
N214	N	-0.733430	-1.065133	0.566319
N215	N	-0.400096	-0.731800	0.899652
N216	N	-0.066763	-0.398467	1.232986
H217	H	-0.780097	-1.073635	0.558676
H218	H	-0.446764	-0.740301	0.892009
H219	H	-0.113430	-0.406968	1.225342
H220	H	-0.719116	-1.006405	0.550312
H221	H	-0.385783	-0.673072	0.883645
H222	H	-0.052450	-0.339739	1.216979
N223	N	-1.135149	-1.297738	0.356760
N224	N	-0.801816	-0.964405	0.690093
N225	N	-0.468483	-0.631072	1.023427
H226	H	-1.104480	-1.333134	0.324797
H227	H	-0.771147	-0.999801	0.658130
H228	H	-0.437813	-0.666467	0.991463
H229	H	-1.159708	-1.265874	0.316545
H230	H	-0.826375	-0.932541	0.649878
H231	H	-0.493042	-0.599208	0.983211
H232	H	-1.125652	-1.080102	0.553091
H233	H	-0.792318	-0.746769	0.886425
H234	H	-0.458985	-0.413436	1.219758
H235	H	-1.006379	-1.080040	0.553057
H236	H	-0.673046	-0.746707	0.886390
H237	H	-0.339712	-0.413374	1.219723
