data_functionalizedCrystal
_audit_creation_method	'MofGen! by Chris Wilmer'
_symmetry_space_group_name_H-M	'P1'
_symmetry_Int_Tables_number	1
_symmetry_cell_setting	triclinic
loop_
_symmetry_equiv_pos_as_xyz
  x,y,z
_cell_length_a	16.625548
_cell_length_b	16.625545
_cell_length_c	16.625539
_cell_angle_alpha	90.026370
_cell_angle_beta	90.018832
_cell_angle_gamma	90.023896
loop_
_atom_site_label
_atom_site_type_symbol
_atom_site_fract_x
_atom_site_fract_y
_atom_site_fract_z
Zn1	Zn	-1.232644	0.321018	-0.455948
Zn2	Zn	-1.232552	0.455857	-0.321115
Zn3	Zn	-1.097814	0.321042	-0.321124
Zn4	Zn	-1.097772	0.455812	-0.455901
O5	O	-1.165195	0.388432	-0.388522
O6	O	-1.345464	0.338914	-0.438078
O7	O	-1.214657	0.438002	-0.208284
O8	O	-1.115755	0.208206	-0.339032
O9	O	-1.345396	0.437979	-0.339017
O10	O	-1.214814	0.208189	-0.438087
O11	O	-1.115666	0.338954	-0.208291
O12	O	-0.984976	0.338910	-0.338987
O13	O	-1.115684	0.437903	-0.568740
O14	O	-0.984945	0.437926	-0.438007
O15	O	-1.214774	0.338870	-0.568774
O16	O	-1.214617	0.568683	-0.338972
O17	O	-1.115595	0.568650	-0.437998
C18	C	-0.955704	0.388416	-0.388493
C19	C	-0.866083	0.388429	-0.388500
C20	C	-1.165113	0.597923	-0.388496
C21	C	-1.165152	0.687544	-0.388512
C22	C	-0.537908	0.388427	-0.388524
C23	C	-0.629216	0.388425	-0.388515
C24	C	-0.701993	0.388428	-0.388511
C25	C	-0.793307	0.388426	-0.388503
C26	C	-1.165235	0.388379	-0.598831
C27	C	-1.165252	0.388356	-0.688452
C28	C	-0.375504	0.388443	-0.388544
C29	C	-0.465125	0.388435	-0.388533
C30	C	-1.165284	1.015720	-0.388609
C31	C	-1.165244	0.924411	-0.388584
C32	C	-1.165217	0.851635	-0.388560
C33	C	-1.165179	0.760320	-0.388536
C34	C	-1.165293	1.178123	-0.388575
C35	C	-1.165317	1.088502	-0.388622
C36	C	-1.165265	0.388338	-0.761235
C37	C	-1.165284	0.388308	-0.852543
C38	C	-1.165303	0.388280	-0.925320
C39	C	-1.165323	0.388251	-1.016634
C40	C	-1.165202	0.388427	-0.179031
C41	C	-1.165342	0.388222	-0.089411
