data_functionalizedCrystal
_audit_creation_method	'MofGen! by Chris Wilmer'
_symmetry_space_group_name_H-M	'P1'
_symmetry_Int_Tables_number	1
_symmetry_cell_setting	triclinic
loop_
_symmetry_equiv_pos_as_xyz
  x,y,z
_cell_length_a	27.732064
_cell_length_b	9.616153
_cell_length_c	10.540539
_cell_angle_alpha	90.000094
_cell_angle_beta	83.587458
_cell_angle_gamma	89.999209
loop_
_atom_site_label
_atom_site_type_symbol
_atom_site_fract_x
_atom_site_fract_y
_atom_site_fract_z
O1	O	0.641875	0.115392	0.151122
O2	O	0.501227	0.115448	0.174063
O3	O	0.574760	0.115417	-0.022253
O4	O	0.568343	0.115423	0.347438
O5	O	0.574750	-0.115875	-0.022248
O6	O	0.501217	-0.115844	0.174068
O7	O	0.641865	-0.115900	0.151126
Zn8	Zn	0.571540	-0.152594	0.162598
Zn9	Zn	0.571553	0.152142	0.162592
O10	O	0.568332	-0.115869	0.347442
C11	C	0.483213	-0.000191	0.173581
C12	C	0.429549	-0.000169	0.172121
N13	N	0.571534	-0.360569	0.162601
C14	C	0.051683	-0.000250	0.046170
C15	C	0.253377	-0.000214	0.051543
O16	O	0.284014	-0.000267	-0.046191
N17	N	0.273238	-0.000206	0.167955
C18	C	0.242671	-0.000216	0.283032
O19	O	0.264192	-0.000223	0.382170
C20	C	0.040978	-0.000262	0.277657
C21	C	0.021121	-0.000256	0.161238
C22	C	0.031825	-0.000246	-0.070240
C23	C	-0.018595	-0.000247	-0.071582
C24	C	-0.049158	-0.000253	0.043486
C25	C	-0.029300	-0.000258	0.159896
C26	C	0.010413	-0.000282	0.392733
C27	C	-0.040013	-0.000297	0.391379
C28	C	-0.059871	-0.000291	0.274960
C29	C	-0.110283	-0.000265	0.273622
N30	N	-0.130144	-0.000273	0.157210
C31	C	-0.099581	-0.000267	0.042142
C32	C	0.348563	-0.000189	0.285845
C33	C	0.398986	-0.000175	0.287189
C34	C	0.409689	-0.000175	0.055700
C35	C	0.359265	-0.000180	0.054357
C36	C	0.328703	-0.000197	0.169433
C37	C	-0.205468	-0.000269	0.039333
C38	C	-0.255894	-0.000265	0.038001
C39	C	-0.266592	-0.000272	0.269489
C40	C	-0.216171	-0.000269	0.270822
C41	C	-0.185610	-0.000272	0.155733
O42	O	-0.140949	-0.000227	0.371304
O43	O	-0.121111	-0.000291	-0.056982
C44	C	0.102104	-0.000249	0.047512
C45	C	0.121962	-0.000253	0.163922
C46	C	0.091399	-0.000259	0.278990
C47	C	0.172385	-0.000239	0.165266
C48	C	0.202947	-0.000233	0.050198
C49	C	0.183087	-0.000241	-0.066214
C50	C	0.132666	-0.000243	-0.067556
C51	C	0.111260	-0.000251	0.395402
C52	C	0.161681	-0.000248	0.396734
C53	C	0.192243	-0.000242	0.281666
C54	C	0.532079	-0.580922	0.267275
C55	C	0.532166	-0.419754	0.267658
C56	C	0.622066	-0.419038	0.190548
C57	C	0.621851	-0.580256	0.191286
C58	C	0.560960	-0.580477	0.029620
C59	C	0.559800	-0.419250	0.030535
C60	C	0.659880	-0.000258	0.151609
C61	C	0.713544	-0.000271	0.153069
N62	N	0.571562	0.360117	0.162579
C63	C	0.574274	-0.000226	-0.069533
C64	C	0.572834	-0.000218	-0.210418
C65	C	0.517659	0.000323	-0.391458
C66	C	0.519119	-0.000198	-0.244903
C67	C	0.598678	-0.132307	-0.273192
C68	C	0.596845	-0.132418	-0.419657
C69	C	0.597949	0.130603	-0.420228
C70	C	0.598444	0.132349	-0.273267
C71	C	0.568819	-0.000223	0.394722
C72	C	0.570259	-0.000222	0.535608
H73	H	-0.272059	-0.000256	-0.056806
Cl74	Cl	0.448120	-0.000167	-0.088956
Cl75	Cl	0.636166	-0.638300	0.340948
H76	H	0.631546	-0.378650	0.286375
Cl77	Cl	-0.043551	-0.000227	-0.217946
H78	H	0.116503	-0.000238	-0.162357
Cl79	Cl	0.571110	0.285174	-0.467764
Cl80	Cl	0.668567	-0.640478	0.077831
H81	H	0.415150	-0.000160	0.381989
H82	H	0.577736	-0.231142	-0.447028
H83	H	0.538980	-0.381177	0.366347
Cl84	Cl	0.310149	-0.000198	0.430528
Cl85	Cl	0.668539	-0.359853	0.075888
H86	H	0.496523	-0.093854	-0.420749
Cl87	Cl	0.070238	-0.000239	-0.214918
H88	H	0.498632	-0.095027	-0.202259
H89	H	0.524891	-0.621200	0.002501
H90	H	0.522626	-0.381035	0.009303
H91	H	0.496445	0.095047	-0.419142
Cl92	Cl	0.601263	-0.357078	-0.095272
Cl93	Cl	0.656486	-0.141713	-0.496303
H94	H	0.589748	-0.618605	-0.048281
H95	H	0.579534	0.230065	-0.231592
Cl96	Cl	0.072845	-0.000251	0.540075
H97	H	0.026571	-0.000281	0.487534
H98	H	0.494415	-0.619718	0.251052
H99	H	0.638125	-0.137234	-0.252545
H100	H	0.207980	-0.000228	-0.159906
Cl101	Cl	-0.078432	-0.000325	0.536056
H102	H	0.177843	-0.000243	0.491544
Cl103	Cl	0.658909	0.144650	-0.238484
Cl104	Cl	0.657850	0.131956	-0.495735
H105	H	0.494619	-0.380225	0.251151
H106	H	0.343101	-0.000176	-0.040442
H107	H	0.538805	-0.621422	0.365408
H108	H	-0.200002	-0.000272	0.365620
Cl109	Cl	0.487721	0.145990	-0.177765
H110	H	0.580717	-0.230589	-0.229814
H111	H	-0.180591	-0.000271	-0.054384
H112	H	-0.291485	-0.000269	0.363174
