data_functionalizedCrystal
_audit_creation_method	'MofGen! by Chris Wilmer'
_symmetry_space_group_name_H-M	'P1'
_symmetry_Int_Tables_number	1
_symmetry_cell_setting	triclinic
loop_
_symmetry_equiv_pos_as_xyz
  x,y,z
_cell_length_a	22.863218
_cell_length_b	22.862586
_cell_length_c	22.858745
_cell_angle_alpha	60.006856
_cell_angle_beta	60.013818
_cell_angle_gamma	59.991795
loop_
_atom_site_label
_atom_site_type_symbol
_atom_site_fract_x
_atom_site_fract_y
_atom_site_fract_z
O1	O	0.081006	-0.854581	0.714630
O2	O	0.581006	-0.354581	1.214630
O3	O	0.030492	-0.665350	0.575795
O4	O	0.530492	-0.165350	1.075795
O5	O	0.150314	-0.785089	0.575706
O6	O	0.650314	-0.285089	1.075706
O7	O	-0.038816	-0.734841	0.714718
O8	O	0.461184	-0.234841	1.214718
O9	O	0.190066	-0.745348	0.615369
O10	O	0.690066	-0.245348	1.115369
O11	O	0.070244	-0.625609	0.615458
O12	O	0.570244	-0.125609	1.115458
O13	O	0.120758	-0.814840	0.754293
O14	O	0.620758	-0.314840	1.254293
Zn15	Zn	0.101812	-0.713914	0.691173
Zn16	Zn	0.601812	-0.213914	1.191173
Zn17	Zn	0.049438	-0.766275	0.638915
Zn18	Zn	0.549438	-0.266275	1.138915
O19	O	0.000936	-0.695100	0.754381
O20	O	0.500936	-0.195100	1.254381
N21	N	0.137558	-0.678184	0.726840
N22	N	0.637558	-0.178184	1.226840
N23	N	0.013698	-0.802011	0.603247
N24	N	0.513698	-0.302011	1.103247
C25	C	0.187224	-0.518558	0.776483
C26	C	0.687224	-0.018558	1.276483
C27	C	0.187235	-0.628552	0.776467
C28	C	0.687235	-0.128552	1.276467
C29	C	0.214753	-0.601061	0.803961
C30	C	0.714753	-0.101061	1.303961
C31	C	0.334724	-0.580392	0.740801
C32	C	0.834724	-0.080392	1.240801
C33	C	0.409718	-0.605392	0.715784
C34	C	0.909718	-0.105392	1.215784
C35	C	0.409746	-0.726732	0.762051
C36	C	0.909746	-0.226732	1.262051
C37	C	0.334754	-0.701730	0.787070
C38	C	0.834754	-0.201730	1.287070
C39	C	0.205297	-0.481049	0.702756
C40	C	0.705297	0.018951	1.202756
C41	C	0.180267	-0.406048	0.677779
C42	C	0.680267	0.093952	1.177779
C43	C	0.119099	-0.406071	0.800259
C44	C	0.619099	0.093929	1.300259
C45	C	0.144128	-0.481071	0.825236
C46	C	0.644128	0.018929	1.325236
C47	C	0.113501	-0.610437	0.794610
C48	C	0.613501	-0.110437	1.294610
C49	C	0.088492	-0.635428	0.769607
C50	C	0.588492	-0.135428	1.269607
C51	C	0.210943	-0.696652	0.708337
C52	C	0.710943	-0.196652	1.208337
C53	C	0.235956	-0.671660	0.733331
C54	C	0.735956	-0.171660	1.233331
C55	C	0.113585	-0.610461	0.923980
C56	C	0.613585	-0.110461	1.423980
C57	C	0.088635	-0.635476	0.998978
C58	C	0.588635	-0.135476	1.498978
C59	C	0.211128	-0.696714	0.998930
C60	C	0.711128	-0.196714	1.498930
C61	C	0.236077	-0.671700	0.923930
C62	C	0.736077	-0.171700	1.423930
C63	C	0.187303	-0.628571	0.886457
C64	C	0.687303	-0.128571	1.386457
C65	C	0.297246	-0.628559	0.776441
C66	C	0.797246	-0.128559	1.276441
C67	C	-0.117796	-0.823430	0.581283
C68	C	0.382204	-0.323430	1.081283
C69	C	-0.007671	-0.823587	0.471446
C70	C	0.492329	-0.323587	0.971446
C71	C	-0.007879	-0.933535	0.581483
C72	C	0.492121	-0.433535	1.081483
C73	C	-0.007861	-0.823583	0.581554
C74	C	0.492139	-0.323583	1.081554
C75	C	-0.035301	-0.851035	0.553942
C76	C	0.464699	-0.351035	1.053942
N77	N	0.446162	-0.678198	0.726752
N78	N	0.946162	-0.178198	1.226752
O79	O	0.691234	-0.690164	0.550341
O80	O	1.191234	-0.190164	1.050341
O81	O	0.691462	-0.829422	0.739388
O82	O	1.191462	-0.329422	1.239388
O83	O	0.691373	-0.829102	0.619485
O84	O	1.191373	-0.329102	1.119485
O85	O	0.691323	-0.690484	0.670244
O86	O	1.191323	-0.190484	1.170244
O87	O	0.572233	-0.789455	0.659278
O88	O	1.072233	-0.289455	1.159278
O89	O	0.572322	-0.789775	0.779181
O90	O	1.072322	-0.289775	1.279181
O91	O	0.572094	-0.650517	0.590134
O92	O	1.072094	-0.150517	1.090134
Zn93	Zn	0.553292	-0.713851	0.690976
Zn94	Zn	1.053292	-0.213851	1.190976
Zn95	Zn	0.710264	-0.766088	0.638547
Zn96	Zn	1.210264	-0.266088	1.138547
O97	O	0.572183	-0.650837	0.710037
O98	O	1.072183	-0.150837	1.210037
N99	N	0.817394	-0.801741	0.602763
N100	N	1.317394	-0.301741	1.102763
N101	N	0.137538	-0.369628	0.726874
N102	N	0.637538	0.130372	1.226874
O103	O	-0.038795	-0.124419	0.714761
O104	O	0.461205	0.375581	1.214761
O105	O	0.150256	-0.124417	0.575522
O106	O	0.650256	0.375583	1.075522
O107	O	0.030331	-0.124432	0.575860
O108	O	0.530331	0.375568	1.075860
O109	O	0.081131	-0.124404	0.714423
O110	O	0.581131	0.375596	1.214423
O111	O	0.070086	-0.243584	0.615573
O112	O	0.570086	0.256416	1.115573
O113	O	0.190011	-0.243569	0.615236
O114	O	0.690011	0.256431	1.115236
O115	O	0.000960	-0.243571	0.754474
O116	O	0.500960	0.256429	1.254474
Zn117	Zn	0.101797	-0.262488	0.691160
Zn118	Zn	0.601797	0.237512	1.191160
Zn119	Zn	0.049419	-0.105500	0.638836
Zn120	Zn	0.549419	0.394500	1.138836
O121	O	0.120885	-0.243556	0.754137
O122	O	0.620885	0.256444	1.254137
N123	N	0.013669	0.001640	0.603123
N124	N	0.513669	0.501640	1.103123
N125	N	0.137749	-0.678230	1.035381
N126	N	0.637749	-0.178230	1.535381
O127	O	0.125655	-0.854547	1.280566
O128	O	0.625655	-0.354547	1.780566
O129	O	-0.013567	-0.665426	1.280590
O130	O	0.486433	-0.165426	1.780590
O131	O	-0.013245	-0.785328	1.280537
O132	O	0.486755	-0.285328	1.780537
O133	O	0.125333	-0.734644	1.280618
O134	O	0.625333	-0.234644	1.780618
O135	O	0.026456	-0.745599	1.161392
O136	O	0.526456	-0.245599	1.661392
O137	O	0.026134	-0.625697	1.161444
O138	O	0.526134	-0.125697	1.661444
O139	O	0.165355	-0.814817	1.161420
O140	O	0.665355	-0.314817	1.661420
Zn141	Zn	0.102048	-0.713949	1.142516
Zn142	Zn	0.602048	-0.213949	1.642516
Zn143	Zn	0.049740	-0.766294	1.299495
Zn144	Zn	0.549740	-0.266294	1.799495
O145	O	0.165033	-0.694915	1.161473
O146	O	0.665033	-0.194915	1.661473
N147	N	0.014038	-0.802020	1.406629
N148	N	0.514038	-0.302020	1.906629
C149	C	0.045634	-0.621635	0.576499
C150	C	0.545634	-0.121635	1.076499
C151	C	0.194019	-0.769918	0.576389
C152	C	0.694019	-0.269918	1.076389
C153	C	0.105616	-0.858555	0.753588
C154	C	0.605616	-0.358555	1.253588
C155	C	-0.042769	-0.710272	0.753698
C156	C	0.457231	-0.210272	1.253698
C157	C	0.631920	-0.828776	0.783102
C158	C	1.131920	-0.328776	1.283102
C159	C	0.631811	-0.828380	0.634616
C160	C	1.131811	-0.328380	1.134616
C161	C	0.631633	-0.651162	0.546422
C162	C	1.131633	-0.151162	1.046422
C163	C	0.631745	-0.651559	0.694907
C164	C	1.131745	-0.151559	1.194907
C165	C	0.193900	-0.183846	0.576155
C166	C	0.693900	0.316154	1.076155
C167	C	0.045437	-0.184012	0.576622
C168	C	0.545437	0.315988	1.076622
C169	C	-0.042734	-0.183994	0.753792
C170	C	0.457266	0.316006	1.253792
C171	C	0.105780	-0.183977	0.753375
C172	C	0.605780	0.316023	1.253375
C173	C	-0.012889	-0.621735	1.221020
C174	C	0.487111	-0.121735	1.721020
C175	C	-0.012483	-0.770211	1.220931
C176	C	0.487517	-0.270211	1.720931
C177	C	0.164678	-0.858508	1.220991
C178	C	0.664678	-0.358508	1.720991
C179	C	0.164280	-0.710023	1.221052
C180	C	0.664280	-0.210023	1.721052
H181	H	0.073862	-0.575336	0.893474
H182	H	0.573862	-0.075336	1.393474
H183	H	0.631735	-0.608016	0.705768
H184	H	1.131735	-0.108016	1.205768
H185	H	0.631558	-0.607440	0.492131
H186	H	1.131558	-0.107440	0.992131
O187	O	0.631959	-0.880398	0.621654
O188	O	1.131959	-0.380398	1.121654
C189	C	0.693698	-0.940794	0.629585
C190	C	1.193698	-0.440794	1.129585
H191	H	0.736813	-0.923620	0.621806
H192	H	1.236813	-0.423620	1.121806
H193	H	0.714394	-0.966199	0.587843
H194	H	1.214394	-0.466199	1.087843
H195	H	0.679812	-0.981399	0.685519
H196	H	1.179812	-0.481399	1.185519
H197	H	0.207816	-0.699179	1.221068
H198	H	0.707816	-0.199179	1.721068
O199	O	0.258771	-0.782583	0.524217
O200	O	0.758771	-0.282583	1.024217
C201	C	0.258837	-0.720965	0.462497
C202	C	0.758837	-0.220965	0.962497
H203	H	0.201393	-0.686841	0.463272
H204	H	0.701393	-0.186841	0.963272
H205	H	0.290693	-0.737644	0.412688
H206	H	0.790693	-0.237644	0.912688
H207	H	0.284480	-0.688587	0.461623
H208	H	0.784480	-0.188587	0.961623
O209	O	0.118472	-0.923457	0.805545
O210	O	0.618472	-0.423457	1.305545
C211	C	0.135316	-0.977410	0.780945
C212	C	0.635316	-0.477410	1.280945
H213	H	0.112234	-0.952967	0.736428
H214	H	0.612234	-0.452967	1.236428
H215	H	0.111354	-1.020284	0.827109
H216	H	0.611354	-0.520284	1.327109
H217	H	0.195979	-1.002608	0.759408
H218	H	0.695979	-0.502608	1.259408
H219	H	-0.056598	-0.567419	1.221026
H220	H	0.443402	-0.067419	1.721026
O221	O	0.016996	-0.617777	1.035310
O222	O	0.516996	-0.117777	1.535310
C223	C	-0.020696	-0.574361	0.986149
C224	C	0.479304	-0.074361	1.486149
H225	H	0.015048	-0.547097	0.932685
H226	H	0.515048	-0.047097	1.432685
H227	H	-0.070737	-0.531926	1.007835
H228	H	0.429263	-0.031926	1.507835
H229	H	-0.036879	-0.608952	0.978176
H230	H	0.463121	-0.108952	1.478176
H231	H	0.631977	-0.872492	0.837399
H232	H	1.131977	-0.372492	1.337399
H233	H	0.248082	-0.183515	0.532333
H234	H	0.748082	0.316485	1.032333
O235	O	0.446016	-0.558502	0.681147
O236	O	0.946016	-0.058502	1.181147
C237	C	0.396828	-0.488560	0.677146
C238	C	0.896828	0.011440	1.177146
H239	H	0.343363	-0.485634	0.682071
H240	H	0.843363	0.014366	1.182071
H241	H	0.418471	-0.448926	0.623545
H242	H	0.918471	0.051074	1.123545
H243	H	0.388877	-0.474562	0.722584
H244	H	0.888877	0.025438	1.222584
H245	H	0.116656	-0.183968	0.796904
H246	H	0.616656	0.316032	1.296904
H247	H	0.034558	-0.184014	0.533090
H248	H	0.534558	0.315986	1.033090
H249	H	-0.097027	-0.183996	0.797505
H250	H	0.402973	0.316004	1.297505
H251	H	0.208389	-0.912821	1.220975
H252	H	0.708389	-0.412821	1.720975
O253	O	0.258605	-0.738615	1.035214
O254	O	0.758605	-0.238615	1.535214
C255	C	0.329020	-0.749213	0.986009
C256	C	0.829020	-0.249213	1.486009
H257	H	0.328850	-0.740828	0.932556
H258	H	0.828850	-0.240828	1.432556
H259	H	0.364656	-0.806093	1.007654
H260	H	0.864656	-0.306093	1.507654
H261	H	0.350495	-0.709289	0.978028
H262	H	0.850495	-0.209289	1.478028
O263	O	-0.064312	-0.783225	1.220810
O264	O	0.435688	-0.283225	1.720810
C265	C	-0.038218	-0.853649	1.220788
C266	C	0.461782	-0.353649	1.720788
H267	H	0.022802	-0.872524	1.198280
H268	H	0.522802	-0.372524	1.698280
H269	H	-0.059993	-0.854652	1.186135
H270	H	0.440007	-0.354652	1.686135
H271	H	-0.056362	-0.890715	1.277930
H272	H	0.443638	-0.390715	1.777930
O273	O	-0.107601	-0.697370	0.805712
O274	O	0.392399	-0.197370	1.305712
C275	C	-0.152123	-0.626979	0.779805
C276	C	0.347877	-0.126979	1.279805
H277	H	-0.117626	-0.592963	0.733799
H278	H	0.382374	-0.092963	1.233799
H279	H	-0.186441	-0.602989	0.824762
H280	H	0.313559	-0.102989	1.324762
H281	H	-0.188305	-0.628064	0.759907
H282	H	0.311695	-0.128064	1.259907
H283	H	0.296108	-0.686456	0.893383
H284	H	0.796108	-0.186456	1.393383
H285	H	0.028452	-0.620662	0.784363
H286	H	0.528452	-0.120662	1.284363
O287	O	0.066143	-0.568458	0.836401
O288	O	0.566143	-0.068458	1.336401
C289	C	0.022740	-0.505559	0.798559
C290	C	0.522740	-0.005559	1.298559
H291	H	0.051668	-0.495120	0.738554
H292	H	0.551668	0.004880	1.238554
H293	H	0.011403	-0.458322	0.811987
H294	H	0.511403	0.041678	1.311987
H295	H	-0.029946	-0.512370	0.814535
H296	H	0.470054	-0.012370	1.314535
O297	O	0.258370	-0.738496	0.666422
O298	O	0.758370	-0.238496	1.166422
C299	C	0.328810	-0.749140	0.655795
C300	C	0.828810	-0.249140	1.155795
H301	H	0.328676	-0.703929	0.664182
H302	H	0.828676	-0.203929	1.164182
H303	H	0.364389	-0.749525	0.598909
H304	H	0.864389	-0.249525	1.098909
H305	H	0.350326	-0.802573	0.695698
H306	H	0.850326	-0.302573	1.195698
H307	H	0.295996	-0.686402	0.718551
H308	H	0.795996	-0.186402	1.218551
O309	O	0.298456	-0.748615	0.821647
O310	O	0.798456	-0.248615	1.321647
C311	C	0.347647	-0.818560	0.825672
C312	C	0.847647	-0.318560	1.325672
H313	H	0.401088	-0.815707	0.781368
H314	H	0.901088	-0.315707	1.281368
H315	H	0.325970	-0.849338	0.818886
H316	H	0.825970	-0.349338	1.318886
H317	H	0.355658	-0.847194	0.880016
H318	H	0.855658	-0.347194	1.380016
H319	H	0.440287	-0.786313	0.770693
H320	H	0.940287	-0.286313	1.270693
O321	O	0.247122	-0.517353	0.655304
O322	O	0.747122	-0.017353	1.155304
C323	C	0.257712	-0.468161	0.584873
C324	C	0.757712	0.031839	1.084873
H325	H	0.212487	-0.414701	0.585028
H326	H	0.712487	0.085299	1.085028
H327	H	0.258078	-0.489823	0.549271
H328	H	0.758078	0.010177	1.049271
H329	H	0.311132	-0.460181	0.563367
H330	H	0.811132	0.039819	1.063367
O331	O	0.298213	-0.509343	0.730603
O332	O	0.798213	-0.009343	1.230603
C333	C	0.254880	-0.499144	0.797549
C334	C	0.754880	0.000856	1.297549
H335	H	0.243665	-0.550706	0.839340
H336	H	0.743665	-0.050706	1.339340
H337	H	0.202132	-0.454107	0.793235
H338	H	0.702132	0.045893	1.293235
H339	H	0.283799	-0.484374	0.814205
H340	H	0.783799	0.015626	1.314205
H341	H	0.084019	-0.375548	0.839959
H342	H	0.584019	0.124452	1.339959
O343	O	0.197696	-0.369573	0.606164
O344	O	0.697696	0.130427	1.106164
C345	C	0.134660	-0.326173	0.588068
C346	C	0.634660	0.173827	1.088068
H347	H	0.089628	-0.348783	0.630355
H348	H	0.589628	0.151217	1.130355
H349	H	0.144511	-0.325307	0.533623
H350	H	0.644511	0.174693	1.033623
H351	H	0.118869	-0.269337	0.585591
H352	H	0.618869	0.230663	1.085591
H353	H	0.129402	-0.511613	0.885274
H354	H	0.629402	-0.011613	1.385274
H355	H	0.034845	-0.567275	0.532897
H356	H	0.534845	-0.067275	1.032897
