data_functionalizedCrystal
_audit_creation_method	'MofGen! by Chris Wilmer'
_symmetry_space_group_name_H-M	'P1'
_symmetry_Int_Tables_number	1
_symmetry_cell_setting	triclinic
loop_
_symmetry_equiv_pos_as_xyz
  x,y,z
_cell_length_a	14.519731
_cell_length_b	14.519731
_cell_length_c	12.376457
_cell_angle_alpha	78.684744
_cell_angle_beta	78.696257
_cell_angle_gamma	96.311147
loop_
_atom_site_label
_atom_site_type_symbol
_atom_site_fract_x
_atom_site_fract_y
_atom_site_fract_z
O1	O	-0.103339	1.241518	-0.093995
O2	O	0.396661	1.741518	0.406005
O3	O	-0.117555	0.973045	-0.093995
O4	O	0.382445	1.473045	0.406005
O5	O	0.023791	1.114391	-0.094004
O6	O	0.523791	1.614391	0.405996
O7	O	-0.244685	1.100172	-0.093987
O8	O	0.255315	1.600172	0.406013
O9	O	-0.011498	1.079067	0.094011
O10	O	0.488502	1.579067	0.594011
O11	O	-0.152844	0.937721	0.094019
O12	O	0.347156	1.437721	0.594019
O13	O	-0.138628	1.206194	0.094019
O14	O	0.361372	1.706194	0.594019
Zn15	Zn	-0.151338	1.066349	0.123870
Zn16	Zn	0.348662	1.566349	0.623870
Zn17	Zn	-0.104845	1.112890	-0.123847
Zn18	Zn	0.395155	1.612890	0.376153
O19	O	-0.279974	1.064848	0.094027
O20	O	0.220026	1.564848	0.594027
C21	C	-0.134533	0.921024	0.000011
C22	C	0.365467	1.421024	0.500011
C23	C	-0.132537	0.818643	0.000011
C24	C	0.367463	1.318643	0.500011
C25	C	-0.130914	0.735500	0.000006
C26	C	0.369086	1.235500	0.500006
C27	C	-0.128888	0.631191	0.000005
C28	C	0.371112	1.131191	0.500005
C29	C	-0.127279	0.548052	0.000005
C30	C	0.372721	1.048052	0.500005
C31	C	-0.125252	0.443737	0.000003
C32	C	0.374748	0.943737	0.500003
C33	C	-0.296689	1.083176	0.000022
C34	C	0.203311	1.583176	0.500022
C35	C	-0.399071	1.085171	0.000028
C36	C	0.100929	1.585171	0.500028
C37	C	-0.482214	1.086794	0.000023
C38	C	0.017786	1.586794	0.500023
C39	C	-0.586521	1.088822	0.000013
C40	C	-0.086521	1.588822	0.500013
C41	C	-0.669659	1.090432	0.000003
C42	C	-0.169659	1.590432	0.500003
C43	C	-0.773973	1.092460	-0.000005
C44	C	-0.273973	1.592460	0.499995
C45	C	0.040507	1.096064	-0.000001
C46	C	0.540507	1.596064	0.499999
C47	C	0.142890	1.094070	-0.000014
C48	C	0.642890	1.594070	0.499986
C49	C	-0.121649	1.258216	0.000009
C50	C	0.378351	1.758216	0.500009
C51	C	-0.123644	1.360598	0.000003
C52	C	0.376356	1.860598	0.500003
N53	N	-0.183069	1.034593	0.292930
N54	N	0.316931	1.534593	0.792930
N55	N	-0.073107	1.144654	-0.292907
N56	N	0.426893	1.644654	0.207093
C57	C	0.000567	1.218370	0.647905
C58	C	0.500567	1.718370	1.147905
C59	C	0.022776	1.240591	0.529564
C60	C	0.522776	1.740591	1.029564
C61	C	-0.028683	1.189093	0.470399
C62	C	0.471317	1.689093	0.970399
C63	C	-0.102355	1.115371	0.529588
C64	C	0.397645	1.615371	1.029588
C65	C	-0.124570	1.093153	0.647941
C66	C	0.375430	1.593153	1.147941
C67	C	-0.153821	1.063876	0.470435
C68	C	0.346179	1.563876	0.970435
C69	C	-0.227492	0.990154	0.529624
C70	C	0.272508	1.490154	1.029624
C71	C	-0.249703	0.967939	0.647965
C72	C	0.250297	1.467939	1.147965
C73	C	-0.198244	1.019436	0.707129
C74	C	0.301756	1.519436	1.207129
C75	C	-0.131606	1.086094	0.352083
C76	C	0.368394	1.586094	0.852083
C77	C	-0.256743	0.960877	0.352119
C78	C	0.243257	1.460877	0.852119
C79	C	-0.278951	0.938656	0.470460
C80	C	0.221049	1.438656	0.970460
H81	H	-0.071622	1.146119	0.303902
H82	H	0.428378	1.646119	0.803902
H83	H	-0.216323	1.001342	0.803492
H84	H	0.283677	1.501342	1.303492
Br85	Br	-0.349699	0.867901	0.728296
Br86	Br	0.150301	1.367901	1.228296
H87	H	-0.298647	0.918944	0.303948
H88	H	0.201353	1.418944	0.803948
Br89	Br	-0.378930	0.838605	0.550798
Br90	Br	0.121070	1.338605	1.050798
Br91	Br	0.122750	1.340639	0.449237
Br92	Br	0.622750	1.840639	0.949237
H93	H	0.042454	1.260298	0.696084
H94	H	0.542454	1.760298	1.196084
Br95	Br	0.001457	1.219250	0.309791
Br96	Br	0.501457	1.719250	0.809791
