data_functionalizedCrystal
_audit_creation_method	'MofGen! by Chris Wilmer'
_symmetry_space_group_name_H-M	'P1'
_symmetry_Int_Tables_number	1
_symmetry_cell_setting	triclinic
loop_
_symmetry_equiv_pos_as_xyz
  x,y,z
_cell_length_a	14.519731
_cell_length_b	14.519709
_cell_length_c	10.868271
_cell_angle_alpha	89.993918
_cell_angle_beta	89.995592
_cell_angle_gamma	83.684499
loop_
_atom_site_label
_atom_site_type_symbol
_atom_site_fract_x
_atom_site_fract_y
_atom_site_fract_z
O1	O	1.223855	0.120985	-0.102328
O2	O	0.955381	0.135201	-0.102330
O3	O	1.096736	-0.006145	-0.102318
O4	O	1.082500	0.262331	-0.102340
O5	O	1.096725	-0.006150	0.102327
O6	O	0.955369	0.135196	0.102315
O7	O	1.223843	0.120980	0.102317
Zn8	Zn	1.089604	0.128087	0.134808
Zn9	Zn	1.089620	0.128094	-0.134820
O10	O	1.082488	0.262326	0.102305
C11	C	0.921016	0.134532	-0.000008
C12	C	0.818635	0.132536	-0.000008
C13	C	0.735491	0.130915	-0.000013
C14	C	0.631182	0.128888	-0.000013
C15	C	0.548043	0.127280	-0.000013
C16	C	0.443728	0.125253	-0.000016
C17	C	1.096067	-0.040507	0.000005
C18	C	1.094079	-0.142889	0.000006
C19	C	1.086759	-0.517785	-0.000026
C20	C	1.088792	-0.413477	-0.000017
C21	C	1.090419	-0.330340	-0.000009
C22	C	1.092452	-0.226025	-0.000002
C23	C	1.258209	0.121649	-0.000008
C24	C	1.360589	0.123645	-0.000015
C25	C	1.083157	0.296688	-0.000020
C26	C	1.085146	0.399070	-0.000029
N27	N	1.089601	0.128081	0.318822
N28	N	1.089631	0.128092	-0.318835
C29	C	1.089615	0.128092	0.569828
C30	C	1.089604	0.128089	0.430150
