data_functionalizedCrystal
_audit_creation_method	'MofGen! by Chris Wilmer'
_symmetry_space_group_name_H-M	'P1'
_symmetry_Int_Tables_number	1
_symmetry_cell_setting	triclinic
loop_
_symmetry_equiv_pos_as_xyz
  x,y,z
_cell_length_a	17.019282
_cell_length_b	9.065218
_cell_length_c	7.540329
_cell_angle_alpha	90.001757
_cell_angle_beta	93.878265
_cell_angle_gamma	95.799574
loop_
_atom_site_label
_atom_site_type_symbol
_atom_site_fract_x
_atom_site_fract_y
_atom_site_fract_z
O1	O	1.048023	-0.187847	0.012641
O2	O	0.818529	-0.211836	-0.022423
O3	O	0.938019	0.014930	-0.004163
O4	O	0.928532	-0.414613	-0.005619
O5	O	0.938012	0.014933	0.290801
O6	O	0.818521	-0.211833	0.272541
O7	O	1.048016	-0.187844	0.307605
Cu8	Cu	0.933268	-0.199838	0.317006
Cu9	Cu	0.933277	-0.199841	-0.031824
O10	O	0.928525	-0.414610	0.289345
C11	C	0.789129	-0.210928	0.120567
C12	C	0.701539	-0.208211	0.107184
C13	C	0.660390	-0.206930	0.261686
C14	C	0.578092	-0.204353	0.249116
C15	C	0.536943	-0.203069	0.082043
C16	C	0.578098	-0.204346	-0.072470
C17	C	0.660396	-0.206912	-0.059899
C18	C	0.288458	-0.195312	0.036041
C19	C	0.206154	-0.192750	0.023481
C20	C	0.206153	-0.192754	0.345069
C21	C	0.288452	-0.195329	0.357625
C22	C	0.329601	-0.196599	0.203112
C23	C	0.452821	-0.200440	0.069190
C24	C	0.413722	-0.199217	0.215967
C25	C	0.937104	0.069893	0.143177
C26	C	0.934378	0.233662	0.142752
C27	C	1.077415	-0.188751	0.164611
C28	C	1.165005	-0.191468	0.177982
C29	C	0.929440	-0.469573	0.142001
C30	C	0.932167	-0.633342	0.142414
N31	N	0.933268	-0.199835	0.562354
N32	N	0.933283	-0.199833	-0.277171
H33	H	0.321950	-0.196368	0.493674
H34	H	0.693898	-0.207959	-0.185711
H35	H	0.419308	-0.199393	-0.066841
H36	H	0.172642	-0.191718	0.470864
H37	H	0.544593	-0.203285	0.374928
H38	H	0.172653	-0.191708	-0.112577
H39	H	0.321951	-0.196340	-0.089775
O40	O	0.700377	-0.208439	0.423940
C41	C	0.739971	-0.337611	0.439599
H42	H	0.709563	-0.426103	0.343711
H43	H	0.804159	-0.310684	0.406210
C44	C	0.774938	-0.286862	0.749109
C45	C	0.737586	-0.395553	0.631348
H46	H	0.773471	-0.322601	0.867389
H47	H	0.748265	-0.199833	0.738559
H48	H	0.828425	-0.264432	0.721262
H49	H	0.684098	-0.417968	0.659181
H50	H	0.764250	-0.482588	0.641907
O51	O	0.453790	-0.200270	0.378158
C52	C	0.509406	-0.074027	0.396298
H53	H	0.524406	-0.031825	0.258986
H54	H	0.483312	0.016381	0.471680
C55	C	0.566723	-0.167094	0.668416
C56	C	0.585151	-0.115269	0.499767
H57	H	0.613445	-0.192530	0.732247
H58	H	0.529251	-0.252144	0.656200
H59	H	0.544977	-0.091745	0.731211
H60	H	0.606888	-0.190624	0.436967
H61	H	0.622629	-0.030232	0.511975
H62	H	0.544589	-0.203290	-0.208505
