data_functionalizedCrystal
_audit_creation_method	'MofGen! by Chris Wilmer'
_symmetry_space_group_name_H-M	'P1'
_symmetry_Int_Tables_number	1
_symmetry_cell_setting	triclinic
loop_
_symmetry_equiv_pos_as_xyz
  x,y,z
_cell_length_a	9.065218
_cell_length_b	10.654550
_cell_length_c	9.130313
_cell_angle_alpha	90.000276
_cell_angle_beta	89.997322
_cell_angle_gamma	95.249592
loop_
_atom_site_label
_atom_site_type_symbol
_atom_site_fract_x
_atom_site_fract_y
_atom_site_fract_z
O1	O	0.207235	-1.668660	-0.121684
O2	O	0.226979	-1.303260	-0.121710
O3	O	0.002423	-1.493513	-0.121693
O4	O	0.431791	-1.478407	-0.121700
O5	O	0.002417	-1.493500	0.121906
O6	O	0.226972	-1.303247	0.121889
O7	O	0.207228	-1.668647	0.121915
Cu8	Cu	0.217100	-1.485946	0.144145
Cu9	Cu	0.217107	-1.485961	-0.143939
O10	O	0.431784	-1.478394	0.121899
C11	C	0.225526	-1.256450	0.000086
C12	C	0.221188	-1.116989	0.000076
C13	C	-0.052559	-1.492055	0.000104
C14	C	-0.216378	-1.487714	0.000096
C15	C	0.208681	-1.715457	0.000116
C16	C	0.213019	-1.854918	0.000117
C17	C	0.486766	-1.479852	0.000098
C18	C	0.650585	-1.484193	0.000096
N19	N	0.217093	-1.485944	0.346767
C20	C	0.353403	-1.038027	0.000078
C21	C	0.349319	-0.906990	0.000104
C22	C	0.080794	-0.933890	0.000119
C23	C	0.084879	-1.064924	0.000104
N24	N	0.217102	-1.485973	-0.346562
C25	C	0.117702	-1.570217	0.423427
C26	C	0.117703	-1.570229	0.576763
C27	C	0.316498	-1.401691	0.576768
C28	C	0.316489	-1.401674	0.423434
H29	H	0.464395	-1.080414	0.000066
Cl30	Cl	0.441441	-1.295716	0.327053
Cl31	Cl	0.515540	-0.807728	0.000108
Cl32	Cl	-0.090557	-0.868427	0.000145
H33	H	0.036768	-1.638850	0.639175
Cl34	Cl	-0.007259	-1.676151	0.327052
Cl35	Cl	-0.081348	-1.164199	0.000113
Cl36	Cl	0.441453	-1.295761	0.673156
