data_functionalizedCrystal
_audit_creation_method	'MofGen! by Chris Wilmer'
_symmetry_space_group_name_H-M	'P1'
_symmetry_Int_Tables_number	1
_symmetry_cell_setting	triclinic
loop_
_symmetry_equiv_pos_as_xyz
  x,y,z
_cell_length_a	17.666332
_cell_length_b	10.489741
_cell_length_c	10.489741
_cell_angle_alpha	84.539174
_cell_angle_beta	89.993858
_cell_angle_gamma	89.993358
loop_
_atom_site_label
_atom_site_type_symbol
_atom_site_fract_x
_atom_site_fract_y
_atom_site_fract_z
O1	O	0.062901	-1.694062	-0.179970
O2	O	0.062913	-1.322867	-0.196863
O3	O	0.062902	-1.516911	-0.002819
O4	O	0.062912	-1.500018	-0.374014
O5	O	-0.062995	-1.516877	-0.002808
O6	O	-0.062984	-1.322832	-0.196852
O7	O	-0.062996	-1.694028	-0.179959
Cu8	Cu	-0.074485	-1.508427	-0.188405
Cu9	Cu	0.074402	-1.508468	-0.188418
O10	O	-0.062985	-1.499984	-0.374004
C11	C	-0.000034	-1.275318	-0.195582
C12	C	-0.000030	-1.133688	-0.191765
C13	C	-0.000046	-1.515618	0.044718
C14	C	-0.000044	-1.511801	0.186348
N15	N	-0.179205	-1.508408	-0.188395
C16	C	-0.218819	-1.594359	-0.102515
C17	C	-0.298067	-1.594366	-0.102509
C18	C	-0.337697	-1.508435	-0.188405
C19	C	-0.298073	-1.422467	-0.274292
C20	C	-0.218827	-1.422454	-0.274287
N21	N	-0.462112	-1.493234	-0.301127
N22	N	-0.537393	-1.493255	-0.301127
C23	C	-0.576461	-1.508469	-0.188423
N24	N	-0.537405	-1.523686	-0.075715
N25	N	-0.462117	-1.523672	-0.075715
C26	C	-0.423626	-1.508439	-0.188420
C27	C	-0.702005	-1.594433	-0.102530
C28	C	-0.781254	-1.594431	-0.102522
C29	C	-0.781258	-1.422538	-0.274315
C30	C	-0.702011	-1.422533	-0.274312
C31	C	-0.662389	-1.508487	-0.188421
N32	N	0.179122	-1.508497	-0.188417
C33	C	-0.000047	-1.741577	-0.181241
C34	C	-0.000047	-1.883206	-0.185058
C35	C	-0.000040	-1.065548	-0.068300
C36	C	0.062034	-0.973438	-0.126629
C37	C	-0.062091	-0.973438	-0.126647
C38	C	0.062095	-1.043444	-0.250144
C39	C	-0.062085	-1.043454	-0.250146
C40	C	0.000004	-0.951371	-0.308564
C41	C	-0.000035	-1.501277	-0.421541
C42	C	-0.000032	-1.505094	-0.563170
C43	C	-0.000035	-1.388336	0.254488
C44	C	-0.062110	-1.446643	0.346616
C45	C	0.062014	-1.446706	0.346580
C46	C	-0.062171	-1.570158	0.276610
C47	C	0.062009	-1.570204	0.276565
C48	C	-0.000081	-1.628600	0.368665
H49	H	-0.186561	-1.664345	-0.032574
O50	O	-0.659284	-1.329830	-0.366955
H51	H	-0.623200	-1.267332	-0.312647
H52	H	-0.114587	-1.394388	0.377632
H53	H	-0.000119	-1.730204	0.418089
O54	O	-0.340809	-1.687087	-0.009892
H55	H	-0.299944	-1.746860	0.049826
O56	O	-0.659276	-1.687106	-0.009846
H57	H	-0.623190	-1.632813	0.052664
H58	H	-0.114710	-1.622339	0.245783
O59	O	0.000008	-1.131266	0.066184
H60	H	0.051604	-1.103379	0.117132
H61	H	0.114511	-0.942438	-0.074393
H62	H	-0.186572	-1.352460	-0.344222
H63	H	0.114633	-1.074286	-0.302349
H64	H	0.000040	-0.901947	-0.410168
O65	O	-0.823987	-1.687153	-0.009903
H66	H	-0.783118	-1.746928	0.049805
O67	O	-0.131595	-1.084593	-0.319276
H68	H	-0.183052	-1.056866	-0.267825
O69	O	-0.823989	-1.329853	-0.366968
H70	H	-0.885750	-1.344305	-0.352551
O71	O	-0.131613	-0.932391	-0.057433
H72	H	-0.131479	-0.978560	0.042270
H73	H	-0.000094	-1.286824	0.204837
O74	O	0.131505	-1.639413	0.235427
H75	H	0.165038	-1.574114	0.167719
O76	O	-0.340810	-1.329787	-0.366947
H77	H	-0.402571	-1.344246	-0.352534
O78	O	0.131533	-1.377514	0.387612
H79	H	0.131400	-1.277810	0.341445
