data_functionalizedCrystal
_audit_creation_method	'MofGen! by Chris Wilmer'
_symmetry_space_group_name_H-M	'P1'
_symmetry_Int_Tables_number	1
_symmetry_cell_setting	triclinic
loop_
_symmetry_equiv_pos_as_xyz
  x,y,z
_cell_length_a	21.295420
_cell_length_b	21.295417
_cell_length_c	19.805399
_cell_angle_alpha	89.969157
_cell_angle_beta	89.981220
_cell_angle_gamma	90.028757
loop_
_atom_site_label
_atom_site_type_symbol
_atom_site_fract_x
_atom_site_fract_y
_atom_site_fract_z
Zn1	Zn	0.962319	-0.250653	-0.382690
Zn2	Zn	0.962232	-0.355922	-0.269495
Zn3	Zn	0.857053	-0.250667	-0.269516
Zn4	Zn	0.857011	-0.355885	-0.382644
O5	O	0.909654	-0.303282	-0.326086
O6	O	1.050396	-0.264627	-0.367685
O7	O	0.948261	-0.341981	-0.174781
O8	O	0.871070	-0.162576	-0.284557
O9	O	1.050333	-0.341967	-0.284521
O10	O	0.948409	-0.162566	-0.367705
O11	O	0.870986	-0.264651	-0.174797
O12	O	0.768958	-0.264615	-0.284512
O13	O	0.870999	-0.341905	-0.477366
O14	O	0.768927	-0.341918	-0.367626
O15	O	0.948368	-0.264591	-0.477400
O16	O	0.948220	-0.444006	-0.284476
O17	O	0.870915	-0.443980	-0.367606
C18	C	0.746102	-0.303265	-0.326067
C19	C	0.676134	-0.303273	-0.326075
C20	C	0.176677	-0.343608	-0.369322
C21	C	0.242419	-0.343608	-0.369315
C22	C	0.275294	-0.303296	-0.326107
C23	C	0.242422	-0.262993	-0.282892
C24	C	0.176681	-0.262998	-0.282895
N25	N	0.378536	-0.248179	-0.321019
N26	N	0.440987	-0.248176	-0.321019
C27	C	0.473369	-0.303278	-0.326093
N28	N	0.440941	-0.358385	-0.331179
N29	N	0.378483	-0.358388	-0.331182
C30	C	0.346580	-0.303286	-0.326099
C31	C	0.577519	-0.343583	-0.369295
C32	C	0.643263	-0.343584	-0.369283
C33	C	0.643265	-0.262963	-0.282864
C34	C	0.577522	-0.262967	-0.282872
C35	C	0.544653	-0.303277	-0.326091
C36	C	0.909571	-0.466834	-0.326049
C37	C	0.909593	-0.536802	-0.326055
C38	C	0.949882	-0.569661	-0.282814
C39	C	0.949911	-0.635404	-0.282829
C40	C	0.909641	-0.668284	-0.326079
C41	C	0.869350	-0.635416	-0.369328
C42	C	0.869326	-0.569675	-0.369317
N43	N	0.854574	-0.771548	-0.331232
N44	N	0.854598	-0.834000	-0.331239
C45	C	0.909712	-0.866359	-0.326117
N46	N	0.964801	-0.833907	-0.320975
N47	N	0.964776	-0.771450	-0.320964
C48	C	0.909663	-0.739569	-0.326096
C49	C	0.950036	-0.970504	-0.282890
C50	C	0.950066	-1.036248	-0.282910
C51	C	0.869499	-1.036259	-0.369406
C52	C	0.869474	-0.970517	-0.369389
C53	C	0.909741	-0.937643	-0.326128
C54	C	1.073844	-0.303299	-0.326106
C55	C	1.143812	-0.303307	-0.326115
C56	C	0.909689	-0.303242	-0.502629
C57	C	0.909704	-0.303225	-0.577861
C58	C	0.909754	-0.139092	-0.326139
C59	C	0.909796	-0.069123	-0.326161
C60	C	0.949991	-0.262966	-0.613224
C61	C	0.949997	-0.262948	-0.683913
C62	C	0.909720	-0.303192	-0.719237
C63	C	0.869428	-0.343453	-0.683869
C64	C	0.869419	-0.343468	-0.613182
C65	C	0.869464	-0.343395	-0.968942
C66	C	0.869477	-0.343378	-1.039634
C67	C	0.950042	-0.262875	-1.039673
C68	C	0.950033	-0.262889	-0.968986
C69	C	0.909739	-0.303148	-0.933624
C70	C	0.909732	-0.303166	-0.856976
C71	C	0.909730	-0.303178	-0.795884
C72	C	0.909655	-0.303276	-0.150230
C73	C	0.909762	-0.303116	-0.074999
H74	H	0.670031	-0.230143	-0.247681
O75	O	0.830360	-0.382671	-0.578854
C76	C	0.844076	-0.445406	-0.596121
H77	H	0.894364	-0.448581	-0.615568
H78	H	0.810319	-0.461854	-0.637134
C79	C	0.774965	-0.483530	-0.509423
C80	C	0.836731	-0.487430	-0.533303
H81	H	0.770432	-0.509454	-0.470676
H82	H	0.765722	-0.441265	-0.497792
H83	H	0.746841	-0.497236	-0.543607
H84	H	0.864853	-0.473717	-0.499123
H85	H	0.845979	-0.529695	-0.544928
O86	O	0.989128	-0.667271	-0.240853
C87	C	1.051862	-0.651170	-0.255697
H88	H	1.053154	-0.603417	-0.281703
H89	H	1.073056	-0.688131	-0.290522
C90	C	1.088427	-0.706810	-0.157799
C91	C	1.090014	-0.648157	-0.189734
H92	H	1.111963	-0.704955	-0.117111
H93	H	1.046163	-0.717660	-0.147799
H94	H	1.106088	-0.737605	-0.186826
H95	H	1.072347	-0.617365	-0.160710
H96	H	1.132277	-0.637302	-0.199728
H97	H	0.149919	-0.376433	-0.404512
H98	H	0.982804	-0.230166	-0.712702
O99	O	0.830447	-1.068162	-0.411517
C100	C	0.844151	-1.052026	-0.478985
H101	H	0.894432	-1.033908	-0.482448
H102	H	0.810378	-1.013883	-0.496636
C103	C	0.775067	-1.132654	-0.519911
C104	C	0.836824	-1.110405	-0.524165
H105	H	0.770545	-1.168663	-0.547782
H106	H	0.765832	-1.143523	-0.474457
H107	H	0.746930	-1.100862	-0.534619
H108	H	0.864960	-1.142194	-0.509450
H109	H	0.846064	-1.099542	-0.569618
O110	O	0.545555	-0.382650	-0.411342
C111	C	0.507550	-0.346862	-0.455119
H112	H	0.527390	-0.297289	-0.459395
H113	H	0.457720	-0.344667	-0.434197
C114	C	0.482180	-0.438585	-0.520169
C115	C	0.506550	-0.377700	-0.525426
H116	H	0.481560	-0.457608	-0.563537
H117	H	0.507782	-0.462697	-0.490675
H118	H	0.440657	-0.436747	-0.502732
H119	H	0.548075	-0.379539	-0.542855
H120	H	0.480954	-0.353589	-0.554925
O121	O	0.545691	-0.223754	-0.240884
C122	C	0.588802	-0.188184	-0.202734
H123	H	0.635676	-0.186034	-0.230458
H124	H	0.595765	-0.211174	-0.151282
C125	C	0.505599	-0.123818	-0.159060
C126	C	0.563169	-0.121173	-0.193114
H127	H	0.489786	-0.082484	-0.153123
H128	H	0.476553	-0.147784	-0.184761
H129	H	0.511409	-0.142979	-0.116188
H130	H	0.557356	-0.102019	-0.235989
H131	H	0.592213	-0.097202	-0.167420
O132	O	0.989226	-1.068073	-0.240840
C133	C	1.024769	-1.024957	-0.202669
H134	H	0.998968	-0.978119	-0.200292
H135	H	1.072563	-1.017904	-0.227496
C136	C	1.065576	-1.108183	-0.133565
C137	C	1.033884	-1.050657	-0.130641
H138	H	1.071201	-1.124037	-0.089136
H139	H	1.041632	-1.137231	-0.159284
H140	H	1.105401	-1.102298	-0.154258
H141	H	0.994057	-1.056544	-0.109956
H142	H	1.057822	-1.021610	-0.104917
H143	H	0.836563	-0.662192	-0.404543
H144	H	0.149923	-0.230178	-0.247711
H145	H	0.836518	-0.542920	-0.404530
H146	H	0.269183	-0.376426	-0.404501
O147	O	0.988911	-0.537703	-0.240723
C148	C	0.953086	-0.499722	-0.196975
H149	H	0.903515	-0.519575	-0.192749
H150	H	0.950892	-0.449885	-0.217890
C151	C	1.044762	-0.474352	-0.131832
C152	C	0.983879	-0.498739	-0.126637
H153	H	1.063757	-0.473742	-0.088445
H154	H	1.068899	-0.499938	-0.161307
H155	H	1.042925	-0.432823	-0.149263
H156	H	0.985717	-0.540269	-0.109214
H157	H	0.959743	-0.473159	-0.097157
O158	O	0.989063	-0.938537	-0.240803
C159	C	0.953234	-0.900560	-0.197053
H160	H	0.903667	-0.920421	-0.192825
H161	H	0.951032	-0.850724	-0.217969
C162	C	1.044909	-0.875174	-0.131916
C163	C	0.984030	-0.899571	-0.126717
H164	H	1.063906	-0.874561	-0.088530
H165	H	1.069048	-0.900758	-0.161392
H166	H	1.043065	-0.833646	-0.149348
H167	H	0.985876	-0.941100	-0.109293
H168	H	0.959892	-0.873994	-0.097237
O169	O	0.830421	-0.938566	-0.411461
C170	C	0.866219	-0.900466	-0.455196
H171	H	0.915803	-0.920231	-0.459431
H172	H	0.868381	-0.850654	-0.434262
C173	C	0.774525	-0.875161	-0.520325
C174	C	0.835423	-0.899440	-0.525532
H175	H	0.755527	-0.874526	-0.563711
H176	H	0.750406	-0.900828	-0.490859
H177	H	0.776334	-0.833653	-0.502878
H178	H	0.833612	-0.940950	-0.542971
H179	H	0.859541	-0.873780	-0.555003
H180	H	0.982849	-0.230092	-1.068473
O181	O	0.989178	-0.223736	-0.934778
C182	C	1.024750	-0.188207	-0.981149
H183	H	0.998975	-0.186015	-1.031534
H184	H	1.072546	-0.211261	-0.988667
C185	C	1.065513	-0.123910	-0.891701
C186	C	1.033854	-0.121213	-0.953583
H187	H	1.071132	-0.082585	-0.874697
H188	H	1.041550	-0.147848	-0.860459
H189	H	1.105340	-0.143125	-0.897975
H190	H	0.994025	-0.102006	-0.947307
H191	H	1.057811	-0.097271	-0.984823
O192	O	0.989138	-0.223813	-0.579018
C193	C	1.024707	-0.188286	-0.625392
H194	H	0.998930	-0.186094	-0.675775
H195	H	1.072503	-0.211341	-0.632912
C196	C	1.065476	-0.123987	-0.535949
C197	C	1.033814	-0.121291	-0.597829
H198	H	1.071097	-0.082662	-0.518946
H199	H	1.041515	-0.147923	-0.504705
H200	H	1.105303	-0.143202	-0.542224
H201	H	0.993986	-0.102083	-0.591551
H202	H	1.057769	-0.097349	-0.629071
O203	O	0.830287	-0.382491	-1.073845
C204	C	0.794730	-0.418038	-1.027477
H205	H	0.792558	-0.392266	-0.977096
H206	H	0.817747	-0.465854	-1.019947
C207	C	0.730401	-0.458744	-1.116933
C208	C	0.727728	-0.427088	-1.055056
H209	H	0.689072	-0.464329	-1.133946
H210	H	0.754357	-0.434798	-1.148173
H211	H	0.749584	-0.498587	-1.110650
H212	H	0.708553	-0.387243	-1.061342
H213	H	0.703767	-0.451028	-1.023818
H214	H	0.836631	-0.376219	-0.712635
O215	O	0.274424	-0.223921	-0.240888
C216	C	0.312411	-0.259708	-0.197092
H217	H	0.322247	-0.307439	-0.220873
H218	H	0.287057	-0.266568	-0.146920
C219	C	0.362789	-0.166429	-0.155695
C220	C	0.374874	-0.225052	-0.184905
H221	H	0.401318	-0.145052	-0.148174
H222	H	0.337195	-0.142318	-0.185199
H223	H	0.341659	-0.172155	-0.113887
H224	H	0.395997	-0.219326	-0.226715
H225	H	0.400473	-0.249161	-0.155408
O226	O	0.830411	-0.382535	-0.934530
C227	C	0.866210	-0.423223	-0.893645
H228	H	0.913926	-0.401032	-0.883057
H229	H	0.873105	-0.469864	-0.920879
C230	C	0.772939	-0.461893	-0.839503
C231	C	0.831542	-0.434635	-0.826494
H232	H	0.751554	-0.468936	-0.798083
H233	H	0.748820	-0.434483	-0.867050
H234	H	0.778693	-0.500758	-0.862199
H235	H	0.825787	-0.395768	-0.803807
H236	H	0.855660	-0.462039	-0.798942
H237	H	0.670020	-0.376406	-0.404466
