data_functionalizedCrystal
_audit_creation_method	'MofGen! by Chris Wilmer'
_symmetry_space_group_name_H-M	'P1'
_symmetry_Int_Tables_number	1
_symmetry_cell_setting	triclinic
loop_
_symmetry_equiv_pos_as_xyz
  x,y,z
_cell_length_a	21.395362
_cell_length_b	21.295417
_cell_length_c	21.295412
_cell_angle_alpha	89.969860
_cell_angle_beta	89.964183
_cell_angle_gamma	90.045579
loop_
_atom_site_label
_atom_site_type_symbol
_atom_site_fract_x
_atom_site_fract_y
_atom_site_fract_z
Zn1	Zn	0.957814	-0.250355	-0.356241
Zn2	Zn	1.457814	0.249645	0.143759
Zn3	Zn	0.957733	-0.355624	-0.250969
Zn4	Zn	1.457733	0.144376	0.249031
Zn5	Zn	0.853043	-0.250402	-0.250951
Zn6	Zn	1.353043	0.249598	0.249049
Zn7	Zn	0.853000	-0.355619	-0.356165
Zn8	Zn	1.353000	0.144381	0.143835
O9	O	0.905397	-0.303000	-0.303582
O10	O	1.405397	0.197000	0.196418
O11	O	1.045481	-0.264301	-0.342316
O12	O	1.545481	0.235699	0.157684
O13	O	0.943830	-0.341688	-0.162877
O14	O	1.443830	0.158312	0.337123
O15	O	0.866994	-0.162306	-0.264943
O16	O	1.366994	0.337694	0.235057
O17	O	1.045421	-0.341642	-0.264973
O18	O	1.545421	0.158358	0.235027
O19	O	0.943968	-0.162272	-0.342299
O20	O	1.443968	0.337728	0.157701
O21	O	0.866915	-0.264382	-0.162864
O22	O	1.366915	0.235618	0.337136
O23	O	0.765360	-0.264377	-0.264868
O24	O	1.265360	0.235623	0.235132
O25	O	0.866919	-0.341634	-0.444264
O26	O	1.366919	0.158366	0.055736
O27	O	0.765328	-0.341680	-0.342169
O28	O	1.265328	0.158320	0.157831
O29	O	0.943925	-0.264297	-0.444321
O30	O	1.443925	0.235703	0.055679
O31	O	0.943788	-0.443713	-0.264899
O32	O	1.443788	0.056287	0.235101
O33	O	0.866841	-0.443709	-0.342186
O34	O	1.366841	0.056291	0.157814
C35	C	0.742610	-0.303033	-0.303508
C36	C	1.242610	0.196967	0.196492
C37	C	0.672968	-0.303063	-0.303492
C38	C	1.172968	0.196937	0.196508
C39	C	0.640255	-0.343368	-0.343682
C40	C	1.140255	0.156632	0.156318
C41	C	0.574820	-0.343352	-0.343710
C42	C	1.074820	0.156648	0.156290
C43	C	0.542100	-0.303039	-0.303537
C44	C	1.042100	0.196961	0.196463
C45	C	0.574822	-0.262726	-0.263344
C46	C	1.074822	0.237274	0.236656
C47	C	0.640256	-0.262738	-0.263322
C48	C	1.140256	0.237262	0.236678
C49	C	0.438383	-0.297977	-0.246867
C50	C	0.938383	0.202023	0.253133
C51	C	0.372950	-0.297969	-0.246889
C52	C	0.872950	0.202031	0.253111
C53	C	0.340279	-0.302997	-0.303607
C54	C	0.840279	0.197003	0.196393
C55	C	0.373050	-0.308047	-0.360305
C56	C	0.873050	0.191953	0.139695
C57	C	0.438484	-0.308059	-0.360282
C58	C	0.938484	0.191941	0.139718
C59	C	0.471148	-0.303021	-0.303557
C60	C	0.971148	0.196979	0.196443
C61	C	0.236613	-0.343288	-0.343830
C62	C	0.736613	0.156712	0.156170
C63	C	0.171177	-0.343268	-0.343859
C64	C	0.671177	0.156732	0.156141
C65	C	0.171180	-0.262645	-0.263488
C66	C	0.671180	0.237355	0.236512
C67	C	0.236615	-0.262661	-0.263464
C68	C	0.736615	0.237339	0.236536
C69	C	0.269328	-0.302986	-0.303635
C70	C	0.769328	0.197014	0.196365
C71	C	0.905318	-0.466552	-0.303550
C72	C	1.405318	0.033448	0.196450
C73	C	0.905341	-0.536520	-0.303557
C74	C	1.405341	-0.036520	0.196443
C75	C	0.945398	-0.569311	-0.343865
C76	C	1.445398	-0.069311	0.156135
C77	C	0.945420	-0.635054	-0.343881
C78	C	1.445420	-0.135054	0.156119
C79	C	0.905391	-0.668002	-0.303577
C80	C	1.405391	-0.168002	0.196423
C81	C	0.865326	-0.635203	-0.263266
C82	C	1.365326	-0.135203	0.236734
C83	C	0.865301	-0.569462	-0.263256
C84	C	1.365301	-0.069462	0.236744
N85	N	0.900662	-0.771265	-0.248484
N86	N	1.400662	-0.271265	0.251516
N87	N	0.900690	-0.833717	-0.248495
N88	N	1.400690	-0.333717	0.251505
C89	C	0.905465	-0.866077	-0.303605
C90	C	1.405465	-0.366077	0.196395
N91	N	0.910223	-0.833627	-0.358705
N92	N	1.410223	-0.333627	0.141295
N93	N	0.910198	-0.771170	-0.358693
N94	N	1.410198	-0.271170	0.141307
C95	C	0.905414	-0.739288	-0.303583
C96	C	1.405414	-0.239288	0.196417
C97	C	0.945548	-0.970154	-0.343934
C98	C	1.445548	-0.470154	0.156066
C99	C	0.945566	-1.035898	-0.343950
C100	C	1.445566	-0.535898	0.156050
C101	C	0.865475	-1.036046	-0.263330
C102	C	1.365475	-0.536046	0.236670
C103	C	0.865454	-0.970303	-0.263319
C104	C	1.365454	-0.470303	0.236681
C105	C	0.905494	-0.937361	-0.303620
C106	C	1.405494	-0.437361	0.196380
C107	C	1.068821	-0.302967	-0.303655
C108	C	1.568821	0.197033	0.196345
C109	C	1.138462	-0.302953	-0.303687
C110	C	1.638462	0.197047	0.196313
C111	C	0.905426	-0.302959	-0.467772
C112	C	1.405426	0.197041	0.032228
C113	C	0.905439	-0.302942	-0.537740
C114	C	1.405439	0.197058	-0.037740
C115	C	0.905495	-0.138810	-0.303627
C116	C	1.405495	0.361190	0.196373
C117	C	0.905536	-0.068842	-0.303647
C118	C	1.405536	0.431158	0.196353
C119	C	0.945595	-0.262573	-1.037229
C120	C	1.445595	0.237427	-0.537229
C121	C	0.945590	-0.262588	-0.971486
C122	C	1.445590	0.237412	-0.471486
C123	C	0.905493	-0.302859	-0.938580
C124	C	1.405493	0.197141	-0.438580
C125	C	0.865409	-0.343129	-0.971421
C126	C	1.365409	0.156871	-0.471421
C127	C	0.865419	-0.343117	-1.037163
C128	C	1.365419	0.156883	-0.537163
N129	N	0.850629	-0.307718	-0.835332
N130	N	1.350629	0.192282	-0.335332
N131	N	0.850621	-0.307726	-0.772881
N132	N	1.350621	0.192274	-0.272881
C133	C	0.905460	-0.302898	-0.740505
C134	C	1.405460	0.197102	-0.240505
N135	N	0.960309	-0.298051	-0.772939
N136	N	1.460309	0.201949	-0.272939
N137	N	0.960316	-0.298040	-0.835397
N138	N	1.460316	0.201960	-0.335397
C139	C	0.905477	-0.302877	-0.867294
C140	C	1.405477	0.197123	-0.367294
C141	C	0.945539	-0.262650	-0.636386
C142	C	1.445539	0.237350	-0.136386
C143	C	0.945536	-0.262670	-0.570642
C144	C	1.445536	0.237330	-0.070642
C145	C	0.865348	-0.343208	-0.570578
C146	C	1.365348	0.156792	-0.070578
C147	C	0.865358	-0.343191	-0.636321
C148	C	1.365358	0.156809	-0.136321
C149	C	0.905452	-0.302909	-0.669221
C150	C	1.405452	0.197091	-0.169221
C151	C	0.905405	-0.302995	-0.140030
C152	C	1.405405	0.197005	0.359970
C153	C	0.905514	-0.302835	-0.070062
C154	C	1.405514	0.197165	0.429938
H155	H	0.144543	-0.376088	-0.376591
H156	H	0.644543	0.123912	0.123409
H157	H	0.978187	-0.229850	-0.663174
H158	H	1.478187	0.270150	-0.163174
H159	H	0.832733	-0.662034	-0.230451
H160	H	1.332733	-0.162034	0.269549
H161	H	0.978035	-0.661758	-0.376712
H162	H	1.478035	-0.161758	0.123288
H163	H	0.465162	-0.312168	-0.406448
H164	H	0.965162	0.187832	0.093552
H165	H	0.263250	-0.376119	-0.376543
H166	H	0.763250	0.123881	0.123457
H167	H	0.978179	-0.229885	-0.543910
H168	H	1.478179	0.270115	-0.043910
H169	H	0.548177	-0.229901	-0.230636
H170	H	1.048177	0.270099	0.269364
H171	H	0.832716	-0.375975	-0.663054
H172	H	1.332716	0.124025	-0.163054
H173	H	0.977999	-0.542492	-0.376682
H174	H	1.477999	-0.042492	0.123318
H175	H	0.832879	-1.062872	-0.230517
H176	H	1.332879	-0.562872	0.269483
H177	H	0.832779	-0.375905	-1.063896
H178	H	1.332779	0.124095	-0.563896
H179	H	0.978186	-1.062595	-0.376777
H180	H	1.478186	-0.562595	0.123223
H181	H	0.978229	-0.229799	-0.944748
H182	H	1.478229	0.270201	-0.444748
H183	H	0.832680	-0.542762	-0.230431
H184	H	1.332680	-0.042762	0.269569
H185	H	0.832703	-0.375999	-0.543787
H186	H	1.332703	0.124001	-0.043787
H187	H	0.978149	-0.943332	-0.376752
H188	H	1.478149	-0.443332	0.123248
H189	H	0.666886	-0.376202	-0.376393
H190	H	1.166886	0.123798	0.123607
H191	H	0.832838	-0.943603	-0.230493
H192	H	1.332838	-0.443603	0.269507
H193	H	0.144541	-0.229818	-0.230781
H194	H	0.644541	0.270182	0.269219
H195	H	0.978246	-0.229775	-1.064011
H196	H	1.478246	0.270225	-0.564011
H197	H	0.548179	-0.376173	-0.376440
H198	H	1.048179	0.123827	0.123560
H199	H	0.346450	-0.312140	-0.406490
H200	H	0.846450	0.187860	0.093510
H201	H	0.832762	-0.375919	-0.944625
H202	H	1.332762	0.124081	-0.444625
H203	H	0.666891	-0.229915	-0.230594
H204	H	1.166891	0.270085	0.269406
H205	H	0.346274	-0.293862	-0.200721
H206	H	0.846274	0.206138	0.299279
H207	H	0.263251	-0.229844	-0.230734
H208	H	0.763251	0.270156	0.269266
H209	H	0.464979	-0.293880	-0.200678
H210	H	0.964979	0.206120	0.299322
