data_functionalizedCrystal
_audit_creation_method	'MofGen! by Chris Wilmer'
_symmetry_space_group_name_H-M	'P1'
_symmetry_Int_Tables_number	1
_symmetry_cell_setting	triclinic
loop_
_symmetry_equiv_pos_as_xyz
  x,y,z
_cell_length_a	11.792241
_cell_length_b	14.519709
_cell_length_c	13.596369
_cell_angle_alpha	90.006934
_cell_angle_beta	90.001112
_cell_angle_gamma	83.936780
loop_
_atom_site_label
_atom_site_type_symbol
_atom_site_fract_x
_atom_site_fract_y
_atom_site_fract_z
O1	O	1.506209	0.126405	0.081698
O2	O	1.756209	0.376405	0.331698
O3	O	2.006209	0.626405	0.581698
O4	O	2.256209	0.876405	0.831698
O5	O	1.175796	0.139433	0.081721
O6	O	1.425796	0.389433	0.331721
O7	O	1.675796	0.639433	0.581721
O8	O	1.925796	0.889433	0.831721
O9	O	1.349763	-0.001287	0.081700
O10	O	1.599763	0.248713	0.331700
O11	O	1.849763	0.498713	0.581700
O12	O	2.099763	0.748713	0.831700
O13	O	1.332242	0.267125	0.081719
O14	O	1.582242	0.517125	0.331719
O15	O	1.832242	0.767125	0.581719
O16	O	2.082242	1.017125	0.831719
O17	O	1.349746	-0.001295	-0.081883
O18	O	1.599746	0.248705	0.168117
O19	O	1.849746	0.498705	0.418117
O20	O	2.099746	0.748705	0.668117
O21	O	1.175779	0.139425	-0.081862
O22	O	1.425779	0.389425	0.168138
O23	O	1.675779	0.639425	0.418138
O24	O	1.925779	0.889425	0.668138
O25	O	1.506192	0.126398	-0.081885
O26	O	1.756192	0.376398	0.168115
O27	O	2.006192	0.626398	0.418115
O28	O	2.256192	0.876398	0.668115
Zn29	Zn	1.340982	0.132910	-0.107845
Zn30	Zn	1.590982	0.382910	0.142155
Zn31	Zn	1.840982	0.632910	0.392155
Zn32	Zn	2.090982	0.882910	0.642155
Zn33	Zn	1.341005	0.132920	0.107682
Zn34	Zn	1.591005	0.382920	0.357682
Zn35	Zn	1.841005	0.632920	0.607682
Zn36	Zn	2.091005	0.882920	0.857682
O37	O	1.332225	0.267118	-0.081864
O38	O	1.582225	0.517118	0.168136
O39	O	1.832225	0.767118	0.418136
O40	O	2.082225	1.017118	0.668136
C41	C	1.133501	0.138611	-0.000067
C42	C	1.383501	0.388611	0.249933
C43	C	1.633501	0.638611	0.499933
C44	C	1.883501	0.888611	0.749933
C45	C	1.007501	0.136161	-0.000059
C46	C	1.257501	0.386161	0.249941
C47	C	1.507501	0.636161	0.499941
C48	C	1.757501	0.886161	0.749941
C49	C	0.776813	0.131657	-0.000087
C50	C	1.026813	0.381657	0.249913
C51	C	1.276813	0.631657	0.499913
C52	C	1.526813	0.881657	0.749913
C53	C	0.905185	0.134160	-0.000072
C54	C	1.155185	0.384160	0.249928
C55	C	1.405185	0.634160	0.499928
C56	C	1.655185	0.884160	0.749928
C57	C	1.548487	0.127220	-0.000094
C58	C	1.798487	0.377220	0.249906
C59	C	2.048487	0.627220	0.499906
C60	C	2.298487	0.877220	0.749906
C61	C	1.674487	0.129669	-0.000096
C62	C	1.924487	0.379669	0.249904
C63	C	2.174487	0.629669	0.499904
C64	C	2.424487	0.879669	0.749904
C65	C	1.348938	-0.035654	-0.000091
C66	C	1.598938	0.214346	0.249909
C67	C	1.848938	0.464346	0.499909
C68	C	2.098938	0.714346	0.749909
C69	C	1.346491	-0.138044	-0.000092
C70	C	1.596491	0.111956	0.249908
C71	C	1.846491	0.361956	0.499908
C72	C	2.096491	0.611956	0.749908
C73	C	1.337483	-0.512973	-0.000065
C74	C	1.587483	-0.262973	0.249935
C75	C	1.837483	-0.012973	0.499935
C76	C	2.087483	0.237027	0.749935
C77	C	1.339984	-0.408656	-0.000073
C78	C	1.589984	-0.158656	0.249927
C79	C	1.839984	0.091344	0.499927
C80	C	2.089984	0.341344	0.749927
C81	C	1.341987	-0.325512	-0.000079
C82	C	1.591987	-0.075512	0.249921
C83	C	1.841987	0.174488	0.499921
C84	C	2.091987	0.424488	0.749921
C85	C	1.344489	-0.221188	-0.000085
C86	C	1.594489	0.028812	0.249915
C87	C	1.844489	0.278812	0.499915
C88	C	2.094489	0.528812	0.749915
C89	C	1.333050	0.301484	-0.000070
C90	C	1.583050	0.551484	0.249930
C91	C	1.833050	0.801484	0.499930
C92	C	2.083050	1.051484	0.749930
C93	C	1.335497	0.403875	-0.000063
C94	C	1.585497	0.653875	0.249937
C95	C	1.835497	0.903875	0.499937
C96	C	2.085497	1.153875	0.749937
N97	N	1.340975	0.132903	-0.254937
N98	N	1.590975	0.382903	-0.004937
N99	N	1.840975	0.632903	0.245063
N100	N	2.090975	0.882903	0.495063
C101	C	1.341004	0.132921	-0.656228
C102	C	1.591004	0.382921	-0.406228
C103	C	1.841004	0.632921	-0.156228
C104	C	2.091004	0.882921	0.093772
C105	C	1.340992	0.132919	-0.544577
C106	C	1.590992	0.382919	-0.294577
C107	C	1.840992	0.632919	-0.044577
C108	C	2.090992	0.882919	0.205423
C109	C	1.340990	0.132913	-0.455586
C110	C	1.590990	0.382913	-0.205586
C111	C	1.840990	0.632913	0.044414
C112	C	2.090990	0.882913	0.294414
C113	C	1.340978	0.132909	-0.343928
C114	C	1.590978	0.382909	-0.093928
C115	C	1.840978	0.632909	0.156072
C116	C	2.090978	0.882909	0.406072
N117	N	1.341022	0.132920	0.254774
N118	N	1.591022	0.382920	0.504774
N119	N	1.841022	0.632920	0.754774
N120	N	2.091022	0.882920	1.004774
