data_functionalizedCrystal
_audit_creation_method	'MofGen! by Chris Wilmer'
_symmetry_space_group_name_H-M	'P1'
_symmetry_Int_Tables_number	1
_symmetry_cell_setting	triclinic
loop_
_symmetry_equiv_pos_as_xyz
  x,y,z
_cell_length_a	19.188930
_cell_length_b	14.519709
_cell_length_c	18.266242
_cell_angle_alpha	89.992715
_cell_angle_beta	89.977082
_cell_angle_gamma	83.412462
loop_
_atom_site_label
_atom_site_type_symbol
_atom_site_fract_x
_atom_site_fract_y
_atom_site_fract_z
O1	O	-0.926559	-0.115137	0.061118
O2	O	-0.426559	0.384863	0.561118
O3	O	-0.723303	-0.130636	0.061068
O4	O	-0.223303	0.369364	0.561068
O5	O	-0.830320	0.011385	0.061088
O6	O	-0.330320	0.511385	0.561088
O7	O	-0.819542	-0.257158	0.061098
O8	O	-0.319542	0.242842	0.561098
O9	O	-0.830302	0.011393	-0.060674
O10	O	-0.330302	0.511393	0.439326
O11	O	-0.723285	-0.130629	-0.060694
O12	O	-0.223285	0.369371	0.439306
O13	O	-0.926541	-0.115130	-0.060644
O14	O	-0.426541	0.384870	0.439356
Zn15	Zn	-0.824910	-0.122878	-0.080001
Zn16	Zn	-0.324910	0.377122	0.419999
Zn17	Zn	-0.824934	-0.122888	0.080425
Zn18	Zn	-0.324934	0.377112	0.580425
O19	O	-0.819524	-0.257151	-0.060664
O20	O	-0.319524	0.242849	0.439336
C21	C	-0.829809	0.045746	0.000206
C22	C	-0.329809	0.545746	0.500206
C23	C	-0.828304	0.148118	0.000206
C24	C	-0.328304	0.648118	0.500206
C25	C	-0.697281	-0.130131	0.000181
C26	C	-0.197281	0.369869	0.500181
C27	C	-0.619771	-0.128624	0.000161
C28	C	-0.119771	0.371376	0.500161
C29	C	-0.952563	-0.115635	0.000245
C30	C	-0.452563	0.384365	0.500245
C31	C	-1.030073	-0.117142	0.000269
C32	C	-0.530073	0.382858	0.500269
C33	C	-0.575144	-0.211957	0.000176
C34	C	-0.075144	0.288043	0.500176
C35	C	-0.502315	-0.210542	0.000184
C36	C	-0.002315	0.289458	0.500184
C37	C	-0.474117	-0.125788	0.000192
C38	C	0.025883	0.374212	0.500192
C39	C	-0.518754	-0.042444	0.000173
C40	C	-0.018754	0.457556	0.500173
C41	C	-0.591581	-0.043861	0.000158
C42	C	-0.091581	0.456139	0.500158
N43	N	-0.365912	-0.061007	0.041660
N44	N	0.134088	0.438993	0.541660
N45	N	-0.296729	-0.059666	0.041676
N46	N	0.203271	0.440334	0.541676
C47	C	-0.254693	-0.121511	0.000237
C48	C	0.245307	0.378489	0.500237
N49	N	-0.284453	-0.184762	-0.041210
N50	N	0.215547	0.315238	0.458790
N51	N	-0.353642	-0.186106	-0.041223
N52	N	0.146358	0.313894	0.458777
C53	C	-0.395149	-0.124241	0.000208
C54	C	0.104851	0.375759	0.500208
C55	C	-0.131096	-0.203315	0.000259
C56	C	0.368904	0.296685	0.500259
C57	C	-0.058266	-0.201896	0.000262
C58	C	0.441734	0.298104	0.500262
C59	C	-0.074706	-0.033796	0.000259
C60	C	0.425294	0.466204	0.500259
C61	C	-0.147535	-0.035217	0.000248
C62	C	0.352465	0.464783	0.500248
C63	C	-0.175725	-0.119980	0.000252
C64	C	0.324275	0.380020	0.500252
C65	C	-0.820035	-0.291511	0.000219
C66	C	-0.320035	0.208489	0.500219
C67	C	-0.821541	-0.393883	0.000225
C68	C	-0.321541	0.106117	0.500225
N69	N	-0.824899	-0.122871	-0.189488
N70	N	-0.324899	0.377129	0.310512
C71	C	-0.822762	0.522979	0.000223
C72	C	-0.322762	1.022979	0.500223
C73	C	-0.824301	0.418681	0.000218
C74	C	-0.324301	0.918681	0.500218
C75	C	-0.825533	0.335552	0.000214
C76	C	-0.325533	0.835552	0.500214
C77	C	-0.827072	0.231247	0.000210
C78	C	-0.327072	0.731247	0.500210
C79	C	-0.872302	-0.060015	-0.227788
C80	C	-0.372302	0.439985	0.272212
C81	C	-0.872306	-0.060010	-0.304433
C82	C	-0.372306	0.439990	0.195567
C83	C	-0.824914	-0.122878	-0.342775
C84	C	-0.324914	0.377122	0.157225
C85	C	-0.777503	-0.185739	-0.304466
C86	C	-0.277503	0.314261	0.195534
C87	C	-0.777495	-0.185736	-0.227822
C88	C	-0.277495	0.314264	0.272178
N89	N	-0.816129	-0.204517	-0.463106
N90	N	-0.316129	0.295483	0.036894
N91	N	-0.816141	-0.204517	-0.535914
N92	N	-0.316141	0.295483	-0.035914
C93	C	-0.824934	-0.122892	-0.573698
C94	C	-0.324934	0.377108	-0.073698
N95	N	-0.833729	-0.041263	-0.535923
N96	N	-0.333729	0.458737	-0.035923
N97	N	-0.833721	-0.041263	-0.463108
N98	N	-0.333721	0.458737	0.036892
C99	C	-0.824917	-0.122889	-0.425882
C100	C	-0.324917	0.377111	0.074118
C101	C	-0.872344	-0.060025	-0.695105
C102	C	-0.372344	0.439975	-0.195105
C103	C	-0.872344	-0.060020	-0.771751
C104	C	-0.372344	0.439980	-0.271751
C105	C	-0.777544	-0.185757	-0.771782
C106	C	-0.277544	0.314243	-0.271782
C107	C	-0.777541	-0.185755	-0.695137
C108	C	-0.277541	0.314245	-0.195137
C109	C	-0.824945	-0.122890	-0.656803
C110	C	-0.324945	0.377110	-0.156803
N111	N	-0.824951	-0.122887	0.189912
N112	N	-0.324951	0.377113	0.689912
H113	H	-0.465973	-0.278404	0.000194
H114	H	0.034027	0.221596	0.500194
O115	O	-0.488347	0.048973	0.000182
O116	O	0.011653	0.548973	0.500182
H117	H	-0.430207	0.035960	0.000202
H118	H	0.069793	0.535960	0.500202
O119	O	-0.161504	-0.294735	0.000252
O120	O	0.338496	0.205265	0.500252
H121	H	-0.219644	-0.281722	0.000250
H122	H	0.280356	0.218278	0.500250
O123	O	-0.923474	0.007785	-0.813061
O124	O	-0.423474	0.507785	-0.313061
H125	H	-0.915510	-0.002768	-0.872797
H126	H	-0.415510	0.497232	-0.372797
H127	H	-0.051748	0.035213	0.000311
H128	H	0.448252	0.535213	0.500311
O129	O	-0.923442	0.007777	-0.345758
O130	O	-0.423442	0.507777	0.154242
H131	H	-0.956407	0.051485	-0.306225
H132	H	-0.456407	0.551485	0.193775
H133	H	-0.021931	-0.269760	0.000270
H134	H	0.478069	0.230240	0.500270
H135	H	-0.183871	0.032642	0.000240
H136	H	0.316129	0.532642	0.500240
H137	H	-0.910899	-0.008824	-0.196579
H138	H	-0.410899	0.491176	0.303421
O139	O	-0.639719	0.046025	0.000140
O140	O	-0.139719	0.546025	0.500140
H141	H	-0.673324	0.049397	0.049759
H142	H	-0.173324	0.549397	0.549759
O143	O	-0.726389	-0.253555	-0.345813
O144	O	-0.226389	0.246445	0.154187
H145	H	-0.734364	-0.243006	-0.405544
H146	H	-0.234364	0.256994	0.094456
O147	O	-0.726371	-0.253540	-0.186505
O148	O	-0.226371	0.246460	0.313495
H149	H	-0.693418	-0.297261	-0.226040
H150	H	-0.193418	0.202739	0.273960
H151	H	-0.910941	-0.008834	-0.663892
H152	H	-0.410941	0.491166	-0.163892
H153	H	-0.598091	-0.280978	0.000180
H154	H	-0.098091	0.219022	0.500180
O155	O	-0.726427	-0.253570	-0.813124
O156	O	-0.226427	0.246430	-0.313124
H157	H	-0.734398	-0.243018	-0.872854
H158	H	-0.234398	0.256982	-0.372854
H159	H	-0.738944	-0.236942	-0.663951
H160	H	-0.238944	0.263058	-0.163951
