data_functionalizedCrystal
_audit_creation_method	'MofGen! by Chris Wilmer'
_symmetry_space_group_name_H-M	'P1'
_symmetry_Int_Tables_number	1
_symmetry_cell_setting	triclinic
loop_
_symmetry_equiv_pos_as_xyz
  x,y,z
_cell_length_a	17.038272
_cell_length_b	17.019234
_cell_length_c	14.472310
_cell_angle_alpha	86.117620
_cell_angle_beta	89.992377
_cell_angle_gamma	87.240293
loop_
_atom_site_label
_atom_site_type_symbol
_atom_site_fract_x
_atom_site_fract_y
_atom_site_fract_z
O1	O	1.037220	0.171283	-0.090360
O2	O	1.537220	0.671283	0.409640
O3	O	0.809592	0.168563	-0.090171
O4	O	1.309592	0.668563	0.409829
O5	O	0.929763	0.055516	-0.081152
O6	O	1.429763	0.555516	0.418848
O7	O	0.917049	0.284330	-0.099379
O8	O	1.417049	0.784330	0.400621
O9	O	0.929732	0.055521	0.072530
O10	O	1.429732	0.555521	0.572530
O11	O	0.809561	0.168568	0.063511
O12	O	1.309561	0.668568	0.563511
O13	O	1.037189	0.171288	0.063321
O14	O	1.537189	0.671288	0.563321
Cu15	Cu	0.923372	0.169928	0.077448
Cu16	Cu	1.423372	0.669928	0.577448
Cu17	Cu	0.923409	0.169922	-0.104298
Cu18	Cu	1.423409	0.669922	0.395702
O19	O	0.917018	0.284335	0.054302
O20	O	1.417018	0.784335	0.554302
C21	C	0.780451	0.166092	-0.013137
C22	C	1.280451	0.666092	0.486863
C23	C	0.693664	0.158711	-0.012559
C24	C	1.193664	0.658711	0.487441
C25	C	0.643488	0.226472	-0.017956
C26	C	1.143488	0.726472	0.482044
C27	C	0.561944	0.219533	-0.017391
C28	C	1.061944	0.719533	0.482609
C29	C	0.530578	0.144832	-0.011435
C30	C	1.030578	0.644832	0.488565
C31	C	0.580760	0.077066	-0.006034
C32	C	1.080760	0.577066	0.493966
C33	C	0.662303	0.084006	-0.006593
C34	C	1.162303	0.584006	0.493407
C35	C	0.284842	0.120314	-0.009457
C36	C	0.784842	0.620314	0.490543
C37	C	0.203293	0.113379	-0.008901
C38	C	0.703293	0.613379	0.491099
C39	C	0.184483	0.255846	-0.020256
C40	C	0.684483	0.755846	0.479744
C41	C	0.266028	0.262780	-0.020820
C42	C	0.766028	0.762780	0.479180
C43	C	0.316203	0.195014	-0.015415
C44	C	0.816203	0.695014	0.484585
C45	C	0.447227	0.137737	-0.010859
C46	C	0.947227	0.637737	0.489141
C47	C	0.399552	0.202109	-0.015983
C48	C	0.899552	0.702109	0.484017
C49	C	0.929268	0.026097	-0.001969
C50	C	1.429268	0.526097	0.498031
C51	C	0.927828	-0.061571	0.005008
C52	C	1.427828	0.438429	0.505008
C53	C	0.919616	-0.557399	0.048632
C54	C	1.419616	-0.057399	0.548632
C55	C	0.920976	-0.475026	0.042081
C56	C	1.420976	0.024974	0.542081
C57	C	0.921679	-0.433834	-0.044969
C58	C	1.421679	0.066166	0.455031
C59	C	0.921013	-0.475019	-0.125472
C60	C	1.421013	0.024981	0.374528
C61	C	0.919648	-0.557390	-0.118920
C62	C	1.419648	-0.057390	0.381080
C63	C	0.925798	-0.185127	-0.068943
C64	C	1.425798	0.314873	0.431057
C65	C	0.927166	-0.102750	-0.075490
C66	C	1.427166	0.397250	0.424510
C67	C	0.927126	-0.102763	0.092064
C68	C	1.427126	0.397237	0.592064
C69	C	0.925765	-0.185136	0.098609
C70	C	1.425765	0.314864	0.598609
C71	C	0.925096	-0.226313	0.018105
C72	C	1.425096	0.273687	0.518105
C73	C	0.923071	-0.349636	-0.051668
C74	C	1.423071	0.150364	0.448332
C75	C	0.923698	-0.310509	0.024805
C76	C	1.423698	0.189491	0.524805
C77	C	1.066331	0.173759	-0.013715
C78	C	1.566331	0.673759	0.486285
C79	C	1.153117	0.181139	-0.014298
C80	C	1.653117	0.681139	0.485702
C81	C	0.917514	0.313754	-0.024882
C82	C	1.417514	0.813754	0.475118
C83	C	0.918953	0.401422	-0.031865
C84	C	1.418953	0.901422	0.468135
N85	N	0.923352	0.169932	0.205279
N86	N	1.423352	0.669932	0.705279
N87	N	0.923435	0.169913	-0.232128
N88	N	1.423435	0.669913	0.267872
C89	C	0.923408	0.169919	0.579371
C90	C	1.423408	0.669919	1.079371
C91	C	0.858892	0.230177	0.535398
C92	C	1.358892	0.730177	1.035398
C93	C	0.859040	0.230422	0.428290
C94	C	1.359040	0.730422	0.928290
C95	C	0.923380	0.169926	0.393780
C96	C	1.423380	0.669926	0.893780
C97	C	1.004931	0.193376	0.430759
C98	C	1.504931	0.693376	0.930759
C99	C	1.004568	0.193811	0.537846
C100	C	1.504568	0.693811	1.037846
C101	C	0.907101	0.086069	0.546578
C102	C	1.407101	0.586069	1.046578
C103	C	0.905229	0.086495	0.439416
C104	C	1.405229	0.586495	0.939416
C105	C	0.923369	0.169928	0.288891
C106	C	1.423369	0.669928	0.788891
C107	C	0.923424	0.169919	0.684260
C108	C	1.423424	0.669919	1.184260
H109	H	0.919047	-0.590932	0.119517
H110	H	1.419047	-0.090932	0.619517
H111	H	0.919104	-0.590916	-0.184470
H112	H	1.419104	-0.090916	0.315530
H113	H	0.925197	-0.218669	0.169494
H114	H	1.425197	0.281331	0.669494
H115	H	0.921527	-0.441503	0.107631
H116	H	1.421527	0.058497	0.607631
H117	H	0.925259	-0.218644	-0.134495
H118	H	1.425259	0.281356	0.365505
H119	H	0.869151	0.291932	0.557389
H120	H	1.369151	0.791932	1.057389
C121	C	0.994671	-0.081781	0.233233
C122	C	1.494671	0.418219	0.733233
C123	C	0.927845	-0.057503	0.180553
C124	C	1.427845	0.442497	0.680553
H125	H	0.995110	-0.053836	0.287863
H126	H	1.495110	0.446164	0.787863
H127	H	0.993754	-0.136727	0.249583
H128	H	1.493754	0.363273	0.749583
H129	H	1.040470	-0.071232	0.197983
H130	H	1.540470	0.428768	0.697983
H131	H	0.882045	-0.068057	0.215801
H132	H	1.382045	0.431943	0.715801
H133	H	0.928755	-0.002544	0.164204
H134	H	1.428755	0.497456	0.664204
H135	H	0.703156	0.028828	-0.002199
H136	H	1.203156	0.528828	0.497801
H137	H	0.923121	-0.344051	0.095680
H138	H	1.423121	0.155949	0.595680
C139	C	0.387444	0.045465	0.075502
C140	C	0.887444	0.545465	0.575502
C141	C	0.339991	0.045828	-0.003527
C142	C	0.839991	0.545828	0.496473
H143	H	0.421490	-0.000524	0.079162
H144	H	0.921490	0.499476	0.579162
H145	H	0.417791	0.090941	0.071872
H146	H	0.917791	0.590941	0.571872
H147	H	0.355230	0.045719	0.129069
H148	H	0.855230	0.545719	0.629069
H149	H	0.372204	0.045580	-0.057096
H150	H	0.872204	0.545580	0.442904
H151	H	0.309640	0.000340	0.000095
H152	H	0.809640	0.500340	0.500095
H153	H	0.425095	0.262930	-0.020828
H154	H	0.925095	0.762930	0.479172
C155	C	0.927052	-0.111006	-0.240460
C156	C	1.427052	0.388994	0.259540
C157	C	0.927932	-0.057470	-0.171182
C158	C	1.427932	0.442530	0.328818
H159	H	0.927521	-0.083049	-0.299532
H160	H	1.427521	0.416951	0.200468
H161	H	0.972083	-0.146098	-0.234184
H162	H	1.472083	0.353902	0.265816
H163	H	0.880946	-0.140169	-0.234656
H164	H	1.380946	0.359831	0.265344
H165	H	0.974041	-0.028311	-0.176982
H166	H	1.474041	0.471689	0.323018
H167	H	0.882897	-0.022364	-0.177461
H168	H	1.382897	0.477636	0.322539
C169	C	1.111443	0.103034	0.504527
C170	C	1.611443	0.603034	1.004527
C171	C	1.071306	0.137192	0.577344
C172	C	1.571306	0.637192	1.077344
H173	H	1.152644	0.068083	0.528910
H174	H	1.652644	0.568083	1.028910
H175	H	1.076016	0.074614	0.470440
H176	H	1.576016	0.574614	0.970440
H177	H	1.132900	0.143241	0.464855
H178	H	1.632900	0.643241	0.964855
H179	H	1.049844	0.096985	0.617012
H180	H	1.549844	0.596985	1.117012
H181	H	1.106739	0.165612	0.611446
H182	H	1.606739	0.665612	1.111446
C183	C	0.873281	0.314907	0.290197
C184	C	1.373281	0.814907	0.790197
C185	C	0.873082	0.314267	0.386997
C186	C	1.373082	0.814267	0.886997
H187	H	0.881947	0.366673	0.264707
H188	H	1.381947	0.866673	0.764707
H189	H	0.913971	0.279587	0.270939
H190	H	1.413971	0.779587	0.770939
H191	H	0.824053	0.298905	0.269297
H192	H	1.324053	0.798905	0.769297
H193	H	0.922313	0.330263	0.407898
H194	H	1.422313	0.830263	0.907898
H195	H	0.832390	0.349599	0.406264
H196	H	1.332390	0.849599	0.906264
C197	C	0.728533	0.195052	0.497452
C198	C	1.228533	0.695052	0.997452
C199	C	0.776787	0.210447	0.571773
C200	C	1.276787	0.710447	1.071773
H201	H	0.677846	0.182863	0.519916
H202	H	1.177846	0.682863	1.019916
H203	H	0.724232	0.240212	0.455126
H204	H	1.224232	0.740212	0.955126
H205	H	0.750791	0.151629	0.466921
H206	H	1.250791	0.651629	0.966921
H207	H	0.754532	0.253873	0.602301
H208	H	1.254532	0.753873	1.102301
H209	H	0.781085	0.165282	0.614115
H210	H	1.281085	0.665282	1.114115
H211	H	0.923648	-0.316089	-0.122544
H212	H	1.423648	0.183911	0.377456
C213	C	0.808569	-0.011826	0.448081
C214	C	1.308569	0.488174	0.948081
C215	C	0.824248	0.062634	0.407043
C216	C	1.324248	0.562634	0.907043
H217	H	0.758573	-0.026552	0.428094
H218	H	1.258573	0.473448	0.928094
H219	H	0.847838	-0.049378	0.430440
H220	H	1.347838	0.450622	0.930440
H221	H	0.808652	-0.010041	0.513544
H222	H	1.308652	0.489959	1.013544
H223	H	0.824170	0.060847	0.341580
H224	H	1.324170	0.560847	0.841580
H225	H	0.784969	0.100195	0.424679
H226	H	1.284969	0.600195	0.924679
C227	C	0.988645	-0.454041	-0.269940
C228	C	1.488645	0.045959	0.230060
C229	C	0.921790	-0.429751	-0.221165
C230	C	1.421790	0.070249	0.278835
H231	H	0.989123	-0.426101	-0.329021
H232	H	1.489123	0.073899	0.170979
H233	H	1.034419	-0.443502	-0.236348
H234	H	1.534419	0.056498	0.263652
H235	H	0.987725	-0.508994	-0.277542
H236	H	1.487725	-0.008994	0.222458
H237	H	0.922712	-0.374799	-0.213557
H238	H	1.422712	0.125201	0.286443
H239	H	0.876004	-0.440285	-0.254765
H240	H	1.376004	0.059715	0.245235
C241	C	1.035825	0.325325	0.484806
C242	C	1.535825	0.825325	0.984806
C243	C	1.023979	0.276590	0.564978
C244	C	1.523979	0.776590	1.064978
H245	H	1.047802	0.376431	0.501555
H246	H	1.547802	0.876431	1.001555
H247	H	1.078225	0.303746	0.450511
H248	H	1.578225	0.803746	0.950511
H249	H	0.989475	0.328859	0.447989
H250	H	1.489475	0.828859	0.947989
H251	H	1.070331	0.273051	0.601792
H252	H	1.570331	0.773051	1.101792
H253	H	0.981575	0.298174	0.599288
H254	H	1.481575	0.798174	1.099288
H255	H	0.291559	0.323609	-0.025681
H256	H	0.791559	0.823609	0.474319
H257	H	0.555215	0.016243	-0.001171
H258	H	1.055215	0.516243	0.498829
H259	H	0.177758	0.052546	-0.004051
H260	H	0.677758	0.552546	0.495949
C261	C	0.842123	-0.012883	0.640134
C262	C	1.342123	0.487117	1.140134
C263	C	0.828556	0.057474	0.585352
C264	C	1.328556	0.557474	1.085352
H265	H	0.793630	-0.030524	0.664076
H266	H	1.293630	0.469476	1.164076
H267	H	0.865724	-0.051796	0.603565
H268	H	1.365724	0.448204	1.103565
H269	H	0.876208	-0.004037	0.689925
H270	H	1.376208	0.495963	1.189925
H271	H	0.794476	0.048628	0.535557
H272	H	1.294476	0.548628	1.035557
H273	H	0.804944	0.096396	0.621923
H274	H	1.304944	0.596396	1.121923
C275	C	1.018793	0.057093	0.347387
C276	C	1.518793	0.557093	0.847387
C277	C	0.964559	0.022549	0.408387
C278	C	1.464559	0.522549	0.908387
H279	H	1.055428	0.017617	0.328240
H280	H	1.555428	0.517617	0.828240
H281	H	0.991867	0.081551	0.294781
H282	H	1.491867	0.581551	0.794781
H283	H	1.045873	0.095530	0.377781
H284	H	1.545873	0.595530	0.877781
H285	H	0.937474	-0.015884	0.377992
H286	H	1.437474	0.484116	0.877992
H287	H	0.991488	-0.001921	0.461002
H288	H	1.491488	0.498079	0.961002
H289	H	0.954151	0.041162	0.575487
H290	H	1.454151	0.541162	1.075487
C291	C	0.459336	0.294368	-0.102359
C292	C	0.959336	0.794368	0.397641
C293	C	0.506791	0.294018	-0.023334
C294	C	1.006791	0.794018	0.476666
H295	H	0.425285	0.340353	-0.106024
H296	H	0.925285	0.840353	0.393976
H297	H	0.491542	0.294106	-0.155922
H298	H	0.991542	0.794106	0.344078
H299	H	0.428986	0.248884	-0.098715
H300	H	0.928986	0.748884	0.401285
H301	H	0.537145	0.339499	-0.026981
H302	H	1.037145	0.839499	0.473019
H303	H	0.474581	0.294287	0.030243
H304	H	0.974581	0.794287	0.530243
H305	H	0.669020	0.287301	-0.022807
H306	H	1.169020	0.787301	0.477193
H307	H	0.798418	0.215643	0.403204
H308	H	1.298418	0.715643	0.903204
H309	H	0.421679	0.076915	-0.005984
H310	H	0.921679	0.576915	0.494016
H311	H	0.143621	0.311017	-0.024655
H312	H	0.643621	0.811017	0.475345
H313	H	1.054083	0.150884	0.408666
H314	H	1.554083	0.650884	0.908666
H315	H	1.019662	0.254030	0.399092
H316	H	1.519662	0.754030	0.899092
