data_functionalizedCrystal
_audit_creation_method	'MofGen! by Chris Wilmer'
_symmetry_space_group_name_H-M	'P1'
_symmetry_Int_Tables_number	1
_symmetry_cell_setting	triclinic
loop_
_symmetry_equiv_pos_as_xyz
  x,y,z
_cell_length_a	21.395362
_cell_length_b	29.839131
_cell_length_c	21.395355
_cell_angle_alpha	90.020172
_cell_angle_beta	90.043940
_cell_angle_gamma	90.057297
loop_
_atom_site_label
_atom_site_type_symbol
_atom_site_fract_x
_atom_site_fract_y
_atom_site_fract_z
Zn1	Zn	0.957813	-0.178715	0.354578
Zn2	Zn	1.207813	0.071285	0.604578
Zn3	Zn	1.457813	0.321285	0.854578
Zn4	Zn	1.707813	0.571285	1.104578
Zn5	Zn	0.957696	-0.253830	0.249798
Zn6	Zn	1.207696	-0.003830	0.499798
Zn7	Zn	1.457696	0.246170	0.749798
Zn8	Zn	1.707696	0.496170	0.999798
Zn9	Zn	0.853028	-0.178736	0.249780
Zn10	Zn	1.103028	0.071264	0.499780
Zn11	Zn	1.353028	0.321264	0.749780
Zn12	Zn	1.603028	0.571264	0.999780
Zn13	Zn	0.852977	-0.253840	0.354503
Zn14	Zn	1.102977	-0.003840	0.604503
Zn15	Zn	1.352977	0.246160	0.854503
Zn16	Zn	1.602977	0.496160	1.104503
O17	O	0.905378	-0.216280	0.302165
O18	O	1.155378	0.033720	0.552165
O19	O	1.405378	0.283720	0.802165
O20	O	1.655378	0.533720	1.052165
O21	O	1.045475	-0.188667	0.340718
O22	O	1.295475	0.061333	0.590718
O23	O	1.545475	0.311333	0.840718
O24	O	1.795475	0.561333	1.090718
O25	O	0.943783	-0.243874	0.162117
O26	O	1.193783	0.006126	0.412117
O27	O	1.443783	0.256126	0.662117
O28	O	1.693783	0.506126	0.912117
O29	O	0.866998	-0.115866	0.263706
O30	O	1.116998	0.134134	0.513706
O31	O	1.366998	0.384134	0.763706
O32	O	1.616998	0.634134	1.013706
O33	O	1.045389	-0.243853	0.263737
O34	O	1.295389	0.006147	0.513737
O35	O	1.545389	0.256147	0.763737
O36	O	1.795389	0.506147	1.013737
O37	O	0.943983	-0.115851	0.340701
O38	O	1.193983	0.134149	0.590701
O39	O	1.443983	0.384149	0.840701
O40	O	1.693983	0.634149	1.090701
O41	O	0.866884	-0.188702	0.162104
O42	O	1.116884	0.061298	0.412104
O43	O	1.366884	0.311298	0.662104
O44	O	1.616884	0.561298	0.912104
O45	O	0.765343	-0.188711	0.263632
O46	O	1.015343	0.061289	0.513632
O47	O	1.265343	0.311289	0.763632
O48	O	1.515343	0.561289	1.013632
O49	O	0.866912	-0.243869	0.442191
O50	O	1.116912	0.006131	0.692191
O51	O	1.366912	0.256131	0.942191
O52	O	1.616912	0.506131	1.192191
O53	O	0.765306	-0.243889	0.340571
O54	O	1.015306	0.006111	0.590571
O55	O	1.265306	0.256111	0.840571
O56	O	1.515306	0.506111	1.090571
O57	O	0.943934	-0.188676	0.442246
O58	O	1.193934	0.061324	0.692246
O59	O	1.443934	0.311324	0.942246
O60	O	1.693934	0.561324	1.192246
O61	O	0.943735	-0.316699	0.263663
O62	O	1.193735	-0.066699	0.513663
O63	O	1.443735	0.183301	0.763663
O64	O	1.693735	0.433301	1.013663
O65	O	0.866798	-0.316705	0.340589
O66	O	1.116798	-0.066705	0.590589
O67	O	1.366798	0.183295	0.840589
O68	O	1.616798	0.433295	1.090589
C69	C	0.742591	-0.216304	0.302092
C70	C	0.992591	0.033696	0.552092
C71	C	1.242591	0.283696	0.802092
C72	C	1.492591	0.533696	1.052092
C73	C	0.672950	-0.216325	0.302076
C74	C	0.922950	0.033675	0.552076
C75	C	1.172950	0.283675	0.802076
C76	C	1.422950	0.533675	1.052076
C77	C	0.640233	-0.245094	0.342078
C78	C	0.890233	0.004906	0.592078
C79	C	1.140233	0.254906	0.842078
C80	C	1.390233	0.504906	1.092078
C81	C	0.574798	-0.245083	0.342106
C82	C	0.824798	0.004917	0.592106
C83	C	1.074798	0.254917	0.842106
C84	C	1.324798	0.504917	1.092106
C85	C	0.542081	-0.216308	0.302120
C86	C	0.792081	0.033692	0.552120
C87	C	1.042081	0.283692	0.802120
C88	C	1.292081	0.533692	1.052120
C89	C	0.574805	-0.187533	0.262115
C90	C	0.824805	0.062467	0.512115
C91	C	1.074805	0.312467	0.762115
C92	C	1.324805	0.562467	1.012115
C93	C	0.640239	-0.187541	0.262093
C94	C	0.890239	0.062459	0.512093
C95	C	1.140239	0.312459	0.762093
C96	C	1.390239	0.562459	1.012093
C97	C	0.438357	-0.212688	0.245715
C98	C	0.688357	0.037312	0.495715
C99	C	0.938357	0.287312	0.745715
C100	C	1.188357	0.537312	0.995715
C101	C	0.372925	-0.212683	0.245736
C102	C	0.622925	0.037317	0.495736
C103	C	0.872925	0.287317	0.745736
C104	C	1.122925	0.537317	0.995736
C105	C	0.340261	-0.216278	0.302189
C106	C	0.590261	0.033722	0.552189
C107	C	0.840261	0.283722	0.802189
C108	C	1.090261	0.533722	1.052189
C109	C	0.373038	-0.219889	0.358623
C110	C	0.623038	0.030111	0.608623
C111	C	0.873038	0.280111	0.858623
C112	C	1.123038	0.530111	1.108623
C113	C	0.438472	-0.219897	0.358601
C114	C	0.688472	0.030103	0.608601
C115	C	0.938472	0.280103	0.858601
C116	C	1.188472	0.530103	1.108601
C117	C	0.471129	-0.216295	0.302140
C118	C	0.721129	0.033705	0.552140
C119	C	0.971129	0.283705	0.802140
C120	C	1.221129	0.533705	1.052140
C121	C	0.236592	-0.245037	0.342226
C122	C	0.486592	0.004963	0.592226
C123	C	0.736592	0.254963	0.842226
C124	C	0.986592	0.504963	1.092226
C125	C	0.171155	-0.245023	0.342254
C126	C	0.421155	0.004977	0.592254
C127	C	0.671155	0.254977	0.842254
C128	C	0.921155	0.504977	1.092254
C129	C	0.171164	-0.187475	0.262258
C130	C	0.421164	0.062525	0.512258
C131	C	0.671164	0.312525	0.762258
C132	C	0.921164	0.562525	1.012258
C133	C	0.236599	-0.187487	0.262235
C134	C	0.486599	0.062513	0.512235
C135	C	0.736599	0.312513	0.762235
C136	C	0.986599	0.562513	1.012235
C137	C	0.269309	-0.216270	0.302218
C138	C	0.519309	0.033730	0.552218
C139	C	0.769309	0.283730	0.802218
C140	C	1.019309	0.533730	1.052218
C141	C	0.905265	-0.333003	0.302133
C142	C	1.155265	-0.083003	0.552133
C143	C	1.405265	0.166997	0.802133
C144	C	1.655265	0.416997	1.052133
C145	C	0.905274	-0.382937	0.302141
C146	C	1.155274	-0.132937	0.552141
C147	C	1.405274	0.117063	0.802141
C148	C	1.655274	0.367063	1.052141
C149	C	0.945512	-0.692564	0.262168
C150	C	1.195512	-0.442564	0.512168
C151	C	1.445512	-0.192564	0.762168
C152	C	1.695512	0.057436	1.012168
C153	C	0.945589	-0.880237	0.262192
C154	C	1.195589	-0.630237	0.512192
C155	C	1.445589	-0.380237	0.762192
C156	C	1.695589	-0.130237	1.012192
O157	O	0.979711	-0.904488	0.228181
O158	O	1.229711	-0.654488	0.478181
O159	O	1.479711	-0.404488	0.728181
O160	O	1.729711	-0.154488	0.978181
N161	N	0.905508	-0.903722	0.302212
N162	N	1.155508	-0.653722	0.552212
N163	N	1.405508	-0.403722	0.802212
N164	N	1.655508	-0.153722	1.052212
C165	C	0.865408	-0.880286	0.342231
C166	C	1.115408	-0.630286	0.592231
C167	C	1.365408	-0.380286	0.842231
C168	C	1.615408	-0.130286	1.092231
O169	O	0.831323	-0.904567	0.376276
O170	O	1.081323	-0.654567	0.626276
O171	O	1.331323	-0.404567	0.876276
O172	O	1.581323	-0.154567	1.126276
C173	C	0.865334	-0.692614	0.342210
C174	C	1.115334	-0.442614	0.592210
C175	C	1.365334	-0.192614	0.842210
C176	C	1.615334	0.057386	1.092210
C177	C	0.905414	-0.669131	0.302183
C178	C	1.155414	-0.419131	0.552183
C179	C	1.405414	-0.169131	0.802183
C180	C	1.655414	0.080869	1.052183
C181	C	0.985588	-0.669082	0.222145
C182	C	1.235588	-0.419082	0.472145
C183	C	1.485588	-0.169082	0.722145
C184	C	1.735588	0.080918	0.972145
C185	C	0.985566	-0.622166	0.222136
C186	C	1.235566	-0.372166	0.472136
C187	C	1.485566	-0.122166	0.722136
C188	C	1.735566	0.127834	0.972136
C189	C	0.945468	-0.598733	0.262152
C190	C	1.195468	-0.348733	0.512152
C191	C	1.445468	-0.098733	0.762152
C192	C	1.695468	0.151267	1.012152
C193	C	0.905391	-0.622216	0.302175
C194	C	1.155391	-0.372216	0.552175
C195	C	1.405391	-0.122216	0.802175
C196	C	1.655391	0.127784	1.052175
C197	C	0.825238	-0.669178	0.382232
C198	C	1.075238	-0.419178	0.632232
C199	C	1.325238	-0.169178	0.882232
C200	C	1.575238	0.080822	1.132232
C201	C	0.825224	-0.622257	0.382224
C202	C	1.075224	-0.372257	0.632224
C203	C	1.325224	-0.122257	0.882224
C204	C	1.575224	0.127743	1.132224
C205	C	0.865303	-0.598775	0.342197
C206	C	1.115303	-0.348775	0.592197
C207	C	1.365303	-0.098775	0.842197
C208	C	1.615303	0.151225	1.092197
C209	C	0.865271	-0.551867	0.342182
C210	C	1.115271	-0.301867	0.592182
C211	C	1.365271	-0.051867	0.842182
C212	C	1.615271	0.198133	1.092182
N213	N	0.905352	-0.528383	0.302162
N214	N	1.155352	-0.278383	0.552162
N215	N	1.405352	-0.028383	0.802162
N216	N	1.655352	0.221617	1.052162
C217	C	0.945450	-0.551816	0.262147
C218	C	1.195450	-0.301816	0.512147
C219	C	1.445450	-0.051816	0.762147
C220	C	1.695450	0.198184	1.012147
C221	C	0.865449	-0.978816	0.342239
C222	C	1.115449	-0.728816	0.592239
C223	C	1.365449	-0.478816	0.842239
C224	C	1.615449	-0.228816	1.092239
C225	C	0.865466	-1.025734	0.342244
C226	C	1.115466	-0.775734	0.592244
C227	C	1.365466	-0.525734	0.842244
C228	C	1.615466	-0.275734	1.092244
C229	C	0.945649	-1.025683	0.262205
C230	C	1.195649	-0.775683	0.512205
C231	C	1.445649	-0.525683	0.762205
C232	C	1.695649	-0.275683	1.012205
C233	C	0.945627	-0.978764	0.262198
C234	C	1.195627	-0.728764	0.512198
C235	C	1.445627	-0.478764	0.762198
C236	C	1.695627	-0.228764	1.012198
C237	C	0.905530	-0.955332	0.302219
C238	C	1.155530	-0.705332	0.552219
C239	C	1.405530	-0.455332	0.802219
C240	C	1.655530	-0.205332	1.052219
C241	C	0.945400	-0.453290	0.262132
C242	C	1.195400	-0.203290	0.512132
C243	C	1.445400	0.046710	0.762132
C244	C	1.695400	0.296710	1.012132
C245	C	0.945373	-0.406370	0.262126
C246	C	1.195373	-0.156370	0.512126
C247	C	1.445373	0.093630	0.762126
C248	C	1.695373	0.343630	1.012126
C249	C	0.865193	-0.406426	0.342167
C250	C	1.115193	-0.156426	0.592167
C251	C	1.365193	0.093574	0.842167
C252	C	1.615193	0.343574	1.092167
C253	C	0.865218	-0.453342	0.342171
C254	C	1.115218	-0.203342	0.592171
C255	C	1.365218	0.046658	0.842171
C256	C	1.615218	0.296658	1.092171
C257	C	0.905327	-0.476772	0.302152
C258	C	1.155327	-0.226772	0.552152
C259	C	1.405327	0.023228	0.802152
C260	C	1.655327	0.273228	1.052152
O261	O	0.831172	-0.527587	0.376180
O262	O	1.081172	-0.277587	0.626180
O263	O	1.331172	-0.027587	0.876180
O264	O	1.581172	0.222413	1.126180
O265	O	0.979540	-0.527526	0.228117
O266	O	1.229540	-0.277526	0.478117
O267	O	1.479540	-0.027526	0.728117
O268	O	1.729540	0.222474	0.978117
C269	C	0.945534	-0.739480	0.262176
C270	C	1.195534	-0.489480	0.512176
C271	C	1.445534	-0.239480	0.762176
C272	C	1.695534	0.010520	1.012176
C273	C	0.905458	-0.762962	0.302199
C274	C	1.155458	-0.512962	0.552199
C275	C	1.405458	-0.262962	0.802199
C276	C	1.655458	-0.012962	1.052199
C277	C	0.865359	-0.739529	0.342214
C278	C	1.115359	-0.489529	0.592214
C279	C	1.365359	-0.239529	0.842214
C280	C	1.615359	0.010471	1.092214
C281	C	0.905475	-0.809880	0.302204
C282	C	1.155475	-0.559880	0.552204
C283	C	1.405475	-0.309880	0.802204
C284	C	1.655475	-0.059880	1.052204
C285	C	0.945574	-0.833313	0.262189
C286	C	1.195574	-0.583313	0.512189
C287	C	1.445574	-0.333313	0.762189
C288	C	1.695574	-0.083313	1.012189
C289	C	0.985655	-0.809828	0.222169
C290	C	1.235655	-0.559828	0.472169
C291	C	1.485655	-0.309828	0.722169
C292	C	1.735655	-0.059828	0.972169
C293	C	0.985633	-0.762913	0.222161
C294	C	1.235633	-0.512913	0.472161
C295	C	1.485633	-0.262913	0.722161
C296	C	1.735633	-0.012913	0.972161
C297	C	0.825278	-0.763014	0.382234
C298	C	1.075278	-0.513014	0.632234
C299	C	1.325278	-0.263014	0.882234
C300	C	1.575278	-0.013014	1.132234
C301	C	0.825303	-0.809929	0.382238
C302	C	1.075303	-0.559929	0.632238
C303	C	1.325303	-0.309929	0.882238
C304	C	1.575303	-0.059929	1.132238
C305	C	0.865402	-0.833362	0.342223
C306	C	1.115402	-0.583362	0.592223
C307	C	1.365402	-0.333362	0.842223
C308	C	1.615402	-0.083362	1.092223
C309	C	1.068802	-0.216257	0.302238
C310	C	1.318802	0.033743	0.552238
C311	C	1.568802	0.283743	0.802238
C312	C	1.818802	0.533743	1.052238
C313	C	1.138443	-0.216247	0.302269
C314	C	1.388443	0.033753	0.552269
C315	C	1.638443	0.283753	0.802269
C316	C	1.888443	0.533753	1.052269
C317	C	0.905431	-0.216271	0.465588
C318	C	1.155431	0.033729	0.715588
C319	C	1.405431	0.283729	0.965588
C320	C	1.655431	0.533729	1.215588
C321	C	0.905453	-0.216267	0.535229
C322	C	1.155453	0.033733	0.785229
C323	C	1.405453	0.283733	1.035229
C324	C	1.655453	0.533733	1.285229
C325	C	0.905509	-0.099102	0.302210
C326	C	1.155509	0.150898	0.552210
C327	C	1.405509	0.400898	0.802210
C328	C	1.655509	0.650898	1.052210
C329	C	0.905565	-0.049167	0.302229
C330	C	1.155565	0.200833	0.552229
C331	C	1.405565	0.450833	0.802229
C332	C	1.655565	0.700833	1.052229
C333	C	0.905363	-0.216257	0.139377
C334	C	1.155363	0.033743	0.389377
C335	C	1.405363	0.283743	0.639377
C336	C	1.655363	0.533743	0.889377
C337	C	0.905462	-0.216134	0.069736
C338	C	1.155462	0.033866	0.319736
C339	C	1.405462	0.283866	0.569736
C340	C	1.655462	0.533866	0.819736
C341	C	0.945556	-0.187527	0.567972
C342	C	1.195556	0.062473	0.817972
C343	C	1.445556	0.312473	1.067972
C344	C	1.695556	0.562473	1.317972
C345	C	0.945556	-0.187507	0.633408
C346	C	1.195556	0.062493	0.883408
C347	C	1.445556	0.312493	1.133408
C348	C	1.695556	0.562493	1.383408
C349	C	0.905458	-0.216237	0.666098
C350	C	1.155458	0.033763	0.916098
C351	C	1.405458	0.283763	1.166098
C352	C	1.655458	0.533763	1.416098
C353	C	0.865346	-0.244979	0.633347
C354	C	1.115346	0.005021	0.883347
C355	C	1.365346	0.255021	1.133347
C356	C	1.615346	0.505021	1.383347
C357	C	0.865344	-0.244994	0.567912
C358	C	1.115344	0.005006	0.817912
C359	C	1.365344	0.255006	1.067912
C360	C	1.615344	0.505006	1.317912
C361	C	0.900471	-0.256689	0.769760
C362	C	1.150471	-0.006689	1.019760
C363	C	1.400471	0.243311	1.269760
C364	C	1.650471	0.493311	1.519760
C365	C	0.900478	-0.256674	0.835193
C366	C	1.150478	-0.006674	1.085193
C367	C	1.400478	0.243326	1.335193
C368	C	1.650478	0.493326	1.585193
C369	C	0.905461	-0.216189	0.867918
C370	C	1.155461	0.033811	1.117918
C371	C	1.405461	0.283811	1.367918
C372	C	1.655461	0.533811	1.617918
C373	C	0.910451	-0.175717	0.835203
C374	C	1.160451	0.074283	1.085203
C375	C	1.410451	0.324283	1.335203
C376	C	1.660451	0.574283	1.585203
C377	C	0.910449	-0.175733	0.769769
C378	C	1.160449	0.074267	1.019769
C379	C	1.410449	0.324267	1.269769
C380	C	1.660449	0.574267	1.519769
C381	C	0.905455	-0.216223	0.737050
C382	C	1.155455	0.033777	0.987050
C383	C	1.405455	0.283777	1.237050
C384	C	1.655455	0.533777	1.487050
C385	C	0.945566	-0.187425	0.971614
C386	C	1.195566	0.062575	1.221614
C387	C	1.445566	0.312575	1.471614
C388	C	1.695566	0.562575	1.721614
C389	C	0.945561	-0.187405	1.037051
C390	C	1.195561	0.062595	1.287051
C391	C	1.445561	0.312595	1.537051
C392	C	1.695561	0.562595	1.787051
C393	C	0.865355	-0.244881	1.036988
C394	C	1.115355	0.005119	1.286988
C395	C	1.365355	0.255119	1.536988
C396	C	1.615355	0.505119	1.786988
C397	C	0.865357	-0.244897	0.971553
C398	C	1.115357	0.005103	1.221553
C399	C	1.365357	0.255103	1.471553
C400	C	1.615357	0.505103	1.721553
C401	C	0.905466	-0.216170	0.938870
C402	C	1.155466	0.033830	1.188870
C403	C	1.405466	0.283830	1.438870
C404	C	1.655466	0.533830	1.688870
H405	H	0.548156	-0.268511	0.374683
H406	H	0.798156	-0.018511	0.624683
H407	H	1.048156	0.231489	0.874683
H408	H	1.298156	0.481489	1.124683
C409	C	0.676228	-0.155894	0.218082
C410	C	0.926228	0.094106	0.468082
C411	C	1.176228	0.344106	0.718082
C412	C	1.426228	0.594106	0.968082
N413	N	0.703336	-0.132057	0.184930
N414	N	0.953336	0.117943	0.434930
N415	N	1.203336	0.367943	0.684930
N416	N	1.453336	0.617943	0.934930
H417	H	0.832544	-0.387340	0.374745
H418	H	1.082544	-0.137340	0.624745
H419	H	1.332544	0.112660	0.874745
H420	H	1.582544	0.362660	1.124745
H421	H	0.832696	-0.268369	0.659967
H422	H	1.082696	-0.018369	0.909967
H423	H	1.332696	0.231631	1.159967
H424	H	1.582696	0.481631	1.409967
C425	C	0.989719	-0.952938	0.218167
C426	C	1.239719	-0.702938	0.468167
C427	C	1.489719	-0.452938	0.718167
C428	C	1.739719	-0.202938	0.968167
N429	N	1.022932	-0.933488	0.185003
N430	N	1.272932	-0.683488	0.435003
N431	N	1.522932	-0.433488	0.685003
N432	N	1.772932	-0.183488	0.935003
C433	C	0.474524	-0.223868	0.420676
C434	C	0.724524	0.026132	0.670676
C435	C	0.974524	0.276132	0.920676
C436	C	1.224524	0.526132	1.170676
N437	N	0.501678	-0.226858	0.467432
N438	N	0.751678	0.023142	0.717432
N439	N	1.001678	0.273142	0.967432
N440	N	1.251678	0.523142	1.217432
H441	H	0.548163	-0.164102	0.229560
H442	H	0.798163	0.085898	0.479560
H443	H	1.048163	0.335898	0.729560
H444	H	1.298163	0.585898	0.979560
H445	H	0.914510	-0.142779	0.743135
H446	H	1.164510	0.107221	0.993135
H447	H	1.414510	0.357221	1.243135
H448	H	1.664510	0.607221	1.493135
H449	H	0.346444	-0.222815	0.404593
H450	H	0.596444	0.027185	0.654593
H451	H	0.846444	0.277185	0.904593
H452	H	1.096444	0.527185	1.154593
C453	C	0.989680	-0.155786	1.073068
C454	C	1.239680	0.094214	1.323068
C455	C	1.489680	0.344214	1.573068
C456	C	1.739680	0.594214	1.823068
N457	N	1.022911	-0.131970	1.100197
N458	N	1.272911	0.118030	1.350197
N459	N	1.522911	0.368030	1.600197
N460	N	1.772911	0.618030	1.850197
C461	C	0.989678	-0.155892	0.669433
C462	C	1.239678	0.094108	0.919433
C463	C	1.489678	0.344108	1.169433
C464	C	1.739678	0.594108	1.419433
N465	N	1.022913	-0.132080	0.696564
N466	N	1.272913	0.117920	0.946564
N467	N	1.522913	0.367920	1.196564
N468	N	1.772913	0.617920	1.446564
C469	C	0.821226	-0.276614	0.531894
C470	C	1.071226	-0.026614	0.781894
C471	C	1.321226	0.223386	1.031894
C472	C	1.571226	0.473386	1.281894
N473	N	0.787997	-0.300431	0.504764
N474	N	1.037997	-0.050431	0.754764
N475	N	1.287997	0.199569	1.004764
N476	N	1.537997	0.449569	1.254764
H477	H	0.978222	-0.164031	0.945002
H478	H	1.228222	0.085969	1.195002
H479	H	1.478222	0.335969	1.445002
H480	H	1.728222	0.585969	1.695002
H481	H	0.832700	-0.268268	1.063604
H482	H	1.082700	-0.018268	1.313604
H483	H	1.332700	0.231732	1.563604
H484	H	1.582700	0.481732	1.813604
C485	C	0.915932	-0.131180	0.871196
C486	C	1.165932	0.118820	1.121196
C487	C	1.415932	0.368820	1.371196
C488	C	1.665932	0.618820	1.621196
N489	N	0.920061	-0.097636	0.898309
N490	N	1.170061	0.152364	1.148309
N491	N	1.420061	0.402364	1.398309
N492	N	1.670061	0.652364	1.648309
C493	C	0.135168	-0.276677	0.386257
C494	C	0.385168	-0.026677	0.636257
C495	C	0.635168	0.223323	0.886257
C496	C	0.885168	0.473323	1.136257
N497	N	0.108062	-0.300522	0.419398
N498	N	0.358062	-0.050522	0.669398
N499	N	0.608062	0.199478	0.919398
N500	N	0.858062	0.449478	1.169398
H501	H	0.832795	-0.959741	0.374830
H502	H	1.082795	-0.709741	0.624830
H503	H	1.332795	-0.459741	0.874830
H504	H	1.582795	-0.209741	1.124830
C505	C	0.781149	-0.694998	0.426267
C506	C	1.031149	-0.444998	0.676267
C507	C	1.281149	-0.194998	0.926267
C508	C	1.531149	0.055002	1.176267
N509	N	0.747939	-0.714445	0.459439
N510	N	0.997939	-0.464445	0.709439
N511	N	1.247939	-0.214445	0.959439
N512	N	1.497939	0.035555	1.209439
C513	C	0.895001	-0.301229	0.733768
C514	C	1.145001	-0.051229	0.983768
C515	C	1.395001	0.198771	1.233768
C516	C	1.645001	0.448771	1.483768
N517	N	0.890885	-0.334776	0.706660
N518	N	1.140885	-0.084776	0.956660
N519	N	1.390885	0.165224	1.206660
N520	N	1.640885	0.415224	1.456660
C521	C	1.029700	-0.694851	0.178117
C522	C	1.279700	-0.444851	0.428117
C523	C	1.529700	-0.194851	0.678117
C524	C	1.779700	0.055149	0.928117
N525	N	1.062924	-0.714257	0.144949
N526	N	1.312924	-0.464257	0.394949
N527	N	1.562924	-0.214257	0.644949
N528	N	1.812924	0.035743	0.894949
C529	C	0.989669	-0.155920	0.532025
C530	C	1.239669	0.094080	0.782025
C531	C	1.489669	0.344080	1.032025
C532	C	1.739669	0.594080	1.282025
N533	N	1.022893	-0.132111	0.504948
N534	N	1.272893	0.117889	0.754948
N535	N	1.522893	0.367889	1.004948
N536	N	1.772893	0.617889	1.254948
C537	C	1.029762	-0.835614	0.178151
C538	C	1.279762	-0.585614	0.428151
C539	C	1.529762	-0.335614	0.678151
C540	C	1.779762	-0.085614	0.928151
N541	N	1.062985	-0.855038	0.145002
N542	N	1.312985	-0.605038	0.395002
N543	N	1.562985	-0.355038	0.645002
N544	N	1.812985	-0.105038	0.895002
C545	C	0.474281	-0.208735	0.183608
C546	C	0.724281	0.041265	0.433608
C547	C	0.974281	0.291265	0.683608
C548	C	1.224281	0.541265	0.933608
N549	N	0.501338	-0.205758	0.136830
N550	N	0.751338	0.044242	0.386830
N551	N	1.001338	0.294242	0.636830
N552	N	1.251338	0.544242	0.886830
H553	H	0.792661	-0.829045	0.414832
H554	H	1.042661	-0.579045	0.664832
H555	H	1.292661	-0.329045	0.914832
H556	H	1.542661	-0.079045	1.164832
H557	H	0.792626	-0.743938	0.414820
H558	H	1.042626	-0.493938	0.664820
H559	H	1.292626	-0.243938	0.914820
H560	H	1.542626	0.006062	1.164820
H561	H	0.666862	-0.268532	0.374636
H562	H	0.916862	-0.018532	0.624636
H563	H	1.166862	0.231468	0.874636
H564	H	1.416862	0.481468	1.124636
C565	C	0.821370	-1.051560	0.386270
C566	C	1.071370	-0.801560	0.636270
C567	C	1.321370	-0.551560	0.886270
C568	C	1.571370	-0.301560	1.136270
N569	N	0.788158	-1.071010	0.419436
N570	N	1.038158	-0.821010	0.669436
N571	N	1.288158	-0.571010	0.919436
N572	N	1.538158	-0.321010	1.169436
C573	C	0.821242	-0.276516	0.935534
C574	C	1.071242	-0.026516	1.185534
C575	C	1.321242	0.223484	1.435534
C576	C	1.571242	0.473484	1.685534
N577	N	0.788010	-0.300332	0.908405
N578	N	1.038010	-0.050332	1.158405
N579	N	1.288010	0.199668	1.408405
N580	N	1.538010	0.449668	1.658405
H581	H	0.978298	-1.044770	0.229623
H582	H	1.228298	-0.794770	0.479623
H583	H	1.478298	-0.544770	0.729623
H584	H	1.728298	-0.294770	0.979623
H585	H	0.263237	-0.164062	0.229657
H586	H	0.513237	0.085938	0.479657
H587	H	0.763237	0.335938	0.729657
H588	H	1.013237	0.585938	0.979657
C589	C	0.135179	-0.155821	0.218274
C590	C	0.385179	0.094179	0.468274
C591	C	0.635179	0.344179	0.718274
C592	C	0.885179	0.594179	0.968274
N593	N	0.108072	-0.131977	0.185144
N594	N	0.358072	0.118023	0.435144
N595	N	0.608072	0.368023	0.685144
N596	N	0.858072	0.618023	0.935144
H597	H	0.263226	-0.268472	0.374785
H598	H	0.513226	-0.018472	0.624785
H599	H	0.763226	0.231528	0.874785
H600	H	1.013226	0.481528	1.124785
H601	H	1.018269	-0.743797	0.189567
H602	H	1.268269	-0.493797	0.439567
H603	H	1.518269	-0.243797	0.689567
H604	H	1.768269	0.006203	0.939567
H605	H	0.896419	-0.289629	0.861825
H606	H	1.146419	-0.039629	1.111825
H607	H	1.396419	0.210371	1.361825
H608	H	1.646419	0.460371	1.611825
C609	C	0.821127	-0.479173	0.386200
C610	C	1.071127	-0.229173	0.636200
C611	C	1.321127	0.020827	0.886200
C612	C	1.571127	0.270827	1.136200
N613	N	0.787922	-0.498626	0.419369
N614	N	1.037922	-0.248626	0.669369
N615	N	1.287922	0.001374	0.919369
N616	N	1.537922	0.251374	1.169369
H617	H	0.978010	-0.387252	0.229529
H618	H	1.228010	-0.137252	0.479529
H619	H	1.478010	0.112748	0.729529
H620	H	1.728010	0.362748	0.979529
C621	C	0.336876	-0.208708	0.183659
C622	C	0.586876	0.041292	0.433659
C623	C	0.836876	0.291292	0.683659
C624	C	1.086876	0.541292	0.933659
N625	N	0.309726	-0.205712	0.136901
N626	N	0.559726	0.044288	0.386901
N627	N	0.809726	0.294288	0.636901
N628	N	1.059726	0.544288	0.886901
C629	C	1.029652	-0.596342	0.178098
C630	C	1.279652	-0.346342	0.428098
C631	C	1.529652	-0.096342	0.678098
C632	C	1.779652	0.153658	0.928098
N633	N	1.062858	-0.576894	0.144925
N634	N	1.312858	-0.326894	0.394925
N635	N	1.562858	-0.076894	0.644925
N636	N	1.812858	0.173106	0.894925
C637	C	0.781113	-0.596485	0.426252
C638	C	1.031113	-0.346485	0.676252
C639	C	1.281113	-0.096485	0.926252
C640	C	1.531113	0.153515	1.176252
N641	N	0.747887	-0.577074	0.459413
N642	N	0.997887	-0.327074	0.709413
N643	N	1.247887	-0.077074	0.959413
N644	N	1.497887	0.172926	1.209413
C645	C	0.989518	-0.479057	0.218106
C646	C	1.239518	-0.229057	0.468106
C647	C	1.489518	0.020943	0.718106
C648	C	1.739518	0.270943	0.968106
N649	N	1.022744	-0.498464	0.184941
N650	N	1.272744	-0.248464	0.434941
N651	N	1.522744	0.001536	0.684941
N652	N	1.772744	0.251536	0.934941
