data_functionalizedCrystal
_audit_creation_method	'MofGen! by Chris Wilmer'
_symmetry_space_group_name_H-M	'P1'
_symmetry_Int_Tables_number	1
_symmetry_cell_setting	triclinic
loop_
_symmetry_equiv_pos_as_xyz
  x,y,z
_cell_length_a	13.897449
_cell_length_b	19.121063
_cell_length_c	13.897441
_cell_angle_alpha	92.405670
_cell_angle_beta	89.976606
_cell_angle_gamma	92.469882
loop_
_atom_site_label
_atom_site_type_symbol
_atom_site_fract_x
_atom_site_fract_y
_atom_site_fract_z
Zn1	Zn	1.458257	-0.279575	-0.561794
Zn2	Zn	1.451241	-0.397039	-0.407362
Zn3	Zn	1.296944	-0.279608	-0.400507
Zn4	Zn	1.290021	-0.396992	-0.568605
O5	O	1.374116	-0.338304	-0.484567
O6	O	1.592307	-0.295163	-0.541327
O7	O	1.430735	-0.381495	-0.271473
O8	O	1.324176	-0.181319	-0.416182
O9	O	1.587153	-0.381463	-0.427867
O10	O	1.442692	-0.181295	-0.534679
O11	O	1.317373	-0.295219	-0.266436
O12	O	1.161044	-0.295173	-0.422786
O13	O	1.312376	-0.381383	-0.702681
O14	O	1.155958	-0.381415	-0.546287
O15	O	1.435979	-0.295118	-0.697677
O16	O	1.424021	-0.495317	-0.434471
O17	O	1.305573	-0.495282	-0.552935
C18	C	1.123502	-0.338293	-0.484533
C19	C	1.016287	-0.338305	-0.484542
C20	C	0.929217	-0.338307	-0.484558
C21	C	0.819985	-0.338312	-0.484588
C22	C	1.363311	-0.520784	-0.495207
C23	C	1.358777	-0.598850	-0.499791
C24	C	1.418364	-0.635520	-0.440318
C25	C	1.414106	-0.708871	-0.444635
C26	C	1.350254	-0.745551	-0.508421
C27	C	1.290665	-0.708875	-0.567901
C28	C	1.294929	-0.635525	-0.563588
C29	C	1.334297	-0.967020	-0.524530
C30	C	1.330035	-1.040375	-0.528837
C31	C	1.453478	-1.040365	-0.405572
C32	C	1.457732	-0.967014	-0.401261
C33	C	1.398146	-0.930345	-0.460744
C34	C	1.345898	-0.820527	-0.512833
C35	C	1.402508	-0.855370	-0.456336
C36	C	1.625708	-0.338315	-0.484602
C37	C	1.732922	-0.338320	-0.484617
C38	C	1.374188	-0.338241	-0.736156
C39	C	1.374218	-0.338215	-0.843369
C40	C	1.384989	-0.155111	-0.473906
C41	C	1.389622	-0.077045	-0.469364
C42	C	1.374247	-0.338168	-1.039661
C43	C	1.374228	-0.338196	-0.930430
C44	C	1.374102	-0.338315	-0.233953
C45	C	1.374270	-0.338143	-0.126730
H46	H	1.470355	-0.605660	-0.388372
O47	O	1.511504	-1.075906	-0.347843
C48	C	1.674314	-1.098296	-0.302541
C49	C	1.608703	-1.057993	-0.367960
H50	H	1.752913	-1.083840	-0.318796
H51	H	1.658337	-1.083913	-0.223884
H52	H	1.660257	-1.157019	-0.316558
H53	H	1.622723	-0.999261	-0.354028
H54	H	1.624694	-1.072434	-0.446595
O55	O	1.237001	-0.599826	-0.621222
C56	C	1.111533	-0.517116	-0.629222
C57	C	1.177091	-0.557487	-0.563833
H58	H	1.063066	-0.482886	-0.582850
H59	H	1.157743	-0.482675	-0.677661
H60	H	1.065209	-0.555945	-0.675574
H61	H	1.223428	-0.518708	-0.517422
H62	H	1.130825	-0.591938	-0.515458
O63	O	1.472023	-0.744384	-0.386762
C64	C	1.594945	-0.736634	-0.264080
C65	C	1.529389	-0.696329	-0.329552
H66	H	1.641356	-0.697799	-0.217824
H67	H	1.548733	-0.771012	-0.215561
H68	H	1.643328	-0.770936	-0.310442
H69	H	1.480995	-0.661989	-0.283265
H70	H	1.575658	-0.661995	-0.378076
O71	O	1.276369	-0.931325	-0.582162
C72	C	1.150901	-0.848613	-0.590142
C73	C	1.216466	-0.888987	-0.524764
H74	H	1.102439	-0.814385	-0.543762
H75	H	1.197107	-0.814171	-0.638583
H76	H	1.104571	-0.887440	-0.636492
H77	H	1.262807	-0.850211	-0.478355
H78	H	1.170204	-0.923440	-0.476387
O79	O	1.519715	-0.931466	-0.339174
C80	C	1.567903	-0.909059	-0.173823
C81	C	1.497660	-0.949371	-0.244033
H82	H	1.550083	-0.923509	-0.096885
H83	H	1.644850	-0.923442	-0.191607
H84	H	1.560735	-0.850338	-0.181003
H85	H	1.504740	-1.008102	-0.236891
H86	H	1.420741	-0.934931	-0.226229
O87	O	1.267988	-1.075898	-0.590893
C88	C	1.145972	-1.068171	-0.712674
C89	C	1.216206	-1.027854	-0.642461
H90	H	1.104073	-1.029345	-0.754370
H91	H	1.188201	-1.102438	-0.765223
H92	H	1.093596	-1.102586	-0.670352
H93	H	1.268598	-0.993402	-0.684703
H94	H	1.173915	-0.993631	-0.589912
H95	H	1.238680	-0.738746	-0.619841
H96	H	1.293908	-0.850400	-0.564766
H97	H	1.454500	-0.825503	-0.404405
