data_functionalizedCrystal
_audit_creation_method	'MofGen! by Chris Wilmer'
_symmetry_space_group_name_H-M	'P1'
_symmetry_Int_Tables_number	1
_symmetry_cell_setting	triclinic
loop_
_symmetry_equiv_pos_as_xyz
  x,y,z
_cell_length_a	10.654550
_cell_length_b	9.130313
_cell_length_c	10.654548
_cell_angle_alpha	90.000566
_cell_angle_beta	84.484601
_cell_angle_gamma	89.996220
loop_
_atom_site_label
_atom_site_type_symbol
_atom_site_fract_x
_atom_site_fract_y
_atom_site_fract_z
O1	O	1.667833	-0.121913	0.176393
O2	O	1.302355	-0.121889	0.193199
O3	O	1.493498	-0.121899	0.002057
O4	O	1.476690	-0.121904	0.367536
O5	O	1.493496	0.121700	0.002062
O6	O	1.302352	0.121710	0.193204
O7	O	1.667831	0.121685	0.176398
Cu8	Cu	1.485091	0.143940	0.184802
Cu9	Cu	1.485094	-0.144144	0.184796
O10	O	1.476687	0.121695	0.367541
C11	C	1.255555	-0.000087	0.191968
C12	C	1.116112	-0.000078	0.188276
N13	N	1.485098	0.346563	0.184805
N14	N	1.485097	-0.346767	0.184782
C15	C	1.036626	-0.000101	0.300818
C16	C	0.905605	-0.000126	0.297341
C17	C	0.933570	-0.000112	0.068771
C18	C	1.064588	-0.000076	0.072249
C19	C	1.088150	-0.000103	0.416844
C20	C	1.008662	-0.000127	0.529395
C21	C	0.877642	-0.000152	0.525919
C22	C	0.826108	-0.000153	0.409891
C23	C	1.714630	-0.000120	0.177630
C24	C	1.854073	-0.000139	0.181322
C25	C	1.492263	-0.000102	-0.044739
C26	C	1.488572	-0.000109	-0.184182
C27	C	1.569759	0.423210	0.100197
C28	C	1.569755	0.576547	0.100181
C29	C	1.400427	0.576575	0.269395
C30	C	1.400426	0.423241	0.269403
C31	C	1.654431	0.346532	0.015599
C32	C	1.739099	0.423180	-0.069016
C33	C	1.739096	0.576517	-0.069031
C34	C	1.654424	0.653206	0.015569
C35	C	1.483350	-0.132895	-0.380716
C36	C	1.486834	-0.132896	-0.249696
C37	C	1.486838	0.132689	-0.249696
C38	C	1.483364	0.132688	-0.380714
C39	C	1.481600	-0.265691	-0.446222
C40	C	1.483336	-0.398489	-0.380718
C41	C	1.486819	-0.398490	-0.249698
C42	C	1.488568	-0.265694	-0.184182
C43	C	1.477922	-0.000105	0.414336
C44	C	1.481613	-0.000108	0.553779
H45	H	1.194832	-0.000089	0.419688
F46	F	0.878719	-0.000117	-0.054704
F47	F	1.063510	-0.000112	0.652872
F48	F	1.654417	0.816402	0.015536
H49	H	1.491416	-0.265705	-0.077498
F50	F	1.488695	0.274010	-0.179965
H51	H	1.808027	0.638922	-0.137936
F52	F	0.793049	-0.000164	0.645703
H53	H	1.331492	0.639025	0.338274
H54	H	0.719421	-0.000151	0.407070
H55	H	1.129308	-0.000061	-0.019392
F56	F	1.654445	0.183338	0.015613
H57	H	1.808029	0.360732	-0.137902
F58	F	1.488681	-0.539822	-0.179988
H59	H	1.331487	0.360834	0.338298
H60	H	1.478759	-0.265705	-0.552905
F61	F	1.481492	-0.539812	-0.450447
F62	F	1.481522	0.274015	-0.450434
