data_functionalizedCrystal
_audit_creation_method	'MofGen! by Chris Wilmer'
_symmetry_space_group_name_H-M	'P1'
_symmetry_Int_Tables_number	1
_symmetry_cell_setting	triclinic
loop_
_symmetry_equiv_pos_as_xyz
  x,y,z
_cell_length_a	27.732048
_cell_length_b	27.732048
_cell_length_c	26.210047
_cell_angle_alpha	89.990375
_cell_angle_beta	90.010925
_cell_angle_gamma	97.357345
loop_
_atom_site_label
_atom_site_type_symbol
_atom_site_fract_x
_atom_site_fract_y
_atom_site_fract_z
O1	O	0.640936	-0.057516	0.042369
O2	O	0.500142	-0.066261	0.042385
O3	O	0.574912	0.008508	0.042367
O4	O	0.566166	-0.132285	0.042387
O5	O	0.574888	0.008508	-0.042491
O6	O	0.500119	-0.066261	-0.042473
O7	O	0.640912	-0.057516	-0.042489
Cu8	Cu	0.570513	-0.061889	-0.050229
Cu9	Cu	0.570541	-0.061889	0.050125
O10	O	0.566143	-0.132285	-0.042471
C11	C	0.482124	-0.066078	-0.000042
C12	C	0.428469	-0.065525	-0.000036
C13	C	0.574716	0.026515	-0.000064
C14	C	0.574164	0.080170	-0.000068
C15	C	0.566338	-0.150292	-0.000040
C16	C	0.566891	-0.203947	-0.000032
C17	C	0.089654	-0.106229	-0.000053
C18	C	-0.112006	-0.104178	-0.000057
O19	O	-0.143262	-0.141398	-0.000074
N20	N	-0.131130	-0.059843	-0.000063
C21	C	-0.099835	-0.016017	-0.000071
O22	O	-0.120728	0.021740	-0.000081
C23	C	0.101824	-0.018068	-0.000069
C24	C	0.120944	-0.062407	-0.000059
C25	C	0.108775	-0.150563	-0.000043
C26	C	0.159187	-0.151075	-0.000039
C27	C	0.190477	-0.107253	-0.000045
C28	C	0.171356	-0.062919	-0.000055
C29	C	0.133117	0.025757	-0.000081
C30	C	0.183535	0.025240	-0.000082
C31	C	0.202655	-0.019098	-0.000071
C32	C	0.253059	-0.019609	-0.000057
N33	N	0.272183	-0.063944	-0.000051
C34	C	0.240892	-0.107766	-0.000045
C35	C	-0.205709	-0.014943	-0.000070
C36	C	-0.256124	-0.014430	-0.000070
C37	C	-0.268291	-0.102591	-0.000057
C38	C	-0.217876	-0.103104	-0.000054
C39	C	-0.186585	-0.059278	-0.000065
C40	C	0.346761	-0.108839	-0.000036
C41	C	0.397178	-0.109347	-0.000030
C42	C	0.409341	-0.021186	-0.000045
C43	C	0.358929	-0.020678	-0.000049
C44	C	0.327639	-0.064508	-0.000046
O45	O	0.284343	0.017592	-0.000046
O46	O	0.261794	-0.145518	-0.000047
C47	C	0.039242	-0.105716	-0.000057
C48	C	0.020120	-0.061382	-0.000067
C49	C	0.051411	-0.017560	-0.000073
C50	C	-0.030294	-0.060869	-0.000066
C51	C	-0.061585	-0.104691	-0.000060
C52	C	-0.042461	-0.149026	-0.000054
C53	C	0.007951	-0.149539	-0.000050
C54	C	0.032287	0.026775	-0.000078
C55	C	-0.018125	0.027284	-0.000082
C56	C	-0.049416	-0.016538	-0.000076
C57	C	0.658931	-0.057699	-0.000061
C58	C	0.712586	-0.058252	-0.000064
N59	N	0.570497	-0.061888	-0.120813
C60	C	0.614867	0.418985	-0.000046
C61	C	0.612816	0.620645	-0.000039
O62	O	0.650037	0.651900	-0.000021
N63	N	0.568481	0.639768	-0.000034
C64	C	0.524656	0.608474	-0.000028
O65	O	0.486899	0.629367	-0.000019
C66	C	0.526707	0.406815	-0.000032
C67	C	0.571045	0.387694	-0.000042
C68	C	0.659202	0.399864	-0.000056
C69	C	0.659714	0.349452	-0.000060
C70	C	0.615892	0.318161	-0.000056
C71	C	0.571557	0.337282	-0.000046
C72	C	0.482882	0.375521	-0.000022
C73	C	0.483399	0.325104	-0.000022
C74	C	0.527737	0.305983	-0.000032
C75	C	0.528247	0.255580	-0.000046
N76	N	0.572583	0.236456	-0.000051
C77	C	0.616405	0.267747	-0.000056
C78	C	0.523582	0.714348	-0.000027
C79	C	0.523069	0.764762	-0.000027
C80	C	0.611230	0.776930	-0.000037
C81	C	0.611742	0.726514	-0.000041
C82	C	0.567917	0.695224	-0.000032
C83	C	0.617477	0.161878	-0.000066
C84	C	0.617986	0.111461	-0.000073
C85	C	0.529825	0.099298	-0.000060
C86	C	0.529316	0.149710	-0.000056
C87	C	0.573147	0.180999	-0.000057
O88	O	0.491047	0.224296	-0.000059
O89	O	0.654156	0.246844	-0.000054
C90	C	0.614355	0.469397	-0.000042
C91	C	0.570021	0.488518	-0.000033
C92	C	0.526198	0.457228	-0.000028
C93	C	0.569508	0.538933	-0.000033
C94	C	0.613330	0.570223	-0.000037
C95	C	0.657665	0.551100	-0.000042
C96	C	0.658177	0.500688	-0.000046
C97	C	0.481863	0.476351	-0.000023
C98	C	0.481355	0.526764	-0.000019
C99	C	0.525177	0.558054	-0.000024
C100	C	0.599633	-0.090999	-0.473327
C101	C	0.599647	-0.090999	-0.686985
O102	O	0.624408	-0.115745	-0.714606
N103	N	0.570553	-0.061884	-0.713707
C104	C	0.541455	-0.032764	-0.687012
O105	O	0.516712	-0.007996	-0.714643
C106	C	0.541443	-0.032762	-0.473354
C107	C	0.570536	-0.061883	-0.446635
C108	C	0.628724	-0.120117	-0.446607
C109	C	0.628718	-0.120119	-0.393196
C110	C	0.599621	-0.091003	-0.366504
C111	C	0.570530	-0.061885	-0.393223
C112	C	0.512348	-0.003640	-0.446659
C113	C	0.512349	-0.003641	-0.393241
C114	C	0.541442	-0.032762	-0.366522
C115	C	0.541427	-0.032770	-0.313120
N116	N	0.570522	-0.061886	-0.286397
C117	C	0.599619	-0.091002	-0.313090
C118	C	0.541462	-0.032768	-0.799185
C119	C	0.541464	-0.032769	-0.852599
C120	C	0.599658	-0.091003	-0.852569
C121	C	0.599652	-0.091004	-0.799154
C122	C	0.570557	-0.061883	-0.772463
C123	C	0.599604	-0.091004	-0.200922
C124	C	0.599594	-0.091005	-0.147505
C125	C	0.541403	-0.032769	-0.147540
C126	C	0.541411	-0.032769	-0.200952
C127	C	0.570515	-0.061889	-0.227641
O128	O	0.516684	-0.008033	-0.285465
O129	O	0.624366	-0.115758	-0.285449
C130	C	0.599639	-0.090998	-0.526738
C131	C	0.570548	-0.061879	-0.553457
C132	C	0.541451	-0.032763	-0.526765
C133	C	0.570550	-0.061880	-0.606872
C134	C	0.599647	-0.090997	-0.633564
C135	C	0.628742	-0.120112	-0.606842
C136	C	0.628736	-0.120114	-0.553430
C137	C	0.512356	-0.003648	-0.553488
C138	C	0.512364	-0.003649	-0.606899
C139	C	0.541461	-0.032765	-0.633591
N140	N	0.570561	-0.061885	0.120709
H141	H	0.321291	-0.144530	-0.000036
C142	C	0.074361	-0.198773	-0.000034
C143	C	0.076291	-0.235203	0.044040
C144	C	0.041881	-0.283417	0.044054
C145	C	0.005540	-0.295201	-0.000006
C146	C	0.003608	-0.258770	-0.044083
C147	C	0.038018	-0.210556	-0.044097
H148	H	0.103194	-0.226481	0.076659
H149	H	0.043311	-0.310386	0.076682
H150	H	-0.019932	-0.330892	0.000004
H151	H	-0.023295	-0.267492	-0.076702
H152	H	0.036588	-0.183588	-0.076726
H153	H	0.654093	0.095896	-0.000082
H154	H	0.174750	-0.187180	-0.000030
C155	C	0.631658	-0.123034	-0.769765
C156	C	0.671208	-0.099515	-0.733041
C157	C	0.703216	-0.131546	-0.703656
C158	C	0.695675	-0.187094	-0.710993
C159	C	0.656123	-0.210616	-0.747718
C160	C	0.624115	-0.178586	-0.777104
H161	H	0.676792	-0.058392	-0.727608
H162	H	0.732494	-0.114133	-0.676469
H163	H	0.719369	-0.210805	-0.689240
H164	H	0.650539	-0.251739	-0.753152
H165	H	0.594837	-0.195999	-0.804291
C166	C	-0.076887	-0.197232	-0.000049
C167	C	-0.113217	-0.208999	0.044013
C168	C	-0.147646	-0.257201	0.044015
C169	C	-0.145744	-0.293636	-0.000045
C170	C	-0.109413	-0.281870	-0.044111
C171	C	-0.074985	-0.233667	-0.044113
H172	H	-0.114626	-0.182027	0.076632
H173	H	-0.174540	-0.265911	0.076635
H174	H	-0.171231	-0.329318	-0.000044
H175	H	-0.108004	-0.308842	-0.076730
H176	H	-0.048090	-0.224958	-0.076733
C177	C	0.509450	-0.000736	-0.769828
C178	C	0.469899	-0.024254	-0.733114
C179	C	0.437886	0.007775	-0.703759
C180	C	0.445423	0.063324	-0.711118
C181	C	0.484976	0.086845	-0.747833
C182	C	0.516990	0.054816	-0.777188
H183	H	0.464318	-0.065377	-0.727665
H184	H	0.408606	-0.009637	-0.676579
H185	H	0.421725	0.087034	-0.689387
H186	H	0.490558	0.127968	-0.753282
H187	H	0.546270	0.072228	-0.804368
C188	C	-0.039153	0.076061	-0.000093
C189	C	-0.027201	0.112350	-0.044166
C190	C	-0.048227	0.161125	-0.044182
C191	C	-0.081205	0.173611	-0.000125
C192	C	-0.093159	0.137320	0.043952
C193	C	-0.072134	0.088545	0.043968
H194	H	-0.002787	0.103108	-0.076783
H195	H	-0.039377	0.187989	-0.076811
H196	H	-0.096770	0.209717	-0.000137
H197	H	-0.117574	0.146562	0.076569
H198	H	-0.080983	0.061681	0.076596
H199	H	0.517712	-0.009064	-0.125798
H200	H	0.117558	0.061861	-0.000090
H201	H	0.412743	-0.145454	-0.000021
H202	H	0.445246	0.542327	-0.000016
H203	H	0.488662	0.020064	-0.531760
C204	C	0.433656	0.441935	-0.000022
C205	C	0.421872	0.405614	-0.044090
C206	C	0.373661	0.371198	-0.044092
C207	C	0.337234	0.373104	-0.000027
C208	C	0.349017	0.409427	0.044045
C209	C	0.397228	0.443842	0.044047
H210	H	0.448839	0.404201	-0.076713
H211	H	0.364939	0.344310	-0.076717
H212	H	0.301546	0.347628	-0.000028
H213	H	0.322050	0.410839	0.076668
H214	H	0.405950	0.470730	0.076672
C215	C	0.631600	-0.123038	-0.118115
C216	C	0.663607	-0.155063	-0.147480
C217	C	0.695611	-0.187095	-0.118092
C218	C	0.695609	-0.187102	-0.059338
C219	C	0.663600	-0.155077	-0.029970
C220	C	0.631595	-0.123045	-0.059358
H221	H	0.663610	-0.155058	-0.190976
H222	H	0.719306	-0.210802	-0.139832
H223	H	0.719300	-0.210814	-0.037583
H224	H	0.663597	-0.155081	0.013526
H225	H	0.607900	-0.099337	-0.037617
C226	C	0.480543	0.170743	-0.000043
C227	C	0.468082	0.203711	0.044034
C228	C	0.419307	0.224738	0.044055
C229	C	0.382994	0.212795	-0.000000
C230	C	0.395455	0.179825	-0.044080
C231	C	0.444229	0.158799	-0.044102
H232	H	0.494964	0.212553	0.076649
H233	H	0.410084	0.249145	0.076686
H234	H	0.346888	0.228360	0.000016
H235	H	0.368572	0.170983	-0.076695
H236	H	0.453453	0.134392	-0.076733
H237	H	0.494146	0.073812	-0.000058
H238	H	0.652426	-0.143827	-0.531680
C239	C	0.631615	-0.123039	-0.230274
C240	C	0.608074	-0.162577	-0.266991
C241	C	0.640082	-0.194616	-0.296343
C242	C	0.695630	-0.187116	-0.288977
C243	C	0.719173	-0.147576	-0.252257
C244	C	0.687166	-0.115538	-0.222906
H245	H	0.566952	-0.168130	-0.272446
H246	H	0.622653	-0.223886	-0.323525
H247	H	0.719323	-0.210833	-0.310705
H248	H	0.760296	-0.142023	-0.246803
H249	H	0.704595	-0.086268	-0.195724
H250	H	-0.202311	-0.139207	-0.000049
H251	H	0.488658	0.020074	-0.468405
C252	C	0.066702	0.074984	-0.000081
C253	C	0.064780	0.111424	-0.044147
C254	C	0.099192	0.159636	-0.044145
C255	C	0.135526	0.171409	-0.000077
C256	C	0.137450	0.134969	0.043992
C257	C	0.103037	0.086756	0.043990
H258	H	0.037882	0.102709	-0.076772
H259	H	0.097769	0.186612	-0.076769
H260	H	0.161000	0.207099	-0.000076
H261	H	0.164348	0.143683	0.076617
H262	H	0.104461	0.059781	0.076614
C263	C	0.480341	0.028392	-0.363881
C264	C	0.487886	0.083941	-0.371236
C265	C	0.455878	0.115973	-0.341877
C266	C	0.416325	0.092457	-0.305164
C267	C	0.408778	0.036905	-0.297808
C268	C	0.440786	0.004873	-0.327167
H269	H	0.517167	0.101352	-0.398414
H270	H	0.461465	0.157097	-0.347322
H271	H	0.392630	0.116169	-0.283431
H272	H	0.379496	0.019494	-0.270630
H273	H	0.435199	-0.036251	-0.321722
C274	C	0.509457	-0.000739	-0.881987
C275	C	0.477455	0.031288	-0.852619
C276	C	0.445449	0.063321	-0.882004
C277	C	0.445445	0.063326	-0.940758
C278	C	0.477449	0.031297	-0.970129
C279	C	0.509455	-0.000736	-0.940744
H280	H	0.477456	0.031285	-0.809123
H281	H	0.421758	0.087031	-0.860261
H282	H	0.421753	0.087039	-0.962511
H283	H	0.477447	0.031300	-1.013625
H284	H	0.533146	-0.024445	-0.962486
H285	H	0.653168	0.187348	-0.000065
C286	C	0.475369	0.679933	-0.000025
C287	C	0.438941	0.681845	0.044040
C288	C	0.390728	0.647434	0.044039
C289	C	0.378943	0.611110	-0.000027
C290	C	0.415371	0.609197	-0.044094
C291	C	0.463584	0.643608	-0.044093
H292	H	0.447665	0.708736	0.076663
H293	H	0.363762	0.648851	0.076661
H294	H	0.343252	0.585637	-0.000027
H295	H	0.406648	0.582306	-0.076717
H296	H	0.490551	0.642191	-0.076715
H297	H	-0.271687	0.021674	-0.000070
H298	H	0.434827	0.014492	-0.000048
H299	H	0.517715	-0.009063	-0.222708
C300	C	0.217954	0.073450	-0.000091
C301	C	0.216033	0.109883	-0.044163
C302	C	0.250451	0.158092	-0.044171
C303	C	0.286790	0.169867	-0.000107
C304	C	0.288711	0.133433	0.043968
C305	C	0.254293	0.085224	0.043976
H306	H	0.189132	0.101168	-0.076785
H307	H	0.249028	0.185064	-0.076799
H308	H	0.312268	0.205555	-0.000113
H309	H	0.315612	0.142148	0.076589
H310	H	0.255716	0.058252	0.076603
C311	C	0.708486	0.328422	-0.000063
C312	C	0.720974	0.295432	0.044001
C313	C	0.769749	0.274406	0.044001
C314	C	0.806035	0.286368	-0.000064
C315	C	0.793548	0.319359	-0.044132
C316	C	0.744774	0.340386	-0.044131
H317	H	0.694112	0.286576	0.076623
H318	H	0.778992	0.249984	0.076623
H319	H	0.842141	0.270803	-0.000064
H320	H	0.820411	0.328215	-0.076754
H321	H	0.735530	0.364808	-0.076753
C322	C	0.707412	0.434278	-0.000063
C323	C	0.743829	0.432361	-0.044137
C324	C	0.792043	0.466771	-0.044149
C325	C	0.803840	0.503099	-0.000089
C326	C	0.767421	0.505017	0.043988
C327	C	0.719207	0.470607	0.044000
H328	H	0.735098	0.405468	-0.076756
H329	H	0.819002	0.465351	-0.076778
H330	H	0.839530	0.528571	-0.000098
H331	H	0.776153	0.531910	0.076607
H332	H	0.692248	0.472027	0.076629
C333	C	0.660733	-0.152151	-0.475961
C334	C	0.716281	-0.144648	-0.468594
C335	C	0.748290	-0.176688	-0.497942
C336	C	0.724751	-0.216230	-0.534656
C337	C	0.669200	-0.223734	-0.542024
C338	C	0.637191	-0.191695	-0.512676
H339	H	0.733709	-0.115375	-0.441415
H340	H	0.789413	-0.171132	-0.492488
H341	H	0.748446	-0.239947	-0.556382
H342	H	0.651772	-0.253007	-0.569204
H343	H	0.596069	-0.197250	-0.518131
H344	H	-0.293777	-0.138273	-0.000053
H345	H	-0.180236	0.020747	-0.000079
H346	H	0.343360	0.015426	-0.000050
H347	H	0.652411	-0.143830	-0.371446
H348	H	0.023514	-0.185643	-0.000042
H349	H	0.647846	0.710950	-0.000048
H350	H	0.652431	-0.143822	-0.628584
H351	H	0.646911	0.802415	-0.000041
H352	H	0.488668	0.020064	-0.628649
H353	H	0.446777	0.391080	-0.000011
H354	H	0.486964	0.780325	-0.000028
H355	H	0.694282	0.485125	-0.000054
H356	H	0.447710	0.299629	-0.000014
H357	H	0.693347	0.576585	-0.000048
H358	H	0.623347	-0.114713	-0.874311
