data_functionalizedCrystal
_audit_creation_method	'MofGen! by Chris Wilmer'
_symmetry_space_group_name_H-M	'P1'
_symmetry_Int_Tables_number	1
_symmetry_cell_setting	triclinic
loop_
_symmetry_equiv_pos_as_xyz
  x,y,z
_cell_length_a	6.817900
_cell_length_b	17.078481
_cell_length_c	9.582889
_cell_angle_alpha	94.514366
_cell_angle_beta	111.207298
_cell_angle_gamma	99.306161
loop_
_atom_site_label
_atom_site_type_symbol
_atom_site_fract_x
_atom_site_fract_y
_atom_site_fract_z
V1	V	-4.019538	-0.247217	-0.206707
V2	V	-3.519538	0.252783	0.293293
O3	O	-3.966058	-0.242660	0.010293
O4	O	-3.466058	0.257340	0.510293
O5	O	-4.010663	-0.245382	-0.410210
O6	O	-3.510663	0.254618	0.089790
O7	O	-3.949940	-0.355102	-0.203369
O8	O	-3.449940	0.144898	0.296631
O9	O	-4.027202	-0.132181	-0.197980
O10	O	-3.527202	0.367819	0.302020
V11	V	-4.500792	-0.233475	-0.180770
V12	V	-4.000792	0.266525	0.319230
O13	O	-4.285776	-0.277360	-0.263601
O14	O	-3.785776	0.222640	0.236399
O15	O	-4.684752	-0.203331	-0.123875
O16	O	-4.184752	0.296669	0.376125
O17	O	-4.286461	-0.235309	0.022734
O18	O	-3.786461	0.264691	0.522734
O19	O	-4.671669	-0.238031	-0.397769
O20	O	-4.171669	0.261969	0.102231
O21	O	-4.610525	-0.348511	-0.189496
O22	O	-4.110525	0.151489	0.310504
O23	O	-4.347184	-0.125590	-0.184107
O24	O	-3.847184	0.374410	0.315893
C25	C	-3.865965	-0.241445	-0.459825
C26	C	-3.365965	0.258555	0.040175
C27	C	-3.939854	-0.240664	-0.626191
C28	C	-3.439854	0.259336	-0.126191
C29	C	-3.788505	-0.381403	-0.195977
C30	C	-3.288505	0.118597	0.304023
C31	C	-3.813146	-0.469598	-0.194595
C32	C	-3.313146	0.030402	0.305405
C33	C	-4.007505	-0.515069	-0.201416
C34	C	-3.507505	-0.015069	0.298584
C35	C	-4.030645	-0.597938	-0.200116
C36	C	-3.530645	-0.097938	0.299884
C37	C	-3.859429	-0.635336	-0.192006
C38	C	-3.359429	-0.135336	0.307994
C39	C	-3.665052	-0.589858	-0.185180
C40	C	-3.165052	-0.089858	0.314820
C41	C	-3.641909	-0.506990	-0.186469
C42	C	-3.141909	-0.006990	0.313531
C43	C	-3.909039	-0.882742	-0.187341
C44	C	-3.409039	-0.382742	0.312659
C45	C	-3.932199	-0.965617	-0.186057
C46	C	-3.432199	-0.465617	0.313943
C47	C	-4.297791	-0.973691	-0.200991
C48	C	-3.797791	-0.473691	0.299009
C49	C	-4.274635	-0.890822	-0.202288
C50	C	-3.774635	-0.390822	0.297712
C51	C	-4.080257	-0.845351	-0.195454
C52	C	-3.580257	-0.345351	0.304546
N53	N	-3.883080	-0.720042	-0.190683
N54	N	-3.383080	-0.220042	0.309317
N55	N	-4.056604	-0.760646	-0.196767
N56	N	-3.556604	-0.260646	0.303233
C57	C	-4.094503	-0.239244	0.072341
C58	C	-3.594503	0.260756	0.572341
C59	C	-3.999851	-0.240030	0.238705
C60	C	-3.499851	0.259970	0.738705
C61	C	-4.171962	-0.099285	-0.191504
C62	C	-3.671962	0.400715	0.308496
C63	C	-4.126559	-0.011088	-0.192879
C64	C	-3.626559	0.488912	0.307121
H65	H	-4.146938	-0.484628	-0.208030
H66	H	-3.646938	0.015372	0.291970
H67	H	-3.483626	-0.469965	-0.180877
H68	H	-2.983626	0.030035	0.319123
H69	H	-4.188906	-0.634957	-0.205663
H70	H	-3.688906	-0.134957	0.294337
H71	H	-4.414061	-0.860379	-0.208891
H72	H	-3.914061	-0.360379	0.291109
H73	H	-3.750793	-0.845734	-0.181830
H74	H	-3.250793	-0.345734	0.318170
H75	H	-4.456045	-1.010722	-0.206553
H76	H	-3.956045	-0.510722	0.293447
H77	H	-3.525642	-0.620313	-0.178568
H78	H	-3.025642	-0.120313	0.321432
H79	H	-3.792761	-0.996063	-0.179448
H80	H	-3.292761	-0.496063	0.320552
