data_functionalizedCrystal
_audit_creation_method	'MofGen! by Chris Wilmer'
_symmetry_space_group_name_H-M	'P1'
_symmetry_Int_Tables_number	1
_symmetry_cell_setting	triclinic
loop_
_symmetry_equiv_pos_as_xyz
  x,y,z
_cell_length_a	11.295471
_cell_length_b	23.532407
_cell_length_c	12.837942
_cell_angle_alpha	88.838805
_cell_angle_beta	85.466983
_cell_angle_gamma	94.089502
loop_
_atom_site_label
_atom_site_type_symbol
_atom_site_fract_x
_atom_site_fract_y
_atom_site_fract_z
O1	O	0.098846	-0.759016	-0.132762
O2	O	0.098888	-0.594196	-0.150963
O3	O	0.098861	-0.672952	0.009003
O4	O	0.098873	-0.680260	-0.292728
O5	O	-0.099193	-0.679875	0.023025
O6	O	-0.099166	-0.601119	-0.136941
O7	O	-0.099207	-0.765940	-0.118740
Cu8	Cu	-0.117270	-0.684162	-0.126560
Cu9	Cu	0.116951	-0.675974	-0.143143
O10	O	-0.099180	-0.687184	-0.278706
C11	C	-0.000134	-0.576415	-0.143489
C12	C	-0.000118	-0.513117	-0.142096
N13	N	-0.282009	-0.689925	-0.114896
C14	C	-0.000153	-0.118945	-0.228019
C15	C	-0.000158	-0.059471	-0.226724
O16	O	-0.000196	-0.027298	-0.306375
N17	N	-0.000159	-0.031388	-0.131626
C18	C	-0.000167	-0.062784	-0.037815
O19	O	-0.000170	-0.033436	0.043193
C20	C	-0.000171	-0.122257	-0.039110
C21	C	-0.000158	-0.150336	-0.134215
C22	C	-0.000141	-0.147025	-0.323116
C23	C	-0.000134	-0.206495	-0.324411
C24	C	-0.000138	-0.237886	-0.230607
C25	C	-0.000150	-0.209806	-0.135510
C26	C	-0.000187	-0.153652	0.054701
C27	C	-0.000192	-0.213129	0.053397
C28	C	-0.000179	-0.241208	-0.041708
C29	C	-0.000148	-0.300667	-0.043000
N30	N	-0.000147	-0.328750	-0.138099
C31	C	-0.000142	-0.297359	-0.231902
C32	C	-0.000162	0.062115	-0.035102
C33	C	-0.000150	0.121587	-0.033806
C34	C	-0.000143	0.124896	-0.222716
C35	C	-0.000146	0.065422	-0.224011
C36	C	-0.000161	0.034032	-0.130201
C37	C	-0.000126	-0.422251	-0.234614
C38	C	-0.000114	-0.481726	-0.235900
C39	C	-0.000127	-0.485030	-0.046990
C40	C	-0.000133	-0.425559	-0.045704
C41	C	-0.000136	-0.394171	-0.139524
O42	O	-0.000114	-0.332877	0.036608
O43	O	-0.000155	-0.326715	-0.312896
N44	N	0.281689	-0.670215	-0.154799
C45	C	0.468726	-0.628727	-0.238691
C46	C	0.344060	-0.633082	-0.229891
C47	C	0.343993	-0.702995	-0.088503
C48	C	0.468658	-0.698639	-0.097302
C49	C	0.531020	-0.661503	-0.172398
C50	C	0.655688	-0.657145	-0.181192
C51	C	0.655618	-0.727060	-0.039809
C52	C	0.530953	-0.731416	-0.031009
C53	C	-0.000165	-0.673944	0.054609
C54	C	-0.000161	-0.666580	0.169610
C55	C	-0.000173	0.216280	-0.126215
C56	C	-0.000151	0.152983	-0.127610
C57	C	-0.000152	-0.686191	-0.324312
C58	C	-0.000148	-0.693556	-0.439314
C59	C	-0.000158	-0.755113	0.411480
C60	C	-0.000155	-0.748196	0.519534
C61	C	-0.000141	-0.645829	0.493775
C62	C	-0.000145	-0.652746	0.385720
C63	C	-0.000155	-0.707390	0.344578
C64	C	-0.000168	-0.714306	0.236522
C65	C	-0.000146	-0.611940	0.210764
C66	C	-0.000142	-0.605023	0.318818
H67	H	-0.000102	-0.504585	-0.313349
H68	H	-0.000199	-0.130800	0.132146
H69	H	-0.000178	-0.799606	0.377982
H70	H	0.480163	-0.761653	0.030130
H71	H	-0.000145	0.150465	-0.299096
C72	C	-0.000153	0.152468	0.070808
H73	H	-0.000163	0.125250	0.126484
H74	H	0.068909	0.178021	0.070358
H75	H	-0.069231	0.173178	0.080134
H76	H	-0.000153	-0.573080	0.156280
H77	H	-0.000120	-0.601340	0.527292
H78	H	-0.000180	-0.758800	0.203026
C79	C	-0.000114	-0.387732	-0.337814
H80	H	-0.000093	-0.412979	-0.394629
H81	H	-0.069177	-0.366879	-0.336364
H82	H	0.068963	-0.362046	-0.346123
C83	C	-0.000128	-0.237377	-0.429024
H84	H	-0.000119	-0.277294	-0.416376
H85	H	-0.069192	-0.229365	-0.462729
H86	H	0.068948	-0.224528	-0.472507
H87	H	-0.000204	-0.238684	0.129791
H88	H	0.706352	-0.753747	0.014174
C89	C	-0.000138	-0.544920	0.364082
H90	H	-0.000145	-0.547635	0.438018
H91	H	0.068924	-0.522603	0.336187
H92	H	-0.069216	-0.527445	0.345978
C93	C	-0.000126	-0.112503	-0.426310
H94	H	-0.000110	-0.137752	-0.483124
H95	H	-0.069185	-0.091648	-0.424862
H96	H	0.068955	-0.086820	-0.434623
C97	C	-0.000142	0.034540	-0.328625
H98	H	-0.000145	0.061758	-0.384300
H99	H	0.068919	0.013824	-0.337952
H100	H	-0.069221	0.008994	-0.328170
C101	C	-0.000134	-0.394671	0.058908
H102	H	-0.000139	-0.421886	0.114587
H103	H	0.068923	-0.369116	0.058452
H104	H	-0.069216	-0.373963	0.068231
C105	C	-0.000152	0.027591	0.068095
H106	H	-0.000140	0.052839	0.124910
H107	H	-0.069214	0.001902	0.076420
H108	H	0.068926	0.006743	0.066624
H109	H	-0.000153	-0.787057	0.574003
H110	H	-0.000126	-0.510599	0.029382
C111	C	0.724291	-0.616300	-0.263794
H112	H	0.807460	-0.618396	-0.259537
H113	H	0.703878	-0.626876	-0.331478
H114	H	0.703868	-0.578426	-0.251315
C115	C	0.537327	-0.587879	-0.321287
H116	H	0.482371	-0.568983	-0.359513
H117	H	0.585958	-0.560506	-0.287577
H118	H	0.585963	-0.608952	-0.367746
H119	H	0.293344	-0.606393	-0.283875
C120	C	0.275381	-0.743843	-0.005912
H121	H	0.192214	-0.741740	-0.010168
H122	H	0.295806	-0.781714	-0.018388
H123	H	0.295782	-0.733267	0.061781
