data_functionalizedCrystal
_audit_creation_method	'MofGen! by Chris Wilmer'
_symmetry_space_group_name_H-M	'P1'
_symmetry_Int_Tables_number	1
_symmetry_cell_setting	triclinic
loop_
_symmetry_equiv_pos_as_xyz
  x,y,z
_cell_length_a	10.686220
_cell_length_b	12.759394
_cell_length_c	10.686551
_cell_angle_alpha	94.406554
_cell_angle_beta	89.691918
_cell_angle_gamma	94.396533
loop_
_atom_site_label
_atom_site_type_symbol
_atom_site_fract_x
_atom_site_fract_y
_atom_site_fract_z
Zn1	Zn	1.972288	-0.256139	0.562381
Zn2	Zn	1.956059	-0.446299	0.352619
Zn3	Zn	1.746406	-0.283015	0.368698
Zn4	Zn	1.762489	-0.444170	0.578397
O5	O	1.859311	-0.357405	0.465524
O6	O	2.145677	-0.271007	0.521124
O7	O	1.914725	-0.436778	0.179206
O8	O	1.776431	-0.132423	0.394417
O9	O	2.133754	-0.410717	0.367013
O10	O	1.942386	-0.112677	0.536715
O11	O	1.760695	-0.316813	0.191020
O12	O	1.572998	-0.314749	0.409947
O13	O	1.803842	-0.407088	0.751818
O14	O	1.584814	-0.433149	0.564012
O15	O	1.957980	-0.268943	0.740052
O16	O	1.930320	-0.593043	0.382543
O17	O	1.788105	-0.591479	0.548421
C18	C	1.533390	-0.376635	0.490463
C19	C	1.393962	-0.384885	0.501162
C20	C	1.859233	-0.630379	0.465499
C21	C	1.859318	-0.747149	0.465522
C22	C	2.007536	-0.748709	0.292904
C23	C	2.081679	-0.804347	0.206608
C24	C	2.081755	-0.914062	0.206636
C25	C	2.007683	-0.968141	0.292973
C26	C	1.933540	-0.912503	0.379270
C27	C	1.933469	-0.802786	0.379229
C28	C	1.785331	-0.910942	0.551891
C29	C	1.785246	-0.801228	0.551859
C30	C	1.711259	-0.965022	0.638228
C31	C	1.637107	-0.909384	0.724521
C32	C	1.637033	-0.799663	0.724488
C33	C	1.711103	-0.745590	0.638155
C34	C	2.186504	-0.338102	0.440489
C35	C	2.325934	-0.329875	0.429820
C36	C	1.884515	-0.334780	0.792725
C37	C	1.895256	-0.325138	0.932158
C38	C	1.859425	-0.083362	0.465573
C39	C	1.859473	0.033420	0.465595
C40	C	1.834276	-0.379863	0.139591
C41	C	1.823778	-0.389194	0.000139
H42	H	1.374359	-0.276469	0.360555
H43	H	1.964678	-0.262921	0.980633
C44	C	1.328555	-0.457015	0.594767
H45	H	1.389929	-0.490414	0.638092
H46	H	1.281684	-0.416078	0.653369
H47	H	1.273712	-0.509060	0.550585
C48	C	2.007449	-0.628027	0.292864
H49	H	2.062184	-0.603788	0.229093
H50	H	1.924821	-0.609555	0.277304
H51	H	2.035316	-0.596283	0.372171
C52	C	2.163151	-0.744860	0.111644
H53	H	2.152482	-0.671550	0.123975
H54	H	2.248853	-0.756526	0.123618
H55	H	2.138361	-0.769797	0.028747
H56	H	2.142135	-0.959362	0.136372
H57	H	2.007763	-1.057476	0.292999
H58	H	1.576663	-0.754368	0.794765
H59	H	1.711041	-0.656256	0.638113
C60	C	1.711339	-1.085705	0.638258
H61	H	1.766092	-1.111099	0.574491
H62	H	1.739225	-1.103608	0.717576
H63	H	1.628736	-1.116865	0.622701
C64	C	1.730022	-0.473261	0.934675
H65	H	1.686631	-0.512163	0.996017
H66	H	1.671484	-0.439805	0.887736
H67	H	1.774123	-0.519699	0.879889
H68	H	1.576811	-0.953424	0.794814
