data_functionalizedCrystal
_audit_creation_method	'MofGen! by Chris Wilmer'
_symmetry_space_group_name_H-M	'P1'
_symmetry_Int_Tables_number	1
_symmetry_cell_setting	triclinic
loop_
_symmetry_equiv_pos_as_xyz
  x,y,z
_cell_length_a	9.065218
_cell_length_b	15.072220
_cell_length_c	9.065218
_cell_angle_alpha	89.999165
_cell_angle_beta	85.015885
_cell_angle_gamma	90.012623
loop_
_atom_site_label
_atom_site_type_symbol
_atom_site_fract_x
_atom_site_fract_y
_atom_site_fract_z
O1	O	1.960420	0.073781	0.216347
O2	O	1.531135	0.073782	0.234094
O3	O	1.754650	0.073779	0.010578
O4	O	1.736904	0.073783	0.439863
O5	O	1.754595	-0.073786	0.010590
O6	O	1.531079	-0.073783	0.234106
O7	O	1.960364	-0.073784	0.216359
Zn8	Zn	1.745713	-0.097213	0.225234
Zn9	Zn	1.745786	0.097210	0.225219
O10	O	1.736848	-0.073782	0.439875
C11	C	1.476120	-0.000001	0.232394
C12	C	1.312277	-0.000000	0.227294
N13	N	1.745673	-0.229902	0.225244
C14	C	1.745783	-0.589103	0.225213
C15	C	1.625772	-0.551495	0.344400
C16	C	1.626056	-0.448669	0.344844
C17	C	1.745727	-0.410899	0.225229
C18	C	1.900137	-0.448191	0.260913
C19	C	1.899467	-0.551048	0.261762
C20	C	1.712752	-0.551205	0.070002
C21	C	1.709233	-0.448341	0.070987
C22	C	1.745705	-0.310186	0.225234
C23	C	1.745815	-0.689817	0.225210
C24	C	2.015378	0.000000	0.218059
C25	C	2.179221	0.000005	0.223158
C26	C	1.752917	-0.000002	-0.044403
C27	C	1.747817	0.000003	-0.208245
N28	N	1.745837	0.229899	0.225197
C29	C	1.738582	0.000001	0.494855
C30	C	1.743681	0.000003	0.658698
H31	H	1.511347	-0.423458	0.323280
H32	H	1.510697	-0.576256	0.323160
Br33	Br	1.660828	-0.594538	0.535228
H34	H	1.928260	-0.575029	0.375019
Br35	Br	1.661499	-0.407635	0.536766
Br36	Br	2.052689	-0.407418	0.120216
H37	H	1.991670	-0.575924	0.178485
H38	H	1.929564	-0.422420	0.372892
Br39	Br	1.528944	-0.594492	0.013689
Br40	Br	1.845210	-0.405508	-0.084038
H41	H	1.595637	-0.423969	0.043954
Br42	Br	1.858580	-0.591736	-0.077870
