data_functionalizedCrystal
_audit_creation_method	'MofGen! by Chris Wilmer'
_symmetry_space_group_name_H-M	'P1'
_symmetry_Int_Tables_number	1
_symmetry_cell_setting	triclinic
loop_
_symmetry_equiv_pos_as_xyz
  x,y,z
_cell_length_a	19.121241
_cell_length_b	17.077402
_cell_length_c	17.077396
_cell_angle_alpha	89.968612
_cell_angle_beta	87.539368
_cell_angle_gamma	92.457116
loop_
_atom_site_label
_atom_site_type_symbol
_atom_site_fract_x
_atom_site_fract_y
_atom_site_fract_z
Zn1	Zn	1.073745	-0.261404	-0.495123
Zn2	Zn	1.573745	0.238596	0.004877
Zn3	Zn	1.073667	-0.392687	-0.363850
Zn4	Zn	1.573667	0.107313	0.136150
Zn5	Zn	0.956296	-0.267024	-0.358261
Zn6	Zn	1.456296	0.232976	0.141739
Zn7	Zn	0.956263	-0.398222	-0.489466
Zn8	Zn	1.456263	0.101778	0.010534
O9	O	1.014993	-0.329834	-0.426675
O10	O	1.514993	0.170166	0.073325
O11	O	1.172021	-0.274151	-0.482415
O12	O	1.672021	0.225849	0.017585
O13	O	1.058079	-0.376052	-0.253260
O14	O	1.558079	0.123948	0.246740
O15	O	0.971923	-0.156429	-0.376444
O16	O	1.471923	0.343571	0.123556
O17	O	1.171964	-0.370603	-0.385970
O18	O	1.671964	0.129397	0.114030
O19	O	1.058212	-0.152301	-0.476996
O20	O	1.558212	0.347699	0.023004
O21	O	0.971847	-0.283728	-0.249154
O22	O	1.471847	0.216272	0.250846
O23	O	0.858005	-0.289096	-0.370959
O24	O	1.358005	0.210904	0.129041
O25	O	0.971866	-0.380038	-0.600064
O26	O	1.471866	0.119962	-0.100064
O27	O	0.857981	-0.385487	-0.467354
O28	O	1.357981	0.114513	0.032646
O29	O	1.058179	-0.279519	-0.604220
O30	O	1.558179	0.220481	-0.104220
O31	O	1.058046	-0.503270	-0.380485
O32	O	1.558046	-0.003270	0.119515
O33	O	0.971790	-0.507337	-0.472774
O34	O	1.471790	-0.007337	0.027226
C35	C	0.832508	-0.338502	-0.417937
C36	C	1.332508	0.161498	0.082063
C37	C	0.754441	-0.342229	-0.414217
C38	C	1.254441	0.157771	0.085783
C39	C	1.014925	-0.533785	-0.426640
C40	C	1.514925	-0.033785	0.073360
C41	C	1.014960	-0.621033	-0.426655
C42	C	1.514960	-0.121033	0.073345
C43	C	1.059920	-0.659878	-0.378656
C44	C	1.559920	-0.159878	0.121344
C45	C	1.059954	-0.741856	-0.378677
C46	C	1.559954	-0.241856	0.121323
C47	C	1.015025	-0.784990	-0.426694
C48	C	1.515025	-0.284990	0.073306
C49	C	0.970063	-0.746140	-0.474699
C50	C	1.470063	-0.246140	0.025301
C51	C	0.970033	-0.664162	-0.474681
C52	C	1.470033	-0.164162	0.025319
C53	C	0.970128	-0.917007	-0.474732
C54	C	1.470128	-0.417007	0.025268
C55	C	0.970158	-0.998990	-0.474749
C56	C	1.470158	-0.498990	0.025251
C57	C	1.060050	-0.994701	-0.378728
C58	C	1.560050	-0.494701	0.121272
C59	C	1.060019	-0.912723	-0.378710
C60	C	1.560019	-0.412723	0.121290
C61	C	1.015057	-0.873879	-0.426714
C62	C	1.515057	-0.373879	0.073286
C63	C	0.717795	-0.293842	-0.462760
C64	C	1.217795	0.206158	0.037240
C65	C	0.644442	-0.297341	-0.459259
C66	C	1.144442	0.202659	0.040741
C67	C	0.607736	-0.349230	-0.407217
C68	C	1.107736	0.150770	0.092783
C69	C	0.644387	-0.397619	-0.358669
C70	C	1.144387	0.102381	0.141331
C71	C	0.717739	-0.394117	-0.362167
C72	C	1.217739	0.105883	0.137833
C73	C	0.386260	-0.362311	-0.394135
C74	C	0.886260	0.137689	0.105865
C75	C	0.312903	-0.365812	-0.390642
C76	C	0.812903	0.134188	0.109358
C77	C	0.312963	-0.265532	-0.491232
C78	C	0.812963	0.234468	0.008768
C79	C	0.386316	-0.262037	-0.494729
C80	C	0.886316	0.237963	0.005271
C81	C	0.422961	-0.310423	-0.446177
C82	C	0.922961	0.189577	0.053823
C83	C	0.532758	-0.352809	-0.403638
C84	C	1.032758	0.147191	0.096362
C85	C	0.497938	-0.306840	-0.449753
C86	C	0.997938	0.193160	0.050247
C87	C	1.198190	-0.321133	-0.435447
C88	C	1.698190	0.178867	0.064553
C89	C	1.276258	-0.317425	-0.439185
C90	C	1.776258	0.182575	0.060815
C91	C	1.015028	-0.329769	-0.631421
C92	C	1.515028	0.170231	-0.131421
C93	C	1.015042	-0.329741	-0.718671
C94	C	1.515042	0.170259	-0.218671
C95	C	1.015080	-0.125086	-0.426727
C96	C	1.515080	0.374914	0.073273
C97	C	1.015117	-0.037834	-0.426750
C98	C	1.515117	0.462166	0.073250
C99	C	1.060007	-0.377720	-1.096629
C100	C	1.560007	0.122280	-0.596629
C101	C	1.059989	-0.377744	-1.014648
C102	C	1.559989	0.122256	-0.514648
C103	C	1.015088	-0.329684	-0.971522
C104	C	1.515088	0.170316	-0.471522
C105	C	0.970196	-0.281603	-1.010382
C106	C	1.470196	0.218397	-0.510382
C107	C	0.970210	-0.281584	-1.092362
C108	C	1.470210	0.218416	-0.592362
C109	C	0.970169	-0.281644	-0.839511
C110	C	1.470169	0.218356	-0.339511
C111	C	0.970155	-0.281662	-0.757525
C112	C	1.470155	0.218338	-0.257525
C113	C	1.059948	-0.377805	-0.761797
C114	C	1.559948	0.122195	-0.261797
C115	C	1.059963	-0.377785	-0.843777
C116	C	1.559963	0.122215	-0.343777
C117	C	1.015072	-0.329703	-0.882631
C118	C	1.515072	0.170297	-0.382631
C119	C	1.014999	-0.329841	-0.222727
C120	C	1.514999	0.170159	0.277273
C121	C	1.015120	-0.329641	-0.135483
C122	C	1.515120	0.170359	0.364517
H123	H	1.096503	-0.624764	-0.339551
H124	H	1.596503	-0.124764	0.160449
F125	F	0.493686	-0.408034	-0.348255
F126	F	0.993686	0.091966	0.151745
H127	H	0.933633	-0.242475	-0.975262
H128	H	1.433633	0.257525	-0.475262
F129	F	0.922250	-0.792048	-0.525807
F130	F	1.422250	-0.292048	-0.025807
H131	H	0.933660	-0.242432	-1.123995
H132	H	1.433660	0.257568	-0.623995
H133	H	0.933423	-0.632536	-0.513767
H134	H	1.433423	-0.132536	-0.013767
H135	H	0.933595	-0.242525	-0.722414
H136	H	1.433595	0.257475	-0.222414
H137	H	0.416087	-0.401711	-0.354602
H138	H	0.916087	0.098289	0.145398
F139	F	0.922399	-0.230460	-0.880860
F140	F	1.422399	0.269540	-0.380860
H141	H	0.527827	-0.264588	-0.492121
H142	H	1.027827	0.235412	0.007879
H143	H	1.096529	-0.416916	-0.878888
H144	H	1.596529	0.083084	-0.378888
F145	F	1.107723	-0.428980	-0.720445
F146	F	1.607723	0.071020	-0.220445
F147	F	0.922276	-0.875668	-0.525825
F148	F	1.422276	-0.375668	-0.025825
H149	H	1.096564	-0.773480	-0.339591
H150	H	1.596564	-0.273480	0.160409
F151	F	1.107802	-0.428868	-1.142520
F152	F	1.607802	0.071132	-0.642520
F153	F	1.107837	-0.866819	-0.327604
F154	F	1.607837	-0.366819	0.172396
H155	H	0.416197	-0.219786	-0.537109
H156	H	0.916197	0.280214	-0.037109
F157	F	0.273958	-0.214039	-0.542899
F158	F	0.773958	0.285961	-0.042899
F159	F	0.605320	-0.452840	-0.303278
F160	F	1.105320	0.047160	0.196722
F161	F	1.107897	-1.036043	-0.327633
F162	F	1.607897	-0.536043	0.172367
H163	H	0.933585	-1.034106	-0.513864
H164	H	1.433585	-0.534106	-0.013864
F165	F	0.605444	-0.245842	-0.510927
F166	F	1.105444	0.254158	-0.010927
F167	F	0.756853	-0.238617	-0.518154
F168	F	1.256853	0.261383	-0.018154
H169	H	1.096532	-0.416904	-0.983017
H170	H	1.596532	0.083096	-0.483017
F171	F	0.273840	-0.421057	-0.335265
F172	F	0.773840	0.078943	0.164735
H173	H	0.747575	-0.433518	-0.322637
H174	H	1.247575	0.066482	0.177363
