data_functionalizedCrystal
_audit_creation_method	'MofGen! by Chris Wilmer'
_symmetry_space_group_name_H-M	'P1'
_symmetry_Int_Tables_number	1
_symmetry_cell_setting	triclinic
loop_
_symmetry_equiv_pos_as_xyz
  x,y,z
_cell_length_a	11.169416
_cell_length_b	11.169417
_cell_length_c	11.169409
_cell_angle_alpha	90.021683
_cell_angle_beta	89.970483
_cell_angle_gamma	89.996824
loop_
_atom_site_label
_atom_site_type_symbol
_atom_site_fract_x
_atom_site_fract_y
_atom_site_fract_z
Zn1	Zn	-0.477744	-1.835013	-0.678626
Zn2	Zn	-0.144411	-1.501680	-0.345292
Zn3	Zn	0.188923	-1.168347	-0.011959
Zn4	Zn	-0.678484	-1.834924	-0.477953
Zn5	Zn	-0.345151	-1.501591	-0.144619
Zn6	Zn	-0.011818	-1.168257	0.188714
Zn7	Zn	-0.477810	-1.634299	-0.477954
Zn8	Zn	-0.144477	-1.300966	-0.144620
Zn9	Zn	0.188856	-0.967632	0.188713
Zn10	Zn	-0.678380	-1.634328	-0.678591
Zn11	Zn	-0.345047	-1.300995	-0.345258
Zn12	Zn	-0.011713	-0.967661	-0.011924
O13	O	-0.578105	-1.734641	-0.578281
O14	O	-0.244771	-1.401308	-0.244947
O15	O	0.088562	-1.067974	0.088386
O16	O	-0.504389	-2.002951	-0.652020
O17	O	-0.171055	-1.669618	-0.318687
O18	O	0.162278	-1.336284	0.014646
O19	O	-0.651936	-1.808261	-0.310003
O20	O	-0.318603	-1.474928	0.023330
O21	O	0.014731	-1.141595	0.356664
O22	O	-0.309852	-1.660950	-0.504588
O23	O	0.023482	-1.327616	-0.171255
O24	O	0.356815	-0.994283	0.162078
O25	O	-0.651872	-2.002885	-0.504586
O26	O	-0.318538	-1.669552	-0.171253
O27	O	0.014795	-1.336219	0.162080
O28	O	-0.309803	-1.808413	-0.652021
O29	O	0.023530	-1.475080	-0.318688
O30	O	0.356864	-1.141747	0.014645
O31	O	-0.504502	-1.660863	-0.310004
O32	O	-0.171168	-1.327530	0.023330
O33	O	0.162165	-0.994196	0.356663
O34	O	-0.504400	-1.466353	-0.504554
O35	O	-0.171067	-1.133020	-0.171221
O36	O	0.162266	-0.799687	0.162112
O37	O	-0.651694	-1.660999	-0.846545
O38	O	-0.318360	-1.327665	-0.513212
O39	O	0.014973	-0.994332	-0.179879
O40	O	-0.651758	-1.466374	-0.651962
O41	O	-0.318425	-1.133041	-0.318628
O42	O	0.014909	-0.799708	0.014705
O43	O	-0.504287	-1.808441	-0.846571
O44	O	-0.170954	-1.475108	-0.513238
O45	O	0.162379	-1.141775	-0.179904
O46	O	-0.846420	-1.808289	-0.504553
O47	O	-0.513087	-1.474956	-0.171219
O48	O	-0.179754	-1.141623	0.162114
O49	O	-0.846343	-1.660912	-0.651961
O50	O	-0.513010	-1.327579	-0.318627
O51	O	-0.179677	-0.994246	0.014706
C52	C	-0.578076	-1.422816	-0.578255
C53	C	-0.244743	-1.089483	-0.244922
C54	C	0.088591	-0.756150	0.088411
C55	C	-0.578092	-1.289416	-0.578273
C56	C	-0.244759	-0.956083	-0.244939
C57	C	0.088574	-0.622750	0.088394
C58	C	-0.889929	-1.734627	-0.578279
C59	C	-0.556596	-1.401293	-0.244946
C60	C	-0.223263	-1.067960	0.088388
C61	C	-1.023329	-1.734730	-0.578318
C62	C	-0.689996	-1.401397	-0.244985
C63	C	-0.356663	-1.068064	0.088348
C64	C	-0.265062	-1.734688	-0.578309
C65	C	0.068271	-1.401355	-0.244975
C66	C	0.401604	-1.068022	0.088358
C67	C	-0.131662	-1.734708	-0.578321
C68	C	0.201671	-1.401375	-0.244987
C69	C	0.535004	-1.068042	0.088346
C70	C	-0.577971	-1.734733	-0.891323
C71	C	-0.244638	-1.401400	-0.557990
C72	C	0.088695	-1.068067	-0.224657
C73	C	-0.577915	-1.734772	-1.024723
C74	C	-0.244581	-1.401439	-0.691390
C75	C	0.088752	-1.068106	-0.358057
C76	C	-0.578124	-1.047683	-0.578298
C77	C	-0.244791	-0.714350	-0.244964
C78	C	0.088542	-0.381017	0.088369
C79	C	-0.578107	-1.181083	-0.578280
C80	C	-0.244773	-0.847750	-0.244947
C81	C	0.088560	-0.514417	0.088386
C82	C	-0.578151	-1.734618	-0.266456
C83	C	-0.244817	-1.401285	0.066877
C84	C	0.088516	-1.067952	0.400211
C85	C	-0.577869	-1.734812	-0.133057
C86	C	-0.244536	-1.401478	0.200277
C87	C	0.088797	-1.068145	0.533610
