data_functionalizedCrystal
_audit_creation_method	'MofGen! by Chris Wilmer'
_symmetry_space_group_name_H-M	'P1'
_symmetry_Int_Tables_number	1
_symmetry_cell_setting	triclinic
loop_
_symmetry_equiv_pos_as_xyz
  x,y,z
_cell_length_a	10.540514
_cell_length_b	10.540539
_cell_length_c	9.016244
_cell_angle_alpha	89.999933
_cell_angle_beta	89.992124
_cell_angle_gamma	84.520326
loop_
_atom_site_label
_atom_site_type_symbol
_atom_site_fract_x
_atom_site_fract_y
_atom_site_fract_z
O1	O	1.685912	0.178743	-0.123351
O2	O	1.316495	0.195632	-0.123349
O3	O	1.509631	0.002480	-0.123349
O4	O	1.492775	0.371894	-0.123352
O5	O	1.509603	0.002484	0.123332
O6	O	1.316466	0.195636	0.123331
O7	O	1.685883	0.178747	0.123329
Cu8	Cu	1.501172	0.187192	0.145854
Cu9	Cu	1.501206	0.187187	-0.145874
O10	O	1.492747	0.371899	0.123329
C11	C	1.269177	0.194374	-0.000009
C12	C	1.128227	0.190605	-0.000008
C13	C	1.057522	0.328745	-0.000013
C14	C	0.910908	0.324871	-0.000580
C15	C	0.935906	0.115476	-0.140609
C16	C	1.082445	0.120329	-0.140719
C17	C	1.082815	0.118290	0.139813
C18	C	0.935836	0.116957	0.141653
C19	C	1.508353	-0.044821	-0.000011
C20	C	1.504571	-0.185769	-0.000019
C21	C	1.359652	-0.369182	-0.000572
C22	C	1.363486	-0.222564	-0.000017
C23	C	1.572451	-0.247430	0.140848
C24	C	1.567636	-0.393974	0.140966
C25	C	1.570538	-0.394497	-0.139556
C26	C	1.571837	-0.247516	-0.141418
C27	C	1.733201	0.180004	-0.000014
C28	C	1.874151	0.183774	-0.000025
C29	C	1.494025	0.419199	-0.000012
C30	C	1.497807	0.560147	-0.000014
N31	N	1.501158	0.187195	0.351040
N32	N	1.501230	0.187174	-0.351060
C33	C	1.397525	0.290172	0.586073
C34	C	1.397755	0.290557	0.414181
C35	C	1.633882	0.217316	0.413378
C36	C	1.633316	0.218046	0.585323
C37	C	1.473384	0.053759	0.585585
C38	C	1.470338	0.054624	0.413631
H39	H	1.087761	0.383961	-0.100680
Cl40	Cl	1.281019	-0.156777	-0.155918
H41	H	1.372699	0.031792	0.372890
H42	H	1.303932	-0.397779	-0.101589
H43	H	1.658780	0.313552	0.370299
Cl44	Cl	1.579241	-0.069399	0.347304
H45	H	1.525274	-0.204824	0.245676
H46	H	1.712938	0.144346	0.372474
Cl47	Cl	1.327088	0.009517	0.652614
H48	H	0.893311	0.162288	-0.245632
Cl49	Cl	1.490138	-0.437507	0.303537
H50	H	0.869188	0.378357	-0.101951
Cl51	Cl	1.500045	-0.443189	-0.304399
Cl52	Cl	1.273695	-0.416353	0.154060
H53	H	1.309675	-0.180802	0.101131
H54	H	1.522170	-0.206655	-0.245627
H55	H	1.669102	-0.441952	0.147356
H56	H	1.676059	-0.225085	0.146085
Cl57	Cl	1.126046	0.197338	-0.303590
H58	H	1.548996	-0.022903	0.626238
Cl59	Cl	1.102365	0.415624	0.154961
Cl60	Cl	0.872524	0.194012	0.302236
Cl61	Cl	0.845013	0.407821	0.154966
H62	H	1.415654	0.389540	0.373034
H63	H	0.913592	0.011844	-0.145439
Cl64	Cl	1.156569	-0.036333	-0.149979
H65	H	1.114297	0.164275	0.246404
H66	H	1.674700	-0.223304	-0.149925
Cl67	Cl	1.727869	-0.467427	-0.141025
H68	H	1.299137	0.272435	0.372038
H69	H	0.911651	0.014111	0.150561
Cl70	Cl	1.155799	-0.039014	0.141932
Cl71	Cl	1.244779	0.262607	0.649945
H72	H	1.415192	0.388594	0.629265
H73	H	1.657671	0.315381	0.625411
Cl74	Cl	1.756017	0.106600	0.649531
