data_functionalizedCrystal
_audit_creation_method	'MofGen! by Chris Wilmer'
_symmetry_space_group_name_H-M	'P1'
_symmetry_Int_Tables_number	1
_symmetry_cell_setting	triclinic
loop_
_symmetry_equiv_pos_as_xyz
  x,y,z
_cell_length_a	15.698487
_cell_length_b	20.919309
_cell_length_c	20.919320
_cell_angle_alpha	89.823686
_cell_angle_beta	122.559113
_cell_angle_gamma	122.557652
loop_
_atom_site_label
_atom_site_type_symbol
_atom_site_fract_x
_atom_site_fract_y
_atom_site_fract_z
Zr1	Zr	-0.872472	0.639289	-0.061506
O2	O	-1.073175	0.528430	-0.172369
O3	O	-0.687714	0.673271	-0.027521
O4	O	-0.880443	0.667635	-0.166728
O5	O	-0.868598	0.538515	0.076646
O6	O	-0.868594	0.777445	-0.162277
O7	O	-0.880446	0.534066	-0.033163
O8	O	-0.523836	0.787527	0.086738
O9	O	-1.213355	0.528433	-0.172369
O10	O	-0.748959	0.769717	-0.009704
O11	O	-0.748960	0.691087	0.068923
O12	O	-0.975874	0.684451	-0.094975
O13	O	-0.975876	0.605821	-0.016347
Zr14	Zr	-0.834677	0.821518	0.120726
Zr15	Zr	-0.853573	0.814423	-0.054407
Zr16	Zr	-0.853576	0.646384	0.113627
Zr17	Zr	-1.096044	0.639294	-0.061505
Zr18	Zr	-0.611106	0.821514	0.120725
O19	O	-1.019435	0.787536	0.086741
O20	O	-1.046303	0.777448	-0.162276
O21	O	-1.046307	0.538519	0.076647
O22	O	-0.633974	0.932377	0.231589
O23	O	-0.660842	0.922289	-0.017427
O24	O	-0.660846	0.683359	0.221496
O25	O	-0.838552	0.922292	-0.017427
O26	O	-0.826706	0.793173	0.225947
O27	O	-0.838556	0.683363	0.221496
O28	O	-0.826704	0.926741	0.092383
O29	O	-1.198333	0.667641	-0.166726
O30	O	-0.508816	0.793166	0.225946
O31	O	-0.493794	0.932374	0.231589
O32	O	-0.508814	0.926735	0.092381
O33	O	-1.198336	0.534073	-0.033161
O34	O	-1.183313	0.673281	-0.027519
O35	O	-0.731275	0.776357	0.154194
O36	O	-0.731274	0.854986	0.075567
O37	O	-0.958189	0.769721	-0.009703
O38	O	-0.958190	0.691091	0.068924
C39	C	-0.573921	0.730398	0.029609
C40	C	-0.479009	0.730396	0.029608
C41	C	-0.401927	0.730396	0.029610
C42	C	-0.305221	0.730403	0.029611
C43	C	-0.877214	0.511338	0.020730
C44	C	-0.885237	0.436989	0.017717
C45	C	-0.133229	0.730409	0.029611
C46	C	-0.228142	0.730412	0.029609
C47	C	-0.770563	0.446565	0.060807
C48	C	-0.778109	0.376704	0.057973
C49	C	-0.900332	0.297266	0.012044
C50	C	-1.015015	0.287692	-0.031047
C51	C	-1.007467	0.357553	-0.028208
C52	C	-0.929047	0.084105	0.001251
C53	C	-0.936587	0.014242	-0.001587
C54	C	-0.699680	0.103259	0.087435
C55	C	-0.692143	0.173117	0.090266
C56	C	-0.806825	0.163537	0.047178
C57	C	-0.908048	0.225855	0.009145
C58	C	-0.799107	0.234947	0.050083
C59	C	-0.877211	0.721529	-0.189455
C60	C	-0.885233	0.718517	-0.263803
C61	C	-0.829935	0.949470	0.038489
C62	C	-0.821912	1.023818	0.041503
C63	C	-0.936591	0.699200	-0.686554
C64	C	-0.929043	0.702036	-0.616692
C65	C	-0.806819	0.747967	-0.537253
C66	C	-0.692137	0.791059	-0.527677
C67	C	-0.699686	0.788218	-0.597539
C68	C	-0.778099	0.758768	-0.324089
C69	C	-0.770558	0.761607	-0.254226
C70	C	-1.007466	0.672583	-0.343246
C71	C	-1.015004	0.669750	-0.413105
C72	C	-0.900322	0.712838	-0.403523
C73	C	-0.799101	0.750869	-0.465841
C74	C	-0.908042	0.709931	-0.474934
C75	C	-0.829938	0.739279	0.248675
C76	C	-0.821917	0.742291	0.323023
C77	C	-0.550281	0.949464	0.038488
C78	C	-0.447346	1.023811	0.041501
C79	C	-0.550285	0.739273	0.248673
C80	C	-0.447351	0.742283	0.323021
C81	C	-0.526645	0.958339	0.257553
C82	C	-0.415688	1.035698	0.334915
C83	C	-1.180504	0.502469	-0.198333
C84	C	-1.291461	0.425109	-0.275695
C85	C	-1.156868	0.511343	0.020732
C86	C	-1.259803	0.436996	0.017718
C87	C	-1.156865	0.721534	-0.189454
C88	C	-1.259799	0.718524	-0.263802
C89	C	-0.408239	1.014215	-0.001602
C90	C	-0.311535	1.084065	0.001213
C91	C	-0.253934	1.163510	0.047136
C92	C	-0.293050	1.173104	0.090240
C93	C	-0.389758	1.103255	0.087420
C94	C	-0.389780	0.788207	0.402454
C95	C	-0.293075	0.791033	0.472319
C96	C	-0.253936	0.747939	0.462749
C97	C	-0.311517	0.702009	0.383308
C98	C	-0.408227	0.699179	0.313445
C99	C	-0.363580	1.113078	0.330202
C100	C	-0.259337	1.185772	0.402885
C101	C	-0.207197	1.181083	0.480280
C102	C	-0.259315	1.103695	0.484991
C103	C	-0.363562	1.031003	0.412308
C104	C	-1.343580	0.347729	-0.270982
C105	C	-1.447851	0.275036	-0.343665
C106	C	-1.499996	0.279724	-0.421060
C107	C	-1.447872	0.357112	-0.425771
C108	C	-1.343609	0.429804	-0.353089
C109	C	-1.298920	0.446592	0.060814
C110	C	-1.395651	0.376742	0.057980
C111	C	-1.453256	0.297297	0.012055
C112	C	-1.414135	0.287702	-0.031046
C113	C	-1.317413	0.357552	-0.028216
C114	C	-1.298905	0.761628	-0.254205
C115	C	-1.395608	0.758815	-0.324056
C116	C	-1.453209	0.712895	-0.403502
C117	C	-1.414094	0.669790	-0.413097
C118	C	-1.317386	0.672607	-0.343247
H119	H	-0.671035	0.511243	0.098210
C120	C	-0.268515	1.073492	-0.046199
N121	N	-0.236112	1.065527	-0.081908
H122	H	-1.301131	0.343896	-0.207970
H123	H	-1.036120	-0.050441	-0.038991
H124	H	-0.455090	0.661786	0.248770
H125	H	-0.592618	0.237795	0.127650
C126	C	-0.268442	0.654614	0.372795
N127	N	-0.235989	0.618920	0.364879
H128	H	-1.584893	0.220527	-0.480237
H129	H	-1.532011	0.240428	0.009758
H130	H	-0.421586	1.111080	0.122525
H131	H	-1.490341	0.360920	-0.488795
H132	H	-0.122312	1.240280	0.539456
C133	C	-1.559592	0.709802	-0.480332
N134	N	-1.639721	0.707475	-0.538197
C135	C	-0.229665	1.260502	0.140759
N136	N	-0.181913	1.326332	0.178815
H137	H	-1.461007	0.632402	-0.477791
C138	C	-1.477496	0.200305	-0.081548
N139	N	-1.525212	0.134476	-0.119578
C140	C	-1.071049	0.648668	-0.773935
N141	N	-1.172327	0.610601	-0.839750
C142	C	-1.055204	0.073555	-0.046162
N143	N	-1.150232	0.065609	-0.081881
H144	H	-1.285568	0.349727	-0.063308
H145	H	-0.406017	1.116911	0.267190
C146	C	-1.055194	0.654638	-0.627234
N147	N	-1.150217	0.618938	-0.635176
H148	H	-1.301175	0.492808	-0.356936
H149	H	-0.421634	0.823300	0.410262
H150	H	-0.606306	0.823305	-0.589736
H151	H	-0.246202	0.828436	0.536996
H152	H	-1.252020	0.799021	-0.189522
C153	C	-0.664666	0.322329	0.100599
N154	N	-0.563405	0.388150	0.138643
H155	H	-0.405976	0.968000	0.416157
H156	H	-1.007556	0.672529	-0.539616
H157	H	-1.427445	0.793916	-0.316228
H158	H	-0.699586	0.788269	-0.401154
H159	H	-1.490273	0.212031	-0.339814
H160	H	-0.175188	1.220378	0.049426
H161	H	-1.285557	0.637503	-0.351072
H162	H	-0.684728	0.384508	0.093063
H163	H	-0.592620	0.828453	-0.462992
C164	C	-1.149465	0.619180	-0.500488
N165	N	-1.250744	0.581076	-0.566306
H166	H	-0.606311	0.111050	0.122515
H167	H	-0.455139	0.949533	-0.039007
H168	H	-1.252024	0.511274	0.098217
H169	H	-1.114531	0.223008	-0.068439
H170	H	-0.175187	0.750250	0.519643
H171	H	-0.216913	1.248777	0.399035
C172	C	-0.201936	1.098552	0.570134
N173	N	-0.158708	1.094681	0.634266
H174	H	-1.427485	0.384570	0.093082
H175	H	-1.100846	0.349751	-0.063287
H176	H	-1.007562	0.161170	-0.028250
H177	H	-0.671024	0.799009	-0.189541
C178	C	-1.133608	0.625187	-0.353777
N179	N	-1.228624	0.589485	-0.361711
H180	H	-0.684717	0.793856	-0.316277
