data_functionalizedCrystal
_audit_creation_method	'MofGen! by Chris Wilmer'
_symmetry_space_group_name_H-M	'P1'
_symmetry_Int_Tables_number	1
_symmetry_cell_setting	triclinic
loop_
_symmetry_equiv_pos_as_xyz
  x,y,z
_cell_length_a	17.038272
_cell_length_b	17.019294
_cell_length_c	10.868271
_cell_angle_alpha	86.115896
_cell_angle_beta	90.001405
_cell_angle_gamma	87.244363
loop_
_atom_site_label
_atom_site_type_symbol
_atom_site_fract_x
_atom_site_fract_y
_atom_site_fract_z
O1	O	1.037220	0.171287	-0.120314
O2	O	0.809592	0.168567	-0.120062
O3	O	0.929756	0.055521	-0.108059
O4	O	0.917056	0.284334	-0.132317
O5	O	0.929746	0.055515	0.096586
O6	O	0.809582	0.168562	0.084583
O7	O	1.037210	0.171282	0.084331
Zn8	Zn	0.923394	0.169921	0.116949
Zn9	Zn	0.923407	0.169928	-0.152680
O10	O	0.917046	0.284329	0.072328
C11	C	0.780461	0.166091	-0.017482
C12	C	0.693674	0.158711	-0.016714
C13	C	0.929269	0.026096	-0.002621
C14	C	0.927825	-0.061571	0.006665
C15	C	0.643502	0.226471	-0.023897
C16	C	0.561957	0.219532	-0.023144
C17	C	0.530586	0.144831	-0.015217
C18	C	0.580765	0.077066	-0.008030
C19	C	0.662308	0.084006	-0.008774
C20	C	0.284849	0.120313	-0.012585
C21	C	0.203300	0.113378	-0.011845
C22	C	0.184498	0.255845	-0.026957
C23	C	0.266043	0.262778	-0.027707
C24	C	0.316215	0.195013	-0.020514
C25	C	0.447235	0.137736	-0.014452
C26	C	0.399565	0.202108	-0.021271
C27	C	0.927153	-0.102750	-0.100524
C28	C	0.925791	-0.185122	-0.091796
C29	C	0.925105	-0.226315	0.024123
C30	C	0.925775	-0.185130	0.131320
C31	C	0.927131	-0.102759	0.122590
C32	C	0.921003	-0.475023	0.056061
C33	C	0.919649	-0.557401	0.064782
C34	C	0.919663	-0.557387	-0.158334
C35	C	0.921025	-0.475015	-0.167054
C36	C	0.921690	-0.433837	-0.059857
C37	C	0.923715	-0.310513	0.033047
C38	C	0.923074	-0.349640	-0.068782
C39	C	1.066341	0.173758	-0.018252
C40	C	1.153128	0.181139	-0.019028
C41	C	0.917533	0.313753	-0.033113
C42	C	0.918977	0.401420	-0.042407
N43	N	0.923391	0.169916	0.300963
N44	N	0.923417	0.169927	-0.336694
C45	C	0.923403	0.169926	0.551968
C46	C	0.923394	0.169923	0.412291
H47	H	0.669037	0.287300	-0.030352
H48	H	0.919087	-0.590937	0.159182
H49	H	0.921560	-0.441507	0.143349
H50	H	0.925212	-0.218675	0.225703
C51	C	0.499973	-0.013386	-0.103636
C52	C	0.546285	-0.005047	0.000680
H53	H	0.478692	-0.064083	-0.098263
H54	H	0.458424	0.025971	-0.107798
H55	H	0.531399	-0.007715	-0.175594
H56	H	0.514857	-0.010713	0.072637
H57	H	0.587839	-0.044416	0.004854
H58	H	0.923160	-0.344062	0.127428
H59	H	0.291579	0.323607	-0.034176
C60	C	0.551563	0.361048	-0.038172
C61	C	0.506808	0.294016	-0.031045
H62	H	0.517515	0.407033	-0.043056
H63	H	0.583763	0.360793	0.033209
H64	H	0.583756	0.360783	-0.109518
H65	H	0.474619	0.294278	0.040306
H66	H	0.474595	0.294272	-0.102434
H67	H	0.927667	-0.069231	0.209875
H68	H	0.143640	0.311015	-0.032811
C69	C	0.857420	-0.252652	-0.208495
C70	C	0.923816	-0.304367	-0.196203
H71	H	0.857881	-0.224697	-0.287158
H72	H	0.811334	-0.281836	-0.200773
H73	H	0.858023	-0.216341	-0.145899
H74	H	0.923210	-0.340682	-0.258793
H75	H	0.969913	-0.275181	-0.203937
C76	C	0.230072	-0.026754	0.003031
C77	C	0.168816	0.031261	-0.003129
H78	H	0.208781	-0.077446	0.008415
H79	H	0.261484	-0.021087	-0.068929
H80	H	0.261487	-0.021081	0.073799
H81	H	0.137404	0.025592	-0.073903
H82	H	0.137391	0.025592	0.068838
H83	H	0.703158	0.028828	-0.002926
C84	C	0.387457	0.045459	0.100542
C85	C	0.339993	0.045828	-0.004694
H86	H	0.421500	-0.000529	0.105413
H87	H	0.417808	0.090935	0.095712
H88	H	0.355251	0.045710	0.171874
H89	H	0.372200	0.045584	-0.076027
H90	H	0.309640	0.000340	0.000126
C91	C	0.927022	-0.111018	-0.320186
C92	C	0.927904	-0.057475	-0.227948
H93	H	0.927479	-0.083067	-0.398852
H94	H	0.972058	-0.146100	-0.311822
H95	H	0.880922	-0.140191	-0.312448
H96	H	0.974007	-0.028306	-0.235680
H97	H	0.882863	-0.022379	-0.236315
C98	C	0.920891	-0.483278	-0.386719
C99	C	0.921772	-0.429738	-0.294476
H100	H	0.921349	-0.455323	-0.465383
H101	H	0.965927	-0.518360	-0.378357
H102	H	0.874791	-0.512451	-0.378985
H103	H	0.967875	-0.400568	-0.302204
H104	H	0.876731	-0.394642	-0.302842
H105	H	0.425110	0.262929	-0.027718
H106	H	0.421684	0.076915	-0.007963
C107	C	0.850958	-0.645655	-0.278398
C108	C	0.918916	-0.602658	-0.276152
H109	H	0.850491	-0.673601	-0.351139
H110	H	0.850366	-0.681966	-0.208114
H111	H	0.805927	-0.610552	-0.277483
H112	H	0.963946	-0.637762	-0.277057
H113	H	0.919515	-0.566343	-0.346455
H114	H	0.925247	-0.218647	-0.179081
