data_functionalizedCrystal
_audit_creation_method	'MofGen! by Chris Wilmer'
_symmetry_space_group_name_H-M	'P1'
_symmetry_Int_Tables_number	1
_symmetry_cell_setting	triclinic
loop_
_symmetry_equiv_pos_as_xyz
  x,y,z
_cell_length_a	21.295417
_cell_length_b	18.050591
_cell_length_c	18.050583
_cell_angle_alpha	90.022021
_cell_angle_beta	89.959541
_cell_angle_gamma	89.973488
loop_
_atom_site_label
_atom_site_type_symbol
_atom_site_fract_x
_atom_site_fract_y
_atom_site_fract_z
Zn1	Zn	-0.250631	-1.135289	-0.420010
Zn2	Zn	-0.355917	-1.135192	-0.295811
Zn3	Zn	-0.250659	-1.011106	-0.295821
Zn4	Zn	-0.355859	-1.011051	-0.419946
O5	O	-0.303267	-1.073159	-0.357897
O6	O	-0.264610	-1.239201	-0.403557
O7	O	-0.341991	-1.118714	-0.191887
O8	O	-0.162566	-1.027642	-0.312326
O9	O	-0.341964	-1.239130	-0.312308
O10	O	-0.162545	-1.118879	-0.403567
O11	O	-0.264658	-1.027548	-0.191895
O12	O	-0.264601	-0.907174	-0.312264
O13	O	-0.341864	-1.027549	-0.523879
O14	O	-0.341891	-0.907134	-0.403458
O15	O	-0.264554	-1.118826	-0.523926
O16	O	-0.443999	-1.118661	-0.312247
O17	O	-0.443956	-1.027455	-0.403449
C18	C	-0.303243	-0.880207	-0.357856
C19	C	-0.303248	-0.797662	-0.357856
C20	C	-0.466818	-1.073062	-0.357856
C21	C	-0.536786	-1.073088	-0.357863
C22	C	-0.303199	-1.073192	-0.551603
C23	C	-0.303171	-1.073206	-0.634148
C24	C	-0.569654	-1.120621	-0.310423
C25	C	-0.635397	-1.120656	-0.310440
C26	C	-0.668269	-1.073145	-0.357889
C27	C	-0.635393	-1.025608	-0.405338
C28	C	-0.569652	-1.025580	-0.405325
N29	N	-0.771530	-1.008178	-0.363536
N30	N	-0.833981	-1.008207	-0.363544
C31	C	-0.866344	-1.073228	-0.357931
N32	N	-0.833895	-1.138221	-0.352296
N33	N	-0.771438	-1.138191	-0.352284
C34	C	-0.739554	-1.073170	-0.357908
C35	C	-0.970497	-1.120803	-0.310507
C36	C	-1.036241	-1.120839	-0.310529
C37	C	-1.036235	-1.025784	-0.405423
C38	C	-0.970493	-1.025755	-0.405405
C39	C	-0.937628	-1.073263	-0.357943
C40	C	-0.139076	-1.073277	-0.357955
C41	C	-0.069108	-1.073328	-0.357979
C42	C	-0.303291	-1.266865	-0.357939
C43	C	-0.303301	-1.349411	-0.357956
C44	C	-0.261169	-0.598211	-0.308379
C45	C	-0.318588	-0.548788	-0.290098
C46	C	-0.303267	-0.646531	-0.357889
C47	C	-0.245869	-0.548872	-0.376169
C48	C	-0.303281	-0.500546	-0.357921
C49	C	-0.360716	-0.598196	-0.339573
C50	C	-0.287959	-0.598284	-0.425676
C51	C	-0.345417	-0.548883	-0.407420
C52	C	-0.303259	-0.730629	-0.357870
C53	C	-0.303296	-0.416450	-0.357940
C54	C	-0.261109	-1.122892	-0.833625
C55	C	-0.245698	-1.055159	-0.883014
C56	C	-0.303160	-1.073236	-0.785279
C57	C	-0.318531	-1.140996	-0.882972
C58	C	-0.303148	-1.073271	-0.931264
C59	C	-0.287720	-1.005467	-0.833581
C60	C	-0.360579	-1.091350	-0.833534
C61	C	-0.345190	-1.023570	-0.882901
C62	C	-0.303165	-1.073217	-0.701181
C63	C	-0.303143	-1.073282	-1.015361
C64	C	-0.303288	-1.073169	-0.164945
C65	C	-0.303139	-1.073299	-0.082399
H66	H	-0.542897	-1.159307	-0.271778
C67	C	-0.393569	-0.519798	-0.464003
C68	C	-0.387213	-0.540517	-0.546434
C69	C	-0.435366	-0.511430	-0.603013
C70	C	-0.489875	-0.461624	-0.577161
C71	C	-0.496233	-0.440903	-0.494725
C72	C	-0.448080	-0.469990	-0.438146
H73	H	-0.346860	-0.577389	-0.565576
H74	H	-0.430659	-0.526770	-0.664038
H75	H	-0.525520	-0.440092	-0.619044
H76	H	-0.536586	-0.404031	-0.475584
H77	H	-0.452787	-0.454650	-0.377122
H78	H	-0.225606	-0.619870	-0.266464
C79	C	-0.426319	-0.627336	-0.318610
C80	C	-0.479812	-0.572469	-0.301567
C81	C	-0.545413	-0.601610	-0.280602
C82	C	-0.557521	-0.685619	-0.276681
C83	C	-0.504027	-0.740491	-0.293725
C84	C	-0.438426	-0.711349	-0.314689
H85	H	-0.470850	-0.510276	-0.304469
H86	H	-0.585013	-0.560990	-0.267985
H87	H	-0.606083	-0.707191	-0.261162
H88	H	-0.512989	-0.802684	-0.290822
H89	H	-0.398826	-0.751970	-0.327306
H90	H	-0.225525	-1.164816	-0.811985
C91	C	-0.180096	-1.034474	-0.912381
C92	C	-0.122968	-1.083042	-0.892956
C93	C	-0.057365	-1.062362	-0.922320
C94	C	-0.048890	-0.993114	-0.971109
C95	C	-0.106020	-0.944542	-0.990536
C96	C	-0.171623	-0.965221	-0.961172
H97	H	-0.129241	-1.134308	-0.856838
H98	H	-0.015074	-1.098319	-0.907939
H99	H	-0.000327	-0.977806	-0.992846
H100	H	-0.099748	-0.893276	-1.026654
H101	H	-0.213914	-0.929264	-0.975553
C102	C	-1.072386	-0.973518	-0.457617
C103	C	-1.144699	-0.973545	-0.457633
C104	C	-1.180853	-0.921278	-0.509830
C105	C	-1.144695	-0.868985	-0.562010
C106	C	-1.072378	-0.868956	-0.561996
C107	C	-1.036224	-0.921223	-0.509799
H108	H	-1.171469	-1.012257	-0.419004
H109	H	-1.234387	-0.921299	-0.509840
H110	H	-1.171458	-0.830294	-0.600649
H111	H	-1.045607	-0.830244	-0.600625
H112	H	-0.982690	-0.921201	-0.509789
C113	C	-0.671562	-1.172938	-0.258245
C114	C	-0.635412	-1.225192	-0.206037
C115	C	-0.671575	-1.277470	-0.153840
C116	C	-0.743888	-1.277495	-0.153851
C117	C	-0.780042	-1.225240	-0.206061
C118	C	-0.743879	-1.172961	-0.258258
H119	H	-0.581879	-1.225175	-0.206027
H120	H	-0.644812	-1.316153	-0.115191
H121	H	-0.770658	-1.316195	-0.115212
H122	H	-0.833576	-1.225257	-0.206071
H123	H	-0.770643	-1.134279	-0.296907
H124	H	-0.943730	-0.987046	-0.444032
H125	H	-0.662161	-0.986925	-0.443973
C126	C	-0.336107	-1.218388	-0.912280
C127	C	-0.349907	-1.281755	-0.857550
C128	C	-0.367478	-1.359148	-0.886856
C129	C	-0.371249	-1.373174	-0.970891
C130	C	-0.357448	-1.309805	-1.025626
C131	C	-0.339878	-1.232412	-0.996321
H132	H	-0.347116	-1.271374	-0.795338
H133	H	-0.377694	-1.406058	-0.846337
H134	H	-0.384256	-1.430465	-0.992585
H135	H	-0.360239	-1.320187	-1.087839
H136	H	-0.329662	-1.185503	-1.036840
C137	C	-0.270431	-0.627683	-0.503077
C138	C	-0.206256	-0.608281	-0.537299
C139	C	-0.188721	-0.637682	-0.614700
C140	C	-0.235360	-0.686487	-0.657879
C141	C	-0.299540	-0.705892	-0.623657
C142	C	-0.317076	-0.676490	-0.546256
H143	H	-0.171727	-0.572150	-0.505335
H144	H	-0.141210	-0.623317	-0.640033
H145	H	-0.222380	-0.708251	-0.715176
H146	H	-0.334069	-0.742022	-0.655620
H147	H	-0.364586	-0.690856	-0.520922
C148	C	-0.180287	-0.519602	-0.397045
C149	C	-0.168425	-0.435574	-0.401543
C150	C	-0.102843	-0.406307	-0.422413
C151	C	-0.049122	-0.461068	-0.438785
C152	C	-0.060983	-0.545102	-0.434288
C153	C	-0.126565	-0.574369	-0.413418
H154	H	-0.208193	-0.395032	-0.389423
H155	H	-0.094063	-0.344099	-0.425743
H156	H	-0.000574	-0.439403	-0.454234
H157	H	-0.021215	-0.585644	-0.446407
H158	H	-0.135345	-0.636576	-0.410088
C159	C	-0.533493	-0.973287	-0.457509
C160	C	-0.542597	-0.888869	-0.451366
C161	C	-0.506437	-0.836574	-0.503549
C162	C	-0.461174	-0.868697	-0.561877
C163	C	-0.452068	-0.953119	-0.568023
C164	C	-0.488228	-1.005414	-0.515840
H165	H	-0.576105	-0.865086	-0.408186
H166	H	-0.513178	-0.774079	-0.498999
H167	H	-0.434406	-0.829985	-0.600507
H168	H	-0.418560	-0.976902	-0.611203
H169	H	-0.481487	-1.067909	-0.520390
H170	H	-0.274658	-0.948161	-0.811976
C171	C	-0.393223	-0.966800	-0.911958
C172	C	-0.386121	-0.884212	-0.892271
C173	C	-0.434150	-0.827440	-0.921331
C174	C	-0.489280	-0.853256	-0.970078
C175	C	-0.496384	-0.935848	-0.989768
C176	C	-0.448355	-0.992620	-0.960708
H177	H	-0.345308	-0.865098	-0.856183
H178	H	-0.428890	-0.766300	-0.906755
H179	H	-0.524834	-0.811230	-0.991590
H180	H	-0.537197	-0.954962	-1.025856
H181	H	-0.453615	-1.053760	-0.975284
C182	C	-0.426164	-1.112058	-0.804144
C183	C	-0.455058	-1.187795	-0.823585
C184	C	-0.520643	-1.208513	-0.794193
C185	C	-0.557335	-1.153495	-0.745361
C186	C	-0.528441	-1.077754	-0.725918
C187	C	-0.462856	-1.057035	-0.755309
H188	H	-0.427896	-1.228527	-0.859736
H189	H	-0.542032	-1.264582	-0.808587
H190	H	-0.605885	-1.168832	-0.723603
H191	H	-0.555603	-1.037022	-0.689767
H192	H	-0.441467	-1.000966	-0.740916
H193	H	-0.943737	-1.159489	-0.271862
H194	H	-0.331546	-0.527049	-0.232786
C195	C	-1.072399	-1.173133	-0.258345
C196	C	-1.036245	-1.225389	-0.206143
C197	C	-1.072403	-1.277685	-0.153960
C198	C	-1.144716	-1.277726	-0.153979
C199	C	-1.180874	-1.225469	-0.206183
C200	C	-1.144715	-1.173172	-0.258366
H201	H	-0.982711	-1.225360	-0.206127
H202	H	-1.045636	-1.316369	-0.115315
H203	H	-1.171483	-1.316439	-0.115350
H204	H	-1.234408	-1.225498	-0.206198
H205	H	-1.171483	-1.134488	-0.297010
