data_functionalizedCrystal
_audit_creation_method	'MofGen! by Chris Wilmer'
_symmetry_space_group_name_H-M	'P1'
_symmetry_Int_Tables_number	1
_symmetry_cell_setting	triclinic
loop_
_symmetry_equiv_pos_as_xyz
  x,y,z
_cell_length_a	15.995350
_cell_length_b	23.532407
_cell_length_c	22.610064
_cell_angle_alpha	90.003642
_cell_angle_beta	90.012801
_cell_angle_gamma	83.170526
loop_
_atom_site_label
_atom_site_type_symbol
_atom_site_fract_x
_atom_site_fract_y
_atom_site_fract_z
O1	O	0.101623	0.755650	-0.049108
O2	O	0.116329	0.589843	-0.049125
O3	O	-0.012949	0.677279	-0.049116
O4	O	0.230902	0.668214	-0.049118
O5	O	-0.012916	0.677273	0.049254
O6	O	0.116362	0.589837	0.049244
O7	O	0.101656	0.755644	0.049261
Zn8	Zn	0.109014	0.672740	0.064871
Zn9	Zn	0.108971	0.672747	-0.064735
O10	O	0.230934	0.668208	0.049252
C11	C	-0.044124	0.676901	0.000068
C12	C	-0.137065	0.675778	0.000064
C13	C	0.115971	0.568623	0.000057
C14	C	0.114846	0.505401	0.000051
C15	C	-0.474779	0.671743	0.000066
C16	C	-0.426827	0.609473	-0.000161
C17	C	-0.330146	0.610596	0.000061
C18	C	-0.307235	0.673744	0.000065
C19	C	-0.348550	0.704455	0.056241
C20	C	-0.445172	0.702890	0.056288
C21	C	-0.445579	0.704183	-0.055577
C22	C	-0.348633	0.704169	-0.056319
C23	C	-0.212547	0.674879	0.000066
C24	C	-0.569468	0.670610	0.000069
C25	C	0.184288	0.106565	0.000077
C26	C	0.183242	0.047161	0.000081
O27	O	0.247615	0.010664	0.000102
N28	N	0.106386	0.024239	0.000080
C29	C	0.030570	0.060725	0.000082
O30	O	-0.034898	0.035773	0.000083
C31	C	0.031617	0.120128	0.000083
C32	C	0.108478	0.143047	0.000077
C33	C	0.261143	0.129484	0.000072
C34	C	0.262188	0.188885	0.000067
C35	C	0.186379	0.225366	0.000068
C36	C	0.109524	0.202447	0.000073
C37	C	-0.044197	0.156613	0.000089
C38	C	-0.043143	0.216019	0.000090
C39	C	0.033718	0.238938	0.000085
C40	C	0.034760	0.298328	0.000068
N41	N	0.111617	0.321250	0.000068
C42	C	0.187426	0.284769	0.000068
C43	C	0.028378	-0.064026	0.000082
C44	C	0.027330	-0.123428	0.000077
C45	C	0.180002	-0.136988	0.000077
C46	C	0.181049	-0.077585	0.000077
C47	C	0.105234	-0.041104	0.000082
C48	C	0.189616	0.409514	0.000058
C49	C	0.190655	0.468920	0.000051
C50	C	0.037984	0.482475	0.000054
C51	C	0.036944	0.423074	0.000058
C52	C	0.112767	0.386594	0.000062
O53	O	-0.029579	0.334860	0.000050
O54	O	0.252883	0.309729	0.000075
C55	C	0.262110	0.668586	0.000067
C56	C	0.355051	0.669709	0.000066
C57	C	0.102014	0.776864	0.000077
C58	C	0.103140	0.840086	0.000080
N59	N	0.109043	0.672738	0.153323
N60	N	0.108935	0.672753	-0.153187
C61	C	0.166219	0.634009	0.438167
C62	C	0.166227	0.634007	0.376247
O63	O	0.214877	0.601061	0.344225
N64	N	0.109010	0.672734	0.345276
C65	C	0.051775	0.711461	0.376227
O66	O	0.003108	0.744401	0.344198
C67	C	0.051764	0.711460	0.438146
C68	C	0.108990	0.672734	0.469114
C69	C	0.223440	0.595286	0.469136
C70	C	0.223433	0.595289	0.531051
C71	C	0.166204	0.634014	0.561999
C72	C	0.108983	0.672737	0.531030
C73	C	-0.005474	0.750183	0.469096
C74	C	-0.005481	0.750178	0.531019
C75	C	0.051746	0.711453	0.561988
C76	C	0.051747	0.711464	0.623893
N77	N	0.108964	0.672737	0.654864
C78	C	0.166193	0.634012	0.623917
C79	C	0.051803	0.711461	0.246193
C80	C	0.051818	0.711466	0.184276
C81	C	0.166268	0.634011	0.184300
C82	C	0.166257	0.634009	0.246219
C83	C	0.109020	0.672734	0.277165
C84	C	0.166174	0.634020	0.753945
C85	C	0.166164	0.634028	0.815866
C86	C	0.051710	0.711480	0.815836
C87	C	0.051723	0.711475	0.753920
C88	C	0.108958	0.672740	0.722976
O89	O	0.003120	0.744392	0.655954
O90	O	0.214845	0.601073	0.655954
H91	H	-0.301537	0.586456	-0.040208
H92	H	-0.052073	0.781717	0.443890
C93	C	0.285493	0.553267	0.435436
C94	C	0.273262	0.561539	0.374579
C95	C	0.330413	0.522838	0.343521
H96	H	0.341360	0.559419	0.445535
H97	H	0.276680	0.515248	0.445545
H98	H	0.282083	0.599549	0.364474
H99	H	0.217407	0.555383	0.364462
H100	H	0.321599	0.484819	0.353630
H101	H	0.386276	0.528993	0.353625
H102	H	0.322117	0.528441	0.302227
C103	C	0.262249	-0.176670	-0.000012
C104	C	0.266079	-0.211183	-0.050611
C105	C	0.341823	-0.247751	-0.050710
H106	H	0.308246	-0.154587	-0.000043
H107	H	0.265027	-0.200155	0.034275
H108	H	0.263310	-0.187700	-0.084889
H109	H	0.220100	-0.233278	-0.050590
H110	H	0.344600	-0.271237	-0.016423
H111	H	0.387814	-0.225663	-0.050739
H112	H	0.344428	-0.271176	-0.085038
C113	C	0.228443	0.592053	0.150619
C114	C	0.279462	0.622388	0.115074
C115	C	0.336737	0.583759	0.084032
H116	H	0.262604	0.568971	0.177861
H117	H	0.198521	0.568360	0.126421
H118	H	0.309383	0.646072	0.139269
H119	H	0.245325	0.645467	0.087821
H120	H	0.306815	0.560065	0.059834
H121	H	0.370893	0.560679	0.111277
H122	H	0.371356	0.604335	0.059907
H123	H	-0.033363	-0.034326	0.000081
C124	C	-0.010519	0.753427	0.849478
C125	C	-0.061555	0.723081	0.884997
C126	C	-0.118902	0.761699	0.915993
H127	H	0.019320	0.777146	0.873692
H128	H	-0.044654	0.776485	0.822191
H129	H	-0.027424	0.700033	0.912281
H130	H	-0.091413	0.699365	0.860798
H131	H	-0.153037	0.784757	0.888706
H132	H	-0.089056	0.785416	0.940204
H133	H	-0.153542	0.741115	0.940093
H134	H	-0.319977	0.683120	0.098042
C135	C	-0.328468	0.765531	-0.060804
C136	C	-0.241118	0.765789	-0.064247
C137	C	-0.222500	0.822306	-0.068362
H138	H	-0.354163	0.782917	-0.095236
H139	H	-0.349388	0.786306	-0.026819
H140	H	-0.220208	0.745022	-0.098230
H141	H	-0.215403	0.748414	-0.029819
H142	H	-0.243419	0.843081	-0.034376
H143	H	-0.248199	0.839687	-0.102794
H144	H	-0.163231	0.822489	-0.070693
H145	H	0.005227	0.743006	0.159066
H146	H	-0.445166	0.584586	-0.040446
C147	C	-0.292633	0.578097	0.053769
C148	C	-0.234878	0.532195	0.035144
C149	C	-0.200315	0.502240	0.084606
H150	H	-0.264712	0.603016	0.077866
H151	H	-0.336290	0.563986	0.075855
H152	H	-0.191228	0.546307	0.013067
H153	H	-0.262779	0.507264	0.011054
H154	H	-0.243972	0.488129	0.106692
H155	H	-0.172398	0.527163	0.108700
H156	H	-0.161131	0.471090	0.071976
H157	H	-0.477721	0.750095	-0.055951
C158	C	-0.067667	0.792286	0.564510
C159	C	-0.117764	0.826204	0.524131
C160	C	-0.175051	0.865003	0.554959
H161	H	-0.102452	0.771866	0.588656
H162	H	-0.037756	0.816026	0.588661
H163	H	-0.147673	0.802467	0.499990
H164	H	-0.083002	0.846636	0.499983
H165	H	-0.145140	0.888744	0.579110
H166	H	-0.209830	0.844579	0.579104
H167	H	-0.209043	0.888025	0.527567
H168	H	-0.465963	0.683827	-0.098154
C169	C	-0.010375	0.753578	0.279682
C170	C	-0.060461	0.787499	0.239300
C171	C	-0.117741	0.826306	0.270125
H172	H	-0.045168	0.733164	0.303829
H173	H	0.019541	0.777315	0.303833
H174	H	-0.090375	0.763765	0.215159
H175	H	-0.025691	0.807925	0.215153
H176	H	-0.087824	0.850044	0.294275
H177	H	-0.152528	0.805888	0.294270
H178	H	-0.151725	0.849330	0.242730
H179	H	-0.106785	0.137964	0.000094
C180	C	-0.056059	-0.148386	0.000167
C181	C	-0.061101	-0.182099	0.050770
C182	C	-0.137904	-0.205103	0.050872
H183	H	-0.101126	-0.118206	0.000196
H184	H	-0.059661	-0.171311	-0.034118
H185	H	-0.057507	-0.159175	0.085046
H186	H	-0.016051	-0.212288	0.050752
H187	H	-0.141507	-0.228029	0.016587
H188	H	-0.182965	-0.174920	0.050899
H189	H	-0.141332	-0.227985	0.085202
C190	C	-0.010497	0.753548	0.720400
C191	C	-0.060627	0.787454	0.760759
C192	C	-0.117966	0.826209	0.729907
H193	H	0.019348	0.777305	0.696248
H194	H	-0.045246	0.733076	0.696254
H195	H	-0.025882	0.807925	0.784895
H196	H	-0.090490	0.763713	0.784913
H197	H	-0.152716	0.805738	0.705760
H198	H	-0.088114	0.849963	0.705755
H199	H	-0.151991	0.849216	0.757285
C200	C	-0.125550	0.255532	0.000062
C201	C	-0.193077	0.222740	0.000051
C202	C	-0.269001	0.259118	0.000014
H203	H	-0.128426	0.279004	0.034354
H204	H	-0.128375	0.278974	-0.034258
H205	H	-0.190253	0.199308	0.034367
H206	H	-0.190229	0.199269	-0.034238
H207	H	-0.271826	0.282560	-0.034306
H208	H	-0.271868	0.282588	0.034306
H209	H	-0.314827	0.236874	0.000001
H210	H	-0.025642	0.404413	0.000054
C211	C	-0.330356	0.766338	0.059126
C212	C	-0.368118	0.792382	0.109703
C213	C	-0.351385	0.849390	0.112376
H214	H	-0.271247	0.767500	0.060843
H215	H	-0.352515	0.786183	0.024915
H216	H	-0.345955	0.772543	0.143906
H217	H	-0.427227	0.791236	0.107998
H218	H	-0.373544	0.869236	0.078165
H219	H	-0.292275	0.850547	0.114090
H220	H	-0.377010	0.867071	0.146689
C221	C	0.343369	0.089787	0.000096
C222	C	0.326024	0.032854	0.000108
C223	C	0.401755	-0.003726	0.000131
H224	H	0.374945	0.096669	-0.034201
H225	H	0.374927	0.096705	0.034410
H226	H	0.294480	0.025939	-0.034203
H227	H	0.294461	0.025954	0.034402
H228	H	0.433313	0.003192	0.034446
H229	H	0.433325	0.003161	-0.034166
H230	H	0.389997	-0.042359	0.000145
H231	H	-0.321212	0.681715	-0.097876
H232	H	0.253247	0.487576	0.000046
H233	H	-0.446202	0.584692	0.039895
H234	H	-0.477800	0.748608	0.058839
C235	C	-0.044256	0.522158	-0.000035
C236	C	-0.048122	0.556667	-0.050636
C237	C	-0.123863	0.593237	-0.050730
H238	H	-0.090255	0.500077	-0.000062
H239	H	-0.047004	0.545647	0.034251
H240	H	-0.045382	0.533180	-0.084913
H241	H	-0.002140	0.578759	-0.050620
H242	H	-0.126611	0.616726	-0.016443
H243	H	-0.169856	0.571152	-0.050754
H244	H	-0.126493	0.616659	-0.085058
H245	H	0.212767	0.602493	0.841078
C246	C	0.228413	0.591944	0.720461
C247	C	0.278532	0.558048	0.760845
C248	C	0.335887	0.519290	0.730022
H249	H	0.198580	0.568180	0.696296
H250	H	0.263167	0.612413	0.696330
H251	H	0.243782	0.537580	0.784966
H252	H	0.308384	0.581796	0.785012
H253	H	0.370642	0.539759	0.705891
H254	H	0.306047	0.495530	0.705858
H255	H	0.369905	0.496290	0.757418
H256	H	0.270029	0.563753	0.556262
H257	H	0.251358	0.379819	0.000063
H258	H	0.324776	0.207539	0.000062
H259	H	0.243636	-0.058929	0.000076
C260	C	-0.469140	0.672978	0.112291
C261	C	-0.396659	0.656485	0.145769
C262	C	-0.418699	0.628919	0.197360
H263	H	-0.507284	0.698374	0.134821
H264	H	-0.495103	0.640060	0.102046
H265	H	-0.370709	0.689397	0.156015
H266	H	-0.358506	0.631081	0.123258
H267	H	-0.444662	0.596002	0.187115
H268	H	-0.456844	0.654319	0.219884
H269	H	-0.369524	0.617721	0.220078
H270	H	0.212855	0.602476	0.271430
