data_functionalizedCrystal
_audit_creation_method	'MofGen! by Chris Wilmer'
_symmetry_space_group_name_H-M	'P1'
_symmetry_Int_Tables_number	1
_symmetry_cell_setting	triclinic
loop_
_symmetry_equiv_pos_as_xyz
  x,y,z
_cell_length_a	19.188930
_cell_length_b	19.188928
_cell_length_c	9.130313
_cell_angle_alpha	89.979778
_cell_angle_beta	90.009631
_cell_angle_gamma	96.855705
loop_
_atom_site_label
_atom_site_type_symbol
_atom_site_fract_x
_atom_site_fract_y
_atom_site_fract_z
O1	O	0.087160	-0.926145	0.122382
O2	O	0.098896	-0.722833	0.122263
O3	O	-0.008628	-0.830356	0.122298
O4	O	0.194683	-0.818622	0.122348
O5	O	-0.008631	-0.830349	-0.121301
O6	O	0.098893	-0.722826	-0.121336
O7	O	0.087157	-0.926138	-0.121217
Cu8	Cu	0.093024	-0.824481	-0.143519
Cu9	Cu	0.093028	-0.824490	0.144565
O10	O	0.194680	-0.818615	-0.121251
C11	C	0.098514	-0.696819	0.000448
C12	C	0.097374	-0.619314	0.000401
C13	C	-0.034641	-0.829973	0.000494
C14	C	-0.112145	-0.828832	0.000480
C15	C	0.160465	-0.574390	0.000436
C16	C	0.159394	-0.501566	0.000444
C17	C	0.095229	-0.473670	0.000447
C18	C	0.032129	-0.518603	0.000405
C19	C	0.033202	-0.591426	0.000382
N20	N	0.046184	-0.365692	0.083390
N21	N	0.045169	-0.296513	0.083415
C22	C	0.091992	-0.254261	0.000513
N23	N	0.139880	-0.283799	-0.082396
N24	N	0.140897	-0.352984	-0.082414
C25	C	0.094058	-0.394707	0.000471
C26	C	0.153927	-0.130372	0.000555
C27	C	0.152853	-0.057547	0.000554
C28	C	0.025586	-0.074586	0.000529
C29	C	0.026661	-0.147409	0.000515
C30	C	0.090834	-0.175298	0.000535
C31	C	-0.157070	-0.891923	0.000510
C32	C	-0.229893	-0.890851	0.000533
C33	C	-0.257789	-0.826685	0.000497
C34	C	-0.212855	-0.763586	0.000475
C35	C	-0.140033	-0.764659	0.000467
N36	N	-0.365795	-0.777635	-0.082433
N37	N	-0.434974	-0.776620	-0.082429
C38	C	-0.477198	-0.823447	0.000524
N39	N	-0.447632	-0.871339	0.083454
N40	N	-0.378447	-0.872356	0.083443
C41	C	-0.336752	-0.825514	0.000506
C42	C	-0.601087	-0.885380	0.000581
C43	C	-0.673912	-0.884306	0.000613
C44	C	-0.656872	-0.757039	0.000540
C45	C	-0.584049	-0.758115	0.000523
C46	C	-0.556161	-0.822287	0.000537
C47	C	0.220693	-0.818998	0.000556
C48	C	0.298197	-0.820139	0.000579
N49	N	0.093021	-0.824480	-0.346141
C50	C	0.087540	0.047848	0.000576
C51	C	0.088686	-0.029656	0.000555
C52	C	0.045430	-0.872107	-0.422778
C53	C	0.045430	-0.872114	-0.576115
C54	C	0.140619	-0.776864	-0.576165
C55	C	0.140615	-0.776855	-0.422831
N56	N	0.093025	-0.824496	0.347188
H57	H	0.212720	-0.597092	0.000454
C58	C	-0.570408	-0.955971	0.000619
N59	N	-0.547303	-1.009140	0.000651
C60	C	-0.038454	-0.487916	0.000410
N61	N	-0.091619	-0.464802	0.000410
H62	H	0.006675	-0.910886	-0.360341
H63	H	-0.547470	-0.706739	0.000490
H64	H	-0.018176	-0.628004	0.000355
H65	H	0.206180	-0.153080	0.000549
H66	H	-0.235573	-0.711341	0.000448
H67	H	0.204232	-0.020970	0.000573
H68	H	0.006675	-0.910895	-0.638508
C69	C	-0.042745	-0.196828	0.000495
N70	N	-0.095025	-0.234050	0.000477
H71	H	0.179370	-0.738090	-0.638621
C72	C	-0.687553	-0.686455	0.000505
N73	N	-0.710666	-0.633289	0.000482
C74	C	0.193004	-0.724491	-0.338526
N75	N	0.232473	-0.685062	-0.275027
H76	H	0.210773	-0.464982	0.000468
C77	C	-0.044998	-0.043904	0.000531
N78	N	-0.098163	-0.020791	0.000530
H79	H	-0.103455	-0.713281	0.000442
H80	H	-0.134368	-0.944177	0.000527
H81	H	-0.266478	-0.942229	0.000564
H82	H	-0.710489	-0.935684	0.000646
