data_functionalizedCrystal
_audit_creation_method	'MofGen! by Chris Wilmer'
_symmetry_space_group_name_H-M	'P1'
_symmetry_Int_Tables_number	1
_symmetry_cell_setting	triclinic
loop_
_symmetry_equiv_pos_as_xyz
  x,y,z
_cell_length_a	10.654556
_cell_length_b	27.732048
_cell_length_c	9.730223
_cell_angle_alpha	89.993758
_cell_angle_beta	89.999363
_cell_angle_gamma	83.565032
loop_
_atom_site_label
_atom_site_type_symbol
_atom_site_fract_x
_atom_site_fract_y
_atom_site_fract_z
O1	O	1.664975	0.067898	-0.114320
O2	O	1.299226	0.074362	-0.114322
O3	O	1.493460	0.000804	-0.114295
O4	O	1.470741	0.141456	-0.114347
O5	O	1.493458	0.000806	0.114285
O6	O	1.299224	0.074364	0.114258
O7	O	1.664973	0.067900	0.114260
Zn8	Zn	1.482098	0.071132	0.150551
Zn9	Zn	1.482101	0.071130	-0.150613
O10	O	1.470739	0.141458	0.114233
C11	C	1.252447	0.073888	-0.000032
C12	C	1.113064	0.072466	-0.000031
C13	C	0.916619	0.070464	-0.124640
C14	C	1.047585	0.071797	-0.124635
C15	C	1.047571	0.071797	0.124576
C16	C	0.916609	0.070460	0.124569
C17	C	0.916628	0.070467	-0.268520
C18	C	1.047594	0.071800	-0.268515
C19	C	1.492982	-0.017205	-0.000001
C20	C	1.491546	-0.070869	0.000010
C21	C	1.597285	-0.409024	-0.000060
C22	C	1.591957	-0.610717	-0.000079
O23	O	1.688648	-0.641370	-0.000139
N24	N	1.476784	-0.630559	-0.000078
C25	C	1.362935	-0.599974	-0.000082
O26	O	1.264852	-0.621479	-0.000095
C27	C	1.368265	-0.398282	-0.000072
C28	C	1.483445	-0.378443	-0.000059
C29	C	1.712456	-0.389185	-0.000048
C30	C	1.713787	-0.338764	-0.000036
C31	C	1.599947	-0.308184	-0.000035
C32	C	1.484776	-0.328023	-0.000047
C33	C	1.254417	-0.367699	-0.000085
C34	C	1.255760	-0.317273	-0.000087
C35	C	1.370940	-0.297434	-0.000074
C36	C	1.372266	-0.247022	-0.000034
N37	N	1.487439	-0.227180	-0.000035
C38	C	1.601279	-0.257761	-0.000036
C39	C	1.360146	-0.705866	-0.000084
C40	C	1.358813	-0.756289	-0.000084
C41	C	1.587835	-0.767028	-0.000084
C42	C	1.589166	-0.716604	-0.000074
C43	C	1.475318	-0.686024	-0.000085
C44	C	1.604065	-0.151874	-0.000009
C45	C	1.605386	-0.101449	0.000009
C46	C	1.376365	-0.090714	0.000002
C47	C	1.375043	-0.141135	-0.000008
C48	C	1.488904	-0.171714	-0.000019
O49	O	1.275627	-0.216341	0.000010
O50	O	1.699349	-0.236247	-0.000052
C51	C	1.595954	-0.459444	-0.000072
C52	C	1.480783	-0.479284	-0.000084
C53	C	1.366943	-0.448703	-0.000083
C54	C	1.479451	-0.529707	-0.000084
C55	C	1.593291	-0.560287	-0.000084
C56	C	1.708464	-0.540445	-0.000085
C57	C	1.709794	-0.490025	-0.000073
C58	C	1.251771	-0.468545	-0.000082
C59	C	1.250449	-0.518966	-0.000093
C60	C	1.364289	-0.549547	-0.000094
C61	C	1.711752	0.068374	-0.000034
C62	C	1.851135	0.069796	-0.000043
C63	C	1.471217	0.159467	-0.000064
C64	C	1.472653	0.213131	-0.000084
N65	N	1.482105	0.071134	0.356087
N66	N	1.482104	0.071125	-0.356149
C67	C	1.568133	0.038573	0.428025
C68	C	1.568130	0.038567	0.571908
C69	C	1.396066	0.103687	0.571903
C70	C	1.396065	0.103690	0.428022
C71	C	1.667477	0.000979	0.428030
C72	C	1.667474	0.000973	0.571913
H73	H	0.863476	0.104888	-0.313177
H74	H	1.281254	-0.157289	0.000019
H75	H	1.326014	0.130193	0.630487
C76	C	1.628531	-0.045791	0.631491
C77	C	1.520266	-0.035199	0.712374
C78	C	1.484347	-0.078266	0.767258
H79	H	1.695116	-0.061073	0.686530
H80	H	1.610996	-0.066906	0.558805
H81	H	1.537806	-0.014092	0.785051
H82	H	1.453656	-0.019924	0.657366
H83	H	1.466812	-0.099381	0.694572
H84	H	1.550940	-0.093545	0.822291
H85	H	1.410879	-0.071086	0.822133
C86	C	0.845319	0.069798	0.259741
C87	C	0.755168	0.110530	0.267009
C88	C	0.689460	0.109930	0.391504
H89	H	0.902914	0.070407	0.334072
H90	H	0.804283	0.041153	0.264915
H91	H	0.796203	0.139168	0.261848
H92	H	0.697547	0.109929	0.192707
H93	H	0.648423	0.081285	0.396679
H94	H	0.747064	0.110538	0.465826
H95	H	0.628277	0.137563	0.396447
C96	C	1.132242	-0.284015	0.000120
C97	C	1.126316	-0.254752	0.117706
C98	C	1.012560	-0.224106	0.117937
H99	H	1.063359	-0.302996	0.000182
H100	H	1.127992	-0.264089	-0.079547
H101	H	1.130553	-0.274676	0.197352
H102	H	1.195173	-0.235761	0.117669
H103	H	1.008310	-0.204180	0.038270
H104	H	0.943686	-0.243090	0.117995
H105	H	1.008529	-0.204244	0.197710
C106	C	1.118442	0.072493	0.260007
C107	C	1.033062	0.071610	0.369123
C108	C	1.098301	0.072244	0.493904
H109	H	1.159420	0.101140	0.265379
H110	H	1.179625	0.044866	0.265271
H111	H	0.971901	0.099234	0.363861
H112	H	0.992080	0.042964	0.363796
H113	H	1.159484	0.044617	0.499168
H114	H	1.139277	0.100892	0.499262
H115	H	1.040383	0.071640	0.567954
H116	H	1.100748	0.037376	-0.313148
C117	C	1.795812	0.011944	0.623807
C118	C	1.889236	-0.023559	0.575634
C119	C	2.007471	-0.013466	0.623399
H120	H	1.795991	0.011927	0.721429
H121	H	1.812473	0.042892	0.591237
H122	H	1.872579	-0.054499	0.608212
H123	H	1.889097	-0.023548	0.478017
H124	H	2.024132	0.017482	0.590829
H125	H	2.007637	-0.013483	0.721020
H126	H	2.070875	-0.037551	0.590710
H127	H	0.893238	0.036340	-0.323756
H128	H	1.070993	0.105929	-0.323756
C129	C	1.640694	-0.048533	0.376047
C130	C	1.522539	-0.058584	0.424169
C131	C	1.497814	-0.104185	0.376300
H132	H	1.704126	-0.072635	0.408561
H133	H	1.640617	-0.048543	0.278408
H134	H	1.522626	-0.058578	0.521788
H135	H	1.459082	-0.034494	0.391659
H136	H	1.497737	-0.104195	0.278660
H137	H	1.561253	-0.128283	0.408817
H138	H	1.417639	-0.111008	0.408933
C139	C	1.836029	-0.422405	-0.000329
C140	C	1.841998	-0.451655	-0.117942
C141	C	1.955831	-0.482254	-0.118246
H142	H	1.840399	-0.442345	0.079291
H143	H	1.904835	-0.403376	-0.000398
H144	H	1.773211	-0.470682	-0.117861
H145	H	1.837650	-0.431728	-0.197581
H146	H	2.024637	-0.463226	-0.118315
H147	H	1.960190	-0.502192	-0.038621
H148	H	1.959901	-0.502101	-0.198051
C149	C	1.730575	-0.080004	-0.000053
C150	C	1.829982	-0.117582	-0.000098
C151	C	1.945319	-0.097847	-0.000178
H152	H	1.736040	-0.060569	0.079640
H153	H	1.735925	-0.060566	-0.079793
H154	H	1.824635	-0.137011	0.079633
H155	H	1.824559	-0.137019	-0.079785
H156	H	1.950669	-0.078409	-0.079917
H157	H	1.950771	-0.078412	0.079516
H158	H	2.012780	-0.123340	-0.000221
H159	H	1.696782	-0.176767	-0.000022
C160	C	1.838753	-0.317165	-0.000258
C161	C	1.846200	-0.288518	-0.117842
C162	C	1.961300	-0.268612	-0.118091
H163	H	1.906456	-0.342555	-0.000335
H164	H	1.844063	-0.297694	0.079410
H165	H	1.840902	-0.307987	-0.197489
H166	H	1.778523	-0.263120	-0.117789
H167	H	1.966610	-0.249142	-0.038423
H168	H	2.028994	-0.294005	-0.118165
H169	H	1.966363	-0.249170	-0.197863
H170	H	1.680528	-0.791935	-0.000084
C171	C	1.714349	-0.695160	-0.000146
C172	C	1.813751	-0.732740	-0.000179
C173	C	1.929092	-0.713007	-0.000270
H174	H	1.719817	-0.675722	0.079539
H175	H	1.719701	-0.675727	-0.079894
H176	H	1.808401	-0.752165	0.079560
H177	H	1.808324	-0.752181	-0.079858
H178	H	1.934444	-0.693574	-0.080017
H179	H	1.934547	-0.693569	0.079416
H180	H	1.996549	-0.738502	-0.000305
H181	H	1.283679	-0.065807	0.000008
H182	H	1.758165	0.012751	0.383399
H183	H	1.160625	-0.383842	-0.000104
C184	C	1.233850	-0.777890	-0.000299
C185	C	1.226405	-0.806528	-0.117883
C186	C	1.111311	-0.826438	-0.118128
H187	H	1.166141	-0.752502	-0.000373
H188	H	1.228547	-0.797368	0.079369
H189	H	1.231695	-0.787052	-0.197530
H190	H	1.294087	-0.831924	-0.117834
H191	H	1.106008	-0.845915	-0.038460
H192	H	1.043611	-0.801047	-0.118198
H193	H	1.106249	-0.845874	-0.197901
H194	H	1.267431	-0.680971	-0.000092
H195	H	1.803586	-0.473877	-0.000063
H196	H	1.326003	0.130199	0.369452
C197	C	1.832024	-0.573677	-0.000375
C198	C	1.837945	-0.602921	-0.118000
C199	C	1.951750	-0.633537	-0.118332
H200	H	1.836384	-0.593622	0.079237
H201	H	1.900854	-0.554661	-0.000447
H202	H	1.769134	-0.621936	-0.117916
H203	H	1.833608	-0.582990	-0.197631
H204	H	2.020580	-0.614521	-0.118404
H205	H	1.956099	-0.653478	-0.038716
H206	H	1.955788	-0.653380	-0.198145
H207	H	1.156649	-0.535114	-0.000091
H208	H	1.159066	-0.443651	-0.000085
