data_functionalizedCrystal
_audit_creation_method	'MofGen! by Chris Wilmer'
_symmetry_space_group_name_H-M	'P1'
_symmetry_Int_Tables_number	1
_symmetry_cell_setting	triclinic
loop_
_symmetry_equiv_pos_as_xyz
  x,y,z
_cell_length_a	14.044220
_cell_length_b	10.654562
_cell_length_c	12.503572
_cell_angle_alpha	86.444548
_cell_angle_beta	93.843168
_cell_angle_gamma	88.839490
loop_
_atom_site_label
_atom_site_type_symbol
_atom_site_fract_x
_atom_site_fract_y
_atom_site_fract_z
O1	O	0.127845	1.687864	-0.089395
O2	O	0.140527	1.323661	-0.089382
O3	O	-0.003834	1.500295	-0.089378
O4	O	0.272206	1.511230	-0.089400
O5	O	0.007041	1.487013	0.089264
O6	O	0.151402	1.310379	0.089259
O7	O	0.138720	1.674582	0.089246
Cu8	Cu	0.146054	1.491268	0.105564
Cu9	Cu	0.133193	1.506975	-0.105700
O10	O	0.283081	1.497948	0.089242
C11	C	0.145031	1.270128	-0.000060
C12	C	0.142238	1.130405	-0.000055
C13	C	0.146862	1.057504	0.097315
C14	C	0.144244	0.926220	0.097297
C15	C	0.132381	0.940750	-0.097468
C16	C	0.134992	1.072032	-0.097449
C17	C	0.153716	1.049114	0.209761
C18	C	0.151098	0.917830	0.209743
C19	C	-0.033743	1.488868	-0.000057
C20	C	-0.139063	1.474593	-0.000055
C21	C	-0.331897	1.448495	-0.000069
C22	C	-0.388862	1.549743	-0.000076
C23	C	-0.496162	1.535222	-0.000084
C24	C	-0.224587	1.463014	-0.000061
C25	C	0.312989	1.509375	-0.000082
C26	C	0.418309	1.523651	-0.000091
C27	C	0.134216	1.728115	-0.000079
C28	C	0.137008	1.867839	-0.000091
N29	N	0.155099	1.480229	0.254156
N30	N	0.124140	1.518023	-0.254292
C31	C	0.168413	1.463992	0.473271
C32	C	0.110830	1.534257	0.526600
C33	C	0.118238	1.525222	0.648523
C34	C	0.161006	1.473025	0.351337
H35	H	0.090790	1.085575	0.252948
H36	H	0.223272	1.397056	0.519177
H37	H	0.055969	1.601198	0.480689
H38	H	0.131212	1.131384	-0.176736
O39	O	0.125518	0.883973	-0.192043
C40	C	0.205646	0.803421	-0.197877
H41	H	0.267118	0.835351	-0.142617
H42	H	0.186715	0.703110	-0.171726
C43	C	0.160205	0.768586	-0.382095
C44	C	0.235709	0.807810	-0.314231
H45	H	0.178747	0.771288	-0.453868
H46	H	0.106219	0.822851	-0.378164
H47	H	0.144437	0.684997	-0.360289
H48	H	0.251467	0.891403	-0.336029
H49	H	0.289698	0.753558	-0.318168
H50	H	0.225021	1.083046	0.244645
O51	O	0.071008	0.871296	0.251270
C52	C	-0.010215	0.921612	0.189681
H53	H	0.008530	1.013886	0.145822
H54	H	-0.035063	0.852049	0.128583
C55	C	-0.113715	0.832565	0.318053
C56	C	-0.090694	0.945903	0.264192
H57	H	-0.163361	0.847543	0.364012
H58	H	-0.058995	0.798661	0.359545
H59	H	-0.134417	0.774607	0.267127
H60	H	-0.069982	1.003852	0.315117
H61	H	-0.145414	0.979817	0.222710
H62	H	0.219282	0.874922	0.252906
H63	H	-0.363711	1.350916	-0.000069
O64	O	-0.350754	1.666071	-0.000022
C65	C	-0.250551	1.654867	-0.000040
H66	H	-0.226027	1.556832	0.033777
H67	H	-0.228162	1.670366	-0.085740
C68	C	-0.234586	1.874531	0.028492
C69	C	-0.204464	1.754125	0.070036
H70	H	-0.206156	1.935760	0.071714
H71	H	-0.302095	1.882081	0.028500
H72	H	-0.215927	1.887428	-0.042924
H73	H	-0.223133	1.741224	0.141445
H74	H	-0.136957	1.746575	0.070042
