data_functionalizedCrystal
_audit_creation_method	'MofGen! by Chris Wilmer'
_symmetry_space_group_name_H-M	'P1'
_symmetry_Int_Tables_number	1
_symmetry_cell_setting	triclinic
loop_
_symmetry_equiv_pos_as_xyz
  x,y,z
_cell_length_a	20.919309
_cell_length_b	14.560438
_cell_length_c	20.919311
_cell_angle_alpha	117.406422
_cell_angle_beta	89.825846
_cell_angle_gamma	57.440967
loop_
_atom_site_label
_atom_site_type_symbol
_atom_site_fract_x
_atom_site_fract_y
_atom_site_fract_z
Zr1	Zr	0.644063	0.926918	0.056705
O2	O	0.541835	1.118520	0.158926
O3	O	0.675402	0.735317	0.025370
O4	O	0.680604	0.911984	0.153726
O5	O	0.532530	0.953633	-0.070681
O6	O	0.790067	0.900203	0.149622
O7	O	0.536633	0.941853	0.030570
O8	O	0.780762	0.584179	-0.079983
O9	O	0.541835	1.269658	0.158924
O10	O	0.770459	0.805334	0.008941
O11	O	0.685705	0.822917	-0.063559
O12	O	0.691830	1.030919	0.087564
O13	O	0.607076	1.048503	0.015064
Zr14	Zr	0.812101	0.926918	-0.111325
Zr15	Zr	0.818645	0.908130	0.050159
Zr16	Zr	0.637519	0.945707	-0.104779
Zr17	Zr	0.644064	1.167966	0.056702
Zr18	Zr	0.812101	0.685870	-0.111322
O19	O	0.780762	1.118519	-0.079990
O20	O	0.790067	1.091804	0.149619
O21	O	0.532530	1.145234	-0.070683
O22	O	0.914329	0.735317	-0.213546
O23	O	0.923634	0.708602	0.016063
O24	O	0.666097	0.762032	-0.204240
O25	O	0.923634	0.900203	0.016061
O26	O	0.775561	0.941853	-0.208346
O27	O	0.666097	0.953633	-0.204242
O28	O	0.919531	0.911983	-0.085191
O29	O	0.680604	1.254723	0.153722
O30	O	0.775560	0.599113	-0.208342
O31	O	0.914329	0.584179	-0.213545
O32	O	0.919531	0.569244	-0.085186
O33	O	0.536633	1.284592	0.030566
O34	O	0.675402	1.269657	0.025363
O35	O	0.764334	0.822917	-0.142184
O36	O	0.849088	0.805334	-0.069684
O37	O	0.770459	1.030919	0.008938
O38	O	0.685706	1.048503	-0.063562
C39	C	0.728082	0.625404	-0.027306
C40	C	0.728082	0.523073	-0.027305
C41	C	0.772321	0.465819	0.010539
C42	C	0.772323	0.369660	0.010532
C43	C	0.683842	0.388023	-0.065164
C44	C	0.683844	0.484173	-0.065161
C45	C	0.509707	0.950420	-0.019123
C46	C	0.435593	0.958397	-0.016344
C47	C	0.441816	0.844393	-0.056075
C48	C	0.372174	0.851896	-0.053462
C49	C	0.296312	0.973402	-0.011114
C50	C	0.290091	1.087414	0.028618
C51	C	0.359731	1.079911	0.026001
C52	C	0.083990	1.001949	-0.001162
C53	C	0.014349	1.009443	0.001455
C54	C	0.096437	0.773924	-0.080627
C55	C	0.166075	0.766431	-0.083237
C56	C	0.159848	0.880443	-0.043509
C57	C	0.225127	0.981074	-0.008440
C58	C	0.231032	0.872771	-0.046187
C59	C	0.946457	0.903416	-0.035498
C60	C	1.020571	0.895440	-0.038276
C61	C	0.736268	0.903417	0.174682
C62	C	0.739046	0.895440	0.243236
C63	C	0.728082	1.228432	-0.027314
C64	C	0.728083	1.330764	-0.027315
C65	C	0.699309	1.009443	0.316483
C66	C	0.701930	1.001940	0.380894
C67	C	0.744283	0.880434	0.372057
C68	C	0.784025	0.766422	0.298802
C69	C	0.781409	0.773926	0.234392
C70	C	0.754241	0.851885	0.564478
C71	C	0.756852	0.844390	0.628896
C72	C	0.674758	1.079910	0.710984
C73	C	0.672141	1.087403	0.646569
C74	C	0.711887	0.973391	0.573320
C75	C	0.746961	0.872761	0.437894
C76	C	0.709213	0.981064	0.507484
C77	C	0.719896	0.950419	0.770698
C78	C	0.717115	0.958393	0.702143
C79	C	0.946457	0.601902	-0.035494
C80	C	1.020571	0.491595	-0.038271
C81	C	0.719896	0.648906	-0.229298
C82	C	0.717118	0.554551	-0.297851
C83	C	0.938271	0.625404	-0.237486
C84	C	1.009607	0.523072	-0.308817
C85	C	0.517893	1.228433	0.182865
C86	C	0.446557	1.330764	0.254197
C87	C	0.509708	1.251934	-0.019127
C88	C	0.435593	1.362242	-0.016349
C89	C	0.736268	1.204931	0.174678
C90	C	0.739046	1.299286	0.243231
C91	C	1.014332	0.439792	0.001473
C92	C	1.083965	0.336159	-0.001121
C93	C	1.159834	0.284324	-0.043465
C94	C	1.166071	0.336136	-0.083210
C95	C	1.096440	0.439773	-0.080611
C96	C	0.756857	0.510241	-0.371093
C97	C	0.754243	0.421599	-0.435512
C98	C	0.711895	0.377261	-0.426687
C99	C	0.672151	0.421580	-0.353438
C100	C	0.674761	0.510227	-0.289021
C101	C	1.087355	0.465837	-0.304472
C102	C	1.154390	0.369698	-0.371489
C103	C	1.143675	0.330789	-0.442852
C104	C	1.065919	0.388035	-0.447196
C105	C	0.998886	0.484178	-0.380179
C106	C	0.368809	1.388011	0.249851
C107	C	0.301774	1.484180	0.316869
C108	C	0.312489	1.523094	0.388232
C109	C	0.390245	1.465842	0.392576
C110	C	0.457278	1.369682	0.325559
C111	C	0.441832	1.414054	-0.056087
C112	C	0.372201	1.517711	-0.053474
C113	C	0.296331	1.569550	-0.011129
C114	C	0.290094	1.517733	0.028613
C115	C	0.359725	1.414084	0.026005
C116	C	0.781402	1.343595	0.234382
C117	C	0.784028	1.432238	0.298788
C118	C	0.744293	1.476577	0.372042
C119	C	0.701936	1.432258	0.380890
C120	C	0.699316	1.343610	0.316484
H121	H	0.647819	0.530790	-0.095982
H122	H	0.791341	0.546332	-0.378292
H123	H	0.398960	1.497539	0.450687
H124	H	0.257900	1.601395	0.442795
H125	H	0.637672	0.385467	-0.346264
H126	H	0.818518	1.468313	0.291570
H127	H	1.078871	0.293986	0.031244
H128	H	1.198265	0.252501	-0.497416
H129	H	0.228312	1.559956	0.063090
H130	H	0.664815	1.108388	0.323688
H131	H	0.520583	1.323071	0.329106
H132	H	0.503583	0.745450	-0.090563
H133	H	0.503602	1.371855	-0.090574
H134	H	0.786610	0.385525	-0.495148
H135	H	0.808343	0.497486	0.041363
H136	H	0.642403	0.546291	-0.229386
H137	H	0.746433	1.548760	0.424479
H138	H	0.669586	1.468372	0.440542
H139	H	0.354634	1.371902	0.058363
H140	H	1.096095	0.497501	-0.246371
H141	H	0.377248	0.759062	-0.085817
H142	H	1.217696	0.323098	-0.367939
H143	H	0.292802	0.773841	-0.080670
H144	H	0.377295	1.559883	-0.085841
H145	H	0.239640	1.653948	-0.009012
H146	H	0.163352	1.080005	0.026039
H147	H	0.813759	1.307509	0.174741
H148	H	0.664822	1.307543	0.323700
H149	H	1.057207	0.356340	-0.505309
H150	H	0.935582	0.530768	-0.383728
H151	H	0.360070	1.356334	0.191750
H152	H	0.808348	0.323043	0.041347
H153	H	0.647825	0.356340	-0.095985
H154	H	0.227843	0.667486	-0.117707
H155	H	0.952562	0.481994	0.035963
H156	H	-0.047423	1.108393	0.035943
H157	H	0.101497	0.681101	-0.112972
H158	H	0.669573	1.094774	0.440533
H159	H	0.709776	0.305079	-0.479147
H160	H	0.078910	1.094784	0.031202
H161	H	0.228318	1.186348	0.063095
H162	H	0.354660	1.172746	0.058344
H163	H	0.642400	1.172732	0.770628
H164	H	0.637655	1.186347	0.653774
H165	H	0.786605	0.759049	0.504844
H166	H	0.791341	0.745440	0.621691
H167	H	0.818515	0.667488	0.291610
H168	H	0.813766	0.681092	0.174751
H169	H	0.781445	0.773830	0.430706
H170	H	1.216526	0.199934	-0.045575
H171	H	0.674732	1.079994	0.514677
H172	H	1.227853	0.293916	-0.117685
H173	H	1.101530	0.481938	-0.112980
H174	H	0.238468	1.530779	0.313317
