data_functionalizedCrystal
_audit_creation_method	'MofGen! by Chris Wilmer'
_symmetry_space_group_name_H-M	'P1'
_symmetry_Int_Tables_number	1
_symmetry_cell_setting	triclinic
loop_
_symmetry_equiv_pos_as_xyz
  x,y,z
_cell_length_a	12.594517
_cell_length_b	29.839131
_cell_length_c	29.839135
_cell_angle_alpha	90.000668
_cell_angle_beta	90.008374
_cell_angle_gamma	90.041220
loop_
_atom_site_label
_atom_site_type_symbol
_atom_site_fract_x
_atom_site_fract_y
_atom_site_fract_z
Zn1	Zn	1.626943	-0.178994	0.254012
Zn2	Zn	1.626795	-0.254084	0.178882
Zn3	Zn	1.448987	-0.178969	0.178894
Zn4	Zn	1.448850	-0.254098	0.253983
O5	O	1.537894	-0.216536	0.216443
O6	O	1.775869	-0.188960	0.244053
O7	O	1.603204	-0.244103	0.116017
O8	O	1.472712	-0.116105	0.188876
O9	O	1.775761	-0.244128	0.188856
O10	O	1.603456	-0.116124	0.244065
O11	O	1.472569	-0.188916	0.116025
O12	O	1.300023	-0.188930	0.188847
O13	O	1.472479	-0.244152	0.316854
O14	O	1.299923	-0.244127	0.244015
O15	O	1.603323	-0.188973	0.316875
O16	O	1.603072	-0.316953	0.188827
O17	O	1.472336	-0.316963	0.244003
C18	C	1.261353	-0.216527	0.216430
C19	C	1.143048	-0.216534	0.216435
C20	C	1.073818	-0.186471	0.186486
C21	C	1.002970	-0.227444	0.175431
C22	C	1.003097	-0.175582	0.227497
C23	C	1.073758	-0.257528	0.205358
C24	C	1.073890	-0.205638	0.257443
C25	C	1.003074	-0.246639	0.246404
C26	C	1.537702	-0.333259	0.216420
C27	C	1.537717	-0.383193	0.216426
C28	C	1.606092	-0.692819	0.187755
C29	C	1.606223	-0.880492	0.187772
O30	O	1.664205	-0.904741	0.163377
N31	N	1.538115	-0.903978	0.216477
C32	C	1.469974	-0.880544	0.245181
O33	O	1.412054	-0.904827	0.269600
C34	C	1.469848	-0.692871	0.245166
C35	C	1.537954	-0.669387	0.216456
C36	C	1.674192	-0.669334	0.159047
C37	C	1.674155	-0.622419	0.159042
C38	C	1.606016	-0.598988	0.187743
C39	C	1.537916	-0.622472	0.216450
C40	C	1.401713	-0.669438	0.273872
C41	C	1.401690	-0.622517	0.273866
C42	C	1.469795	-0.599033	0.245157
C43	C	1.469740	-0.552125	0.245146
N44	N	1.537849	-0.528639	0.216441
C45	C	1.605987	-0.552070	0.187740
C46	C	1.470043	-0.979074	0.245187
C47	C	1.470072	-1.025992	0.245190
C48	C	1.606324	-1.025937	0.187781
C49	C	1.606288	-0.979018	0.187776
C50	C	1.538151	-0.955588	0.216482
C51	C	1.605902	-0.453544	0.187729
C52	C	1.605855	-0.406624	0.187725
C53	C	1.469608	-0.406684	0.245135
C54	C	1.469651	-0.453599	0.245138
C55	C	1.537806	-0.477028	0.216434
O56	O	1.411797	-0.527847	0.269531
O57	O	1.663914	-0.527779	0.163331
C58	C	1.606129	-0.739734	0.187760
C59	C	1.538029	-0.763218	0.216467
C60	C	1.469891	-0.739787	0.245169
C61	C	1.538059	-0.810136	0.216471
C62	C	1.606197	-0.833567	0.187769
C63	C	1.674305	-0.810081	0.159065
C64	C	1.674267	-0.763165	0.159059
C65	C	1.401782	-0.763273	0.273873
C66	C	1.401825	-0.810189	0.273877
C67	C	1.469963	-0.833620	0.245175
C68	C	1.815515	-0.216546	0.216456
C69	C	1.933820	-0.216550	0.216462
C70	C	1.537902	-0.216567	0.333621
C71	C	1.537906	-0.216580	0.383556
C72	C	1.538116	-0.099358	0.216475
C73	C	1.538210	-0.049423	0.216489
C74	C	1.469763	-0.245276	0.740132
C75	C	1.469770	-0.245292	0.552458
O76	O	1.411807	-0.269713	0.528184
N77	N	1.537894	-0.216566	0.529001
C78	C	1.606017	-0.187832	0.552464
O79	O	1.663953	-0.163396	0.528205
C80	C	1.606003	-0.187814	0.740136
C81	C	1.537882	-0.216545	0.763592
C82	C	1.401647	-0.274005	0.763587
C83	C	1.401650	-0.274002	0.810502
C84	C	1.469769	-0.245271	0.833962
C85	C	1.537885	-0.216543	0.810507
C86	C	1.674119	-0.159078	0.763599
C87	C	1.674108	-0.159075	0.810520
C88	C	1.605987	-0.187807	0.833975
C89	C	1.606008	-0.187809	0.880883
N90	N	1.537883	-0.216535	0.904340
C91	C	1.469764	-0.245266	0.880880
C92	C	1.606020	-0.187844	0.453933
C93	C	1.606025	-0.187849	0.407016
C94	C	1.469777	-0.245309	0.407013
C95	C	1.469778	-0.245306	0.453932
C96	C	1.537896	-0.216570	0.477391
C97	C	1.469776	-0.245259	0.979406
C98	C	1.469788	-0.245255	1.026326
C99	C	1.606032	-0.187794	1.026324
C100	C	1.606024	-0.187799	0.979408
C101	C	1.537888	-0.216533	0.955951
O102	O	1.663932	-0.163398	0.905186
O103	O	1.411820	-0.269692	0.905147
C104	C	1.469760	-0.245279	0.693216
C105	C	1.537876	-0.216550	0.669761
C106	C	1.605996	-0.187819	0.693221
C107	C	1.537881	-0.216555	0.622843
C108	C	1.469762	-0.245286	0.599383
C109	C	1.401638	-0.274013	0.622841
C110	C	1.401641	-0.274010	0.669756
C111	C	1.674120	-0.159093	0.669763
C112	C	1.674112	-0.159099	0.622847
C113	C	1.605993	-0.187830	0.599387
C114	C	1.537886	-0.216521	1.099720
C115	C	1.537908	-0.216524	1.049786
H116	H	0.971820	-0.236670	0.140763
O117	O	1.403637	-0.476465	0.273044
C118	C	1.464209	-0.503562	0.302097
H119	H	1.544907	-0.510555	0.286285
H120	H	1.420874	-0.536574	0.308106
H121	H	1.475824	-0.485468	0.335391
H122	H	0.972208	-0.272098	0.271742
O123	O	0.966116	-0.134271	0.238728
C124	C	1.003821	-0.122536	0.281649
H125	H	1.024767	-0.154232	0.301050
H126	H	0.939632	-0.103261	0.300443
H127	H	1.077549	-0.100625	0.278161
H128	H	1.414604	-1.045109	0.268564
H129	H	1.414284	-0.268653	0.960312
H130	H	1.661314	-0.387505	0.164344
H131	H	1.414307	-0.268701	0.473026
O132	O	1.111272	-0.194644	0.298767
C133	C	1.223205	-0.195183	0.298260
H134	H	1.251999	-0.217591	0.269811
H135	H	1.253853	-0.208719	0.331560
H136	H	1.254277	-0.159677	0.292998
H137	H	1.414128	-0.387599	0.268502
H138	H	1.729592	-0.135682	0.744509
O139	O	1.672137	-0.476229	0.159802
C140	C	1.732246	-0.445433	0.134474
H141	H	1.688618	-0.412009	0.132904
H142	H	1.743673	-0.458983	0.099082
H143	H	1.813051	-0.440404	0.150955
O144	O	1.740424	-0.599679	0.131143
C145	C	1.800549	-0.630429	0.105809
H146	H	1.804204	-0.663869	0.124218
H147	H	1.884417	-0.616844	0.101052
H148	H	1.761647	-0.635439	0.071673
H149	H	1.661496	-0.164403	1.045434
H150	H	1.729725	-0.744048	0.135681
H151	H	1.729684	-0.688407	0.135675
H152	H	1.661745	-0.959900	0.164398
O153	O	1.672544	-1.048772	0.159970
C154	C	1.657971	-1.095217	0.166139
H155	H	1.622956	-1.101622	0.200781
H156	H	1.737739	-1.113005	0.163176
H157	H	1.601438	-1.108582	0.139448
H158	H	1.729783	-0.829167	0.135694
H159	H	1.104879	-0.161073	0.161129
O160	O	1.740177	-0.131120	0.600089
C161	C	1.716994	-0.086349	0.611569
H162	H	1.631964	-0.084088	0.624459
H163	H	1.726200	-0.064147	0.580720
H164	H	1.774070	-0.074608	0.638811
O165	O	1.403741	-0.956387	0.273084
C166	C	1.343658	-0.987183	0.298423
H167	H	1.340046	-1.020629	0.280020
H168	H	1.259772	-0.973667	0.303179
H169	H	1.382567	-0.992154	0.332560
H170	H	1.346356	-0.829306	0.297255
H171	H	1.104668	-0.292178	0.195975
H172	H	1.346250	-0.688550	0.297249
O173	O	1.335402	-0.599826	0.301768
C174	C	1.275327	-0.630619	0.327115
H175	H	1.271697	-0.664066	0.308714
H176	H	1.191448	-0.617100	0.331879
H177	H	1.314257	-0.635590	0.361248
H178	H	1.729591	-0.135696	0.688859
H179	H	1.346169	-0.297406	0.688849
H180	H	1.346297	-0.744199	0.297246
H181	H	1.346176	-0.297397	0.829596
H182	H	1.346169	-0.297401	0.744491
O183	O	1.403510	-0.273180	1.049040
C184	C	1.343404	-0.298545	1.018269
H185	H	1.339755	-0.280143	0.984824
H186	H	1.259533	-0.303335	1.031819
H187	H	1.382320	-0.332665	1.013282
O188	O	1.403749	-0.273239	0.384170
C189	C	1.464293	-0.302267	0.357045
H190	H	1.544992	-0.286429	0.350026
H191	H	1.420935	-0.308283	0.324047
H192	H	1.475910	-0.335561	0.375127
O193	O	1.672241	-0.159901	0.384303
C194	C	1.732375	-0.134551	0.415077
H195	H	1.688773	-0.132995	0.448517
H196	H	1.743795	-0.099155	0.401522
H197	H	1.813182	-0.151003	0.420075
H198	H	1.661495	-0.164443	0.473030
H199	H	1.729574	-0.135673	0.829618
O200	O	1.672236	-0.159851	0.956691
C201	C	1.732383	-0.134502	0.987461
H202	H	1.688794	-0.132948	1.020904
H203	H	1.743797	-0.099106	0.973907
H204	H	1.813192	-0.150955	0.992452
H205	H	1.346176	-0.297408	0.603731
