data_functionalizedCrystal
_audit_creation_method	'MofGen! by Chris Wilmer'
_symmetry_space_group_name_H-M	'P1'
_symmetry_Int_Tables_number	1
_symmetry_cell_setting	triclinic
loop_
_symmetry_equiv_pos_as_xyz
  x,y,z
_cell_length_a	16.120444
_cell_length_b	12.759401
_cell_length_c	12.759393
_cell_angle_alpha	90.021396
_cell_angle_beta	92.863572
_cell_angle_gamma	87.072596
loop_
_atom_site_label
_atom_site_type_symbol
_atom_site_fract_x
_atom_site_fract_y
_atom_site_fract_z
Zn1	Zn	-0.331839	-1.584965	-0.615232
Zn2	Zn	-0.471278	-1.575913	-0.448446
Zn3	Zn	-0.331885	-1.409264	-0.439565
Zn4	Zn	-0.471215	-1.400313	-0.624075
O5	O	-0.401554	-1.492614	-0.531829
O6	O	-0.350343	-1.730785	-0.593123
O7	O	-0.452832	-1.553764	-0.300250
O8	O	-0.215213	-1.440105	-0.455450
O9	O	-0.452788	-1.724134	-0.470587
O10	O	-0.215180	-1.569192	-0.584511
O11	O	-0.350421	-1.431328	-0.293725
O12	O	-0.350360	-1.261056	-0.464025
O13	O	-0.452681	-1.424850	-0.769920
O14	O	-0.452725	-1.254480	-0.599583
O15	O	-0.350283	-1.560513	-0.763423
O16	O	-0.587935	-1.545085	-0.479162
O17	O	-0.587889	-1.416073	-0.608195
C18	C	-0.401541	-1.219647	-0.531800
C19	C	-0.401556	-1.102870	-0.531814
C20	C	-0.618162	-1.478654	-0.545625
C21	C	-0.710828	-1.472778	-0.551562
C22	C	-0.454938	-1.044606	-0.602297
C23	C	-0.454940	-0.934882	-0.602315
C24	C	-0.348176	-0.941695	-0.461358
C25	C	-0.348170	-1.051417	-0.461345
C26	C	-0.921773	-1.523352	-0.501258
C27	C	-0.880484	-1.462070	-0.562412
C28	C	-0.786079	-1.468030	-0.556373
C29	C	-1.016187	-1.517394	-0.507295
C30	C	-0.184100	-1.506656	-0.518003
C31	C	-0.091434	-1.512641	-0.512111
C32	C	-0.401470	-1.492692	-0.805858
C33	C	-0.401434	-1.492726	-0.922632
C34	C	-0.401565	-0.766646	-0.531852
C35	C	-0.401564	-0.883423	-0.531844
C36	C	-0.348099	-1.428998	-0.974095
C37	C	-0.348073	-1.429024	-1.083818
C38	C	-0.454720	-1.556515	-1.090604
C39	C	-0.454750	-1.556483	-0.980884
C40	C	-0.401578	-1.492600	-0.258864
C41	C	-0.401379	-1.492785	-0.142075
H42	H	-0.498407	-1.086495	-0.659680
H43	H	-0.304643	-1.377130	-1.125714
H44	H	-0.498128	-1.608424	-1.138046
H45	H	-0.498185	-1.608380	-0.938982
Br46	Br	-0.275709	-1.130498	-0.365692
Br47	Br	-0.527387	-0.855813	-0.697980
Br48	Br	-0.939737	-1.367159	-0.657233
Br49	Br	-0.275727	-0.871860	-0.365726
Br50	Br	-0.862519	-1.618253	-0.406440
Br51	Br	-0.275744	-1.342470	-0.895042
