data_functionalizedCrystal
_audit_creation_method	'MofGen! by Chris Wilmer'
_symmetry_space_group_name_H-M	'P1'
_symmetry_Int_Tables_number	1
_symmetry_cell_setting	triclinic
loop_
_symmetry_equiv_pos_as_xyz
  x,y,z
_cell_length_a	31.640172
_cell_length_b	31.640172
_cell_length_c	27.440280
_cell_angle_alpha	59.998134
_cell_angle_beta	90.007773
_cell_angle_gamma	60.004780
loop_
_atom_site_label
_atom_site_type_symbol
_atom_site_fract_x
_atom_site_fract_y
_atom_site_fract_z
Zr1	Zr	0.407240	0.462539	-0.063887
O2	O	0.339756	0.550719	-0.141713
O3	O	0.427919	0.374368	-0.040030
O4	O	0.427922	0.462541	-0.141701
O5	O	0.339759	0.462541	0.040159
O6	O	0.497479	0.462532	-0.141690
O7	O	0.339752	0.462546	-0.040042
O8	O	0.497474	0.304807	0.040181
O9	O	0.339765	0.620266	-0.141713
O10	O	0.488658	0.410624	-0.029846
O11	O	0.436754	0.410627	0.029999
O12	O	0.436758	0.514439	-0.089706
O13	O	0.384853	0.514442	-0.029861
Zr14	Zr	0.518186	0.462517	0.064041
Zr15	Zr	0.518175	0.462525	-0.063870
Zr16	Zr	0.407251	0.462531	0.064024
Zr17	Zr	0.407255	0.573459	-0.063886
Zr18	Zr	0.518171	0.351597	0.064040
O19	O	0.497507	0.550688	0.040184
O20	O	0.497491	0.550699	-0.141689
O21	O	0.339771	0.550708	0.040160
O22	O	0.585671	0.374337	0.141868
O23	O	0.585655	0.374348	-0.040006
O24	O	0.427935	0.374357	0.141843
O25	O	0.585667	0.462515	-0.040004
O26	O	0.497504	0.462515	0.141855
O27	O	0.427947	0.462524	0.141845
O28	O	0.585674	0.462510	0.040196
O29	O	0.427944	0.620255	-0.141699
O30	O	0.497482	0.304801	0.141853
O31	O	0.585661	0.304789	0.141867
O32	O	0.585652	0.304796	0.040194
O33	O	0.339774	0.620260	-0.040040
O34	O	0.427953	0.620249	-0.040027
O35	O	0.488669	0.410617	0.089860
O36	O	0.540573	0.410614	0.030015
O37	O	0.488673	0.514429	-0.029845
O38	O	0.436768	0.514432	0.030000
C39	C	0.462694	0.323784	0.000075
C40	C	0.462688	0.276695	0.000075
C41	C	0.489817	-0.015348	-0.031156
C42	C	0.489828	-0.192344	-0.031156
O43	O	0.512889	-0.215250	-0.057701
N44	N	0.462734	-0.214472	0.000082
C45	C	0.435638	-0.192350	0.031324
O46	O	0.412597	-0.215237	0.057899
C47	C	0.435630	-0.015359	0.031327
C48	C	0.462722	0.006771	0.000083
C49	C	0.516907	0.006781	-0.062397
C50	C	0.516902	0.051029	-0.062400
C51	C	0.489807	0.073149	-0.031161
C52	C	0.462717	0.051020	0.000080
C53	C	0.408538	0.006759	0.062573
C54	C	0.408539	0.051009	0.062572
C55	C	0.435631	0.073138	0.031328
C56	C	0.435616	0.117388	0.031317
N57	N	0.462711	0.139515	0.000080
C58	C	0.489806	0.117396	-0.031159
C59	C	0.435643	-0.285273	0.031320
C60	C	0.435644	-0.329520	0.031318
C61	C	0.489835	-0.329511	-0.031161
C62	C	0.489830	-0.285261	-0.031163
C63	C	0.462737	-0.263145	0.000082
C64	C	0.489792	0.210321	-0.031162
C65	C	0.489783	0.254576	-0.031164
C66	C	0.435594	0.254561	0.031317
C67	C	0.435601	0.210313	0.031317
C68	C	0.462704	0.188193	0.000076
O69	O	0.412572	0.140316	0.057854
O70	O	0.512852	0.140280	-0.057719
C71	C	0.489822	-0.059597	-0.031153
C72	C	0.462732	-0.081726	0.000088
C73	C	0.435637	-0.059607	0.031327
C74	C	0.462733	-0.125973	0.000086
C75	C	0.489829	-0.148093	-0.031153
C76	C	0.516923	-0.125965	-0.062390
C77	C	0.516918	-0.081716	-0.062392
C78	C	0.408543	-0.081734	0.062564
C79	C	0.408550	-0.125982	0.062563
C80	C	0.435645	-0.148102	0.031324
C81	C	0.323950	0.462545	0.000056
C82	C	0.276855	0.462551	0.000049
C83	C	0.011940	0.408332	0.031335
C84	C	-0.165045	0.408321	0.031347
O85	O	-0.164890	0.362234	0.057943
N86	N	-0.214266	0.462511	0.000100
C87	C	-0.219240	0.516708	-0.031149
O88	O	-0.265167	0.562800	-0.057721
C89	C	-0.042256	0.516718	-0.031157
C90	C	0.006965	0.462524	0.000087
C91	C	0.061159	0.354143	0.062577
C92	C	0.105402	0.354146	0.062571
C93	C	0.100427	0.408338	0.031323
C94	C	0.051209	0.462527	0.000081
C95	C	-0.047230	0.570914	-0.062402
C96	C	-0.002979	0.570911	-0.062400
C97	C	0.046242	0.516718	-0.031156
C98	C	0.090477	0.516723	-0.031172
N99	N	0.139698	0.462533	0.000074
C100	C	0.144673	0.408340	0.031322
C101	C	-0.312158	0.516699	-0.031143
C102	C	-0.356404	0.516697	-0.031142
C103	C	-0.302205	0.408310	0.031355
C104	C	-0.257959	0.408313	0.031350
C105	C	-0.262936	0.462509	0.000104
C106	C	0.237585	0.408351	0.031307
C107	C	0.281830	0.408359	0.031296
C108	C	0.227628	0.516745	-0.031198
C109	C	0.183387	0.516738	-0.031190
C110	C	0.188369	0.462536	0.000067
O111	O	0.090361	0.562786	-0.057748
O112	O	0.190604	0.362255	0.057901
C113	C	-0.032303	0.408329	0.031341
C114	C	-0.081522	0.462518	0.000099
C115	C	-0.086497	0.516710	-0.031149
C116	C	-0.125768	0.462516	0.000100
C117	C	-0.120792	0.408323	0.031348
C118	C	-0.071571	0.354133	0.062595
C119	C	-0.027328	0.354136	0.062589
C120	C	-0.135718	0.570900	-0.062396
C121	C	-0.179959	0.570893	-0.062388
C122	C	-0.174984	0.516700	-0.031140
C123	C	0.601477	0.462510	0.000098
C124	C	0.648572	0.462504	0.000106
C125	C	0.462699	0.462538	-0.159920
C126	C	0.462695	0.462541	-0.214222
C127	C	0.462732	0.601272	0.000079
C128	C	0.462739	0.648361	0.000080
C129	C	0.424391	0.462524	-0.448915
C130	C	0.424389	0.462526	-0.397896
O131	O	0.391809	0.462510	-0.371500
N132	N	0.462706	0.462525	-0.372377
C133	C	0.501032	0.462518	-0.397876
O134	O	0.533624	0.462517	-0.371485
C135	C	0.501036	0.462512	-0.448893
C136	C	0.462713	0.462518	-0.474412
C137	C	0.386071	0.462530	-0.474435
C138	C	0.386073	0.462530	-0.525451
C139	C	0.424395	0.462524	-0.550949
C140	C	0.462715	0.462518	-0.525429
C141	C	0.539363	0.462500	-0.474389
C142	C	0.539364	0.462494	-0.525408
C143	C	0.501041	0.462500	-0.550928
C144	C	0.501038	0.462512	-0.601943
N145	N	0.462721	0.462512	-0.627462
C146	C	0.424399	0.462518	-0.601965
C147	C	0.501021	0.462528	-0.290738
C148	C	0.501015	0.462538	-0.239725
C149	C	0.424372	0.462545	-0.239748
C150	C	0.424376	0.462540	-0.290764
C151	C	0.462703	0.462529	-0.316257
C152	C	0.424406	0.462519	-0.709104
C153	C	0.424410	0.462521	-0.760127
C154	C	0.501054	0.462511	-0.760098
C155	C	0.501049	0.462511	-0.709082
C156	C	0.462722	0.462513	-0.683585
O157	O	0.533602	0.462525	-0.628370
O158	O	0.391816	0.462511	-0.628358
C159	C	0.462727	0.462518	0.160074
C160	C	0.462732	0.462515	0.214376
C161	C	0.601457	0.323766	0.000097
C162	C	0.648546	0.276672	0.000103
C163	C	0.462708	0.323774	0.160073
C164	C	0.462706	0.276682	0.214374
C165	C	0.601471	0.323756	0.160094
C166	C	0.648565	0.276659	0.214402
C167	C	0.323955	0.601299	-0.159940
C168	C	0.276862	0.648397	-0.214248
C169	C	0.323969	0.601290	0.000058
C170	C	0.276880	0.648384	0.000051
C171	C	0.462718	0.601282	-0.159918
C172	C	0.462720	0.648374	-0.214220
C173	C	0.643560	0.254561	-0.031146
C174	C	0.687801	0.210317	-0.031152
C175	C	0.737026	0.188181	0.000096
C176	C	0.742011	0.210296	0.031346
C177	C	0.697771	0.254543	0.031348
C178	C	0.489805	0.254562	0.271126
C179	C	0.489801	0.210320	0.322153
C180	C	0.462702	0.188197	0.316425
C181	C	0.435600	0.210321	0.259667
C182	C	0.435601	0.254565	0.208642
C183	C	0.697778	0.254539	0.208667
C184	C	0.742032	0.210292	0.259691
C185	C	0.737070	0.188162	0.316449
C186	C	0.687851	0.210285	0.322182
C187	C	0.643599	0.254535	0.271159
C188	C	0.227648	0.670522	-0.208513
C189	C	0.183395	0.714783	-0.259537
C190	C	0.188356	0.736915	-0.316294
C191	C	0.237575	0.714789	-0.322028
C192	C	0.281827	0.670532	-0.271005
C193	C	0.281866	0.670499	0.031295
C194	C	0.237626	0.714756	0.031286
C195	C	0.188400	0.736893	0.000037
C196	C	0.183415	0.714776	-0.031210
C197	C	0.227655	0.670523	-0.031205
C198	C	0.489824	0.670483	-0.208473
C199	C	0.489836	0.714725	-0.259490
C200	C	0.462740	0.736860	-0.316252
C201	C	0.435635	0.714746	-0.321998
C202	C	0.435627	0.670502	-0.270982
H203	H	0.538964	0.069043	-0.087839
H204	H	0.603482	0.272583	-0.056598
H205	H	0.065219	0.310010	0.088026
H206	H	0.152381	0.772926	0.000038
H207	H	0.143330	0.732807	-0.056652
H208	H	0.511872	0.192312	0.368363
C209	C	0.519615	0.278893	0.277441
N210	N	0.542066	0.297220	0.282202
C211	C	0.581526	0.462486	-0.446325
N212	N	0.613287	0.462473	-0.425186
C213	C	0.336010	0.646160	0.065670
N214	N	0.376791	0.627833	0.091560
H215	H	-0.217883	0.364184	0.056797
C216	C	-0.296740	0.348698	0.065731
N217	N	-0.292627	0.303801	0.091627
H218	H	0.354869	0.462533	-0.546225
H219	H	0.241694	0.732756	0.056734
C220	C	0.382221	0.462541	-0.318827
N221	N	0.350469	0.462539	-0.339961
C222	C	0.462712	0.139521	0.372561
N223	N	0.462723	0.102856	0.414844
C224	C	0.405853	0.739079	-0.384442
N225	N	0.383427	0.757402	-0.431477
C226	C	0.405800	0.646194	-0.277313
N227	N	0.383331	0.627889	-0.282086
C228	C	0.378774	-0.017613	0.096991
N229	N	0.356368	-0.035985	0.122933
C230	C	0.519589	0.278914	-0.065534
N231	N	0.542040	0.297242	-0.091420
H232	H	0.532254	0.462508	-0.780868
H233	H	0.393169	0.462549	-0.218978
C234	C	0.519643	-0.353854	-0.065520
N235	N	0.542097	-0.372195	-0.091394
H236	H	0.413537	0.192301	0.255012
C237	C	0.405796	0.278886	0.146215
N238	N	0.383345	0.297201	0.099196
C239	C	0.519602	0.186000	-0.065535
N240	N	0.542051	0.167686	-0.091428
C241	C	0.796168	0.185959	0.253371
N242	N	0.836941	0.167631	0.248608
H243	H	0.354865	0.462533	-0.453678
C244	C	0.546724	-0.057383	-0.096760
N245	N	0.569178	-0.039060	-0.122645
C246	C	0.519637	-0.260926	-0.065529
N247	N	0.542090	-0.242601	-0.091413
H248	H	0.538974	-0.011227	-0.087835
H249	H	0.393201	0.462528	-0.780904
C250	C	-0.317643	0.576323	-0.065527
N251	N	-0.321777	0.621233	-0.091429
H252	H	0.386475	0.069013	0.088015
H253	H	0.511889	0.652468	-0.162259
H254	H	0.393198	0.462519	-0.688349
C255	C	0.543203	0.462509	-0.681012
N256	N	0.574958	0.462502	-0.659870
H257	H	0.223598	0.652504	-0.162303
H258	H	0.603529	0.272539	0.275837
C259	C	0.222162	0.646194	-0.065570
N260	N	0.218021	0.627871	-0.091454
C261	C	0.243074	0.348726	0.065687
N262	N	0.247208	0.303816	0.091577
H263	H	0.701828	0.272551	0.162457
C264	C	0.139672	0.785595	-0.372416
N265	N	0.103001	0.822258	-0.414684
C266	C	-0.141201	0.630520	-0.096779
N267	N	-0.145334	0.675429	-0.122684
H268	H	0.683732	0.192316	-0.056599
C269	C	0.546729	-0.150306	-0.096751
N270	N	0.569180	-0.168645	-0.122628
C271	C	0.519652	0.739045	-0.253156
N272	N	0.542109	0.757362	-0.248385
H273	H	-0.396478	0.560827	-0.056592
C274	C	0.543170	0.462537	-0.211663
N275	N	0.574925	0.462532	-0.190526
C276	C	0.785687	0.139505	0.000092
N277	N	0.822336	0.102839	0.000090
H278	H	0.413532	0.272580	0.056749
C279	C	0.405844	-0.260961	0.065704
N280	N	0.383402	-0.242653	0.091606
C281	C	0.785755	0.139482	0.372570
N282	N	0.822425	0.102813	0.414839
C283	C	0.682402	0.185931	0.384622
N284	N	0.678300	0.167582	0.431652
H285	H	0.782097	0.192267	0.056786
C286	C	0.129259	0.739112	-0.253216
N287	N	0.088485	0.757436	-0.248454
H288	H	0.701838	0.272540	0.056798
C289	C	0.543184	0.462519	-0.318778
N290	N	0.574943	0.462511	-0.339894
C291	C	-0.008460	0.630533	-0.096776
N292	N	-0.012590	0.675440	-0.122671
H293	H	0.241609	0.732815	-0.368246
H294	H	0.413576	-0.347527	0.056753
C295	C	0.405778	0.185991	0.065663
N296	N	0.383313	0.167676	0.091530
C297	C	0.378763	-0.150338	0.096958
N298	N	0.356340	-0.168693	0.122876
C299	C	0.159542	0.294528	0.096948
N300	N	0.200319	0.249620	0.122845
C301	C	0.581527	0.462483	-0.553449
N302	N	0.613284	0.462477	-0.574569
H303	H	0.386480	-0.063730	0.088004
C304	C	0.129242	0.576353	-0.065562
N305	N	0.088462	0.621257	-0.091446
H306	H	0.321908	0.364226	0.056741
C307	C	0.026812	0.294518	0.096964
N308	N	0.067589	0.249611	0.122858
C309	C	0.462754	0.785531	-0.372366
N310	N	0.462765	0.822191	-0.414629
H311	H	0.321898	0.652518	-0.275682
H312	H	0.223586	0.560867	-0.056641
C313	C	-0.066107	0.294521	0.096969
N314	N	-0.061994	0.249624	0.122861
C315	C	-0.234101	0.630514	-0.096762
N316	N	-0.274879	0.675420	-0.122648
H317	H	-0.087301	0.615044	-0.087843
