data_functionalizedCrystal
_audit_creation_method	'MofGen! by Chris Wilmer'
_symmetry_space_group_name_H-M	'P1'
_symmetry_Int_Tables_number	1
_symmetry_cell_setting	triclinic
loop_
_symmetry_equiv_pos_as_xyz
  x,y,z
_cell_length_a	19.188905
_cell_length_b	27.731996
_cell_length_c	26.809956
_cell_angle_alpha	90.001656
_cell_angle_beta	90.015923
_cell_angle_gamma	82.877971
loop_
_atom_site_label
_atom_site_type_symbol
_atom_site_fract_x
_atom_site_fract_y
_atom_site_fract_z
O1	O	0.925761	0.060284	0.041568
O2	O	1.425761	0.560284	0.541568
O3	O	0.722393	0.068421	0.041552
O4	O	1.222393	0.568421	0.541552
O5	O	0.830412	-0.006027	0.041550
O6	O	1.330412	0.493973	0.541550
O7	O	0.817742	0.134732	0.041570
O8	O	1.317742	0.634732	0.541570
O9	O	0.830391	-0.006016	-0.041409
O10	O	1.330391	0.493984	0.458591
O11	O	0.722372	0.068432	-0.041407
O12	O	1.222372	0.568432	0.458593
O13	O	0.925740	0.060296	-0.041391
O14	O	1.425740	0.560296	0.458609
Zn15	Zn	0.824053	0.064366	-0.054571
Zn16	Zn	1.324053	0.564366	0.445429
Zn17	Zn	0.824080	0.064351	0.054732
Zn18	Zn	1.324080	0.564351	0.554732
O19	O	0.817721	0.134744	-0.041389
O20	O	1.317721	0.634744	0.458611
C21	C	0.696373	0.068165	0.000070
C22	C	1.196373	0.568165	0.500070
C23	C	0.618873	0.067380	0.000064
C24	C	1.118873	0.567380	0.500064
C25	C	0.582495	0.066997	0.045286
C26	C	1.082495	0.566997	0.545286
C27	C	0.509676	0.066254	0.045292
C28	C	1.009676	0.566254	0.545292
C29	C	0.473240	0.065885	0.000073
C30	C	0.973240	0.565885	0.500073
C31	C	0.509627	0.066271	-0.045155
C32	C	1.009627	0.566271	0.454845
C33	C	0.582443	0.067018	-0.045160
C34	C	1.082443	0.567018	0.454840
N35	N	0.364402	0.037207	-0.033583
N36	N	0.864402	0.537207	0.466417
N37	N	0.295230	0.036496	-0.033575
N38	N	0.795230	0.536496	0.466425
C39	C	0.253849	0.063633	0.000085
C40	C	0.753849	0.563633	0.500085
N41	N	0.284254	0.091502	0.033745
N42	N	0.784254	0.591502	0.533745
N43	N	0.353433	0.092211	0.033739
N44	N	0.853433	0.592211	0.533739
C45	C	0.394283	0.065074	0.000073
C46	C	0.894283	0.565074	0.500073
C47	C	0.138512	0.062445	0.045317
C48	C	0.638512	0.562445	0.545317
C49	C	0.065691	0.061705	0.045321
C50	C	0.565691	0.561705	0.545321
C51	C	0.065644	0.061717	-0.045127
C52	C	0.565644	0.561717	0.454873
C53	C	0.138462	0.062461	-0.045130
C54	C	0.638462	0.562461	0.454870
C55	C	0.174892	0.062823	0.000093
C56	C	0.674892	0.562823	0.500093
C57	C	0.830141	-0.024029	0.000068
C58	C	1.330141	0.475971	0.500068
C59	C	0.829357	-0.077688	0.000063
C60	C	1.329357	0.422312	0.500063
C61	C	0.824436	-0.410425	0.045308
C62	C	1.324436	0.089575	0.545308
C63	C	0.821459	-0.612092	0.045317
C64	C	1.321459	-0.112092	0.545317
O65	O	0.821054	-0.638170	0.083776
O66	O	1.321054	-0.138170	0.583776
N67	N	0.821078	-0.637305	0.000096
N68	N	1.321078	-0.137305	0.500096
C69	C	0.821437	-0.612096	-0.045130
C70	C	1.321437	-0.112096	0.454870
O71	O	0.821038	-0.638167	-0.083593
O72	O	1.321038	-0.138167	0.416407
C73	C	0.824409	-0.410430	-0.045138
C74	C	1.324409	0.089570	0.454862
C75	C	0.824797	-0.385221	0.000086
C76	C	1.324797	0.114779	0.500086
C77	C	0.824823	-0.385216	0.090528
C78	C	1.324823	0.114784	0.590528
C79	C	0.825571	-0.334803	0.090526
C80	C	1.325571	0.165197	0.590526
C81	C	0.825932	-0.309599	0.045303
C82	C	1.325932	0.190401	0.545303
C83	C	0.825545	-0.334807	0.000083
C84	C	1.325545	0.165193	0.500083
C85	C	0.824763	-0.385222	-0.090363
C86	C	1.324763	0.114778	0.409637
C87	C	0.825504	-0.334802	-0.090361
C88	C	1.325504	0.165198	0.409639
C89	C	0.825892	-0.309593	-0.045138
C90	C	1.325892	0.190407	0.454862
C91	C	0.826654	-0.259189	-0.045142
C92	C	1.326654	0.240811	0.454858
N93	N	0.827035	-0.233977	0.000079
N94	N	1.327035	0.266023	0.500079
C95	C	0.826674	-0.259182	0.045301
C96	C	1.326674	0.240818	0.545301
C97	C	0.819878	-0.717974	-0.045122
C98	C	1.319878	-0.217974	0.454878
C99	C	0.819137	-0.768391	-0.045121
C100	C	1.319137	-0.268391	0.454879
C101	C	0.819157	-0.768383	0.045326
C102	C	1.319157	-0.268383	0.545326
C103	C	0.819904	-0.717966	0.045324
C104	C	1.319904	-0.217966	0.545324
C105	C	0.820259	-0.692762	0.000098
C106	C	1.320259	-0.192762	0.500098
C107	C	0.828246	-0.153310	0.045292
C108	C	1.328246	0.346690	0.545292
C109	C	0.828997	-0.102893	0.045286
C110	C	1.328997	0.397107	0.545286
C111	C	0.828972	-0.102904	-0.045161
C112	C	1.328972	0.397096	0.454839
C113	C	0.828225	-0.153318	-0.045154
C114	C	1.328225	0.346682	0.454846
C115	C	0.827859	-0.178519	0.000076
C116	C	1.327859	0.321481	0.500076
O117	O	0.827052	-0.233081	-0.083581
O118	O	1.327052	0.266919	0.416419
O119	O	0.827058	-0.233101	0.083758
O120	O	1.327058	0.266899	0.583758
C121	C	0.823688	-0.460839	0.045311
C122	C	1.323688	0.039161	0.545311
C123	C	0.823301	-0.486048	0.000091
C124	C	1.323301	0.013952	0.500091
C125	C	0.823662	-0.460843	-0.045132
C126	C	1.323662	0.039157	0.454868
C127	C	0.822559	-0.536464	0.000093
C128	C	1.322559	-0.036464	0.500093
C129	C	0.822198	-0.561669	0.045315
C130	C	1.322198	-0.061669	0.545315
C131	C	0.822579	-0.536457	0.090536
C132	C	1.322579	-0.036457	0.590536
C133	C	0.823327	-0.486043	0.090534
C134	C	1.323327	0.013957	0.590534
C135	C	0.823281	-0.486055	-0.090352
C136	C	1.323281	0.013945	0.409648
C137	C	0.822534	-0.536469	-0.090346
C138	C	1.322534	-0.036469	0.409654
C139	C	0.822173	-0.561673	-0.045123
C140	C	1.322173	-0.061673	0.454877
C141	C	0.951760	0.060551	0.000092
C142	C	1.451760	0.560551	0.500092
C143	C	1.029260	0.061336	0.000102
C144	C	1.529260	0.561336	0.500102
C145	C	0.817992	0.152746	0.000094
C146	C	1.317992	0.652746	0.500094
C147	C	0.818776	0.206405	0.000102
C148	C	1.318776	0.706405	0.500102
N149	N	0.824040	0.064376	-0.129167
N150	N	1.324040	0.564376	0.370833
C151	C	0.871905	0.031393	-0.473794
C152	C	1.371905	0.531393	0.026206
C153	C	0.871921	0.031386	-0.682671
C154	C	1.371921	0.531386	-0.182671
O155	O	0.912589	0.003346	-0.709676
O156	O	1.412589	0.503346	-0.209676
N157	N	0.824084	0.064340	-0.708794
N158	N	1.324084	0.564340	-0.208794
C159	C	0.776236	0.097296	-0.682694
C160	C	1.276236	0.597296	-0.182694
O161	O	0.735543	0.125322	-0.709705
O162	O	1.235543	0.625322	-0.209705
C163	C	0.776217	0.097301	-0.473817
C164	C	1.276217	0.597301	0.026183
C165	C	0.824062	0.064348	-0.447697
C166	C	1.324062	0.564348	0.052303
C167	C	0.919745	-0.001557	-0.447674
C168	C	1.419745	0.498443	0.052326
C169	C	0.919743	-0.001553	-0.395458
C170	C	1.419743	0.498447	0.104542
C171	C	0.871900	0.031401	-0.369361
C172	C	1.371900	0.531401	0.130639
C173	C	0.824060	0.064352	-0.395481
C174	C	1.324060	0.564352	0.104519
C175	C	0.728366	0.130255	-0.447718
C176	C	1.228366	0.630255	0.052282
C177	C	0.728364	0.130252	-0.395495
C178	C	1.228364	0.630252	0.104505
C179	C	0.776209	0.097299	-0.369375
C180	C	1.276209	0.597299	0.130625
C181	C	0.776215	0.097311	-0.317168
C182	C	1.276215	0.597311	0.182832
N183	N	0.824052	0.064356	-0.291046
N184	N	1.324052	0.564356	0.208954
C185	C	0.871895	0.031402	-0.317142
C186	C	1.371895	0.531402	0.182858
C187	C	0.776250	0.097292	-0.792357
C188	C	1.276250	0.597292	-0.292357
C189	C	0.776256	0.097292	-0.844576
C190	C	1.276256	0.597292	-0.344576
C191	C	0.871941	0.031381	-0.844550
C192	C	1.371941	0.531381	-0.344550
C193	C	0.871938	0.031384	-0.792330
C194	C	1.371938	0.531384	-0.292330
C195	C	0.824088	0.064338	-0.766234
C196	C	1.324088	0.564338	-0.266234
C197	C	0.871887	0.031413	-0.207484
C198	C	1.371887	0.531413	0.292516
C199	C	0.871883	0.031421	-0.155263
C200	C	1.371883	0.531421	0.344737
C201	C	0.776196	0.097330	-0.155294
C202	C	1.276196	0.597330	0.344706
C203	C	0.776203	0.097324	-0.207510
C204	C	1.276203	0.597324	0.292490
C205	C	0.824051	0.064361	-0.233604
C206	C	1.324051	0.564361	0.266396
O207	O	0.735563	0.125332	-0.290131
O208	O	1.235563	0.625332	0.209869
O209	O	0.912572	0.003373	-0.290122
O210	O	1.412572	0.503373	0.209878
C211	C	0.871907	0.031389	-0.526010
C212	C	1.371907	0.531389	-0.026010
C213	C	0.824066	0.064340	-0.552130
C214	C	1.324066	0.564340	-0.052130
C215	C	0.776223	0.097295	-0.526033
C216	C	1.276223	0.597295	-0.026033
C217	C	0.824071	0.064340	-0.604349
C218	C	1.324071	0.564340	-0.104349
C219	C	0.871914	0.031385	-0.630445
C220	C	1.371914	0.531385	-0.130445
C221	C	0.919752	-0.001569	-0.604323
C222	C	1.419752	0.498431	-0.104323
C223	C	0.919750	-0.001565	-0.552107
C224	C	1.419750	0.498435	-0.052107
C225	C	0.728386	0.130249	-0.552156
C226	C	1.228386	0.630249	-0.052156
C227	C	0.728392	0.130243	-0.604372
C228	C	1.228392	0.630243	-0.104372
C229	C	0.776235	0.097288	-0.630468
C230	C	1.276235	0.597288	-0.130468
N231	N	0.824099	0.064337	0.129328
N232	N	1.324099	0.564337	0.629328
H233	H	0.827944	-0.173823	0.082124
H234	H	1.327944	0.326177	0.582124
H235	H	0.036073	0.061396	0.082148
H236	H	0.536073	0.561396	0.582148
H237	H	0.035978	0.061419	-0.081945
H238	H	0.535978	0.561419	0.418055
O239	O	0.971345	-0.037101	-0.367292
O240	O	1.471345	0.462899	0.132708
H241	H	0.963316	-0.031567	-0.326595
H242	H	1.463316	0.468433	0.173405
O243	O	0.829363	-0.075711	-0.093933
O244	O	1.329363	0.424289	0.406067
H245	H	0.828974	-0.101708	-0.125382
H246	H	1.328974	0.398292	0.374618
H247	H	0.737303	0.124130	-0.865839
H248	H	1.237303	0.624130	-0.365839
O249	O	0.676779	0.165798	-0.524017
O250	O	1.176779	0.665798	-0.024017
H251	H	0.643061	0.145516	-0.500236
H252	H	1.143061	0.645516	-0.000236
H253	H	0.168083	0.062770	-0.081955
H254	H	0.668083	0.562770	0.418045
H255	H	0.958705	-0.028395	-0.468917
H256	H	1.458705	0.471605	0.031083
O257	O	0.825897	-0.307619	-0.139143
O258	O	1.325897	0.192381	0.360857
H259	H	0.778145	-0.312885	-0.160832
H260	H	1.278145	0.187115	0.339168
O261	O	0.923485	-0.004130	-0.127096
O262	O	1.423485	0.495870	0.372904
H263	H	0.894350	-0.027567	-0.103311
H264	H	1.394350	0.472433	0.396689
O265	O	0.470443	0.065931	-0.093978
O266	O	0.970443	0.565931	0.406022
H267	H	0.477921	0.099043	-0.115582
H268	H	0.977921	0.599043	0.384418
O269	O	0.923504	-0.004134	-0.235622
O270	O	1.423504	0.495866	0.264378
H271	H	0.915038	-0.041801	-0.225595
H272	H	1.415038	0.458199	0.274405
O273	O	0.824418	-0.412391	0.139311
O274	O	1.324418	0.087609	0.639311
H275	H	0.872172	-0.407126	0.161000
H276	H	1.372172	0.092874	0.661000
H277	H	0.818831	-0.788913	-0.081946
H278	H	1.318831	-0.288913	0.418054
O279	O	0.823683	-0.458874	-0.139130
O280	O	1.323683	0.041126	0.360870
H281	H	0.823301	-0.484881	-0.170570
H282	H	1.323301	0.015119	0.329430
O283	O	0.724644	0.132842	-0.764213
O284	O	1.224644	0.632842	-0.264213
H285	H	0.691391	0.155757	-0.791155
H286	H	1.191391	0.655757	-0.291155
O287	O	0.724595	0.132865	-0.127132
O288	O	1.224595	0.632865	0.372868
H289	H	0.733062	0.170537	-0.137140
H290	H	1.233062	0.670537	0.362860
H291	H	0.958710	-0.028399	-0.530844
H292	H	1.458710	0.471601	-0.030844
O293	O	0.923545	-0.004167	-0.872698
O294	O	1.423545	0.495833	-0.372698
H295	H	0.894412	-0.027608	-0.896493
H296	H	1.394412	0.472392	-0.396493
O297	O	0.829405	-0.075701	0.094064
O298	O	1.329405	0.424299	0.594064
H299	H	0.829018	-0.101700	0.125509
H300	H	1.329018	0.398300	0.625509
O301	O	0.923534	-0.004162	-0.764159
O302	O	1.423534	0.495838	-0.264159
H303	H	0.956797	-0.027078	-0.791083
H304	H	1.456797	0.472922	-0.291083
H305	H	0.822289	-0.556987	0.127358
H306	H	1.322289	-0.056987	0.627358
O307	O	0.621787	0.067394	0.094060
O308	O	1.121787	0.567394	0.594060
H309	H	0.584252	0.067007	0.125507
H310	H	1.084252	0.567007	0.625507
H311	H	0.689406	0.157088	-0.468977
H312	H	1.189406	0.657088	0.031023
O313	O	0.470427	0.065831	0.094069
O314	O	0.970427	0.565831	0.594069
H315	H	0.507994	0.066203	0.125514
H316	H	1.007994	0.566203	0.625514
O317	O	0.621685	0.067438	-0.093937
O318	O	1.121685	0.567438	0.406063
H319	H	0.584119	0.067058	-0.125381
H320	H	1.084119	0.567058	0.374619
H321	H	0.168174	0.062744	0.082141
H322	H	0.668174	0.562744	0.582141
H323	H	0.820219	-0.697445	0.082149
H324	H	1.320219	-0.197445	0.582149
H325	H	0.689396	0.157087	-0.374250
H326	H	1.189396	0.657087	0.125750
H327	H	0.737249	0.124162	-0.228777
H328	H	1.237249	0.624162	0.271223
O329	O	0.971354	-0.037116	-0.632474
O330	O	1.471354	0.462884	-0.132474
H331	H	0.963308	-0.031581	-0.673172
H332	H	1.463308	0.468419	-0.173172
O333	O	0.676803	0.165800	-0.632542
O334	O	1.176803	0.665800	-0.132542
H335	H	0.643540	0.188716	-0.605618
H336	H	1.143540	0.688716	-0.105618
O337	O	0.825971	-0.307614	0.139303
O338	O	1.325971	0.192386	0.639303
H339	H	0.825584	-0.333616	0.170745
H340	H	1.325584	0.166384	0.670745
O341	O	0.818759	-0.795571	0.094104
O342	O	1.318759	-0.295571	0.594104
H343	H	0.818171	-0.834862	0.086503
H344	H	1.318171	-0.334862	0.586503
H345	H	0.820171	-0.697458	-0.081953
H346	H	1.320171	-0.197458	0.418047
O347	O	0.824342	-0.412404	-0.139141
O348	O	1.324342	0.087596	0.360859
H349	H	0.776865	-0.398311	-0.160821
H350	H	1.276865	0.101689	0.339179
O351	O	0.827809	-0.180512	-0.093929
O352	O	1.327809	0.319488	0.406071
H353	H	0.828182	-0.154513	-0.125375
H354	H	1.328182	0.345487	0.374625
O355	O	0.823733	-0.458855	0.139310
O356	O	1.323733	0.041145	0.639310
H357	H	0.823348	-0.484857	0.170752
H358	H	1.323348	0.015143	0.670752
O359	O	0.822114	-0.563657	-0.139126
O360	O	1.322114	-0.063657	0.360874
H361	H	0.822483	-0.537655	-0.170570
H362	H	1.322483	-0.037655	0.329430
