data_functionalizedCrystal
_audit_creation_method	'MofGen! by Chris Wilmer'
_symmetry_space_group_name_H-M	'P1'
_symmetry_Int_Tables_number	1
_symmetry_cell_setting	triclinic
loop_
_symmetry_equiv_pos_as_xyz
  x,y,z
_cell_length_a	16.120530
_cell_length_b	16.120484
_cell_length_c	16.120256
_cell_angle_alpha	95.616173
_cell_angle_beta	90.128265
_cell_angle_gamma	90.167327
loop_
_atom_site_label
_atom_site_type_symbol
_atom_site_fract_x
_atom_site_fract_y
_atom_site_fract_z
Zn1	Zn	1.224986	-0.422281	-0.554816
Zn2	Zn	1.724986	0.077719	-0.054816
Zn3	Zn	1.224882	-0.554961	-0.422121
Zn4	Zn	1.724882	-0.054961	0.077879
Zn5	Zn	1.093725	-0.408193	-0.408058
Zn6	Zn	1.593725	0.091807	0.091942
Zn7	Zn	1.078879	-0.554198	-0.554054
Zn8	Zn	1.578879	-0.054198	-0.054054
O9	O	1.155618	-0.484908	-0.484762
O10	O	1.655618	0.015092	0.015238
O11	O	1.341008	-0.446097	-0.543418
O12	O	1.841008	0.053903	-0.043418
O13	O	1.213653	-0.529915	-0.303622
O14	O	1.713653	-0.029915	0.196378
O15	O	1.117394	-0.293431	-0.421960
O16	O	1.617394	0.206569	0.078040
O17	O	1.340931	-0.543577	-0.445927
O18	O	1.840931	-0.043577	0.054073
O19	O	1.213831	-0.303782	-0.529783
O20	O	1.713831	0.196218	-0.029783
O21	O	1.117293	-0.422085	-0.293290
O22	O	1.617293	0.077915	0.206710
O23	O	0.975720	-0.421345	-0.421221
O24	O	1.475720	0.078655	0.078779
O25	O	1.092090	-0.542275	-0.670788
O26	O	1.592090	-0.042275	-0.170788
O27	O	0.964812	-0.528614	-0.528483
O28	O	1.464812	-0.028614	-0.028483
O29	O	1.199435	-0.445357	-0.671349
O30	O	1.699435	0.054643	-0.171349
O31	O	1.199257	-0.671491	-0.445188
O32	O	1.699257	-0.171491	0.054812
O33	O	1.091989	-0.670930	-0.542119
O34	O	1.591989	-0.170930	-0.042119
C35	C	0.940179	-0.473368	-0.473243
C36	C	1.440179	0.026632	0.026757
C37	C	0.848012	-0.468453	-0.468336
C38	C	1.348012	0.031547	0.031664
C39	C	0.679260	-0.459459	-0.459384
C40	C	1.179260	0.040541	0.040616
C41	C	0.632809	-0.510422	-0.510204
C42	C	1.132809	-0.010422	-0.010204
C43	C	0.538910	-0.505418	-0.505223
C44	C	1.038910	-0.005418	-0.005223
C45	C	0.773168	-0.464462	-0.464364
C46	C	1.273168	0.035538	0.035636
C47	C	1.144022	-0.701453	-0.495116
C48	C	1.644022	-0.201453	0.004884
C49	C	1.139136	-0.794098	-0.499577
C50	C	1.639136	-0.294098	0.000423
C51	C	1.130219	-0.963721	-0.507739
C52	C	1.630219	-0.463721	-0.007739
C53	C	1.181165	-1.005263	-0.461807
C54	C	1.681165	-0.505263	0.038193
C55	C	1.176203	-1.099648	-0.466348
C56	C	1.676203	-0.599648	0.033652
C57	C	1.135179	-0.869328	-0.503199
C58	C	1.635179	-0.369328	-0.003199
C59	C	1.371898	-0.496494	-0.496326
C60	C	1.871898	0.003506	0.003674
C61	C	1.464063	-0.501431	-0.501254
C62	C	1.964063	-0.001431	-0.001254
C63	C	1.144118	-0.495303	-0.702156
C64	C	1.644118	0.004697	-0.202156
C65	C	1.139217	-0.499732	-0.794796
C66	C	1.639217	0.000268	-0.294796
C67	C	1.167280	-0.267520	-0.474388
C68	C	1.667280	0.232480	0.025612
C69	C	1.172250	-0.174881	-0.469967
C70	C	1.672250	0.325119	0.030033
C71	C	1.181174	-0.461788	-1.005960
C72	C	1.681174	0.038212	-0.505960
C73	C	1.130244	-0.507783	-0.964402
C74	C	1.630244	-0.007783	-0.464402
C75	C	1.135238	-0.503302	-0.870024
C76	C	1.635238	-0.003302	-0.370024
C77	C	1.176181	-0.466268	-1.100346
C78	C	1.676181	0.033732	-0.600346
C79	C	1.167124	-0.474497	-0.268214
C80	C	1.667124	0.025503	0.231786
C81	C	1.172198	-0.469841	-0.175572
C82	C	1.672198	0.030159	0.324428
H83	H	1.228507	-0.969944	-0.419071
H84	H	1.728507	-0.469944	0.080929
N85	N	0.673531	-0.573209	-0.572786
N86	N	1.173531	-0.073209	-0.072786
H87	H	0.656066	-0.562430	-0.630967
H88	H	1.156066	-0.062430	-0.130967
H89	H	0.735800	-0.567907	-0.567446
H90	H	1.235800	-0.067907	-0.067446
N91	N	1.067508	-1.010496	-0.564341
N92	N	1.567508	-0.510496	-0.064341
H93	H	1.072809	-1.072267	-0.559597
H94	H	1.572809	-0.572267	-0.059597
H95	H	1.009766	-0.991602	-0.547435
H96	H	1.509766	-0.491602	-0.047435
H97	H	0.648510	-0.412073	-0.412137
H98	H	1.148510	0.087927	0.087863
N99	N	1.067518	-0.564404	-1.011153
N100	N	1.567518	-0.064404	-0.511153
H101	H	1.072797	-0.559622	-1.072924
H102	H	1.572797	-0.059622	-0.572924
H103	H	1.078022	-0.623913	-0.999534
H104	H	1.578022	-0.123913	-0.499534
N105	N	1.243917	-0.405195	-0.959212
N106	N	1.743917	0.094805	-0.459212
H107	H	1.238643	-0.409992	-0.897443
H108	H	1.738643	0.090008	-0.397443
H109	H	1.301643	-0.422073	-0.978184
H110	H	1.801643	0.077927	-0.478184
