data_functionalizedCrystal
_audit_creation_method	'MofGen! by Chris Wilmer'
_symmetry_space_group_name_H-M	'P1'
_symmetry_Int_Tables_number	1
_symmetry_cell_setting	triclinic
loop_
_symmetry_equiv_pos_as_xyz
  x,y,z
_cell_length_a	15.072220
_cell_length_b	19.288864
_cell_length_c	19.288865
_cell_angle_alpha	83.136245
_cell_angle_beta	89.993617
_cell_angle_gamma	89.973672
loop_
_atom_site_label
_atom_site_type_symbol
_atom_site_fract_x
_atom_site_fract_y
_atom_site_fract_z
O1	O	0.074077	-0.921357	-0.086643
O2	O	0.574077	-0.421357	0.413357
O3	O	0.074018	-0.719096	-0.098332
O4	O	0.574018	-0.219096	0.401668
O5	O	0.074032	-0.826071	0.008643
O6	O	0.574032	-0.326071	0.508643
O7	O	0.074063	-0.814382	-0.193618
O8	O	0.574063	-0.314382	0.306382
O9	O	-0.073534	-0.826045	0.008637
O10	O	0.426466	-0.326045	0.508637
O11	O	-0.073547	-0.719070	-0.098338
O12	O	0.426453	-0.219070	0.401662
O13	O	-0.073488	-0.921331	-0.086649
O14	O	0.426512	-0.421331	0.413351
Zn15	Zn	-0.096947	-0.820196	-0.092494
Zn16	Zn	0.403053	-0.320196	0.407506
Zn17	Zn	0.097477	-0.820231	-0.092486
Zn18	Zn	0.597477	-0.320231	0.407514
O19	O	-0.073502	-0.814356	-0.193624
O20	O	0.426498	-0.314356	0.306376
C21	C	0.000227	-0.693207	-0.097959
C22	C	0.500227	-0.193207	0.402041
C23	C	0.000204	-0.616103	-0.096830
C24	C	0.500204	-0.116103	0.403170
N25	N	-0.229636	-0.820177	-0.092499
N26	N	0.270364	-0.320177	0.407501
C27	C	0.000246	-0.825682	0.034516
C28	C	0.500246	-0.325682	0.534516
C29	C	0.000238	-0.824553	0.111620
C30	C	0.500238	-0.324553	0.611620
C31	C	-0.588837	-0.820229	-0.092484
C32	C	-0.088837	-0.320229	0.407516
C33	C	-0.551238	-0.762798	-0.149533
C34	C	-0.051238	-0.262798	0.350467
C35	C	-0.448412	-0.762929	-0.149740
C36	C	0.051588	-0.262929	0.350260
C37	C	-0.410633	-0.820203	-0.092492
C38	C	0.089367	-0.320203	0.407508
C39	C	-0.447900	-0.892628	-0.108094
C40	C	0.052100	-0.392628	0.391906
C41	C	-0.550758	-0.892306	-0.108499
C42	C	-0.050758	-0.392306	0.391501
C43	C	-0.550954	-0.805882	-0.019661
C44	C	-0.050954	-0.305882	0.480339
C45	C	-0.448091	-0.804218	-0.020152
C46	C	0.051909	-0.304218	0.479848
C47	C	-0.309920	-0.820193	-0.092494
C48	C	0.190080	-0.320193	0.407506
C49	C	-0.689550	-0.820245	-0.092482
C50	C	-0.189550	-0.320245	0.407518
N51	N	0.230165	-0.820255	-0.092476
N52	N	0.730165	-0.320255	0.407524
C53	C	0.000304	-0.947220	-0.087022
C54	C	0.500304	-0.447220	0.412978
C55	C	0.000334	-1.024324	-0.088151
C56	C	0.500334	-0.524324	0.411849
C57	C	0.000228	-0.571407	-0.159598
C58	C	0.500228	-0.071407	0.340402
C59	C	0.000237	-0.498960	-0.158537
C60	C	0.500237	0.001040	0.341463
C61	C	0.000241	-0.471212	-0.094705
C62	C	0.500241	0.028788	0.405295
C63	C	0.000212	-0.515918	-0.031929
C64	C	0.500212	-0.015918	0.468071
C65	C	0.000194	-0.588364	-0.032991
C66	C	0.500194	-0.088364	0.467009
C67	C	0.051962	-0.362959	-0.044523
C68	C	0.551962	0.137041	0.455477
C69	C	0.051986	-0.290515	-0.043464
C70	C	0.551986	0.209485	0.456536
C71	C	0.000294	-0.247767	-0.091425
C72	C	0.500294	0.252233	0.408575
C73	C	-0.051410	-0.277470	-0.140458
C74	C	0.448590	0.222530	0.359542
C75	C	-0.051428	-0.349915	-0.141521
C76	C	0.448572	0.150085	0.358479
C77	C	0.000261	-0.392658	-0.093546
C78	C	0.500261	0.107342	0.406454
C79	C	0.000327	-0.124514	-0.153047
C80	C	0.500327	0.375486	0.346953
C81	C	0.000331	-0.052066	-0.151984
C82	C	0.500331	0.447934	0.348016
C83	C	0.000315	-0.069026	-0.025374
C84	C	0.500315	0.430974	0.474626
C85	C	0.000302	-0.141473	-0.026439
C86	C	0.500302	0.358527	0.473561
C87	C	0.000312	-0.169212	-0.090278
C88	C	0.500312	0.330788	0.409722
C89	C	0.000285	-0.814745	-0.219497
C90	C	0.500285	-0.314745	0.280503
C91	C	0.000299	-0.815874	-0.296601
C92	C	0.500299	-0.315874	0.203399
C93	C	0.000252	-0.887321	0.156316
C94	C	0.500252	-0.387321	0.656316
C95	C	0.000266	-0.886260	0.228763
C96	C	0.500266	-0.386260	0.728763
C97	C	0.000248	-0.822428	0.256511
C98	C	0.500248	-0.322428	0.756511
C99	C	0.000239	-0.759652	0.211805
C100	C	0.500239	-0.259652	0.711805
C101	C	0.000234	-0.760714	0.139359
C102	C	0.500234	-0.260714	0.639359
C103	C	-0.051456	-0.772239	0.364796
C104	C	0.448544	-0.272239	0.864796
C105	C	-0.051456	-0.771179	0.437241
C106	C	0.448544	-0.271179	0.937241
C107	C	0.000267	-0.819148	0.479956
C108	C	0.500267	-0.319148	0.979956
C109	C	0.051979	-0.868189	0.450220
C110	C	0.551979	-0.368189	0.950220
C111	C	0.051974	-0.869251	0.377775
C112	C	0.551974	-0.369251	0.877775
C113	C	0.000254	-0.821269	0.335065
C114	C	0.500254	-0.321269	0.835065
C115	C	0.000297	-0.880770	0.603209
C116	C	0.500297	-0.380770	1.103209
C117	C	0.000316	-0.879707	0.675657
C118	C	0.500316	-0.379707	1.175657
C119	C	0.000280	-0.753097	0.658697
C120	C	0.500280	-0.253097	1.158697
C121	C	0.000270	-0.754162	0.586250
C122	C	0.500270	-0.254162	1.086250
C123	C	0.000274	-0.818001	0.558511
C124	C	0.500274	-0.318001	1.058511
H125	H	-0.423219	-0.709087	-0.140478
H126	H	0.076781	-0.209087	0.359522
Cl127	Cl	0.000212	-0.481037	0.048318
Cl128	Cl	0.500212	0.018963	0.548318
H129	H	0.000346	-0.015674	-0.203099
H130	H	0.500346	0.484326	0.296901
H131	H	-0.577064	-0.771809	-0.203274
H132	H	-0.077064	-0.271809	0.296726
H133	H	0.000304	-0.932751	0.580622
H134	H	0.500304	-0.432751	1.080622
H135	H	-0.574726	-0.904983	-0.161601
H136	H	-0.074726	-0.404983	0.338399
Cl137	Cl	-0.410117	-0.960174	-0.045634
Cl138	Cl	0.089883	-0.460174	0.454366
H139	H	0.000175	-0.624756	0.018124
H140	H	0.500175	-0.124756	0.518124
H141	H	0.000259	-0.939303	0.133736
H142	H	0.500259	-0.439303	0.633736
H143	H	0.000254	-0.462561	-0.209652
H144	H	0.500254	0.037439	0.290348
H145	H	0.000332	-0.930822	0.712049
H146	H	0.500332	-0.430822	1.212049
H147	H	0.000323	-0.147101	-0.205028
H148	H	0.500323	0.352899	0.294972
Cl149	Cl	0.000278	-0.197666	0.052474
Cl150	Cl	0.500278	0.302334	0.552474
H151	H	0.000222	-0.709599	0.102967
H152	H	0.500222	-0.209599	0.602967
Cl153	Cl	0.116993	-0.253180	0.018171
Cl154	Cl	0.616993	0.246820	0.518171
Cl155	Cl	0.000237	-0.606275	-0.239852
Cl156	Cl	0.500237	-0.106275	0.260148
H157	H	0.094082	-0.909180	0.353567
H158	H	0.594082	-0.409180	0.853567
H159	H	-0.576963	-0.754230	-0.004602
H160	H	-0.076963	-0.254230	0.495398
Cl161	Cl	0.000262	-0.672850	0.693572
Cl162	Cl	0.500262	-0.172850	1.193572
Cl163	Cl	-0.410384	-0.777009	-0.233190
Cl164	Cl	0.089616	-0.277009	0.266810
H165	H	-0.093580	-0.733175	0.330022
H166	H	0.406420	-0.233175	0.830022
Cl167	Cl	-0.116428	-0.387256	-0.203156
Cl168	Cl	0.383572	0.112744	0.296844
Cl169	Cl	0.000309	-0.034151	0.054873
Cl170	Cl	0.500309	0.465849	0.554873
H171	H	0.000253	-0.703049	0.549857
H172	H	0.500253	-0.203049	1.049857
H173	H	-0.423738	-0.750943	-0.008306
H174	H	0.076262	-0.250943	0.491694
Cl175	Cl	-0.116469	-0.709532	0.474616
Cl176	Cl	0.383531	-0.209532	0.974616
H177	H	-0.093502	-0.242665	-0.179513
H178	H	0.406498	0.257335	0.320487
Cl179	Cl	0.116951	-0.416693	0.015777
Cl180	Cl	0.616951	0.083307	0.515777
H181	H	-0.575626	-0.936364	-0.068573
H182	H	-0.075626	-0.436364	0.431427
Cl183	Cl	0.000284	-0.965174	0.284963
Cl184	Cl	0.500284	-0.465174	0.784963
Cl185	Cl	0.000223	-0.679405	0.246686
Cl186	Cl	0.500223	-0.179405	0.746686
H187	H	0.094097	-0.907249	0.484999
H188	H	0.594097	-0.407249	0.984999
H189	H	-0.422117	-0.905614	-0.160589
H190	H	0.077883	-0.405614	0.339411
Cl191	Cl	-0.408408	-0.864639	0.048438
Cl192	Cl	0.091592	-0.364639	0.548438
Cl193	Cl	-0.589473	-0.679395	-0.135464
Cl194	Cl	-0.089473	-0.179395	0.364536
H195	H	-0.575267	-0.847767	0.022790
H196	H	-0.075267	-0.347767	0.522790
