data_functionalizedCrystal
_audit_creation_method	'MofGen! by Chris Wilmer'
_symmetry_space_group_name_H-M	'P1'
_symmetry_Int_Tables_number	1
_symmetry_cell_setting	triclinic
loop_
_symmetry_equiv_pos_as_xyz
  x,y,z
_cell_length_a	19.805407
_cell_length_b	19.805405
_cell_length_c	19.805399
_cell_angle_alpha	90.027486
_cell_angle_beta	89.980427
_cell_angle_gamma	89.972273
loop_
_atom_site_label
_atom_site_type_symbol
_atom_site_fract_x
_atom_site_fract_y
_atom_site_fract_z
Zn1	Zn	1.034729	0.269479	-0.382720
Zn2	Zn	1.034642	0.382667	-0.269532
Zn3	Zn	0.921544	0.269498	-0.269545
Zn4	Zn	0.921505	0.382631	-0.382679
O5	O	0.978105	0.326069	-0.326119
O6	O	1.129434	0.284501	-0.367717
O7	O	1.019619	0.367678	-0.174817
O8	O	0.936611	0.174778	-0.284580
O9	O	1.129370	0.367660	-0.284559
O10	O	1.019768	0.174765	-0.367730
O11	O	0.936526	0.284533	-0.174826
O12	O	0.826822	0.284498	-0.284540
O13	O	0.936545	0.367598	-0.477401
O14	O	0.826794	0.367617	-0.367659
O15	O	1.019730	0.284466	-0.477431
O16	O	1.019581	0.477379	-0.284519
O17	O	0.936460	0.477353	-0.367647
C18	C	0.802249	0.326056	-0.326097
C19	C	0.727017	0.326067	-0.326104
C20	C	0.691676	0.369412	-0.369314
C21	C	0.620987	0.369413	-0.369323
C22	C	0.585642	0.326072	-0.326119
C23	C	0.620988	0.282722	-0.282907
C24	C	0.691675	0.282718	-0.282901
C25	C	0.335915	0.282737	-0.282929
C26	C	0.265222	0.282746	-0.282937
C27	C	0.265227	0.369432	-0.369351
C28	C	0.335914	0.369428	-0.369346
C29	C	0.371254	0.326076	-0.326137
C30	C	0.447903	0.326074	-0.326128
C31	C	0.508994	0.326076	-0.326124
C32	C	0.978025	0.501925	-0.326092
C33	C	0.978053	0.577157	-0.326103
C34	C	1.021375	0.612492	-0.282864
C35	C	1.021402	0.683181	-0.282881
C36	C	0.978103	0.718532	-0.326134
C37	C	0.934779	0.683192	-0.369378
C38	C	0.934755	0.612505	-0.369363
C39	C	0.934872	0.968265	-0.369437
C40	C	0.934897	1.038957	-0.369446
C41	C	1.021518	1.038941	-0.282955
C42	C	1.021495	0.968254	-0.282941
C43	C	0.978174	0.932920	-0.326186
C44	C	0.978146	0.856271	-0.326168
C45	C	0.978127	0.795179	-0.326150
C46	C	1.154648	0.326082	-0.326141
C47	C	1.229880	0.326088	-0.326151
C48	C	0.978143	0.326026	-0.502662
C49	C	0.978159	0.326008	-0.577894
C50	C	0.978198	1.149526	-0.326169
C51	C	0.978223	1.074294	-0.326211
C52	C	1.021475	0.282719	-0.613255
C53	C	1.021482	0.282699	-0.683943
C54	C	0.978176	0.325973	-0.719269
C55	C	0.934856	0.369264	-0.683903
C56	C	0.934846	0.369279	-0.613216
C57	C	0.934894	0.369201	-0.968977
C58	C	0.934908	0.369183	-1.039669
C59	C	1.021530	0.282620	-1.039704
C60	C	1.021520	0.282636	-0.969017
C61	C	0.978197	0.325924	-0.933657
C62	C	0.978189	0.325944	-0.857008
C63	C	0.978187	0.325957	-0.795917
C64	C	0.978106	0.326062	-0.150263
C65	C	0.978221	0.325890	-0.075031
H66	H	0.364689	0.404723	-0.404525
H67	H	0.720449	0.404707	-0.404494
H68	H	0.899641	0.404423	-1.068430
H69	H	1.056795	1.067719	-0.247745
H70	H	0.592215	0.404709	-0.404509
H71	H	0.236444	0.404729	-0.404537
H72	H	0.899597	0.939502	-0.404647
C73	C	0.887724	0.416164	-0.722219
C74	C	0.820760	0.401413	-0.705029
C75	C	0.777324	0.444600	-0.740316
H76	H	0.897512	0.461669	-0.710651
H77	H	0.893887	0.409952	-0.769389
H78	H	0.814599	0.407630	-0.657869
H79	H	0.810950	0.355916	-0.716598
H80	H	0.783488	0.438388	-0.787486
H81	H	0.787118	0.490102	-0.728746
H82	H	0.731884	0.434593	-0.728662
C83	C	1.068468	0.929960	-0.235871
C84	C	1.053790	0.947224	-0.168892
C85	C	1.097057	0.911969	-0.125514
H86	H	1.062293	0.882790	-0.241963
H87	H	1.113955	0.941516	-0.245783
H88	H	1.008315	0.935663	-0.158983
H89	H	1.059970	0.994387	-0.162779
H90	H	1.142543	0.923525	-0.135427
H91	H	1.090878	0.864801	-0.131612
H92	H	1.087108	0.923682	-0.080065
H93	H	0.236446	0.247448	-0.247754
C94	C	0.887781	0.416084	-0.930548
C95	C	0.844405	0.377758	-0.889984
C96	C	0.800989	0.420924	-0.854575
H97	H	0.913573	0.445595	-0.902913
H98	H	0.861950	0.441846	-0.961685
H99	H	0.870233	0.352008	-0.858851
H100	H	0.818598	0.348250	-0.917603
H101	H	0.775158	0.446686	-0.885712
H102	H	0.826786	0.450432	-0.826943
H103	H	0.771549	0.394926	-0.827053
C104	C	1.068610	0.235758	-0.930622
C105	C	1.111978	0.274086	-0.890044
C106	C	1.155366	0.230921	-0.854671
H107	H	1.042797	0.206265	-0.902998
H108	H	1.094448	0.209979	-0.961780
H109	H	1.086143	0.299855	-0.858889
H110	H	1.137806	0.303578	-0.917651
H111	H	1.181204	0.205141	-0.885829
H112	H	1.129548	0.201429	-0.827051
H113	H	1.184800	0.256920	-0.827139
H114	H	1.056803	0.247370	-1.068502
H115	H	0.899527	0.711981	-0.404598
H116	H	0.364680	0.247442	-0.247741
C117	C	0.887844	0.416208	-0.574699
C118	C	0.897090	0.406946	-0.505234
C119	C	0.853793	0.450157	-0.469733
H120	H	0.897681	0.461711	-0.586191
H121	H	0.842360	0.406288	-0.586239
H122	H	0.942563	0.416871	-0.493699
H123	H	0.887247	0.361452	-0.493722
H124	H	0.808309	0.440237	-0.481272
H125	H	0.863634	0.495658	-0.481230
H126	H	0.860056	0.443875	-0.422597
H127	H	0.720449	0.247418	-0.247719
C128	C	0.582577	0.235775	-0.235918
C129	C	0.541974	0.274044	-0.192457
C130	C	0.506588	0.230820	-0.149155
H131	H	0.554970	0.206309	-0.261788
H132	H	0.613728	0.209969	-0.210143
H133	H	0.510826	0.299839	-0.218229
H134	H	0.569564	0.303509	-0.166571
H135	H	0.537739	0.205014	-0.123380
H136	H	0.478984	0.201356	-0.175031
H137	H	0.479039	0.256779	-0.119657
C138	C	1.068346	0.574199	-0.235792
C139	C	1.053665	0.591466	-0.168814
C140	C	1.096930	0.556213	-0.125433
H141	H	1.062171	0.527029	-0.241882
H142	H	1.113833	0.585755	-0.245702
H143	H	1.008190	0.579907	-0.158907
H144	H	1.059845	0.638630	-0.162703
H145	H	1.142416	0.567768	-0.135344
H146	H	1.090751	0.509045	-0.131529
H147	H	1.086979	0.567928	-0.079985
C148	C	1.068598	0.721398	-0.235976
C149	C	1.135521	0.704050	-0.250813
C150	C	1.179041	0.739208	-0.207612
H151	H	1.062560	0.768581	-0.242101
H152	H	1.058768	0.709819	-0.190478
H153	H	1.145347	0.715634	-0.296300
H154	H	1.141580	0.656873	-0.244685
H155	H	1.169211	0.727630	-0.162114
H156	H	1.172998	0.786390	-0.213740
H157	H	1.224453	0.727438	-0.217669
H158	H	0.899479	0.583735	-0.404573
H159	H	0.899638	1.067739	-0.404673
H160	H	1.056742	0.247482	-0.584497
H161	H	1.056755	0.247450	-0.712731
