data_functionalizedCrystal
_audit_creation_method	'MofGen! by Chris Wilmer'
_symmetry_space_group_name_H-M	'P1'
_symmetry_Int_Tables_number	1
_symmetry_cell_setting	triclinic
loop_
_symmetry_equiv_pos_as_xyz
  x,y,z
_cell_length_a	18.050591
_cell_length_b	12.759394
_cell_length_c	12.759387
_cell_angle_alpha	89.968340
_cell_angle_beta	90.028908
_cell_angle_gamma	89.989157
loop_
_atom_site_label
_atom_site_type_symbol
_atom_site_fract_x
_atom_site_fract_y
_atom_site_fract_z
Zn1	Zn	1.135420	0.418323	0.594234
Zn2	Zn	1.135343	0.594040	0.418552
Zn3	Zn	1.011222	0.418363	0.418545
Zn4	Zn	1.011216	0.593948	0.594165
O5	O	1.073300	0.506169	0.506374
O6	O	1.239334	0.441654	0.570961
O7	O	1.118848	0.570791	0.271530
O8	O	1.027732	0.271337	0.441877
O9	O	1.239277	0.570752	0.441888
O10	O	1.118980	0.271307	0.570955
O11	O	1.027657	0.441722	0.271525
O12	O	0.907297	0.441634	0.441810
O13	O	1.027722	0.570596	0.741196
O14	O	0.907293	0.570635	0.570837
O15	O	1.118974	0.441565	0.741246
O16	O	1.118842	0.741049	0.441821
O17	O	1.027647	0.740982	0.570844
C18	C	1.073256	0.779136	0.506349
C19	C	1.073305	0.895913	0.506373
C20	C	0.880348	0.506129	0.506316
C21	C	0.797802	0.506138	0.506316
C22	C	1.073356	0.506066	0.780408
C23	C	1.073380	0.506022	0.897185
C24	C	0.598332	0.435906	0.436313
C25	C	0.548926	0.531736	0.410462
C26	C	0.646672	0.506170	0.506364
C27	C	0.548997	0.410373	0.532211
C28	C	0.500687	0.506192	0.506408
C29	C	0.598353	0.602051	0.480463
C30	C	0.598428	0.480623	0.602257
C31	C	0.549044	0.576519	0.576443
C32	C	0.730770	0.506156	0.506336
C33	C	0.416590	0.506217	0.506436
C34	C	1.267006	0.506209	0.506433
C35	C	1.349552	0.506226	0.506458
C36	C	1.073365	0.232135	0.506423
C37	C	1.073393	0.115358	0.506443
C38	C	1.168337	0.895930	0.372123
C39	C	1.215873	0.950799	0.305010
C40	C	1.215916	1.060520	0.305039
C41	C	1.168421	1.115375	0.372189
C42	C	1.120885	1.060506	0.439302
C43	C	1.120845	0.950782	0.439264
C44	C	1.025857	1.060489	0.573556
C45	C	1.025809	0.950768	0.573524
C46	C	0.978362	1.115344	0.640707
C47	C	0.930821	1.060475	0.707816
C48	C	0.930779	0.950747	0.707784
C49	C	0.978273	0.895899	0.640637
C50	C	1.073287	0.506195	0.233407
C51	C	1.073407	0.505943	0.116631
C52	C	1.168407	0.371670	0.897257
C53	C	1.215931	0.304479	0.952154
C54	C	1.215949	0.304441	1.061876
C55	C	1.168437	0.371599	1.116703
C56	C	1.120913	0.438790	1.061806
C57	C	1.120902	0.438823	0.952082
C58	C	1.025883	0.573135	1.061734
C59	C	1.025868	0.573180	0.952012
C60	C	0.978371	0.640293	1.116561
C61	C	0.930849	0.707491	1.061664
C62	C	0.930834	0.707527	0.951935
C63	C	0.978344	0.640371	0.897115
H64	H	0.527184	0.553361	0.329386
O65	O	1.262063	0.239349	0.898732
C66	C	1.251850	0.253771	0.790117
H67	H	1.227495	0.334844	0.775103
H68	H	1.212322	0.191445	0.758972
C69	C	1.356902	0.144625	0.752263
C70	C	1.326995	0.244204	0.733823
H71	H	1.403254	0.138719	0.717536
H72	H	1.363782	0.134905	0.825439
H73	H	1.323955	0.092697	0.726309
H74	H	1.359937	0.296129	0.759788
H75	H	1.320122	0.253933	0.660649
O76	O	0.884589	0.772653	0.898569
C77	C	0.836642	0.712853	0.835069
H78	H	0.832085	0.630089	0.868140
H79	H	0.859590	0.709281	0.751921
C80	C	0.765019	0.865808	0.792734
C81	C	0.759418	0.764158	0.833357
H82	H	0.717384	0.897456	0.791673
H83	H	0.797323	0.906097	0.835512
H84	H	0.784145	0.862817	0.723448
H85	H	0.740300	0.767150	0.902646
H86	H	0.727108	0.723869	0.790591
H87	H	0.978339	0.640399	0.807774
H88	H	0.619975	0.376549	0.377009
H89	H	0.978404	1.204685	0.640730
O90	O	0.884667	1.113597	0.773140
C91	C	0.842682	1.041644	0.832346
H92	H	0.873063	0.963391	0.835998
H93	H	0.786285	1.030078	0.793794
C94	C	0.794650	1.180494	0.939677
C95	C	0.831967	1.084384	0.944171
H96	H	0.788037	1.206858	1.008655
H97	H	0.822934	1.228971	0.899787
H98	H	0.747657	1.170842	0.907546
H99	H	0.878963	1.094039	0.976290
H100	H	0.803692	1.035909	0.984069
H101	H	1.254643	0.249721	1.106573
H102	H	0.619942	0.683099	0.458530
H103	H	1.168404	0.371705	0.807916
H104	H	0.527538	0.636018	0.635701
O105	O	0.624358	0.454611	0.698919
C106	C	0.599241	0.353502	0.725858
H107	H	0.585333	0.308090	0.651491
H108	H	0.547605	0.360201	0.776833
C109	C	0.677424	0.351128	0.878223
C110	C	0.660348	0.295349	0.786883
H111	H	0.715115	0.315257	0.915871
H112	H	0.694344	0.419248	0.860077
H113	H	0.634389	0.356706	0.920690
H114	H	0.703379	0.289783	0.744413
H115	H	0.643436	0.227226	0.805024
H116	H	0.527278	0.329359	0.554019
O117	O	1.261937	0.897350	0.239815
C118	C	1.251722	0.788741	0.254193
H119	H	1.194393	0.773784	0.288523
H120	H	1.295744	0.757511	0.310189
C121	C	1.328948	0.750862	0.105717
C122	C	1.258534	0.732491	0.147874
H123	H	1.333154	0.716163	0.040137
H124	H	1.335834	0.824034	0.096032
H125	H	1.365626	0.724836	0.152391
H126	H	1.221859	0.758528	0.101207
H127	H	1.251643	0.659322	0.157549
H128	H	1.168297	0.806588	0.372079
H129	H	1.254628	1.105195	0.250395
H130	H	0.892073	0.906078	0.762439
O131	O	1.168605	1.221958	0.372228
C132	C	1.239784	1.258507	0.399345
H133	H	1.282539	1.195242	0.381433
H134	H	1.241338	1.277896	0.486528
C135	C	1.205173	1.435405	0.357392
C136	C	1.257685	1.357705	0.335384
H137	H	1.216214	1.496597	0.317943
H138	H	1.157217	1.410782	0.339127
H139	H	1.206473	1.451549	0.430046
H140	H	1.256377	1.341552	0.262735
H141	H	1.305641	1.382327	0.353636
O142	O	0.978391	0.640451	1.223144
C143	C	0.997453	0.741133	1.259782
H144	H	0.984734	0.801662	1.196530
H145	H	1.059076	0.743379	1.279272
C146	C	0.967836	0.691972	1.436603
C147	C	0.952209	0.766316	1.358919
H148	H	0.939930	0.707505	1.497758
H149	H	0.954996	0.624139	1.411920
H150	H	1.019190	0.693851	1.452832
H151	H	0.900858	0.764427	1.342682
H152	H	0.965039	0.834150	1.383601
O153	O	0.884737	0.772867	1.114805
C154	C	0.900946	0.877597	1.088009
H155	H	0.929484	0.879818	1.008357
H156	H	0.939126	0.912967	1.149776
C157	C	0.793477	0.938489	1.180730
C158	C	0.828523	0.941218	1.082895
H159	H	0.748804	0.977736	1.177580
H160	H	0.782558	0.867931	1.198787
H161	H	0.825301	0.967962	1.232192
H162	H	0.796703	0.911733	1.031438
H163	H	0.839435	1.011773	1.064829
H164	H	0.978239	0.806557	0.640597
H165	H	1.168450	0.371553	1.206044
