data_functionalizedCrystal
_audit_creation_method	'MofGen! by Chris Wilmer'
_symmetry_space_group_name_H-M	'P1'
_symmetry_Int_Tables_number	1
_symmetry_cell_setting	triclinic
loop_
_symmetry_equiv_pos_as_xyz
  x,y,z
_cell_length_a	19.188930
_cell_length_b	19.188940
_cell_length_c	18.266242
_cell_angle_alpha	90.004936
_cell_angle_beta	90.019504
_cell_angle_gamma	83.146747
loop_
_atom_site_label
_atom_site_type_symbol
_atom_site_fract_x
_atom_site_fract_y
_atom_site_fract_z
O1	O	0.926149	0.087167	0.061117
O2	O	0.722838	0.098901	0.061067
O3	O	0.830357	-0.008621	0.061088
O4	O	0.818630	0.194689	0.061096
O5	O	0.830346	-0.008624	-0.060674
O6	O	0.722827	0.098899	-0.060695
O7	O	0.926137	0.087164	-0.060645
Zn8	Zn	0.824480	0.093031	-0.080002
Zn9	Zn	0.824495	0.093034	0.080424
O10	O	0.818618	0.194687	-0.060666
C11	C	0.696821	0.098520	0.000179
C12	C	0.619317	0.097379	0.000160
C13	C	0.574395	0.160470	0.000174
C14	C	0.501571	0.159398	0.000182
C15	C	0.473672	0.095232	0.000191
C16	C	0.518604	0.032133	0.000173
C17	C	0.591426	0.033207	0.000157
N18	N	0.365694	0.046186	0.041659
N19	N	0.296516	0.045171	0.041675
C20	C	0.254264	0.091994	0.000236
N21	N	0.283802	0.139882	-0.041212
N22	N	0.352987	0.140899	-0.041225
C23	C	0.394710	0.094061	0.000207
C24	C	0.130377	0.153927	0.000257
C25	C	0.057553	0.152853	0.000261
C26	C	0.074587	0.025586	0.000259
C27	C	0.147410	0.026662	0.000248
C28	C	0.175301	0.090835	0.000251
C29	C	0.829970	-0.034633	0.000207
C30	C	0.828827	-0.112138	0.000207
C31	C	0.820686	-0.665398	-0.066150
C32	C	0.821753	-0.592574	-0.066154
C33	C	0.822296	-0.556153	0.000218
C34	C	0.821754	-0.592560	0.066598
C35	C	0.820680	-0.665382	0.066600
N36	N	0.863717	-0.447128	0.049630
N37	N	0.864738	-0.377950	0.049623
C38	C	0.825530	-0.336744	0.000216
N39	N	0.785269	-0.367329	-0.049196
N40	N	0.784251	-0.436514	-0.049192
C41	C	0.823460	-0.477189	0.000223
C42	C	0.827223	-0.221380	-0.066164
C43	C	0.828285	-0.148554	-0.066166
C44	C	0.828294	-0.148542	0.066589
C45	C	0.827224	-0.221366	0.066588
C46	C	0.826692	-0.257781	0.000209
C47	C	0.952154	0.087546	0.000244
C48	C	1.029659	0.088686	0.000268
C49	C	0.819005	0.220699	0.000217
C50	C	0.820148	0.298203	0.000221
N51	N	0.824475	0.093028	-0.189489
C52	C	0.872117	0.045434	-0.771757
C53	C	0.872118	0.045435	-0.695112
C54	C	0.824496	0.093028	-0.656802
C55	C	0.776882	0.140635	-0.695143
C56	C	0.776887	0.140637	-0.771786
N57	N	0.762684	0.102076	-0.536490
N58	N	0.762682	0.102070	-0.463682
C59	C	0.824479	0.093027	-0.425880
N60	N	0.886281	0.083975	-0.463635
N61	N	0.886283	0.083978	-0.536450
C62	C	0.824486	0.093032	-0.573695
C63	C	0.872094	0.045428	-0.304441
C64	C	0.872096	0.045434	-0.227795
C65	C	0.776854	0.140631	-0.227826
C66	C	0.776858	0.140627	-0.304471
C67	C	0.824478	0.093022	-0.342774
N68	N	0.824506	0.093031	0.189911
H69	H	0.051873	-0.026659	0.000311
H70	H	0.822178	-0.562930	-0.120204
O71	O	0.828684	-0.113147	-0.130625
C72	C	0.768858	-0.062924	-0.134617
H73	H	0.726278	-0.079211	-0.096967
H74	H	0.783336	-0.009559	-0.116783
C75	C	0.793763	-0.038147	-0.260170
C76	C	0.741464	-0.058154	-0.213932
H77	H	0.776867	-0.035202	-0.309095
H78	H	0.834071	-0.071982	-0.257480
H79	H	0.805824	0.006322	-0.245299
H80	H	0.729411	-0.102626	-0.228797
H81	H	0.701154	-0.024327	-0.216626
O82	O	0.191151	-0.034560	0.000213
C83	C	0.261407	-0.019854	0.000219
H84	H	0.264023	0.034976	-0.022837
H85	H	0.282503	-0.022561	0.058631
C86	C	0.302907	-0.141544	-0.019217
C87	C	0.306121	-0.074203	-0.047541
H88	H	0.330489	-0.175071	-0.048675
H89	H	0.255574	-0.151453	-0.019218
H90	H	0.320485	-0.143790	0.029459
H91	H	0.288534	-0.071956	-0.096213
H92	H	0.353452	-0.064295	-0.047549
O93	O	0.730699	0.186927	-0.341744
C94	C	0.767959	0.229897	-0.386072
H95	H	0.823013	0.230941	-0.362951
H96	H	0.771689	0.208035	-0.444159
C97	C	0.661633	0.303676	-0.415658
C98	C	0.729250	0.304963	-0.387257
H99	H	0.637754	0.349979	-0.416392
H100	H	0.636529	0.274725	-0.385796
H101	H	0.664751	0.285455	-0.464061
H102	H	0.726131	0.323176	-0.338852
H103	H	0.754352	0.333919	-0.417111
O104	O	0.820190	-0.700640	0.131142
C105	C	0.820874	-0.652879	0.189726
H106	H	0.843739	-0.603928	0.170276
H107	H	0.764986	-0.637638	0.210113
C108	C	0.838147	-0.747543	0.276341
C109	C	0.866235	-0.687423	0.252455
H110	H	0.866124	-0.768851	0.315037
H111	H	0.837683	-0.779721	0.236873
H112	H	0.791574	-0.734834	0.293325
H113	H	0.912803	-0.700134	0.235463
H114	H	0.866707	-0.655248	0.291922
H115	H	0.822194	-0.562901	0.120638
H116	H	0.464989	0.210775	0.000192
O117	O	0.157360	0.216322	0.000220
C118	C	0.102090	0.271779	0.000245
H119	H	0.052666	0.252359	-0.022800
H120	H	0.091753	0.291233	0.058661
C121	C	0.183148	0.356166	-0.019206
C122	C	0.122445	0.332315	-0.047516
H123	H	0.195704	0.393509	-0.048664
H124	H	0.220384	0.318803	-0.019220
H125	H	0.174525	0.372372	0.029474
H126	H	0.131071	0.316101	-0.096191
H127	H	0.085210	0.369676	-0.047511
O128	O	0.730604	0.186776	-0.809106
C129	C	0.687636	0.149490	-0.853444
H130	H	0.715609	0.094784	-0.864918
H131	H	0.636049	0.144877	-0.823927
C132	C	0.638240	0.256080	-0.912160
C133	C	0.672600	0.188891	-0.926257
H134	H	0.628962	0.280385	-0.957073
H135	H	0.667186	0.281201	-0.882287
H136	H	0.595255	0.252226	-0.887561
H137	H	0.715587	0.192746	-0.950848
H138	H	0.643660	0.163771	-0.956137
O139	O	0.013843	0.214097	0.000373
C140	C	-0.028746	0.217287	0.063452
H141	H	-0.032254	0.161878	0.084469
H142	H	-0.004860	0.249096	0.107611
C143	C	-0.098490	0.320706	0.018501
C144	C	-0.102802	0.252651	0.044311
H145	H	-0.144170	0.342523	0.006696
H146	H	-0.069795	0.318559	-0.023995
H147	H	-0.078582	0.347204	0.055304
H148	H	-0.122701	0.226151	0.007504
H149	H	-0.131502	0.254794	0.086800
H150	H	0.820252	-0.695043	-0.120201
O151	O	0.918184	-0.000874	-0.190444
C152	C	0.907887	0.009247	-0.114582
H153	H	0.881824	0.064888	-0.104067
H154	H	0.872780	-0.030054	-0.092983
C155	C	1.011282	-0.070108	-0.088012
C156	C	0.979276	-0.001767	-0.075096
H157	H	1.055317	-0.076906	-0.063654
H158	H	1.018218	-0.076930	-0.139121
H159	H	0.982019	-0.102851	-0.070012
H160	H	1.008535	0.030974	-0.093104
H161	H	0.972346	0.005059	-0.023989
O162	O	0.491623	-0.030259	0.000152
C163	C	0.546892	-0.085717	0.000157
H164	H	0.596293	-0.066298	-0.022909
H165	H	0.557288	-0.105165	0.058570
C166	C	0.465815	-0.170104	-0.019257
C167	C	0.526488	-0.146256	-0.047593
H168	H	0.453229	-0.207450	-0.048708
H169	H	0.428578	-0.132742	-0.019257
H170	H	0.474486	-0.186307	0.029420
H171	H	0.517814	-0.130046	-0.096265
H172	H	0.563724	-0.183617	-0.047601
O173	O	0.918297	-0.000886	-0.657879
C174	C	0.907184	-0.069984	-0.676606
H175	H	0.851298	-0.070201	-0.697718
H176	H	0.945964	-0.090604	-0.721058
C177	C	0.986795	-0.117050	-0.582568
C178	C	0.918152	-0.117318	-0.608492
H179	H	0.993563	-0.146249	-0.540553
H180	H	0.994284	-0.070498	-0.569953
H181	H	1.019104	-0.134232	-0.619618
H182	H	0.885845	-0.100128	-0.571445
H183	H	0.910658	-0.163869	-0.621099
H184	H	0.826784	-0.251030	-0.120214
O185	O	0.828679	-0.113100	0.131031
C186	C	0.768808	-0.062931	0.134962
H187	H	0.748856	-0.049312	0.077314
H188	H	0.726049	-0.085369	0.167645
C189	C	0.812624	-0.012939	0.243781
C190	C	0.788122	0.003791	0.172977
H191	H	0.824536	0.028217	0.267233
H192	H	0.852959	-0.046741	0.241135
H193	H	0.776987	-0.031639	0.271007
H194	H	0.823762	0.022482	0.145749
H195	H	0.747793	0.037598	0.175619
H196	H	0.628002	-0.018171	0.000146
O197	O	0.826749	-0.256626	0.131128
C198	C	0.827442	-0.208866	0.189710
H199	H	0.850299	-0.159912	0.170254
H200	H	0.771558	-0.193629	0.210110
C201	C	0.844739	-0.303530	0.276323
C202	C	0.872819	-0.243407	0.252429
H203	H	0.872727	-0.324837	0.315013
H204	H	0.844270	-0.335708	0.236856
H205	H	0.798170	-0.290824	0.293318
H206	H	0.919383	-0.256115	0.235426
H207	H	0.873297	-0.211232	0.291895
O208	O	0.730595	0.186933	-0.658045
C209	C	0.688559	0.228934	-0.708317
H210	H	0.717186	0.229653	-0.762938
H211	H	0.636764	0.206395	-0.716495
C212	C	0.638780	0.303408	-0.611313
C213	C	0.673943	0.304295	-0.678398
H214	H	0.629761	0.349893	-0.592858
H215	H	0.667098	0.275109	-0.577443
H216	H	0.595621	0.284622	-0.618138
H217	H	0.717104	0.323073	-0.671571
H218	H	0.645631	0.332599	-0.712267
H219	H	0.910893	0.006672	-0.802941
O220	O	0.601577	0.222757	0.000086
C221	C	0.643150	0.227202	-0.062988
H222	H	0.661436	0.172119	-0.084030
H223	H	0.610867	0.258204	-0.107134
C224	C	0.685011	0.332240	-0.017983
C225	C	0.707475	0.264586	-0.043824
H226	H	0.724688	0.355303	-0.006164
H227	H	0.657000	0.329247	0.024510
H228	H	0.658108	0.358066	-0.054776
H229	H	0.734370	0.238759	-0.007028
H230	H	0.735492	0.267575	-0.086310
O231	O	0.918416	-0.000840	-0.341540
C232	C	0.960430	-0.042863	-0.291268
H233	H	0.961138	-0.014235	-0.236633
H234	H	0.937910	-0.094669	-0.283123
C235	C	1.034919	-0.092617	-0.388260
C236	C	1.035793	-0.057453	-0.321159
H237	H	1.081405	-0.101620	-0.406698
H238	H	1.006612	-0.064308	-0.422130
H239	H	1.016149	-0.135784	-0.381464
H240	H	1.054554	-0.014283	-0.327957
H241	H	1.064105	-0.085755	-0.287290
H242	H	0.738083	0.179384	-0.196634
