data_functionalizedCrystal
_audit_creation_method	'MofGen! by Chris Wilmer'
_symmetry_space_group_name_H-M	'P1'
_symmetry_Int_Tables_number	1
_symmetry_cell_setting	triclinic
loop_
_symmetry_equiv_pos_as_xyz
  x,y,z
_cell_length_a	20.299480
_cell_length_b	20.298645
_cell_length_c	20.294903
_cell_angle_alpha	60.007695
_cell_angle_beta	60.015306
_cell_angle_gamma	59.991039
loop_
_atom_site_label
_atom_site_type_symbol
_atom_site_fract_x
_atom_site_fract_y
_atom_site_fract_z
O1	O	0.091305	-0.962534	0.804873
O2	O	0.034397	-0.749399	0.648508
O3	O	0.169355	-0.884263	0.648401
O4	O	-0.043654	-0.827670	0.804979
O5	O	0.214132	-0.839502	0.693072
O6	O	0.079173	-0.704639	0.693178
O7	O	0.136081	-0.917774	0.849544
Zn8	Zn	0.114736	-0.804099	0.778453
Zn9	Zn	0.055742	-0.863073	0.719598
O10	O	0.001122	-0.782910	0.849650
N11	N	0.155000	-0.763857	0.818624
N12	N	0.015485	-0.903322	0.679427
C13	C	0.179343	-0.615641	0.842971
C14	C	0.179443	-0.739552	0.966834
C15	C	0.303264	-0.739536	0.842917
C16	C	0.179356	-0.739528	0.842952
C17	C	0.210353	-0.708565	0.873918
C18	C	-0.132622	-0.927446	0.654695
C19	C	-0.008595	-0.927622	0.530981
C20	C	-0.008820	-1.051459	0.654914
C21	C	-0.008800	-0.927618	0.654995
C22	C	-0.039709	-0.958538	0.623897
N23	N	0.376268	-0.763873	0.818558
O24	O	0.652281	-0.777347	0.619856
O25	O	0.652556	-0.934198	0.832777
O26	O	0.652445	-0.933836	0.697731
O27	O	0.652392	-0.777709	0.754902
O28	O	0.518259	-0.889182	0.742556
O29	O	0.518369	-0.889544	0.877602
O30	O	0.518095	-0.732693	0.664680
Zn31	Zn	0.496927	-0.804029	0.778258
Zn32	Zn	0.673724	-0.862862	0.719200
O33	O	0.518205	-0.733055	0.799726
N34	N	0.794383	-0.903019	0.678891
N35	N	0.154981	-0.542636	0.818657
O36	O	-0.043628	-0.266455	0.805024
O37	O	0.169291	-0.266451	0.648191
O38	O	0.034217	-0.266468	0.648577
O39	O	0.091446	-0.266438	0.804638
O40	O	0.078998	-0.400670	0.693303
O41	O	0.214071	-0.400653	0.692918
O42	O	0.001152	-0.400657	0.849750
Zn43	Zn	0.114722	-0.421963	0.778435
Zn44	Zn	0.055722	-0.245145	0.719506
O45	O	0.136226	-0.400640	0.849364
N46	N	0.015453	-0.124472	0.679286
N47	N	0.155155	-0.763898	1.039838
O48	O	0.141555	-0.962488	1.315987
O49	O	-0.015254	-0.749480	1.316022
O50	O	-0.014890	-0.884527	1.315962
O51	O	0.141192	-0.827441	1.316047
O52	O	0.029815	-0.839777	1.181768
O53	O	0.029452	-0.704730	1.181828
O54	O	0.186261	-0.917739	1.181793
Zn55	Zn	0.114954	-0.804130	1.160504
Zn56	Zn	0.056053	-0.863089	1.337311
O57	O	0.185897	-0.782692	1.181853
N58	N	0.015850	-0.903330	1.457977
C59	C	0.051451	-0.700162	0.649301
C60	C	0.218580	-0.867175	0.649169
C61	C	0.119026	-0.967011	0.848750
C62	C	-0.048103	-0.799998	0.848882
C63	C	0.585495	-0.933471	0.882014
C64	C	0.585361	-0.933023	0.714775
C65	C	0.585151	-0.733419	0.615444
C66	C	0.585291	-0.733869	0.782682
C67	C	0.218449	-0.333386	0.648902
C68	C	0.051232	-0.333573	0.649435
C69	C	-0.048061	-0.333556	0.848984
C70	C	0.119212	-0.333537	0.848507
C71	C	-0.014496	-0.700269	1.248929
C72	C	-0.014037	-0.867500	1.248828
C73	C	0.185503	-0.966949	1.248886
C74	C	0.185054	-0.799709	1.248957
H75	H	0.039295	-0.638935	0.600193
C76	C	0.585437	-0.668495	0.798888
C77	C	0.654431	-0.646959	0.743912
C78	C	0.654600	-0.586749	0.758824
H79	H	0.538662	-0.622556	0.792895
H80	H	0.585539	-0.688208	0.852292
H81	H	0.654321	-0.627244	0.690522
H82	H	0.701216	-0.692880	0.749896
H83	H	0.654703	-0.606462	0.812227
H84	H	0.607823	-0.540815	0.752831
H85	H	0.701415	-0.572135	0.721531
C86	C	0.585561	-0.999225	0.963510
C87	C	0.585586	-1.068160	0.963402
C88	C	0.585638	-1.128747	1.038464
H89	H	0.632360	-1.011998	0.973403
H90	H	0.538767	-0.980792	1.004609
H91	H	0.632376	-1.086592	0.922315
H92	H	0.538790	-1.055414	0.953523
H93	H	0.538844	-1.110313	1.079563
H94	H	0.632439	-1.141512	1.048351
H95	H	0.585648	-1.175523	1.038403
H96	H	-0.109285	-0.787936	0.898049
C97	C	-0.079364	-0.883900	1.248844
C98	C	-0.097718	-0.948806	1.317833
C99	C	-0.157884	-0.963944	1.317870
H100	H	-0.126380	-0.837317	1.248871
H101	H	-0.060702	-0.896738	1.202044
H102	H	-0.116383	-0.935963	1.364621
H103	H	-0.050719	-0.995402	1.317820
H104	H	-0.139222	-0.976782	1.271070
H105	H	-0.204896	-0.917357	1.317895
H106	H	-0.170340	-1.007988	1.364674
H107	H	0.234089	-0.787495	1.248972
C108	C	0.585163	-0.667721	0.533907
C109	C	0.654148	-0.646200	0.498484
C110	C	0.654180	-0.585675	0.423377
H111	H	0.585187	-0.687123	0.499910
H112	H	0.538366	-0.621850	0.540990
H113	H	0.700933	-0.692062	0.491398
H114	H	0.654139	-0.626785	0.532457
H115	H	0.607383	-0.539805	0.430459
H116	H	0.654202	-0.605084	0.389387
H117	H	0.700982	-0.571061	0.399336
C118	C	0.135451	-0.333368	0.913858
C119	C	0.080510	-0.264315	0.935360
C120	C	0.095454	-0.264128	0.995550
H121	H	0.129447	-0.380113	0.959810
H122	H	0.188861	-0.333322	0.894142
H123	H	0.027113	-0.264368	0.955079
H124	H	0.086504	-0.217558	0.889427
H125	H	0.148865	-0.264082	0.975833
H126	H	0.089452	-0.310876	1.041496
H127	H	0.058185	-0.217273	1.010141
C128	C	-0.080054	-0.618660	1.248982
C129	C	-0.051150	-0.568875	1.249034
C130	C	-0.111522	-0.493695	1.249093
H131	H	-0.094764	-0.594407	1.202191
H132	H	-0.125903	-0.625689	1.295790
H133	H	-0.005315	-0.561845	1.202230
H134	H	-0.036445	-0.593103	1.295821
H135	H	-0.157372	-0.500723	1.295902
H136	H	-0.126229	-0.469449	1.202302
H137	H	-0.091922	-0.459909	1.249136
C138	C	0.585345	-0.998307	0.698326
C139	C	0.585241	-0.969036	0.619571
C140	C	0.585215	-1.029149	0.604393
H141	H	0.632161	-1.044214	0.704241
H142	H	0.538568	-1.013023	0.735533
H143	H	0.632014	-0.954331	0.582374
H144	H	0.538428	-0.923137	0.613637
H145	H	0.538438	-1.043865	0.641601
H146	H	0.632032	-1.075053	0.610312
H147	H	0.585137	-1.009295	0.550960
H148	H	0.131184	-1.028235	0.897860
C149	C	-0.129666	-0.333376	0.914555
C150	C	-0.190030	-0.264322	0.887098
C151	C	-0.265213	-0.264119	0.947483
H152	H	-0.139629	-0.380121	0.927311
H153	H	-0.129758	-0.333321	0.961386
H154	H	-0.189939	-0.264385	0.840281
H155	H	-0.180093	-0.217566	0.874348
H156	H	-0.265306	-0.264064	0.994314
H157	H	-0.275169	-0.310866	0.960234
H158	H	-0.306179	-0.217263	0.928864
C159	C	0.251035	-1.048584	1.248910
C160	C	0.222119	-1.098381	1.248894
C161	C	0.282462	-1.173591	1.248925
H162	H	0.296914	-1.041632	1.202133
H163	H	0.265696	-1.072782	1.295732
H164	H	0.207470	-1.074189	1.202076
H165	H	0.176249	-1.105356	1.295667
H166	H	0.297122	-1.197789	1.295747
H167	H	0.328337	-1.166631	1.202147
H168	H	0.262848	-1.207391	1.248922
C169	C	0.299895	-0.333013	0.583200
C170	C	0.360549	-0.401890	0.610353
C171	C	0.435590	-0.401570	0.549858
H172	H	0.300039	-0.332957	0.536296
H173	H	0.309517	-0.286132	0.570660
H174	H	0.350929	-0.448759	0.622883
H175	H	0.360430	-0.401961	0.657249
H176	H	0.445212	-0.354689	0.537317
H177	H	0.435725	-0.401512	0.502957
H178	H	0.476753	-0.448298	0.568275
C179	C	0.300220	-0.883396	0.583718
C180	C	0.349959	-0.962139	0.612761
C181	C	0.425174	-0.977107	0.552495
H182	H	0.293281	-0.877390	0.537834
H183	H	0.324449	-0.846145	0.569029
H184	H	0.325735	-0.999380	0.627439
H185	H	0.356921	-0.968163	0.658637
H186	H	0.449403	-0.939855	0.537806
H187	H	0.418226	-0.971097	0.506615
H188	H	0.458933	-1.030532	0.572195
H189	H	0.038975	-0.333574	0.600406
