data_functionalizedCrystal
_audit_creation_method	'MofGen! by Chris Wilmer'
_symmetry_space_group_name_H-M	'P1'
_symmetry_Int_Tables_number	1
_symmetry_cell_setting	triclinic
loop_
_symmetry_equiv_pos_as_xyz
  x,y,z
_cell_length_a	10.723023
_cell_length_b	10.723023
_cell_length_c	9.198806
_cell_angle_alpha	89.997827
_cell_angle_beta	89.996513
_cell_angle_gamma	84.467548
loop_
_atom_site_label
_atom_site_type_symbol
_atom_site_fract_x
_atom_site_fract_y
_atom_site_fract_z
O1	O	1.657188	0.175020	-0.120874
O2	O	1.294035	0.191774	-0.120880
O3	O	1.483989	0.001821	-0.120871
O4	O	1.467234	0.364973	-0.120883
O5	O	1.483974	0.001820	0.120914
O6	O	1.294020	0.191774	0.120905
O7	O	1.657173	0.175019	0.120911
Cu8	Cu	1.475595	0.183396	0.142985
Cu9	Cu	1.475613	0.183397	-0.142954
O10	O	1.467219	0.364973	0.120902
C11	C	1.247528	0.190555	0.000012
C12	C	1.108974	0.186908	0.000010
C13	C	1.047194	0.185281	0.125260
C14	C	0.903991	0.181512	0.125261
C15	C	1.482762	-0.044679	0.000020
C16	C	1.479115	-0.183233	0.000015
C17	C	1.477497	-0.244999	-0.125239
C18	C	1.473727	-0.388202	-0.125246
C19	C	1.703680	0.176239	0.000016
C20	C	1.842234	0.179886	0.000009
C21	C	1.468446	0.411473	0.000008
C22	C	1.472093	0.550027	0.000003
N23	N	1.475592	0.183395	0.344099
N24	N	1.475626	0.183388	-0.344068
C25	C	1.555347	0.103288	0.416300
C26	C	1.555367	0.103283	0.583712
H27	H	0.895354	0.181292	-0.107229
H28	H	1.055849	0.185506	-0.107222
H29	H	1.473491	-0.396865	0.107243
H30	H	1.623654	0.034704	0.645801
O31	O	1.477271	-0.253614	0.142058
H32	H	1.390811	-0.302552	0.148272
O33	O	1.479354	-0.174630	-0.267289
H34	H	1.482030	-0.073196	-0.244991
O35	O	1.471877	-0.458544	-0.267304
H36	H	1.469195	-0.559980	-0.245018
O37	O	1.645748	0.012401	0.334028
H38	H	1.631533	0.026654	0.215446
H39	H	1.407345	0.251980	0.593852
H40	H	1.407319	0.251971	0.406224
H41	H	1.100320	0.186673	0.232492
H42	H	0.850861	0.180120	0.232493
