data_functionalizedCrystal
_audit_creation_method	'MofGen! by Chris Wilmer'
_symmetry_space_group_name_H-M	'P1'
_symmetry_Int_Tables_number	1
_symmetry_cell_setting	triclinic
loop_
_symmetry_equiv_pos_as_xyz
  x,y,z
_cell_length_a	14.044191
_cell_length_b	17.019294
_cell_length_c	12.503572
_cell_angle_alpha	89.649141
_cell_angle_beta	86.162165
_cell_angle_gamma	88.281862
loop_
_atom_site_label
_atom_site_type_symbol
_atom_site_fract_x
_atom_site_fract_y
_atom_site_fract_z
O1	O	1.263969	0.185210	-0.106396
O2	O	0.987971	0.178372	-0.105777
O3	O	1.133023	0.067993	-0.095555
O4	O	1.118917	0.295589	-0.116617
O5	O	1.122114	0.076309	0.082317
O6	O	0.977062	0.186688	0.072095
O7	O	1.253060	0.193527	0.071476
Cu8	Cu	1.114065	0.190867	0.088027
Cu9	Cu	1.126966	0.181032	-0.122327
O10	O	1.108008	0.303905	0.061255
C11	C	0.947189	0.179538	-0.016566
C12	C	0.841925	0.170615	-0.015746
C13	C	0.591841	0.217587	-0.020082
C14	C	0.649197	0.154314	-0.014228
C15	C	0.756441	0.163386	-0.015073
C16	C	0.484587	0.208517	-0.019237
C17	C	1.126819	0.042847	-0.003910
C18	C	1.124573	-0.044469	0.004163
C19	C	1.129466	-0.090019	-0.089001
C20	C	1.127350	-0.172061	-0.081413
C21	C	1.120346	-0.208552	0.019342
C22	C	1.115450	-0.162996	0.112513
C23	C	1.117560	-0.080955	0.104923
C24	C	1.113672	-0.456036	0.047109
C25	C	1.111566	-0.538084	0.054692
C26	C	1.123464	-0.547143	-0.139235
C27	C	1.125579	-0.465100	-0.146816
C28	C	1.120677	-0.419551	-0.053645
C29	C	1.118186	-0.292413	0.027101
C30	C	1.122831	-0.335692	-0.061405
C31	C	1.293842	0.192360	-0.017737
C32	C	1.399107	0.201283	-0.018564
C33	C	1.114212	0.329051	-0.030393
C34	C	1.116459	0.416367	-0.038473
N35	N	1.104998	0.197784	0.235978
N36	N	1.136040	0.174109	-0.270278
C37	C	1.091661	0.207966	0.454151
C38	C	1.149375	0.163929	0.511556
C39	C	1.141954	0.169594	0.632954
C40	C	1.099081	0.202301	0.332741
H41	H	0.623277	0.278565	-0.025728
H42	H	1.135174	-0.060314	-0.171047
H43	H	1.112487	-0.322133	0.109136
C44	C	0.607324	0.072988	-0.006490
C45	C	0.632306	0.036578	0.088793
C46	C	0.593734	-0.038332	0.095959
H47	H	0.631766	0.042276	-0.065876
H48	H	0.539762	0.077588	-0.006858
H49	H	0.699855	0.031974	0.089151
H50	H	0.607864	0.067267	0.148196
H51	H	0.526172	-0.033732	0.095591
H52	H	0.618179	-0.069037	0.036568
H53	H	0.610671	-0.063043	0.160612
H54	H	1.204360	0.121973	0.469528
C55	C	1.132770	-0.221382	-0.182689
C56	C	1.139407	-0.171867	-0.272548
C57	C	1.144434	-0.217275	-0.365866
H58	H	1.077002	-0.251483	-0.184148
H59	H	1.187463	-0.255665	-0.183584
H60	H	1.084720	-0.137598	-0.271654
H61	H	1.195173	-0.141766	-0.271125
H62	H	1.199127	-0.251557	-0.366761
H63	H	1.088665	-0.247374	-0.367314
H64	H	1.148947	-0.183686	-0.426847
C65	C	1.132924	-0.425592	-0.256289
C66	C	1.054467	-0.445223	-0.313113
C67	C	1.061173	-0.408867	-0.413981
H68	H	1.190179	-0.443008	-0.294833
H69	H	1.133421	-0.370190	-0.247617
H70	H	1.053979	-0.500613	-0.321788
H71	H	0.997201	-0.427805	-0.274601
H72	H	1.061670	-0.353466	-0.405309
H73	H	1.118430	-0.426287	-0.452515
H74	H	1.007937	-0.422176	-0.452545
C75	C	1.018449	0.263895	0.510375
C76	C	1.025579	0.258487	0.621350
C77	C	0.958165	0.310006	0.673190
H78	H	0.956152	0.250215	0.493417
H79	H	1.030192	0.316199	0.487232
H80	H	1.013829	0.206194	0.644484
H81	H	1.087861	0.272174	0.638339
H82	H	0.969909	0.362310	0.650047
H83	H	0.895873	0.296321	0.656224
H84	H	0.963000	0.306349	0.748491
C85	C	1.128952	-0.596554	-0.240432
C86	C	1.214537	-0.582473	-0.300491
C87	C	1.219618	-0.627979	-0.393721
H88	H	1.076572	-0.582880	-0.281817
H89	H	1.126739	-0.650655	-0.221543
H90	H	1.216741	-0.528384	-0.319381
H91	H	1.266932	-0.596151	-0.259138
H92	H	1.217405	-0.682080	-0.374832
H93	H	1.167234	-0.614302	-0.435096
H94	H	1.277690	-0.618437	-0.434477
H95	H	1.105858	-0.567792	0.136742
C96	C	1.108424	-0.406730	0.148389
C97	C	1.101882	-0.456252	0.238245
C98	C	1.097071	-0.410856	0.331567
H99	H	1.053780	-0.372403	0.149436
H100	H	1.164258	-0.376678	0.149700
H101	H	1.046054	-0.486291	0.236935
H102	H	1.156519	-0.490579	0.237233
H103	H	1.152905	-0.380805	0.332879
H104	H	1.042427	-0.376531	0.332604
H105	H	1.092640	-0.444451	0.392545
H106	H	1.109742	-0.192714	0.194550
C107	C	1.112272	-0.031636	0.206200
C108	C	1.105706	-0.081151	0.296062
C109	C	1.100835	-0.035747	0.389378
H110	H	1.057617	0.002677	0.207210
H111	H	1.168091	-0.001569	0.207540
H112	H	1.049893	-0.111205	0.294722
H113	H	1.160355	-0.115464	0.295087
H114	H	1.156654	-0.005680	0.390718
H115	H	1.046180	-0.001436	0.390378
H116	H	1.096388	-0.069337	0.450360
H117	H	1.128526	-0.305977	-0.143439
