data_functionalizedCrystal
_audit_creation_method	'MofGen! by Chris Wilmer'
_symmetry_space_group_name_H-M	'P1'
_symmetry_Int_Tables_number	1
_symmetry_cell_setting	triclinic
loop_
_symmetry_equiv_pos_as_xyz
  x,y,z
_cell_length_a	19.288864
_cell_length_b	11.792241
_cell_length_c	17.766277
_cell_angle_alpha	89.993523
_cell_angle_beta	89.976791
_cell_angle_gamma	83.664831
loop_
_atom_site_label
_atom_site_type_symbol
_atom_site_fract_x
_atom_site_fract_y
_atom_site_fract_z
O1	O	0.922157	0.141582	-0.062836
O2	O	0.720005	0.160681	-0.062785
O3	O	0.825987	-0.014113	-0.062806
O4	O	0.816176	0.316377	-0.062814
O5	O	0.825968	-0.014122	0.062382
O6	O	0.719986	0.160673	0.062404
O7	O	0.922139	0.141573	0.062352
Cu8	Cu	0.821061	0.151122	0.073809
Cu9	Cu	0.821083	0.151133	-0.074241
O10	O	0.816157	0.316368	0.062374
C11	C	0.694116	0.160063	-0.000184
C12	C	0.617002	0.158218	-0.000164
C13	C	0.825361	-0.056399	-0.000212
C14	C	0.823517	-0.182385	-0.000212
C15	C	0.572888	0.260779	-0.000178
C16	C	0.500431	0.259046	-0.000187
C17	C	0.472091	0.154746	-0.000196
C18	C	0.516215	0.052171	-0.000177
C19	C	0.588670	0.053907	-0.000161
C20	C	0.363370	0.072757	-0.044078
C21	C	0.290916	0.071025	-0.044099
C22	C	0.248615	0.149387	-0.000241
C23	C	0.278776	0.229499	0.043627
C24	C	0.351232	0.231235	0.043643
C25	C	0.393526	0.152852	-0.000212
C26	C	0.125935	0.250076	-0.000263
C27	C	0.053477	0.248339	-0.000267
C28	C	0.069262	0.041460	-0.000265
C29	C	0.141718	0.043201	-0.000254
C30	C	0.170050	0.147512	-0.000257
C31	C	0.820125	-0.413045	-0.000224
C32	C	0.822009	-0.284689	-0.000218
C33	C	0.948028	0.142192	-0.000250
C34	C	1.025142	0.144037	-0.000275
C35	C	0.816783	0.358654	-0.000222
C36	C	0.818627	0.484640	-0.000226
N37	N	0.821050	0.151114	0.177939
N38	N	0.821099	0.151132	-0.178371
C39	C	0.867994	0.073753	0.217316
C40	C	0.867998	0.073748	0.296118
C41	C	0.821065	0.151123	0.335540
C42	C	0.774112	0.228490	0.296153
C43	C	0.774105	0.228486	0.217353
C44	C	0.812354	0.254534	0.460377
C45	C	0.812366	0.254540	0.539175
C46	C	0.821084	0.151137	0.578586
C47	C	0.829804	0.047723	0.539188
C48	C	0.829797	0.047719	0.460388
C49	C	0.821067	0.151136	0.420985
C50	C	0.868035	0.073764	0.703409
C51	C	0.868034	0.073757	0.782213
C52	C	0.774151	0.228509	0.782246
C53	C	0.774148	0.228506	0.703444
C54	C	0.821094	0.151135	0.664030
H55	H	0.464507	0.342567	-0.000196
N56	N	0.038703	-0.071036	-0.000278
H57	H	0.077648	-0.135747	-0.000269
H58	H	0.008961	-0.076265	0.046126
N59	N	0.636258	-0.056714	-0.000155
H60	H	0.666648	-0.060605	0.046257
H61	H	0.607268	-0.122993	-0.000189
N62	N	0.802957	0.366071	0.417876
H63	H	0.804274	0.350379	0.361978
H64	H	0.756555	0.409283	0.431670
N65	N	0.723486	0.311941	0.338666
H66	H	0.730615	0.300207	0.394562
H67	H	0.731805	0.392423	0.324878
N68	N	0.723525	0.311958	0.824756
H69	H	0.693783	0.360967	0.787849
H70	H	0.692664	0.268622	0.857466
N71	N	0.723468	0.311925	0.174876
H72	H	0.693732	0.360940	0.211803
H73	H	0.750240	0.361991	0.142162
N74	N	0.723526	0.311958	0.660962
H75	H	0.692610	0.268711	0.628289
H76	H	0.693839	0.360960	0.697934
N77	N	0.802957	0.366071	0.581666
H78	H	0.797421	0.431575	0.544744
H79	H	0.759982	0.368610	0.614382
H80	H	0.906219	0.010750	0.185228
N81	N	0.189301	-0.067422	-0.000256
H82	H	0.239501	-0.050497	-0.000245
H83	H	0.180059	-0.112902	0.046150
H84	H	0.397806	0.008943	-0.079797
H85	H	0.493136	-0.032752	-0.000195
N86	N	0.918631	-0.009697	0.338603
H87	H	0.948368	-0.058713	0.301677
H88	H	0.949497	0.033637	0.371275
N89	N	0.839199	-0.063809	0.417893
H90	H	0.844724	-0.129319	0.454811
H91	H	0.796977	-0.070259	0.385223
H92	H	0.595951	0.345717	-0.000182
H93	H	0.017560	0.331860	-0.000274
H94	H	0.375786	0.296462	0.079364
N95	N	0.258387	-0.015374	-0.091412
H96	H	0.296177	-0.064762	-0.119185
H97	H	0.232018	-0.064754	-0.057772
N98	N	0.233162	0.314010	0.090946
H99	H	0.263264	0.365017	0.118738
H100	H	0.199400	0.361960	0.057305
N101	N	0.156495	0.362579	-0.000261
H102	H	0.140414	0.407492	0.046145
H103	H	0.209085	0.348025	-0.000284
H104	H	0.836902	-0.036478	0.571275
H105	H	0.906259	0.010759	0.671318
H106	H	0.906259	0.010754	0.814274
