data_functionalizedCrystal
_audit_creation_method	'MofGen! by Chris Wilmer'
_symmetry_space_group_name_H-M	'P1'
_symmetry_Int_Tables_number	1
_symmetry_cell_setting	triclinic
loop_
_symmetry_equiv_pos_as_xyz
  x,y,z
_cell_length_a	16.109301
_cell_length_b	11.792241
_cell_length_c	15.186229
_cell_angle_alpha	89.996105
_cell_angle_beta	89.999362
_cell_angle_gamma	83.827448
loop_
_atom_site_label
_atom_site_type_symbol
_atom_site_fract_x
_atom_site_fract_y
_atom_site_fract_z
O1	O	1.103817	0.145885	-0.073173
O2	O	0.861841	0.164040	-0.073187
O3	O	0.988701	-0.010259	-0.073174
O4	O	0.976957	0.320185	-0.073187
O5	O	0.988692	-0.010262	0.073284
O6	O	0.861832	0.164038	0.073270
O7	O	1.103809	0.145883	0.073284
Zn8	Zn	0.982819	0.154960	0.096530
Zn9	Zn	0.982830	0.154963	-0.096433
O10	O	0.976948	0.320182	0.073271
C11	C	0.830858	0.163304	0.000040
C12	C	0.738552	0.161099	0.000034
C13	C	0.516743	0.259398	0.000041
C14	C	0.430012	0.257318	0.000047
C15	C	0.448914	0.050517	0.000051
C16	C	0.535642	0.052599	0.000052
C17	C	0.569554	0.157043	0.000042
C18	C	0.396095	0.152880	0.000047
C19	C	0.302059	0.150624	0.000053
C20	C	0.663597	0.159300	0.000037
C21	C	0.987959	-0.052545	0.000055
C22	C	0.985751	-0.178539	0.000054
C23	C	0.981691	-0.409216	0.000039
C24	C	0.983947	-0.280850	0.000047
C25	C	1.134791	0.146619	0.000055
C26	C	1.227097	0.148824	0.000055
C27	C	0.977690	0.362468	0.000040
C28	C	0.979898	0.488462	0.000035
N29	N	0.982817	0.154957	0.228223
N30	N	0.982838	0.154957	-0.228126
C31	C	1.039011	0.077803	0.453952
C32	C	1.039013	0.077800	0.546141
C33	C	0.926639	0.232115	0.546139
C34	C	0.926633	0.232111	0.453951
C35	C	0.982824	0.154957	0.407860
C36	C	0.982832	0.154958	0.592237
C37	C	0.982835	0.154955	0.692193
C38	C	0.982820	0.154957	0.307897
H39	H	1.084763	0.014978	0.416427
C40	C	0.489345	0.463601	0.000048
C41	C	0.554020	0.374201	0.000042
H42	H	0.512359	0.534476	0.000056
H43	H	0.455914	0.458495	-0.051023
H44	H	0.455910	0.458471	0.051123
H45	H	0.587452	0.379326	-0.051037
H46	H	0.587465	0.379310	0.051118
C47	C	0.644150	-0.065024	-0.075234
C48	C	0.593702	-0.059918	0.000051
H49	H	0.679996	-0.134481	-0.075228
H50	H	0.609924	-0.061544	-0.126298
H51	H	0.676753	-0.002518	-0.075224
H52	H	0.561094	-0.122420	0.000038
H53	H	0.627931	-0.063410	0.051128
C54	C	1.150095	-0.074720	0.536878
C55	C	1.100779	-0.007005	0.596806
H56	H	1.188231	-0.127072	0.568158
H57	H	1.115306	-0.115560	0.500929
H58	H	1.180206	-0.027448	0.500915
H59	H	1.070664	-0.054276	0.632765
H60	H	1.135574	0.033838	0.632771
H61	H	0.387016	0.340666	0.000047
H62	H	0.421291	-0.034518	0.000064
C63	C	0.876758	0.300649	0.687456
C64	C	0.864885	0.316931	0.596805
H65	H	0.838637	0.353020	0.718732
H66	H	0.867386	0.224909	0.702568
H67	H	0.932304	0.312996	0.702546
H68	H	0.809342	0.304575	0.581714
H69	H	0.874252	0.392689	0.581687
C70	C	0.815558	0.384660	0.463200
C71	C	0.864870	0.316928	0.403279
H72	H	0.777433	0.437021	0.431915
H73	H	0.785443	0.337408	0.499162
H74	H	0.850358	0.425500	0.499152
H75	H	0.830070	0.276081	0.367331
H76	H	0.894987	0.364186	0.367302
