data_functionalizedCrystal
_audit_creation_method	'MofGen! by Chris Wilmer'
_symmetry_space_group_name_H-M	'P1'
_symmetry_Int_Tables_number	1
_symmetry_cell_setting	triclinic
loop_
_symmetry_equiv_pos_as_xyz
  x,y,z
_cell_length_a	12.594517
_cell_length_b	12.594516
_cell_length_c	16.959447
_cell_angle_alpha	89.973179
_cell_angle_beta	89.994089
_cell_angle_gamma	90.007702
loop_
_atom_site_label
_atom_site_type_symbol
_atom_site_fract_x
_atom_site_fract_y
_atom_site_fract_z
Zn1	Zn	1.627240	-0.423838	-0.446751
Zn2	Zn	1.627161	-0.601845	-0.314580
Zn3	Zn	1.449261	-0.423868	-0.314607
Zn4	Zn	1.449239	-0.601762	-0.446738
O5	O	1.538225	-0.512828	-0.380669
O6	O	1.776175	-0.447473	-0.429212
O7	O	1.603538	-0.578283	-0.203973
O8	O	1.472912	-0.274918	-0.332153
O9	O	1.776117	-0.578254	-0.332106
O10	O	1.603673	-0.274896	-0.429238
O11	O	1.472836	-0.447524	-0.203993
O12	O	1.300312	-0.447444	-0.332141
O13	O	1.472875	-0.578113	-0.557351
O14	O	1.300296	-0.578142	-0.429217
O15	O	1.603651	-0.447393	-0.557360
O16	O	1.603517	-0.750780	-0.332094
O17	O	1.472799	-0.750719	-0.429190
C18	C	1.538176	-0.789369	-0.380655
C19	C	1.538252	-0.907675	-0.380676
C20	C	1.261684	-0.512788	-0.380681
C21	C	1.143379	-0.512796	-0.380705
C22	C	1.609433	-0.976922	-0.327922
C23	C	1.635434	-1.047622	-0.400064
C24	C	1.512384	-1.047773	-0.308579
C25	C	1.564303	-0.976817	-0.452856
C26	C	1.441208	-0.976961	-0.361323
C27	C	1.467173	-1.047630	-0.433515
C28	C	1.074148	-0.584022	-0.433402
C29	C	1.003330	-0.486977	-0.452842
C30	C	1.003398	-0.609922	-0.361247
C31	C	1.074119	-0.415699	-0.400183
C32	C	1.074194	-0.538710	-0.308554
C33	C	1.003407	-0.441598	-0.327967
C34	C	1.815846	-0.512869	-0.380657
C35	C	1.934151	-0.512887	-0.380652
C36	C	1.538269	-0.512740	-0.586837
C37	C	1.538288	-0.512703	-0.674694
C38	C	1.538304	-0.235207	-0.380700
C39	C	1.538337	-0.116902	-0.380713
C40	C	1.470326	-0.580650	-1.046167
C41	C	1.606505	-0.444531	-1.046172
C42	C	1.606477	-0.444553	-0.963626
C43	C	1.538373	-0.512626	-0.922347
C44	C	1.470298	-0.580677	-0.963614
C45	C	1.674558	-0.376511	-0.922353
C46	C	1.674533	-0.376532	-0.839802
C47	C	1.606424	-0.444601	-0.798522
C48	C	1.538345	-0.512653	-0.839793
C49	C	1.470241	-0.580727	-0.798514
C50	C	1.402157	-0.648775	-0.839785
C51	C	1.402188	-0.648746	-0.922333
C52	C	1.606392	-0.444629	-0.715973
C53	C	1.470213	-0.580753	-0.715961
C54	C	1.538242	-0.512839	-0.175303
C55	C	1.538430	-0.512577	-0.087447
H56	H	1.717538	-1.078663	-0.416454
N57	N	1.591915	-0.937909	-0.529391
N58	N	1.535891	-0.961271	-0.587693
H59	H	1.555395	-0.933791	-0.641745
N60	N	0.964274	-0.459541	-0.529360
N61	N	0.906230	-0.522976	-0.566152
H62	H	0.878651	-0.503608	-0.620195
H63	H	1.661957	-0.389114	-1.079786
N64	N	1.112899	-0.312672	-0.420904
N65	N	1.049068	-0.239303	-0.435616
H66	H	1.076457	-0.166541	-0.450254
H67	H	1.414890	-0.636050	-1.079773
N68	N	1.484873	-1.086886	-0.232081
N69	N	1.479741	-1.184666	-0.220004
H70	H	1.460317	-1.212288	-0.165976
N71	N	1.744097	-0.306964	-0.964522
N72	N	1.737054	-0.208751	-0.955321
H73	H	1.786163	-0.159626	-0.985108
H74	H	1.407014	-1.078480	-0.478195
H75	H	1.669637	-0.945875	-0.283349
N76	N	1.744085	-0.307022	-0.797662
N77	N	1.804889	-0.246252	-0.834529
H78	H	1.854010	-0.197158	-0.804767
N79	N	0.964697	-0.365992	-0.272034
N80	N	0.987577	-0.269920	-0.279397
H81	H	0.960238	-0.216521	-0.239897
N82	N	1.113106	-0.659438	-0.489383
N83	N	1.090366	-0.649784	-0.560768
H84	H	1.117880	-0.703042	-0.600307
N85	N	1.113263	-0.566210	-0.232058
N86	N	1.090658	-0.654299	-0.202508
H87	H	1.118251	-0.673733	-0.148482
H88	H	0.972327	-0.692021	-0.344814
N89	N	1.338238	-0.937999	-0.340729
N90	N	1.298671	-0.960724	-0.275264
H91	H	1.225946	-0.933206	-0.260710
N92	N	1.400630	-0.650288	-0.673810
N93	N	1.339848	-0.711031	-0.710670
H94	H	1.290702	-0.760140	-0.680902
H95	H	1.346712	-0.704205	-0.806165
H96	H	1.346761	-0.704150	-0.955943
H97	H	1.661828	-0.389229	-0.682374
