data_functionalizedCrystal
_audit_creation_method	'MofGen! by Chris Wilmer'
_symmetry_space_group_name_H-M	'P1'
_symmetry_Int_Tables_number	1
_symmetry_cell_setting	triclinic
loop_
_symmetry_equiv_pos_as_xyz
  x,y,z
_cell_length_a	16.120484
_cell_length_b	18.215407
_cell_length_c	18.215399
_cell_angle_alpha	89.980167
_cell_angle_beta	87.130211
_cell_angle_gamma	87.073985
loop_
_atom_site_label
_atom_site_type_symbol
_atom_site_fract_x
_atom_site_fract_y
_atom_site_fract_z
Zn1	Zn	-0.331906	-1.110213	0.430960
Zn2	Zn	0.168094	-0.610213	0.930960
Zn3	Zn	-0.471328	-1.103879	0.314129
Zn4	Zn	0.028672	-0.603879	0.814129
Zn5	Zn	-0.331934	-0.987144	0.307908
Zn6	Zn	0.168066	-0.487144	0.807908
Zn7	Zn	-0.471282	-0.980871	0.437152
Zn8	Zn	0.028718	-0.480871	0.937152
O9	O	-0.401612	-1.045527	0.372537
O10	O	0.098388	-0.545527	0.872537
O11	O	-0.350409	-1.212356	0.415474
O12	O	0.149591	-0.712356	0.915474
O13	O	-0.452868	-1.088368	0.210321
O14	O	0.047132	-0.588368	0.710321
O15	O	-0.215264	-1.008745	0.319037
O16	O	0.284736	-0.508745	0.819037
O17	O	-0.452841	-1.207703	0.329639
O18	O	0.047159	-0.707703	0.829639
O19	O	-0.215244	-1.099163	0.409442
O20	O	0.284756	-0.599163	0.909442
O21	O	-0.350456	-1.002604	0.205751
O22	O	0.149544	-0.502604	0.705751
O23	O	-0.350411	-0.883328	0.325041
O24	O	0.149589	-0.383328	0.825041
O25	O	-0.452762	-0.998054	0.539313
O26	O	0.047238	-0.498054	1.039313
O27	O	-0.452789	-0.878719	0.419995
O28	O	0.047211	-0.378719	0.919995
O29	O	-0.350364	-1.093081	0.534764
O30	O	0.149636	-0.593081	1.034764
O31	O	-0.587988	-1.082286	0.335643
O32	O	-0.087988	-0.582286	0.835643
O33	O	-0.587954	-0.991913	0.426027
O34	O	-0.087954	-0.491913	0.926027
C35	C	-0.618221	-1.035751	0.382198
C36	C	-0.118221	-0.535751	0.882198
C37	C	-0.710887	-1.031637	0.386356
C38	C	-0.210887	-0.531637	0.886356
C39	C	-0.401598	-0.854321	0.372516
C40	C	0.098402	-0.354321	0.872516
C41	C	-0.401612	-0.772522	0.372525
C42	C	0.098388	-0.272522	0.872525
C43	C	-0.401555	-1.045574	0.564488
C44	C	0.098445	-0.545574	1.064488
C45	C	-0.401530	-1.045594	0.646286
C46	C	0.098470	-0.545594	1.146286
C47	C	-0.880549	-1.024129	0.393961
C48	C	-0.380549	-0.524129	0.893961
C49	C	-0.921836	-1.067056	0.351125
C50	C	-0.421836	-0.567056	0.851125
C51	C	-1.016241	-1.062879	0.355357
C52	C	-0.516241	-0.562879	0.855357
C53	C	-0.786135	-1.028305	0.389730
C54	C	-0.286135	-0.528305	0.889730
C55	C	-0.184158	-1.055360	0.362855
C56	C	0.315842	-0.555360	0.862855
C57	C	-0.091492	-1.059551	0.358729
C58	C	0.408508	-0.559551	0.858729
C59	C	-0.401627	-1.237479	0.372560
C60	C	0.098373	-0.737479	0.872560
C61	C	-0.401634	-1.319277	0.372569
C62	C	0.098366	-0.819277	0.872569
C63	C	-0.455004	-0.581943	0.421912
C64	C	0.044996	-0.081943	0.921912
C65	C	-0.455007	-0.505085	0.421921
C66	C	0.044993	-0.005085	0.921921
C67	C	-0.348236	-0.509861	0.323179
C68	C	0.151764	-0.009861	0.823179
C69	C	-0.348229	-0.586719	0.323174
C70	C	0.151771	-0.086719	0.823174
C71	C	-0.401619	-0.622758	0.372540
C72	C	0.098381	-0.122758	0.872540
C73	C	-0.401627	-0.469041	0.372554
C74	C	0.098373	0.030959	0.872554
C75	C	-0.401630	-0.385708	0.372564
C76	C	0.098370	0.114292	0.872564
C77	C	-0.401615	-0.706097	0.372531
C78	C	0.098385	-0.206097	0.872531
C79	C	-0.401610	-1.045524	0.181331
C80	C	0.098390	-0.545524	0.681331
C81	C	-0.401399	-1.045657	0.099523
C82	C	0.098601	-0.545657	0.599523
C83	C	-0.348162	-1.095094	0.832110
C84	C	0.151838	-0.595094	1.332110
C85	C	-0.348138	-1.095104	0.908967
C86	C	0.151862	-0.595104	1.408967
C87	C	-0.454770	-0.996153	0.913694
C88	C	0.045230	-0.496153	1.413694
C89	C	-0.454790	-0.996140	0.836837
C90	C	0.045210	-0.496140	1.336837
C91	C	-0.401487	-1.045615	0.796047
C92	C	0.098513	-0.545615	1.296047
C93	C	-0.401443	-1.045637	0.949761
C94	C	0.098557	-0.545637	1.449761
C95	C	-0.401417	-1.045648	1.033094
C96	C	0.098583	-0.545648	1.533094
C97	C	-0.401511	-1.045603	0.712709
C98	C	0.098489	-0.545603	1.212709
H99	H	-0.886281	-1.106944	0.311274
H100	H	-0.386281	-0.606944	0.811274
C101	C	-0.513407	-0.941739	0.958561
C102	C	-0.013407	-0.441739	1.458561
H103	H	-0.545163	-0.912265	0.926074
H104	H	-0.045163	-0.412265	1.426074
H105	H	-0.549725	-0.968255	0.990164
H106	H	-0.049725	-0.468255	1.490164
H107	H	-0.481502	-0.911117	0.987118
H108	H	0.018498	-0.411117	1.487118
H109	H	-0.916101	-0.984243	0.433809
H110	H	-0.416101	-0.484243	0.933809
C111	C	-0.513722	-0.621584	0.476218
C112	C	-0.013722	-0.121584	0.976218
H113	H	-0.545510	-0.586266	0.505628
H114	H	-0.045510	-0.086266	1.005628
H115	H	-0.550007	-0.649920	0.449635
H116	H	-0.050007	-0.149920	0.949635
H117	H	-0.481865	-0.653014	0.506908
H118	H	0.018135	-0.153014	1.006908
H119	H	-0.498478	-0.471857	0.462126
H120	H	0.001522	0.028143	0.962126
C121	C	-0.289522	-0.470216	0.268874
C122	C	0.210478	0.029784	0.768874
H123	H	-0.297177	-0.418596	0.275942
H124	H	0.202823	0.081404	0.775942
H125	H	-0.233519	-0.485339	0.277220
H126	H	0.266481	0.014661	0.777220
H127	H	-0.301662	-0.482246	0.219949
H128	H	0.198338	0.017754	0.719949
C129	C	-0.513455	-0.941714	0.797166
C130	C	-0.013455	-0.441714	1.297166
H131	H	-0.545207	-0.912259	0.832465
H132	H	-0.045207	-0.412259	1.332465
H133	H	-0.481573	-0.911085	0.765757
H134	H	0.018427	-0.411085	1.265757
H135	H	-0.549790	-0.968229	0.768808
H136	H	-0.049790	-0.468229	1.268808
C137	C	-0.289503	-0.631618	0.268861
C138	C	0.210497	-0.131618	0.768861
H139	H	-0.257716	-0.599147	0.239454
H140	H	0.242284	-0.099147	0.739454
H141	H	-0.253217	-0.663248	0.295444
H142	H	0.246783	-0.163248	0.795444
H143	H	-0.321354	-0.660149	0.238167
H144	H	0.178646	-0.160149	0.738167
C145	C	-0.289521	-1.149504	0.787243
C146	C	0.210479	-0.649504	1.287243
H147	H	-0.257753	-1.178968	0.819731
H148	H	0.242247	-0.678968	1.319731
H149	H	-0.321414	-1.180127	0.758683
H150	H	0.178586	-0.680127	1.258683
H151	H	-0.253201	-1.122980	0.755643
H152	H	0.246799	-0.622980	1.255643
C153	C	-0.289484	-1.149534	0.948633
C154	C	0.210516	-0.649534	1.448633
H155	H	-0.257748	-1.178999	0.913331
H156	H	0.242252	-0.678999	1.413331
H157	H	-0.253147	-1.123032	0.976993
H158	H	0.246853	-0.623032	1.476993
H159	H	-0.321376	-1.180164	0.980040
H160	H	0.178624	-0.680164	1.480040
