data_functionalizedCrystal
_audit_creation_method	'MofGen! by Chris Wilmer'
_symmetry_space_group_name_H-M	'P1'
_symmetry_Int_Tables_number	1
_symmetry_cell_setting	triclinic
loop_
_symmetry_equiv_pos_as_xyz
  x,y,z
_cell_length_a	16.974800
_cell_length_b	9.798715
_cell_length_c	16.992695
_cell_angle_alpha	89.996563
_cell_angle_beta	92.978326
_cell_angle_gamma	86.346869
loop_
_atom_site_label
_atom_site_type_symbol
_atom_site_fract_x
_atom_site_fract_y
_atom_site_fract_z
O1	O	1.055459	-0.003125	-0.099873
O2	O	0.826057	0.022225	-0.112613
O3	O	0.939839	0.009641	0.007898
O4	O	0.941678	0.009459	-0.220385
O5	O	0.939830	-0.217341	0.007898
O6	O	0.826048	-0.204757	-0.112613
O7	O	1.055450	-0.230106	-0.099873
Zn8	Zn	0.940748	-0.253470	-0.106243
Zn9	Zn	0.940760	0.045588	-0.106243
O10	O	0.941669	-0.217522	-0.220385
C11	C	0.796564	-0.088008	-0.112131
C12	C	0.708696	-0.078298	-0.110683
C13	C	0.667415	-0.197467	-0.110001
C14	C	0.584854	-0.188348	-0.108628
C15	C	0.543575	-0.060059	-0.107944
C16	C	0.584862	0.059119	-0.108623
C17	C	0.667422	0.049999	-0.109990
C18	C	0.296659	-0.019514	-0.103850
C19	C	0.214093	-0.010402	-0.102485
C20	C	0.214091	-0.257871	-0.102489
C21	C	0.296652	-0.266980	-0.103861
C22	C	0.337932	-0.147802	-0.104536
N23	N	0.459185	-0.050734	-0.106543
N24	N	0.422321	-0.157128	-0.105931
N25	N	0.940746	-0.457569	-0.106242
C26	C	0.988507	-0.530628	-0.055422
C27	C	0.988520	-0.687792	-0.055419
C28	C	1.084944	-0.119871	-0.100356
C29	C	1.172812	-0.129571	-0.101803
C30	C	0.937468	-0.103588	0.037108
C31	C	0.930409	-0.102808	0.124144
N32	N	0.940768	0.249687	-0.106238
C33	C	0.944040	-0.104290	-0.249595
C34	C	0.951099	-0.105062	-0.336631
C35	C	0.998524	-0.110336	0.174462
C36	C	0.991886	-0.109590	0.256241
C37	C	0.917132	-0.101325	0.287701
C38	C	0.849011	-0.093792	0.237377
C39	C	0.855650	-0.094528	0.155600
C40	C	0.889617	-0.098265	0.531268
C41	C	0.882984	-0.097533	0.613052
C42	C	1.025859	-0.113329	0.631910
C43	C	1.032491	-0.114073	0.550130
C44	C	0.964371	-0.106533	0.499813
N45	N	0.910345	-0.100566	0.371292
N46	N	0.971158	-0.107282	0.416224
H47	H	0.330259	0.077529	-0.104398
H48	H	0.788145	-0.087053	0.262998
O49	O	0.823388	-0.090769	0.482480
C50	C	0.778321	0.031781	0.496712
H51	H	0.793822	0.069264	0.558766
H52	H	0.791954	0.112591	0.451988
C53	C	0.670696	-0.040186	0.412635
C54	C	0.689730	0.005846	0.488853
H55	H	0.616049	-0.056180	0.407783
H56	H	0.701059	-0.122748	0.403043
H57	H	0.682062	0.027164	0.375373
H58	H	0.678373	-0.061510	0.526112
H59	H	0.659363	0.088396	0.498451
H60	H	1.029414	-0.750600	-0.011913
H61	H	0.800183	-0.088398	0.114631
H62	H	0.180472	-0.354899	-0.101938
H63	H	0.701017	-0.301934	-0.110565
O64	O	0.544734	-0.304077	-0.107820
C65	C	0.501643	-0.306717	-0.039163
H66	H	0.529790	-0.239604	0.007857
H67	H	0.438014	-0.266463	-0.053465
C68	C	0.467936	-0.537066	-0.066111
C69	C	0.502510	-0.454646	-0.008358
H70	H	0.468466	-0.628315	-0.047110
H71	H	0.496964	-0.535287	-0.112369
H72	H	0.414914	-0.503504	-0.078024
H73	H	0.555533	-0.488197	0.003547
H74	H	0.473491	-0.456434	0.037903
H75	H	1.093364	-0.120804	0.524522
O76	O	0.336777	-0.391566	-0.104658
C77	C	0.379880	-0.403709	-0.173308
H78	H	0.351734	-0.330391	-0.220337
H79	H	0.443505	-0.377483	-0.158998
C80	C	0.413606	-0.641492	-0.146335
C81	C	0.379032	-0.551449	-0.204100
H82	H	0.413087	-0.732626	-0.165329
H83	H	0.384570	-0.633311	-0.100083
H84	H	0.466624	-0.619620	-0.134416
H85	H	0.326013	-0.573311	-0.216011
H86	H	0.408060	-0.559638	-0.250355
O87	O	0.891857	-0.521671	-0.158071
C88	C	0.812720	-0.478111	-0.145622
H89	H	0.808172	-0.438241	-0.082893
H90	H	0.792311	-0.393028	-0.189193
C91	C	0.765577	-0.648287	-0.234950
C92	C	0.759989	-0.599329	-0.157902
H93	H	0.733048	-0.723057	-0.242528
H94	H	0.818892	-0.677632	-0.243339
H95	H	0.748571	-0.577373	-0.271250
H96	H	0.777004	-0.670237	-0.121605
H97	H	0.706675	-0.569999	-0.149507
O98	O	1.037306	-0.466668	-0.003440
C99	C	1.081733	-0.565114	0.043799
H100	H	1.049317	-0.663437	0.044635
H101	H	1.142162	-0.586913	0.018552
C102	C	1.132235	-0.389625	0.127350
C103	C	1.092418	-0.510384	0.128382
H104	H	1.138830	-0.355864	0.179524
H105	H	1.102306	-0.323299	0.095523
H106	H	1.182588	-0.407807	0.106307
H107	H	1.042062	-0.492197	0.149415
H108	H	1.122338	-0.576706	0.160215
O109	O	0.892092	-0.675266	-0.158183
C110	C	0.937668	-0.597659	-0.206367
H111	H	0.997494	-0.582983	-0.174932
H112	H	0.946838	-0.653654	-0.264306
C113	C	0.820773	-0.475093	-0.261807
C114	C	0.894249	-0.457059	-0.223195
H115	H	0.793989	-0.388367	-0.272191
H116	H	0.790066	-0.527382	-0.229347
H117	H	0.828424	-0.521760	-0.310085
H118	H	0.886597	-0.410408	-0.174914
H119	H	0.924953	-0.404759	-0.255647
H120	H	0.551247	0.163576	-0.108060
H121	H	0.180486	0.094072	-0.101930
H122	H	0.701032	0.147039	-0.110547
O123	O	1.091947	-0.120572	0.680899
C124	C	1.070062	-0.118183	0.759825
H125	H	1.007764	-0.068329	0.762888
H126	H	1.071563	-0.227243	0.783485
C127	C	1.204802	-0.096828	0.806177
C128	C	1.128288	-0.035586	0.809941
H129	H	1.240720	-0.045885	0.837093
H130	H	1.219547	-0.098442	0.753004
H131	H	1.206041	-0.187709	0.825892
H132	H	1.127047	0.055286	0.790217
H133	H	1.113544	-0.033955	0.863112
O134	O	1.071202	-0.118308	0.144036
C135	C	1.129898	-0.124822	0.205988
H136	H	1.104222	-0.079014	0.261514
H137	H	1.151155	-0.236064	0.217589
C138	C	1.231517	-0.099808	0.114783
C139	C	1.199983	-0.043535	0.182980
H140	H	1.274751	-0.049673	0.100590
H141	H	1.191973	-0.095425	0.073043
H142	H	1.249225	-0.192508	0.124460
H143	H	1.182267	0.049157	0.173299
H144	H	1.239526	-0.047901	0.224717
O145	O	1.058033	-0.116658	0.305148
C146	C	1.058469	0.000840	0.353020
H147	H	1.019934	0.087261	0.323020
H148	H	1.034251	-0.023050	0.412469
C149	C	1.191047	-0.061422	0.402377
C150	C	1.143722	0.044725	0.365528
H151	H	1.243635	-0.034354	0.410097
H152	H	1.190753	-0.140586	0.370128
H153	H	1.170856	-0.081320	0.451914
H154	H	1.163908	0.064610	0.315988
H155	H	1.144022	0.123894	0.397769
H156	H	0.822107	-0.090825	0.638662
