data_functionalizedCrystal
_audit_creation_method	'MofGen! by Chris Wilmer'
_symmetry_space_group_name_H-M	'P1'
_symmetry_Int_Tables_number	1
_symmetry_cell_setting	triclinic
loop_
_symmetry_equiv_pos_as_xyz
  x,y,z
_cell_length_a	14.044220
_cell_length_b	11.792241
_cell_length_c	10.868271
_cell_angle_alpha	90.005281
_cell_angle_beta	89.996185
_cell_angle_gamma	91.308854
loop_
_atom_site_label
_atom_site_type_symbol
_atom_site_fract_x
_atom_site_fract_y
_atom_site_fract_z
O1	O	1.259113	-0.273771	-0.102320
O2	O	1.759113	0.226229	0.397680
O3	O	0.983093	-0.263891	-0.102323
O4	O	1.483093	0.236109	0.397677
O5	O	1.127802	-0.104289	-0.102313
O6	O	1.627802	0.395711	0.397687
O7	O	1.114405	-0.433373	-0.102331
O8	O	1.614405	0.066627	0.397669
O9	O	1.127790	-0.104281	0.102331
O10	O	1.627790	0.395719	0.602331
O11	O	0.983081	-0.263883	0.102321
O12	O	1.483081	0.236117	0.602321
O13	O	1.259101	-0.273763	0.102324
O14	O	1.759101	0.226237	0.602324
Zn15	Zn	1.121089	-0.268822	0.134815
Zn16	Zn	1.621089	0.231178	0.634815
Zn17	Zn	1.121105	-0.268832	-0.134814
Zn18	Zn	1.621105	0.231168	0.365186
O19	O	1.114393	-0.433365	0.102314
O20	O	1.614393	0.066635	0.602314
C21	C	0.947751	-0.259563	-0.000001
C22	C	1.447751	0.240437	0.499999
C23	C	0.842459	-0.246664	-0.000002
C24	C	1.342459	0.253336	0.499998
C25	C	1.294444	-0.278091	-0.000000
C26	C	1.794444	0.221909	0.500000
C27	C	1.399736	-0.290990	-0.000008
C28	C	1.899736	0.209010	0.499992
C29	C	1.126954	-0.061915	0.000009
C30	C	1.626954	0.438085	0.500009
C31	C	1.124435	0.064335	0.000008
C32	C	1.624435	0.564335	0.500008
C33	C	1.592519	-0.314572	-0.000008
C34	C	2.092519	0.185428	0.499992
C35	C	1.649682	-0.223087	-0.000002
C36	C	2.149682	0.276913	0.499998
C37	C	1.756953	-0.236209	-0.000002
C38	C	2.256953	0.263791	0.499998
C39	C	1.485238	-0.301452	-0.000008
C40	C	1.985238	0.198548	0.499992
C41	C	1.115241	-0.475739	-0.000011
C42	C	1.615241	0.024261	0.499989
C43	C	1.117759	-0.601989	-0.000017
C44	C	1.617759	-0.101989	0.499983
N45	N	1.121086	-0.268815	0.318829
N46	N	1.621086	0.231185	0.818829
C47	C	1.119804	0.295482	-0.000013
C48	C	1.619804	0.795482	0.499987
C49	C	1.122377	0.166855	-0.000002
C50	C	1.622377	0.666855	0.499998
N51	N	1.121117	-0.268831	-0.318828
N52	N	1.621117	0.231169	0.181172
C53	C	1.121100	-0.268829	0.569835
C54	C	1.621100	0.231171	1.069835
C55	C	1.121089	-0.268824	0.430157
C56	C	1.621089	0.231176	0.930157
H57	H	1.624141	-0.402742	-0.000013
H58	H	2.124141	0.097258	0.499987
H59	H	1.618057	-0.134910	-0.000087
H60	H	2.118057	0.365090	0.499913
