data_functionalizedCrystal
_audit_creation_method	'MofGen! by Chris Wilmer'
_symmetry_space_group_name_H-M	'P1'
_symmetry_Int_Tables_number	1
_symmetry_cell_setting	triclinic
loop_
_symmetry_equiv_pos_as_xyz
  x,y,z
_cell_length_a	6.817900
_cell_length_b	11.102291
_cell_length_c	19.551136
_cell_angle_alpha	94.539127
_cell_angle_beta	101.650842
_cell_angle_gamma	108.605752
loop_
_atom_site_label
_atom_site_type_symbol
_atom_site_fract_x
_atom_site_fract_y
_atom_site_fract_z
V1	V	-4.076490	-0.396885	-0.096685
O2	O	-4.072252	-0.388686	0.004637
O3	O	-4.018823	-0.394790	-0.191702
O4	O	-4.053813	-0.569697	-0.095202
O5	O	-4.037021	-0.212567	-0.092531
V6	V	-4.557986	-0.374764	-0.084566
O7	O	-4.342196	-0.445409	-0.123271
O8	O	-4.742478	-0.326239	-0.057980
O9	O	-4.392446	-0.376859	0.010451
O10	O	-4.679621	-0.382963	-0.185888
O11	O	-4.714852	-0.559081	-0.088720
O12	O	-4.357457	-0.201951	-0.086049
C13	C	-3.860737	-0.388689	-0.214865
C14	C	-3.895046	-0.388128	-0.292543
C15	C	-3.854611	-0.271397	-0.319030
C16	C	-3.886913	-0.270831	-0.392015
C17	C	-3.959612	-0.387001	-0.438508
C18	C	-4.000063	-0.503747	-0.412013
C19	C	-3.967780	-0.504310	-0.339030
C20	C	-3.936661	-0.471233	-0.559521
C21	C	-3.968929	-0.470664	-0.632502
C22	C	-4.059196	-0.385268	-0.663612
C23	C	-4.117154	-0.300418	-0.621731
C24	C	-4.084871	-0.300982	-0.548748
C25	C	-3.994626	-0.386403	-0.517647
C26	C	-4.053785	-0.267916	-0.769238
C27	C	-4.086103	-0.267355	-0.842224
C28	C	-4.199233	-0.500273	-0.862221
C29	C	-4.166934	-0.500831	-0.789236
C30	C	-4.094201	-0.384649	-0.742748
C31	C	-3.905369	-0.611799	-0.091769
C32	C	-3.968049	-0.753078	-0.091185
C33	C	-4.180240	-0.825947	-0.094395
C34	C	-4.239115	-0.958690	-0.093833
C35	C	-3.873589	-0.945683	-0.086852
C36	C	-3.814714	-0.812942	-0.087409
C37	C	-4.391276	-0.833458	-0.098429
C38	C	-4.450151	-0.966201	-0.097866
C39	C	-4.213873	-0.382957	0.033610
C40	C	-4.158804	-0.383526	0.111287
C41	C	-4.169242	-0.159843	-0.089484
C42	C	-4.085800	-0.018562	-0.090065
H43	H	-3.863157	-0.540778	-0.534198
H44	H	-4.258427	-0.594861	-0.900076
C45	C	-4.012241	-0.632728	-0.309894
N46	N	-4.045719	-0.729453	-0.287947
H47	H	-3.641934	-0.753617	-0.084796
C48	C	-4.216438	-0.206468	-0.655945
N49	N	-4.291207	-0.135703	-0.681719
H50	H	-3.994560	-0.173313	-0.731385
H51	H	-4.575534	-1.019375	-0.148390
C52	C	-4.041619	-0.138935	-0.871359
N53	N	-4.008108	-0.042207	-0.893304
C54	C	-4.211376	-0.629244	-0.760098
N55	N	-4.244850	-0.725971	-0.738152
C56	C	-3.704914	-1.011534	-0.082658
N57	N	-3.577854	-1.061127	-0.079485
H58	H	-4.427942	-0.786055	-0.051002
C59	C	-3.774613	-0.143593	-0.267898
N60	N	-3.714359	-0.047329	-0.229384
C61	C	-4.080016	-0.631533	-0.463157
N62	N	-4.140238	-0.727786	-0.501680
H63	H	-3.921727	-0.539751	-0.666597
C64	C	-4.494641	-0.800858	-0.168823
N65	N	-4.572497	-0.776304	-0.221845
C66	C	-4.523727	-1.005091	-0.030846
N67	N	-4.579137	-1.034384	0.019633
H68	H	-3.853981	-0.175772	-0.413585
H69	H	-4.132069	-0.231896	-0.514651
