data_functionalizedCrystal
_audit_creation_method	'MofGen! by Chris Wilmer'
_symmetry_space_group_name_H-M	'P1'
_symmetry_Int_Tables_number	1
_symmetry_cell_setting	triclinic
loop_
_symmetry_equiv_pos_as_xyz
  x,y,z
_cell_length_a	15.944551
_cell_length_b	19.188930
_cell_length_c	14.421503
_cell_angle_alpha	89.999163
_cell_angle_beta	89.996859
_cell_angle_gamma	83.321760
loop_
_atom_site_label
_atom_site_type_symbol
_atom_site_fract_x
_atom_site_fract_y
_atom_site_fract_z
O1	O	1.114192	0.090038	-0.077026
O2	O	0.869601	0.101140	-0.077050
O3	O	0.998955	-0.006048	-0.077019
O4	O	0.984838	0.197227	-0.077057
O5	O	0.998934	-0.006032	0.077204
O6	O	0.869580	0.101156	0.077173
O7	O	1.114171	0.090054	0.077198
Cu8	Cu	0.991873	0.095607	0.091267
Cu9	Cu	0.991899	0.095588	-0.091120
O10	O	0.984817	0.197243	0.077167
C11	C	0.838298	0.100687	0.000059
C12	C	0.745057	0.099306	0.000050
C13	C	0.998487	-0.032052	0.000095
C14	C	0.997115	-0.109560	0.000103
C15	C	0.530462	0.029563	0.000081
C16	C	0.469331	0.061941	-0.075965
C17	C	0.574341	0.096806	0.000062
C18	C	0.469332	0.061973	0.076087
C19	C	0.409437	0.094386	0.000077
C20	C	0.514438	0.129203	-0.076047
C21	C	0.514446	0.129225	0.076073
C22	C	0.453332	0.161652	0.000008
C23	C	0.669338	0.098198	0.000052
C24	C	0.314441	0.093000	0.000080
C25	C	1.073016	-0.154288	0.000115
C26	C	1.071726	-0.227115	0.000100
C27	C	0.994532	-0.255211	0.000092
C28	C	0.918622	-0.210474	0.000075
C29	C	0.919913	-0.137648	0.000080
N30	N	0.935519	-0.363364	0.052571
N31	N	0.934298	-0.432545	0.052568
C32	C	0.990637	-0.474630	0.000073
N33	N	1.048256	-0.444921	-0.052407
N34	N	1.049480	-0.375733	-0.052400
C35	C	0.993123	-0.334178	0.000085
C36	C	1.065145	-0.598326	0.000067
C37	C	1.063852	-0.671154	0.000046
C38	C	0.910745	-0.654511	0.000030
C39	C	0.912040	-0.581685	0.000041
C40	C	0.989242	-0.553597	0.000064
C41	C	1.145474	0.090507	0.000087
C42	C	1.238715	0.091889	0.000089
C43	C	0.985285	0.223247	0.000050
C44	C	0.986657	0.300755	0.000036
N45	N	0.991862	0.095619	0.219549
N46	N	0.991917	0.095569	-0.219401
C47	C	0.932038	0.145161	0.469188
C48	C	1.007887	0.158716	0.530995
C49	C	0.991882	0.095603	0.408710
C50	C	0.916052	0.082064	0.530997
C51	C	0.991895	0.095588	0.591431
C52	C	1.067770	0.109189	0.469157
C53	C	0.975885	0.032510	0.469153
C54	C	1.051789	0.046038	0.530932
C55	C	0.991874	0.095613	0.303449
C56	C	0.991913	0.095578	0.696690
H57	H	0.564003	-0.026244	-0.000003
C58	C	0.541495	0.167622	0.162920
N59	N	0.561873	0.196537	0.228340
H60	H	1.021430	0.212066	0.558159
C61	C	0.442312	0.023508	-0.162802
N62	N	0.421963	-0.005444	-0.228204
C63	C	1.147354	-0.720356	0.000065
N64	N	1.210249	-0.757415	0.000083
C65	C	0.442330	0.023543	0.162940
N66	N	0.421995	-0.005406	0.228355
H67	H	1.131917	0.120698	0.442107
C68	C	0.829411	0.066599	0.567690
N69	N	0.764150	0.054955	0.595323
C70	C	1.120240	-0.010586	0.567343
N71	N	1.171800	-0.053230	0.594773
H72	H	0.534329	0.157616	-0.140409
H73	H	0.419965	0.217516	-0.000045
C74	C	0.957555	-0.039539	0.432419
N75	N	0.943739	-0.093807	0.404749
H76	H	1.135880	-0.131424	0.000131
C77	C	1.150068	-0.567427	0.000078
N78	N	1.214032	-0.544156	0.000084
C79	C	1.155226	-0.276325	0.000119
N80	N	1.218119	-0.313387	0.000136
H81	H	0.855769	-0.233354	0.000066
H82	H	0.858103	-0.101230	0.000071
H83	H	0.847892	-0.677386	0.000019
C84	C	0.828542	-0.532482	0.000033
N85	N	0.765647	-0.495422	0.000024
H86	H	0.881481	0.187105	0.442078
