data_functionalizedCrystal
_audit_creation_method	'MofGen! by Chris Wilmer'
_symmetry_space_group_name_H-M	'P1'
_symmetry_Int_Tables_number	1
_symmetry_cell_setting	triclinic
loop_
_symmetry_equiv_pos_as_xyz
  x,y,z
_cell_length_a	11.792241
_cell_length_b	14.971486
_cell_length_c	10.268362
_cell_angle_alpha	89.994507
_cell_angle_beta	89.999626
_cell_angle_gamma	83.903772
loop_
_atom_site_label
_atom_site_type_symbol
_atom_site_fract_x
_atom_site_fract_y
_atom_site_fract_z
O1	O	-1.506118	-0.122598	0.108175
O2	O	-1.006118	0.377402	0.608175
O3	O	-1.175695	-0.135233	0.108205
O4	O	-0.675695	0.364767	0.608205
O5	O	-1.349763	0.001249	0.108180
O6	O	-0.849763	0.501249	0.608180
O7	O	-1.332050	-0.259080	0.108200
O8	O	-0.832050	0.240920	0.608200
O9	O	-1.349748	0.001255	-0.108421
O10	O	-0.849748	0.501255	0.391579
O11	O	-1.175680	-0.135227	-0.108396
O12	O	-0.675680	0.364773	0.391604
O13	O	-1.506103	-0.122592	-0.108426
O14	O	-1.006103	0.377408	0.391574
Cu15	Cu	-1.340890	-0.128909	-0.128188
Cu16	Cu	-0.840890	0.371091	0.371812
Cu17	Cu	-1.340908	-0.128916	0.127967
Cu18	Cu	-0.840908	0.371084	0.627967
O19	O	-1.332035	-0.259074	-0.108401
O20	O	-0.832035	0.240926	0.391599
C21	C	-1.133402	-0.134436	-0.000092
C22	C	-0.633402	0.365564	0.499908
C23	C	-1.007404	-0.132061	-0.000080
C24	C	-0.507404	0.367939	0.499920
N25	N	-1.340886	-0.128904	-0.308354
N26	N	-0.840886	0.371096	0.191646
C27	C	-1.548396	-0.123389	-0.000127
C28	C	-1.048396	0.376611	0.499873
C29	C	-1.674395	-0.125764	-0.000130
C30	C	-1.174395	0.374236	0.499870
C31	C	-0.776720	-0.127692	-0.000118
C32	C	-0.276720	0.372308	0.499882
C33	C	-0.905089	-0.130120	-0.000097
C34	C	-0.405089	0.369880	0.499903
C35	C	-1.348963	0.034580	-0.000120
C36	C	-0.848963	0.534580	0.499880
C37	C	-1.346589	0.133887	-0.000119
C38	C	-0.846589	0.633887	0.499881
C39	C	-1.332835	-0.292405	-0.000098
C40	C	-0.832835	0.207595	0.499902
C41	C	-1.335209	-0.391711	-0.000091
C42	C	-0.835209	0.108289	0.499909
C43	C	-1.448849	0.190702	-0.000129
C44	C	-0.948849	0.690702	0.499871
C45	C	-1.446612	0.284011	-0.000116
C46	C	-0.946612	0.784011	0.499884
C47	C	-1.342114	0.320502	-0.000102
C48	C	-0.842114	0.820502	0.499898
C49	C	-1.239846	0.263679	-0.000087
C50	C	-0.739846	0.763679	0.499913
C51	C	-1.242084	0.170372	-0.000091
C52	C	-0.742084	0.670372	0.499909
C53	C	-1.235188	0.458160	-0.000082
C54	C	-0.735188	0.958160	0.499918
C55	C	-1.232949	0.551473	-0.000081
C56	C	-0.732949	1.051473	0.499919
C57	C	-1.439715	0.571798	-0.000107
C58	C	-0.939715	1.071798	0.499893
C59	C	-1.441954	0.478492	-0.000111
C60	C	-0.941954	0.978492	0.499889
C61	C	-1.339685	0.421675	-0.000099
C62	C	-0.839685	0.921675	0.499901
C63	C	-1.340902	-0.128914	-0.574025
C64	C	-0.840902	0.371086	-0.074025
C65	C	-1.340889	-0.128911	-0.426187
C66	C	-0.840889	0.371089	0.073813
N67	N	-1.340921	-0.128914	0.308133
N68	N	-0.840921	0.371086	0.808133
H69	H	-1.533944	0.160999	-0.000149
H70	H	-1.033944	0.660999	0.499851
C71	C	-1.124896	0.303822	-0.000082
C72	C	-0.624896	0.803822	0.499918
N73	N	-1.038314	0.334057	-0.000088
N74	N	-0.538314	0.834057	0.499912
H75	H	-1.529883	0.330267	-0.000127
H76	H	-1.029883	0.830267	0.499873
C77	C	-1.556907	0.438354	-0.000133
C78	C	-1.056907	0.938354	0.499867
N79	N	-1.643492	0.408123	-0.000146
N80	N	-1.143492	0.908123	0.499854
H81	H	-1.522986	0.618063	-0.000112
H82	H	-1.022986	1.118063	0.499888
C83	C	-1.117996	0.591611	-0.000048
C84	C	-0.617996	1.091611	0.499952
N85	N	-1.031411	0.621842	-0.000019
N86	N	-0.531411	1.121842	0.499981
H87	H	-1.151910	0.411902	-0.000069
H88	H	-0.651910	0.911902	0.499931
H89	H	-1.158814	0.124113	-0.000083
H90	H	-0.658814	0.624113	0.499917
