data_functionalizedCrystal
_audit_creation_method	'MofGen! by Chris Wilmer'
_symmetry_space_group_name_H-M	'P1'
_symmetry_Int_Tables_number	1
_symmetry_cell_setting	triclinic
loop_
_symmetry_equiv_pos_as_xyz
  x,y,z
_cell_length_a	16.625548
_cell_length_b	29.839131
_cell_length_c	16.625539
_cell_angle_alpha	89.967906
_cell_angle_beta	89.979432
_cell_angle_gamma	90.042488
loop_
_atom_site_label
_atom_site_type_symbol
_atom_site_fract_x
_atom_site_fract_y
_atom_site_fract_z
Zn1	Zn	1.232574	-0.178840	-0.455888
Zn2	Zn	1.732574	0.321160	0.044112
Zn3	Zn	1.232433	-0.253971	-0.321046
Zn4	Zn	1.732433	0.246029	0.178954
Zn5	Zn	1.097736	-0.178857	-0.321069
Zn6	Zn	1.597736	0.321143	0.178931
Zn7	Zn	1.097662	-0.253945	-0.455836
Zn8	Zn	1.597662	0.246055	0.044164
O9	O	1.165101	-0.216403	-0.388460
O10	O	1.665101	0.283597	0.111540
O11	O	1.345388	-0.188810	-0.438013
O12	O	1.845388	0.311190	0.061987
O13	O	1.214537	-0.244025	-0.208217
O14	O	1.714537	0.255975	0.291783
O15	O	1.115713	-0.115987	-0.338984
O16	O	1.615713	0.384013	0.161016
O17	O	1.345284	-0.244008	-0.338946
O18	O	1.845284	0.255992	0.161054
O19	O	1.214778	-0.115975	-0.438035
O20	O	1.714778	0.384025	0.061965
O21	O	1.115576	-0.188839	-0.208233
O22	O	1.615576	0.311161	0.291767
O23	O	0.984894	-0.188814	-0.338933
O24	O	1.484894	0.311186	0.161067
O25	O	1.115586	-0.243964	-0.568676
O26	O	1.615586	0.256036	-0.068676
O27	O	0.984839	-0.243981	-0.437947
O28	O	1.484839	0.256019	0.062053
O29	O	1.214706	-0.188785	-0.568714
O30	O	1.714706	0.311215	-0.068714
O31	O	1.214465	-0.316834	-0.338896
O32	O	1.714465	0.183166	0.161104
O33	O	1.115449	-0.316815	-0.437925
O34	O	1.615449	0.183185	0.062075
C35	C	0.955610	-0.216397	-0.388437
C36	C	1.455610	0.283603	0.111563
C37	C	0.865989	-0.216405	-0.388447
C38	C	1.365989	0.283595	0.111553
C39	C	0.537814	-0.216408	-0.388481
C40	C	1.037814	0.283592	0.111519
C41	C	0.629122	-0.216406	-0.388469
C42	C	1.129122	0.283594	0.111531
C43	C	0.701899	-0.216406	-0.388463
C44	C	1.201899	0.283594	0.111537
C45	C	0.793213	-0.216404	-0.388452
C46	C	1.293213	0.283596	0.111548
C47	C	1.164956	-0.333126	-0.388420
C48	C	1.664956	0.166874	0.111580
C49	C	1.164967	-0.383060	-0.388430
C50	C	1.664967	0.116940	0.111570
C51	C	1.216752	-0.692701	-0.336971
C52	C	1.716752	-0.192701	0.163029
C53	C	1.216852	-0.880374	-0.337002
C54	C	1.716852	-0.380374	0.162998
O55	O	1.260766	-0.904636	-0.293219
O56	O	1.760766	-0.404636	0.206781
N57	N	1.165268	-0.903845	-0.388521
N58	N	1.665268	-0.403845	0.111479
C59	C	1.113660	-0.880395	-0.440039
C60	C	1.613660	-0.380395	0.059961
O61	O	1.069793	-0.904665	-0.483866
O62	O	1.569793	-0.404665	0.016134
C63	C	1.113565	-0.692723	-0.440011
C64	C	1.613565	-0.192723	0.059989
C65	C	1.165146	-0.669254	-0.388483
C66	C	1.665146	-0.169254	0.111517
C67	C	1.268330	-0.669232	-0.285447
C68	C	1.768330	-0.169232	0.214553
C69	C	1.268302	-0.622316	-0.285437
C70	C	1.768302	-0.122316	0.214563
C71	C	1.216695	-0.598870	-0.336950
C72	C	1.716695	-0.098870	0.163050
C73	C	1.165118	-0.622339	-0.388473
C74	C	1.665118	-0.122339	0.111527
C75	C	1.061962	-0.669274	-0.491533
C76	C	1.561962	-0.169274	0.008467
C77	C	1.061944	-0.622353	-0.491523
C78	C	1.561944	-0.122353	0.008477
C79	C	1.113525	-0.598884	-0.439995
C80	C	1.613525	-0.098884	0.060005
C81	C	1.113483	-0.551977	-0.439975
C82	C	1.613483	-0.051977	0.060025
N83	N	1.165067	-0.528505	-0.388456
N84	N	1.665067	-0.028505	0.111544
C85	C	1.216673	-0.551952	-0.336944
C86	C	1.716673	-0.051952	0.163056
C87	C	1.113712	-0.978926	-0.440049
C88	C	1.613712	-0.478926	0.059951
C89	C	1.113735	-1.025844	-0.440055
C90	C	1.613735	-0.525844	0.059945
C91	C	1.216928	-1.025819	-0.337019
C92	C	1.716928	-0.525819	0.162981
C93	C	1.216901	-0.978900	-0.337009
C94	C	1.716901	-0.478900	0.162991
C95	C	1.165296	-0.955455	-0.388530
C96	C	1.665296	-0.455455	0.111470
C97	C	1.216609	-0.453426	-0.336925
C98	C	1.716609	0.046574	0.163075
C99	C	1.216573	-0.406506	-0.336917
C100	C	1.716573	0.093494	0.163083
C101	C	1.113383	-0.406535	-0.439956
C102	C	1.613383	0.093465	0.060044
C103	C	1.113416	-0.453451	-0.439962
C104	C	1.613416	0.046549	0.060038
C105	C	1.165035	-0.476895	-0.388443
C106	C	1.665035	0.023105	0.111557
O107	O	1.069599	-0.527685	-0.483742
O108	O	1.569599	-0.027685	0.016258
O109	O	1.260546	-0.527674	-0.293136
O110	O	1.760546	-0.027674	0.206864
C111	C	1.216781	-0.739616	-0.336981
C112	C	1.716781	-0.239616	0.163019
C113	C	1.165203	-0.763085	-0.388504
C114	C	1.665203	-0.263085	0.111496
C115	C	1.113597	-0.739639	-0.440017
C116	C	1.613597	-0.239639	0.059983
C117	C	1.165226	-0.810003	-0.388510
C118	C	1.665226	-0.310003	0.111490
C119	C	1.216832	-0.833449	-0.336997
C120	C	1.716832	-0.333449	0.163003
C121	C	1.268416	-0.809978	-0.285479
C122	C	1.768416	-0.309978	0.214521
C123	C	1.268387	-0.763062	-0.285468
C124	C	1.768387	-0.263062	0.214532
C125	C	1.062014	-0.763110	-0.491536
C126	C	1.562014	-0.263110	0.008464
C127	C	1.062046	-0.810026	-0.491541
C128	C	1.562046	-0.310026	0.008459
C129	C	1.113652	-0.833472	-0.440028
C130	C	1.613652	-0.333472	0.059972
C131	C	1.375410	-0.216410	-0.388483
C132	C	1.875410	0.283590	0.111517
C133	C	1.465031	-0.216413	-0.388493
C134	C	1.965031	0.283587	0.111507
C135	C	1.165154	-0.216370	-0.598769
C136	C	1.665154	0.283630	-0.098769
C137	C	1.165176	-0.216355	-0.688390
C138	C	1.665176	0.283645	-0.188390
C139	C	1.165269	-0.099225	-0.388518
C140	C	1.665269	0.400775	0.111482
C141	C	1.165341	-0.049290	-0.388542
C142	C	1.665341	0.450710	0.111458
C143	C	1.165213	-0.216305	-1.016566
C144	C	1.665213	0.283695	-0.516566
C145	C	1.165201	-0.216320	-0.925257
C146	C	1.665201	0.283680	-0.425257
C147	C	1.165195	-0.216330	-0.852481
C148	C	1.665195	0.283670	-0.352481
C149	C	1.165182	-0.216345	-0.761167
C150	C	1.665182	0.283655	-0.261167
C151	C	1.165095	-0.216404	-0.178969
C152	C	1.665095	0.283596	0.321031
C153	C	1.165229	-0.216292	-0.089348
C154	C	1.665229	0.283708	0.410652
H155	H	1.258577	-0.387399	-0.294954
H156	H	1.758577	0.112601	0.205046
H157	H	1.258903	-0.959794	-0.295051
H158	H	1.758903	-0.459794	0.204949
H159	H	1.258644	-0.472509	-0.294976
H160	H	1.758644	0.027491	0.205024
C161	C	1.057412	-0.381129	-0.496019
C162	C	1.557412	0.118871	0.003981
C163	C	1.074930	-0.392509	-0.575811
C164	C	1.574930	0.107491	-0.075811
C165	C	1.023387	-0.369116	-0.627485
C166	C	1.523387	0.130884	-0.127485
H167	H	1.064743	-0.349819	-0.488740
H168	H	1.564743	0.150181	0.011260
H169	H	1.003228	-0.388858	-0.484232
H170	H	1.503228	0.111142	0.015768
H171	H	1.129101	-0.384777	-0.587595
H172	H	1.629101	0.115223	-0.087595
H173	H	1.067594	-0.423815	-0.583116
H174	H	1.567594	0.076185	-0.083116
H175	H	0.969203	-0.376845	-0.615697
H176	H	1.469203	0.123155	-0.115697
H177	H	1.030722	-0.337807	-0.620198
H178	H	1.530722	0.162193	-0.120198
H179	H	1.035261	-0.376837	-0.681629
H180	H	1.535261	0.123163	-0.181629
H181	H	1.310306	-0.603210	-0.243481
H182	H	1.810306	-0.103210	0.256519
C183	C	1.006170	-0.835560	-0.547539
C184	C	1.506170	-0.335560	-0.047539
C185	C	1.051815	-0.862454	-0.599255
C186	C	1.551815	-0.362454	-0.099255
C187	C	1.000378	-0.885984	-0.650849
C188	C	1.500378	-0.385984	-0.150849
H189	H	0.975418	-0.814923	-0.578293
H190	H	1.475418	-0.314923	-0.078293
H191	H	0.971074	-0.853923	-0.516699
H192	H	1.471074	-0.353923	-0.016699
H193	H	1.086898	-0.844092	-0.630093
H194	H	1.586898	-0.344092	-0.130093
H195	H	1.082566	-0.883098	-0.568524
H196	H	1.582566	-0.383098	-0.068524
H197	H	0.965282	-0.904347	-0.620008
H198	H	1.465282	-0.404347	-0.120008
H199	H	0.969629	-0.865345	-0.681596
H200	H	1.469629	-0.365345	-0.181596
H201	H	1.031340	-0.904237	-0.685939
H202	H	1.531340	-0.404237	-0.185939
C203	C	1.057695	-1.051240	-0.496082
C204	C	1.557695	-0.551240	0.003918
C205	C	1.012516	-1.020659	-0.541206
C206	C	1.512516	-0.520659	-0.041206
C207	C	0.960893	-1.044036	-0.592839
C208	C	1.460893	-0.544036	-0.092839
H209	H	1.022515	-1.069576	-0.465303
H210	H	1.522515	-0.569576	0.034697
H211	H	1.088509	-1.069502	-0.531291
H212	H	1.588509	-0.569502	-0.031291
H213	H	0.981704	-1.002404	-0.506002
H214	H	1.481704	-0.502404	-0.006002
H215	H	1.047675	-1.002322	-0.572001
H216	H	1.547675	-0.502322	-0.072001
H217	H	0.991708	-1.062298	-0.628048
H218	H	1.491708	-0.562298	-0.128048
H219	H	0.925718	-1.062371	-0.562053
H220	H	1.425718	-0.562371	-0.062053
H221	H	0.930238	-1.023290	-0.623467
H222	H	1.430238	-0.523290	-0.123467
H223	H	1.071417	-0.472560	-0.481922
H224	H	1.571417	0.027440	0.018078
H225	H	1.310433	-0.829076	-0.243533
H226	H	1.810433	-0.329076	0.256467
C227	C	1.057628	-0.953416	-0.495854
C228	C	1.557628	-0.453416	0.004146
C229	C	1.005972	-0.926518	-0.450150
C230	C	1.505972	-0.426518	0.049850
C231	C	0.954301	-0.903010	-0.501527
C232	C	1.454301	-0.403010	-0.001527
H233	H	1.026835	-0.974066	-0.526551
H234	H	1.526835	-0.474066	-0.026551
H235	H	1.088415	-0.935058	-0.531004
H236	H	1.588415	-0.435058	-0.031004
H237	H	0.975188	-0.944875	-0.415014
H238	H	1.475188	-0.444875	0.084986
H239	H	1.036743	-0.905860	-0.419455
H240	H	1.536743	-0.405860	0.080545
H241	H	0.985088	-0.884651	-0.536677
H242	H	1.485088	-0.384651	-0.036677
H243	H	0.923514	-0.923663	-0.532221
H244	H	1.423514	-0.423663	-0.032221
H245	H	0.919251	-0.884754	-0.470525
H246	H	1.419251	-0.384754	0.029475
C247	C	1.272986	-1.051361	-0.281236
C248	C	1.772986	-0.551361	0.218764
C249	C	1.261999	-1.097472	-0.292316
C250	C	1.761999	-0.597472	0.207684
C251	C	1.313659	-1.121017	-0.240983
C252	C	1.813659	-0.621017	0.259017
H253	H	1.261327	-1.043772	-0.226993
H254	H	1.761327	-0.543772	0.273007
H255	H	1.327149	-1.043648	-0.293153
H256	H	1.827149	-0.543648	0.206847
H257	H	1.207849	-1.105182	-0.280393
H258	H	1.707849	-0.605182	0.219607
H259	H	1.273664	-1.105074	-0.346548
H260	H	1.773664	-0.605074	0.153452
H261	H	1.367822	-1.113304	-0.252901
H262	H	1.867822	-0.613304	0.247099
H263	H	1.301996	-1.113424	-0.186744
H264	H	1.801996	-0.613424	0.313256
H265	H	1.306216	-1.152306	-0.248500
H266	H	1.806216	-0.652306	0.251500
C267	C	1.005886	-0.737739	-0.547493
C268	C	1.505886	-0.237739	-0.047493
C269	C	0.960709	-0.768342	-0.592592
C270	C	1.460709	-0.268342	-0.092592
C271	C	0.908980	-0.744989	-0.644139
C272	C	1.408980	-0.244989	-0.144139
H273	H	1.036599	-0.719402	-0.582726
H274	H	1.536599	-0.219402	-0.082726
H275	H	0.970716	-0.719481	-0.516627
H276	H	1.470716	-0.219481	-0.016627
H277	H	0.995874	-0.786592	-0.623455
H278	H	1.495874	-0.286592	-0.123455
H279	H	0.929979	-0.786680	-0.557379
H280	H	1.429979	-0.286680	-0.057379
H281	H	0.873810	-0.726731	-0.613273
H282	H	1.373810	-0.226731	-0.113273
H283	H	0.939699	-0.726652	-0.679367
H284	H	1.439699	-0.226652	-0.179367
H285	H	0.878316	-0.765749	-0.674739
H286	H	1.378316	-0.265749	-0.174739
C287	C	1.006047	-0.596874	-0.547561
C288	C	1.506047	-0.096874	-0.047561
C289	C	1.051660	-0.569901	-0.599290
C290	C	1.551660	-0.069901	-0.099290
C291	C	1.000196	-0.546428	-0.650927
C292	C	1.500196	-0.046428	-0.150927
H293	H	0.970903	-0.578567	-0.516778
H294	H	1.470903	-0.078567	-0.016778
H295	H	0.975348	-0.617558	-0.578294
H296	H	1.475348	-0.117558	-0.078294
H297	H	1.082345	-0.549219	-0.568559
H298	H	1.582345	-0.049219	-0.068559
H299	H	1.086801	-0.588197	-0.630090
H300	H	1.586801	-0.088197	-0.130090
H301	H	0.969497	-0.567112	-0.681661
H302	H	1.469497	-0.067112	-0.181661
H303	H	0.965055	-0.528123	-0.620137
H304	H	1.465055	-0.028123	-0.120137
H305	H	1.031137	-0.528127	-0.686036
H306	H	1.531137	-0.028127	-0.186036
C307	C	1.324518	-0.694689	-0.229676
C308	C	1.824518	-0.194689	0.270324
C309	C	1.376208	-0.721551	-0.275410
C310	C	1.876208	-0.221551	0.224590
C311	C	1.428010	-0.744992	-0.224067
C312	C	1.928010	-0.244992	0.275933
H313	H	1.293854	-0.713068	-0.194470
H314	H	1.793854	-0.213068	0.305530
H315	H	1.355273	-0.673985	-0.199038
H316	H	1.855273	-0.173985	0.300962
H317	H	1.345456	-0.742252	-0.306034
H318	H	1.845456	-0.242252	0.193966
H319	H	1.406890	-0.703183	-0.310614
H320	H	1.906890	-0.203183	0.189386
H321	H	1.458765	-0.724289	-0.193429
H322	H	1.958765	-0.224289	0.306571
H323	H	1.397339	-0.763369	-0.188863
H324	H	1.897339	-0.263369	0.311137
H325	H	1.463092	-0.763218	-0.255090
H326	H	1.963092	-0.263218	0.244910
H327	H	1.019955	-0.688375	-0.533489
H328	H	1.519955	-0.188375	-0.033489
H329	H	1.310389	-0.743957	-0.243509
H330	H	1.810389	-0.243957	0.256491
