data_functionalizedCrystal
_audit_creation_method	'MofGen! by Chris Wilmer'
_symmetry_space_group_name_H-M	'P1'
_symmetry_Int_Tables_number	1
_symmetry_cell_setting	triclinic
loop_
_symmetry_equiv_pos_as_xyz
  x,y,z
_cell_length_a	23.532407
_cell_length_b	23.532407
_cell_length_c	22.610064
_cell_angle_alpha	90.000603
_cell_angle_beta	89.997161
_cell_angle_gamma	97.151322
loop_
_atom_site_label
_atom_site_type_symbol
_atom_site_fract_x
_atom_site_fract_y
_atom_site_fract_z
O1	O	0.755263	-0.069127	-0.049117
O2	O	1.088597	0.264206	0.284217
O3	O	1.421930	0.597540	0.617550
O4	O	0.589400	-0.079130	-0.049135
O5	O	0.922733	0.254203	0.284198
O6	O	1.256067	0.587536	0.617532
O7	O	0.677333	0.008803	-0.049114
O8	O	1.010667	0.342136	0.284219
O9	O	1.344000	0.675470	0.617552
O10	O	0.667330	-0.157060	-0.049137
O11	O	1.000664	0.176273	0.284196
O12	O	1.333997	0.509606	0.617529
O13	O	0.677318	0.008790	0.049255
O14	O	1.010651	0.342124	0.382588
O15	O	1.343985	0.675457	0.715921
O16	O	0.589385	-0.079143	0.049234
O17	O	0.922718	0.254190	0.382568
O18	O	1.256051	0.587524	0.715901
O19	O	0.755248	-0.069140	0.049252
O20	O	1.088581	0.264193	0.382586
O21	O	1.421915	0.597527	0.715919
Zn22	Zn	0.672314	-0.074144	0.064862
Zn23	Zn	1.005647	0.259190	0.398195
Zn24	Zn	1.338980	0.592523	0.731528
Zn25	Zn	0.672334	-0.074127	-0.064744
Zn26	Zn	1.005668	0.259207	0.268589
Zn27	Zn	1.339001	0.592540	0.601923
O28	O	0.667315	-0.157073	0.049232
O29	O	1.000648	0.176260	0.382565
O30	O	1.333981	0.509593	0.715899
C31	C	0.568176	-0.078882	0.000048
C32	C	0.901510	0.254451	0.333381
C33	C	1.234843	0.587785	0.666714
C34	C	0.504959	-0.078116	0.000041
C35	C	0.838293	0.255217	0.333374
C36	C	1.171626	0.588551	0.666708
C37	C	0.105856	-0.125350	0.000061
C38	C	0.439190	0.207984	0.333395
C39	C	0.772523	0.541317	0.666728
C40	C	0.046456	-0.124638	0.000065
C41	C	0.379789	0.208695	0.333398
C42	C	0.713123	0.542029	0.666732
O43	O	0.009711	-0.168424	0.000081
O44	O	0.343045	0.164909	0.333414
O45	O	0.676378	0.498243	0.666747
N46	N	0.023830	-0.072362	0.000071
N47	N	0.357163	0.260972	0.333405
N48	N	0.690496	0.594305	0.666738
C49	C	0.060607	-0.020794	0.000080
C50	C	0.393941	0.312540	0.333413
C51	C	0.727274	0.645873	0.666746
O52	O	0.035908	0.023737	0.000086
O53	O	0.369241	0.357070	0.333419
O54	O	0.702574	0.690404	0.666753
C55	C	0.120006	-0.021506	0.000080
C56	C	0.453340	0.311828	0.333414
C57	C	0.786673	0.645161	0.666747
C58	C	0.142629	-0.073785	0.000068
C59	C	0.475962	0.259548	0.333401
C60	C	0.809296	0.592881	0.666735
C61	C	0.128479	-0.177625	0.000050
C62	C	0.461813	0.155708	0.333383
C63	C	0.795146	0.489042	0.666716
C64	C	0.187876	-0.178336	0.000045
C65	C	0.521209	0.154997	0.333378
C66	C	0.854542	0.488330	0.666712
C67	C	0.224649	-0.126772	0.000052
C68	C	0.557982	0.206561	0.333385
C69	C	0.891315	0.539895	0.666718
C70	C	0.202025	-0.074497	0.000063
C71	C	0.535359	0.258837	0.333397
C72	C	0.868692	0.592170	0.666730
C73	C	0.156783	0.030062	0.000093
C74	C	0.490116	0.363395	0.333426
C75	C	0.823450	0.696729	0.666760
C76	C	0.216185	0.029345	0.000094
C77	C	0.549519	0.362679	0.333427
C78	C	0.882852	0.696012	0.666761
C79	C	0.238808	-0.022934	0.000082
C80	C	0.572141	0.310399	0.333415
C81	C	0.905475	0.643732	0.666748
C82	C	0.298194	-0.023643	0.000065
C83	C	0.631528	0.309690	0.333398
C84	C	0.964861	0.643023	0.666732
N85	N	0.320820	-0.075920	0.000059
N86	N	0.654154	0.257414	0.333392
N87	N	0.987487	0.590747	0.666726
C88	C	0.284048	-0.127484	0.000052
C89	C	0.617381	0.205849	0.333386
C90	C	0.950714	0.539183	0.666719
C91	C	-0.064135	-0.019302	0.000080
C92	C	0.269198	0.314031	0.333413
C93	C	0.602532	0.647365	0.666746
C94	C	-0.123533	-0.018589	0.000075
C95	C	0.209800	0.314744	0.333408
C96	C	0.543134	0.648077	0.666742
C97	C	-0.137680	-0.122434	0.000061
C98	C	0.195653	0.210899	0.333395
C99	C	0.528986	0.544232	0.666728
C100	C	-0.078281	-0.123146	0.000062
C101	C	0.255052	0.210187	0.333395
C102	C	0.588385	0.543520	0.666729
C103	C	-0.041509	-0.071578	0.000074
C104	C	0.291824	0.261755	0.333407
C105	C	0.625158	0.595088	0.666740
C106	C	0.408784	-0.128974	0.000042
C107	C	0.742118	0.204360	0.333375
C108	C	1.075451	0.537693	0.666708
C109	C	0.468186	-0.129680	0.000034
C110	C	0.801520	0.203653	0.333368
C111	C	1.134853	0.536986	0.666701
C112	C	0.482329	-0.025836	0.000051
C113	C	0.815662	0.307497	0.333384
C114	C	1.148995	0.640831	0.666718
C115	C	0.422932	-0.025129	0.000055
C116	C	0.756265	0.308204	0.333389
C117	C	1.089598	0.641538	0.666722
C118	C	0.386160	-0.076702	0.000052
C119	C	0.719494	0.256631	0.333386
C120	C	1.052827	0.589964	0.666719
O121	O	0.334974	0.020119	0.000052
O122	O	0.668307	0.353453	0.333385
O123	O	1.001640	0.686786	0.666719
O124	O	0.308755	-0.172007	0.000054
O125	O	0.642089	0.161326	0.333387
O126	O	0.975422	0.494660	0.666721
C127	C	0.677071	0.030013	0.000072
C128	C	1.010404	0.363346	0.333405
C129	C	1.343738	0.696679	0.666738
C130	C	0.676305	0.093230	0.000076
C131	C	1.009638	0.426563	0.333409
C132	C	1.342972	0.759896	0.666743
C133	C	0.776472	-0.069388	0.000069
C134	C	1.109805	0.263945	0.333402
C135	C	1.443138	0.597278	0.666735
C136	C	0.839689	-0.070154	0.000071
C137	C	1.173022	0.263179	0.333405
C138	C	1.506355	0.596513	0.666738
C139	C	0.667577	-0.178283	0.000045
C140	C	1.000910	0.155051	0.333378
C141	C	1.334244	0.488384	0.666711
C142	C	0.668343	-0.241500	0.000036
C143	C	1.001676	0.091833	0.333370
C144	C	1.335010	0.425167	0.666703
N145	N	0.672304	-0.074155	0.153314
N146	N	1.005637	0.259179	0.486647
N147	N	1.338971	0.592512	0.819981
C148	C	0.723539	0.492333	0.000049
C149	C	1.056872	0.825666	0.333382
C150	C	1.390205	1.158999	0.666716
C151	C	0.722827	0.551733	0.000044
C152	C	1.056160	0.885066	0.333378
C153	C	1.389494	1.218400	0.666711
O154	O	0.766613	0.588478	0.000027
O155	O	1.099946	0.921811	0.333361
O156	O	1.433280	1.255144	0.666694
N157	N	0.670551	0.574359	0.000039
N158	N	1.003884	0.907693	0.333372
N159	N	1.337217	1.241026	0.666706
C160	C	0.618983	0.537582	0.000032
C161	C	0.952316	0.870915	0.333366
C162	C	1.285649	1.204248	0.666699
O163	O	0.574452	0.562281	0.000027
O164	O	0.907785	0.895615	0.333360
O165	O	1.241119	1.228948	0.666693
C166	C	0.619695	0.478182	0.000033
C167	C	0.953028	0.811516	0.333366
C168	C	1.286361	1.144849	0.666699
C169	C	0.671974	0.455560	0.000044
C170	C	1.005308	0.788893	0.333377
C171	C	1.338641	1.122227	0.666711
C172	C	0.775814	0.469710	0.000060
C173	C	1.109147	0.803043	0.333393
C174	C	1.442481	1.136376	0.666726
C175	C	0.776525	0.410313	0.000065
C176	C	1.109859	0.743647	0.333399
C177	C	1.443192	1.076980	0.666732
C178	C	0.724961	0.373540	0.000060
C179	C	1.058294	0.706874	0.333394
C180	C	1.391628	1.040207	0.666727
C181	C	0.672685	0.396164	0.000050
C182	C	1.006019	0.729497	0.333383
C183	C	1.339352	1.062830	0.666716
C184	C	0.568127	0.441406	0.000022
C185	C	0.901460	0.774739	0.333355
C186	C	1.234794	1.108073	0.666688
C187	C	0.568844	0.382004	0.000021
C188	C	0.902177	0.715337	0.333355
C189	C	1.235510	1.048670	0.666688
C190	C	0.621123	0.359381	0.000033
C191	C	0.954457	0.692714	0.333366
C192	C	1.287790	1.026048	0.666699
C193	C	0.621832	0.299995	0.000050
C194	C	0.955166	0.633328	0.333384
C195	C	1.288499	0.966661	0.666717
N196	N	0.674109	0.277368	0.000056
N197	N	1.007442	0.610702	0.333389
N198	N	1.340775	0.944035	0.666722
C199	C	0.725673	0.314141	0.000061
C200	C	1.059006	0.647475	0.333394
C201	C	1.392340	0.980808	0.666727
C202	C	0.617491	0.662324	0.000031
C203	C	0.950824	0.995657	0.333364
C204	C	1.284158	1.328991	0.666697
C205	C	0.616778	0.721722	0.000034
C206	C	0.950112	1.055055	0.333368
C207	C	1.283445	1.388389	0.666701
C208	C	0.720623	0.735869	0.000045
C209	C	1.053957	1.069203	0.333379
C210	C	1.387290	1.402536	0.666712
C211	C	0.721335	0.676470	0.000046
C212	C	1.054669	1.009804	0.333379
C213	C	1.388002	1.343137	0.666712
C214	C	0.669767	0.639698	0.000036
C215	C	1.003101	0.973031	0.333369
C216	C	1.336434	1.306365	0.666702
C217	C	0.727163	0.189405	0.000073
C218	C	1.060496	0.522738	0.333406
C219	C	1.393829	0.856071	0.666740
C220	C	0.727869	0.130003	0.000081
C221	C	1.061203	0.463336	0.333414
C222	C	1.394536	0.796669	0.666748
C223	C	0.624025	0.115860	0.000067
C224	C	0.957358	0.449194	0.333400
C225	C	1.290692	0.782527	0.666734
C226	C	0.623318	0.175257	0.000062
C227	C	0.956651	0.508591	0.333395
C228	C	1.289985	0.841924	0.666729
C229	C	0.674891	0.212029	0.000063
C230	C	1.008225	0.545362	0.333396
C231	C	1.341558	0.878695	0.666730
O232	O	0.578070	0.263215	0.000065
O233	O	0.911403	0.596549	0.333398
O234	O	1.244736	0.929882	0.666732
O235	O	0.770196	0.289433	0.000058
O236	O	1.103529	0.622767	0.333392
O237	O	1.436863	0.956100	0.666725
N238	N	0.672349	-0.074111	-0.153196
N239	N	1.005682	0.259222	0.180137
N240	N	1.339015	0.592556	0.513470
C241	C	0.711273	-0.035196	0.561965
C242	C	1.044606	0.298138	0.895298
C243	C	1.377940	0.631471	1.228631
C244	C	0.711276	-0.035192	0.623884
C245	C	1.044609	0.298142	0.957218
C246	C	1.377942	0.631475	1.290551
O247	O	0.744384	-0.002076	0.655911
O248	O	1.077718	0.331258	0.989244
O249	O	1.411051	0.664591	1.322578
N250	N	0.672334	-0.074115	0.654851
N251	N	1.005667	0.259219	0.988185
N252	N	1.339001	0.592552	1.321518
C253	C	0.633383	-0.113041	0.623895
C254	C	0.966716	0.220292	0.957228
C255	C	1.300049	0.553626	1.290562
O256	O	0.600259	-0.146147	0.655920
O257	O	0.933593	0.187186	0.989254
O258	O	1.266926	0.520519	1.322587
C259	C	0.633377	-0.113042	0.561976
C260	C	0.966711	0.220291	0.895309
C261	C	1.300044	0.553625	1.228643
C262	C	0.672326	-0.074120	0.531013
C263	C	1.005659	0.259213	0.864346
C264	C	1.338992	0.592547	1.197679
C265	C	0.750218	0.003724	0.531001
C266	C	1.083551	0.337057	0.864334
C267	C	1.416884	0.670390	1.197668
C268	C	0.750215	0.003719	0.469085
C269	C	1.083549	0.337052	0.802419
C270	C	1.416882	0.670385	1.135752
C271	C	0.711268	-0.035206	0.438133
C272	C	1.044601	0.298128	0.771467
C273	C	1.377935	0.631461	1.104800
C274	C	0.672323	-0.074125	0.469097
C275	C	1.005657	0.259208	0.802430
C276	C	1.338990	0.592542	1.135764
C277	C	0.594424	-0.151965	0.531021
C278	C	0.927757	0.181369	0.864354
C279	C	1.261091	0.514702	1.197688
C280	C	0.594422	-0.151962	0.469098
C281	C	0.927755	0.181371	0.802431
C282	C	1.261089	0.514705	1.135765
C283	C	0.633370	-0.113040	0.438134
C284	C	0.966704	0.220293	0.771468
C285	C	1.300037	0.553626	1.104801
C286	C	0.633374	-0.113054	0.376229
C287	C	0.966707	0.220279	0.709563
C288	C	1.300041	0.553613	1.042896
N289	N	0.672316	-0.074131	0.345262
N290	N	1.005649	0.259202	0.678596
N291	N	1.338983	0.592536	1.011929
C292	C	0.711263	-0.035207	0.376214
C293	C	1.044596	0.298127	0.709548
C294	C	1.377930	0.631460	1.042881
C295	C	0.633396	-0.113035	0.753928
C296	C	0.966729	0.220298	1.087262
C297	C	1.300063	0.553631	1.420595
C298	C	0.633403	-0.113037	0.815846
C299	C	0.966737	0.220296	1.149179
C300	C	1.300070	0.553629	1.482513
C301	C	0.711296	-0.035187	0.815831
C302	C	1.044629	0.298146	1.149165
C303	C	1.377962	0.631479	1.482498
C304	C	0.711291	-0.035188	0.753913
C305	C	1.044624	0.298145	1.087246
C306	C	1.377957	0.631479	1.420579
C307	C	0.672338	-0.074112	0.722962
C308	C	1.005671	0.259221	1.056295
C309	C	1.339004	0.592555	1.389628
C310	C	0.711255	-0.035220	0.246187
C311	C	1.044589	0.298113	0.579520
C312	C	1.377922	0.631446	0.912854
C313	C	0.711251	-0.035230	0.184266
C314	C	1.044584	0.298103	0.517599
C315	C	1.377918	0.631436	0.850933
C316	C	0.633357	-0.113078	0.184286
C317	C	0.966690	0.220255	0.517619
C318	C	1.300023	0.553588	0.850953
C319	C	0.633363	-0.113071	0.246202
C320	C	0.966696	0.220263	0.579535
C321	C	1.300029	0.553596	0.912869
C322	C	0.672314	-0.074137	0.277151
C323	C	1.005648	0.259196	0.610484
C324	C	1.338981	0.592530	0.943818
O325	O	0.600281	-0.146152	0.344163
O326	O	0.933614	0.187182	0.677497
O327	O	1.266948	0.520515	1.010830
O328	O	0.744376	-0.002101	0.344182
O329	O	1.077709	0.331233	0.677515
O330	O	1.411042	0.664566	1.010848
H331	H	-0.167632	-0.164421	0.000059
H332	H	0.165701	0.168913	0.333392
H333	H	0.499035	0.502246	0.666725
H334	H	0.404512	0.017441	0.000056
H335	H	0.737845	0.350775	0.333390
H336	H	1.071178	0.684108	0.666723
H337	H	0.246123	0.071339	0.000104
H338	H	0.579457	0.404673	0.333437
H339	H	0.912790	0.738006	0.666771
C340	C	0.754093	0.007588	0.150209
C341	C	1.087427	0.340921	0.483543
C342	C	1.420760	0.674255	0.816876
H343	H	0.777284	0.030774	0.177515
H344	H	1.110617	0.364107	0.510848
H345	H	1.443950	0.697440	0.844182
H346	H	0.777683	-0.012778	0.126053
H347	H	1.111017	0.320555	0.459386
H348	H	1.444350	0.653889	0.792720
H349	H	0.733738	0.031193	0.126057
H350	H	1.067071	0.364526	0.459390
H351	H	1.400405	0.697860	0.792724
H352	H	0.098544	-0.219617	0.000046
H353	H	0.431877	0.113716	0.333380
H354	H	0.765211	0.447049	0.666713
C355	C	0.510618	0.466278	0.000004
C356	C	0.843952	0.799611	0.333337
C357	C	1.177285	1.132945	0.666671
H358	H	0.480016	0.435863	-0.000007
H359	H	0.813349	0.769196	0.333327
H360	H	1.146683	1.102529	0.666660
H361	H	0.508166	0.489157	0.034304
H362	H	0.841499	0.822490	0.367637
H363	H	1.174833	1.155824	0.700971
H364	H	0.508189	0.489151	-0.034307
H365	H	0.841522	0.822484	0.299026
H366	H	1.174855	1.155818	0.632359
C367	C	-0.148414	0.038916	0.000078
C368	C	0.184919	0.372250	0.333411
C369	C	0.518252	0.705583	0.666744
H370	H	-0.189057	0.031961	0.000074
H371	H	0.144276	0.365294	0.333407
H372	H	0.477609	0.698628	0.666740
H373	H	-0.135771	0.060131	0.034382
H374	H	0.197562	0.393464	0.367715
H375	H	0.530896	0.726798	0.701048
H376	H	-0.135770	0.060133	-0.034230
H377	H	0.197564	0.393466	0.299104
H378	H	0.530897	0.726799	0.632437
H379	H	-0.034198	0.022693	0.000084
H380	H	0.299136	0.356027	0.333417
H381	H	0.632469	0.689360	0.666751
H382	H	0.580748	0.193677	0.000069
H383	H	0.914081	0.527011	0.333403
H384	H	1.247414	0.860344	0.666736
H385	H	-0.059867	-0.165717	0.000055
H386	H	0.273467	0.167616	0.333389
H387	H	0.606800	0.500950	0.666722
H388	H	0.138375	0.072634	0.000103
H389	H	0.471708	0.405967	0.333437
H390	H	0.805041	0.739300	0.666770
C391	C	0.522786	0.030880	0.000063
C392	C	0.856119	0.364214	0.333396
C393	C	1.189452	0.697547	0.666730
H394	H	0.561400	0.022964	0.000066
H395	H	0.894734	0.356298	0.333399
H396	H	1.228067	0.689631	0.666733
H397	H	0.515965	0.052342	-0.034234
H398	H	0.849298	0.385676	0.299100
H399	H	1.182632	0.719009	0.632433
H400	H	0.515958	0.052321	0.034378
H401	H	0.849291	0.385654	0.367711
H402	H	1.182624	0.718987	0.701044
C403	C	0.567307	0.075406	0.000058
C404	C	0.900641	0.408739	0.333391
C405	C	1.233974	0.742072	0.666724
H406	H	0.536068	0.097383	0.000054
H407	H	0.869401	0.430716	0.333387
H408	H	1.202734	0.764050	0.666721
H409	H	0.565439	0.051940	-0.034246
H410	H	0.898773	0.385274	0.299088
H411	H	1.232106	0.718607	0.632421
H412	H	0.565420	0.051941	0.034366
H413	H	0.898753	0.385274	0.367699
H414	H	1.232087	0.718607	0.701032
H415	H	0.742973	-0.003516	0.271379
H416	H	1.076306	0.329817	0.604712
H417	H	1.409639	0.663150	0.938046
H418	H	0.781933	0.035423	0.556197
H419	H	1.115266	0.368756	0.889530
H420	H	1.448600	0.702090	1.222863
H421	H	0.601648	-0.144772	0.159075
H422	H	0.934981	0.188562	0.492409
H423	H	1.268315	0.521895	0.825742
C424	C	0.793052	0.046540	0.435033
C425	C	1.126385	0.379873	0.768366
C426	C	1.459719	0.713206	1.101700
H427	H	0.816240	0.069723	0.462342
H428	H	1.149574	0.403056	0.795676
H429	H	1.482907	0.736390	1.129009
H430	H	0.816644	0.026180	0.410874
H431	H	1.149978	0.359513	0.744207
H432	H	1.483311	0.692846	1.077540
H433	H	0.772695	0.070146	0.410884
H434	H	1.106028	0.403480	0.744218
H435	H	1.439362	0.736813	1.077551
C436	C	0.785379	0.105121	0.000090
C437	C	1.118712	0.438454	0.333423
C438	C	1.452046	0.771788	0.666757
H439	H	0.815986	0.135532	0.000086
H440	H	1.149319	0.468866	0.333419
H441	H	1.482652	0.802199	0.666752
H442	H	0.787813	0.082246	0.034395
H443	H	1.121146	0.415579	0.367728
H444	H	1.454480	0.748912	0.701062
H445	H	0.787820	0.082243	-0.034216
H446	H	1.121154	0.415576	0.299117
H447	H	1.454487	0.748910	0.632450
H448	H	0.601677	-0.144736	0.728731
H449	H	0.935010	0.188597	1.062065
H450	H	1.268344	0.521930	1.395398
C451	C	0.754132	0.007635	0.849887
C452	C	1.087465	0.340968	1.183220
C453	C	1.420799	0.674301	1.516553
H454	H	0.748549	0.002063	0.891197
H455	H	1.081882	0.335396	1.224530
H456	H	1.415216	0.668729	1.557864
H457	H	0.792106	0.001648	0.839740
H458	H	1.125440	0.334982	1.173074
H459	H	1.458773	0.668315	1.506407
H460	H	0.748156	0.045614	0.839739
H461	H	1.081490	0.378948	1.173073
H462	H	1.414823	0.712281	1.506406
H463	H	0.562709	-0.183658	0.556223
H464	H	0.896042	0.149675	0.889556
H465	H	1.229375	0.483008	1.222889
H466	H	0.562700	-0.183658	0.443901
H467	H	0.896033	0.149675	0.777234
H468	H	1.229367	0.483009	1.110567
C469	C	0.512117	0.341557	0.000013
C470	C	0.845451	0.674890	0.333346
C471	C	1.178784	1.008224	0.666680
H472	H	0.480883	0.363542	0.000010
H473	H	0.814217	0.696875	0.333344
H474	H	1.147550	1.030208	0.666677
H475	H	0.510241	0.318088	-0.034288
H476	H	0.843574	0.651422	0.299045
H477	H	1.176908	0.984755	0.632378
H478	H	0.510228	0.318095	0.034323
H479	H	0.843562	0.651428	0.367656
H480	H	1.176895	0.984761	0.700990
C481	C	0.559271	0.746601	0.000027
C482	C	0.892604	1.079934	0.333360
C483	C	1.225938	1.413267	0.666693
H484	H	0.528666	0.716188	0.000020
H485	H	0.861999	1.049521	0.333354
H486	H	1.195333	1.382855	0.666687
H487	H	0.556825	0.769481	0.034327
H488	H	0.890158	1.102814	0.367660
H489	H	1.223491	1.436148	0.700993
H490	H	0.556839	0.769473	-0.034285
H491	H	0.890173	1.102807	0.299049
H492	H	1.223506	1.436140	0.632382
C493	C	0.590500	-0.155862	0.280263
C494	C	0.923833	0.177471	0.613596
C495	C	1.257166	0.510805	0.946930
H496	H	0.567296	-0.179035	0.252959
H497	H	0.900629	0.154298	0.586292
H498	H	1.233962	0.487631	0.919625
H499	H	0.610822	-0.179474	0.304436
H500	H	0.944156	0.153859	0.637769
H501	H	1.277489	0.487193	0.971102
H502	H	0.566918	-0.135462	0.304399
H503	H	0.900252	0.197871	0.637733
H504	H	1.233585	0.531204	0.971066
H505	H	0.575496	0.632386	0.000028
H506	H	0.908829	0.965720	0.333361
H507	H	1.242162	1.299053	0.666694
H508	H	0.819097	0.391900	0.000072
H509	H	1.152430	0.725233	0.333405
H510	H	1.485763	1.058567	0.666739
C511	C	0.493068	-0.187190	0.000024
C512	C	0.826401	0.146143	0.333358
C513	C	1.159734	0.479477	0.666691
H514	H	0.462657	-0.217797	0.000027
H515	H	0.795990	0.115537	0.333361
H516	H	1.129323	0.448870	0.666694
H517	H	0.515946	-0.189625	-0.034280
H518	H	0.849279	0.143708	0.299053
H519	H	1.182612	0.477042	0.632386
H520	H	0.515944	-0.189631	0.034331
H521	H	0.849277	0.143703	0.367664
H522	H	1.182610	0.477036	0.700997
C523	C	0.783892	0.229845	0.000079
C524	C	1.117225	0.563178	0.333412
C525	C	1.450559	0.896511	0.666746
H526	H	0.815123	0.207856	0.000092
H527	H	1.148457	0.541190	0.333425
H528	H	1.481790	0.874523	0.666758
H529	H	0.785787	0.253311	-0.034224
H530	H	1.119120	0.586644	0.299109
H531	H	1.452453	0.919977	0.632442
H532	H	0.785768	0.253310	0.034387
H533	H	1.119101	0.586643	0.367720
H534	H	1.452435	0.919976	0.701054
C535	C	0.832540	0.510151	0.000070
C536	C	1.165873	0.843485	0.333403
C537	C	1.499207	1.176818	0.666736
H538	H	0.863770	0.488162	0.000081
H539	H	1.197103	0.821495	0.333414
H540	H	1.530437	1.154829	0.666747
H541	H	0.834436	0.533621	-0.034231
H542	H	1.167770	0.866955	0.299102
H543	H	1.501103	1.200288	0.632436
H544	H	0.834415	0.533613	0.034380
H545	H	1.167749	0.866946	0.367714
H546	H	1.501082	1.200280	0.701047
H547	H	0.378851	-0.170970	0.000041
H548	H	0.712185	0.162363	0.333375
H549	H	1.045518	0.495697	0.666708
C550	C	0.754129	0.007630	0.719858
C551	C	1.087462	0.340963	1.053192
C552	C	1.420796	0.674296	1.386525
H553	H	0.777321	0.030812	0.747166
H554	H	1.110654	0.364145	1.080499
H555	H	1.443988	0.697478	1.413832
H556	H	0.777717	-0.012734	0.695698
H557	H	1.111051	0.320600	1.029031
H558	H	1.444384	0.653933	1.362364
H559	H	0.733773	0.031238	0.695710
H560	H	1.067107	0.364571	1.029043
H561	H	1.400440	0.697905	1.362377
C562	C	0.778842	0.651591	0.000053
C563	C	1.112175	0.984924	0.333386
C564	C	1.445509	1.318257	0.666719
H565	H	0.809447	0.682003	0.000052
H566	H	1.142780	1.015337	0.333386
H567	H	1.476114	1.348670	0.666719
H568	H	0.781276	0.628711	0.034355
H569	H	1.114610	0.962045	0.367688
H570	H	1.447943	1.295378	0.701021
H571	H	0.781286	0.628717	-0.034257
H572	H	1.114619	0.962050	0.299077
H573	H	1.447952	1.295383	0.632410
C574	C	0.590561	-0.155852	0.849899
C575	C	0.923894	0.177481	1.183233
C576	C	1.257227	0.510815	1.516566
H577	H	0.567364	-0.179029	0.822592
H578	H	0.900697	0.154305	1.155925
H579	H	1.234030	0.487638	1.489259
H580	H	0.610905	-0.179458	0.874057
H581	H	0.944239	0.153875	1.207390
H582	H	1.277572	0.487209	1.540723
H583	H	0.566970	-0.135477	0.874051
H584	H	0.900303	0.197856	1.207384
H585	H	1.233636	0.531189	1.540717
H586	H	0.206289	-0.220908	0.000035
H587	H	0.539622	0.112426	0.333368
H588	H	0.872956	0.445759	0.666702
H589	H	0.762610	0.765821	0.000047
H590	H	1.095943	1.099154	0.333380
H591	H	1.429276	1.432488	0.666714
