data_functionalizedCrystal
_audit_creation_method	'MofGen! by Chris Wilmer'
_symmetry_space_group_name_H-M	'P1'
_symmetry_Int_Tables_number	1
_symmetry_cell_setting	triclinic
loop_
_symmetry_equiv_pos_as_xyz
  x,y,z
_cell_length_a	6.817900
_cell_length_b	9.582860
_cell_length_c	16.015572
_cell_angle_alpha	76.189886
_cell_angle_beta	104.485554
_cell_angle_gamma	111.206767
loop_
_atom_site_label
_atom_site_type_symbol
_atom_site_fract_x
_atom_site_fract_y
_atom_site_fract_z
V1	V	-4.003263	-0.060387	-0.269347
O2	O	-3.950086	0.153916	-0.264383
O3	O	-3.994506	-0.264976	-0.267348
O4	O	-3.926564	0.006805	-0.386890
O5	O	-4.018499	-0.119746	-0.144013
V6	V	-4.485422	-0.042583	-0.254375
O7	O	-4.267516	-0.099440	-0.302189
O8	O	-4.671367	-0.003529	-0.221533
O9	O	-4.270973	0.162006	-0.256374
O10	O	-4.655995	-0.256885	-0.259339
O11	O	-4.587583	0.016777	-0.379709
O12	O	-4.338915	-0.109774	-0.136832
C13	C	-3.850066	-0.316921	-0.263058
C14	C	-3.924004	-0.483749	-0.262208
C15	C	-3.763398	0.029764	-0.415545
C16	C	-3.782234	0.083346	-0.511636
C17	C	-4.163022	-0.392251	-0.888905
C18	C	-4.180716	-0.341854	-0.979193
C19	C	-4.053206	-0.081114	-0.954685
C20	C	-4.035491	-0.131490	-0.864393
C21	C	-4.090405	-0.287060	-0.831511
C22	C	-3.962873	-0.026298	-0.806999
C23	C	-3.945171	-0.076671	-0.716715
C24	C	-4.000085	-0.232235	-0.683826
C25	C	-4.072703	-0.337432	-0.741227
C26	C	-3.907974	0.129271	-0.839884
C27	C	-3.835357	0.234463	-0.782489
C28	C	-3.817639	0.184091	-0.692203
C29	C	-3.872554	0.028527	-0.659314
C30	C	-3.745022	0.289289	-0.634802
C31	C	-3.727319	0.238917	-0.544518
C32	C	-3.854851	-0.021845	-0.569030
C33	C	-4.078756	0.213942	-0.260661
C34	C	-3.984056	0.380772	-0.261517
C35	C	-4.165424	-0.132741	-0.108172
C36	C	-4.125826	-0.186316	-0.012081
H37	H	-3.899541	-0.148525	-0.542255
H38	H	-3.922361	0.170280	-0.913399
C39	C	-3.993584	0.087726	-0.990558
C40	C	-4.024581	0.109331	-1.081909
C41	C	-3.969644	0.264848	-1.114982
H42	H	-4.081172	0.129966	-0.973626
H43	H	-3.847675	0.136323	-0.967968
H44	H	-4.170466	0.060754	-1.104491
H45	H	-3.936996	0.067126	-1.098865
H46	H	-3.823734	0.313445	-1.092391
H47	H	-4.057237	0.307074	-1.098043
H48	H	-3.990648	0.279528	-1.176965
H49	H	-3.790658	0.361129	-0.809275
C50	C	-4.132450	-0.506345	-0.705520
C51	C	-4.298294	-0.547971	-0.658520
C52	C	-4.353320	-0.703565	-0.625656
H53	H	-4.178270	-0.561784	-0.752623
H54	H	-4.011451	-0.528210	-0.667989
H55	H	-4.419268	-0.526120	-0.696049
H56	H	-4.252522	-0.492572	-0.611405
H57	H	-4.232322	-0.725430	-0.588126
H58	H	-4.399131	-0.758990	-0.672764
H59	H	-4.465836	-0.731826	-0.593757
H60	H	-3.700336	0.415954	-0.661590
C61	C	-3.648328	0.353359	-0.482337
C62	C	-3.603968	0.500383	-0.530456
C63	C	-3.531181	0.605848	-0.473204
H64	H	-3.755405	0.336082	-0.449393
H65	H	-3.521931	0.342462	-0.443810
H66	H	-3.730349	0.511275	-0.568968
H67	H	-3.496877	0.517708	-0.563397
H68	H	-3.404784	0.594950	-0.434676
H69	H	-3.638268	0.588557	-0.440263
H70	H	-3.501055	0.705615	-0.505843
C71	C	-4.222144	-0.561205	-0.853350
C72	C	-4.289254	-0.642549	-0.922929
C73	C	-4.343444	-0.798175	-0.890202
H74	H	-4.100902	-0.582832	-0.815924
H75	H	-4.334662	-0.589973	-0.821388
H76	H	-4.176745	-0.613792	-0.954877
H77	H	-4.410510	-0.620969	-0.960362
H78	H	-4.455963	-0.826943	-0.858241
H79	H	-4.222194	-0.819785	-0.852776
H80	H	-4.389003	-0.853386	-0.937407
C81	C	-3.981078	-0.286731	-0.585790
C82	C	-4.112698	-0.237119	-0.553376
C83	C	-4.095222	-0.287276	-0.463069
H84	H	-4.024223	-0.394429	-0.574311
H85	H	-3.836783	-0.246682	-0.557995
H86	H	-4.256962	-0.277175	-0.581161
H87	H	-4.069580	-0.129428	-0.564831
H88	H	-3.950927	-0.247227	-0.435274
H89	H	-4.138366	-0.394972	-0.451598
H90	H	-4.184506	-0.253610	-0.441063
C91	C	-4.259957	-0.456011	-1.041563
C92	C	-4.446136	-0.439521	-1.098238
C93	C	-4.519212	-0.544664	-1.155698
H94	H	-4.152970	-0.438636	-1.074572
H95	H	-4.290262	-0.555905	-1.009082
H96	H	-4.415822	-0.339651	-1.130716
H97	H	-4.553167	-0.456909	-1.065254
H98	H	-4.549517	-0.644558	-1.123217
H99	H	-4.412212	-0.527280	-1.188700
H100	H	-4.645552	-0.533499	-1.194153
