data_functionalizedCrystal
_audit_creation_method	'MofGen! by Chris Wilmer'
_symmetry_space_group_name_H-M	'P1'
_symmetry_Int_Tables_number	1
_symmetry_cell_setting	triclinic
loop_
_symmetry_equiv_pos_as_xyz
  x,y,z
_cell_length_a	12.811438
_cell_length_b	17.038272
_cell_length_c	11.892095
_cell_angle_alpha	94.170821
_cell_angle_beta	91.498957
_cell_angle_gamma	87.562882
loop_
_atom_site_label
_atom_site_type_symbol
_atom_site_fract_x
_atom_site_fract_y
_atom_site_fract_z
O1	O	1.398772	0.107970	0.049411
O2	O	1.898772	0.607970	0.549411
O3	O	1.096282	0.117779	0.018394
O4	O	1.596282	0.617779	0.518394
O5	O	1.245728	-0.000956	0.033727
O6	O	1.745728	0.499044	0.533727
O7	O	1.249325	0.226706	0.034078
O8	O	1.749325	0.726706	0.534078
O9	O	1.233266	0.008928	0.220456
O10	O	1.733266	0.508928	0.720456
O11	O	1.083820	0.127664	0.205123
O12	O	1.583820	0.627664	0.705123
O13	O	1.386310	0.117855	0.236140
O14	O	1.886310	0.617855	0.736140
Zn15	Zn	1.233086	0.124329	0.250279
Zn16	Zn	1.733086	0.624329	0.750279
Zn17	Zn	1.249505	0.111305	0.004255
Zn18	Zn	1.749505	0.611305	0.504255
O19	O	1.236863	0.236590	0.220807
O20	O	1.736863	0.736590	0.720807
C21	C	1.051155	0.121868	0.107771
C22	C	1.551155	0.621868	0.607771
C23	C	0.935259	0.119315	0.095887
C24	C	1.435259	0.619315	0.595887
C25	C	0.778698	0.110330	-0.022635
C26	C	1.278698	0.610330	0.477365
C27	C	0.887594	0.112727	-0.011479
C28	C	1.387594	0.612727	0.488521
C29	C	0.874022	0.123504	0.192105
C30	C	1.374022	0.623504	0.692105
C31	C	0.765126	0.121107	0.180948
C32	C	1.265126	0.621107	0.680948
C33	C	0.717469	0.114521	0.073575
C34	C	1.217469	0.614521	0.573575
C35	C	0.608571	0.112129	0.062420
C36	C	1.108571	0.612129	0.562420
C37	C	0.595001	0.122900	0.266003
C38	C	1.095001	0.622900	0.766003
C39	C	0.703897	0.125297	0.277159
C40	C	1.203897	0.625297	0.777159
C41	C	1.236227	-0.025171	0.126756
C42	C	1.736227	0.474829	0.626756
C43	C	1.226470	-0.112051	0.125755
C44	C	1.726470	0.387949	0.625755
C45	C	1.316049	-0.161367	0.134942
C46	C	1.816049	0.338633	0.634942
C47	C	1.306876	-0.243000	0.133991
C48	C	1.806876	0.257000	0.633991
C49	C	1.208123	-0.275315	0.123861
C50	C	1.708123	0.224685	0.623861
C51	C	1.118538	-0.225993	0.114670
C52	C	1.618538	0.274007	0.614670
C53	C	1.127712	-0.144362	0.115614
C54	C	1.627712	0.355638	0.615614
C55	C	1.175711	-0.521363	0.120522
C56	C	1.675711	-0.021363	0.620522
C57	C	1.166543	-0.603000	0.119583
C58	C	1.666543	-0.103000	0.619583
C59	C	1.354883	-0.620001	0.138901
C60	C	1.854883	-0.120001	0.638901
C61	C	1.364048	-0.538368	0.139850
C62	C	1.864048	-0.038368	0.639850
C63	C	1.274463	-0.489053	0.130654
C64	C	1.774463	0.010947	0.630654
C65	C	1.198744	-0.358756	0.122892
C66	C	1.698744	0.141244	0.622892
C67	C	1.283844	-0.405614	0.131615
C68	C	1.783844	0.094386	0.631615
C69	C	1.431436	0.113766	0.146761
C70	C	1.931436	0.613766	0.646761
C71	C	1.547333	0.116318	0.158637
C72	C	2.047333	0.616318	0.658637
C73	C	1.246365	0.260805	0.127776
C74	C	1.746365	0.760805	0.627776
C75	C	1.256122	0.347685	0.128769
C76	C	1.756122	0.847685	0.628769
N77	N	1.221888	0.133216	0.418184
N78	N	1.721888	0.633216	0.918184
N79	N	1.260711	0.102412	-0.163649
N80	N	1.760711	0.602412	0.336351
C81	C	1.338629	0.040523	0.666809
C82	C	1.838629	0.540523	1.166809
C83	C	1.330809	0.046741	0.784349
C84	C	1.830809	0.546741	1.284349
C85	C	1.198426	0.151866	0.770805
C86	C	1.698426	0.651866	1.270805
C87	C	1.206245	0.145648	0.653265
C88	C	1.706245	0.645648	1.153265
C89	C	1.276350	0.089975	0.601272
C90	C	1.776350	0.589975	1.101272
C91	C	1.284174	0.083761	0.483730
C92	C	1.784174	0.583761	0.983730
C93	C	1.151785	0.188883	0.470188
C94	C	1.651785	0.688883	0.970188
C95	C	1.143966	0.195101	0.587728
C96	C	1.643966	0.695101	1.087728
H97	H	0.545136	0.126316	0.344344
H98	H	1.045136	0.626316	0.844344
Br99	Br	0.714013	0.101409	-0.168351
Br100	Br	1.214013	0.601409	0.331649
H101	H	1.086121	-0.629306	0.111351
H102	H	1.586121	-0.129306	0.611351
Br103	Br	0.768585	0.134234	0.422872
Br104	Br	1.268585	0.634234	0.922872
Br105	Br	1.450077	-0.117519	0.148706
Br106	Br	1.950077	0.382481	0.648706
Br107	Br	1.006136	-0.077432	0.103137
Br108	Br	1.506136	0.422568	0.603137
H109	H	0.912845	0.128857	0.279523
H110	H	1.412845	0.628857	0.779523
Br111	Br	0.970690	0.107034	-0.142056
Br112	Br	1.470690	0.607034	0.357944
H113	H	1.427818	-0.660161	0.146386
H114	H	1.927818	-0.160161	0.646386
H115	H	1.379821	-0.283150	0.141474
H116	H	1.879821	0.216850	0.641474
H117	H	1.118338	-0.385076	0.114646
H118	H	1.618338	0.114924	0.614646
Br119	Br	1.498078	-0.494519	0.153562
Br120	Br	1.998078	0.005481	0.653562
H121	H	1.102764	-0.481220	0.113034
H122	H	1.602764	0.018780	0.613034
Br123	Br	0.984514	-0.269849	0.100904
Br124	Br	1.484514	0.230151	0.600904
H125	H	1.341259	0.038432	0.441399
H126	H	1.841259	0.538432	0.941399
Br127	Br	1.417863	-0.361757	0.145352
Br128	Br	1.917863	0.138243	0.645352
Br129	Br	1.433783	-0.035021	0.596245
Br130	Br	1.933783	0.464979	1.096245
Br131	Br	1.415329	-0.020380	0.873290
Br132	Br	1.915329	0.479620	1.373290
Br133	Br	0.543892	0.103197	-0.083298
Br134	Br	1.043892	0.603197	0.416702
H135	H	1.141341	0.197189	0.813152
H136	H	1.641341	0.697189	1.313152
Br137	Br	1.048823	0.270650	0.658296
Br138	Br	1.548823	0.770650	1.158296
Br139	Br	1.067271	0.256007	0.381235
Br140	Br	1.567271	0.756007	0.881235
