data_functionalizedCrystal
_audit_creation_method	'MofGen! by Chris Wilmer'
_symmetry_space_group_name_H-M	'P1'
_symmetry_Int_Tables_number	1
_symmetry_cell_setting	triclinic
loop_
_symmetry_equiv_pos_as_xyz
  x,y,z
_cell_length_a	6.817900
_cell_length_b	17.253917
_cell_length_c	10.992410
_cell_angle_alpha	97.468994
_cell_angle_beta	108.764651
_cell_angle_gamma	102.659311
loop_
_atom_site_label
_atom_site_type_symbol
_atom_site_fract_x
_atom_site_fract_y
_atom_site_fract_z
V1	V	-4.090111	-0.111294	-0.412788
O2	O	-4.073536	0.005348	-0.392381
O3	O	-4.043968	-0.220677	-0.422033
O4	O	-4.068075	-0.109582	-0.587312
O5	O	-4.049262	-0.106516	-0.225958
V6	V	-4.570031	-0.097342	-0.388975
O7	O	-4.359275	-0.141898	-0.465022
O8	O	-4.751065	-0.066738	-0.336741
O9	O	-4.392968	0.012041	-0.379730
O10	O	-4.704003	-0.213985	-0.409381
O11	O	-4.728277	-0.102120	-0.575805
O12	O	-4.368861	-0.099054	-0.214450
C13	C	-3.888665	-0.247343	-0.418635
C14	C	-3.932399	-0.336765	-0.427357
C15	C	-3.894626	-0.367288	-0.312538
C16	C	-3.935740	-0.451311	-0.320738
C17	C	-4.014613	-0.504808	-0.443759
C18	C	-4.052394	-0.474280	-0.558587
C19	C	-4.011295	-0.390260	-0.550386
C20	C	-4.143799	-0.757327	-0.481038
C21	C	-4.184891	-0.841353	-0.489230
C22	C	-4.068237	-0.818378	-0.251381
C23	C	-4.027130	-0.734356	-0.243190
C24	C	-4.064925	-0.703836	-0.358019
N25	N	-4.056633	-0.590693	-0.452143
N26	N	-4.022920	-0.617953	-0.349633
C27	C	-3.919414	-0.105629	-0.629464
C28	C	-3.982695	-0.104953	-0.772218
C29	C	-3.851154	-0.098794	-0.966667
C30	C	-3.785379	-0.099830	-0.818297
C31	C	-4.163510	-0.184266	-0.858013
C32	C	-4.227976	-0.183564	-1.006502
C33	C	-4.139049	-0.029986	-0.951643
C34	C	-4.068422	-0.029610	-0.802589
C35	C	-4.211613	0.038702	-0.383125
C36	C	-4.147117	0.128124	-0.374411
C37	C	-4.180863	-0.103010	-0.172292
C38	C	-4.096820	-0.103682	-0.029536
H39	H	-3.904983	-0.476158	-0.227240
H40	H	-4.037474	-0.843237	-0.157894
C41	C	-4.379982	-0.033868	-1.007240
H42	H	-4.404502	0.010813	-0.959772
H43	H	-4.420847	-0.031474	-1.097539
H44	H	-4.463238	-0.083342	-0.998691
H45	H	-4.105617	-0.240205	-0.838536
H46	H	-4.049197	0.030243	-0.965402
C47	C	-4.052817	-0.356679	-0.676682
H48	H	-4.017058	-0.298979	-0.654180
H49	H	-3.966321	-0.372549	-0.722496
H50	H	-4.200718	-0.377786	-0.731281
H51	H	-3.937892	0.029063	-0.743802
C52	C	-3.807892	-0.308448	-0.177215
H53	H	-3.791312	-0.338665	-0.110010
H54	H	-3.672245	-0.272569	-0.164669
H55	H	-3.906657	-0.277821	-0.173475
C56	C	-4.271663	-0.900200	-0.624558
H57	H	-4.288304	-0.869991	-0.691773
H58	H	-4.172927	-0.930833	-0.628314
H59	H	-4.407318	-0.936074	-0.637079
H60	H	-3.716556	-0.153517	-0.799365
C61	C	-3.601515	-0.022797	-0.737792
H62	H	-3.566433	0.009412	-0.795680
H63	H	-3.646356	0.007692	-0.678646
H64	H	-3.478289	-0.037976	-0.689403
H65	H	-3.746404	-0.041372	-0.979204
C66	C	-3.801940	-0.170327	-1.039325
H67	H	-3.930460	-0.203160	-1.107805
H68	H	-3.697636	-0.149841	-1.075857
H69	H	-3.747399	-0.202123	-0.979134
C70	C	-4.190595	-0.258942	-1.077274
H71	H	-4.136221	-0.289701	-1.015182
H72	H	-4.323094	-0.291545	-1.142511
H73	H	-4.089360	-0.242079	-1.117769
C74	C	-4.185349	-0.723764	-0.607343
H75	H	-4.238183	-0.767660	-0.681779
H76	H	-4.288934	-0.694085	-0.613487
H77	H	-4.054534	-0.688847	-0.604697
C78	C	-3.940348	-0.675514	-0.107867
H79	H	-3.923744	-0.705727	-0.040657
H80	H	-3.804700	-0.639646	-0.095351
H81	H	-4.039078	-0.644875	-0.104101
H82	H	-4.116631	-0.517845	-0.658753
C83	C	-4.471812	-0.192875	-1.065126
H84	H	-4.512823	-0.192505	-1.156187
H85	H	-4.548882	-0.242851	-1.054272
H86	H	-4.504151	-0.149001	-1.021091
H87	H	-4.312452	-0.190878	-0.829934
H88	H	-4.210737	-0.028678	-0.769975
