data_functionalizedCrystal
_audit_creation_method	'MofGen! by Chris Wilmer'
_symmetry_space_group_name_H-M	'P1'
_symmetry_Int_Tables_number	1
_symmetry_cell_setting	triclinic
loop_
_symmetry_equiv_pos_as_xyz
  x,y,z
_cell_length_a	17.640280
_cell_length_b	18.101398
_cell_length_c	17.640968
_cell_angle_alpha	101.230909
_cell_angle_beta	114.317439
_cell_angle_gamma	78.794605
loop_
_atom_site_label
_atom_site_type_symbol
_atom_site_fract_x
_atom_site_fract_y
_atom_site_fract_z
Zn1	Zn	-0.233936	1.252274	0.399838
Zn2	Zn	0.266064	1.752274	0.899838
Zn3	Zn	-0.399605	1.252213	0.234199
Zn4	Zn	0.100395	1.752213	0.734199
Zn5	Zn	-0.261814	1.107606	0.262023
Zn6	Zn	0.238186	1.607606	0.762023
Zn7	Zn	-0.371695	1.149239	0.371967
Zn8	Zn	0.128305	1.649239	0.871967
O9	O	-0.316763	1.190333	0.317007
O10	O	0.183237	1.690333	0.817007
O11	O	-0.255926	1.355905	0.377885
O12	O	0.244074	1.855905	0.877885
O13	O	-0.404674	1.215582	0.122557
O14	O	0.095326	1.715582	0.622557
O15	O	-0.142797	1.109399	0.303613
O16	O	0.357203	1.609399	0.803613
O17	O	-0.377642	1.355861	0.256191
O18	O	0.122358	1.855861	0.756191
O19	O	-0.122316	1.215685	0.404865
O20	O	0.377684	1.715685	0.904865
O21	O	-0.303439	1.109340	0.142999
O22	O	0.196561	1.609340	0.642999
O23	O	-0.276376	1.009490	0.276587
O24	O	0.223624	1.509490	0.776587
O25	O	-0.330074	1.180355	0.490996
O26	O	0.169926	1.680355	0.990996
O27	O	-0.357106	1.040077	0.357363
O28	O	0.142894	1.540077	0.857363
O29	O	-0.228863	1.256055	0.511473
O30	O	0.271137	1.756055	1.011473
O31	O	-0.511221	1.255951	0.229166
O32	O	-0.011221	1.755951	0.729166
O33	O	-0.490716	1.180296	0.330383
O34	O	0.009284	1.680296	0.830383
C35	C	-0.316738	0.997911	0.316970
C36	C	0.183262	1.497911	0.816970
C37	C	-0.316743	0.915598	0.316970
C38	C	0.183257	1.415598	0.816970
C39	C	-0.530866	1.222658	0.273749
C40	C	-0.030866	1.722658	0.773749
C41	C	-0.622455	1.236559	0.255271
C42	C	-0.122455	1.736559	0.755271
C43	C	-0.870498	1.085081	0.457684
C44	C	-0.370498	1.585081	0.957684
C45	C	-0.956565	1.098140	0.440294
C46	C	-0.456565	1.598140	0.940294
C47	C	-0.977830	1.176994	0.335003
C48	C	-0.477830	1.676994	0.835003
C49	C	-0.891762	1.163945	0.352387
C50	C	-0.391762	1.663945	0.852387
C51	C	-0.838103	1.117986	0.413727
C52	C	-0.338103	1.617986	0.913727
C53	C	-0.859368	1.196851	0.308430
C54	C	-0.359368	1.696851	0.808430
C55	C	-0.773308	1.183799	0.325809
C56	C	-0.273308	1.683799	0.825809
C57	C	-0.719644	1.137841	0.387145
C58	C	-0.219644	1.637841	0.887145
C59	C	-0.752044	1.104934	0.431106
C60	C	-0.252044	1.604934	0.931106
C61	C	-0.913029	1.242804	0.247086
C62	C	-0.413029	1.742804	0.747086
C63	C	-0.880635	1.275710	0.203129
C64	C	-0.380635	1.775710	0.703129
C65	C	-0.794573	1.262663	0.220512
C66	C	-0.294573	1.762663	0.720512
C67	C	-0.740909	1.216705	0.281848
C68	C	-0.240909	1.716705	0.781848
C69	C	-0.762173	1.295569	0.176551
C70	C	-0.262173	1.795569	0.676551
C71	C	-0.676114	1.282517	0.193930
C72	C	-0.176114	1.782517	0.693930
C73	C	-0.654849	1.203653	0.299227
C74	C	-0.154849	1.703653	0.799227
C75	C	-0.316781	0.616525	0.317029
C76	C	0.183219	1.116525	0.817029
C77	C	-0.265607	0.628580	0.266582
C78	C	0.234393	1.128580	0.766582
C79	C	-0.265833	0.714183	0.266277
C80	C	0.234167	1.214183	0.766277
C81	C	-0.316761	0.764899	0.317000
C82	C	0.183239	1.264899	0.817000
C83	C	-0.408363	0.743342	0.275743
C84	C	0.091637	1.243342	0.775743
C85	C	-0.408097	0.657576	0.275374
C86	C	0.091903	1.157576	0.775374
C87	C	-0.277077	0.657984	0.408730
C88	C	0.222923	1.157984	0.908730
C89	C	-0.275240	0.743270	0.408644
C90	C	0.224760	1.243270	0.908644
C91	C	-0.316755	0.848754	0.316984
C92	C	0.183245	1.348754	0.816984
C93	C	-0.316793	0.532670	0.317042
C94	C	0.183207	1.032670	0.817042
C95	C	-0.101820	1.157905	0.360451
C96	C	0.398180	1.657905	0.860451
C97	C	-0.010224	1.144086	0.378965
C98	C	0.489776	1.644086	0.878965
C99	C	-0.273246	1.222856	0.531975
C100	C	0.226754	1.722856	1.031975
C101	C	-0.254701	1.236715	0.623582
C102	C	0.245299	1.736715	1.123582
C103	C	-0.316788	1.383507	0.317043
C104	C	0.183212	1.883507	0.817043
C105	C	-0.316799	1.465826	0.317059
C106	C	0.183201	1.965826	0.817059
C107	C	-0.360051	1.157970	0.102886
C108	C	0.139949	1.657970	0.602886
C109	C	-0.378363	1.144220	0.011327
C110	C	0.121637	1.644220	0.511327
C111	C	-0.457194	1.085262	0.871558
C112	C	0.042806	1.585262	1.371558
C113	C	-0.439758	1.098299	0.957639
C114	C	0.060242	1.598299	1.457639
C115	C	-0.334376	1.177118	0.978949
C116	C	0.165624	1.677118	1.478949
C117	C	-0.351800	1.164085	0.892869
C118	C	0.148200	1.664085	1.392869
C119	C	-0.413210	1.118157	0.839180
C120	C	0.086790	1.618157	1.339180
C121	C	-0.307817	1.196980	0.860491
C122	C	0.192183	1.696980	1.360491
C123	C	-0.325243	1.183951	0.774418
C124	C	0.174757	1.683951	1.274418
C125	C	-0.386652	1.138027	0.720723
C126	C	0.113348	1.638027	1.220723
C127	C	-0.430636	1.105128	0.753107
C128	C	0.069364	1.605128	1.253107
C129	C	-0.246411	1.242912	0.914180
C130	C	0.253589	1.742912	1.414180
C131	C	-0.202428	1.275807	0.881802
C132	C	0.297572	1.775807	1.381802
C133	C	-0.219849	1.262774	0.795728
C134	C	0.280151	1.762774	1.295728
C135	C	-0.281259	1.216849	0.742034
C136	C	0.218741	1.716849	1.242034
C137	C	-0.175865	1.295672	0.763344
C138	C	0.324135	1.795672	1.263344
C139	C	-0.193291	1.282643	0.677271
C140	C	0.306709	1.782643	1.177271
C141	C	-0.298684	1.203820	0.655960
C142	C	0.201316	1.703820	1.155960
H143	H	-0.611156	1.166235	0.349183
H144	H	-0.111156	1.666235	0.849183
H145	H	-0.157474	1.309428	0.650909
H146	H	0.342526	1.809428	1.150909
F147	F	-1.034946	1.225906	0.269723
F148	F	-0.534946	1.725906	0.769723
F149	F	-0.991039	1.063105	0.487077
F150	F	-0.491039	1.563105	0.987077
H151	H	-0.284378	1.214515	1.022674
H152	H	0.215622	1.714515	1.522674
F153	F	-0.522547	1.036373	0.814415
F154	F	-0.022547	1.536373	1.314415
F155	F	-0.486574	1.063282	0.992095
F156	F	0.013426	1.563282	1.492095
H157	H	-0.198067	0.600453	0.294330
H158	H	0.301933	1.100453	0.794330
H159	H	-0.152430	1.313204	0.925527
H160	H	0.347570	1.813204	1.425527
F161	F	-0.301979	0.731037	0.177928
F162	F	0.198021	1.231037	0.677928
H163	H	-0.983103	1.253432	0.232940
H164	H	-0.483103	1.753432	0.732940
F165	F	-0.460531	0.788475	0.321265
F166	F	0.039469	1.288475	0.821265
F167	F	-0.495990	1.056239	0.695963
F168	F	0.004010	1.556239	1.195963
H169	H	-0.924336	1.313127	0.153183
H170	H	-0.424336	1.813127	0.653183
F171	F	-0.227869	1.256781	1.005787
F172	F	0.272131	1.756781	1.505787
F173	F	-0.110518	1.344559	0.820492
F174	F	0.389482	1.844559	1.320492
H175	H	-0.293023	0.599501	0.199399
H176	H	0.206977	1.099501	0.699399
F177	F	-0.819293	1.344474	0.111265
F178	F	-0.319293	1.844474	0.611265
H179	H	-0.708350	1.067517	0.481062
H180	H	-0.208350	1.567517	0.981062
H181	H	-0.400842	1.127423	0.650636
H182	H	0.099158	1.627423	1.150636
F183	F	-0.641636	1.317532	0.147140
F184	F	-0.141636	1.817532	0.647140
F185	F	-0.364038	1.154931	0.598817
F186	F	0.135962	1.654931	1.098817
H187	H	-0.826804	1.047663	0.507640
H188	H	-0.326804	1.547663	1.007640
F189	F	-0.628021	1.124105	0.405790
F190	F	-0.128021	1.624105	0.905790
H191	H	-0.198457	0.727722	0.294149
H192	H	0.301543	1.227722	0.794149
F193	F	-0.449408	0.622521	0.187071
F194	F	0.050592	1.122521	0.687071
H195	H	-0.448461	0.650991	0.309563
H196	H	0.051539	1.150991	0.809563
F197	F	-0.190079	0.621739	0.453345
F198	F	0.309921	1.121739	0.953345
F199	F	-0.187022	0.760761	0.448898
F200	F	0.312978	1.260761	0.948898
F201	F	-0.318572	0.789625	0.462259
F202	F	0.181428	1.289625	0.962259
F203	F	-0.449920	0.762634	0.188253
F204	F	0.050080	1.262634	0.688253
F205	F	-0.325513	0.650061	0.458143
F206	F	0.174487	1.150061	0.958143
