data_functionalizedCrystal
_audit_creation_method	'MofGen! by Chris Wilmer'
_symmetry_space_group_name_H-M	'P1'
_symmetry_Int_Tables_number	1
_symmetry_cell_setting	triclinic
loop_
_symmetry_equiv_pos_as_xyz
  x,y,z
_cell_length_a	11.169417
_cell_length_b	25.639239
_cell_length_c	11.169409
_cell_angle_alpha	89.960777
_cell_angle_beta	89.979747
_cell_angle_gamma	90.039936
loop_
_atom_site_label
_atom_site_type_symbol
_atom_site_fract_x
_atom_site_fract_y
_atom_site_fract_z
Zn1	Zn	1.834735	-0.208091	-0.678475
Zn2	Zn	1.834522	-0.295541	-0.477767
Zn3	Zn	1.634018	-0.208124	-0.477810
Zn4	Zn	1.633929	-0.295499	-0.678413
O5	O	1.734301	-0.251814	-0.578116
O6	O	2.002656	-0.219696	-0.651858
O7	O	1.807873	-0.283976	-0.309823
O8	O	1.660770	-0.134954	-0.504473
O9	O	2.002500	-0.283945	-0.504399
O10	O	1.808235	-0.134930	-0.651900
O11	O	1.660564	-0.219751	-0.309855
O12	O	1.466056	-0.219710	-0.504413
O13	O	1.660618	-0.283874	-0.846371
O14	O	1.465991	-0.283905	-0.651795
O15	O	1.808149	-0.219655	-0.846416
O16	O	1.807787	-0.368701	-0.504340
O17	O	1.660412	-0.368670	-0.651754
C18	C	1.422476	-0.251807	-0.578103
C19	C	1.289076	-0.251817	-0.578125
C20	C	1.734099	-0.387657	-0.578062
C21	C	1.734123	-0.445771	-0.578078
C22	C	1.811239	-0.806137	-0.501489
C23	C	1.811286	-0.860741	-0.501505
O24	O	1.876644	-0.888981	-0.436326
N25	N	1.734512	-0.888053	-0.578196
C26	C	1.657695	-0.860757	-0.654885
O27	O	1.592398	-0.889002	-0.720118
C28	C	1.657655	-0.806154	-0.654874
C29	C	1.734426	-0.778845	-0.578169
C30	C	1.888005	-0.778828	-0.424791
C31	C	1.887956	-0.724228	-0.424774
C32	C	1.811143	-0.696936	-0.501454
C33	C	1.734377	-0.724245	-0.578152
C34	C	1.580845	-0.778860	-0.731567
C35	C	1.580813	-0.724253	-0.731551
C36	C	1.657583	-0.696944	-0.654846
C37	C	1.657515	-0.642353	-0.654814
N38	N	1.734289	-0.615041	-0.578123
C39	C	1.811103	-0.642333	-0.501443
C40	C	1.657785	-0.975428	-0.654903
C41	C	1.657818	-1.030030	-0.654909
C42	C	1.811411	-1.030010	-0.501530
C43	C	1.811371	-0.975407	-0.501520
C44	C	1.734559	-0.948116	-0.578212
C45	C	1.810995	-0.527668	-0.501412
C46	C	1.810936	-0.473062	-0.501398
C47	C	1.657348	-0.473087	-0.654780
C48	C	1.657402	-0.527688	-0.654790
C49	C	1.734235	-0.554977	-0.578102
O50	O	1.592194	-0.614078	-0.719964
O51	O	1.876400	-0.614081	-0.436232
C52	C	2.047343	-0.251821	-0.578131
C53	C	2.180743	-0.251825	-0.578137
C54	C	1.734397	-0.251756	-0.891159
C55	C	1.734438	-0.251731	-1.024559
C56	C	1.734536	-0.115441	-0.578198
C57	C	1.734637	-0.057327	-0.578233
C58	C	1.734274	-0.251834	-0.266292
C59	C	1.734466	-0.251711	-0.132892
H60	H	1.873452	-0.450829	-0.438932
C61	C	1.972507	-0.808842	-0.340431
C62	C	1.962762	-0.801374	-0.203987
C63	C	2.047264	-0.831383	-0.119612
C64	C	2.141510	-0.868860	-0.171681
C65	C	2.151258	-0.876329	-0.308132
C66	C	2.066757	-0.846321	-0.392507
H67	H	1.892992	-0.773630	-0.165436
H68	H	2.040047	-0.825853	-0.018602
H69	H	2.204063	-0.891074	-0.109222
H70	H	2.221028	-0.904074	-0.346683
H71	H	2.073973	-0.851850	-0.493517
H72	H	1.873961	-1.052241	-0.439097
C73	C	1.573360	-1.060066	-0.739276
C74	C	1.488871	-1.030039	-0.823618
C75	C	1.404415	-1.060073	-0.907994
C76	C	1.404449	-1.120134	-0.908028
C77	C	1.488941	-1.150165	-0.823683
C78	C	1.573397	-1.120131	-0.739307
H79	H	1.488843	-0.985575	-0.823595
H80	H	1.341868	-1.037841	-0.970431
H81	H	1.341930	-1.142367	-0.970488
H82	H	1.488969	-1.194629	-0.823706
H83	H	1.635943	-1.142363	-0.676869
C84	C	1.895502	-0.557681	-0.417049
C85	C	1.885754	-0.550219	-0.280603
C86	C	1.970253	-0.580232	-0.196233
C87	C	2.064500	-0.617706	-0.248309
C88	C	2.074252	-0.625170	-0.384762
C89	C	1.989753	-0.595157	-0.469131
H90	H	1.815984	-0.522476	-0.242047
H91	H	1.963034	-0.574706	-0.095222
H92	H	2.127051	-0.639924	-0.185853
H93	H	2.144023	-0.652913	-0.423317
H94	H	1.996973	-0.600682	-0.570143
C95	C	1.573271	-0.945411	-0.739258
C96	C	1.436846	-0.952989	-0.729337
C97	C	1.352334	-0.922976	-0.813693
C98	C	1.404247	-0.885384	-0.907969
C99	C	1.540679	-0.877804	-0.917894
C100	C	1.625191	-0.907818	-0.833539
H101	H	1.398411	-0.980818	-0.659545
H102	H	1.251338	-0.928587	-0.806345
H103	H	1.341686	-0.863166	-0.970415
H104	H	1.579114	-0.849975	-0.987687
H105	H	1.726187	-0.902207	-0.840886
H106	H	1.873885	-0.953176	-0.439061
H107	H	1.518325	-0.801085	-0.794023
C108	C	1.496311	-0.694233	-0.815910
C109	C	1.359885	-0.701810	-0.806003
C110	C	1.275382	-0.671791	-0.890358
C111	C	1.327305	-0.634196	-0.984620
C112	C	1.463738	-0.626618	-0.994532
C113	C	1.548241	-0.656636	-0.910177
H114	H	1.321443	-0.729642	-0.736220
H115	H	1.174385	-0.677402	-0.883020
H116	H	1.264751	-0.611975	-1.047065
H117	H	1.502181	-0.598786	-1.064315
H118	H	1.649239	-0.651026	-0.917515
C119	C	1.572857	-0.443058	-0.739124
C120	C	1.436427	-0.450623	-0.729225
C121	C	1.351942	-0.420591	-0.813574
C122	C	1.403888	-0.382995	-0.907822
C123	C	1.540325	-0.375428	-0.917725
C124	C	1.624810	-0.405460	-0.833376
H125	H	1.397968	-0.478456	-0.659453
H126	H	1.250942	-0.426193	-0.806242
H127	H	1.341347	-0.360764	-0.970262
H128	H	1.578784	-0.347596	-0.987497
H129	H	1.725810	-0.399858	-0.840707
H130	H	1.950473	-0.701996	-0.362318
H131	H	1.594893	-0.549924	-0.717253
