data_functionalizedCrystal
_audit_creation_method	'MofGen! by Chris Wilmer'
_symmetry_space_group_name_H-M	'P1'
_symmetry_Int_Tables_number	1
_symmetry_cell_setting	triclinic
loop_
_symmetry_equiv_pos_as_xyz
  x,y,z
_cell_length_a	23.532407
_cell_length_b	11.792241
_cell_length_c	22.010155
_cell_angle_alpha	89.995433
_cell_angle_beta	89.989642
_cell_angle_gamma	83.521047
loop_
_atom_site_label
_atom_site_type_symbol
_atom_site_fract_x
_atom_site_fract_y
_atom_site_fract_z
O1	O	-0.756085	-0.137768	0.050450
O2	O	-0.590340	-0.157703	0.050467
O3	O	-0.677235	0.017530	0.050454
O4	O	-0.669191	-0.313001	0.050463
O5	O	-0.677209	0.017530	-0.050597
O6	O	-0.590314	-0.157703	-0.050583
O7	O	-0.756059	-0.137768	-0.050601
Cu8	Cu	-0.673184	-0.147735	-0.059819
Cu9	Cu	-0.673215	-0.147735	0.059685
O10	O	-0.669164	-0.313001	-0.050587
C11	C	-0.569108	-0.157195	-0.000055
C12	C	-0.505882	-0.155669	-0.000049
C13	C	-0.676716	0.059809	-0.000071
C14	C	-0.675204	0.185787	-0.000070
C15	C	-0.777291	-0.138276	-0.000076
C16	C	-0.840517	-0.139802	-0.000079
C17	C	-0.107337	-0.249795	-0.000074
C18	C	-0.047928	-0.248377	-0.000077
O19	O	-0.011700	-0.335633	-0.000097
N20	N	-0.024684	-0.144202	-0.000079
C21	C	-0.060853	-0.041437	-0.000084
O22	O	-0.035627	0.047303	-0.000086
C23	C	-0.120260	-0.042856	-0.000084
C24	C	-0.143501	-0.147038	-0.000076
C25	C	-0.130577	-0.353969	-0.000066
C26	C	-0.189982	-0.355386	-0.000061
C27	C	-0.226146	-0.252630	-0.000064
C28	C	-0.202905	-0.148456	-0.000071
C29	C	-0.156428	0.059907	-0.000093
C30	C	-0.215839	0.058479	-0.000094
C31	C	-0.239079	-0.045703	-0.000086
C32	C	-0.298474	-0.047116	-0.000069
N33	N	-0.321717	-0.151292	-0.000067
C34	C	-0.285553	-0.254049	-0.000064
C35	C	0.063907	-0.038465	-0.000083
C36	C	0.123314	-0.037045	-0.000079
C37	C	0.136234	-0.243985	-0.000073
C38	C	0.076827	-0.245404	-0.000074
C39	C	0.040664	-0.142641	-0.000082
C40	C	-0.410308	-0.257017	-0.000054
C41	C	-0.469718	-0.258425	-0.000046
C42	C	-0.482634	-0.051485	-0.000055
C43	C	-0.423228	-0.050077	-0.000059
C44	C	-0.387066	-0.152852	-0.000060
O45	O	-0.334736	0.040094	-0.000052
O46	O	-0.310787	-0.342774	-0.000070
C47	C	-0.669683	-0.355280	-0.000061
C48	C	-0.671195	-0.481258	-0.000058
N49	N	-0.673166	-0.147735	-0.143871
C50	C	-0.672423	0.416434	-0.000060
C51	C	-0.673968	0.288085	-0.000066
C52	C	-0.707966	-0.216208	-0.563652
C53	C	-0.707973	-0.216206	-0.627260
O54	O	-0.737541	-0.274417	-0.660153
N55	N	-0.673226	-0.147722	-0.659078
C56	C	-0.638475	-0.079229	-0.627285
O57	O	-0.608921	-0.020977	-0.660190
C58	C	-0.638471	-0.079226	-0.563679
C59	C	-0.673216	-0.147723	-0.531864
C60	C	-0.742709	-0.284698	-0.531837
C61	C	-0.742701	-0.284703	-0.468234
C62	C	-0.707951	-0.216217	-0.436446
C63	C	-0.673209	-0.147727	-0.468261
C64	C	-0.603723	-0.010727	-0.531887
C65	C	-0.603723	-0.010730	-0.468277
C66	C	-0.638468	-0.079227	-0.436462
C67	C	-0.638451	-0.079245	-0.372869
N68	N	-0.673198	-0.147729	-0.341051
C69	C	-0.707948	-0.216214	-0.372839
C70	C	-0.638485	-0.079238	-0.760863
C71	C	-0.638485	-0.079245	-0.824468
C72	C	-0.707984	-0.216221	-0.824439
C73	C	-0.707981	-0.216219	-0.760832
C74	C	-0.673232	-0.147721	-0.729045
C75	C	-0.707929	-0.216219	-0.239268
C76	C	-0.707916	-0.216220	-0.175659
C77	C	-0.638419	-0.079241	-0.175695
C78	C	-0.638429	-0.079243	-0.239298
C79	C	-0.673189	-0.147735	-0.271083
O80	O	-0.608900	-0.021060	-0.339936
O81	O	-0.737503	-0.274445	-0.339927
N82	N	-0.673237	-0.147727	0.143738
H83	H	-0.380871	-0.340707	-0.000057
O84	O	-0.400584	0.051054	-0.000143
C85	C	-0.341045	0.172792	-0.052531
C86	C	-0.366634	0.058209	-0.052496
H87	H	-0.313601	0.178624	-0.094860
H88	H	-0.313519	0.178654	-0.010276
H89	H	-0.377111	0.245968	-0.052500
H90	H	-0.330605	-0.015032	-0.052549
H91	H	-0.394175	0.052446	-0.094748
O92	O	0.028722	0.061293	0.000000
C93	C	-0.045826	0.179835	0.052375
C94	C	-0.006026	0.066808	0.052348
H95	H	-0.073921	0.184342	0.094700
H96	H	-0.073996	0.184376	0.010115
H97	H	-0.018991	0.254508	0.052345
H98	H	-0.032815	-0.007928	0.052399
H99	H	0.022147	0.062367	0.094604
O100	O	-0.212459	-0.456689	-0.000088
C101	C	-0.193351	-0.661793	-0.000055
C102	C	-0.167826	-0.547142	-0.000036
H103	H	-0.157277	-0.734954	0.000000
H104	H	-0.220811	-0.667711	-0.042355
H105	H	-0.220867	-0.667586	0.042224
H106	H	-0.140284	-0.541272	-0.042286
H107	H	-0.140398	-0.541273	0.042293
H108	H	0.057909	-0.330239	-0.000071
O109	O	-0.250886	0.158412	-0.000071
C110	C	-0.257426	0.363817	-0.000116
C111	C	-0.217672	0.250731	-0.000131
H112	H	-0.230589	0.438486	-0.000178
H113	H	-0.285555	0.368411	0.042186
H114	H	-0.285570	0.368266	-0.042393
H115	H	-0.189493	0.246205	0.042117
H116	H	-0.189582	0.246184	-0.042461
H117	H	-0.736234	-0.271991	-0.265140
O118	O	-0.569880	0.055676	-0.437427
C119	C	-0.473904	0.099086	-0.418034
C120	C	-0.512165	0.023789	-0.452996
H121	H	-0.427235	0.073349	-0.430618
H122	H	-0.479814	0.087315	-0.367100
H123	H	-0.486349	0.192403	-0.430535
H124	H	-0.499744	-0.069556	-0.440546
H125	H	-0.506250	0.035658	-0.503922
O126	O	-0.604668	-0.012677	-0.730082
C127	C	-0.535757	0.123226	-0.736838
C128	C	-0.574015	0.047882	-0.771768
H129	H	-0.510973	0.172225	-0.770526
H130	H	-0.504436	0.067140	-0.707082
H131	H	-0.563573	0.186153	-0.707037
H132	H	-0.546245	-0.015056	-0.801602
H133	H	-0.605340	0.104039	-0.801485
O134	O	-0.492223	-0.359707	0.000042
C135	C	-0.499373	-0.536985	0.052421
C136	C	-0.473843	-0.422340	0.052390
H137	H	-0.484533	-0.587646	0.094745
H138	H	-0.484483	-0.587806	0.010161
H139	H	-0.548045	-0.520335	0.052396
H140	H	-0.425170	-0.438886	0.052436
H141	H	-0.488778	-0.371554	0.094646
O142	O	0.171289	-0.343911	-0.000050
C143	C	0.177852	-0.549318	-0.000088
C144	C	0.138087	-0.436247	-0.000101
H145	H	0.151024	-0.624001	-0.000143
H146	H	0.205973	-0.553905	0.042209
H147	H	0.206004	-0.553750	-0.042370
H148	H	0.109899	-0.431739	0.042152
H149	H	0.110004	-0.431707	-0.042426
O150	O	0.145791	0.064258	-0.000106
C151	C	0.126689	0.269362	-0.000074
C152	C	0.101161	0.154715	-0.000053
H153	H	0.090618	0.342527	-0.000018
H154	H	0.154162	0.275286	-0.042375
H155	H	0.154193	0.275143	0.042203
H156	H	0.073630	0.148857	-0.042302
H157	H	0.073720	0.148840	0.042277
O158	O	-0.776371	-0.351370	-0.437309
C159	C	-0.780137	-0.504562	-0.365476
C160	C	-0.741935	-0.429154	-0.400464
H161	H	-0.752312	-0.567452	-0.335669
H162	H	-0.804958	-0.553584	-0.399107
H163	H	-0.811432	-0.448408	-0.335719
H164	H	-0.710608	-0.485223	-0.430223
H165	H	-0.717154	-0.380123	-0.366801
H166	H	-0.575431	0.045051	-0.557780
O167	O	-0.604613	-0.012684	-0.144903
C168	C	-0.535715	0.123250	-0.151628
C169	C	-0.573959	0.047901	-0.186576
H170	H	-0.510930	0.172271	-0.185305
H171	H	-0.504395	0.067165	-0.121870
H172	H	-0.563543	0.186158	-0.121828
H173	H	-0.546177	-0.015018	-0.216409
H174	H	-0.605282	0.104057	-0.216295
O175	O	-0.776482	-0.351340	-0.562616
C176	C	-0.845432	-0.487164	-0.555852
C177	C	-0.807203	-0.411752	-0.520926
H178	H	-0.870289	-0.536008	-0.522161
H179	H	-0.817644	-0.550211	-0.585615
H180	H	-0.876695	-0.431028	-0.585645
H181	H	-0.775934	-0.467797	-0.491101
H182	H	-0.835027	-0.348697	-0.491202
H183	H	-0.137517	0.144743	-0.000100
O184	O	-0.095395	-0.453722	0.000021
C185	C	-0.020873	-0.572271	0.052409
C186	C	-0.060668	-0.459239	0.052371
H187	H	0.007206	-0.576779	0.094736
H188	H	0.007314	-0.576822	0.010152
H189	H	-0.047711	-0.646938	0.052385
H190	H	-0.033874	-0.384508	0.052417
H191	H	-0.088857	-0.454788	0.094625
H192	H	-0.610130	-0.023482	-0.265203
O193	O	-0.517828	0.048252	0.000022
C194	C	-0.592396	0.166769	0.052381
C195	C	-0.552578	0.053764	0.052368
H196	H	-0.620493	0.171273	0.094704
H197	H	-0.620564	0.171275	0.010120
H198	H	-0.565574	0.241462	0.052345
H199	H	-0.579354	-0.020993	0.052426
H200	H	-0.524408	0.049358	0.094626
O201	O	-0.741639	-0.282922	-0.144823
C202	C	-0.764438	-0.473724	-0.125330
C203	C	-0.726219	-0.398321	-0.160296
H204	H	-0.751977	-0.567040	-0.137817
H205	H	-0.811127	-0.448037	-0.137836
H206	H	-0.758478	-0.461911	-0.074410
H207	H	-0.732129	-0.410094	-0.211224
H208	H	-0.679543	-0.424025	-0.147739
O209	O	-0.741788	-0.282779	-0.730024
C210	C	-0.810693	-0.418696	-0.736725
C211	C	-0.772442	-0.343349	-0.771686
H212	H	-0.835479	-0.467704	-0.770394
H213	H	-0.842013	-0.362611	-0.706960
H214	H	-0.782871	-0.481615	-0.706932
H215	H	-0.800219	-0.280419	-0.801513
H216	H	-0.741120	-0.399505	-0.801413
H217	H	-0.736279	-0.271987	-0.850332
H218	H	-0.610185	-0.023482	-0.850367
