data_functionalizedCrystal
_audit_creation_method	'MofGen! by Chris Wilmer'
_symmetry_space_group_name_H-M	'P1'
_symmetry_Int_Tables_number	1
_symmetry_cell_setting	triclinic
loop_
_symmetry_equiv_pos_as_xyz
  x,y,z
_cell_length_a	10.654550
_cell_length_b	19.288857
_cell_length_c	9.730223
_cell_angle_alpha	89.993455
_cell_angle_beta	89.999957
_cell_angle_gamma	83.809020
loop_
_atom_site_label
_atom_site_type_symbol
_atom_site_fract_x
_atom_site_fract_y
_atom_site_fract_z
O1	O	1.665746	0.097555	-0.114195
O2	O	1.300068	0.106849	-0.114221
O3	O	1.493478	0.001141	-0.114190
O4	O	1.472336	0.203264	-0.114225
O5	O	1.493466	0.001138	0.114390
O6	O	1.300056	0.106846	0.114359
O7	O	1.665734	0.097552	0.114385
Zn8	Zn	1.482893	0.102199	0.150664
Zn9	Zn	1.482909	0.102203	-0.150500
O10	O	1.472323	0.203261	0.114355
C11	C	1.253279	0.106165	0.000066
C12	C	1.113879	0.104124	0.000057
C13	C	1.492794	-0.024742	0.000101
C14	C	1.490756	-0.101859	0.000105
C15	C	1.033058	0.166363	0.000050
C16	C	0.902079	0.164441	0.000075
C17	C	0.932754	0.038033	0.000106
C18	C	1.063731	0.039957	0.000092
C19	C	1.489812	-0.138074	-0.124495
C20	C	1.487880	-0.210533	-0.124505
C21	C	1.486917	-0.246775	0.000091
C22	C	1.487854	-0.210551	0.124707
C23	C	1.489774	-0.138093	0.124713
C24	C	1.557425	-0.366546	0.095544
C25	C	1.555513	-0.439004	0.095532
C26	C	1.480991	-0.470260	0.000075
C27	C	1.408397	-0.429051	-0.095393
C28	C	1.410317	-0.356593	-0.095386
C29	C	1.484835	-0.325344	0.000097
C30	C	1.477950	-0.585043	-0.124544
C31	C	1.476010	-0.657503	-0.124549
C32	C	1.475997	-0.657520	0.124666
C33	C	1.477925	-0.585061	0.124668
C34	C	1.478907	-0.548827	0.000059
C35	C	1.712523	0.098236	0.000095
C36	C	1.851923	0.100278	0.000096
C37	C	1.473008	0.229143	0.000061
C38	C	1.475045	0.306260	0.000048
N39	N	1.482891	0.102196	0.356201
N40	N	1.482921	0.102200	-0.356036
C41	C	1.568562	0.055408	0.428140
C42	C	1.568574	0.055408	0.572023
C43	C	1.397241	0.148990	0.572015
C44	C	1.397223	0.148986	0.428134
H45	H	0.836278	0.215122	0.000072
C46	C	1.152645	-0.028508	0.000098
H47	H	1.237832	-0.018171	0.000099
H48	H	1.137480	-0.054795	-0.079603
H49	H	1.137490	-0.054790	0.079829
H50	H	1.638333	0.017308	0.630592
C51	C	1.088218	0.236943	0.000026
H52	H	1.021320	0.273735	0.000038
H53	H	1.138668	0.240324	-0.079690
H54	H	1.138680	0.240320	0.079742
H55	H	1.327494	0.187087	0.630597
H56	H	0.891907	-0.014209	0.000143
H57	H	1.490608	-0.108577	-0.225961
H58	H	1.490537	-0.108606	0.226180
H59	H	1.475204	-0.687027	0.226114
H60	H	1.638315	0.017307	0.369575
H61	H	1.327454	0.187087	0.369557
H62	H	1.347714	-0.454498	-0.173124
C63	C	1.486891	-0.250382	-0.261569
H64	H	1.487771	-0.218426	-0.335778
H65	H	1.412945	-0.273714	-0.266795
H66	H	1.559384	-0.283583	-0.266700
H67	H	1.618109	-0.341104	0.173287
H68	H	1.487067	-0.240064	0.226153
H69	H	1.478743	-0.555540	-0.226008
C70	C	1.330467	-0.311263	-0.200382
H71	H	1.342295	-0.263635	-0.186709
H72	H	1.243837	-0.317306	-0.188379
H73	H	1.356028	-0.324876	-0.290843
H74	H	1.475235	-0.686987	-0.226017
H75	H	1.478704	-0.555575	0.226130
H76	H	1.614628	-0.472551	0.173263
