data_functionalizedCrystal
_audit_creation_method	'MofGen! by Chris Wilmer'
_symmetry_space_group_name_H-M	'P1'
_symmetry_Int_Tables_number	1
_symmetry_cell_setting	triclinic
loop_
_symmetry_equiv_pos_as_xyz
  x,y,z
_cell_length_a	18.050590
_cell_length_b	18.050589
_cell_length_c	17.077396
_cell_angle_alpha	89.975358
_cell_angle_beta	90.001070
_cell_angle_gamma	89.984959
loop_
_atom_site_label
_atom_site_type_symbol
_atom_site_fract_x
_atom_site_fract_y
_atom_site_fract_z
Zn1	Zn	-1.135327	-0.295921	-0.443477
Zn2	Zn	-1.135227	-0.420118	-0.312220
Zn3	Zn	-1.011136	-0.295918	-0.312268
Zn4	Zn	-1.011094	-0.420045	-0.443486
O5	O	-1.073196	-0.358000	-0.377863
O6	O	-1.239238	-0.312428	-0.426043
O7	O	-1.118742	-0.403672	-0.202380
O8	O	-1.027669	-0.191994	-0.329689
O9	O	-1.239165	-0.403675	-0.329608
O10	O	-1.118912	-0.191996	-0.426088
O11	O	-1.027573	-0.312423	-0.202414
O12	O	-0.907206	-0.312352	-0.329698
O13	O	-1.027598	-0.403550	-0.553332
O14	O	-0.907175	-0.403547	-0.426103
O15	O	-1.118871	-0.312357	-0.553326
O16	O	-1.118702	-0.524033	-0.329617
O17	O	-1.027501	-0.523979	-0.426057
C18	C	-0.880244	-0.357942	-0.377907
C19	C	-0.797698	-0.357935	-0.377944
C20	C	-0.598252	-0.407661	-0.430256
C21	C	-0.548861	-0.339942	-0.449569
C22	C	-0.646568	-0.357970	-0.377914
C23	C	-0.548878	-0.425722	-0.358607
C24	C	-0.500583	-0.358010	-0.377886
C25	C	-0.598263	-0.290215	-0.397265
C26	C	-0.598285	-0.376041	-0.306269
C27	C	-0.548915	-0.308275	-0.325556
C28	C	-0.730666	-0.357948	-0.377932
C29	C	-0.416486	-0.358024	-0.377868
C30	C	-1.073106	-0.550953	-0.377850
C31	C	-1.073136	-0.633498	-0.377871
C32	C	-0.266902	-0.358049	-0.377832
C33	C	-0.349447	-0.358044	-0.377853
C34	C	-1.023590	-0.832947	-0.430297
C35	C	-1.005487	-0.882384	-0.358674
C36	C	-1.073209	-0.784629	-0.377881
C37	C	-1.091349	-0.882273	-0.449512
C38	C	-1.073278	-0.930614	-0.377897
C39	C	-1.055070	-0.832979	-0.306220
C40	C	-1.140963	-0.832863	-0.397107
C41	C	-1.122886	-0.882278	-0.325434
C42	C	-1.073167	-0.700530	-0.377872
C43	C	-1.073320	-1.014710	-0.377897
C44	C	-1.073306	-0.164295	-0.377893
C45	C	-1.073353	-0.081749	-0.377906
C46	C	-1.073241	-0.357946	-0.582607
C47	C	-1.073260	-0.357922	-0.669857
C48	C	-1.120788	-0.310434	-0.710845
C49	C	-1.120797	-0.310409	-0.792826
C50	C	-1.073281	-0.357877	-0.833817
C51	C	-1.025748	-0.405368	-0.792823
C52	C	-1.025736	-0.405388	-0.710844
C53	C	-1.025778	-0.405323	-0.963693
C54	C	-1.025791	-0.405304	-1.045678
C55	C	-1.120839	-0.310344	-1.045675
C56	C	-1.120827	-0.310365	-0.963696
C57	C	-1.073294	-0.357856	-0.922708
C58	C	-1.073194	-0.358001	-0.173915
C59	C	-1.073319	-0.357815	-0.086666
H60	H	-0.527389	-0.266222	-0.281281
H61	H	-0.948221	-0.904153	-0.342427
H62	H	-0.527181	-0.483001	-0.342291
H63	H	-1.039688	-0.811415	-0.245632
Cl64	Cl	-0.631611	-0.201752	-0.422567
Cl65	Cl	-1.180566	-0.250694	-0.912165
H66	H	-1.198216	-0.811097	-0.413387
Cl67	Cl	-0.631804	-0.399637	-0.212755
Cl68	Cl	-0.966021	-0.465027	-0.912166
H69	H	-1.159540	-0.271674	-1.079051
Cl70	Cl	-0.958714	-0.799500	-0.498637
Cl71	Cl	-0.631702	-0.472432	-0.498662
H72	H	-1.164877	-0.903802	-0.281064
Cl73	Cl	-1.114994	-0.915707	-0.543027
H74	H	-1.159483	-0.271782	-0.677476
H75	H	-0.987027	-0.444051	-0.677472
Cl76	Cl	-0.966048	-0.464970	-1.097208
Cl77	Cl	-1.180582	-0.250740	-0.844350
Cl78	Cl	-0.966011	-0.465039	-0.844354
Cl79	Cl	-0.515341	-0.316361	-0.543093
