data_functionalizedCrystal
_audit_creation_method	'MofGen! by Chris Wilmer'
_symmetry_space_group_name_H-M	'P1'
_symmetry_Int_Tables_number	1
_symmetry_cell_setting	triclinic
loop_
_symmetry_equiv_pos_as_xyz
  x,y,z
_cell_length_a	17.699083
_cell_length_b	16.053802
_cell_length_c	17.699083
_cell_angle_alpha	87.440590
_cell_angle_beta	83.283015
_cell_angle_gamma	92.569971
loop_
_atom_site_label
_atom_site_type_symbol
_atom_site_fract_x
_atom_site_fract_y
_atom_site_fract_z
O1	O	1.007269	0.069313	0.092524
O2	O	0.786892	0.069341	0.104975
O3	O	0.903307	0.069319	-0.011439
O4	O	0.890855	0.069335	0.208938
O5	O	0.896899	-0.069539	-0.005058
O6	O	0.780484	-0.069517	0.111357
O7	O	1.000862	-0.069544	0.098905
Zn8	Zn	0.889656	-0.091577	0.106144
Zn9	Zn	0.898098	0.091374	0.097736
O10	O	0.884447	-0.069522	0.215320
C11	C	0.755492	-0.000084	0.107720
C12	C	0.671474	-0.000074	0.106380
N13	N	0.883899	-0.216436	0.111882
C14	C	0.622853	-0.000069	0.174714
C15	C	0.543909	-0.000080	0.173452
C16	C	0.513588	-0.000090	0.103856
C17	C	0.562215	-0.000097	0.035518
C18	C	0.641157	-0.000092	0.036780
C19	C	0.243851	-0.000118	0.030423
C20	C	0.164903	-0.000121	0.029166
C21	C	0.146603	-0.000106	0.167095
C22	C	0.225545	-0.000101	0.168358
C23	C	0.274165	-0.000113	0.100020
C24	C	0.359765	-0.000103	0.101389
C25	C	0.427990	-0.000094	0.102486
C26	C	0.933452	-0.260140	0.062365
C27	C	0.929432	-0.347546	0.066386
C28	C	0.875864	-0.391247	0.119927
C29	C	0.826306	-0.347537	0.169447
C30	C	0.830322	-0.260133	0.165422
C31	C	0.858319	-0.652653	0.137487
C32	C	0.854308	-0.740064	0.141510
C33	C	0.957434	-0.740066	0.038447
C34	C	0.961449	-0.652660	0.034430
C35	C	0.911888	-0.608958	0.083947
N36	N	0.871755	-0.480590	0.124040
N37	N	0.915994	-0.519617	0.079830
C38	C	1.032262	-0.000117	0.096161
C39	C	1.116280	-0.000122	0.097500
C40	C	0.899657	-0.000110	-0.036445
C41	C	0.898318	-0.000110	-0.120464
N42	N	0.903860	0.216233	0.091993
C43	C	0.966651	-0.000120	-0.169084
C44	C	0.965389	-0.000112	-0.248028
C45	C	0.895793	-0.000101	-0.278349
C46	C	0.827455	-0.000089	-0.229722
C47	C	0.828718	-0.000090	-0.150781
C48	C	0.822360	-0.000081	-0.548086
C49	C	0.821102	-0.000082	-0.627034
C50	C	0.959031	-0.000103	-0.645333
C51	C	0.960294	-0.000105	-0.566391
C52	C	0.891957	-0.000088	-0.517772
C53	C	0.893326	-0.000095	-0.432172
C54	C	0.894423	-0.000100	-0.363947
C55	C	0.888097	-0.000092	0.240326
C56	C	0.889436	-0.000086	0.324344
H57	H	0.504325	-0.000075	0.229096
C58	C	0.528867	-0.000107	-0.041039
H59	H	0.569132	-0.000116	-0.081554
H60	H	0.500681	0.048314	-0.046624
H61	H	0.496225	-0.048537	-0.042172
H62	H	0.810683	-0.775641	0.185113
H63	H	0.140219	-0.000130	-0.027511
C64	C	0.258895	-0.000094	0.244913
H65	H	0.218630	-0.000101	0.285431
H66	H	0.291539	0.048329	0.246050
H67	H	0.287079	-0.048523	0.250494
C68	C	0.803811	-0.604592	0.191959
H69	H	0.771340	-0.643139	0.224428
H70	H	0.773921	-0.570505	0.163207
H71	H	0.832548	-0.570487	0.221865
H72	H	0.680744	-0.000096	-0.018864
H73	H	0.107007	-0.000101	0.222739
C74	C	0.297323	-0.000125	-0.044745
H75	H	0.267956	-0.000123	-0.086373
H76	H	0.326270	-0.048547	-0.044897
H77	H	0.330727	0.048304	-0.049348
H78	H	0.997783	-0.775656	-0.001867
C79	C	0.744544	-0.000059	-0.660386
H80	H	0.704025	-0.000040	-0.620125
H81	H	0.738944	-0.048479	-0.688579
H82	H	0.743430	0.048372	-0.693024
H83	H	1.016966	-0.000118	-0.541708
C84	C	0.750899	-0.000070	-0.263070
H85	H	0.710384	-0.000055	-0.222806
H86	H	0.745300	-0.048490	-0.291264
H87	H	0.749779	0.048362	-0.295706
C88	C	0.992377	-0.212076	0.003467
H89	H	1.021308	-0.250626	-0.025452
H90	H	1.025399	-0.177968	0.029081
H91	H	0.966772	-0.177992	-0.029578
H92	H	0.969781	-0.383128	0.026065
H93	H	1.005069	-0.617080	-0.009168
C94	C	0.767382	-0.395606	0.228343
H95	H	0.772092	-0.453921	0.223654
H96	H	0.717545	-0.381293	0.219529
H97	H	0.776171	-0.381268	0.278188
H98	H	0.789970	-0.224551	0.205743
C99	C	1.034205	-0.000112	-0.698814
H100	H	1.075832	-0.000129	-0.669447
H101	H	1.038819	0.048311	-0.732211
H102	H	1.034343	-0.048540	-0.727766
C103	C	0.747191	-0.000078	-0.494614
H104	H	0.705564	-0.000082	-0.523980
H105	H	0.747044	0.048343	-0.465658
H106	H	0.742585	-0.048509	-0.461219
C107	C	1.043205	-0.000135	-0.135734
H108	H	1.034173	-0.000143	-0.081755
H109	H	1.073572	0.048283	-0.154653
H110	H	1.069097	-0.048568	-0.150211
C111	C	0.656200	-0.000058	0.251270
H112	H	0.615933	-0.000064	0.291786
H113	H	0.688842	0.048366	0.252407
H114	H	0.684386	-0.048485	0.256855
C115	C	1.040555	-0.000131	-0.301507
H116	H	1.082183	-0.000151	-0.272142
H117	H	1.045171	0.048291	-0.334906
H118	H	1.040688	-0.048561	-0.330458
C119	C	0.753552	-0.000082	-0.097298
H120	H	0.711921	-0.000082	-0.126661
H121	H	0.753413	0.048341	-0.068345
H122	H	0.748942	-0.048510	-0.063900
