data_functionalizedCrystal
_audit_creation_method	'MofGen! by Chris Wilmer'
_symmetry_space_group_name_H-M	'P1'
_symmetry_Int_Tables_number	1
_symmetry_cell_setting	triclinic
loop_
_symmetry_equiv_pos_as_xyz
  x,y,z
_cell_length_a	19.805407
_cell_length_b	16.959454
_cell_length_c	19.805399
_cell_angle_alpha	89.976206
_cell_angle_beta	89.983114
_cell_angle_gamma	90.020075
loop_
_atom_site_label
_atom_site_type_symbol
_atom_site_fract_x
_atom_site_fract_y
_atom_site_fract_z
Zn1	Zn	1.034748	-0.314689	-0.382744
Zn2	Zn	1.534748	0.185311	0.117256
Zn3	Zn	1.034680	-0.446875	-0.269566
Zn4	Zn	1.534680	0.053125	0.230434
Zn5	Zn	0.921567	-0.314714	-0.269569
Zn6	Zn	1.421567	0.185286	0.230431
Zn7	Zn	0.921538	-0.446829	-0.382713
Zn8	Zn	1.421538	0.053171	0.117287
O9	O	0.978133	-0.380777	-0.326148
O10	O	1.478133	0.119223	0.173852
O11	O	1.129455	-0.332232	-0.367743
O12	O	1.629455	0.167768	0.132257
O13	O	1.019660	-0.429373	-0.174850
O14	O	1.519660	0.070627	0.325150
O15	O	0.936621	-0.204100	-0.284596
O16	O	1.436621	0.295900	0.215404
O17	O	1.129406	-0.429348	-0.284591
O18	O	1.629406	0.070652	0.215409
O19	O	1.019774	-0.204081	-0.367745
O20	O	1.519774	0.295919	0.132255
O21	O	0.936556	-0.332275	-0.174852
O22	O	1.436556	0.167725	0.325148
O23	O	0.826847	-0.332231	-0.284565
O24	O	1.326847	0.167769	0.215435
O25	O	0.936572	-0.429271	-0.477434
O26	O	1.436572	0.070729	0.022566
O27	O	0.826826	-0.429295	-0.367692
O28	O	1.326826	0.070705	0.132308
O29	O	1.019746	-0.332188	-0.477457
O30	O	1.519746	0.167812	0.022543
O31	O	1.019631	-0.557479	-0.284561
O32	O	1.519631	-0.057479	0.215439
O33	O	0.936506	-0.557446	-0.367690
O34	O	1.436506	-0.057446	0.132310
C35	C	0.802277	-0.380762	-0.326126
C36	C	1.302277	0.119238	0.173874
C37	C	0.727045	-0.380774	-0.326133
C38	C	1.227045	0.119226	0.173867
C39	C	0.978077	-0.586143	-0.326136
C40	C	1.478077	-0.086143	0.173864
C41	C	0.978114	-0.674000	-0.326154
C42	C	1.478114	-0.174000	0.173846
C43	C	0.691708	-0.431392	-0.369347
C44	C	1.191708	0.068608	0.130653
C45	C	0.621019	-0.431393	-0.369356
C46	C	1.121019	0.068607	0.130644
C47	C	0.585670	-0.380780	-0.326148
C48	C	1.085670	0.119220	0.173852
C49	C	0.621012	-0.330157	-0.282932
C50	C	1.121012	0.169843	0.217068
C51	C	0.691700	-0.330152	-0.282926
C52	C	1.191700	0.169848	0.217074
C53	C	0.335939	-0.330175	-0.282954
C54	C	0.835939	0.169825	0.217046
C55	C	0.265247	-0.330185	-0.282962
C56	C	0.765247	0.169815	0.217038
C57	C	0.265259	-0.431415	-0.369384
C58	C	0.765259	0.068585	0.130616
C59	C	0.335946	-0.431411	-0.369379
C60	C	0.835946	0.068589	0.130621
C61	C	0.371282	-0.380785	-0.326166
C62	C	0.871282	0.119215	0.173834
C63	C	0.447931	-0.380783	-0.326157
C64	C	0.947931	0.119217	0.173843
C65	C	0.509023	-0.380786	-0.326153
C66	C	1.009023	0.119214	0.173847
C67	C	0.934913	-1.045488	-0.369428
C68	C	1.434913	-0.545488	0.130572
C69	C	1.021542	-1.045462	-0.282937
C70	C	1.521542	-0.545462	0.217063
C71	C	1.021519	-0.962917	-0.282930
C72	C	1.521519	-0.462917	0.217070
C73	C	0.978191	-0.921652	-0.326173
C74	C	1.478191	-0.421652	0.173827
C75	C	0.934887	-0.962934	-0.369422
C76	C	1.434887	-0.462934	0.130578
C77	C	1.064817	-0.921629	-0.239677
C78	C	1.564817	-0.421629	0.260323
C79	C	1.064795	-0.839078	-0.239669
C80	C	1.564795	-0.339078	0.260331
C81	C	1.021470	-0.797812	-0.282915
C82	C	1.521470	-0.297812	0.217085
C83	C	0.978164	-0.839099	-0.326167
C84	C	1.478164	-0.339099	0.173833
C85	C	0.934837	-0.797835	-0.369409
C86	C	1.434837	-0.297835	0.130591
C87	C	0.891534	-0.839120	-0.412665
C88	C	1.391534	-0.339120	0.087335
C89	C	0.891562	-0.921669	-0.412669
C90	C	1.391562	-0.421669	0.087331
C91	C	1.021442	-0.715264	-0.282911
C92	C	1.521442	-0.215264	0.217089
C93	C	0.934810	-0.715281	-0.369403
C94	C	1.434810	-0.215281	0.130597
C95	C	1.154676	-0.380792	-0.326170
C96	C	1.654676	0.119208	0.173830
C97	C	1.229908	-0.380799	-0.326180
C98	C	1.729908	0.119201	0.173820
C99	C	0.978163	-0.380722	-0.502691
C100	C	1.478163	0.119278	-0.002691
C101	C	0.978176	-0.380698	-0.577923
C102	C	1.478176	0.119302	-0.077923
C103	C	0.978209	-0.174608	-0.326174
C104	C	1.478209	0.325392	0.173826
C105	C	0.978241	-0.086752	-0.326186
C106	C	1.478241	0.413248	0.173814
C107	C	0.934916	-0.330135	-0.613267
C108	C	1.434916	0.169865	-0.113267
C109	C	0.934925	-0.330119	-0.683956
C110	C	1.434925	0.169881	-0.183956
C111	C	0.978198	-0.380664	-0.719298
C112	C	1.478198	0.119336	-0.219298
C113	C	1.021460	-0.431233	-0.683949
C114	C	1.521460	0.068767	-0.183949
C115	C	1.021447	-0.431252	-0.613262
C116	C	1.521447	0.068748	-0.113262
C117	C	1.021513	-0.431160	-0.969022
C118	C	1.521513	0.068840	-0.469022
C119	C	1.021525	-0.431135	-1.039714
C120	C	1.521525	0.068865	-0.539714
C121	C	0.934992	-0.330027	-1.039716
C122	C	1.434992	0.169973	-0.539716
C123	C	0.934979	-0.330046	-0.969029
C124	C	1.434979	0.169954	-0.469029
C125	C	0.978238	-0.380617	-0.933686
C126	C	1.478238	0.119383	-0.433686
C127	C	0.978226	-0.380634	-0.857037
C128	C	1.478226	0.119366	-0.357037
C129	C	0.978214	-0.380644	-0.795946
C130	C	1.478214	0.119356	-0.295946
C131	C	0.978143	-0.380774	-0.150292
C132	C	1.478143	0.119226	0.349708
C133	C	0.978261	-0.380575	-0.075060
C134	C	1.478261	0.119425	0.424940
H135	H	0.720484	-0.472609	-0.404530
H136	H	1.220484	0.027391	0.095470
H137	H	1.056678	-0.472420	-0.584485
H138	H	1.556678	0.027580	-0.084485
H139	H	0.899744	-0.288884	-0.940257
H140	H	1.399744	0.211116	-0.440257
F141	F	0.888862	-0.276333	-0.575659
F142	F	1.388862	0.223667	-0.075659
F143	F	0.729308	-0.276276	-0.236934
F144	F	1.229308	0.223724	0.263066
F145	F	1.067510	-0.485032	-0.721565
F146	F	1.567510	0.014968	-0.221565
F147	F	0.888697	-0.671371	-0.415432
F148	F	1.388697	-0.171371	0.084568
F149	F	1.110885	-0.795146	-0.193638
F150	F	1.610885	-0.295146	0.306362
F151	F	0.888950	-0.276206	-1.077337
F152	F	1.388950	0.223794	-0.577337
F153	F	0.373538	-0.276292	-0.236965
F154	F	0.873538	0.223708	0.263035
F155	F	0.845420	-0.795194	-0.458682
F156	F	1.345420	-0.295194	0.041318
F157	F	0.583413	-0.485267	-0.415351
F158	F	1.083413	0.014733	0.084649
H159	H	0.364724	-0.472627	-0.404561
H160	H	0.864724	0.027373	0.095439
H161	H	1.056695	-0.681653	-0.247691
H162	H	1.556695	-0.181653	0.252309
F163	F	0.888857	-0.276332	-0.721569
F164	F	1.388857	0.223668	-0.221569
F165	F	0.888833	-1.089426	-0.415464
F166	F	1.388833	-0.589426	0.084536
F167	F	0.227627	-0.276312	-0.236972
F168	F	0.727627	0.223688	0.263028
H169	H	0.592225	-0.288944	-0.247754
H170	H	1.092225	0.211056	0.252246
F171	F	0.227646	-0.485296	-0.415376
F172	F	0.727646	0.014704	0.084624
F173	F	0.845480	-0.965612	-0.458699
F174	F	1.345480	-0.465612	0.041301
H175	H	1.056814	-1.079065	-0.247726
H176	H	1.556814	-0.579065	0.252274
F177	F	1.110929	-0.965548	-0.193661
F178	F	1.610929	-0.465548	0.306339
F179	F	1.067583	-0.484936	-1.077327
F180	F	1.567583	0.015064	-0.577327
H181	H	1.056730	-0.472347	-0.940254
H182	H	1.556730	0.027653	-0.440254
