data_functionalizedCrystal
_audit_creation_method	'MofGen! by Chris Wilmer'
_symmetry_space_group_name_H-M	'P1'
_symmetry_Int_Tables_number	1
_symmetry_cell_setting	triclinic
loop_
_symmetry_equiv_pos_as_xyz
  x,y,z
_cell_length_a	6.817900
_cell_length_b	15.185311
_cell_length_c	16.015572
_cell_angle_alpha	77.727752
_cell_angle_beta	104.485554
_cell_angle_gamma	104.261569
loop_
_atom_site_label
_atom_site_type_symbol
_atom_site_fract_x
_atom_site_fract_y
_atom_site_fract_z
V1	V	-3.992733	-0.036636	-0.269467
O2	O	-3.976926	0.093380	-0.264077
O3	O	-3.948299	-0.160759	-0.267875
O4	O	-3.927750	0.004128	-0.386876
O5	O	-3.997617	-0.072649	-0.144251
V6	V	-4.477996	-0.025835	-0.254460
O7	O	-4.250175	-0.060330	-0.302386
O8	O	-4.670751	-0.002141	-0.221540
O9	O	-4.299224	0.098288	-0.256052
O10	O	-4.611199	-0.155851	-0.259850
O11	O	-4.590509	0.010178	-0.379675
O12	O	-4.319772	-0.066599	-0.137050
C13	C	-3.794801	-0.192274	-0.263688
C14	C	-3.839647	-0.293488	-0.263169
C15	C	-3.999860	-0.734625	-0.181900
C16	C	-4.058889	-0.708248	-0.340102
C17	C	-4.016727	-0.613153	-0.340585
C18	C	-3.966132	-0.578790	-0.261724
C19	C	-3.957699	-0.639521	-0.182381
C20	C	-4.025176	-0.552415	-0.419927
C21	C	-3.983015	-0.457313	-0.420413
C22	C	-3.932404	-0.422948	-0.341552
C23	C	-3.923971	-0.483686	-0.262205
C24	C	-3.873375	-0.449323	-0.183345
C25	C	-3.864926	-0.510059	-0.103997
C26	C	-3.907088	-0.605156	-0.103520
C27	C	-3.890242	-0.327851	-0.342029
C28	C	-3.831214	-0.354219	-0.183826
C29	C	-3.768588	0.018057	-0.415486
C30	C	-3.796768	0.050566	-0.511470
C31	C	-4.094621	-0.237977	-0.889685
C32	C	-4.121103	-0.207401	-0.979872
C33	C	-4.039061	-0.049211	-0.954847
C34	C	-4.012561	-0.079774	-0.864655
C35	C	-4.040347	-0.174158	-0.832081
C36	C	-3.958288	-0.015955	-0.807051
C37	C	-3.931801	-0.046516	-0.716868
C38	C	-3.959588	-0.140895	-0.684287
C39	C	-4.013861	-0.204718	-0.741898
C40	C	-3.930517	0.078428	-0.839627
C41	C	-3.876243	0.142247	-0.782023
C42	C	-3.849741	0.111687	-0.691838
C43	C	-3.877528	0.017307	-0.659257
C44	C	-3.795468	0.175510	-0.634227
C45	C	-3.768982	0.144949	-0.544043
C46	C	-3.851041	-0.013253	-0.569073
C47	C	-4.116064	0.129797	-0.260236
C48	C	-4.050455	0.231012	-0.260761
C49	C	-4.142277	-0.080533	-0.108436
C50	C	-4.093336	-0.113037	-0.012451
H51	H	-3.992975	-0.784080	-0.117297
Br52	Br	-4.093866	-0.599055	-0.526945
H53	H	-3.823738	-0.482068	-0.039789
H54	H	-4.100103	-0.736233	-0.404306
H55	H	-4.165291	-0.259377	-1.026772
H56	H	-3.989893	-0.407869	-0.485023
H57	H	-3.952054	0.103308	-0.913060
H58	H	-3.724788	0.196917	-0.497141
Br59	Br	-4.051511	-0.332811	-0.697681
Br60	Br	-3.762526	-0.307591	-0.076794
Br61	Br	-3.901737	-0.245429	-0.449707
Br62	Br	-3.888692	-0.141347	-0.524857
H63	H	-4.016451	0.027636	-0.981381
H64	H	-3.938025	-0.165776	-0.610853
Br65	Br	-3.757799	0.303597	-0.678446
H66	H	-3.900219	-0.654616	-0.038919
Br67	Br	-4.132271	-0.366070	-0.845468
Br68	Br	-3.838544	0.270335	-0.826239
