data_functionalizedCrystal
_audit_creation_method	'MofGen! by Chris Wilmer'
_symmetry_space_group_name_H-M	'P1'
_symmetry_Int_Tables_number	1
_symmetry_cell_setting	triclinic
loop_
_symmetry_equiv_pos_as_xyz
  x,y,z
_cell_length_a	16.992694
_cell_length_b	15.021413
_cell_length_c	16.992700
_cell_angle_alpha	90.006426
_cell_angle_beta	90.667698
_cell_angle_gamma	89.987832
loop_
_atom_site_label
_atom_site_type_symbol
_atom_site_fract_x
_atom_site_fract_y
_atom_site_fract_z
O1	O	1.050836	0.073944	0.166910
O2	O	1.550836	0.573944	0.666910
O3	O	0.822436	0.073970	0.165079
O4	O	1.322436	0.573970	0.665079
O5	O	0.935722	0.073935	0.051795
O6	O	1.435722	0.573935	0.551795
O7	O	0.937551	0.073980	0.280195
O8	O	1.437551	0.573980	0.780195
O9	O	0.935736	-0.074130	0.051803
O10	O	1.435736	0.425870	0.551803
O11	O	0.822451	-0.074094	0.165087
O12	O	1.322451	0.425906	0.665087
O13	O	1.050851	-0.074120	0.166919
O14	O	1.550851	0.425880	0.666919
Zn15	Zn	0.936653	-0.097616	0.166004
Zn16	Zn	1.436653	0.402384	0.666004
Zn17	Zn	0.936634	0.097465	0.165993
Zn18	Zn	1.436634	0.597465	0.665993
O19	O	0.937566	-0.074085	0.280203
O20	O	1.437566	0.425915	0.780203
C21	C	0.793084	-0.000059	0.162727
C22	C	1.293084	0.499941	0.662727
C23	C	0.705599	-0.000050	0.155699
C24	C	1.205599	0.499950	0.655699
C25	C	0.659608	-0.000038	0.223517
C26	C	1.159608	0.499962	0.723517
C27	C	0.577407	-0.000051	0.216908
C28	C	1.077407	0.499949	0.716908
C29	C	0.541199	-0.000071	0.142480
C30	C	1.041199	0.499929	0.642480
C31	C	0.587197	-0.000086	0.074657
C32	C	1.087197	0.499914	0.574657
C33	C	0.669396	-0.000079	0.081267
C34	C	1.169396	0.499921	0.581267
C35	C	0.295885	-0.000100	0.115086
C36	C	0.795885	0.499900	0.615086
C37	C	0.213680	-0.000105	0.108481
C38	C	0.713680	0.499895	0.608481
C39	C	0.203896	-0.000071	0.250732
C40	C	0.703896	0.499929	0.750732
C41	C	0.286097	-0.000059	0.257335
C42	C	0.786097	0.499941	0.757335
C43	C	0.332087	-0.000079	0.189512
C44	C	0.832087	0.499921	0.689512
N45	N	0.457177	-0.000082	0.135723
N46	N	0.957177	0.499918	0.635723
N47	N	0.416108	-0.000074	0.196270
N48	N	0.916108	0.499926	0.696270
N49	N	0.936672	-0.230753	0.166012
N50	N	1.436672	0.269247	0.666012
C51	C	0.989066	-0.470429	0.113617
C52	C	1.489066	0.029571	0.613617
C53	C	0.916978	-0.529754	0.093872
C54	C	1.416978	-0.029754	0.593872
C55	C	0.936653	-0.412360	0.166001
C56	C	1.436653	0.087640	0.666001
C57	C	1.008721	-0.529777	0.185698
C58	C	1.508721	-0.029777	0.685698
C59	C	0.936641	-0.587784	0.165989
C60	C	1.436641	-0.087784	0.665989
C61	C	0.864527	-0.470378	0.146218
C62	C	1.364527	0.029622	0.646218
C63	C	0.956319	-0.470397	0.238079
C64	C	1.456319	0.029603	0.738079
C65	C	0.884182	-0.529694	0.218360
C66	C	1.384182	-0.029694	0.718360
C67	C	0.936661	-0.311303	0.166006
C68	C	1.436661	0.188697	0.666006
C69	C	0.936625	-0.688839	0.165984
C70	C	1.436625	-0.188839	0.665984
C71	C	1.080204	-0.000089	0.169270
C72	C	1.580204	0.499911	0.669270
C73	C	1.167688	-0.000092	0.176299
C74	C	1.667688	0.499908	0.676299
C75	C	0.933374	-0.000101	0.022439
C76	C	1.433374	0.499899	0.522439
C77	C	0.926346	-0.000112	-0.065046
C78	C	1.426346	0.499888	0.434954
N79	N	0.936621	0.230603	0.165980
N80	N	1.436621	0.730603	0.665980
C81	C	0.879124	-0.000026	-0.556965
C82	C	1.379124	0.499974	-0.056965
C83	C	0.885734	-0.000035	-0.474764
C84	C	1.385734	0.499965	0.025236
C85	C	0.960162	-0.000056	-0.438557
C86	C	1.460162	0.499944	0.061443
C87	C	1.027984	-0.000058	-0.484555
C88	C	1.527984	0.499942	0.015445
C89	C	1.021374	-0.000042	-0.566754
C90	C	1.521374	0.499958	-0.066754
C91	C	0.987558	-0.000098	-0.193243
C92	C	1.487558	0.499902	0.306757
C93	C	0.994163	-0.000117	-0.111038
C94	C	1.494163	0.499883	0.388962
C95	C	0.851912	-0.000093	-0.101253
C96	C	1.351912	0.499907	0.398747
C97	C	0.845308	-0.000082	-0.183454
C98	C	1.345308	0.499918	0.316546
C99	C	0.913131	-0.000079	-0.229445
C100	C	1.413131	0.499921	0.270555
N101	N	0.966919	-0.000068	-0.354535
N102	N	1.466919	0.499932	0.145465
N103	N	0.906372	-0.000061	-0.313465
N104	N	1.406372	0.499939	0.186535
C105	C	0.939914	-0.000047	0.309559
C106	C	1.439914	0.499953	0.809559
C107	C	0.946942	-0.000030	0.397043
C108	C	1.446942	0.499970	0.897043
H109	H	0.689081	-0.000021	0.284123
H110	H	1.189081	0.499979	0.784123
H111	H	0.830509	-0.000028	-0.437320
H112	H	1.330509	0.499972	0.062680
N113	N	1.044615	-0.437790	0.058016
N114	N	1.544615	0.062210	0.558016
N115	N	1.083835	-0.491216	0.017930
N116	N	1.583835	0.008784	0.517930
H117	H	1.123065	-0.468165	-0.021338
H118	H	1.623065	0.031835	0.478662
H119	H	0.557710	-0.000115	0.014056
H120	H	1.057710	0.499885	0.514056
H121	H	0.539964	-0.000040	0.272132
H122	H	1.039964	0.499960	0.772132
H123	H	0.900334	-0.555827	0.032912
H124	H	1.400334	-0.055827	0.532912
N125	N	0.323067	-0.000027	0.333368
N126	N	0.823067	0.499973	0.833368
N127	N	0.281993	-0.000010	0.393915
N128	N	0.781993	0.499990	0.893915
H129	H	0.308102	0.000018	0.447615
H130	H	0.808102	0.500018	0.947615
H131	H	0.818517	-0.000019	-0.586438
H132	H	1.318517	0.499981	-0.086438
N133	N	0.342844	-0.000117	0.045800
N134	N	0.842844	0.499883	0.545800
N135	N	0.310503	-0.000130	-0.020646
N136	N	0.810503	0.499870	0.479354
H137	H	0.343670	-0.000139	-0.069583
H138	H	0.843670	0.499861	0.430417
H139	H	0.803557	-0.444397	0.129484
H140	H	1.303557	0.055603	0.629484
H141	H	0.706842	-0.000089	0.026042
H142	H	1.206842	0.499911	0.526042
H143	H	0.784701	-0.000055	-0.212927
H144	H	1.284701	0.499945	0.287073
N145	N	0.828503	-0.562133	0.273921
N146	N	1.328503	-0.062133	0.773921
N147	N	0.757253	-0.542905	0.266260
N148	N	1.257253	-0.042905	0.766260
H149	H	0.717927	-0.565816	0.305496
H150	H	1.217927	-0.065816	0.805496
N151	N	0.977231	-0.437671	0.314532
N152	N	1.477231	0.062329	0.814532
N153	N	1.042713	-0.456674	0.344309
N154	N	1.542713	0.043326	0.844309
H155	H	1.057490	-0.433561	0.398306
H156	H	1.557490	0.066439	0.898306
N157	N	1.085185	-0.562510	0.206596
N158	N	1.585185	-0.062510	0.706596
N159	N	1.143061	-0.543521	0.165086
N160	N	1.643061	-0.043521	0.665086
H161	H	1.197066	-0.566637	0.179838
H162	H	1.697066	-0.066637	0.679838
H163	H	0.796695	-0.000094	-0.063798
H164	H	1.296695	0.499906	0.436202
H165	H	1.054774	-0.000134	-0.081561
H166	H	1.554774	0.499866	0.418439
H167	H	1.088585	-0.000076	-0.455069
H168	H	1.588585	0.499924	0.044931
N169	N	0.156917	-0.000079	0.320007
N170	N	0.656917	0.499921	0.820007
N171	N	0.162837	-0.062487	0.368367
N172	N	0.662837	0.437513	0.868367
H173	H	0.129658	-0.062497	0.417295
H174	H	0.629658	0.437503	0.917295
N175	N	0.176706	-0.000123	0.032445
N176	N	0.676706	0.499877	0.532445
N177	N	0.217777	-0.000141	-0.028105
N178	N	0.717777	0.499859	0.471895
H179	H	0.191664	-0.000152	-0.081804
H180	H	0.691664	0.499848	0.418196
N181	N	1.056843	-0.000091	-0.240203
N182	N	1.556843	0.499909	0.259797
N183	N	1.123290	-0.000109	-0.207862
N184	N	1.623290	0.499891	0.292138
H185	H	1.172226	-0.000103	-0.241030
H186	H	1.672226	0.499897	0.258970
N187	N	1.090656	-0.000041	-0.613725
N188	N	1.590656	0.499959	-0.113725
N189	N	1.157106	-0.000058	-0.581390
N190	N	1.657106	0.499942	-0.081390
H191	H	1.206039	-0.000054	-0.614562
H192	H	1.706039	0.499946	-0.114562
