data_functionalizedCrystal
_audit_creation_method	'MofGen! by Chris Wilmer'
_symmetry_space_group_name_H-M	'P1'
_symmetry_Int_Tables_number	1
_symmetry_cell_setting	triclinic
loop_
_symmetry_equiv_pos_as_xyz
  x,y,z
_cell_length_a	17.640112
_cell_length_b	17.640280
_cell_length_c	17.637464
_cell_angle_alpha	92.150542
_cell_angle_beta	109.606029
_cell_angle_gamma	92.184069
loop_
_atom_site_label
_atom_site_type_symbol
_atom_site_fract_x
_atom_site_fract_y
_atom_site_fract_z
Zn1	Zn	1.193466	-0.110293	-0.183754
Zn2	Zn	1.693466	0.389707	0.316246
Zn3	Zn	1.243952	-0.199819	-0.023315
Zn4	Zn	1.743952	0.300181	0.476685
Zn5	Zn	1.083554	-0.110327	-0.073773
Zn6	Zn	1.583554	0.389673	0.426227
Zn7	Zn	1.093735	-0.260536	-0.173505
Zn8	Zn	1.593735	0.239464	0.326495
O9	O	1.153677	-0.170244	-0.113587
O10	O	1.653677	0.329756	0.386413
O11	O	1.309028	-0.096744	-0.145644
O12	O	1.809028	0.403256	0.354356
O13	O	1.239543	-0.162551	0.078874
O14	O	1.739543	0.337449	0.578874
O15	O	1.072745	-0.009993	-0.113768
O16	O	1.572745	0.490007	0.386232
O17	O	1.346120	-0.162518	-0.027770
O18	O	1.846120	0.337482	0.472230
O19	O	1.153496	-0.009968	-0.194571
O20	O	1.653496	0.490032	0.305429
O21	O	1.121699	-0.096802	0.041803
O22	O	1.621699	0.403198	0.541803
O23	O	0.976040	-0.155677	-0.103830
O24	O	1.476040	0.344323	0.396170
O25	O	1.090097	-0.266002	-0.283747
O26	O	1.590097	0.233998	0.216253
O27	O	0.983520	-0.266035	-0.177102
O28	O	1.483520	0.233965	0.322898
O29	O	1.163368	-0.155619	-0.291277
O30	O	1.663368	0.344381	0.208723
O31	O	1.249415	-0.308203	-0.017832
O32	O	1.749415	0.191797	0.482168
O33	O	1.139051	-0.352812	-0.128176
O34	O	1.639051	0.147188	0.371824
C35	C	0.951552	-0.217449	-0.144830
C36	C	1.451552	0.282551	0.355170
C37	C	0.865084	-0.237666	-0.158210
C38	C	1.365084	0.262334	0.341790
C39	C	1.200835	-0.356521	-0.066430
C40	C	1.700835	0.143479	0.433570
C41	C	1.221077	-0.436201	-0.046271
C42	C	1.721077	0.063799	0.453729
C43	C	0.560978	-0.016651	-0.011951
C44	C	1.060978	0.483349	0.488049
C45	C	0.479730	-0.035665	-0.024530
C46	C	0.979730	0.464335	0.475470
C47	C	0.487631	-0.150667	-0.100625
C48	C	0.987631	0.349333	0.399375
C49	C	0.568881	-0.131661	-0.088055
C50	C	1.068881	0.368339	0.411945
C51	C	0.605548	-0.064653	-0.043717
C52	C	1.105548	0.435347	0.456283
C53	C	0.613451	-0.179663	-0.119822
C54	C	1.113451	0.320337	0.380178
C55	C	0.694694	-0.160661	-0.107249
C56	C	1.194694	0.339339	0.392751
C57	C	0.731368	-0.093657	-0.062911
C58	C	1.231368	0.406343	0.437089
C59	C	0.686791	-0.045651	-0.031144
C60	C	1.186791	0.454349	0.468856
C61	C	0.576784	-0.246673	-0.164155
C62	C	1.076784	0.253327	0.335845
C63	C	0.621354	-0.294675	-0.195922
C64	C	1.121354	0.205325	0.304078
C65	C	0.702597	-0.275670	-0.183354
C66	C	1.202597	0.224330	0.316646
C67	C	0.739271	-0.208666	-0.139016
C68	C	1.239271	0.291334	0.360984
C69	C	0.747174	-0.323676	-0.215121
C70	C	1.247174	0.176324	0.284879
C71	C	0.828417	-0.304674	-0.202548
C72	C	1.328417	0.195326	0.297452
C73	C	0.820514	-0.189664	-0.126443
C74	C	1.320514	0.310336	0.373557
C75	C	1.000179	-0.814503	-0.266965
C76	C	1.500179	-0.314503	0.233035
C77	C	1.019204	-0.889368	-0.247997
C78	C	1.519204	-0.389368	0.252003
C79	C	1.134173	-0.842861	-0.133188
C80	C	1.634173	-0.342861	0.366812
C81	C	1.115159	-0.767990	-0.152148
C82	C	1.615159	-0.267990	0.347852
C83	C	1.048161	-0.753818	-0.219037
C84	C	1.548161	-0.253818	0.280963
C85	C	1.163141	-0.707305	-0.104219
C86	C	1.663141	-0.207305	0.395781
C87	C	1.144126	-0.632441	-0.123176
C88	C	1.644126	-0.132441	0.376824
C89	C	1.077130	-0.618263	-0.190060
C90	C	1.577130	-0.118263	0.309940
C91	C	1.029146	-0.678955	-0.237993
C92	C	1.529146	-0.178955	0.262007
C93	C	1.230135	-0.721479	-0.037328
C94	C	1.730135	-0.221479	0.462672
C95	C	1.278117	-0.660794	0.010601
C96	C	1.778117	-0.160794	0.510601
C97	C	1.259106	-0.585928	-0.008359
C98	C	1.759106	-0.085928	0.491641
C99	C	1.192110	-0.571749	-0.075243
C100	C	1.692110	-0.071749	0.424757
C101	C	1.307090	-0.525236	0.039574
C102	C	1.807090	-0.025236	0.539574
C103	C	1.288075	-0.450372	0.020618
C104	C	1.788075	0.049628	0.520618
C105	C	1.173095	-0.496886	-0.094199
C106	C	1.673095	0.003114	0.405801
C107	C	1.356591	-0.122854	-0.082222
C108	C	1.856591	0.377146	0.417778
C109	C	1.443061	-0.102660	-0.068856
C110	C	1.943061	0.397340	0.431144
C111	C	1.122237	-0.217580	-0.316533
C112	C	1.622237	0.282420	0.183467
C113	C	1.108839	-0.237752	-0.403017
C114	C	1.608839	0.262248	0.096983
C115	C	1.106353	0.016762	-0.160941
C116	C	1.606353	0.516762	0.339059
C117	C	1.086187	0.096452	-0.181121
C118	C	1.586187	0.596452	0.318879
C119	C	1.051810	-0.323649	-0.520993
C120	C	1.551810	0.176351	-0.020993
C121	C	1.064404	-0.304687	-0.439729
C122	C	1.564404	0.195313	0.060271
C123	C	1.140701	-0.189753	-0.447561
C124	C	1.640701	0.310247	0.052439
C125	C	1.128117	-0.208706	-0.528826
C126	C	1.628117	0.291294	-0.028826
C127	C	1.083670	-0.275655	-0.565536
C128	C	1.583670	0.224345	-0.065536
C129	C	1.159977	-0.160712	-0.573369
C130	C	1.659977	0.339288	-0.073369
C131	C	1.147391	-0.179663	-0.654628
C132	C	1.647391	0.320337	-0.154628
C133	C	1.102944	-0.246607	-0.691345
C134	C	1.602944	0.253393	-0.191345
C135	C	1.071084	-0.294605	-0.646795
C136	C	1.571084	0.205395	-0.146795
C137	C	1.204419	-0.093761	-0.536659
C138	C	1.704419	0.406239	-0.036659
C139	C	1.236279	-0.045767	-0.581202
C140	C	1.736279	0.454233	-0.081202
C141	C	1.223697	-0.064720	-0.662462
C142	C	1.723697	0.435280	-0.162462
C143	C	1.179251	-0.131664	-0.699178
C144	C	1.679251	0.368336	-0.199178
C145	C	1.255557	-0.016722	-0.707011
C146	C	1.755557	0.483278	-0.207011
C147	C	1.242971	-0.035672	-0.788271
C148	C	1.742971	0.464328	-0.288271
C149	C	1.166664	-0.150615	-0.780437
C150	C	1.666664	0.349385	-0.280437
C151	C	1.185027	-0.123030	0.088564
C152	C	1.685027	0.376970	0.588564
C153	C	1.198524	-0.102621	0.175020
C154	C	1.698524	0.397379	0.675020
H155	H	0.797522	-0.078187	-0.052673
H156	H	1.297522	0.421813	0.447327
H157	H	0.590829	0.037921	0.024140
H158	H	1.090829	0.537921	0.524140
O159	O	1.339844	-0.384916	0.072295
O160	O	1.839844	0.115084	0.572295
H161	H	1.315366	-0.330479	0.047874
H162	H	1.815366	0.169521	0.547874
H163	H	0.974594	-0.667417	-0.292466
H164	H	1.474594	-0.167417	0.207534
H165	H	1.038438	-0.343765	-0.403470
H166	H	1.538438	0.156235	0.096530
H167	H	0.457767	-0.205226	-0.136723
H168	H	0.957767	0.294774	0.363277
O169	O	1.118719	-0.222822	-0.820041
O170	O	1.618719	0.277178	-0.320041
H171	H	1.157033	-0.259803	-0.842444
H172	H	1.657033	0.240197	-0.342444
H173	H	0.716643	0.008922	0.004946
H174	H	1.216643	0.508922	0.504946
O175	O	1.217997	-0.073326	-0.449013
O176	O	1.717997	0.426674	0.050987
H177	H	1.191901	-0.017928	-0.443708
H178	H	1.691901	0.482072	0.056292
H179	H	1.272465	0.008743	-0.551303
H180	H	1.772465	0.508743	-0.051303
H181	H	1.061644	-0.557303	-0.205488
H182	H	1.561644	-0.057303	0.294512
H183	H	1.092690	-0.262031	-0.757514
H184	H	1.592690	0.237969	-0.257514
H185	H	0.443441	0.003433	0.001335
H186	H	0.943441	0.503433	0.501335
H187	H	0.510630	-0.262143	-0.174390
H188	H	1.010630	0.237857	0.325610
H189	H	1.015624	-0.378169	-0.550882
H190	H	1.515624	0.121831	-0.050882
O191	O	1.303497	0.055484	-0.667414
O192	O	1.803497	0.555484	-0.167414
H193	H	1.306899	0.060596	-0.603425
H194	H	1.806899	0.560596	-0.103425
O195	O	1.277337	0.016085	-0.836321
O196	O	1.777337	0.516085	-0.336321
H197	H	1.310366	0.065817	-0.797141
H198	H	1.810366	0.565817	-0.297141
H199	H	0.591489	-0.349235	-0.232019
H200	H	1.091489	0.150765	0.267981
H201	H	0.945627	-0.802966	-0.321438
H202	H	1.445627	-0.302966	0.178562
O203	O	0.876495	-0.356425	-0.236831
O204	O	1.376495	0.143575	0.263169
H205	H	0.928141	-0.376065	-0.187003
H206	H	1.428141	0.123935	0.312997
H207	H	1.245617	-0.782439	-0.021897
H208	H	1.745617	-0.282439	0.478103
H209	H	1.188721	-0.854411	-0.078725
H210	H	1.688721	-0.354411	0.421275
H211	H	0.980135	-0.938779	-0.287039
H212	H	1.480135	-0.438779	0.212961
O213	O	1.350396	-0.676080	0.082725
O214	O	1.850396	-0.176080	0.582725
H215	H	1.355567	-0.738333	0.087848
H216	H	1.855567	-0.238333	0.587848
H217	H	0.850366	-0.135091	-0.090353
H218	H	1.350366	0.364909	0.409647
H219	H	0.717309	-0.378238	-0.251214
H220	H	1.217309	0.121762	0.248786
O221	O	1.100830	-0.481593	-0.166344
O222	O	1.600830	0.018407	0.333656
H223	H	1.108302	-0.507085	-0.221735
H224	H	1.608302	-0.007085	0.278265
H225	H	1.176887	-0.135242	-0.417661
H226	H	1.676887	0.364758	0.082339
O227	O	1.379363	-0.540524	0.111704
O228	O	1.879363	-0.040524	0.611704
H229	H	1.384530	-0.602777	0.116826
H230	H	1.884530	-0.102777	0.616826
H231	H	1.034897	-0.349125	-0.676684
H232	H	1.534897	0.150875	-0.176684
