data_functionalizedCrystal
_audit_creation_method	'MofGen! by Chris Wilmer'
_symmetry_space_group_name_H-M	'P1'
_symmetry_Int_Tables_number	1
_symmetry_cell_setting	triclinic
loop_
_symmetry_equiv_pos_as_xyz
  x,y,z
_cell_length_a	19.188930
_cell_length_b	14.519709
_cell_length_c	13.596369
_cell_angle_alpha	89.999684
_cell_angle_beta	90.005514
_cell_angle_gamma	96.587536
loop_
_atom_site_label
_atom_site_type_symbol
_atom_site_fract_x
_atom_site_fract_y
_atom_site_fract_z
O1	O	0.091519	-1.223302	0.081675
O2	O	0.102297	-0.954758	0.081706
O3	O	-0.004720	-1.096779	0.081670
O4	O	0.198536	-1.081280	0.081711
O5	O	-0.004714	-1.096762	-0.081912
O6	O	0.102303	-0.954740	-0.081877
O7	O	0.091525	-1.223284	-0.081908
Zn8	Zn	0.096915	-1.089009	-0.107865
Zn9	Zn	0.096907	-1.089032	0.107663
O10	O	0.198542	-1.081263	-0.081872
C11	C	-0.030730	-1.096269	-0.000124
C12	C	-0.108240	-1.094762	-0.000132
C13	C	0.101797	-0.920392	-0.000081
C14	C	0.100292	-0.818020	-0.000070
C15	C	0.092024	-1.257649	-0.000118
C16	C	0.093529	-1.360021	-0.000123
C17	C	-0.152867	-1.178095	-0.000146
C18	C	-0.225696	-1.176680	-0.000131
C19	C	-0.253895	-1.091926	-0.000120
C20	C	-0.209257	-1.008582	-0.000100
C21	C	-0.136430	-1.009999	-0.000106
N22	N	-0.362128	-1.027136	-0.055783
N23	N	-0.431312	-1.025795	-0.055779
C24	C	-0.473318	-1.087649	-0.000100
N25	N	-0.443530	-1.150909	0.055564
N26	N	-0.374340	-1.152253	0.055556
C27	C	-0.332863	-1.090379	-0.000113
C28	C	-0.596916	-1.169454	-0.000095
C29	C	-0.669745	-1.168035	-0.000073
C30	C	-0.653305	-0.999934	-0.000053
C31	C	-0.580477	-1.001355	-0.000065
C32	C	-0.552287	-1.086118	-0.000091
C33	C	0.224551	-1.081773	-0.000076
C34	C	0.302061	-1.083280	-0.000061
N35	N	0.096919	-1.089000	-0.254956
C36	C	0.094751	-0.443159	-0.000116
C37	C	0.096290	-0.547457	-0.000103
C38	C	0.097521	-0.630586	-0.000092
C39	C	0.099060	-0.734891	-0.000081
C40	C	0.096921	-1.089005	-0.343954
C41	C	0.096916	-1.089014	-0.455606
C42	C	0.096908	-1.089026	-0.544596
C43	C	0.096904	-1.089037	-0.656255
N44	N	0.096896	-1.089049	0.254755
H45	H	-0.129920	-1.247116	-0.000164
H46	H	-0.262039	-1.244542	-0.000138
H47	H	-0.544140	-0.933496	-0.000058
N48	N	-0.683701	-0.908513	-0.000039
H49	H	-0.713543	-0.904182	0.060605
H50	H	-0.713522	-0.904222	-0.060715
H51	H	-0.232221	-0.939574	-0.000089
H52	H	-0.706081	-1.235898	-0.000080
H53	H	-0.100094	-0.942137	-0.000095
H54	H	-0.573962	-1.238472	-0.000112
