data_functionalizedCrystal
_audit_creation_method	'MofGen! by Chris Wilmer'
_symmetry_space_group_name_H-M	'P1'
_symmetry_Int_Tables_number	1
_symmetry_cell_setting	triclinic
loop_
_symmetry_equiv_pos_as_xyz
  x,y,z
_cell_length_a	27.732048
_cell_length_b	27.732048
_cell_length_c	14.421503
_cell_angle_alpha	89.999321
_cell_angle_beta	89.997938
_cell_angle_gamma	82.642655
loop_
_atom_site_label
_atom_site_type_symbol
_atom_site_fract_x
_atom_site_fract_y
_atom_site_fract_z
O1	O	0.640930	0.057510	-0.077002
O2	O	0.500137	0.066256	-0.077032
O3	O	0.574906	-0.008514	-0.076998
O4	O	0.566161	0.132280	-0.077035
O5	O	0.574894	-0.008503	0.077225
O6	O	0.500124	0.066267	0.077192
O7	O	0.640918	0.057521	0.077221
Cu8	Cu	0.570520	0.061895	0.091288
Cu9	Cu	0.570535	0.061882	-0.091099
O10	O	0.566148	0.132291	0.077188
C11	C	0.482124	0.066078	0.000077
C12	C	0.428469	0.065525	0.000066
C13	C	0.089654	0.106229	0.000096
C14	C	-0.112006	0.104178	0.000104
O15	O	-0.143262	0.141398	0.000135
N16	N	-0.131130	0.059843	0.000115
C17	C	-0.099835	0.016017	0.000128
O18	O	-0.120728	-0.021740	0.000147
C19	C	0.101824	0.018068	0.000126
C20	C	0.120944	0.062407	0.000107
C21	C	0.108775	0.150563	0.000077
C22	C	0.159187	0.151076	0.000070
C23	C	0.190477	0.107253	0.000081
C24	C	0.171356	0.062919	0.000100
C25	C	0.133117	-0.025757	0.000147
C26	C	0.183535	-0.025240	0.000149
C27	C	0.202655	0.019098	0.000129
C28	C	0.253059	0.019609	0.000103
N29	N	0.272183	0.063944	0.000093
C30	C	0.240892	0.107766	0.000082
C31	C	-0.205709	0.014943	0.000128
C32	C	-0.256124	0.014430	0.000127
C33	C	-0.268291	0.102591	0.000104
C34	C	-0.217876	0.103104	0.000099
C35	C	-0.186585	0.059278	0.000118
C36	C	0.346761	0.108839	0.000066
C37	C	0.397178	0.109347	0.000055
C38	C	0.409341	0.021186	0.000082
C39	C	0.358929	0.020678	0.000088
C40	C	0.327639	0.064508	0.000084
O41	O	0.284343	-0.017592	0.000084
O42	O	0.261794	0.145518	0.000085
C43	C	0.039242	0.105716	0.000103
C44	C	0.020120	0.061382	0.000121
C45	C	0.051411	0.017560	0.000132
C46	C	-0.030294	0.060869	0.000120
C47	C	-0.061585	0.104691	0.000109
C48	C	-0.042461	0.149026	0.000099
C49	C	0.007951	0.149539	0.000092
C50	C	0.032287	-0.026775	0.000143
C51	C	-0.018125	-0.027284	0.000149
C52	C	-0.049416	0.016538	0.000138
C53	C	0.574716	-0.026515	0.000116
C54	C	0.574164	-0.080170	0.000124
C55	C	0.614867	-0.418985	0.000084
C56	C	0.612816	-0.620645	0.000071
O57	O	0.650037	-0.651900	0.000038
N58	N	0.568481	-0.639768	0.000063
C59	C	0.524656	-0.608474	0.000052
O60	O	0.486899	-0.629367	0.000035
C61	C	0.526707	-0.406815	0.000058
C62	C	0.571045	-0.387694	0.000076
C63	C	0.659202	-0.399864	0.000101
C64	C	0.659714	-0.349452	0.000110
C65	C	0.615892	-0.318161	0.000101
C66	C	0.571557	-0.337282	0.000084
C67	C	0.482882	-0.375521	0.000040
C68	C	0.483399	-0.325104	0.000040
C69	C	0.527737	-0.305983	0.000058
C70	C	0.528247	-0.255580	0.000084
N71	N	0.572583	-0.236456	0.000093
C72	C	0.616405	-0.267747	0.000101
C73	C	0.523582	-0.714348	0.000050
C74	C	0.523069	-0.764762	0.000050
C75	C	0.611230	-0.776930	0.000068
C76	C	0.611742	-0.726514	0.000074
C77	C	0.567917	-0.695224	0.000058
C78	C	0.617477	-0.161878	0.000120
C79	C	0.617986	-0.111461	0.000132
C80	C	0.529825	-0.099298	0.000109
C81	C	0.529316	-0.149710	0.000102
C82	C	0.573147	-0.180999	0.000104
O83	O	0.491047	-0.224296	0.000107
O84	O	0.654156	-0.246844	0.000098
C85	C	0.614355	-0.469397	0.000076
C86	C	0.570021	-0.488518	0.000059
C87	C	0.526198	-0.457228	0.000051
C88	C	0.569508	-0.538933	0.000059
C89	C	0.613330	-0.570223	0.000068
C90	C	0.657665	-0.551100	0.000076
C91	C	0.658177	-0.500688	0.000084
C92	C	0.481863	-0.476351	0.000042
C93	C	0.481355	-0.526764	0.000035
C94	C	0.525177	-0.558054	0.000044
C95	C	0.658931	0.057699	0.000111
C96	C	0.712586	0.058252	0.000116
C97	C	0.566338	0.150292	0.000072
C98	C	0.566891	0.203947	0.000058
N99	N	0.570513	0.061904	0.219570
N100	N	0.570545	0.061869	-0.219380
C101	C	0.535934	0.096462	0.469208
C102	C	0.579543	0.105518	0.531017
C103	C	0.570525	0.061892	0.408731
C104	C	0.526927	0.052848	0.531016
C105	C	0.570532	0.061882	0.591453
C106	C	0.614156	0.070970	0.469179
C107	C	0.561512	0.018281	0.469173
C108	C	0.605152	0.027318	0.530954
C109	C	0.570520	0.061900	0.303470
C110	C	0.570543	0.061875	0.696711
H111	H	0.412743	0.145454	0.000039
C112	C	-0.023264	-0.102602	-0.079098
C113	C	-0.039137	-0.076026	0.000170
H114	H	-0.036233	-0.132693	-0.079074
H115	H	-0.034034	-0.084583	-0.132876
H116	H	0.011240	-0.108559	-0.079094
H117	H	-0.073641	-0.070066	0.000162
H118	H	-0.028370	-0.094049	0.053962
H119	H	0.057760	-0.062462	0.000154
C120	C	0.708232	-0.614853	-0.079208
C121	C	0.705836	-0.585500	0.000079
H122	H	0.737971	-0.636089	-0.079211
H123	H	0.681755	-0.633451	-0.079207
H124	H	0.706605	-0.594925	-0.132979
H125	H	0.707460	-0.605428	0.053850
H126	H	0.732321	-0.566901	0.000086
H127	H	0.321291	0.144530	0.000065
H128	H	0.446177	-0.450879	0.000034
H129	H	0.506711	0.125720	0.442097
C130	C	0.698429	-0.783906	0.000076
C131	C	0.659401	-0.811330	0.000072
H132	H	0.728165	-0.805146	0.000080
H133	H	0.696799	-0.763990	-0.053700
H134	H	0.696794	-0.763989	0.053863
H135	H	0.661033	-0.831244	-0.053718
H136	H	0.661031	-0.831255	0.053854
C137	C	-0.141957	-0.035638	-0.079142
C138	C	-0.171318	-0.033234	0.000137
H139	H	-0.120726	-0.065380	-0.079135
H140	H	-0.161877	-0.034005	-0.132912
H141	H	-0.123350	-0.009162	-0.079135
H142	H	-0.189928	-0.059708	0.000127
H143	H	-0.151396	-0.034872	0.053922
C144	C	0.509171	-0.025374	0.377667
C145	C	0.551193	-0.031484	0.432460
H146	H	0.502799	-0.056097	0.354997
H147	H	0.482422	-0.011273	0.413915
H148	H	0.513798	-0.004615	0.326920
H149	H	0.546565	-0.052241	0.483211
H150	H	0.577948	-0.045593	0.396210
C151	C	0.704673	-0.168827	0.000151
C152	C	0.665656	-0.196266	0.000130
H153	H	0.734415	-0.190057	0.000168
H154	H	0.703043	-0.148911	-0.053626
H155	H	0.703025	-0.148909	0.053937
H156	H	0.667301	-0.216181	-0.053659
H157	H	0.667287	-0.216190	0.053913
H158	H	0.587173	0.142395	0.558181
C159	C	0.663466	-0.676885	0.079365
C160	C	0.660480	-0.705500	0.000086
H161	H	0.693558	-0.663917	0.079371
H162	H	0.637447	-0.651032	0.079351
H163	H	0.661426	-0.696302	0.133141
H164	H	0.662516	-0.686082	-0.053690
H165	H	0.686506	-0.731357	0.000092
H166	H	0.634440	-0.001923	0.557895
H167	H	0.209009	-0.060929	0.000165
C168	C	0.440984	0.078773	0.536501
C169	C	0.477151	0.042519	0.567678
H170	H	0.410254	0.072397	0.559128
H171	H	0.447626	0.109509	0.558593
H172	H	0.440541	0.078995	0.470638
H173	H	0.477597	0.042300	0.633542
H174	H	0.470507	0.011776	0.545591
H175	H	-0.067947	0.184708	0.000086
C176	C	0.669718	-0.061823	-0.079127
C177	C	0.666725	-0.090443	0.000147
H178	H	0.699805	-0.048847	-0.079115
H179	H	0.667690	-0.081236	-0.132901
H180	H	0.643691	-0.035972	-0.079118
H181	H	0.692750	-0.116296	0.000134
H182	H	0.668757	-0.071029	0.053935
C183	C	0.083489	-0.077474	0.079454
C184	C	0.112105	-0.074493	0.000172
H185	H	0.070515	-0.107562	0.079465
H186	H	0.102902	-0.075434	0.133222
H187	H	0.057635	-0.051449	0.079434
H188	H	0.137961	-0.100516	0.000196
H189	H	0.092691	-0.076538	-0.053610
C190	C	-0.009155	0.236627	0.000077
C191	C	0.028964	0.198277	0.000081
H192	H	0.003816	0.266717	0.000077
H193	H	-0.028562	0.234588	-0.053701
H194	H	-0.028567	0.234589	0.053862
H195	H	0.048373	0.200313	-0.053708
H196	H	0.048379	0.200317	0.053864
C197	C	0.142081	0.238164	0.000064
C198	C	0.180200	0.199814	0.000065
H199	H	0.155052	0.268254	0.000070
H200	H	0.122675	0.236127	-0.053715
H201	H	0.122668	0.236124	0.053848
H202	H	0.199610	0.201852	-0.053722
H203	H	0.199614	0.201852	0.053850
C204	C	0.431165	-0.425142	-0.079277
C205	C	0.434143	-0.396530	0.000010
H206	H	0.401074	-0.438112	-0.079293
H207	H	0.433209	-0.405726	-0.133042
H208	H	0.457187	-0.450997	-0.079255
H209	H	0.408123	-0.370672	-0.000015
H210	H	0.432094	-0.415947	0.053789
C211	C	0.408418	-0.299213	-0.079265
C212	C	0.435223	-0.290711	0.000025
H213	H	0.378676	-0.277983	-0.079268
H214	H	0.426618	-0.293446	-0.133028
H215	H	0.401774	-0.331977	-0.079261
H216	H	0.441870	-0.257948	0.000017
H217	H	0.417019	-0.296475	0.053802
H218	H	0.694282	-0.485125	0.000099
H219	H	0.651037	0.078660	0.442131
C220	C	0.746803	-0.366558	0.000117
C221	C	0.708452	-0.328439	0.000117
H222	H	0.776893	-0.353587	0.000114
H223	H	0.744764	-0.385966	0.053895
H224	H	0.744764	-0.385968	-0.053668
H225	H	0.710489	-0.309031	0.053906
H226	H	0.710493	-0.309022	-0.053666
C227	C	0.492029	-0.017163	0.000102
C228	C	0.443742	-0.026981	0.000102
H229	H	0.513267	-0.046901	0.000126
H230	H	0.497788	0.001022	-0.053686
H231	H	0.497780	0.001042	0.053876
H232	H	0.437990	-0.045184	-0.053676
H233	H	0.437981	-0.045174	0.053896
H234	H	-0.202311	0.139207	0.000088
C235	C	-0.350979	0.140942	0.000104
C236	C	-0.302692	0.150762	0.000098
H237	H	-0.372217	0.170680	0.000110
H238	H	-0.356735	0.122749	-0.053673
H239	H	-0.356733	0.122745	0.053890
H240	H	-0.296937	0.168956	-0.053691
H241	H	-0.296934	0.168963	0.053881
H242	H	0.694889	-0.425336	0.000105
H243	H	0.486964	-0.780325	0.000051
H244	H	0.083302	0.186251	0.000072
H245	H	0.493213	-0.165279	0.000113
C246	C	-0.261259	-0.060881	-0.079133
C247	C	-0.277136	-0.034309	0.000137
H248	H	-0.274227	-0.090972	-0.079118
H249	H	-0.272025	-0.042859	-0.132910
H250	H	-0.226755	-0.066838	-0.079121
H251	H	-0.311640	-0.028348	0.000122
H252	H	-0.266373	-0.052334	0.053927
C253	C	0.309288	-0.031052	-0.079170
C254	C	0.337907	-0.028058	0.000101
H255	H	0.296316	-0.061141	-0.079156
H256	H	0.283439	-0.005030	-0.079164
H257	H	0.328705	-0.029024	-0.132951
H258	H	0.318489	-0.030082	0.053883
H259	H	0.363759	-0.054087	0.000104
C260	C	0.473004	-0.650601	-0.079245
C261	C	0.475403	-0.679958	0.000037
H262	H	0.443258	-0.629375	-0.079251
H263	H	0.499473	-0.631992	-0.079234
H264	H	0.474644	-0.670527	-0.133019
H265	H	0.473766	-0.660033	0.053812
H266	H	0.448927	-0.698569	0.000034
C267	C	0.442629	-0.092322	0.000077
C268	C	0.481657	-0.064897	0.000094
H269	H	0.412893	-0.071083	0.000067
H270	H	0.444269	-0.112238	-0.053700
H271	H	0.444255	-0.112239	0.053863
H272	H	0.480033	-0.044983	-0.053696
H273	H	0.480016	-0.044972	0.053876
C274	C	0.394261	-0.509660	0.000001
C275	C	0.432613	-0.547777	0.000013
H276	H	0.364172	-0.522633	-0.000025
H277	H	0.396288	-0.490255	0.053786
H278	H	0.396309	-0.490246	-0.053777
H279	H	0.430567	-0.567189	0.053794
H280	H	0.430585	-0.567190	-0.053778
