data_functionalizedCrystal
_audit_creation_method	'MofGen! by Chris Wilmer'
_symmetry_space_group_name_H-M	'P1'
_symmetry_Int_Tables_number	1
_symmetry_cell_setting	triclinic
loop_
_symmetry_equiv_pos_as_xyz
  x,y,z
_cell_length_a	10.654551
_cell_length_b	10.654550
_cell_length_c	9.730223
_cell_angle_alpha	90.000649
_cell_angle_beta	90.002058
_cell_angle_gamma	95.514820
loop_
_atom_site_label
_atom_site_type_symbol
_atom_site_fract_x
_atom_site_fract_y
_atom_site_fract_z
O1	O	0.176398	-1.667839	0.114181
O2	O	0.193204	-1.302360	0.114206
O3	O	0.002061	-1.493502	0.114190
O4	O	0.367540	-1.476697	0.114197
O5	O	0.002058	-1.493492	-0.114390
O6	O	0.193200	-1.302350	-0.114374
O7	O	0.176394	-1.667829	-0.114398
Zn8	Zn	0.184797	-1.485088	-0.150678
Zn9	Zn	0.184801	-1.485101	0.150486
O10	O	0.367536	-1.476687	-0.114383
C11	C	0.191968	-1.255557	-0.000081
C12	C	0.188276	-1.116114	-0.000071
C13	C	-0.044738	-1.492262	-0.000097
C14	C	-0.184181	-1.488570	-0.000091
C15	C	0.177630	-1.714632	-0.000109
C16	C	0.181322	-1.854075	-0.000109
C17	C	-0.249683	-1.486842	0.124510
C18	C	-0.380704	-1.483362	0.124511
C19	C	-0.380709	-1.483343	-0.124699
C20	C	-0.249690	-1.486814	-0.124699
C21	C	0.414336	-1.477926	-0.000092
C22	C	0.553779	-1.481619	-0.000089
N23	N	0.184793	-1.485088	-0.356214
C24	C	0.300818	-1.036629	-0.000073
C25	C	0.297341	-0.905608	-0.000097
C26	C	0.068772	-0.933570	-0.000112
C27	C	0.072249	-1.064589	-0.000097
C28	C	0.100187	-1.569761	-0.572040
C29	C	0.100189	-1.569753	-0.428157
C30	C	0.269410	-1.400434	-0.428163
C31	C	0.269413	-1.400449	-0.572043
N32	N	0.184795	-1.485111	0.356022
H33	H	-0.196350	-1.488269	0.225974
H34	H	-0.434029	-1.481953	0.225973
Br35	Br	-0.160783	-1.489138	-0.293813
Br36	Br	-0.469621	-1.480956	-0.293803
Br37	Br	0.458281	-1.106553	-0.000042
Br38	Br	0.450083	-0.797739	-0.000106
Br39	Br	0.384256	-1.285569	-0.669685
Br40	Br	-0.080497	-1.172471	-0.000112
Br41	Br	-0.088685	-0.863634	-0.000142
H42	H	0.031288	-1.638699	-0.630606
H43	H	0.031295	-1.638683	-0.369589
H44	H	0.338303	-1.331503	-0.369579
