data_functionalizedCrystal
_audit_creation_method	'MofGen! by Chris Wilmer'
_symmetry_space_group_name_H-M	'P1'
_symmetry_Int_Tables_number	1
_symmetry_cell_setting	triclinic
loop_
_symmetry_equiv_pos_as_xyz
  x,y,z
_cell_length_a	14.908783
_cell_length_b	12.827892
_cell_length_c	12.827885
_cell_angle_alpha	89.970214
_cell_angle_beta	86.678907
_cell_angle_gamma	93.306471
loop_
_atom_site_label
_atom_site_type_symbol
_atom_site_fract_x
_atom_site_fract_y
_atom_site_fract_z
Zn1	Zn	1.379294	-0.323906	-0.683226
Zn2	Zn	1.879294	0.176094	-0.183226
Zn3	Zn	1.379203	-0.498689	-0.508480
Zn4	Zn	1.879203	0.001311	-0.008480
Zn5	Zn	1.228422	-0.334028	-0.498395
Zn6	Zn	1.728422	0.165972	0.001605
Zn7	Zn	1.228409	-0.508678	-0.673081
Zn8	Zn	1.728409	-0.008678	-0.173081
O9	O	1.303832	-0.416325	-0.590795
O10	O	1.803832	0.083675	-0.090795
O11	O	1.505530	-0.338674	-0.668512
O12	O	2.005530	0.161326	-0.168512
O13	O	1.359168	-0.476902	-0.360904
O14	O	1.859168	0.023098	0.139096
O15	O	1.248479	-0.186446	-0.522938
O16	O	1.748479	0.313554	-0.022938
O17	O	1.505463	-0.467087	-0.540127
O18	O	2.005463	0.032913	-0.040127
O19	O	1.359324	-0.179009	-0.658733
O20	O	1.859324	0.320991	-0.158733
O21	O	1.248390	-0.355927	-0.353494
O22	O	1.748390	0.144073	0.146506
O23	O	1.102172	-0.365613	-0.513101
O24	O	1.602172	0.134387	-0.013101
O25	O	1.248457	-0.484111	-0.820665
O26	O	1.748457	0.015889	-0.320665
O27	O	1.102163	-0.493927	-0.641442
O28	O	1.602163	0.006073	-0.141442
O29	O	1.359312	-0.348360	-0.828118
O30	O	1.859312	0.151640	-0.328118
O31	O	1.359156	-0.646253	-0.530289
O32	O	1.859156	-0.146253	-0.030289
O33	O	1.248369	-0.653592	-0.651221
O34	O	1.748369	-0.153592	-0.151221
C35	C	1.303776	-0.687839	-0.590773
C36	C	1.803776	-0.187839	-0.090773
C37	C	1.303834	-0.803988	-0.590804
C38	C	1.803834	-0.303988	-0.090804
C39	C	1.069433	-0.431953	-0.575077
C40	C	1.569433	0.068047	-0.075077
C41	C	0.969156	-0.438664	-0.568377
C42	C	1.469156	0.061336	-0.068377
C43	C	1.358720	-0.852102	-0.531038
C44	C	1.858720	-0.352102	-0.031038
C45	C	1.358782	-0.972149	-0.531069
C46	C	1.858782	-0.472149	-0.031069
C47	C	0.780793	-0.317740	-0.689679
C48	C	1.280793	0.182260	-0.189679
C49	C	0.686574	-0.324042	-0.683388
C50	C	1.186574	0.175958	-0.183388
C51	C	0.686497	-0.457563	-0.549498
C52	C	1.186497	0.042437	-0.049498
C53	C	0.780716	-0.451261	-0.555789
C54	C	1.280716	0.048739	-0.055789
C55	C	0.827861	-0.381349	-0.625884
C56	C	1.327861	0.118651	-0.125884
C57	C	0.922082	-0.375053	-0.632180
C58	C	1.422082	0.124947	-0.132180
C59	C	0.922003	-0.508567	-0.498285
C60	C	1.422003	-0.008567	0.001715
C61	C	0.827784	-0.514869	-0.491994
C62	C	1.327784	-0.014869	0.008006
C63	C	1.539146	-0.400637	-0.606576
C64	C	2.039146	0.099363	-0.106576
C65	C	1.639423	-0.393952	-0.613301
C66	C	2.139423	0.106048	-0.113301
C67	C	1.303893	-0.416221	-0.863370
C68	C	1.803893	0.083779	-0.363370
C69	C	1.303920	-0.416176	-0.979525
C70	C	1.803920	0.083824	-0.479525
C71	C	1.303913	-0.143750	-0.590842
C72	C	1.803913	0.356250	-0.090842
C73	C	1.303948	-0.027594	-0.590862
C74	C	1.803948	0.472406	-0.090862
C75	C	1.358780	-0.348989	-1.034998
C76	C	1.858780	0.151011	-0.534998
C77	C	1.358808	-0.348942	-1.155050
C78	C	1.858808	0.151058	-0.655050
C79	C	1.303823	-0.416350	-0.319285
C80	C	1.803823	0.083650	0.180715
C81	C	1.303971	-0.416089	-0.203142
C82	C	1.803971	0.083911	0.296858
H83	H	1.405669	-0.804423	-0.479851
H84	H	1.905669	-0.304423	0.020149
H85	H	1.257004	-0.473617	-1.155457
H86	H	1.757004	0.026383	-0.655457
H87	H	1.256967	-0.473656	-1.020910
H88	H	1.756967	0.026344	-0.520910
Cl89	Cl	1.431330	-1.036048	-0.452059
Cl90	Cl	1.931330	-0.536048	0.047941
Cl91	Cl	1.231387	-0.963703	-0.669862
Cl92	Cl	1.731387	-0.463703	-0.169862
H93	H	1.256893	-0.851669	-0.641999
H94	H	1.756893	-0.351669	-0.141999
H95	H	0.960466	-0.318128	-0.689255
H96	H	1.460466	0.181872	-0.189255
H97	H	0.819179	-0.260820	-0.746757
H98	H	1.319179	0.239180	-0.246757
Cl99	Cl	1.431243	-0.260206	-0.971110
Cl100	Cl	1.931243	0.239794	-0.471110
H101	H	0.648096	-0.514470	-0.492419
H102	H	1.148096	-0.014470	0.007581
Cl103	Cl	0.627406	-0.244072	-0.763589
Cl104	Cl	1.127406	0.255928	-0.263589
H105	H	0.789386	-0.571786	-0.434922
H106	H	1.289386	-0.071786	0.065078
Cl107	Cl	0.981179	-0.588544	-0.418087
Cl108	Cl	1.481179	-0.088544	0.081913
H109	H	1.405779	-0.291424	-1.202742
H110	H	1.905779	0.208576	-0.702742
