data_functionalizedCrystal
_audit_creation_method	'MofGen! by Chris Wilmer'
_symmetry_space_group_name_H-M	'P1'
_symmetry_Int_Tables_number	1
_symmetry_cell_setting	triclinic
loop_
_symmetry_equiv_pos_as_xyz
  x,y,z
_cell_length_a	12.759401
_cell_length_b	13.897448
_cell_length_c	12.759393
_cell_angle_alpha	89.966654
_cell_angle_beta	89.981504
_cell_angle_gamma	90.017853
loop_
_atom_site_label
_atom_site_type_symbol
_atom_site_fract_x
_atom_site_fract_y
_atom_site_fract_z
Zn1	Zn	1.606234	-0.383954	-0.593968
Zn2	Zn	1.606119	-0.545283	-0.418283
Zn3	Zn	1.430536	-0.384004	-0.418308
Zn4	Zn	1.430515	-0.545209	-0.593924
O5	O	1.518351	-0.464613	-0.506121
O6	O	1.753239	-0.405365	-0.570671
O7	O	1.582788	-0.523942	-0.271265
O8	O	1.453899	-0.249016	-0.441638
O9	O	1.753155	-0.523893	-0.441596
O10	O	1.582983	-0.248979	-0.570695
O11	O	1.453788	-0.405451	-0.271283
O12	O	1.283512	-0.405379	-0.441596
O13	O	1.453864	-0.523766	-0.740951
O14	O	1.283497	-0.523815	-0.570621
O15	O	1.582964	-0.405293	-0.740984
O16	O	1.582768	-0.680255	-0.441554
O17	O	1.453753	-0.680201	-0.570597
C18	C	1.245383	-0.464595	-0.506107
C19	C	1.128607	-0.464611	-0.506125
C20	C	1.073764	-0.526379	-0.573198
C21	C	0.964040	-0.526391	-0.573209
C22	C	0.964011	-0.402864	-0.439067
C23	C	1.073733	-0.402847	-0.439062
C24	C	1.073780	-0.597700	-0.650640
C25	C	0.964056	-0.597712	-0.650652
C26	C	1.518274	-0.715227	-0.506090
C27	C	1.518337	-0.822441	-0.506113
C28	C	1.518448	-1.018736	-0.506178
C29	C	1.518383	-0.909503	-0.506145
C30	C	1.792384	-0.464631	-0.506136
C31	C	1.909161	-0.464639	-0.506142
C32	C	1.518424	-0.464515	-0.780154
C33	C	1.518456	-0.464474	-0.896931
C34	C	1.518456	-0.213020	-0.506174
C35	C	1.518501	-0.105806	-0.506197
C36	C	1.585687	-0.402779	-0.951812
C37	C	1.585712	-0.402744	-1.061536
C38	C	1.451271	-0.526107	-1.061489
C39	C	1.451242	-0.526137	-0.951767
C40	C	1.663309	-0.331559	-0.951839
C41	C	1.663334	-0.331524	-1.061564
C42	C	1.518338	-0.464640	-0.233154
C43	C	1.518510	-0.464410	-0.116377
H44	H	0.919319	-0.352578	-0.384467
C45	C	1.616112	-0.169533	-0.997041
C46	C	1.633916	-0.230722	-0.911663
H47	H	1.597960	-0.107286	-0.972234
H48	H	1.677866	-0.165463	-1.038397
H49	H	1.560423	-0.194348	-1.038383
H50	H	1.689611	-0.205911	-0.870324
H51	H	1.572156	-0.234789	-0.870289
H52	H	0.934257	-0.672400	-0.628717
C53	C	1.175028	-0.487237	-0.754148
C54	C	1.114040	-0.570809	-0.760530
H55	H	1.199888	-0.470643	-0.821988
H56	H	1.133665	-0.436090	-0.727231
H57	H	1.232902	-0.498310	-0.708910
H58	H	1.056161	-0.559734	-0.805763
H59	H	1.155405	-0.621968	-0.787462
H60	H	1.107791	-0.668626	-0.621353
H61	H	1.396546	-0.576309	-1.106150
C62	C	0.952069	-0.621448	-0.836646
C63	C	0.918153	-0.561716	-0.755071
H64	H	0.923724	-0.599224	-0.901105
H65	H	1.026415	-0.620208	-0.840190
H66	H	0.929053	-0.685418	-0.823973
H67	H	0.941175	-0.497747	-0.767740
H68	H	0.843791	-0.562946	-0.751528
H69	H	1.740579	-0.358339	-0.917803
C70	C	1.839761	-0.374974	-1.016415
C71	C	1.773171	-0.358545	-1.101773
H72	H	1.907564	-0.391662	-1.041241
H73	H	1.844208	-0.318304	-0.975078
H74	H	1.812679	-0.426113	-0.975046
H75	H	1.800249	-0.307401	-1.143138
H76	H	1.768728	-0.415222	-1.143127
H77	H	1.634224	-0.260546	-1.095614
H78	H	1.118381	-0.352543	-0.384452
H79	H	1.396492	-0.576371	-0.907087
