data_functionalizedCrystal
_audit_creation_method	'MofGen! by Chris Wilmer'
_symmetry_space_group_name_H-M	'P1'
_symmetry_Int_Tables_number	1
_symmetry_cell_setting	triclinic
loop_
_symmetry_equiv_pos_as_xyz
  x,y,z
_cell_length_a	15.944551
_cell_length_b	16.992694
_cell_length_c	16.053802
_cell_angle_alpha	92.750953
_cell_angle_beta	92.564789
_cell_angle_gamma	92.916519
loop_
_atom_site_label
_atom_site_type_symbol
_atom_site_fract_x
_atom_site_fract_y
_atom_site_fract_z
O1	O	0.174798	-1.043704	-0.069327
O2	O	0.172843	-0.815419	-0.069352
O3	O	0.051964	-0.935795	-0.069332
O4	O	0.295677	-0.923328	-0.069348
O5	O	0.058588	-0.929169	0.069526
O6	O	0.179467	-0.808793	0.069506
O7	O	0.181422	-1.037078	0.069530
Zn8	Zn	0.181497	-0.921884	0.091565
Zn9	Zn	0.172769	-0.930613	-0.091386
O10	O	0.302301	-0.916702	0.069510
C11	C	0.173641	-0.782894	0.000074
C12	C	0.166141	-0.695850	0.000065
C13	C	0.023948	-0.931964	0.000097
C14	C	-0.069402	-0.930413	0.000098
C15	C	0.180624	-1.069603	0.000103
C16	C	0.188124	-1.156648	0.000106
C17	C	-0.289513	-0.852090	0.000078
C18	C	-0.344825	-0.885194	0.068547
C19	C	-0.240317	-0.927606	0.000091
C20	C	-0.351338	-0.891744	-0.068356
C21	C	-0.405412	-0.924889	0.000081
C22	C	-0.294396	-0.960728	0.068617
C23	C	-0.300907	-0.967271	-0.068348
C24	C	-0.356196	-1.000429	0.000138
C25	C	-0.145209	-0.929169	0.000098
C26	C	-0.500518	-0.923332	0.000080
C27	C	0.330318	-0.920533	0.000079
C28	C	0.423667	-0.922085	0.000073
N29	N	0.187453	-0.915931	0.216424
C30	C	0.238506	-0.645613	0.000061
C31	C	0.231454	-0.563826	0.000073
C32	C	0.152037	-0.532276	0.000083
C33	C	0.079667	-0.582519	0.000089
C34	C	0.086719	-0.664305	0.000083
C35	C	0.122807	-0.288676	0.000107
C36	C	0.115759	-0.206884	0.000111
C37	C	0.267548	-0.188196	0.000095
C38	C	0.274593	-0.269984	0.000084
C39	C	0.202223	-0.320220	0.000095
N40	N	0.144827	-0.448677	0.000092
N41	N	0.209434	-0.403818	0.000092
N42	N	0.166806	-0.936572	-0.216246
C43	C	0.136040	-0.967170	0.260127
C44	C	0.140215	-0.963014	0.347533
C45	C	0.195808	-0.907622	0.391235
C46	C	0.247223	-0.856378	0.347526
C47	C	0.243043	-0.860531	0.260121
C48	C	0.214042	-0.889481	0.652641
C49	C	0.218220	-0.885333	0.740052
C50	C	0.111209	-0.991968	0.740053
C51	C	0.107038	-0.996120	0.652646
C52	C	0.158450	-0.944873	0.608945
N53	N	0.200078	-0.903374	0.480578
N54	N	0.154175	-0.949118	0.519604
H55	H	-0.260406	-0.789404	0.000139
N56	N	0.324165	-0.679635	0.000056
H57	H	0.317655	-0.739069	0.000051
H58	H	0.353618	-0.663705	-0.051421
N59	N	-0.261414	-0.999323	0.145382
H60	H	-0.277737	-0.968545	0.197023
H61	H	-0.286276	-1.055176	0.145562
N62	N	-0.370634	-0.839237	0.145222
H63	H	-0.346231	-0.783213	0.145168
H64	H	-0.433978	-0.839025	0.144893
H65	H	0.284908	-0.818806	0.224539
N66	N	0.309509	-0.509637	0.000162
H67	H	0.360890	-0.542032	0.000180
H68	H	0.307493	-0.477698	-0.051280
N69	N	0.269495	-0.834204	0.605523
H70	H	0.330449	-0.842512	0.620724
H71	H	0.258346	-0.845255	0.543535
N72	N	0.278184	-0.825578	0.787178
H73	H	0.245466	-0.789144	0.823457
H74	H	0.319131	-0.853874	0.823380
N75	N	-0.005991	-0.548493	0.000093
H76	H	-0.050764	-0.592731	0.000095
H77	H	-0.009769	-0.512516	0.051570
H78	H	-0.385145	-1.063164	0.000184
N79	N	-0.275062	-1.013208	-0.145014
H80	H	-0.295748	-0.987098	-0.196708
H81	H	-0.211759	-1.014335	-0.144074
N82	N	-0.384451	-0.853081	-0.145026
H83	H	-0.360040	-0.797053	-0.144967
H84	H	-0.367724	-0.883562	-0.196694
H85	H	0.339262	-0.295666	0.000066
H86	H	0.090773	-1.012279	0.224550
N87	N	0.008671	-0.718495	0.000083
H88	H	0.010673	-0.750394	0.051557
H89	H	-0.042669	-0.686049	0.000057
N90	N	0.345600	-0.134015	0.000085
H91	H	0.329085	-0.077416	0.000091
H92	H	0.382429	-0.141782	0.051558
N93	N	0.030098	-0.172854	0.000116
H94	H	-0.014678	-0.217087	0.000123
H95	H	0.026326	-0.136874	0.051592
N96	N	0.044755	-0.342852	0.000124
H97	H	-0.006624	-0.310453	0.000130
H98	H	0.041911	-0.379646	-0.051350
H99	H	0.098349	-1.004736	0.383115
N100	N	0.047078	-1.055865	0.605512
H101	H	0.015140	-1.087694	0.646462
H102	H	0.006177	-1.027570	0.569258
N103	N	0.055760	-1.047239	0.787186
H104	H	0.066841	-1.036205	0.849188
H105	H	-0.005172	-1.038906	0.771920
H106	H	0.292485	-0.811273	0.383113
