data_functionalizedCrystal
_audit_creation_method	'MofGen! by Chris Wilmer'
_symmetry_space_group_name_H-M	'P1'
_symmetry_Int_Tables_number	1
_symmetry_cell_setting	triclinic
loop_
_symmetry_equiv_pos_as_xyz
  x,y,z
_cell_length_a	16.109301
_cell_length_b	14.048226
_cell_length_c	14.971494
_cell_angle_alpha	90.000963
_cell_angle_beta	83.539519
_cell_angle_gamma	90.001973
loop_
_atom_site_label
_atom_site_type_symbol
_atom_site_fract_x
_atom_site_fract_y
_atom_site_fract_z
O1	O	1.103279	0.079097	0.114968
O2	O	1.603279	0.579097	0.614968
O3	O	0.861235	0.079111	0.129276
O4	O	1.361235	0.579111	0.629276
O5	O	0.988741	0.079102	-0.008087
O6	O	1.488741	0.579102	0.491913
O7	O	0.975773	0.079107	0.252331
O8	O	1.475773	0.579107	0.752331
O9	O	0.988729	-0.079220	-0.008086
O10	O	1.488729	0.420780	0.491914
O11	O	0.861223	-0.079210	0.129277
O12	O	1.361223	0.420790	0.629277
O13	O	1.103267	-0.079225	0.114969
O14	O	1.603267	0.420775	0.614969
Zn15	Zn	0.982243	-0.104354	0.122124
Zn16	Zn	1.482243	0.395646	0.622124
Zn17	Zn	0.982259	0.104241	0.122122
Zn18	Zn	1.482259	0.604241	0.622122
O19	O	0.975761	-0.079215	0.252332
O20	O	1.475761	0.420785	0.752332
C21	C	0.830253	-0.000047	0.128697
C22	C	1.330253	0.499953	0.628697
C23	C	0.737956	-0.000042	0.126960
C24	C	1.237956	0.499958	0.626960
N25	N	0.982238	-0.246715	0.122124
N26	N	1.482238	0.253285	0.622124
C27	C	0.988154	-0.000058	-0.041410
C28	C	1.488154	0.499942	0.458590
C29	C	0.986412	-0.000053	-0.140704
C30	C	1.486412	0.499947	0.359296
C31	C	0.515782	-0.000051	0.204428
C32	C	1.015782	0.499949	0.704428
C33	C	0.429060	-0.000057	0.202788
C34	C	0.929060	0.499943	0.702788
C35	C	0.448726	-0.000057	0.039812
C36	C	0.948726	0.499943	0.539812
C37	C	0.535447	-0.000057	0.041452
C38	C	1.035447	0.499943	0.541452
C39	C	0.568973	-0.000050	0.123763
C40	C	1.068973	0.499950	0.623763
C41	C	0.395529	-0.000055	0.120483
C42	C	0.895529	0.499945	0.620483
C43	C	0.301501	-0.000062	0.118704
C44	C	0.801501	0.499938	0.618704
C45	C	0.663007	-0.000045	0.125542
C46	C	1.163007	0.499955	0.625542
C47	C	1.134248	-0.000064	0.115548
C48	C	1.634248	0.499936	0.615548
C49	C	1.226546	-0.000063	0.117286
C50	C	1.726546	0.499937	0.617286
C51	C	0.931794	-0.703580	0.067847
C52	C	1.431794	-0.203580	0.567847
C53	C	0.931791	-0.603922	0.067844
C54	C	1.431791	-0.103922	0.567844
C55	C	0.982260	-0.554085	0.122114
C56	C	1.482260	-0.054085	0.622114
C57	C	1.032742	-0.603910	0.176384
C58	C	1.532742	-0.103910	0.676384
C59	C	1.032749	-0.703566	0.176381
C60	C	1.532749	-0.203566	0.676381
C61	C	1.032722	-0.396196	0.176387
C62	C	1.532722	0.103804	0.676387
C63	C	1.032714	-0.296533	0.176392
C64	C	1.532714	0.203467	0.676392
C65	C	0.931764	-0.296552	0.067850
C66	C	1.431764	0.203448	0.567850
C67	C	0.931771	-0.396208	0.067848
C68	C	1.431771	0.103792	0.567848
C69	C	0.982252	-0.446027	0.122119
C70	C	1.482252	0.053973	0.622119
N71	N	0.982270	0.246602	0.122114
N72	N	1.482270	0.746602	0.622114
C73	C	0.985602	0.086249	-0.187348
C74	C	1.485602	0.586249	0.312652
C75	C	0.983960	0.086250	-0.280645
C76	C	1.483960	0.586250	0.219355
C77	C	0.983134	-0.000052	-0.327297
C78	C	1.483134	0.499948	0.172703
C79	C	0.983942	-0.086360	-0.280645
C80	C	1.483942	0.413640	0.219355
C81	C	0.985577	-0.086361	-0.187350
C82	C	1.485577	0.413639	0.312650
C83	C	0.980534	-0.086354	-0.475104
C84	C	1.480534	0.413646	0.024896
C85	C	0.978900	-0.086354	-0.568406
C86	C	1.478900	0.413646	-0.068406
C87	C	0.978917	0.086257	-0.568399
C88	C	1.478917	0.586257	-0.068399
C89	C	0.980553	0.086257	-0.475103
C90	C	1.480553	0.586257	0.024897
C91	C	0.981362	-0.000052	-0.428459
C92	C	1.481362	0.499948	0.071541
C93	C	0.976348	-0.000053	0.285655
C94	C	1.476348	0.499947	0.785655
C95	C	0.978090	-0.000052	0.384950
C96	C	1.478090	0.499948	0.884950
H97	H	0.543075	-0.000052	0.271450
H98	H	1.043075	0.499948	0.771450
Br99	Br	1.101262	-0.771178	0.250026
Br100	Br	1.601262	-0.271178	0.750026
H101	H	0.978220	-0.156628	-0.606386
H102	H	1.478220	0.343372	-0.106386
Br103	Br	0.403222	-0.000063	-0.071890
Br104	Br	0.903222	0.499937	0.428110
Br105	Br	0.863251	-0.228944	-0.005800
Br106	Br	1.363251	0.271056	0.494200
Br107	Br	0.356875	-0.000064	0.312267
Br108	Br	0.856875	0.499936	0.812267
H109	H	0.981174	-0.156636	-0.437126
H110	H	1.481174	0.343364	0.062874
H111	H	0.983305	0.156526	-0.318619
H112	H	1.483305	0.656526	0.181381
H113	H	0.986279	0.156526	-0.149372
H114	H	1.486279	0.656526	0.350628
Br115	Br	0.863258	-0.536315	-0.005779
Br116	Br	1.363258	-0.036315	0.494221
Br117	Br	0.607641	-0.000067	-0.068030
Br118	Br	1.107641	0.499933	0.431970
Br119	Br	0.981685	0.203382	-0.411792
Br120	Br	1.481685	0.703382	0.088208
Br121	Br	0.977815	0.203391	-0.631700
Br122	Br	1.477815	0.703391	-0.131700
H123	H	0.890692	-0.744151	0.023659
H124	H	1.390692	-0.244151	0.523659
H125	H	1.073808	-0.255958	0.220586
H126	H	1.573808	0.244042	0.720586
Br127	Br	0.986672	-0.203489	-0.124045
Br128	Br	1.486672	0.296511	0.375955
H129	H	0.983264	-0.156629	-0.318636
H130	H	1.483264	0.343371	0.181364
H131	H	1.073831	-0.436755	0.220579
H132	H	1.573831	0.063245	0.720579
Br133	Br	0.863267	-0.463845	-0.005795
Br134	Br	1.363267	0.036155	0.494205
H135	H	1.073839	-0.563324	0.220567
H136	H	1.573839	-0.063324	0.720567
