data_functionalizedCrystal
_audit_creation_method	'MofGen! by Chris Wilmer'
_symmetry_space_group_name_H-M	'P1'
_symmetry_Int_Tables_number	1
_symmetry_cell_setting	triclinic
loop_
_symmetry_equiv_pos_as_xyz
  x,y,z
_cell_length_a	16.974867
_cell_length_b	26.809956
_cell_length_c	16.992695
_cell_angle_alpha	90.004417
_cell_angle_beta	87.022690
_cell_angle_gamma	93.642328
loop_
_atom_site_label
_atom_site_type_symbol
_atom_site_fract_x
_atom_site_fract_y
_atom_site_fract_z
O1	O	-1.055447	-0.001076	-0.099893
O2	O	-0.555447	0.498924	0.400107
O3	O	-0.826049	0.008175	-0.112627
O4	O	-0.326049	0.508175	0.387373
O5	O	-0.939829	0.003583	0.007882
O6	O	-0.439829	0.503583	0.507882
O7	O	-0.941668	0.003516	-0.220401
O8	O	-0.441668	0.503516	0.279599
O9	O	-0.939807	-0.079376	0.007864
O10	O	-0.439807	0.420624	0.507864
O11	O	-0.826028	-0.074784	-0.112645
O12	O	-0.326028	0.425216	0.387355
O13	O	-1.055426	-0.084034	-0.099911
O14	O	-0.555426	0.415966	0.400089
Zn15	Zn	-0.940723	-0.092580	-0.106281
Zn16	Zn	-0.440723	0.407420	0.393719
Zn17	Zn	-0.940752	0.016721	-0.106257
Zn18	Zn	-0.440752	0.516721	0.393743
O19	O	-0.941646	-0.079442	-0.220420
O20	O	-0.441646	0.420558	0.279580
C21	C	-0.796550	-0.032115	-0.112152
C22	C	-0.296550	0.467885	0.387848
C23	C	-0.708683	-0.028572	-0.110702
C24	C	-0.208683	0.471428	0.389298
C25	C	-0.214090	-0.003740	-0.102514
C26	C	0.285910	0.496260	0.397486
C27	C	-0.296650	-0.007076	-0.103876
C28	C	0.203350	0.492924	0.396124
C29	C	-0.337910	-0.053965	-0.104573
C30	C	0.162090	0.446035	0.395427
C31	C	-0.296606	-0.097521	-0.103900
C32	C	0.203394	0.402479	0.396100
C33	C	-0.214047	-0.094184	-0.102532
C34	C	0.285953	0.405816	0.397468
C35	C	-0.584821	-0.068792	-0.108661
C36	C	-0.084821	0.431208	0.391339
C37	C	-0.667385	-0.072125	-0.110031
C38	C	-0.167385	0.427875	0.389969
C39	C	-0.667423	0.018320	-0.110006
C40	C	-0.167423	0.518320	0.389994
C41	C	-0.584863	0.021653	-0.108643
C42	C	-0.084863	0.521653	0.391357
C43	C	-0.543567	-0.021903	-0.107966
C44	C	-0.043567	0.478097	0.392034
N45	N	-0.422299	-0.057376	-0.105969
N46	N	0.077701	0.442624	0.394031
N47	N	-0.459179	-0.018492	-0.106565
N48	N	0.040821	0.481508	0.393435
N49	N	-0.940709	-0.167176	-0.106297
N50	N	-0.440709	0.332824	0.393703
C51	C	-0.991127	-0.513837	-0.052909
C52	C	-0.491127	-0.013837	0.447091
C53	C	-0.991145	-0.722715	-0.052897
C54	C	-0.491145	-0.222715	0.447103
O55	O	-1.033981	-0.751448	-0.007509
O56	O	-0.533981	-0.251448	0.492491
N57	N	-0.940755	-0.746805	-0.106239
N58	N	-0.440755	-0.246805	0.393761
C59	C	-0.890353	-0.718671	-0.159585
C60	C	-0.390353	-0.218671	0.340415
O61	O	-0.847488	-0.743954	-0.204951
O62	O	-0.347488	-0.243954	0.295049
C63	C	-0.890332	-0.509794	-0.159593
C64	C	-0.390332	-0.009794	0.340407
C65	C	-0.940731	-0.485707	-0.106252
C66	C	-0.440731	0.014293	0.393748
C67	C	-1.041522	-0.489750	0.000428
C68	C	-0.541522	0.010250	0.500428
C69	C	-1.041520	-0.437534	0.000422
C70	C	-0.541520	0.062466	0.500422
C71	C	-0.991123	-0.409404	-0.052921
C72	C	-0.491123	0.090596	0.447079
C73	C	-0.940729	-0.433491	-0.106259
C74	C	-0.440729	0.066509	0.393741
C75	C	-0.839926	-0.481661	-0.212935
C76	C	-0.339926	0.018339	0.287065
C77	C	-0.839924	-0.429438	-0.212930
C78	C	-0.339924	0.070562	0.287070
C79	C	-0.890323	-0.405352	-0.159590
C80	C	-0.390323	0.094648	0.340410
C81	C	-0.890331	-0.353145	-0.159608
C82	C	-0.390331	0.146855	0.340392
N83	N	-0.940721	-0.329055	-0.106266
N84	N	-0.440721	0.170945	0.393734
C85	C	-0.991117	-0.357185	-0.052922
C86	C	-0.491117	0.142815	0.447078
C87	C	-0.890369	-0.828335	-0.159579
C88	C	-0.390369	-0.328335	0.340421
C89	C	-0.890375	-0.880554	-0.159578
C90	C	-0.390375	-0.380554	0.340422
C91	C	-0.991167	-0.884595	-0.052888
C92	C	-0.491167	-0.384595	0.447112
C93	C	-0.991164	-0.832375	-0.052893
C94	C	-0.491164	-0.332375	0.447107
C95	C	-0.940759	-0.804246	-0.106236
C96	C	-0.440759	-0.304246	0.393764
C97	C	-0.991110	-0.247526	-0.052940
C98	C	-0.491110	0.252474	0.447060
C99	C	-0.991106	-0.195305	-0.052953
C100	C	-0.491106	0.304695	0.447047
C101	C	-0.890312	-0.191270	-0.159640
C102	C	-0.390312	0.308730	0.340360
C103	C	-0.890319	-0.243486	-0.159630
C104	C	-0.390319	0.256514	0.340370
C105	C	-0.940720	-0.271614	-0.106273
C106	C	-0.440720	0.228386	0.393727
O107	O	-0.847511	-0.324381	-0.204967
O108	O	-0.347511	0.175619	0.295033
O109	O	-1.033964	-0.331893	-0.007552
O110	O	-0.533964	0.168107	0.492448
C111	C	-0.991129	-0.566053	-0.052902
C112	C	-0.491129	-0.066053	0.447098
C113	C	-0.940735	-0.590140	-0.106239
C114	C	-0.440735	-0.090140	0.393761
C115	C	-0.890338	-0.562010	-0.159583
C116	C	-0.390338	-0.062010	0.340417
C117	C	-0.940741	-0.642359	-0.106239
C118	C	-0.440741	-0.142359	0.393761
C119	C	-0.991137	-0.670489	-0.052895
C120	C	-0.491137	-0.170489	0.447105
C121	C	-1.041528	-0.646399	0.000448
C122	C	-0.541528	-0.146399	0.500448
C123	C	-1.041526	-0.594183	0.000441
C124	C	-0.541526	-0.094183	0.500441
C125	C	-0.839948	-0.586100	-0.212926
C126	C	-0.339948	-0.086100	0.287074
C127	C	-0.839955	-0.638317	-0.212915
C128	C	-0.339955	-0.138317	0.287085
C129	C	-0.890351	-0.666446	-0.159572
C130	C	-0.390351	-0.166446	0.340428
C131	C	-0.084925	-0.043745	-0.100387
C132	C	0.415075	0.456255	0.399613
C133	C	-0.172791	-0.047293	-0.101843
C134	C	0.327209	0.452707	0.398157
C135	C	-0.937452	-0.037801	0.037083
C136	C	-0.437452	0.462199	0.537083
C137	C	-0.930392	-0.037516	0.124119
C138	C	-0.430392	0.462484	0.624119
N139	N	-0.940772	0.091316	-0.106234
N140	N	-0.440772	0.591316	0.393766
C141	C	-0.944023	-0.038057	-0.249620
C142	C	-0.444023	0.461943	0.250380
C143	C	-0.951083	-0.038339	-0.336657
C144	C	-0.451083	0.461661	0.163343
C145	C	-0.998507	-0.040264	0.174435
C146	C	-0.498507	0.459736	0.674435
C147	C	-0.991869	-0.039991	0.256214
C148	C	-0.491869	0.460009	0.756214
C149	C	-0.917116	-0.036975	0.287676
C150	C	-0.417116	0.463025	0.787676
C151	C	-0.848997	-0.034226	0.237354
C152	C	-0.348997	0.465774	0.737354
C153	C	-0.855635	-0.034495	0.155576
C154	C	-0.355635	0.465505	0.655576
C155	C	-0.889602	-0.035859	0.531244
C156	C	-0.389602	0.464141	1.031244
C157	C	-0.882968	-0.035592	0.613028
C158	C	-0.382968	0.464408	1.113028
C159	C	-1.025841	-0.041356	0.631882
C160	C	-0.525841	0.458644	1.131882
C161	C	-1.032473	-0.041627	0.550102
C162	C	-0.532473	0.458373	1.050102
C163	C	-0.964354	-0.038876	0.499787
C164	C	-0.464354	0.461124	0.999787
N165	N	-0.910329	-0.036698	0.371267
N166	N	-0.410329	0.463302	0.871267
N167	N	-0.971141	-0.039149	0.416197
N168	N	-0.471141	0.460851	0.916197
H169	H	-0.701056	0.053781	-0.110557
H170	H	-0.201056	0.553781	0.389443
H171	H	-1.032203	-0.812767	-0.009458
H172	H	-0.532203	-0.312767	0.490542
H173	H	-0.798886	-0.501265	-0.256369
H174	H	-0.298886	-0.001265	0.243631
C175	C	-1.046548	-0.168813	0.005731
C176	C	-0.546548	0.331187	0.505731
N177	N	-1.088304	-0.148861	0.049933
N178	N	-0.588304	0.351139	0.549933
H179	H	-0.700976	-0.110310	-0.110604
H180	H	-0.200976	0.389690	0.389396
H181	H	-1.059378	-0.042723	0.148825
H182	H	-0.559378	0.457277	0.648825
H183	H	-0.822093	-0.033143	0.638640
H184	H	-0.322093	0.466857	1.138640
H185	H	-1.032203	-0.907507	-0.009455
H186	H	-0.532203	-0.407507	0.490545
H187	H	-0.551208	-0.104258	-0.108098
H188	H	-0.051208	0.395742	0.391902
H189	H	-0.798876	-0.406538	-0.256368
H190	H	-0.298876	0.093462	0.243632
H191	H	-0.798908	-0.563201	-0.256363
H192	H	-0.298908	-0.063201	0.243637
C193	C	-1.096962	-0.677352	0.059127
C194	C	-0.596962	-0.177352	0.559127
N195	N	-1.138709	-0.700667	0.103326
N196	N	-0.638709	-0.200667	0.603326
H197	H	-0.551275	0.059835	-0.108075
H198	H	-0.051275	0.559835	0.391925
C199	C	-1.066801	-0.043022	0.311558
C200	C	-0.566801	0.456978	0.811558
N201	N	-1.123243	-0.045307	0.353244
N202	N	-0.623243	0.454693	0.853244
C203	C	-1.114707	-0.044946	0.515501
C204	C	-0.614707	0.455054	1.015501
N205	N	-1.176647	-0.047447	0.489439
N206	N	-0.676647	0.452553	0.989439
H207	H	-0.798916	-0.657924	-0.256359
H208	H	-0.298916	-0.157924	0.243641
C209	C	-0.168712	0.047842	-0.101746
C210	C	0.331288	0.547842	0.398254
N211	N	-0.134535	0.086695	-0.101164
N212	N	0.365465	0.586695	0.398836
C213	C	-0.168619	-0.142096	-0.101797
C214	C	0.331381	0.357904	0.398203
N215	N	-0.134404	-0.178184	-0.101242
N216	N	0.365596	0.321816	0.398758
C217	C	-0.834882	-0.269982	-0.218312
C218	C	-0.334882	0.230018	0.281688
N219	N	-0.793121	-0.289936	-0.262507
N220	N	-0.293121	0.210064	0.237493
H221	H	-0.330206	-0.135699	-0.104463
H222	H	0.169794	0.364301	0.395537
H223	H	-0.788131	-0.031767	0.262977
H224	H	-0.288131	0.468233	0.762977
C225	C	-1.046556	-0.278459	0.005753
C226	C	-0.546556	0.221541	0.505753
N227	N	-1.088322	-0.301757	0.049957
N228	N	-0.588322	0.198243	0.549957
C229	C	-0.780704	-0.031474	0.100229
C230	C	-0.280704	0.468526	0.600229
N231	N	-0.724263	-0.029197	0.058542
N232	N	-0.224263	0.470803	0.558542
H233	H	-1.082560	-0.512649	0.043871
H234	H	-0.582560	-0.012649	0.543871
C235	C	-0.342075	0.040836	-0.104604
C236	C	0.157925	0.540836	0.395396
N237	N	-0.376289	0.076925	-0.105148
N238	N	0.123711	0.576925	0.394852
C239	C	-0.834876	-0.160317	-0.218313
C240	C	-0.334876	0.339683	0.281687
N241	N	-0.793116	-0.137002	-0.262501
N242	N	-0.293116	0.362998	0.237499
H243	H	-1.082557	-0.417925	0.043859
H244	H	-0.582557	0.082075	0.543859
C245	C	-0.834938	-0.907044	-0.218262
C246	C	-0.334938	-0.407044	0.281738
N247	N	-0.793176	-0.926994	-0.262462
N248	N	-0.293176	-0.426994	0.237538
H249	H	-0.849322	-0.805436	-0.203019
H250	H	-0.349322	-0.305436	0.296981
H251	H	-1.082565	-0.574575	0.043876
H252	H	-0.582565	-0.074575	0.543876
H253	H	-1.081300	-0.043595	0.672857
H254	H	-0.581300	0.456405	1.172857
H255	H	-0.834134	-0.033618	0.490286
H256	H	-0.334134	0.466382	0.990286
