data_functionalizedCrystal
_audit_creation_method	'MofGen! by Chris Wilmer'
_symmetry_space_group_name_H-M	'P1'
_symmetry_Int_Tables_number	1
_symmetry_cell_setting	triclinic
loop_
_symmetry_equiv_pos_as_xyz
  x,y,z
_cell_length_a	15.944545
_cell_length_b	17.019294
_cell_length_c	14.421503
_cell_angle_alpha	93.888227
_cell_angle_beta	89.991685
_cell_angle_gamma	83.445278
loop_
_atom_site_label
_atom_site_type_symbol
_atom_site_fract_x
_atom_site_fract_y
_atom_site_fract_z
O1	O	1.114385	0.101722	0.085173
O2	O	0.869819	0.114271	0.086189
O3	O	0.998926	-0.006837	0.076507
O4	O	0.985278	0.222830	0.094855
O5	O	0.998941	-0.006854	-0.077718
O6	O	0.869834	0.114254	-0.068035
O7	O	1.114400	0.101705	-0.069052
Cu8	Cu	0.992118	0.107978	-0.082626
Cu9	Cu	0.992101	0.107998	0.099763
O10	O	0.985293	0.222813	-0.059370
C11	C	0.838533	0.113742	0.009037
C12	C	0.745289	0.112183	0.008919
C13	C	0.474757	0.032456	0.002539
C14	C	0.525297	0.070885	-0.070433
C15	C	0.409652	0.106623	0.008458
C16	C	0.525263	0.070922	0.081622
C17	C	0.574562	0.109350	0.008686
C18	C	0.458964	0.145032	-0.064578
C19	C	0.458926	0.145058	0.087544
C20	C	0.509433	0.183542	0.014558
C21	C	0.314652	0.105049	0.008327
C22	C	0.669559	0.110930	0.008811
C23	C	0.998416	-0.036235	-0.002951
C24	C	0.996865	-0.123806	-0.009941
C25	C	0.996131	-0.164933	0.070842
C26	C	0.994668	-0.247215	0.064271
C27	C	0.993946	-0.288369	-0.023084
C28	C	0.994678	-0.247235	-0.103873
C29	C	0.996135	-0.164954	-0.097301
C30	C	0.989543	-0.536804	-0.047131
C31	C	0.988088	-0.619091	-0.053697
C32	C	0.988076	-0.619065	0.114449
C33	C	0.989538	-0.536783	0.121012
C34	C	0.990266	-0.495656	0.040223
C35	C	0.992454	-0.372474	-0.029802
C36	C	0.991752	-0.411552	0.046942
C37	C	1.145686	0.102234	0.008102
C38	C	1.238930	0.103793	0.008227
C39	C	0.985803	0.252211	0.020091
C40	C	0.987354	0.339782	0.027087
N41	N	0.992089	0.108006	0.228045
N42	N	0.992137	0.107963	-0.210908
C43	C	0.932277	0.163894	0.482161
C44	C	0.916256	0.092555	0.538268
C45	C	0.992105	0.107990	0.417205
C46	C	1.008102	0.179313	0.545191
C47	C	0.992118	0.107981	0.599926
C48	C	0.976047	0.036615	0.471948
C49	C	1.067925	0.123420	0.478870
C50	C	1.051937	0.052030	0.534944
C51	C	0.992095	0.107996	0.311944
C52	C	0.992129	0.107966	0.705183
H53	H	0.430121	0.176324	-0.126435
C54	C	1.120297	-0.011912	0.566224
N55	N	1.171783	-0.060075	0.589787
H56	H	0.881644	0.211119	0.458832
H57	H	0.524844	0.247465	0.019620
C58	C	0.829644	0.074912	0.573573
N59	N	0.764405	0.061629	0.600164
H60	H	0.962446	-0.023719	0.440077
H61	H	1.021637	0.239636	0.577158
H62	H	0.994073	-0.280698	0.130054
H63	H	1.132017	0.136504	0.452719
C64	C	0.992551	-0.366281	0.143030
N65	N	0.993159	-0.332176	0.215404
C66	C	0.996946	-0.119715	-0.186170
N67	N	0.997554	-0.085641	-0.253109
H68	H	0.987496	-0.652595	-0.124835
C69	C	0.453711	-0.053831	-0.004456
N70	N	0.437857	-0.118820	-0.009730
C71	C	0.564448	0.028561	-0.160663
N72	N	0.593934	-0.003323	-0.228621
H73	H	0.429934	0.176360	0.154335
C74	C	0.564371	0.028601	0.165088
N75	N	0.593825	-0.003280	0.227952
H76	H	0.996723	-0.131433	0.141976
C77	C	0.990332	-0.491520	0.217110
N78	N	0.990933	-0.457429	0.289492
C79	C	0.990347	-0.491576	-0.136003
N80	N	0.990954	-0.457507	-0.202946
H81	H	0.987482	-0.652559	0.180223
H82	H	0.991869	-0.405991	-0.100927
C83	C	0.993878	-0.292506	-0.199965
N84	N	0.993277	-0.326604	-0.272343
