data_functionalizedCrystal
_audit_creation_method	'MofGen! by Chris Wilmer'
_symmetry_space_group_name_H-M	'P1'
_symmetry_Int_Tables_number	1
_symmetry_cell_setting	triclinic
loop_
_symmetry_equiv_pos_as_xyz
  x,y,z
_cell_length_a	16.974800
_cell_length_b	10.654551
_cell_length_c	16.053802
_cell_angle_alpha	92.593346
_cell_angle_beta	91.074188
_cell_angle_gamma	83.936367
loop_
_atom_site_label
_atom_site_type_symbol
_atom_site_fract_x
_atom_site_fract_y
_atom_site_fract_z
O1	O	1.049952	0.160086	0.001546
O2	O	1.549952	0.660086	0.501546
O3	O	0.820596	0.179311	-0.013958
O4	O	1.320596	0.679311	0.486042
O5	O	0.940547	-0.013097	-0.005850
O6	O	1.440547	0.486903	0.494150
O7	O	0.930001	0.352493	-0.006562
O8	O	1.430001	0.852493	0.493438
O9	O	0.933944	-0.002550	0.132562
O10	O	1.433944	0.497450	0.632562
O11	O	0.813993	0.189857	0.124454
O12	O	1.313993	0.689857	0.624454
O13	O	1.043350	0.170633	0.139958
O14	O	1.543350	0.670633	0.639958
Zn15	Zn	0.927623	0.181920	0.154182
Zn16	Zn	1.427623	0.681920	0.654182
Zn17	Zn	0.936323	0.168024	-0.028182
Zn18	Zn	1.436323	0.668024	0.471818
O19	O	0.923399	0.363040	0.131850
O20	O	1.423399	0.863040	0.631850
C21	C	0.787927	0.183660	0.053263
C22	C	1.287927	0.683660	0.553263
C23	C	0.700419	0.180890	0.047347
C24	C	1.200419	0.680890	0.547347
C25	C	0.936471	-0.054613	0.063302
C26	C	1.436471	0.445387	0.563302
C27	C	0.934154	-0.194032	0.063139
C28	C	1.434154	0.305968	0.563139
C29	C	0.655713	0.185336	0.120019
C30	C	1.155713	0.685336	0.620019
C31	C	0.573492	0.182714	0.114463
C32	C	1.073492	0.682714	0.614463
C33	C	0.535977	0.175656	0.036235
C34	C	1.035977	0.675656	0.536235
C35	C	0.580689	0.171206	-0.036442
C36	C	1.080689	0.671206	0.463558
C37	C	0.662909	0.173819	-0.030886
C38	C	1.162909	0.673819	0.469114
C39	C	0.290460	0.167216	0.011525
C40	C	0.790460	0.667216	0.511525
C41	C	0.208233	0.164607	0.005974
C42	C	0.708233	0.664607	0.505974
C43	C	0.201042	0.176112	0.156880
C44	C	0.701042	0.676112	0.656880
C45	C	0.283264	0.178732	0.162430
C46	C	0.783264	0.678732	0.662430
C47	C	0.327969	0.174276	0.089753
C48	C	0.827969	0.674276	0.589753
N49	N	0.451933	0.172980	0.030554
N50	N	0.951933	0.672980	0.530554
N51	N	0.412012	0.176943	0.095434
N52	N	0.912012	0.676943	0.595434
C53	C	0.936666	-0.265282	-0.012381
C54	C	1.436666	0.234718	0.487619
C55	C	0.934482	-0.396279	-0.012525
C56	C	1.434482	0.103721	0.487475
C57	C	0.927277	-0.384765	0.138380
C58	C	1.427277	0.115235	0.638380
C59	C	0.929456	-0.253770	0.138522
C60	C	1.429456	0.246230	0.638522
C61	C	0.941365	-0.205544	-0.087764
C62	C	1.441365	0.294456	0.412236
C63	C	0.943878	-0.276795	-0.163291
C64	C	1.443878	0.223205	0.336709
C65	C	0.941694	-0.407792	-0.163434
C66	C	1.441694	0.092208	0.336566
C67	C	0.936997	-0.467538	-0.088051
C68	C	1.436997	0.032462	0.411949
C69	C	1.076019	0.166284	0.072735
C70	C	1.576019	0.666284	0.572735
C71	C	1.163527	0.169052	0.078645
C72	C	1.663527	0.669052	0.578645
C73	C	0.927474	0.404556	0.062696
C74	C	1.427474	0.904556	0.562696
C75	C	0.929792	0.543975	0.062853
C76	C	1.429792	1.043975	0.562853
N77	N	0.921692	0.191403	0.278642
N78	N	1.421692	0.691403	0.778642
N79	N	0.942260	0.158531	-0.152641
N80	N	1.442260	0.658531	0.347359
C81	C	0.972750	0.109562	0.325787
C82	C	1.472750	0.609562	0.825787
C83	C	0.968609	0.116208	0.412914
C84	C	1.468609	0.616208	0.912914
C85	C	0.913412	0.204700	0.452894
C86	C	1.413412	0.704700	0.952894
C87	C	0.862348	0.286544	0.405742
C88	C	1.362348	0.786544	0.905742
C89	C	0.866487	0.279892	0.318617
C90	C	1.366487	0.779892	0.818617
C91	C	0.895335	0.233722	0.713082
C92	C	1.395335	0.733722	1.213082
C93	C	0.891202	0.240371	0.800214
C94	C	1.391202	0.740371	1.300214
C95	C	0.997462	0.070032	0.807379
C96	C	1.497462	0.570032	1.307379
C97	C	1.001598	0.063393	0.720252
C98	C	1.501598	0.563393	1.220252
C99	C	0.950532	0.145232	0.673107
C100	C	1.450532	0.645232	1.173107
N101	N	0.909179	0.211498	0.541951
N102	N	1.409179	0.711498	1.041951
N103	N	0.954762	0.138428	0.584051
N104	N	1.454762	0.638428	1.084051
H105	H	0.686250	0.191093	0.183720
H106	H	1.186250	0.691093	0.683720
H107	H	0.824908	0.346533	0.280232
H108	H	1.324908	0.846533	0.780232
N109	N	0.525270	0.187503	0.192842
N110	N	1.025270	0.687503	0.692842
H111	H	0.561575	0.191487	0.243247
H112	H	1.061575	0.691487	0.743247
H113	H	0.485401	0.264923	0.193698
H114	H	0.985401	0.764923	0.693698
H115	H	0.846252	0.312438	0.832761
H116	H	1.346252	0.812438	1.332761
N117	N	0.943715	-0.064256	-0.087619
N118	N	1.443715	0.435744	0.412381
H119	H	0.894053	-0.020422	-0.061263
H120	H	1.394053	0.479578	0.438737
H121	H	0.991626	-0.040566	-0.054675
H122	H	1.491626	0.459434	0.445325
N123	N	0.540225	0.163583	-0.120815
N124	N	1.040225	0.663583	0.379185
H125	H	0.500305	0.240023	-0.126888
H126	H	1.000305	0.740023	0.373112
H127	H	0.581072	0.161116	-0.165961
H128	H	1.081072	0.661116	0.334039
N129	N	0.323724	0.186359	0.246804
N130	N	0.823724	0.686359	0.746804
H131	H	0.282925	0.188780	0.292000
H132	H	0.782925	0.688780	0.792000
H133	H	0.363651	0.109917	0.252805
H134	H	0.863651	0.609917	0.752805
H135	H	0.947695	-0.228138	-0.224665
H136	H	1.447695	0.271862	0.275335
H137	H	0.943732	-0.465799	-0.224932
H138	H	1.443732	0.034201	0.275068
H139	H	0.927393	-0.195753	0.200017
H140	H	1.427393	0.304247	0.700017
H141	H	0.326850	0.163584	-0.047654
H142	H	0.826850	0.663584	0.452346
H143	H	1.017701	0.037508	0.293241
H144	H	1.517701	0.537508	0.793241
H145	H	0.935207	-0.574203	-0.088175
H146	H	1.435207	-0.074203	0.411825
N147	N	1.023706	0.027981	0.463766
N148	N	1.523706	0.527981	0.963766
H149	H	1.059313	-0.029067	0.425219
H150	H	1.559313	0.470933	0.925219
H151	H	1.057077	0.079020	0.502258
H152	H	1.557077	0.579020	1.002258
H153	H	0.164634	0.179738	0.216049
H154	H	0.664634	0.679738	0.716049
H155	H	0.177691	0.158863	-0.057732
H156	H	0.677691	0.658863	0.442268
N157	N	0.922222	-0.449202	0.219681
N158	N	1.422222	0.050798	0.719681
H159	H	0.921229	-0.543000	0.208131
H160	H	1.421229	-0.043000	0.708131
H161	H	0.969807	-0.433804	0.255946
H162	H	1.469807	0.066196	0.755946
H163	H	1.046544	-0.008664	0.687702
H164	H	1.546544	0.491336	1.187702
N165	N	0.711133	0.169015	-0.109266
N166	N	1.211133	0.669015	0.390734
H167	H	0.674893	0.164148	-0.159667
H168	H	1.174893	0.664148	0.340333
H169	H	0.739439	0.247627	-0.110654
H170	H	1.239439	0.747627	0.389346
H171	H	1.039037	0.003401	0.845771
H172	H	1.539037	0.503401	1.345771
N173	N	0.840254	0.321981	0.662239
N174	N	1.340254	0.821981	1.162239
H175	H	0.804662	0.379049	0.700790
H176	H	1.304662	0.879049	1.200790
H177	H	0.872437	0.374875	0.628133
H178	H	1.372437	0.874875	1.128133
H179	H	0.817402	0.358593	0.438299
H180	H	1.317402	0.858593	0.938299
