data_functionalizedCrystal
_audit_creation_method	'MofGen! by Chris Wilmer'
_symmetry_space_group_name_H-M	'P1'
_symmetry_Int_Tables_number	1
_symmetry_cell_setting	triclinic
loop_
_symmetry_equiv_pos_as_xyz
  x,y,z
_cell_length_a	17.699083
_cell_length_b	15.944545
_cell_length_c	16.776229
_cell_angle_alpha	89.991247
_cell_angle_beta	89.998886
_cell_angle_gamma	83.389594
loop_
_atom_site_label
_atom_site_type_symbol
_atom_site_fract_x
_atom_site_fract_y
_atom_site_fract_z
O1	O	1.004258	0.106222	-0.066180
O2	O	0.783903	0.120042	-0.066207
O3	O	0.900100	-0.009156	-0.066183
O4	O	0.888060	0.235420	-0.066204
O5	O	0.900085	-0.009164	0.066393
O6	O	0.783887	0.120034	0.066370
O7	O	1.004242	0.106214	0.066396
Zn8	Zn	0.894062	0.113123	0.087432
Zn9	Zn	0.894083	0.113133	-0.087243
O10	O	0.888045	0.235412	0.066373
C11	C	0.755697	0.119543	0.000078
C12	C	0.671677	0.118057	0.000068
C13	C	0.899593	-0.040453	0.000106
C14	C	0.898097	-0.133696	0.000108
C15	C	0.623184	0.193894	0.000062
C16	C	0.544238	0.192493	0.000073
C17	C	0.513787	0.115255	0.000084
C18	C	0.562286	0.039412	0.000092
C19	C	0.641230	0.040814	0.000087
C20	C	0.243913	0.033758	0.000112
C21	C	0.164963	0.032362	0.000115
C22	C	0.146921	0.185436	0.000098
C23	C	0.225865	0.186838	0.000093
C24	C	0.274358	0.110996	0.000106
C25	C	0.359959	0.112516	0.000096
C26	C	0.428187	0.113734	0.000088
C27	C	0.821603	-0.404168	0.000082
C28	C	0.858490	-0.353656	-0.065281
C29	C	0.892763	-0.469329	0.000084
C30	C	0.858494	-0.353691	0.065429
C31	C	0.895380	-0.304421	0.000097
C32	C	0.929631	-0.420045	-0.065333
C33	C	0.929624	-0.420083	0.065436
C34	C	0.966563	-0.369604	0.000057
C35	C	0.891253	-0.564328	0.000076
C36	C	0.896895	-0.209424	0.000100
C37	C	1.032448	0.106713	0.000110
C38	C	1.116468	0.108199	0.000114
C39	C	0.888552	0.266709	0.000082
C40	C	0.890048	0.359952	0.000075
N41	N	0.894054	0.113115	0.206644
N42	N	0.894097	0.113134	-0.206454
C43	C	0.945522	0.055930	0.248371
C44	C	0.945526	0.055929	0.331823
C45	C	0.894065	0.113118	0.373547
C46	C	0.842592	0.170307	0.331813
C47	C	0.842585	0.170303	0.248363
C48	C	0.842619	0.170323	0.668360
C49	C	0.842632	0.170324	0.751817
C50	C	0.945561	0.055950	0.751821
C51	C	0.945553	0.055946	0.668371
C52	C	0.894078	0.113130	0.626644
C53	C	0.894073	0.113129	0.536156
C54	C	0.894073	0.113124	0.464033
H55	H	0.647970	0.256790	0.000053
H56	H	0.987435	0.009364	0.365798
H57	H	0.987460	0.009380	0.634402
N58	N	0.690766	-0.036652	0.000075
N59	N	0.736828	-0.052947	-0.055811
H60	H	0.771812	-0.107660	-0.055818
N61	N	0.967278	-0.456480	0.134776
N62	N	0.942993	-0.435041	0.202597
H63	H	0.969581	-0.460747	0.251576
N64	N	0.820761	-0.317337	0.134741
N65	N	0.752165	-0.325161	0.146360
H66	H	0.725510	-0.299485	0.195307
H67	H	0.250654	0.249733	0.000080
N68	N	0.790024	0.228719	0.205724
N69	N	0.790024	0.228708	0.131215
H70	H	0.752901	0.269965	0.101101
H71	H	0.504757	0.254246	0.000067
N72	N	0.998135	-0.002463	0.794457
N73	N	0.998136	-0.002459	0.868966
H74	H	1.035266	-0.043711	0.899077
H75	H	0.107429	0.247190	0.000092
H76	H	0.828444	-0.324655	-0.120548
H77	H	0.800688	0.216868	0.365789
H78	H	0.800724	0.216896	0.785787
N79	N	0.790043	0.228751	0.625762
N80	N	0.791082	0.306389	0.635075
H81	H	0.753947	0.347659	0.604989
N82	N	0.133870	-0.046547	0.000124
N83	N	0.177173	-0.114256	0.000134
H84	H	0.155214	-0.169983	0.000139
N85	N	0.293429	-0.043717	0.000122
N86	N	0.266228	-0.112672	0.000127
H87	H	0.301201	-0.167393	0.000132
H88	H	1.027895	-0.354242	0.000028
H89	H	0.987430	0.009363	0.214406
H90	H	0.537486	-0.023476	0.000112
H91	H	0.959667	-0.448911	-0.120653
N92	N	0.744722	-0.423636	-0.000011
N93	N	0.701287	-0.399290	-0.056231
H94	H	0.646991	-0.413039	-0.056301
