data_functionalizedCrystal
_audit_creation_method	'MofGen! by Chris Wilmer'
_symmetry_space_group_name_H-M	'P1'
_symmetry_Int_Tables_number	1
_symmetry_cell_setting	triclinic
loop_
_symmetry_equiv_pos_as_xyz
  x,y,z
_cell_length_a	7.088928
_cell_length_b	14.044191
_cell_length_c	8.559649
_cell_angle_alpha	81.485220
_cell_angle_beta	84.684688
_cell_angle_gamma	96.794043
loop_
_atom_site_label
_atom_site_type_symbol
_atom_site_fract_x
_atom_site_fract_y
_atom_site_fract_z
O1	O	0.158878	1.240772	0.366492
O2	O	0.158903	0.965807	0.352720
O3	O	0.158887	1.127514	0.130458
O4	O	0.158895	1.079065	0.588754
O5	O	-0.159086	1.105843	0.160120
O6	O	-0.159070	0.944136	0.382382
O7	O	-0.159094	1.219101	0.396154
Cu8	Cu	-0.188116	1.079640	0.391976
Cu9	Cu	0.187924	1.105268	0.356898
O10	O	-0.159078	1.057394	0.618415
C11	C	-0.000080	0.920096	0.361527
C12	C	-0.000070	0.816178	0.343558
N13	N	-0.452602	1.061621	0.416648
N14	N	0.452410	1.123296	0.332215
C15	C	-0.000088	0.559005	0.438144
C16	C	-0.000087	0.625909	0.310735
C17	C	-0.000078	0.731784	0.329002
C18	C	-0.000097	0.453120	0.419880
C19	C	-0.000097	1.120351	0.086282
C20	C	-0.000087	1.131280	-0.089540
C21	C	-0.000107	1.264813	0.387347
C22	C	-0.000104	1.368731	0.405314
C23	C	-0.000090	1.064558	0.662591
C24	C	-0.000088	1.053629	0.838413
H25	H	0.000046	0.603682	0.187925
H26	H	0.465759	0.997708	0.504154
H27	H	-0.000080	0.581241	0.560931
H28	H	0.534060	1.187207	0.244690
H29	H	-0.000087	0.978787	-0.088761
H30	H	-0.000109	1.206126	-0.162373
