data_functionalizedCrystal
_audit_creation_method	'MofGen! by Chris Wilmer'
_symmetry_space_group_name_H-M	'P1'
_symmetry_Int_Tables_number	1
_symmetry_cell_setting	triclinic
loop_
_symmetry_equiv_pos_as_xyz
  x,y,z
_cell_length_a	12.594516
_cell_length_b	12.759401
_cell_length_c	12.759393
_cell_angle_alpha	89.979062
_cell_angle_beta	90.028050
_cell_angle_gamma	89.982423
loop_
_atom_site_label
_atom_site_type_symbol
_atom_site_fract_x
_atom_site_fract_y
_atom_site_fract_z
Zn1	Zn	-0.423647	-1.606257	0.594038
Zn2	Zn	-0.601663	-1.606143	0.418366
Zn3	Zn	-0.423704	-1.430555	0.418373
Zn4	Zn	-0.601589	-1.430543	0.594003
O5	O	-0.512651	-1.518375	0.506195
O6	O	-0.447269	-1.753263	0.570746
O7	O	-0.578111	-1.582809	0.271345
O8	O	-0.274751	-1.453915	0.441693
O9	O	-0.578056	-1.753179	0.441680
O10	O	-0.274709	-1.583002	0.570754
O11	O	-0.447365	-1.453805	0.271351
O12	O	-0.447293	-1.283533	0.441659
O13	O	-0.577930	-1.453894	0.741029
O14	O	-0.577985	-1.283524	0.570694
O15	O	-0.447197	-1.582990	0.741054
O16	O	-0.750599	-1.582797	0.441646
O17	O	-0.750545	-1.453784	0.570686
C18	C	-0.512638	-1.245407	0.506174
C19	C	-0.512658	-1.128631	0.506190
C20	C	-0.789192	-1.518306	0.506185
C21	C	-0.907497	-1.518372	0.506215
C22	C	-0.512549	-1.518453	0.780228
C23	C	-0.512505	-1.518487	0.897005
C24	C	-0.976759	-1.448195	0.576351
C25	C	-1.047629	-1.422594	0.480484
C26	C	-1.047427	-1.544069	0.602099
C27	C	-0.976808	-1.492721	0.410297
C28	C	-0.976600	-1.614240	0.531977
C29	C	-1.047438	-1.588675	0.436044
C30	C	-0.235030	-1.518472	0.506228
C31	C	-0.116725	-1.518514	0.506242
C32	C	-0.512665	-1.792408	0.506216
C33	C	-0.512671	-1.909184	0.506226
C34	C	-0.580812	-1.073791	0.573272
C35	C	-0.580817	-0.964067	0.573293
C36	C	-0.444509	-0.964031	0.439140
C37	C	-0.444500	-1.073753	0.439125
C38	C	-0.619008	-0.814170	0.697155
C39	C	-0.687180	-0.759328	0.764229
C40	C	-0.791053	-0.794923	0.780181
C41	C	-0.826776	-0.885359	0.729045
C42	C	-0.758611	-0.940197	0.661964
C43	C	-0.654723	-0.904603	0.646031
C44	C	-0.406319	-1.223652	0.315262
C45	C	-0.338158	-1.278491	0.248175
C46	C	-0.234283	-1.242898	0.232212
C47	C	-0.198564	-1.152458	0.283330
C48	C	-0.266725	-1.097619	0.350417
C49	C	-0.370598	-1.133220	0.366381
C50	C	-0.512676	-1.518357	0.233228
C51	C	-0.512420	-1.518527	0.116451
C52	C	-0.444422	-1.585712	0.951882
C53	C	-0.444376	-1.585730	1.061606
C54	C	-0.580506	-1.451294	1.061567
C55	C	-0.580546	-1.451272	0.951844
C56	C	-0.318796	-1.623345	1.211579
C57	C	-0.250722	-1.690586	1.266460
C58	C	-0.234401	-1.793100	1.230868
C59	C	-0.286169	-1.828392	1.140397
C60	C	-0.354251	-1.761156	1.085522
C61	C	-0.370552	-1.658628	1.121112
C62	C	-0.706127	-1.413668	0.801870
C63	C	-0.774215	-1.346436	0.746992
C64	C	-0.790547	-1.243921	0.782582
C65	C	-0.738798	-1.208632	0.873057
C66	C	-0.670709	-1.275864	0.927934
C67	C	-0.654375	-1.378378	0.892337
H68	H	-0.945724	-1.388743	0.635576
H69	H	-0.178791	-1.287553	0.177575
N70	N	-0.617848	-1.239842	1.020363
N71	N	-0.557074	-1.299885	1.069358
H72	H	-0.519749	-1.274450	1.134642
N73	N	-0.755493	-1.103914	0.909409
N74	N	-0.816286	-1.043897	0.860403
H75	H	-0.828083	-0.969939	0.886075
N76	N	-0.374898	-1.654343	0.895865
N77	N	-0.307092	-1.617385	0.834646
H78	H	-0.257985	-1.665854	0.795085
N79	N	-0.092450	-1.116115	0.267027
N80	N	-0.015503	-1.173593	0.290049
H81	H	0.059442	-1.147928	0.278530
H82	H	-0.367250	-1.352132	0.206551
N83	N	-0.937401	-1.715831	0.559329
N84	N	-0.880614	-1.765521	0.496225
H85	H	-0.852922	-1.837269	0.515552
N86	N	-0.512427	-1.260024	0.331555
N87	N	-0.544311	-1.340763	0.285893
H88	H	-0.619252	-1.366450	0.297391
N89	N	-0.407125	-1.797211	0.993119
N90	N	-0.392552	-1.888750	0.961351
H91	H	-0.429889	-1.914216	0.896087
N92	N	-0.938082	-1.465391	0.308555
N93	N	-1.001952	-1.446018	0.236073
H94	H	-0.974601	-1.426713	0.164219
H95	H	-0.389018	-0.919337	0.384537
N96	N	-0.860112	-1.175261	0.726521
N97	N	-0.906325	-1.206778	0.645750
H98	H	-0.955452	-1.158286	0.606158
N99	N	-1.086347	-1.571289	0.703798
N100	N	-1.143020	-1.650861	0.715350
H101	H	-1.170507	-1.670080	0.787177
H102	H	-0.272882	-1.911872	1.111430
N103	N	-0.164868	-1.861775	1.286941
N104	N	-0.118663	-1.830259	1.367717
H105	H	-0.069553	-1.878755	1.407322
H106	H	-0.692826	-1.497142	0.772878
H107	H	-0.636308	-1.118469	0.627883
H108	H	-0.816362	-1.375181	0.673330
H109	H	-1.078851	-1.341587	0.458716
N110	N	-1.086119	-1.663197	0.361562
N111	N	-1.063280	-1.653612	0.266717
H112	H	-1.090599	-1.706239	0.214111
N113	N	-0.932895	-0.921698	0.745315
N114	N	-1.009833	-0.864211	0.722284
H115	H	-1.084782	-0.889876	0.733776
H116	H	-0.787696	-1.013828	0.620329
N117	N	-0.860678	-0.738888	0.848690
N118	N	-0.828777	-0.658143	0.894331
H119	H	-0.877944	-0.618565	0.942719
N120	N	-0.650677	-0.666953	0.816451
N121	N	-0.557922	-0.635186	0.802213
H122	H	-0.532146	-0.569944	0.839092
H123	H	-0.534423	-0.785187	0.684184
N124	N	-0.230222	-1.005256	0.402658
N125	N	-0.152539	-1.010141	0.463475
H126	H	-0.126759	-0.944915	0.500378
N127	N	-0.197854	-1.654524	1.358870
N128	N	-0.212423	-1.562983	1.390635
H129	H	-0.175088	-1.537518	1.455902
H130	H	-0.635905	-1.396572	1.106230
N131	N	-0.335439	-1.518623	1.247940
N132	N	-0.289217	-1.487136	1.328718
H133	H	-0.300970	-1.413175	1.354403
