data_functionalizedCrystal
_audit_creation_method	'MofGen! by Chris Wilmer'
_symmetry_space_group_name_H-M	'P1'
_symmetry_Int_Tables_number	1
_symmetry_cell_setting	triclinic
loop_
_symmetry_equiv_pos_as_xyz
  x,y,z
_cell_length_a	12.759395
_cell_length_b	21.295417
_cell_length_c	12.759387
_cell_angle_alpha	90.037489
_cell_angle_beta	90.020509
_cell_angle_gamma	90.031239
loop_
_atom_site_label
_atom_site_type_symbol
_atom_site_fract_x
_atom_site_fract_y
_atom_site_fract_z
Zn1	Zn	1.606159	-0.250550	0.593956
Zn2	Zn	2.106159	0.249450	1.093956
Zn3	Zn	1.606004	-0.355833	0.418256
Zn4	Zn	2.106004	0.144167	0.918256
Zn5	Zn	1.430457	-0.250585	0.418293
Zn6	Zn	1.930457	0.249415	0.918293
Zn7	Zn	1.430404	-0.355788	0.593895
Zn8	Zn	1.930404	0.144212	1.093895
O9	O	1.518256	-0.303189	0.506100
O10	O	2.018256	0.196811	1.006100
O11	O	1.753160	-0.264521	0.570659
O12	O	2.253160	0.235479	1.070659
O13	O	1.582675	-0.341905	0.271240
O14	O	2.082675	0.158095	0.771240
O15	O	1.453852	-0.162491	0.441636
O16	O	1.953852	0.337509	0.941636
O17	O	1.753045	-0.341871	0.441573
O18	O	2.253045	0.158129	0.941573
O19	O	1.582939	-0.162465	0.570695
O20	O	2.082939	0.337535	1.070695
O21	O	1.453701	-0.264579	0.271267
O22	O	1.953701	0.235421	0.771267
O23	O	1.283429	-0.264536	0.441577
O24	O	1.783429	0.235464	0.941577
O25	O	1.453761	-0.341795	0.740925
O26	O	1.953761	0.158205	1.240925
O27	O	1.283390	-0.341828	0.570591
O28	O	1.783390	0.158172	1.070591
O29	O	1.582887	-0.264477	0.740969
O30	O	2.082887	0.235523	1.240969
O31	O	1.582623	-0.443917	0.441514
O32	O	2.082623	0.056083	0.941514
O33	O	1.453610	-0.443884	0.570555
O34	O	1.953610	0.056116	1.070555
C35	C	1.245289	-0.303181	0.506082
C36	C	1.745289	0.196819	1.006082
C37	C	1.128512	-0.303193	0.506099
C38	C	1.628512	0.196807	1.006099
C39	C	1.128509	-0.383808	0.640224
C40	C	1.628509	0.116192	1.140224
C41	C	1.073647	-0.424121	0.707290
C42	C	1.573647	0.075879	1.207290
C43	C	0.963926	-0.424129	0.707303
C44	C	1.463926	0.075871	1.207303
C45	C	0.909064	-0.383818	0.640245
C46	C	1.409064	0.116182	1.140245
C47	C	0.963926	-0.343506	0.573180
C48	C	1.463926	0.156494	1.073180
C49	C	1.073650	-0.343504	0.573172
C50	C	1.573650	0.156496	1.073172
C51	C	0.963928	-0.262888	0.439061
C52	C	1.463928	0.237112	0.939061
C53	C	1.073650	-0.262883	0.439042
C54	C	1.573650	0.237117	0.939042
C55	C	0.909066	-0.222578	0.372004
C56	C	1.409066	0.277422	0.872004
C57	C	0.963928	-0.182267	0.304931
C58	C	1.463928	0.317733	0.804931
C59	C	1.073656	-0.182262	0.304920
C60	C	1.573656	0.317738	0.804920
C61	C	1.128512	-0.222570	0.371976
C62	C	1.628512	0.277430	0.871976
C63	C	1.518122	-0.466741	0.506047
C64	C	2.018122	0.033259	1.006047
C65	C	1.518161	-0.536709	0.506059
C66	C	2.018161	-0.036709	1.006059
C67	C	1.585338	-0.569505	0.573308
C68	C	2.085338	-0.069505	1.073308
C69	C	1.585375	-0.635248	0.573334
C70	C	2.085375	-0.135248	1.073334
C71	C	1.518246	-0.668191	0.506092
C72	C	2.018246	-0.168191	1.006092
C73	C	1.451056	-0.635387	0.438839
C74	C	1.951056	-0.135387	0.938839
C75	C	1.451013	-0.569646	0.438822
C76	C	1.951013	-0.069646	0.938822
N77	N	1.510305	-0.771460	0.414146
N78	N	2.010305	-0.271460	0.914146
N79	N	1.510352	-0.833911	0.414165
N80	N	2.010352	-0.333911	0.914165
C81	C	1.518369	-0.866266	0.506140
C82	C	2.018369	-0.366266	1.006140
N83	N	1.526358	-0.833810	0.598098
N84	N	2.026358	-0.333810	1.098098
N85	N	1.526317	-0.771353	0.598078
N86	N	2.026317	-0.271353	1.098078
C87	C	1.518284	-0.739477	0.506103
C88	C	2.018284	-0.239477	1.006103
C89	C	1.585590	-0.970348	0.573423
C90	C	2.085590	-0.470348	1.073423
C91	C	1.585620	-1.036092	0.573450
C92	C	2.085620	-0.536092	1.073450
C93	C	1.451306	-1.036230	0.438945
C94	C	1.951306	-0.536230	0.938945
C95	C	1.451270	-0.970487	0.438927
C96	C	1.951270	-0.470487	0.938927
C97	C	1.518418	-0.937550	0.506164
C98	C	2.018418	-0.437550	1.006164
C99	C	1.792289	-0.303197	0.506119
C100	C	2.292289	0.196803	1.006119
C101	C	1.909066	-0.303201	0.506127
C102	C	2.409066	0.196799	1.006127
C103	C	1.518335	-0.303127	0.780134
C104	C	2.018335	0.196873	1.280134
C105	C	1.518369	-0.303101	0.896911
C106	C	2.018369	0.196899	1.396911
C107	C	1.518419	-0.138999	0.506177
C108	C	2.018419	0.361001	1.006177
C109	C	1.518489	-0.069031	0.506209
C110	C	2.018489	0.430969	1.006209
C111	C	1.518237	-0.303205	0.233133
C112	C	2.018237	0.196795	0.733133
C113	C	1.518407	-0.303054	0.116357
C114	C	2.018407	0.196946	0.616357
C115	C	1.652838	-0.222595	0.896977
C116	C	2.152838	0.277405	1.396977
C117	C	1.720087	-0.182333	0.951871
C118	C	2.220087	0.317667	1.451871
C119	C	1.720113	-0.182310	1.061593
C120	C	2.220113	0.317690	1.561593
C121	C	1.652880	-0.222552	1.116423
C122	C	2.152880	0.277448	1.616423
C123	C	1.585631	-0.262815	1.061529
C124	C	2.085631	0.237185	1.561529
C125	C	1.585615	-0.262835	0.951805
C126	C	2.085615	0.237165	1.451805
C127	C	1.451158	-0.343316	1.061462
C128	C	1.951158	0.156684	1.561462
C129	C	1.451136	-0.343344	0.951741
C130	C	1.951136	0.156656	1.451741
C131	C	1.383925	-0.383559	1.116293
C132	C	1.883925	0.116441	1.616293
C133	C	1.316680	-0.423825	1.061399
C134	C	1.816680	0.076175	1.561399
C135	C	1.316658	-0.423847	0.951670
C136	C	1.816658	0.076153	1.451670
C137	C	1.383887	-0.383606	0.896847
C138	C	1.883887	0.116394	1.396847
H139	H	1.118328	-0.456940	0.761888
H140	H	1.618328	0.043060	1.261888
F141	F	0.905535	-0.139367	0.233579
F142	F	1.405535	0.360633	0.733579
F143	F	1.383874	-0.383628	0.780071
F144	F	1.883874	0.116372	1.280071
F145	F	1.379509	-0.534740	0.367245
F146	F	1.879509	-0.034740	0.867245
H147	H	1.118319	-0.149430	0.250315
H148	H	1.618319	0.350570	0.750315
H149	H	1.396573	-0.943783	0.384162
H150	H	1.896573	-0.443783	0.884162
H151	H	1.217853	-0.222571	0.371971
H152	H	1.717853	0.277429	0.871971
H153	H	1.640011	-0.542690	0.628059
H154	H	2.140011	-0.042690	1.128059
H155	H	1.774825	-0.149567	0.907216
H156	H	2.274825	0.350433	1.407216
H157	H	1.640263	-0.943529	0.628175
H158	H	2.140263	-0.443529	1.128175
F159	F	1.656882	-0.670159	0.644908
F160	F	2.156882	-0.170159	1.144908
F161	F	1.379607	-0.670449	0.367280
F162	F	1.879607	-0.170449	0.867280
F163	F	1.245075	-0.466698	0.893256
F164	F	1.745075	0.033302	1.393256
F165	F	1.657112	-1.070996	0.645041
F166	F	2.157112	-0.570996	1.145041
H167	H	0.919257	-0.456951	0.761919
H168	H	1.419257	0.043049	1.261919
H169	H	1.383947	-0.383535	1.205634
H170	H	1.883947	0.116465	1.705634
H171	H	0.819722	-0.383822	0.640271
H172	H	1.319722	0.116178	1.140271
H173	H	1.652834	-0.222616	0.807636
H174	H	2.152834	0.277384	1.307636
F175	F	1.245285	-0.383811	0.640203
F176	F	1.745285	0.116189	1.140203
F177	F	1.379858	-1.071286	0.367384
F178	F	1.879858	-0.571286	0.867384
H179	H	1.261939	-0.456584	1.106050
H180	H	1.761939	0.043416	1.606050
F181	F	1.791672	-0.139450	1.120017
F182	F	2.291672	0.360550	1.620017
H183	H	1.652898	-0.222525	1.205764
H184	H	2.152898	0.277475	1.705764
H185	H	0.819725	-0.222584	0.372023
H186	H	1.319725	0.277416	0.872023
