data_functionalizedCrystal
_audit_creation_method	'MofGen! by Chris Wilmer'
_symmetry_space_group_name_H-M	'P1'
_symmetry_Int_Tables_number	1
_symmetry_cell_setting	triclinic
loop_
_symmetry_equiv_pos_as_xyz
  x,y,z
_cell_length_a	13.262390
_cell_length_b	10.540539
_cell_length_c	11.804365
_cell_angle_alpha	101.953828
_cell_angle_beta	62.657606
_cell_angle_gamma	84.478113
loop_
_atom_site_label
_atom_site_type_symbol
_atom_site_fract_x
_atom_site_fract_y
_atom_site_fract_z
O1	O	1.519425	0.018651	-0.591144
O2	O	1.191432	0.064616	-0.484913
O3	O	1.362911	-0.143737	-0.540450
O4	O	1.347946	0.227004	-0.535606
O5	O	1.317767	-0.088937	-0.327773
O6	O	1.146287	0.119416	-0.272236
O7	O	1.474281	0.073450	-0.378467
Cu8	Cu	1.306162	0.101437	-0.305932
Cu9	Cu	1.359550	0.036630	-0.557447
O10	O	1.302801	0.281803	-0.322929
C11	C	1.126860	0.094479	-0.364971
C12	C	1.001716	0.101804	-0.324440
C13	C	0.747400	0.002943	-0.673928
C14	C	0.864980	-0.003945	-0.712012
C15	C	0.899170	0.022492	-0.615122
C16	C	0.815768	0.055818	-0.480142
C17	C	0.698177	0.062697	-0.442055
C18	C	0.849947	0.082246	-0.383249
C19	C	0.766545	0.115572	-0.248268
C20	C	0.648966	0.122451	-0.210188
C21	C	0.614776	0.096014	-0.307077
C22	C	0.967538	0.075366	-0.421336
C23	C	0.918315	0.135120	-0.189463
C24	C	0.800735	0.142009	-0.151379
C25	C	1.339217	-0.163541	-0.433750
C26	C	1.335861	-0.304193	-0.432670
C27	C	1.207293	-0.476323	-0.391474
C28	C	1.210596	-0.329884	-0.392097
C29	C	1.370364	-0.339907	-0.330745
C30	C	1.366067	-0.486046	-0.329258
C31	C	1.419952	-0.549108	-0.571937
C32	C	1.421447	-0.402642	-0.573916
C33	C	1.538853	0.043587	-0.498411
C34	C	1.663999	0.036260	-0.538951
C35	C	1.326496	0.301607	-0.429632
C36	C	1.329854	0.442256	-0.430721
N37	N	1.268620	0.147017	-0.129033
N38	N	1.397102	-0.008961	-0.734350
C39	C	1.487254	-0.118441	0.174106
C40	C	1.515654	-0.152927	0.040247
C41	C	1.453897	-0.077944	-0.002080
C42	C	1.363737	0.031532	0.089467
C43	C	1.335341	0.066028	0.223337
C44	C	1.301984	0.106524	0.047151
C45	C	1.211824	0.216000	0.138698
C46	C	1.183432	0.250490	0.272555
C47	C	1.245188	0.175508	0.314881
C48	C	1.330380	0.072028	-0.086719
C49	C	1.178467	0.256497	-0.037489
C50	C	1.150068	0.290983	0.096371
H51	H	0.581063	0.149564	-0.100279
N52	N	1.293749	-0.252624	-0.200341
N53	N	1.233508	-0.298892	-0.107850
H54	H	1.179392	-0.237251	-0.015750
N55	N	1.057966	0.402805	0.189875
N56	N	0.956943	0.405324	0.208692
H57	H	0.891893	0.484296	0.274730
H58	H	1.537534	-0.179476	0.208578
N59	N	1.115397	0.333094	-0.080733
N60	N	1.140763	0.302284	-0.200256
H61	H	1.096229	0.356379	-0.230809
H62	H	1.403789	-0.017107	-0.161246
H63	H	1.035434	0.048235	-0.531238
H64	H	0.994911	0.016882	-0.646138
H65	H	1.396409	-0.381019	-0.649475
N66	N	0.950176	-0.038020	-0.849879
N67	N	1.030931	-0.138720	-0.900106
H68	H	1.091103	-0.162798	-0.997484
N69	N	1.482925	-0.113180	-0.138819
N70	N	1.563427	-0.210924	-0.220543
H71	H	1.583931	-0.235817	-0.317121
N72	N	1.216149	0.210715	0.451629
N73	N	1.116224	0.211885	0.539628
H74	H	1.095712	0.236736	0.636210
N75	N	0.953244	0.162140	-0.090499
N76	N	1.003698	0.255146	-0.082761
H77	H	1.028376	0.274225	-0.012876
H78	H	0.719551	-0.018590	-0.752801
N79	N	1.174268	-0.299308	-0.482039
N80	N	1.146290	-0.386226	-0.544785
H81	H	1.120625	-0.364637	-0.608305
H82	H	0.519033	0.101625	-0.276076
H83	H	1.144319	-0.261419	-0.289422
N84	N	1.091353	0.362339	0.366045
N85	N	1.036225	0.429284	0.328242
H86	H	0.971196	0.508280	0.394266
H87	H	0.732812	0.169143	-0.041476
H88	H	1.302244	-0.486899	-0.224043
N89	N	1.484548	-0.320624	-0.362407
N90	N	1.526967	-0.344141	-0.291787
H91	H	1.607608	-0.330516	-0.314145
N92	N	1.168423	-0.534844	-0.480641
N93	N	1.230589	-0.637246	-0.574154
H94	H	1.203140	-0.678584	-0.637136
H95	H	1.139629	-0.479842	-0.288907
N96	N	1.477612	-0.554456	-0.358933
N97	N	1.558380	-0.494211	-0.380665
H98	H	1.637156	-0.542517	-0.401613
H99	H	1.398950	-0.600781	-0.650857
N100	N	1.607860	-0.264630	-0.053279
N101	N	1.663066	-0.331490	-0.015500
H102	H	1.728235	-0.410343	-0.081568
N103	N	1.537962	-0.384767	-0.620226
N104	N	1.559918	-0.298801	-0.549564
H105	H	1.642209	-0.286169	-0.582266
H106	H	1.510604	-0.604574	-0.602058
