data_functionalizedCrystal
_audit_creation_method	'MofGen! by Chris Wilmer'
_symmetry_space_group_name_H-M	'P1'
_symmetry_Int_Tables_number	1
_symmetry_cell_setting	triclinic
loop_
_symmetry_equiv_pos_as_xyz
  x,y,z
_cell_length_a	17.077404
_cell_length_b	18.050589
_cell_length_c	17.077396
_cell_angle_alpha	90.024642
_cell_angle_beta	90.019501
_cell_angle_gamma	90.028446
loop_
_atom_site_label
_atom_site_type_symbol
_atom_site_fract_x
_atom_site_fract_y
_atom_site_fract_z
Zn1	Zn	1.200026	-0.295655	0.443864
Zn2	Zn	1.199920	-0.419852	0.312606
Zn3	Zn	1.068757	-0.295681	0.312612
Zn4	Zn	1.068713	-0.419808	0.443830
O5	O	1.134354	-0.357749	0.378228
O6	O	1.309858	-0.312138	0.426464
O7	O	1.182496	-0.403410	0.202760
O8	O	1.086233	-0.191753	0.330039
O9	O	1.309781	-0.403385	0.330030
O10	O	1.182675	-0.191734	0.426469
O11	O	1.086131	-0.312182	0.202764
O12	O	0.958905	-0.312139	0.330006
O13	O	1.086157	-0.403310	0.553681
O14	O	0.958872	-0.403335	0.426412
O15	O	1.182632	-0.312095	0.553706
O16	O	1.182453	-0.523771	0.329997
O17	O	1.086056	-0.523739	0.426407
C18	C	0.930406	-0.357736	0.378206
C19	C	0.843156	-0.357748	0.378216
C20	C	1.134259	-0.550701	0.378215
C21	C	1.134291	-0.633247	0.378236
C22	C	0.802170	-0.405305	0.428333
C23	C	0.720189	-0.405307	0.428346
C24	C	0.679197	-0.357754	0.378236
C25	C	0.720189	-0.310192	0.328116
C26	C	0.802168	-0.310187	0.328108
C27	C	0.549319	-0.310206	0.328135
C28	C	0.467335	-0.310212	0.328142
C29	C	0.467340	-0.405326	0.428373
C30	C	0.549319	-0.405321	0.428365
C31	C	0.590306	-0.357760	0.378244
C32	C	1.081921	-0.832707	0.430645
C33	C	1.062786	-0.882149	0.359016
C34	C	1.134368	-0.784377	0.378246
C35	C	1.153541	-0.882017	0.449883
C36	C	1.134441	-0.930362	0.378262
C37	C	1.115195	-0.832732	0.306579
C38	C	1.205984	-0.832596	0.397495
C39	C	1.186876	-0.882016	0.325816
C40	C	1.134324	-0.700279	0.378238
C41	C	1.134485	-1.014459	0.378262
C42	C	1.339098	-0.357763	0.378250
C43	C	1.426348	-0.357769	0.378260
C44	C	1.134402	-0.357694	0.582972
C45	C	1.134422	-0.357671	0.670222
C46	C	1.134471	-0.164043	0.378258
C47	C	1.134520	-0.081498	0.378271
C48	C	1.134352	-0.357750	0.174280
C49	C	1.134484	-0.357564	0.087031
C50	C	1.184658	-0.310172	0.711226
C51	C	1.184667	-0.310147	0.793207
C52	C	1.134444	-0.357626	0.834182
C53	C	1.084202	-0.405128	0.793172
C54	C	1.084190	-0.405148	0.711193
C55	C	1.084234	-0.405083	0.964042
C56	C	1.084248	-0.405064	1.046026
C57	C	1.184712	-0.310082	1.046056
C58	C	1.184699	-0.310102	0.964077
C59	C	1.134458	-0.357605	0.923073
H60	H	0.835540	-0.444030	0.469136
H61	H	1.266499	-0.810816	0.413795
H62	H	1.169729	-0.903667	0.510460
H63	H	0.686807	-0.271471	0.287319
O64	O	0.842019	-0.263913	0.279532
C65	C	0.889494	-0.216008	0.324303
H66	H	0.864819	-0.211497	0.386139
H67	H	0.951616	-0.238968	0.326959
C68	C	0.921075	-0.144299	0.210145
C69	C	0.890765	-0.138754	0.286091
H70	H	0.921863	-0.096645	0.186573
H71	H	0.889093	-0.176574	0.179981
H72	H	0.972841	-0.163435	0.212369
H73	H	0.838998	-0.119627	0.283866
H74	H	0.922739	-0.106473	0.316254
H75	H	1.231259	-0.903530	0.281460
H76	H	0.582693	-0.444047	0.469164
O77	O	1.035527	-0.451340	0.924237
C78	C	1.052644	-0.525349	0.944278
H79	H	1.115352	-0.529081	0.966838
H80	H	1.010550	-0.544757	0.991843
C81	C	0.966480	-0.570347	0.843732
C82	C	1.043500	-0.574933	0.871434
H83	H	0.960836	-0.600934	0.798800
H84	H	0.954945	-0.520486	0.830232
H85	H	0.931410	-0.586520	0.883376
H86	H	1.078567	-0.558752	0.831794
H87	H	1.055041	-0.624792	0.884926
H88	H	0.582688	-0.271470	0.287328
O89	O	0.680497	-0.451583	0.477046
C90	C	0.734257	-0.493546	0.521278
H91	H	0.792680	-0.496065	0.489117
H92	H	0.743011	-0.466435	0.580951
C93	C	0.630479	-0.569513	0.571934
C94	C	0.702234	-0.572612	0.532429
H95	H	0.610725	-0.618283	0.578816
H96	H	0.594259	-0.541240	0.542137
H97	H	0.637784	-0.546916	0.621657
H98	H	0.694926	-0.595199	0.482704
H99	H	0.738452	-0.600891	0.562219
O100	O	1.095774	-0.806894	0.234346
C101	C	1.095957	-0.728787	0.235213
H102	H	1.087180	-0.708319	0.297756
H103	H	1.154384	-0.707600	0.211950
C104	C	1.039864	-0.724878	0.106284
C105	C	1.029079	-0.699738	0.183099
H106	H	0.998614	-0.706958	0.074135
H107	H	1.039744	-0.777499	0.105698
H108	H	1.088556	-0.707219	0.086908
H109	H	0.980393	-0.717405	0.202477
H110	H	1.029189	-0.647119	0.183687
O111	O	1.233471	-0.263980	0.671548
C112	C	1.277825	-0.222063	0.725324
H113	H	1.245683	-0.219476	0.783755
H114	H	1.337428	-0.249260	0.734049
C115	C	1.328659	-0.146208	0.621580
C116	C	1.289178	-0.143025	0.693345
H117	H	1.335666	-0.097455	0.601854
H118	H	1.298780	-0.174449	0.585350
H119	H	1.378324	-0.168875	0.628861
H120	H	1.239511	-0.120367	0.686061
H121	H	1.319049	-0.114778	0.729573
H122	H	0.433965	-0.444050	0.469186
H123	H	1.037504	-0.811056	0.474894
O124	O	0.427634	-0.263947	0.279445
C125	C	0.481387	-0.221974	0.235196
H126	H	0.539841	-0.219437	0.267345
H127	H	0.490067	-0.249091	0.175525
C128	C	0.377622	-0.146040	0.184553
C129	C	0.449415	-0.142918	0.224042
H130	H	0.357900	-0.097275	0.177669
H131	H	0.341407	-0.174319	0.214362
H132	H	0.384865	-0.168640	0.134832
H133	H	0.442169	-0.120327	0.273766
H134	H	0.485628	-0.114634	0.194241
H135	H	1.225577	-0.271470	0.826589
H136	H	1.002257	-0.903931	0.342749
O137	O	1.233511	-0.263913	0.924394
C138	C	1.277871	-0.221994	0.978162
H139	H	1.245734	-0.219402	1.036596
H140	H	1.337474	-0.249192	0.986885
C141	C	1.328699	-0.146148	0.874408
C142	C	1.289224	-0.142959	0.946176
H143	H	1.335706	-0.097396	0.854677
H144	H	1.298816	-0.174391	0.838183
H145	H	1.378364	-0.168816	0.881687
H146	H	1.239557	-0.120300	0.938895
H147	H	1.319099	-0.114710	0.982400
H148	H	1.225619	-0.271402	1.079446
H149	H	1.043350	-0.443724	1.079386
H150	H	1.043307	-0.443783	0.826540
O151	O	1.035375	-0.451369	0.671480
C152	C	0.991040	-0.493263	0.725222
H153	H	1.023196	-0.495813	0.783667
H154	H	0.931435	-0.466070	0.733928
C155	C	0.940196	-0.569182	0.621432
C156	C	0.979694	-0.572319	0.693214
H157	H	0.933193	-0.617946	0.601687
H158	H	0.970062	-0.540955	0.585224
H159	H	0.890529	-0.546518	0.628697
H160	H	1.029363	-0.594974	0.685946
H161	H	0.949835	-0.600552	0.729420
