data_functionalizedCrystal
_audit_creation_method	'MofGen! by Chris Wilmer'
_symmetry_space_group_name_H-M	'P1'
_symmetry_Int_Tables_number	1
_symmetry_cell_setting	triclinic
loop_
_symmetry_equiv_pos_as_xyz
  x,y,z
_cell_length_a	16.120484
_cell_length_b	17.077404
_cell_length_c	17.077396
_cell_angle_alpha	90.019699
_cell_angle_beta	92.868746
_cell_angle_gamma	87.077362
loop_
_atom_site_label
_atom_site_type_symbol
_atom_site_fract_x
_atom_site_fract_y
_atom_site_fract_z
Zn1	Zn	-0.331972	-1.184191	-0.459680
Zn2	Zn	0.168028	-0.684191	0.040320
Zn3	Zn	-0.471395	-1.177436	-0.335064
Zn4	Zn	0.028605	-0.677436	0.164936
Zn5	Zn	-0.331993	-1.052922	-0.328429
Zn6	Zn	0.168007	-0.552922	0.171571
Zn7	Zn	-0.471338	-1.046231	-0.466285
Zn8	Zn	0.028662	-0.546231	0.033715
O9	O	-0.401675	-1.115195	-0.397365
O10	O	0.098325	-0.615195	0.102635
O11	O	-0.350482	-1.293141	-0.443163
O12	O	0.149518	-0.793141	0.056837
O13	O	-0.452936	-1.160891	-0.224339
O14	O	0.047064	-0.660891	0.275661
O15	O	-0.215325	-1.075962	-0.340299
O16	O	0.284675	-0.575962	0.159701
O17	O	-0.452915	-1.288178	-0.351608
O18	O	0.047085	-0.788178	0.148392
O19	O	-0.215309	-1.172405	-0.436729
O20	O	0.284691	-0.672405	0.063271
O21	O	-0.350518	-1.069412	-0.219464
O22	O	0.149482	-0.569412	0.280536
O23	O	-0.350463	-0.942188	-0.346703
O24	O	0.149537	-0.442188	0.153297
O25	O	-0.452818	-1.064559	-0.575254
O26	O	0.047182	-0.564559	-0.075254
O27	O	-0.452839	-0.937272	-0.447985
O28	O	0.047161	-0.437272	0.052015
O29	O	-0.350426	-1.165917	-0.570402
O30	O	0.149574	-0.665917	-0.070402
O31	O	-0.588053	-1.154404	-0.358012
O32	O	-0.088053	-0.654404	0.141988
O33	O	-0.588011	-1.058008	-0.454419
O34	O	-0.088011	-0.558008	0.045581
C35	C	-0.401648	-0.911248	-0.397341
C36	C	0.098352	-0.411248	0.102659
C37	C	-0.401656	-0.823998	-0.397350
C38	C	0.098344	-0.323998	0.102650
C39	C	-0.348413	-0.785588	-0.445103
C40	C	0.151587	-0.285588	0.054897
C41	C	-0.348417	-0.703608	-0.445105
C42	C	0.151583	-0.203608	0.054895
C43	C	-0.401669	-0.660038	-0.397358
C44	C	0.098331	-0.160038	0.102642
C45	C	-0.454914	-0.698453	-0.349599
C46	C	0.045086	-0.198453	0.150401
C47	C	-0.454906	-0.780433	-0.349594
C48	C	0.045094	-0.280433	0.150406
C49	C	-0.454931	-0.527582	-0.349616
C50	C	0.045069	-0.027582	0.150384
C51	C	-0.454941	-0.445597	-0.349622
C52	C	0.045059	0.054403	0.150378
C53	C	-0.348442	-0.450758	-0.445127
C54	C	0.151558	0.049242	0.054873
C55	C	-0.348433	-0.532737	-0.445121
C56	C	0.151567	-0.032737	0.054879
C57	C	-0.401680	-0.571146	-0.397364
C58	C	0.098320	-0.071146	0.102636
C59	C	-0.618282	-1.104768	-0.407669
C60	C	-0.118282	-0.604768	0.092331
C61	C	-0.710948	-1.100379	-0.412104
C62	C	-0.210948	-0.600379	0.087896
C63	C	-0.880609	-1.092371	-0.420216
C64	C	-0.380609	-0.592371	0.079784
C65	C	-0.921900	-1.138159	-0.374526
C66	C	-0.421900	-0.638159	0.125474
C67	C	-1.016305	-1.133703	-0.379040
C68	C	-0.516305	-0.633703	0.120960
C69	C	-0.786195	-1.096826	-0.415703
C70	C	-0.286195	-0.596826	0.084297
C71	C	-0.184221	-1.125684	-0.387037
C72	C	0.315779	-0.625684	0.112963
C73	C	-0.091555	-1.130153	-0.382636
C74	C	0.408445	-0.630153	0.117364
C75	C	-0.401613	-1.115245	-0.602106
C76	C	0.098387	-0.615245	-0.102106
C77	C	-0.401587	-1.115267	-0.689355
C78	C	0.098413	-0.615267	-0.189355
C79	C	-0.401698	-0.319938	-0.397383
C80	C	0.098302	0.180062	0.102617
C81	C	-0.401698	-0.407188	-0.397375
C82	C	0.098302	0.092812	0.102625
C83	C	-0.348267	-1.168046	-0.727819
C84	C	0.151733	-0.668046	-0.227819
C85	C	-0.348239	-1.168057	-0.809798
C86	C	0.151761	-0.668057	-0.309798
C87	C	-0.401536	-1.115291	-0.853312
C88	C	0.098464	-0.615291	-0.353312
C89	C	-0.454859	-1.062506	-0.814841
C90	C	0.045141	-0.562506	-0.314841
C91	C	-0.454882	-1.062492	-0.732863
C92	C	0.045118	-0.562492	-0.232863
C93	C	-0.454808	-1.062540	-0.985709
C94	C	0.045192	-0.562540	-0.485709
C95	C	-0.454787	-1.062555	-1.067693
C96	C	0.045213	-0.562555	-0.567693
C97	C	-0.348166	-1.168105	-1.062644
C98	C	0.151834	-0.668105	-0.562644
C99	C	-0.348189	-1.168091	-0.980666
C100	C	0.151811	-0.668091	-0.480666
C101	C	-0.401513	-1.115307	-0.942202
C102	C	0.098487	-0.615307	-0.442202
C103	C	-0.401676	-1.115193	-0.193417
C104	C	0.098324	-0.615193	0.306583
C105	C	-0.401467	-1.115334	-0.106157
C106	C	0.098533	-0.615334	0.393843
H107	H	-0.305075	-0.568209	-0.484006
H108	H	0.194925	-0.068209	0.015994
H109	H	-0.916158	-1.049828	-0.462719
H110	H	-0.416158	-0.549828	0.037281
N111	N	-0.293761	-1.221987	-0.936203
N112	N	0.206239	-0.721987	-0.436203
N113	N	-0.323118	-1.270579	-0.891857
N114	N	0.176882	-0.770579	-0.391857
H115	H	-0.284676	-1.308642	-0.860453
H116	H	0.215324	-0.808642	-0.360453
N117	N	-0.293775	-1.221963	-0.849099
N118	N	0.206225	-0.721963	-0.349099
N119	N	-0.240628	-1.196917	-0.892312
N120	N	0.259372	-0.696917	-0.392312
H121	H	-0.202158	-1.234990	-0.920068
H122	H	0.297842	-0.734990	-0.420068
H123	H	-0.498184	-1.019587	-1.103119
H124	H	0.001816	-0.519587	-0.603119
H125	H	-0.498217	-1.019546	-0.954393
H126	H	0.001783	-0.519546	-0.454393
N127	N	-0.294037	-0.411547	-0.493912
N128	N	0.205963	0.088453	0.006088
N129	N	-0.299657	-0.420464	-0.566604
N130	N	0.200343	0.079536	-0.066604
H131	H	-0.261233	-0.392772	-0.601059
H132	H	0.238767	0.107228	-0.101059
N133	N	-0.509361	-1.008591	-0.693571
N134	N	-0.009361	-0.508591	-0.193571
N135	N	-0.562504	-1.033638	-0.650355
N136	N	-0.062504	-0.533638	-0.150355
H137	H	-0.600981	-0.995568	-0.622606
H138	H	-0.100981	-0.495568	-0.122606
H139	H	-0.304869	-1.211016	-0.692397
H140	H	0.195131	-0.711016	-0.192397
N141	N	-0.877314	-1.191533	-0.321195
N142	N	-0.377314	-0.691533	0.178805
N143	N	-0.886877	-1.263523	-0.326901
N144	N	-0.386877	-0.763523	0.173099
H145	H	-0.855383	-1.301214	-0.289235
H146	H	-0.355383	-0.801214	0.210765
N147	N	-0.509333	-0.401081	-0.300856
N148	N	-0.009333	0.098919	0.199144
N149	N	-0.562503	-0.352795	-0.330923
N150	N	-0.062503	0.147205	0.169077
H151	H	-0.600919	-0.321354	-0.296482
H152	H	-0.100919	0.178646	0.203518
N153	N	-0.293703	-1.222020	-1.101943
N154	N	0.206297	-0.722020	-0.601943
N155	N	-0.293686	-1.222026	-1.175137
N156	N	0.206314	-0.722026	-0.675137
H157	H	-0.255226	-1.260104	-1.202896
H158	H	0.244774	-0.760104	-0.702896
N159	N	-0.509281	-1.008595	-0.859293
N160	N	-0.009281	-0.508595	-0.359293
N161	N	-0.479914	-0.960005	-0.903634
N162	N	0.020086	-0.460005	-0.403634
H163	H	-0.518349	-0.921928	-0.935030
H164	H	-0.018349	-0.421928	-0.435030
N165	N	-0.509307	-0.566821	-0.300821
N166	N	-0.009307	-0.066821	0.199179
N167	N	-0.503678	-0.557908	-0.228130
N168	N	-0.003678	-0.057908	0.271870
H169	H	-0.542081	-0.585621	-0.193671
H170	H	-0.042081	-0.085621	0.306329
N171	N	-0.294004	-0.830079	-0.493874
N172	N	0.205996	-0.330079	0.006126
N173	N	-0.217069	-0.824611	-0.485122
N174	N	0.282931	-0.324611	0.014878
H175	H	-0.178638	-0.856031	-0.519566
H176	H	0.321362	-0.356031	-0.019566
N177	N	-0.294015	-0.664397	-0.493887
N178	N	0.205985	-0.164397	0.006113
N179	N	-0.299627	-0.673316	-0.566578
N180	N	0.200373	-0.173316	-0.066578
H181	H	-0.261196	-0.645628	-0.601030
H182	H	0.238804	-0.145628	-0.101030
N183	N	-0.509322	-0.653950	-0.300837
N184	N	-0.009322	-0.153950	0.199163
N185	N	-0.586257	-0.659416	-0.309586
N186	N	-0.086257	-0.159416	0.190414
H187	H	-0.624687	-0.627987	-0.275149
H188	H	-0.124687	-0.127987	0.224851
N189	N	-0.509291	-0.819658	-0.300804
N190	N	-0.009291	-0.319658	0.199196
N191	N	-0.556832	-0.780749	-0.258173
N192	N	-0.056832	-0.280749	0.241827
H193	H	-0.595240	-0.808451	-0.223710
H194	H	-0.095240	-0.308451	0.276290
