data_functionalizedCrystal
_audit_creation_method	'MofGen! by Chris Wilmer'
_symmetry_space_group_name_H-M	'P1'
_symmetry_Int_Tables_number	1
_symmetry_cell_setting	triclinic
loop_
_symmetry_equiv_pos_as_xyz
  x,y,z
_cell_length_a	12.827893
_cell_length_b	15.299816
_cell_length_c	12.827893
_cell_angle_alpha	80.323950
_cell_angle_beta	90.003977
_cell_angle_gamma	80.350679
loop_
_atom_site_label
_atom_site_type_symbol
_atom_site_fract_x
_atom_site_fract_y
_atom_site_fract_z
Zn1	Zn	1.669447	-0.359233	0.662920
Zn2	Zn	2.169447	0.140767	1.162920
Zn3	Zn	1.699583	-0.510025	0.518433
Zn4	Zn	2.199583	-0.010025	1.018433
Zn5	Zn	1.494732	-0.359218	0.488191
Zn6	Zn	1.994732	0.140782	0.988191
Zn7	Zn	1.524867	-0.510018	0.693131
Zn8	Zn	2.024867	-0.010018	1.193131
O9	O	1.597157	-0.434623	0.590669
O10	O	2.097157	0.065377	1.090669
O11	O	1.819682	-0.379245	0.643766
O12	O	2.319682	0.120755	1.143766
O13	O	1.672409	-0.490017	0.368185
O14	O	2.172409	0.009983	0.868185
O15	O	1.492684	-0.233003	0.486069
O16	O	1.992684	0.266997	0.986069
O17	O	1.841823	-0.490031	0.537613
O18	O	2.341823	0.009969	1.037613
O19	O	1.621046	-0.233014	0.614441
O20	O	2.121046	0.266986	1.114441
O21	O	1.521906	-0.379220	0.345966
O22	O	2.021906	0.120780	0.845966
O23	O	1.352491	-0.379213	0.515364
O24	O	1.852491	0.120787	1.015364
O25	O	1.544046	-0.490019	0.835360
O26	O	2.044046	0.009981	1.335360
O27	O	1.374632	-0.490004	0.665933
O28	O	1.874632	0.009996	1.165933
O29	O	1.650268	-0.379238	0.813164
O30	O	2.150268	0.120762	1.313164
O31	O	1.701630	-0.636241	0.566907
O32	O	2.201630	-0.136241	1.066907
O33	O	1.573268	-0.636236	0.695258
O34	O	2.073268	-0.136236	1.195258
C35	C	1.325644	-0.434607	0.590646
C36	C	1.825644	0.065393	1.090646
C37	C	1.209494	-0.434621	0.590665
C38	C	1.709494	0.065379	1.090665
C39	C	1.146772	-0.379898	0.643312
C40	C	1.646772	0.120102	1.143312
C41	C	1.026725	-0.379912	0.643333
C42	C	1.526725	0.120088	1.143333
C43	C	1.644018	-0.668965	0.637665
C44	C	2.144018	-0.168965	1.137665
C45	C	1.664160	-0.769217	0.657806
C46	C	2.164160	-0.269217	1.157806
C47	C	1.453879	-1.052088	0.447078
C48	C	1.953879	-0.552088	0.947078
C49	C	1.434949	-0.957896	0.428158
C50	C	1.934949	-0.457896	0.928158
C51	C	1.492250	-0.910721	0.485568
C52	C	1.992250	-0.410721	0.985568
C53	C	1.568485	-0.957748	0.561902
C54	C	2.068485	-0.457748	1.061902
C55	C	1.587411	-1.051950	0.580830
C56	C	2.087411	-0.551950	1.080830
C57	C	1.625782	-0.910583	0.619320
C58	C	2.125782	-0.410583	1.119320
C59	C	1.702017	-0.957610	0.695654
C60	C	2.202017	-0.457610	1.195654
C61	C	1.720941	-1.051802	0.714578
C62	C	2.220941	-0.551802	1.214578
C63	C	1.663639	-1.098977	0.657168
C64	C	2.163639	-0.598977	1.157168
C65	C	1.606856	-0.816382	0.600392
C66	C	2.106856	-0.316382	1.100392
C67	C	1.740388	-0.816244	0.734144
C68	C	2.240388	-0.316244	1.234144
C69	C	1.759319	-0.910436	0.753064
C70	C	2.259319	-0.410436	1.253064
C71	C	1.869731	-0.434641	0.590693
C72	C	2.369731	0.065359	1.090693
C73	C	1.985885	-0.434648	0.590703
C74	C	2.485885	0.065352	1.090703
C75	C	1.597157	-0.434629	0.863240
C76	C	2.097157	0.065371	1.363240
C77	C	1.597156	-0.434632	0.979394
C78	C	2.097156	0.065368	1.479394
C79	C	1.550142	-0.199367	0.543511
C80	C	2.050142	0.300633	1.043511
C81	C	1.530107	-0.099115	0.523416
C82	C	2.030107	0.400885	1.023416
C83	C	1.522690	-0.379813	1.020185
C84	C	2.022690	0.120187	1.520185
C85	C	1.522688	-0.379814	1.140236
C86	C	2.022688	0.120186	1.640236
C87	C	1.597154	-0.434638	1.319162
C88	C	2.097154	0.065362	1.819162
C89	C	1.597154	-0.434635	1.203008
C90	C	2.097154	0.065365	1.703008
H91	H	1.476834	-0.834026	0.470157
H92	H	1.976834	-0.334026	0.970157
H93	H	1.821389	-0.948739	0.815217
H94	H	2.321389	-0.448739	1.315217
O95	O	1.057267	-0.496710	0.530991
O96	O	1.557267	0.003290	1.030991
H97	H	1.009083	-0.536810	0.492446
H98	H	1.509083	-0.036810	0.992446
H99	H	1.660907	-0.481566	1.033348
H100	H	2.160907	0.018434	1.533348
H101	H	1.181948	-0.333034	0.688364
H102	H	1.681948	0.166966	1.188364
O103	O	0.955344	-0.317842	0.703035
O104	O	1.455344	0.182158	1.203035
H105	H	0.872254	-0.327586	0.693673
H106	H	1.372254	0.172414	1.193673
O107	O	1.438246	-0.317636	1.186754
O108	O	1.938246	0.182364	1.686754
H109	H	1.359292	-0.333072	1.168956
H110	H	1.859292	0.166928	1.668956
O111	O	1.162915	-0.496695	0.530969
O112	O	1.662915	0.003305	1.030969
H113	H	1.122390	-0.542621	0.586913
H114	H	1.622390	-0.042621	1.086913
H115	H	1.458935	-0.332883	0.966232
H116	H	1.958935	0.167117	1.466232
O117	O	1.524650	-0.765669	0.518050
O118	O	2.024650	-0.265669	1.018050
H119	H	1.446263	-0.783808	0.539537
H120	H	1.946263	-0.283808	1.039537
O121	O	1.352747	-0.907173	0.345817
O122	O	1.852747	-0.407173	0.845817
H123	H	1.316093	-0.955798	0.309064
H124	H	1.816093	-0.455798	0.809064
O125	O	1.392092	-1.102964	0.385150
O126	O	1.892092	-0.602964	0.885150
H127	H	1.418070	-1.176364	0.411130
H128	H	1.918070	-0.676364	0.911130
O129	O	1.681617	-0.496800	1.156497
O130	O	2.181617	0.003200	1.656497
H131	H	1.736171	-0.536950	1.220746
H132	H	2.236171	-0.036950	1.720746
H133	H	1.679052	-1.175676	0.672565
H134	H	2.179052	-0.675676	1.172565
O135	O	1.803156	-1.102530	0.796915
O136	O	2.303156	-0.602530	1.296915
H137	H	1.839828	-1.053906	0.833652
H138	H	2.339828	-0.553906	1.333652
O139	O	1.802207	-0.765378	0.796068
O140	O	2.302207	-0.265378	1.296068
H141	H	1.776249	-0.691977	0.770073
H142	H	2.276249	-0.191977	1.270073
