data_functionalizedCrystal
_audit_creation_method	'MofGen! by Chris Wilmer'
_symmetry_space_group_name_H-M	'P1'
_symmetry_Int_Tables_number	1
_symmetry_cell_setting	triclinic
loop_
_symmetry_equiv_pos_as_xyz
  x,y,z
_cell_length_a	14.044220
_cell_length_b	14.044191
_cell_length_c	7.540329
_cell_angle_alpha	89.999427
_cell_angle_beta	90.002479
_cell_angle_gamma	86.809673
loop_
_atom_site_label
_atom_site_type_symbol
_atom_site_fract_x
_atom_site_fract_y
_atom_site_fract_z
O1	O	-0.230198	1.277170	-0.147388
O2	O	0.269802	1.777170	0.352612
O3	O	-0.221886	1.000498	-0.147411
O4	O	0.278114	1.500498	0.352589
O5	O	-0.087706	1.134681	-0.147392
O6	O	0.412294	1.634681	0.352608
O7	O	-0.364378	1.142987	-0.147407
O8	O	0.135622	1.642987	0.352593
O9	O	-0.087704	1.134672	0.147573
O10	O	0.412296	1.634672	0.647573
O11	O	-0.221883	1.000489	0.147554
O12	O	0.278117	1.500489	0.647554
O13	O	-0.230196	1.277162	0.147577
O14	O	0.269804	1.777162	0.647577
Cu15	Cu	-0.226039	1.138824	0.174498
Cu16	Cu	0.273961	1.638824	0.674498
Cu17	Cu	-0.226042	1.138835	-0.174332
Cu18	Cu	0.273958	1.638835	0.325668
O19	O	-0.364375	1.142978	0.147558
O20	O	0.135625	1.642978	0.647558
C21	C	-0.218248	0.964872	0.000068
C22	C	0.281752	1.464872	0.500068
C23	C	-0.207401	0.858728	0.000060
C24	C	0.292599	1.358728	0.500060
C25	C	-0.264501	0.613270	0.000074
C26	C	0.235499	1.113270	0.500074
C27	C	-0.187585	0.664395	0.000075
C28	C	0.312415	1.164395	0.500075
C29	C	-0.198613	0.772532	0.000067
C30	C	0.301387	1.272532	0.500067
C31	C	-0.253474	0.505123	0.000083
C32	C	0.246526	1.005123	0.500083
C33	C	-0.399998	1.146618	0.000073
C34	C	0.100002	1.646618	0.500073
C35	C	-0.506142	1.157463	0.000068
C36	C	-0.006142	1.657463	0.500068
C37	C	-0.700480	1.177289	0.000077
C38	C	-0.200480	1.677289	0.500077
C39	C	-0.751608	1.100375	0.000073
C40	C	-0.251608	1.600375	0.500073
C41	C	-0.859744	1.111406	0.000078
C42	C	-0.359744	1.611406	0.500078
C43	C	-0.592333	1.166259	0.000072
C44	C	-0.092333	1.666259	0.500072
C45	C	-0.052083	1.131041	0.000088
C46	C	0.447917	1.631041	0.500088
C47	C	0.054060	1.120197	0.000082
C48	C	0.554060	1.620197	0.500082
C49	C	-0.233834	1.312788	0.000093
C50	C	0.266166	1.812788	0.500093
C51	C	-0.244681	1.418931	0.000090
C52	C	0.255319	1.918931	0.500090
N53	N	-0.226037	1.138824	0.419846
N54	N	0.273963	1.638824	0.919846
N55	N	-0.226037	1.138842	-0.419681
N56	N	0.273963	1.638842	0.080319
H57	H	-0.113452	0.626952	-0.000045
H58	H	0.386548	1.126952	0.499955
N59	N	-0.750064	1.275484	0.000120
N60	N	-0.250064	1.775484	0.500120
H61	H	-0.821404	1.269543	0.000136
H62	H	-0.321404	1.769543	0.500136
H63	H	-0.730924	1.311276	0.109486
H64	H	-0.230924	1.811276	0.609486
N65	N	-0.362694	0.662858	0.000058
N66	N	0.137306	1.162858	0.500058
H67	H	-0.356751	0.734197	0.000048
H68	H	0.143249	1.234197	0.500048
H69	H	-0.398501	0.643726	-0.109297
H70	H	0.101499	1.143726	0.390703
N71	N	-0.702023	1.002173	0.000063
N72	N	-0.202023	1.502173	0.500063
H73	H	-0.630682	1.008107	0.000065
H74	H	-0.130682	1.508107	0.500065
H75	H	-0.721153	0.966363	0.109414
H76	H	-0.221153	1.466363	0.609414
