data_functionalizedCrystal
_audit_creation_method	'MofGen! by Chris Wilmer'
_symmetry_space_group_name_H-M	'P1'
_symmetry_Int_Tables_number	1
_symmetry_cell_setting	triclinic
loop_
_symmetry_equiv_pos_as_xyz
  x,y,z
_cell_length_a	10.654550
_cell_length_b	15.944551
_cell_length_c	9.130313
_cell_angle_alpha	89.997799
_cell_angle_beta	89.996220
_cell_angle_gamma	83.991820
loop_
_atom_site_label
_atom_site_type_symbol
_atom_site_fract_x
_atom_site_fract_y
_atom_site_fract_z
O1	O	1.666308	0.117973	-0.121923
O2	O	1.300684	0.129213	-0.121900
O3	O	1.493480	0.001376	-0.121899
O4	O	1.473511	0.245810	-0.121924
O5	O	1.493478	0.001379	0.121700
O6	O	1.300681	0.129216	0.121699
O7	O	1.666305	0.117976	0.121676
Cu8	Cu	1.483493	0.123596	0.143930
Cu9	Cu	1.483496	0.123592	-0.144154
O10	O	1.473509	0.245813	0.121675
C11	C	1.253895	0.128389	-0.000098
C12	C	1.114484	0.125920	-0.000088
C13	C	1.034024	0.201188	-0.000117
C14	C	0.903034	0.198863	-0.000142
C15	C	0.932975	0.045995	-0.000116
C16	C	1.063963	0.048321	-0.000080
C17	C	1.016737	0.289446	-0.000139
C18	C	0.885746	0.287121	-0.000164
C19	C	1.492650	-0.029921	-0.000099
C20	C	1.490165	-0.123182	-0.000098
C21	C	1.364720	-0.338765	-0.000111
C22	C	1.422971	-0.399443	0.119995
C23	C	1.485668	-0.293934	-0.000109
C24	C	1.423002	-0.399430	-0.120175
C25	C	1.481317	-0.458872	-0.000126
C26	C	1.543953	-0.353384	0.120095
C27	C	1.543967	-0.353364	-0.120182
C28	C	1.602306	-0.414024	-0.000048
C29	C	1.488172	-0.198917	-0.000098
C30	C	1.478822	-0.553887	-0.000127
C31	C	1.713094	0.118800	-0.000130
C32	C	1.852505	0.121269	-0.000149
C33	C	1.474339	0.277110	-0.000128
C34	C	1.476824	0.370371	-0.000139
N35	N	1.483500	0.123599	0.346552
N36	N	1.483499	0.123583	-0.346777
C37	C	1.568892	0.067012	0.423205
C38	C	1.568889	0.067002	0.576542
C39	C	1.398098	0.180173	0.576560
C40	C	1.398096	0.180178	0.423226
C41	C	1.667501	0.001676	0.423195
C42	C	1.667498	0.001666	0.576532
H43	H	1.129470	-0.012970	-0.000035
H44	H	1.371814	-0.419846	0.221540
C45	C	1.055765	0.336085	0.137566
H46	H	0.982928	0.353679	0.194186
H47	H	1.095929	0.384011	0.109242
H48	H	1.112503	0.299329	0.194239
C49	C	1.304158	0.242418	0.338913
H50	H	1.253306	0.276117	0.406541
H51	H	1.251890	0.211876	0.279099
H52	H	1.349331	0.277675	0.279098
H53	H	1.595065	-0.333096	0.221746
H54	H	1.702787	-0.446602	0.000014
C55	C	0.877397	-0.039357	-0.000121
H56	H	0.787861	-0.029964	-0.000155
H57	H	0.904995	-0.070382	0.084833
H58	H	0.905035	-0.070379	-0.085074
C59	C	1.064423	0.327415	-0.142207
H60	H	0.995016	0.342718	-0.205495
H61	H	1.122568	0.286930	-0.189396
H62	H	1.105090	0.376035	-0.119375
C63	C	0.823570	0.323154	0.141895
H64	H	0.886523	0.340815	0.205173
H65	H	0.781635	0.280896	0.189102
H66	H	0.764204	0.369995	0.119046
C67	C	1.613013	-0.325762	-0.257364
H68	H	1.569917	-0.341355	-0.342622
H69	H	1.696939	-0.352572	-0.258234
H70	H	1.614748	-0.266319	-0.255886
H71	H	1.763823	0.016057	0.618141
H72	H	0.843584	0.320373	-0.102121
C73	C	1.229106	-0.294547	0.000056
H74	H	1.186334	-0.310216	0.085506
H75	H	1.185709	-0.310971	-0.084398
H76	H	1.231618	-0.235166	-0.000806
H77	H	1.371831	-0.419804	-0.221721
C78	C	1.304168	0.242410	0.660906
H79	H	1.316402	0.234306	0.763205
H80	H	1.220360	0.232768	0.635780
H81	H	1.317814	0.298559	0.635780
H82	H	1.646893	-0.062886	0.381583
C83	C	1.790324	0.029303	0.358925
H84	H	1.845023	0.041598	0.436410
H85	H	1.771180	0.078214	0.300364
H86	H	1.830556	-0.014872	0.300367
H87	H	1.637774	-0.059344	0.624087
