data_functionalizedCrystal
_audit_creation_method	'MofGen! by Chris Wilmer'
_symmetry_space_group_name_H-M	'P1'
_symmetry_Int_Tables_number	1
_symmetry_cell_setting	triclinic
loop_
_symmetry_equiv_pos_as_xyz
  x,y,z
_cell_length_a	16.959455
_cell_length_b	16.120484
_cell_length_c	16.959447
_cell_angle_alpha	92.866538
_cell_angle_beta	89.985678
_cell_angle_gamma	92.922454
loop_
_atom_site_label
_atom_site_type_symbol
_atom_site_fract_x
_atom_site_fract_y
_atom_site_fract_z
Zn1	Zn	1.192394	-0.331957	-0.462851
Zn2	Zn	1.185600	-0.471386	-0.337369
Zn3	Zn	1.060221	-0.331984	-0.330690
Zn4	Zn	1.053474	-0.471323	-0.469504
O5	O	1.122922	-0.401662	-0.400103
O6	O	1.302103	-0.350468	-0.446216
O7	O	1.168949	-0.452931	-0.225874
O8	O	1.083421	-0.215315	-0.342642
O9	O	1.297112	-0.452905	-0.354025
O10	O	1.180528	-0.215296	-0.439740
O11	O	1.076833	-0.350513	-0.220967
O12	O	0.948716	-0.350452	-0.349093
O13	O	1.071921	-0.452799	-0.579231
O14	O	0.943759	-0.452824	-0.451079
O15	O	1.173985	-0.350408	-0.574343
O16	O	1.162407	-0.588043	-0.360476
O17	O	1.065334	-0.587997	-0.457556
C18	C	0.917557	-0.401635	-0.400084
C19	C	0.829700	-0.401643	-0.400095
C20	C	0.460783	-0.348314	-0.347103
C21	C	0.455662	-0.455080	-0.453153
C22	C	0.538208	-0.455068	-0.453147
C23	C	0.582046	-0.401679	-0.400118
C24	C	0.543337	-0.348302	-0.347094
C25	C	0.576923	-0.508450	-0.506165
C26	C	0.659474	-0.508441	-0.506161
C27	C	0.703314	-0.455047	-0.453135
C28	C	0.664600	-0.401667	-0.400109
C29	C	0.708437	-0.348278	-0.347080
C30	C	0.669725	-0.294893	-0.294058
C31	C	0.587176	-0.294908	-0.294068
C32	C	0.785863	-0.455032	-0.453125
C33	C	0.790991	-0.348266	-0.347071
C34	C	1.112422	-0.618270	-0.410480
C35	C	1.108003	-0.710935	-0.414945
C36	C	1.099938	-0.880596	-0.423114
C37	C	1.146048	-0.921888	-0.377106
C38	C	1.141561	-1.016293	-0.381651
C39	C	1.104424	-0.786182	-0.418570
C40	C	1.329089	-0.401691	-0.400123
C41	C	1.416945	-0.401703	-0.400132
C42	C	1.122959	-0.401593	-0.606268
C43	C	1.122974	-0.401564	-0.694124
C44	C	1.133485	-0.184209	-0.389704
C45	C	1.137986	-0.091544	-0.385272
C46	C	1.069933	-0.454787	-1.068143
C47	C	1.176213	-0.348166	-1.063048
C48	C	1.176191	-0.348183	-0.980503
C49	C	1.123040	-0.401504	-0.941774
C50	C	1.069911	-0.454808	-0.985590
C51	C	1.229324	-0.294887	-0.936681
C52	C	1.229305	-0.294903	-0.854130
C53	C	1.176150	-0.348221	-0.815400
C54	C	1.123018	-0.401525	-0.859221
C55	C	1.069867	-0.454846	-0.820492
C56	C	1.016731	-0.508148	-0.864312
C57	C	1.016755	-0.508125	-0.946860
C58	C	1.176125	-0.348243	-0.732853
C59	C	1.069845	-0.454867	-0.737940
C60	C	1.122935	-0.401671	-0.194738
C61	C	1.123084	-0.401466	-0.106872
H62	H	0.826679	-0.304784	-0.303892
O63	O	1.197047	-0.879449	-0.325948
C64	C	1.212319	-0.781055	-0.214621
C65	C	1.154481	-0.829083	-0.272493
H66	H	1.177929	-0.740309	-0.171399
H67	H	1.246315	-0.827002	-0.180633
H68	H	1.255546	-0.740254	-0.249031
H69	H	1.111206	-0.869886	-0.238144
H70	H	1.120543	-0.783091	-0.306482
O71	O	1.048928	-0.923090	-0.474214
C72	C	1.033637	-1.021427	-0.585584
C73	C	1.091493	-0.973355	-0.527759
H74	H	1.068029	-1.062064	-0.628901
H75	H	0.990444	-1.062316	-0.551221
H76	H	0.999602	-0.975434	-0.619474
H77	H	1.125581	-1.019288	-0.493855
H78	H	1.134634	-0.932453	-0.562167
O79	O	1.018188	-0.506748	-0.700448
C80	C	0.912748	-0.612473	-0.714212
C81	C	0.971216	-0.553772	-0.756772
H82	H	0.874745	-0.650494	-0.759730
H83	H	0.946875	-0.656138	-0.677678
H84	H	0.873301	-0.574195	-0.673709
H85	H	1.010677	-0.591983	-0.797315
H86	H	0.937040	-0.510105	-0.793256
H87	H	0.541224	-0.551923	-0.549333
O88	O	0.696952	-0.560318	-0.557744
C89	C	0.683152	-0.666251	-0.662904
C90	C	0.640608	-0.607532	-0.604539
H91	H	0.637616	-0.704452	-0.700742
H92	H	0.723634	-0.628061	-0.702515
H93	H	0.719711	-0.709755	-0.628618
H94	H	0.604007	-0.564017	-0.638761
H95	H	0.600174	-0.645775	-0.564928
H96	H	0.973458	-0.551565	-0.832769
H97	H	0.419964	-0.498552	-0.496322
H98	H	0.555649	-0.251446	-0.250899
O99	O	1.280943	-0.243046	-0.811686
C100	C	1.386391	-0.137321	-0.815353
C101	C	1.327944	-0.195995	-0.863518
H102	H	1.424418	-0.099278	-0.857239
H103	H	1.352247	-0.093675	-0.774648
H104	H	1.425817	-0.175622	-0.778509
H105	H	1.288504	-0.157761	-0.900408
H106	H	1.362138	-0.239643	-0.904174
H107	H	0.973497	-0.551523	-0.982545
O108	O	1.018394	-0.506535	-1.110824
C109	C	0.971281	-0.553719	-1.240245
C110	C	1.029703	-0.495087	-1.192006
H111	H	0.980392	-0.544471	-1.305889
H112	H	0.981892	-0.620969	-1.227287
H113	H	0.908262	-0.539082	-1.223263
H114	H	1.092744	-0.509649	-1.208960
H115	H	1.019023	-0.427855	-1.204969
H116	H	1.219490	-0.304759	-1.094586
O117	O	1.280883	-0.243129	-0.974424
C118	C	1.328056	-0.195896	-1.099344
C119	C	1.269607	-0.254539	-1.056695
H120	H	1.318971	-0.205113	-1.165867
H121	H	1.317449	-0.128651	-1.079965
H122	H	1.391065	-0.210552	-1.083766
H123	H	1.206575	-0.239959	-1.072252
H124	H	1.280283	-0.321766	-1.076076
O125	O	0.712433	-0.243060	-0.242621
C126	C	0.841882	-0.195779	-0.195579
C127	C	0.793609	-0.254505	-0.253884
H128	H	0.907521	-0.205024	-0.204654
H129	H	0.828973	-0.128554	-0.206347
H130	H	0.824878	-0.210325	-0.132527
H131	H	0.810584	-0.240033	-0.316958
H132	H	0.806522	-0.321712	-0.243047
O133	O	1.227764	-0.296395	-0.690405
C134	C	1.333223	-0.190683	-0.694070
C135	C	1.274769	-0.249348	-0.742236
H136	H	1.371253	-0.152642	-0.735955
H137	H	1.299084	-0.147034	-0.653362
H138	H	1.372645	-0.228990	-0.657228
H139	H	1.235333	-0.211107	-0.779124
H140	H	1.308957	-0.292999	-0.782894
O141	O	0.423141	-0.296577	-0.295521
C142	C	0.330415	-0.285223	-0.188320
C143	C	0.373004	-0.343909	-0.246678
H144	H	0.289857	-0.323466	-0.148827
H145	H	0.375892	-0.247079	-0.150361
H146	H	0.293924	-0.241664	-0.222613
H147	H	0.409494	-0.387518	-0.212448
H148	H	0.327487	-0.381995	-0.284637
H149	H	0.817378	-0.498500	-0.496292
