data_functionalizedCrystal
_audit_creation_method	'MofGen! by Chris Wilmer'
_symmetry_space_group_name_H-M	'P1'
_symmetry_Int_Tables_number	1
_symmetry_cell_setting	triclinic
loop_
_symmetry_equiv_pos_as_xyz
  x,y,z
_cell_length_a	17.038272
_cell_length_b	17.019294
_cell_length_c	15.500227
_cell_angle_alpha	88.951630
_cell_angle_beta	86.956295
_cell_angle_gamma	87.244363
loop_
_atom_site_label
_atom_site_type_symbol
_atom_site_fract_x
_atom_site_fract_y
_atom_site_fract_z
O1	O	1.041486	0.167282	-0.084296
O2	O	0.813849	0.164571	-0.084119
O3	O	0.933587	0.051923	-0.075710
O4	O	0.921748	0.279929	-0.092705
O5	O	0.926321	0.058730	0.067671
O6	O	0.806583	0.171378	0.059261
O7	O	1.034220	0.174089	0.059085
Cu8	Cu	0.919738	0.173355	0.072265
Cu9	Cu	0.928331	0.165305	-0.097299
O10	O	0.914481	0.286736	0.050675
C11	C	0.781081	0.165509	-0.012249
C12	C	0.694267	0.158154	-0.011710
C13	C	0.929362	0.026009	-0.001836
C14	C	0.927588	-0.061349	0.004669
C15	C	0.644349	0.225676	-0.016743
C16	C	0.562778	0.218761	-0.016215
C17	C	0.531126	0.144325	-0.010662
C18	C	0.581050	0.076799	-0.005626
C19	C	0.662619	0.083714	-0.006148
C20	C	0.285296	0.119894	-0.008818
C21	C	0.203720	0.112984	-0.008299
C22	C	0.185454	0.254947	-0.018887
C23	C	0.267026	0.261856	-0.019413
C24	C	0.316942	0.194330	-0.014373
C25	C	0.447747	0.137255	-0.010125
C26	C	0.400319	0.201400	-0.014903
C27	C	0.930718	-0.106096	-0.070430
C28	C	0.929046	-0.188178	-0.064315
C29	C	0.924250	-0.225512	0.016901
C30	C	0.921118	-0.180759	0.092006
C31	C	0.922785	-0.098678	0.085890
C32	C	0.919016	-0.473157	0.039278
C33	C	0.917352	-0.555244	0.045388
C34	C	0.925278	-0.562658	-0.110934
C35	C	0.926948	-0.480576	-0.117043
C36	C	0.923812	-0.435829	-0.041937
C37	C	0.922544	-0.309413	0.023154
C38	C	0.925513	-0.351929	-0.048191
C39	C	1.066988	0.173151	-0.012788
C40	C	1.153803	0.180505	-0.013332
C41	C	0.918707	0.312651	-0.023200
C42	C	0.920481	0.400009	-0.029711
N43	N	0.913700	0.179017	0.191527
N44	N	0.934375	0.159637	-0.216561
C45	C	0.964455	0.131304	0.240366
C46	C	0.959896	0.135594	0.330618
C47	C	0.904584	0.187601	0.372030
C48	C	0.853824	0.235315	0.323185
C49	C	0.858380	0.231021	0.232935
C50	C	0.888171	0.203057	0.644343
C51	C	0.883620	0.207350	0.734600
C52	C	0.989692	0.107627	0.742027
C53	C	0.994246	0.103341	0.651774
C54	C	0.943483	0.151052	0.602937
C55	C	0.899924	0.191989	0.464283
C56	C	0.948140	0.146660	0.510687
H57	H	0.670113	0.286290	-0.021266
N58	N	0.932278	-0.233880	-0.141034
N59	N	0.987312	-0.284059	-0.154779
H60	H	0.989603	-0.316334	-0.208968
H61	H	0.927829	-0.599099	-0.172080
H62	H	0.522138	0.273744	-0.020314
H63	H	0.426093	0.262007	-0.019420
N64	N	0.915834	-0.427456	0.115992
N65	N	0.970948	-0.384388	0.130290
H66	H	0.968703	-0.352107	0.184473
H67	H	0.930854	-0.450184	-0.183177
N68	N	0.912448	-0.593368	0.128360
N69	N	0.909644	-0.553408	0.195411
H70	H	0.906179	-0.580333	0.254008
H71	H	0.555272	0.016191	-0.001092
H72	H	0.817049	0.269873	0.193171
N73	N	0.299342	0.337897	-0.025097
N74	N	0.254764	0.398179	-0.029595
H75	H	0.277587	0.451885	-0.033616
N76	N	0.916223	-0.218879	0.174974
N77	N	0.913428	-0.178914	0.242021
H78	H	0.909971	-0.205834	0.300620
H79	H	1.001224	0.096742	0.370383
N80	N	1.004598	0.093487	0.468407
N81	N	1.049886	0.050856	0.512020
H82	H	1.089744	0.013283	0.482156
H83	H	0.920226	-0.062245	0.147045
H84	H	0.846839	0.241908	0.604587
H85	H	0.703262	0.028731	-0.002050
H86	H	0.929412	-0.321528	-0.114317
N87	N	0.336266	0.050912	-0.003673
N88	N	0.307992	-0.015542	0.001280
H89	H	0.343992	-0.064265	0.004912
N90	N	0.415412	0.061223	-0.004444
N91	N	0.368880	0.044400	0.057468
H92	H	0.346041	-0.009298	0.061484
N93	N	0.843420	0.245102	0.506590
N94	N	0.792278	0.219278	0.559063
H95	H	0.752369	0.256787	0.588947
N96	N	0.134454	0.323911	-0.024035
N97	N	0.061626	0.317731	-0.023570
H98	H	0.025606	0.366439	-0.027204
N99	N	1.041536	0.058899	0.791926
N100	N	1.037464	0.062738	0.872506
H101	H	1.074079	0.028321	0.907749
H102	H	0.934627	-0.075706	-0.136565
H103	H	0.918642	-0.339820	0.089280
N104	N	1.020918	0.078131	0.198086
N105	N	1.066198	0.035500	0.241709
H106	H	1.106058	-0.002076	0.211853
N107	N	1.050884	0.050356	0.609479
N108	N	1.096286	0.007853	0.653089
H109	H	1.136339	-0.029514	0.623215
H110	H	0.838577	0.249703	0.768313
N111	N	0.797323	0.288429	0.365498
N112	N	0.793261	0.292257	0.446078
H113	H	0.753357	0.329771	0.475961
H114	H	0.177953	0.052366	-0.003778
