data_functionalizedCrystal
_audit_creation_method	'MofGen! by Chris Wilmer'
_symmetry_space_group_name_H-M	'P1'
_symmetry_Int_Tables_number	1
_symmetry_cell_setting	triclinic
loop_
_symmetry_equiv_pos_as_xyz
  x,y,z
_cell_length_a	16.956985
_cell_length_b	16.053789
_cell_length_c	16.992695
_cell_angle_alpha	87.278479
_cell_angle_beta	83.360706
_cell_angle_gamma	86.948975
loop_
_atom_site_label
_atom_site_type_symbol
_atom_site_fract_x
_atom_site_fract_y
_atom_site_fract_z
O1	O	-1.063276	0.069459	-0.035095
O2	O	-0.563276	0.569459	0.464905
O3	O	-0.832865	0.069455	-0.062511
O4	O	-0.332865	0.569455	0.437489
O5	O	-0.947147	0.069450	0.065280
O6	O	-0.447147	0.569450	0.565280
O7	O	-0.948995	0.069463	-0.162886
O8	O	-0.448995	0.569463	0.337114
O9	O	-0.940789	-0.069410	0.070768
O10	O	-0.440789	0.430590	0.570768
O11	O	-0.826507	-0.069405	-0.057023
O12	O	-0.326507	0.430595	0.442977
O13	O	-1.056918	-0.069401	-0.029607
O14	O	-0.556918	0.430599	0.470393
Zn15	Zn	-0.940703	-0.091450	-0.042444
Zn16	Zn	-0.440703	0.408550	0.457556
Zn17	Zn	-0.949080	0.091504	-0.049675
Zn18	Zn	-0.449080	0.591504	0.450325
O19	O	-0.942637	-0.069396	-0.157398
O20	O	-0.442637	0.430604	0.342602
C21	C	-0.800068	0.000024	-0.061171
C22	C	-0.300068	0.500024	0.438829
C23	C	-0.711813	0.000022	-0.065345
C24	C	-0.211813	0.500022	0.434655
N25	N	-0.934992	-0.216311	-0.037508
N26	N	-0.434992	0.283689	0.462492
C27	C	-0.675281	0.000016	0.004441
C28	C	-0.175281	0.500016	0.504441
C29	C	-0.592356	0.000020	0.000514
C30	C	-0.092356	0.500020	0.500514
C31	C	-0.545964	0.000025	-0.073199
C32	C	-0.045964	0.500025	0.426801
C33	C	-0.582502	0.000034	-0.142990
C34	C	-0.082502	0.500034	0.357010
C35	C	-0.665425	0.000035	-0.139063
C36	C	-0.165425	0.500035	0.360937
C37	C	-0.297431	0.000026	-0.092638
C38	C	0.202569	0.500026	0.407362
C39	C	-0.214501	0.000022	-0.096560
C40	C	0.285499	0.500022	0.403440
C41	C	-0.224362	0.000010	0.046944
C42	C	0.275638	0.500010	0.546944
C43	C	-0.307287	0.000006	0.050865
C44	C	0.192713	0.500006	0.550865
C45	C	-0.343817	0.000020	-0.018926
C46	C	0.156183	0.500020	0.481074
N47	N	-0.461202	0.000027	-0.077214
N48	N	0.038798	0.500027	0.422786
N49	N	-0.428578	0.000024	-0.014910
N50	N	0.071422	0.500024	0.485090
C51	C	-0.089716	0.000026	-0.030948
C52	C	0.410284	0.500026	0.469052
C53	C	-0.177970	0.000015	-0.026775
C54	C	0.322030	0.500015	0.473225
C55	C	-0.984175	-0.259998	-0.080049
C56	C	-0.484175	0.240002	0.419951
C57	C	-0.980190	-0.347405	-0.076591
C58	C	-0.480190	0.152595	0.423409
C59	C	-0.927018	-0.391124	-0.030595
C60	C	-0.427018	0.108876	0.469405
C61	C	-0.877833	-0.347431	0.011952
C62	C	-0.377833	0.152569	0.511952
C63	C	-0.881822	-0.260026	0.008497
C64	C	-0.381822	0.239974	0.508497
C65	C	-0.909602	-0.652536	-0.015512
C66	C	-0.409602	-0.152536	0.484488
C67	C	-0.905615	-0.739948	-0.012062
C68	C	-0.405615	-0.239948	0.487938
C69	C	-1.007973	-0.739916	-0.100604
C70	C	-0.507973	-0.239916	0.399396
C71	C	-1.011955	-0.652509	-0.104059
C72	C	-0.511955	-0.152509	0.395941
C73	C	-0.962773	-0.608823	-0.061509
C74	C	-0.462773	-0.108823	0.438491
N75	N	-0.922941	-0.480469	-0.027060
N76	N	-0.422941	0.019531	0.472940
N77	N	-0.966854	-0.519481	-0.065039
N78	N	-0.466854	-0.019481	0.434961
C79	C	-0.941591	0.000020	0.097082
C80	C	-0.441591	0.500020	0.597082
C81	C	-0.934501	0.000020	0.183667
C82	C	-0.434501	0.500020	0.683667
N83	N	-0.954798	0.216365	-0.054604
N84	N	-0.454798	0.716365	0.445396
C85	C	-0.948192	0.000035	-0.189201
C86	C	-0.448192	0.500035	0.310799
C87	C	-0.955283	0.000041	-0.275786
C88	C	-0.455283	0.500041	0.224214
C89	C	-1.002916	0.000021	0.238342
C90	C	-0.502916	0.500021	0.738342
C91	C	-0.996249	0.000029	0.319696
C92	C	-0.496249	0.500029	0.819696
C93	C	-0.921166	0.000030	0.346374
C94	C	-0.421166	0.500030	0.846374
C95	C	-0.852746	0.000032	0.291692
C96	C	-0.352746	0.500032	0.791692
C97	C	-0.859414	0.000030	0.210339
C98	C	-0.359414	0.500030	0.710339
C99	C	-0.893531	0.000041	0.588180
C100	C	-0.393531	0.500041	1.088180
C101	C	-0.886868	0.000040	0.669539
C102	C	-0.386868	0.500040	1.169539
C103	C	-1.030372	0.000038	0.697538
C104	C	-0.530372	0.500038	1.197538
C105	C	-1.037033	0.000032	0.616183
C106	C	-0.537033	0.500032	1.116183
C107	C	-0.968613	0.000038	0.561508
C108	C	-0.468613	0.500038	1.061508
N109	N	-0.914350	0.000035	0.429531
N110	N	-0.414350	0.500035	0.929531
N111	N	-0.975430	0.000039	0.478352
N112	N	-0.475430	0.500039	0.978352
H113	H	-0.713048	0.000009	0.064466
H114	H	-0.213048	0.500009	0.564466
H115	H	-1.027468	-0.224408	-0.117509
H116	H	-0.527468	0.275592	0.382491
Br117	Br	-1.046941	-0.406692	-0.134328
Br118	Br	-0.546941	0.093308	0.365672
H119	H	-1.064056	0.000015	0.216629
H120	H	-0.564056	0.500015	0.716629
H121	H	-0.327163	0.000042	-0.149467
H122	H	0.172837	0.500042	0.350533
Br123	Br	-1.084082	-0.593181	-0.166526
Br124	Br	-0.584082	-0.093181	0.333474
Br125	Br	-0.715005	0.000052	-0.233776
Br126	Br	-0.215005	0.500052	0.266224
H127	H	-0.803703	0.000030	0.165822
H128	H	-0.303703	0.500030	0.665822
H129	H	-0.562617	0.000016	0.057341
H130	H	-0.062617	0.500016	0.557341
H131	H	-0.345054	-0.000001	0.110890
H132	H	0.154946	0.499999	0.610890
Br133	Br	-1.074716	-0.799207	-0.158347
Br134	Br	-0.574716	-0.299207	0.341653
Br135	Br	-1.089102	0.000029	0.393896
Br136	Br	-0.589102	0.500029	0.893896
Br137	Br	-0.800675	0.000055	0.513988
Br138	Br	-0.300675	0.500055	1.013988
H139	H	-1.086075	0.000035	0.742063
H140	H	-0.586075	0.500035	1.242063
Br141	Br	-0.151540	0.000016	-0.196605
Br142	Br	0.348460	0.500016	0.303395
H143	H	-0.825723	0.000028	0.691256
H144	H	-0.325723	0.500028	1.191256
Br145	Br	-0.174781	-0.000006	0.141655
Br146	Br	0.325219	0.499994	0.641655
H147	H	-0.544723	0.000043	-0.203009
H148	H	-0.044723	0.500043	0.296991
Br149	Br	-0.833447	-0.799281	0.050364
Br150	Br	-0.333447	-0.299281	0.550364
Br151	Br	-0.750847	0.000048	0.327895
Br152	Br	-0.250847	0.500048	0.827895
Br153	Br	-0.815082	-0.200735	0.066247
Br154	Br	-0.315082	0.299265	0.566247
H155	H	-0.869555	-0.616978	0.019136
H156	H	-0.369555	-0.116978	0.519136
Br157	Br	-0.805673	-0.406763	0.074380
Br158	Br	-0.305673	0.093237	0.574380
H159	H	-1.098173	0.000030	0.594469
H160	H	-0.598173	0.500030	1.094469
