data_functionalizedCrystal
_audit_creation_method	'MofGen! by Chris Wilmer'
_symmetry_space_group_name_H-M	'P1'
_symmetry_Int_Tables_number	1
_symmetry_cell_setting	triclinic
loop_
_symmetry_equiv_pos_as_xyz
  x,y,z
_cell_length_a	21.295418
_cell_length_b	21.295420
_cell_length_c	21.295411
_cell_angle_alpha	90.025571
_cell_angle_beta	89.980044
_cell_angle_gamma	89.975185
loop_
_atom_site_label
_atom_site_type_symbol
_atom_site_fract_x
_atom_site_fract_y
_atom_site_fract_z
Zn1	Zn	-0.250724	-0.962369	-0.355936
Zn2	Zn	-0.000724	-0.712369	-0.105936
Zn3	Zn	0.249276	-0.462369	0.144064
Zn4	Zn	0.499276	-0.212369	0.394064
Zn5	Zn	-0.355976	-0.962277	-0.250664
Zn6	Zn	-0.105976	-0.712277	-0.000664
Zn7	Zn	0.144024	-0.462277	0.249336
Zn8	Zn	0.394024	-0.212277	0.499336
Zn9	Zn	-0.250720	-0.857092	-0.250679
Zn10	Zn	-0.000720	-0.607092	-0.000679
Zn11	Zn	0.249280	-0.357092	0.249321
Zn12	Zn	0.499280	-0.107092	0.499321
Zn13	Zn	-0.355955	-0.857067	-0.355894
Zn14	Zn	-0.105955	-0.607067	-0.105894
Zn15	Zn	0.144045	-0.357067	0.144106
Zn16	Zn	0.394045	-0.107067	0.394106
O17	O	-0.303344	-0.909701	-0.303293
O18	O	-0.053344	-0.659701	-0.053293
O19	O	0.196656	-0.409701	0.196707
O20	O	0.446656	-0.159701	0.446707
O21	O	-0.264697	-1.050446	-0.341983
O22	O	-0.014697	-0.800446	-0.091983
O23	O	0.235303	-0.550446	0.158017
O24	O	0.485303	-0.300446	0.408017
O25	O	-0.342021	-0.948296	-0.162577
O26	O	-0.092021	-0.698296	0.087423
O27	O	0.157979	-0.448296	0.337423
O28	O	0.407979	-0.198296	0.587423
O29	O	-0.162631	-0.871106	-0.264665
O30	O	0.087369	-0.621106	-0.014665
O31	O	0.337369	-0.371106	0.235335
O32	O	0.587369	-0.121106	0.485335
O33	O	-0.342025	-1.050379	-0.264640
O34	O	-0.092025	-0.800379	-0.014640
O35	O	0.157975	-0.550379	0.235360
O36	O	0.407975	-0.300379	0.485360
O37	O	-0.162634	-0.948453	-0.341997
O38	O	0.087366	-0.698453	-0.091997
O39	O	0.337366	-0.448453	0.158003
O40	O	0.587366	-0.198453	0.408003
O41	O	-0.264690	-0.871017	-0.162588
O42	O	-0.014690	-0.621017	0.087412
O43	O	0.235310	-0.371017	0.337412
O44	O	0.485310	-0.121017	0.587412
O45	O	-0.264669	-0.768999	-0.264625
O46	O	-0.014669	-0.518999	-0.014625
O47	O	0.235331	-0.268999	0.235375
O48	O	0.485331	-0.018999	0.485375
O49	O	-0.341989	-0.871064	-0.443989
O50	O	-0.091989	-0.621064	-0.193989
O51	O	0.158011	-0.371064	0.056011
O52	O	0.408011	-0.121064	0.306011
O53	O	-0.341985	-0.768981	-0.341926
O54	O	-0.091985	-0.518981	-0.091926
O55	O	0.158015	-0.268981	0.158074
O56	O	0.408015	-0.018981	0.408074
O57	O	-0.264676	-0.948428	-0.444020
O58	O	-0.014676	-0.698428	-0.194020
O59	O	0.235324	-0.448428	0.055980
O60	O	0.485324	-0.198428	0.305980
O61	O	-0.444063	-0.948272	-0.264600
O62	O	-0.194063	-0.698272	-0.014600
O63	O	0.055937	-0.448272	0.235400
O64	O	0.305937	-0.198272	0.485400
O65	O	-0.444047	-0.870975	-0.341912
O66	O	-0.194047	-0.620975	-0.091912
O67	O	0.055953	-0.370975	0.158088
O68	O	0.305953	-0.120975	0.408088
C69	C	-0.303324	-0.746150	-0.303273
C70	C	-0.053324	-0.496150	-0.053273
C71	C	0.196676	-0.246150	0.196727
C72	C	0.446676	0.003850	0.446727
C73	C	-0.303331	-0.676182	-0.303279
C74	C	-0.053331	-0.426182	-0.053279
C75	C	0.196669	-0.176182	0.196721
C76	C	0.446669	0.073818	0.446721
C77	C	-0.343665	-0.176731	-0.343494
C78	C	-0.093665	0.073269	-0.093494
C79	C	0.156335	0.323269	0.156506
C80	C	0.406335	0.573269	0.406506
C81	C	-0.343667	-0.242473	-0.343488
C82	C	-0.093667	0.007527	-0.093488
C83	C	0.156333	0.257527	0.156512
C84	C	0.406333	0.507527	0.406512
C85	C	-0.303349	-0.275342	-0.303303
C86	C	-0.053349	-0.025342	-0.053303
C87	C	0.196651	0.224658	0.196697
C88	C	0.446651	0.474658	0.446697
C89	C	-0.263038	-0.242463	-0.263110
C90	C	-0.013038	0.007537	-0.013110
C91	C	0.236962	0.257537	0.236890
C92	C	0.486962	0.507537	0.486890
C93	C	-0.263043	-0.176722	-0.263112
C94	C	-0.013043	0.073278	-0.013112
C95	C	0.236957	0.323278	0.236888
C96	C	0.486957	0.573278	0.486888
N97	N	-0.248233	-0.378580	-0.298571
N98	N	0.001767	-0.128580	-0.048571
N99	N	0.251767	0.121420	0.201429
N100	N	0.501767	0.371420	0.451429
N101	N	-0.248231	-0.441031	-0.298572
N102	N	0.001769	-0.191031	-0.048572
N103	N	0.251769	0.058969	0.201428
N104	N	0.501769	0.308969	0.451428
C105	C	-0.303334	-0.473417	-0.303293
C106	C	-0.053334	-0.223417	-0.053293
C107	C	0.196666	0.026583	0.196707
C108	C	0.446666	0.276583	0.446707
N109	N	-0.358441	-0.440992	-0.308025
N110	N	-0.108441	-0.190992	-0.058025
N111	N	0.141559	0.059008	0.191975
N112	N	0.391559	0.309008	0.441975
N113	N	-0.358443	-0.378535	-0.308026
N114	N	-0.108443	-0.128535	-0.058026
N115	N	0.141557	0.121465	0.191974
N116	N	0.391557	0.371465	0.441974
C117	C	-0.303340	-0.346628	-0.303296
C118	C	-0.053340	-0.096628	-0.053296
C119	C	0.196660	0.153372	0.196704
C120	C	0.446660	0.403372	0.446704
C121	C	-0.343646	-0.577573	-0.343475
C122	C	-0.093646	-0.327573	-0.093475
C123	C	0.156354	-0.077573	0.156525
C124	C	0.406354	0.172427	0.406525
C125	C	-0.343649	-0.643317	-0.343465
C126	C	-0.093649	-0.393317	-0.093465
C127	C	0.156351	-0.143317	0.156535
C128	C	0.406351	0.106683	0.406535
C129	C	-0.263015	-0.643306	-0.263090
C130	C	-0.013015	-0.393306	-0.013090
C131	C	0.236985	-0.143306	0.236910
C132	C	0.486985	0.106694	0.486910
C133	C	-0.263018	-0.577564	-0.263096
C134	C	-0.013018	-0.327564	-0.013096
C135	C	0.236982	-0.077564	0.236904
C136	C	0.486982	0.172436	0.486904
C137	C	-0.303333	-0.544701	-0.303292
C138	C	-0.053333	-0.294701	-0.053292
C139	C	0.196667	-0.044701	0.196708
C140	C	0.446667	0.205299	0.446708
C141	C	-0.466895	-0.909628	-0.303263
C142	C	-0.216895	-0.659628	-0.053263
C143	C	0.033105	-0.409628	0.196737
C144	C	0.283105	-0.159628	0.446737
C145	C	-0.536864	-0.909654	-0.303271
C146	C	-0.286864	-0.659654	-0.053271
C147	C	-0.036864	-0.409654	0.196729
C148	C	0.213136	-0.159654	0.446729
C149	C	-1.036309	-0.950101	-0.263138
C150	C	-0.786309	-0.700101	-0.013138
C151	C	-0.536309	-0.450101	0.236862
C152	C	-0.286309	-0.200101	0.486862
C153	C	-0.970566	-0.950077	-0.263124
C154	C	-0.720566	-0.700077	-0.013124
C155	C	-0.470566	-0.450077	0.236876
C156	C	-0.220566	-0.200077	0.486876
C157	C	-0.937703	-0.909790	-0.303337
C158	C	-0.687703	-0.659790	-0.053337
C159	C	-0.437703	-0.409790	0.196663
C160	C	-0.187703	-0.159790	0.446663
C161	C	-0.970588	-0.869512	-0.343558
C162	C	-0.720588	-0.619512	-0.093558
C163	C	-0.470588	-0.369512	0.156442
C164	C	-0.220588	-0.119512	0.406442
C165	C	-1.036329	-0.869533	-0.343567
C166	C	-0.786329	-0.619533	-0.093567
C167	C	-0.536329	-0.369533	0.156433
C168	C	-0.286329	-0.119533	0.406433
N169	N	-0.834460	-0.904901	-0.358420
N170	N	-0.584460	-0.654901	-0.108420
N171	N	-0.334460	-0.404901	0.141580
N172	N	-0.084460	-0.154901	0.391580
N173	N	-0.772008	-0.904885	-0.358410
N174	N	-0.522008	-0.654885	-0.108410
N175	N	-0.272008	-0.404885	0.141590
N176	N	-0.022008	-0.154885	0.391590
C177	C	-0.739628	-0.909724	-0.303311
C178	C	-0.489628	-0.659724	-0.053311
C179	C	-0.239628	-0.409724	0.196689
C180	C	0.010372	-0.159724	0.446689
N181	N	-0.772059	-0.914593	-0.248222
N182	N	-0.522059	-0.664593	0.001778
N183	N	-0.272059	-0.414593	0.251778
N184	N	-0.022059	-0.164593	0.501778
N185	N	-0.834516	-0.914612	-0.248233
N186	N	-0.584516	-0.664612	0.001767
N187	N	-0.334516	-0.414612	0.251767
N188	N	-0.084516	-0.164612	0.501767
C189	C	-0.866418	-0.909763	-0.303332
C190	C	-0.616418	-0.659763	-0.053332
C191	C	-0.366418	-0.409763	0.196668
C192	C	-0.116418	-0.159763	0.446668
C193	C	-0.635466	-0.949970	-0.263074
C194	C	-0.385466	-0.699970	-0.013074
C195	C	-0.135466	-0.449970	0.236926
C196	C	0.114534	-0.199970	0.486926
C197	C	-0.569722	-0.949942	-0.263058
C198	C	-0.319722	-0.699942	-0.013058
C199	C	-0.069722	-0.449942	0.236942
C200	C	0.180278	-0.199942	0.486942
C201	C	-0.569745	-0.869381	-0.343498
C202	C	-0.319745	-0.619381	-0.093498
C203	C	-0.069745	-0.369381	0.156502
C204	C	0.180255	-0.119381	0.406502
C205	C	-0.635487	-0.869406	-0.343508
C206	C	-0.385487	-0.619406	-0.093508
C207	C	-0.135487	-0.369406	0.156492
C208	C	0.114513	-0.119406	0.406492
C209	C	-0.668344	-0.909704	-0.303297
C210	C	-0.418344	-0.659704	-0.053297
C211	C	-0.168344	-0.409704	0.196703
C212	C	0.081656	-0.159704	0.446703
C213	C	-0.139154	-0.909792	-0.303337
C214	C	0.110846	-0.659792	-0.053337
C215	C	0.360846	-0.409792	0.196663
C216	C	0.610846	-0.159792	0.446663
C217	C	-0.069185	-0.909831	-0.303356
C218	C	0.180815	-0.659831	-0.053356
C219	C	0.430815	-0.409831	0.196644
C220	C	0.680815	-0.159831	0.446644
C221	C	-0.303331	-0.909754	-0.467484
C222	C	-0.053331	-0.659754	-0.217484
C223	C	0.196669	-0.409754	0.032516
C224	C	0.446669	-0.159754	0.282516
C225	C	-0.303325	-0.909776	-0.537452
C226	C	-0.053325	-0.659776	-0.287452
C227	C	0.196675	-0.409776	-0.037452
C228	C	0.446675	-0.159776	0.212548
C229	C	-0.303360	-0.073892	-0.303310
C230	C	-0.053360	0.176108	-0.053310
C231	C	0.196640	0.426108	0.196690
C232	C	0.446640	0.676108	0.446690
C233	C	-0.303358	-0.143860	-0.303308
C234	C	-0.053358	0.106140	-0.053308
C235	C	0.196642	0.356140	0.196692
C236	C	0.446642	0.606140	0.446692
C237	C	-0.263067	-0.950058	-0.570335
C238	C	-0.013067	-0.700058	-0.320335
C239	C	0.236933	-0.450058	-0.070335
C240	C	0.486933	-0.200058	0.179665
C241	C	-0.263039	-0.950057	-0.636078
C242	C	-0.013039	-0.700057	-0.386078
C243	C	0.236961	-0.450057	-0.136078
C244	C	0.486961	-0.200057	0.113922
C245	C	-0.303282	-0.909781	-0.668934
C246	C	-0.053282	-0.659781	-0.418934
C247	C	0.196718	-0.409781	-0.168934
C248	C	0.446718	-0.159781	0.081066
C249	C	-0.343543	-0.869491	-0.636043
C250	C	-0.093543	-0.619491	-0.386043
C251	C	0.156457	-0.369491	-0.136043
C252	C	0.406457	-0.119491	0.113957
C253	C	-0.343564	-0.869488	-0.570301
C254	C	-0.093564	-0.619488	-0.320301
C255	C	0.156436	-0.369488	-0.070301
C256	C	0.406436	-0.119488	0.179699
N257	N	-0.358349	-0.904927	-0.772151
N258	N	-0.108349	-0.654927	-0.522151
N259	N	0.141651	-0.404927	-0.272151
N260	N	0.391651	-0.154927	-0.022151
N261	N	-0.358327	-0.904933	-0.834603
N262	N	-0.108327	-0.654933	-0.584603
N263	N	0.141673	-0.404933	-0.334603
N264	N	0.391673	-0.154933	-0.084603
C265	C	-0.303218	-0.909785	-0.867009
C266	C	-0.053218	-0.659785	-0.617009
C267	C	0.196782	-0.409785	-0.367009
C268	C	0.446782	-0.159785	-0.117009
N269	N	-0.248131	-0.914642	-0.834605
N270	N	0.001869	-0.664642	-0.584605
N271	N	0.251869	-0.414642	-0.334605
N272	N	0.501869	-0.164642	-0.084605
N273	N	-0.248154	-0.914640	-0.772148
N274	N	0.001846	-0.664640	-0.522148
N275	N	0.251846	-0.414640	-0.272148
N276	N	0.501846	-0.164640	-0.022148
C277	C	-0.303262	-0.909779	-0.740220
C278	C	-0.053262	-0.659779	-0.490220
C279	C	0.196738	-0.409779	-0.240220
C280	C	0.446738	-0.159779	0.009780
C281	C	-0.262926	-0.950068	-0.971178
C282	C	-0.012926	-0.700068	-0.721178
C283	C	0.237074	-0.450068	-0.471178
C284	C	0.487074	-0.200068	-0.221178
C285	C	-0.262898	-0.950063	-1.036922
C286	C	-0.012898	-0.700063	-0.786922
C287	C	0.237102	-0.450063	-0.536922
C288	C	0.487102	-0.200063	-0.286922
C289	C	-0.343407	-0.869500	-1.036886
C290	C	-0.093407	-0.619500	-0.786886
C291	C	0.156593	-0.369500	-0.536886
C292	C	0.406593	-0.119500	-0.286886
C293	C	-0.343430	-0.869502	-0.971143
C294	C	-0.093430	-0.619502	-0.721143
C295	C	0.156570	-0.369502	-0.471143
C296	C	0.406570	-0.119502	-0.221143
C297	C	-0.303190	-0.909789	-0.938293
C298	C	-0.053190	-0.659789	-0.688293
C299	C	0.196810	-0.409789	-0.438293
C300	C	0.446810	-0.159789	-0.188293
C301	C	-0.303312	-0.909686	-0.139742
C302	C	-0.053312	-0.659686	0.110258
C303	C	0.196688	-0.409686	0.360258
C304	C	0.446688	-0.159686	0.610258
C305	C	-0.303140	-0.909785	-0.069774
C306	C	-0.053140	-0.659785	0.180226
C307	C	0.196860	-0.409785	0.430226
C308	C	0.446860	-0.159785	0.680226
H309	H	-0.230212	-0.269229	-0.230390
H310	H	0.019788	-0.019229	0.019610
H311	H	0.269788	0.230771	0.269610
H312	H	0.519788	0.480771	0.519610
C313	C	-0.388003	-0.679478	-0.387656
C314	C	-0.138003	-0.429478	-0.137656
C315	C	0.111997	-0.179478	0.112344
C316	C	0.361997	0.070522	0.362344
H317	H	-0.382236	-0.723339	-0.381889
H318	H	-0.132236	-0.473339	-0.131889
H319	H	0.117764	-0.223339	0.118111
H320	H	0.367764	0.026661	0.368111
H321	H	-0.378861	-0.668738	-0.429972
H322	H	-0.128861	-0.418738	-0.179972
H323	H	0.121139	-0.168738	0.070028
H324	H	0.371139	0.081262	0.320028
H325	H	-0.430283	-0.668675	-0.378356
H326	H	-0.180283	-0.418675	-0.128356
H327	H	0.069717	-0.168675	0.121644
H328	H	0.319717	0.081325	0.371644
H329	H	-0.230253	-0.982858	-0.662857
H330	H	0.019747	-0.732858	-0.412857
H331	H	0.269747	-0.482858	-0.162857
H332	H	0.519747	-0.232858	0.087143
C333	C	-0.387677	-0.825201	-1.073020
C334	C	-0.137677	-0.575201	-0.823020
C335	C	0.112323	-0.325201	-0.573020
C336	C	0.362323	-0.075201	-0.323020
H337	H	-0.381903	-0.830974	-1.116883
H338	H	-0.131903	-0.580974	-0.866883
H339	H	0.118097	-0.330974	-0.616883
H340	H	0.368097	-0.080974	-0.366883
H341	H	-0.378469	-0.782909	-1.062230
H342	H	-0.128469	-0.532909	-0.812230
H343	H	0.121531	-0.282909	-0.562230
H344	H	0.371531	-0.032909	-0.312230
H345	H	-0.429978	-0.834399	-1.062247
H346	H	-0.179978	-0.584399	-0.812247
H347	H	0.070022	-0.334399	-0.562247
H348	H	0.320022	-0.084399	-0.312247
C349	C	-0.218698	-0.140562	-0.218911
C350	C	0.031302	0.109438	0.031089
C351	C	0.281302	0.359438	0.281089
C352	C	0.531302	0.609438	0.531089
H353	H	-0.194683	-0.169551	-0.194978
H354	H	0.055317	0.080449	0.055022
H355	H	0.305317	0.330449	0.305022
H356	H	0.555317	0.580449	0.555022
H357	H	-0.242738	-0.114891	-0.191443
H358	H	0.007262	0.135109	0.058557
H359	H	0.257262	0.385109	0.308557
H360	H	0.507262	0.635109	0.558557
H361	H	-0.191303	-0.114943	-0.243047
H362	H	0.058697	0.135057	0.006953
H363	H	0.308697	0.385057	0.256953
H364	H	0.558697	0.635057	0.506953
H365	H	-0.376474	-0.550815	-0.376204
H366	H	-0.126474	-0.300815	-0.126204
H367	H	0.123526	-0.050815	0.123796
H368	H	0.373526	0.199185	0.373796
C369	C	-0.218665	-0.679454	-0.218888
C370	C	0.031335	-0.429454	0.031112
C371	C	0.281335	-0.179454	0.281112
C372	C	0.531335	0.070546	0.531112
H373	H	-0.224432	-0.723316	-0.224644
H374	H	0.025568	-0.473316	0.025356
H375	H	0.275568	-0.223316	0.275356
H376	H	0.525568	0.026684	0.525356
H377	H	-0.227815	-0.668656	-0.176577
H378	H	0.022185	-0.418656	0.073423
H379	H	0.272185	-0.168656	0.323423
H380	H	0.522185	0.081344	0.573423
H381	H	-0.176382	-0.668700	-0.228182
H382	H	0.073618	-0.418700	0.021818
H383	H	0.323618	-0.168700	0.271818
H384	H	0.573618	0.081300	0.521818
C385	C	-0.533558	-0.994242	-0.218817
C386	C	-0.283558	-0.744242	0.031183
C387	C	-0.033558	-0.494242	0.281183
C388	C	0.216442	-0.244242	0.531183
H389	H	-0.562544	-1.018247	-0.194877
H390	H	-0.312544	-0.768247	0.055123
H391	H	-0.062544	-0.518247	0.305123
H392	H	0.187456	-0.268247	0.555123
H393	H	-0.507944	-0.970172	-0.191358
H394	H	-0.257944	-0.720172	0.058642
H395	H	-0.007944	-0.470172	0.308642
H396	H	0.242056	-0.220172	0.558642
H397	H	-0.507879	-1.021647	-0.242928
H398	H	-0.257879	-0.771647	0.007072
H399	H	-0.007879	-0.521647	0.257072
H400	H	0.242121	-0.271647	0.507072
C401	C	-0.934444	-0.825200	-0.387796
C402	C	-0.684444	-0.575200	-0.137796
C403	C	-0.434444	-0.325200	0.112204
C404	C	-0.184444	-0.075200	0.362204
H405	H	-0.963443	-0.801216	-0.411748
H406	H	-0.713443	-0.551216	-0.161748
H407	H	-0.463443	-0.301216	0.088252
H408	H	-0.213443	-0.051216	0.338252
H409	H	-0.908769	-0.849258	-0.415244
H410	H	-0.658769	-0.599258	-0.165244
H411	H	-0.408769	-0.349258	0.084756
H412	H	-0.158769	-0.099258	0.334756
H413	H	-0.908829	-0.797775	-0.363683
H414	H	-0.658829	-0.547775	-0.113683
H415	H	-0.408829	-0.297775	0.136317
H416	H	-0.158829	-0.047775	0.386317
H417	H	-0.376216	-0.836703	-0.944369
H418	H	-0.126216	-0.586703	-0.694369
H419	H	0.123784	-0.336703	-0.444369
H420	H	0.373784	-0.086703	-0.194369
C421	C	-0.387810	-0.825187	-0.672179
C422	C	-0.137810	-0.575187	-0.422179
C423	C	0.112190	-0.325187	-0.172179
C424	C	0.362190	-0.075187	0.077821
H425	H	-0.411787	-0.801192	-0.643176
H426	H	-0.161787	-0.551192	-0.393176
H427	H	0.088213	-0.301192	-0.143176
H428	H	0.338213	-0.051192	0.106824
H429	H	-0.415233	-0.849252	-0.697834
H430	H	-0.165233	-0.599252	-0.447834
H431	H	0.084767	-0.349252	-0.197834
H432	H	0.334767	-0.099252	0.052166
H433	H	-0.363713	-0.797773	-0.697814
H434	H	-0.113713	-0.547773	-0.447814
H435	H	0.136287	-0.297773	-0.197814
H436	H	0.386287	-0.047773	0.052186
C437	C	-0.388039	-0.140585	-0.387678
C438	C	-0.138039	0.109415	-0.137678
C439	C	0.111961	0.359415	0.112322
C440	C	0.361961	0.609415	0.362322
H441	H	-0.412057	-0.169582	-0.411599
H442	H	-0.162057	0.080418	-0.161599
H443	H	0.087943	0.330418	0.088401
H444	H	0.337943	0.580418	0.338401
H445	H	-0.364025	-0.114947	-0.415157
H446	H	-0.114025	0.135053	-0.165157
H447	H	0.135975	0.385053	0.084843
H448	H	0.385975	0.635053	0.334843
H449	H	-0.415430	-0.114934	-0.363523
H450	H	-0.165430	0.135066	-0.113523
H451	H	0.084570	0.385066	0.136477
H452	H	0.334570	0.635066	0.386477
H453	H	-1.063097	-0.836741	-0.376319
H454	H	-0.813097	-0.586741	-0.126319
H455	H	-0.563097	-0.336741	0.123681
H456	H	-0.313097	-0.086741	0.373681
C457	C	-0.218800	-0.994364	-0.534201
C458	C	0.031200	-0.744364	-0.284201
C459	C	0.281200	-0.494364	-0.034201
C460	C	0.531200	-0.244364	0.215799
H461	H	-0.224579	-0.988598	-0.490337
H462	H	0.025421	-0.738598	-0.240337
H463	H	0.275421	-0.488598	0.009663
H464	H	0.525421	-0.238598	0.259663
H465	H	-0.176501	-0.985176	-0.544975
H466	H	0.073499	-0.735176	-0.294975
H467	H	0.323499	-0.485176	-0.044975
H468	H	0.573499	-0.235176	0.205025
H469	H	-0.228018	-1.036657	-0.544991
H470	H	0.021982	-0.786657	-0.294991
H471	H	0.271982	-0.536657	-0.044991
H472	H	0.521982	-0.286657	0.205009
C473	C	-0.388003	-0.278639	-0.387698
C474	C	-0.138003	-0.028639	-0.137698
C475	C	0.111997	0.221361	0.112302
C476	C	0.361997	0.471361	0.362302
H477	H	-0.412010	-0.249651	-0.411640
H478	H	-0.162010	0.000349	-0.161640
H479	H	0.087990	0.250349	0.088360
H480	H	0.337990	0.500349	0.338360
H481	H	-0.415395	-0.304266	-0.363573
H482	H	-0.165395	-0.054266	-0.113573
H483	H	0.084605	0.195734	0.136427
H484	H	0.334605	0.445734	0.386427
H485	H	-0.363949	-0.304303	-0.415166
H486	H	-0.113949	-0.054303	-0.165166
H487	H	0.136051	0.195697	0.084834
H488	H	0.386051	0.445697	0.334834
C489	C	-0.387859	-0.825185	-0.534128
C490	C	-0.137859	-0.575185	-0.284128
C491	C	0.112141	-0.325185	-0.034128
C492	C	0.362141	-0.075185	0.215872
H493	H	-0.411827	-0.801200	-0.563109
H494	H	-0.161827	-0.551200	-0.313109
H495	H	0.088173	-0.301200	-0.063109
H496	H	0.338173	-0.051200	0.186891
H497	H	-0.363791	-0.797770	-0.508465
H498	H	-0.113791	-0.547770	-0.258465
H499	H	0.136209	-0.297770	-0.008465
H500	H	0.386209	-0.047770	0.241535
H501	H	-0.415300	-0.849260	-0.508498
H502	H	-0.165300	-0.599260	-0.258498
H503	H	0.084700	-0.349260	-0.008498
H504	H	0.334700	-0.099260	0.241502
H505	H	-0.230193	-0.550800	-0.230375
H506	H	0.019807	-0.300800	0.019625
H507	H	0.269807	-0.050800	0.269625
H508	H	0.519807	0.199200	0.519625
H509	H	-0.662256	-0.836615	-0.376259
H510	H	-0.412256	-0.586615	-0.126259
H511	H	-0.162256	-0.336615	0.123741
H512	H	0.087744	-0.086615	0.373741
H513	H	-1.063056	-0.982913	-0.230393
H514	H	-0.813056	-0.732913	0.019607
H515	H	-0.563056	-0.482913	0.269607
H516	H	-0.313056	-0.232913	0.519607
H517	H	-0.230157	-0.982869	-0.944431
H518	H	0.019843	-0.732869	-0.694431
H519	H	0.269843	-0.482869	-0.444431
H520	H	0.519843	-0.232869	-0.194431
H521	H	-0.943793	-0.982871	-0.230372
H522	H	-0.693793	-0.732871	0.019628
H523	H	-0.443793	-0.482871	0.269628
H524	H	-0.193793	-0.232871	0.519628
H525	H	-0.662219	-0.982783	-0.230331
H526	H	-0.412219	-0.732783	0.019669
H527	H	-0.162219	-0.482783	0.269669
H528	H	0.087781	-0.232783	0.519669
C529	C	-0.533603	-0.825066	-0.387733
C530	C	-0.283603	-0.575066	-0.137733
C531	C	-0.033603	-0.325066	0.112267
C532	C	0.216397	-0.075066	0.362267
H533	H	-0.489741	-0.830823	-0.381971
H534	H	-0.239741	-0.580823	-0.131971
H535	H	0.010259	-0.330823	0.118029
H536	H	0.260259	-0.080823	0.368029
H537	H	-0.544414	-0.782779	-0.378483
H538	H	-0.294414	-0.532779	-0.128483
H539	H	-0.044414	-0.282779	0.121517
H540	H	0.205586	-0.032779	0.371517
H541	H	-0.544350	-0.834265	-0.430041
H542	H	-0.294350	-0.584265	-0.180041
H543	H	-0.044350	-0.334265	0.069959
H544	H	0.205650	-0.084265	0.319959
H545	H	-0.230111	-0.982864	-1.063695
H546	H	0.019889	-0.732864	-0.813695
H547	H	0.269889	-0.482864	-0.563695
H548	H	0.519889	-0.232864	-0.313695
