data_functionalizedCrystal
_audit_creation_method	'MofGen! by Chris Wilmer'
_symmetry_space_group_name_H-M	'P1'
_symmetry_Int_Tables_number	1
_symmetry_cell_setting	triclinic
loop_
_symmetry_equiv_pos_as_xyz
  x,y,z
_cell_length_a	16.053833
_cell_length_b	17.699083
_cell_length_c	17.699083
_cell_angle_alpha	83.283015
_cell_angle_beta	92.883190
_cell_angle_gamma	92.895191
loop_
_atom_site_label
_atom_site_type_symbol
_atom_site_fract_x
_atom_site_fract_y
_atom_site_fract_z
O1	O	0.069314	-1.001234	-0.092875
O2	O	0.069341	-0.780854	-0.105326
O3	O	0.069319	-0.897270	0.011088
O4	O	0.069336	-0.884817	-0.209290
O5	O	-0.069539	-0.902954	0.005410
O6	O	-0.069517	-0.786538	-0.111005
O7	O	-0.069545	-1.006917	-0.098553
Zn8	Zn	-0.091578	-0.897630	-0.105680
Zn9	Zn	0.091374	-0.890142	-0.098199
O10	O	-0.069523	-0.890501	-0.214968
C11	C	-0.000084	-0.755499	-0.107719
C12	C	-0.000074	-0.671480	-0.106380
C13	C	-0.000110	-0.899666	0.036446
C14	C	-0.000110	-0.898328	0.120464
N15	N	-0.216437	-0.902746	-0.110786
C16	C	-0.740068	-0.929058	-0.137147
C17	C	-0.652662	-0.925482	-0.133570
C18	C	-0.608955	-0.877885	-0.085930
C19	C	-0.652658	-0.833853	-0.041869
C20	C	-0.740063	-0.837425	-0.045451
C21	C	-0.347546	-0.862287	-0.070306
C22	C	-0.260135	-0.858720	-0.066727
C23	C	-0.260145	-0.950349	-0.158429
C24	C	-0.347551	-0.953919	-0.162003
C25	C	-0.391247	-0.909885	-0.117945
N26	N	-0.519611	-0.874231	-0.082271
N27	N	-0.480589	-0.913535	-0.121609
N28	N	0.216234	-0.885031	-0.093088
C29	C	-0.000117	-1.032273	-0.096160
C30	C	-0.000122	-1.116291	-0.097499
C31	C	-0.000069	-0.622859	-0.174713
C32	C	-0.000080	-0.543916	-0.173451
C33	C	-0.000090	-0.513596	-0.103855
C34	C	-0.000097	-0.562223	-0.035517
C35	C	-0.000092	-0.641165	-0.036780
C36	C	-0.000118	-0.243861	-0.030423
C37	C	-0.000121	-0.164913	-0.029165
C38	C	-0.000106	-0.146613	-0.167094
C39	C	-0.000101	-0.225554	-0.168357
C40	C	-0.000113	-0.274175	-0.100019
C41	C	-0.000103	-0.359774	-0.101388
C42	C	-0.000094	-0.427998	-0.102485
C43	C	-0.000092	-0.888105	-0.240326
C44	C	-0.000086	-0.889444	-0.324343
C45	C	-0.000120	-0.966661	0.169085
C46	C	-0.000112	-0.965399	0.248028
C47	C	-0.000101	-0.895802	0.278350
C48	C	-0.000089	-0.827463	0.229723
C49	C	-0.000090	-0.828726	0.150781
C50	C	-0.000081	-0.822367	0.548086
C51	C	-0.000082	-0.821109	0.627034
C52	C	-0.000103	-0.959040	0.645333
C53	C	-0.000105	-0.960303	0.566392
C54	C	-0.000088	-0.891964	0.517772
C55	C	-0.000095	-0.893334	0.432173
C56	C	-0.000100	-0.894432	0.363947
H57	H	-0.775648	-0.967820	-0.175938
H58	H	-0.000101	-0.107016	-0.222738
H59	H	-0.000068	-0.766721	0.508509
N60	N	-0.000133	-1.039103	0.300467
H61	H	-0.000126	-1.027745	0.355078
H62	H	0.051336	-1.067338	0.292764
N63	N	-0.212994	-0.807386	-0.015333
H64	H	-0.150993	-0.811814	-0.019744
H65	H	-0.228292	-0.823079	0.039102
H66	H	-0.383113	-0.826433	-0.034429
N67	N	-0.605531	-0.972976	-0.181083
H68	H	-0.569256	-0.938477	-0.216689
H69	H	-0.646537	-1.003669	-0.211752
H70	H	-0.617065	-0.795095	-0.003083
H71	H	-0.775641	-0.801572	-0.009575
H72	H	-0.000118	-1.016976	0.541709
H73	H	-0.000061	-0.647539	-0.231386
N74	N	-0.000132	-0.132208	0.045903
H75	H	-0.000141	-0.174987	0.089003
H76	H	-0.051610	-0.101965	0.047318
H77	H	-0.000075	-0.504332	-0.229095
N78	N	-0.000079	-0.258257	-0.243420
H79	H	-0.000078	-0.215476	-0.286519
H80	H	-0.051552	-0.292728	-0.249056
N81	N	-0.000075	-0.746041	0.659740
H82	H	-0.000064	-0.702940	0.616962
H83	H	0.051400	-0.740410	0.694201
H84	H	-0.000128	-0.283439	0.025222
H85	H	-0.383131	-0.992680	-0.200795
H86	H	-0.000074	-0.770795	0.254417
N87	N	-0.000121	-0.529526	0.039548
H88	H	-0.000123	-0.472139	0.029981
H89	H	0.051350	-0.545207	0.071554
H90	H	-0.000096	-0.680752	0.018864
H91	H	-0.000134	-1.023335	0.144404
N92	N	-0.000121	-1.032752	0.697773
H93	H	-0.000116	-1.021395	0.752384
H94	H	0.051347	-1.060987	0.690071
H95	H	-0.000082	-0.773081	0.111194
H96	H	-0.224558	-0.986198	-0.194299
