data_functionalizedCrystal
_audit_creation_method	'MofGen! by Chris Wilmer'
_symmetry_space_group_name_H-M	'P1'
_symmetry_Int_Tables_number	1
_symmetry_cell_setting	triclinic
loop_
_symmetry_equiv_pos_as_xyz
  x,y,z
_cell_length_a	16.992694
_cell_length_b	14.472310
_cell_length_c	16.992695
_cell_angle_alpha	90.000759
_cell_angle_beta	90.668223
_cell_angle_gamma	90.007614
loop_
_atom_site_label
_atom_site_type_symbol
_atom_site_fract_x
_atom_site_fract_y
_atom_site_fract_z
O1	O	1.050861	0.076726	0.166912
O2	O	0.822461	0.076753	0.165081
O3	O	0.935745	0.076732	0.051796
O4	O	0.937576	0.076747	0.280196
O5	O	0.935714	-0.076950	0.051801
O6	O	0.822430	-0.076929	0.165086
O7	O	1.050830	-0.076956	0.166917
Cu8	Cu	0.936627	-0.090975	0.166002
Cu9	Cu	0.936663	0.090772	0.165996
O10	O	0.937546	-0.076935	0.280201
C11	C	0.793085	-0.000084	0.162727
C12	C	0.705600	-0.000074	0.155699
N13	N	0.936607	-0.218806	0.166006
C14	C	0.659610	-0.000071	0.223517
C15	C	0.577409	-0.000084	0.216908
C16	C	0.541201	-0.000094	0.142480
C17	C	0.587198	-0.000100	0.074657
C18	C	0.669397	-0.000094	0.081267
C19	C	0.295886	-0.000120	0.115086
C20	C	0.213681	-0.000124	0.108481
C21	C	0.203898	-0.000109	0.250732
C22	C	0.286099	-0.000097	0.257336
C23	C	0.332089	-0.000108	0.189512
N24	N	0.457178	-0.000104	0.135723
N25	N	0.416110	-0.000105	0.196270
C26	C	0.936662	-0.592897	0.165993
C27	C	0.875815	-0.553720	0.226378
C28	C	0.875980	-0.446632	0.226623
C29	C	0.936634	-0.407306	0.165999
C30	C	1.019894	-0.446151	0.189086
C31	C	1.019558	-0.553273	0.189521
C32	C	0.914970	-0.553429	0.082375
C33	C	0.913120	-0.446301	0.082808
C34	C	0.936624	-0.302418	0.166002
C35	C	0.936678	-0.697785	0.165992
C36	C	1.080205	-0.000116	0.169270
C37	C	1.167690	-0.000121	0.176299
C38	C	0.933374	-0.000108	0.022439
C39	C	0.926345	-0.000107	-0.065046
N40	N	0.936689	0.218603	0.165986
C41	C	0.994163	-0.000116	-0.111037
C42	C	0.987554	-0.000107	-0.193238
C43	C	0.913126	-0.000095	-0.229446
C44	C	0.845303	-0.000083	-0.183449
C45	C	0.851913	-0.000086	-0.101250
C46	C	0.885732	-0.000079	-0.474760
C47	C	0.879127	-0.000079	-0.556966
C48	C	1.021379	-0.000101	-0.566749
C49	C	1.027982	-0.000109	-0.484547
C50	C	0.960159	-0.000092	-0.438558
N51	N	0.906369	-0.000088	-0.313468
N52	N	0.966917	-0.000093	-0.354537
C53	C	0.939917	-0.000093	0.309559
C54	C	0.946945	-0.000088	0.397044
H55	H	0.539966	-0.000080	0.272133
C56	C	1.062672	0.078896	-0.291338
C57	C	1.062105	-0.000113	-0.243786
H58	H	1.108703	0.078895	-0.322538
H59	H	1.017409	0.078899	-0.324666
H60	H	1.062302	0.132478	-0.259053
H61	H	1.062470	-0.053695	-0.276071
H62	H	1.107380	-0.000125	-0.210454
C63	C	1.012366	-0.511689	-0.012504
C64	C	0.974782	-0.587633	0.021625
H65	H	1.049296	-0.532811	-0.050000
H66	H	0.974339	-0.473549	-0.037905
H67	H	1.038965	-0.477211	0.027250
H68	H	0.948179	-0.622107	-0.018128
H69	H	1.012816	-0.625789	0.047027
C70	C	0.196716	0.078857	-0.014814
C71	C	0.173877	-0.000138	0.026665
H72	H	0.172144	0.078846	-0.065322
H73	H	0.181240	0.132443	0.013323
H74	H	0.252253	0.078845	-0.020585
H75	H	0.118340	-0.000122	0.032440
H76	H	0.189348	-0.053737	-0.001479
H77	H	0.315574	-0.000078	0.317942
C78	C	0.832693	-0.000057	-0.344418
C79	C	0.811182	-0.000061	-0.424214
H80	H	0.786665	-0.000039	-0.313212
H81	H	0.862979	-0.053651	-0.332957
H82	H	0.863013	0.053534	-0.332966
H83	H	0.780867	-0.053656	-0.435668
H84	H	0.780883	0.053538	-0.435679
C85	C	1.162649	-0.000120	-0.568161
C86	C	1.095927	-0.000109	-0.617301
H87	H	1.208673	-0.000128	-0.599371
H88	H	1.162277	0.053468	-0.535896
H89	H	1.162252	-0.053718	-0.535897
H90	H	1.096321	0.053492	-0.649561
H91	H	1.096300	-0.053702	-0.649579
C92	C	0.798884	-0.000074	0.029102
C93	C	0.777366	-0.000076	-0.050692
H94	H	0.752859	-0.000059	0.060312
H95	H	0.829171	-0.053669	0.040558
H96	H	0.829204	0.053517	0.040554
H97	H	0.747051	-0.053670	-0.062145
H98	H	0.747066	0.053524	-0.062153
C99	C	1.084132	0.078870	-0.024269
C100	C	1.075976	-0.000128	-0.071237
H101	H	1.134640	0.078860	0.000303
H102	H	1.078611	0.132453	-0.056131
H103	H	1.044684	0.078862	0.014884
H104	H	1.115421	-0.000117	-0.110394
H105	H	1.081505	-0.053726	-0.039372
C106	C	0.641675	-0.000067	0.363460
C107	C	0.699406	-0.000062	0.305331
H108	H	0.666243	-0.000069	0.413969
H109	H	0.609823	0.053520	0.357922
H110	H	0.609813	-0.053665	0.357917
H111	H	0.731264	0.053541	0.310870
H112	H	0.731270	-0.053654	0.310871
H113	H	0.814257	-0.420369	0.212109
C114	C	0.794362	-0.645646	0.140563
C115	C	0.792238	-0.588533	0.207019
H116	H	0.742764	-0.667147	0.128616
H117	H	0.813889	-0.611651	0.097145
H118	H	0.827866	-0.696882	0.150866
H119	H	0.758738	-0.537293	0.196714
H120	H	0.772700	-0.622528	0.250447
C121	C	0.073549	-0.000121	0.303766
C122	C	0.153344	-0.000109	0.325280
H123	H	0.042341	-0.000130	0.349792
H124	H	0.062094	0.053466	0.273466
H125	H	0.062094	-0.053719	0.273460
H126	H	0.164801	0.053492	0.355582
H127	H	0.164804	-0.053702	0.355593
H128	H	0.784703	-0.000067	-0.212936
H129	H	1.088589	-0.000119	-0.455073
C130	C	0.393998	0.078884	0.039987
C131	C	0.346430	-0.000120	0.040534
H132	H	0.425206	0.078881	-0.006039
H133	H	0.361731	0.132464	0.040366
H134	H	0.427327	0.078876	0.085258
H135	H	0.313096	-0.000109	-0.004735
H136	H	0.378701	-0.053713	0.040148
H137	H	0.557710	-0.000122	0.014056
C138	C	0.830127	-0.315327	0.056707
C139	C	0.830403	-0.412031	0.059315
H140	H	0.779060	-0.294170	0.042202
H141	H	0.844018	-0.291524	0.107074
H142	H	0.867107	-0.294707	0.019065
H143	H	0.793427	-0.432651	0.096961
H144	H	0.816502	-0.435844	0.008941
H145	H	0.890368	-0.420995	0.288567
H146	H	0.890036	-0.580627	0.287968
C147	C	1.118039	-0.487577	0.094895
C148	C	1.082773	-0.411761	0.131588
H149	H	1.156853	-0.466342	0.059396
H150	H	1.142036	-0.526019	0.133599
H151	H	1.079143	-0.521779	0.066795
H152	H	1.121668	-0.377563	0.159693
H153	H	1.058776	-0.373304	0.092879
H154	H	1.037888	-0.578247	0.250660
H155	H	1.066524	-0.579187	0.147548
C156	C	0.755867	0.078962	-0.573950
C157	C	0.797313	-0.000054	-0.596773
H158	H	0.705364	0.078978	-0.598531
H159	H	0.750090	0.078957	-0.518421
H160	H	0.784036	0.132539	-0.589432
H161	H	0.769147	-0.053631	-0.581285
H162	H	0.803087	-0.000058	-0.652314
C163	C	0.670816	-0.000093	-0.060005
C164	C	0.719953	-0.000089	0.006719
H165	H	0.702028	-0.000086	-0.106028
H166	H	0.638551	-0.053685	-0.059624
H167	H	0.638552	0.053500	-0.059620
H168	H	0.752213	-0.053686	0.006337
H169	H	0.752232	0.053508	0.006337
C170	C	1.057122	-0.484633	0.321824
C171	C	1.045057	-0.409933	0.270725
H172	H	1.072658	-0.462273	0.372224
H173	H	1.009679	-0.518854	0.326242
H174	H	1.097223	-0.523425	0.301665
H175	H	1.004952	-0.371144	0.290882
H176	H	1.092506	-0.375696	0.266310
H177	H	0.855296	-0.580491	0.061453
H178	H	0.954164	-0.419535	0.035368
