data_functionalizedCrystal
_audit_creation_method	'MofGen! by Chris Wilmer'
_symmetry_space_group_name_H-M	'P1'
_symmetry_Int_Tables_number	1
_symmetry_cell_setting	triclinic
loop_
_symmetry_equiv_pos_as_xyz
  x,y,z
_cell_length_a	19.188905
_cell_length_b	27.731996
_cell_length_c	17.666332
_cell_angle_alpha	89.987533
_cell_angle_beta	89.983521
_cell_angle_gamma	82.877971
loop_
_atom_site_label
_atom_site_type_symbol
_atom_site_fract_x
_atom_site_fract_y
_atom_site_fract_z
O1	O	0.925760	0.060292	-0.063083
O2	O	0.722392	0.068429	-0.063058
O3	O	0.830411	-0.006019	-0.063055
O4	O	0.817741	0.134740	-0.063086
O5	O	0.830392	-0.006023	0.062842
O6	O	0.722373	0.068425	0.062838
O7	O	0.925741	0.060288	0.062814
Cu8	Cu	0.824055	0.064356	0.074322
Cu9	Cu	0.824078	0.064361	-0.074566
O10	O	0.817722	0.134736	0.062811
C11	C	0.696373	0.068165	-0.000106
C12	C	0.618873	0.067380	-0.000096
C13	C	0.582494	0.067005	-0.068725
C14	C	0.509675	0.066262	-0.068734
C15	C	0.473240	0.065885	-0.000111
C16	C	0.509627	0.066262	0.068526
C17	C	0.582444	0.067010	0.068534
N18	N	0.364403	0.037201	0.050965
N19	N	0.295231	0.036490	0.050953
C20	C	0.253848	0.063633	-0.000129
N21	N	0.284253	0.091508	-0.051210
N22	N	0.353432	0.092218	-0.051201
C23	C	0.394283	0.065074	-0.000111
C24	C	0.138511	0.062453	-0.068772
C25	C	0.065690	0.061713	-0.068778
C26	C	0.065645	0.061708	0.068484
C27	C	0.138463	0.062453	0.068488
C28	C	0.174892	0.062823	-0.000142
C29	C	0.830141	-0.024029	-0.000104
C30	C	0.829357	-0.077688	-0.000096
C31	C	0.824435	-0.410417	-0.068759
C32	C	0.821458	-0.612084	-0.068772
O33	O	0.821052	-0.638154	-0.127136
N34	N	0.821078	-0.637305	-0.000146
C35	C	0.821438	-0.612105	0.068488
O36	O	0.821039	-0.638183	0.126858
C37	C	0.824410	-0.410438	0.068500
C38	C	0.824797	-0.385221	-0.000130
C39	C	0.824822	-0.385200	-0.137383
C40	C	0.825570	-0.334786	-0.137380
C41	C	0.825931	-0.309590	-0.068751
C42	C	0.825545	-0.334807	-0.000126
C43	C	0.824765	-0.385238	0.137133
C44	C	0.825506	-0.334818	0.137130
C45	C	0.825893	-0.309601	0.068500
C46	C	0.826655	-0.259198	0.068506
N47	N	0.827035	-0.233977	-0.000120
C48	C	0.826673	-0.259174	-0.068748
C49	C	0.819879	-0.717983	0.068477
C50	C	0.819137	-0.768399	0.068474
C51	C	0.819156	-0.768375	-0.068786
C52	C	0.819903	-0.717958	-0.068783
C53	C	0.820259	-0.692762	-0.000149
C54	C	0.828245	-0.153302	-0.068735
C55	C	0.828996	-0.102884	-0.068725
C56	C	0.828973	-0.102912	0.068535
C57	C	0.828226	-0.153326	0.068525
C58	C	0.827859	-0.178519	-0.000116
O59	O	0.827054	-0.233096	0.126840
O60	O	0.827056	-0.233085	-0.127109
C61	C	0.823687	-0.460830	-0.068763
C62	C	0.823301	-0.486048	-0.000138
C63	C	0.823663	-0.460851	0.068490
C64	C	0.822559	-0.536464	-0.000141
C65	C	0.822198	-0.561660	-0.068770
C66	C	0.822578	-0.536440	-0.137395
C67	C	0.823326	-0.486027	-0.137391
C68	C	0.823283	-0.486072	0.137116
C69	C	0.822536	-0.536485	0.137107
C70	C	0.822174	-0.561682	0.068478
C71	C	0.951760	0.060551	-0.000139
C72	C	1.029260	0.061336	-0.000155
C73	C	0.817992	0.152746	-0.000142
C74	C	0.818776	0.206405	-0.000155
N75	N	0.824045	0.064352	0.179041
N76	N	0.824094	0.064360	-0.179285
C77	C	0.871891	0.031403	0.218652
C78	C	0.871895	0.031401	0.297900
C79	C	0.824060	0.064356	0.337533
C80	C	0.776205	0.097308	0.297912
C81	C	0.776197	0.097306	0.218666
N82	N	0.814699	0.107148	0.461943
N83	N	0.814710	0.107148	0.537223
C84	C	0.824078	0.064363	0.576297
N85	N	0.833448	0.021576	0.537247
N86	N	0.833440	0.021576	0.461959
C87	C	0.824062	0.064361	0.423462
C88	C	0.871931	0.031408	0.701838
C89	C	0.871930	0.031405	0.781087
C90	C	0.776243	0.097317	0.781098
C91	C	0.776241	0.097315	0.701850
C92	C	0.824088	0.064362	0.662225
H93	H	0.168084	0.062755	0.124373
N94	N	0.923494	-0.004142	0.175917
H95	H	0.897052	-0.025500	0.143057
H96	H	0.954184	0.014312	0.143062
N97	N	0.923500	-0.004140	0.340637
H98	H	0.953809	-0.025017	0.303509
H99	H	0.954159	0.014316	0.373495
H100	H	0.036071	0.061411	-0.124666
H101	H	0.910890	0.004571	0.813339
N102	N	0.724646	0.132859	0.659116
H103	H	0.693936	0.114440	0.626257
H104	H	0.694388	0.153730	0.696290
H105	H	0.737292	0.124148	0.813367
H106	H	0.612150	0.067307	-0.124609
N107	N	0.026359	0.061298	0.142501
H108	H	-0.025291	0.060766	0.132084
H109	H	0.045080	0.031466	0.172470
N110	N	0.724614	0.132855	0.340657
H111	H	0.694301	0.153728	0.303535
H112	H	0.693960	0.114402	0.373559
N113	N	0.621685	0.067407	0.142558
H114	H	0.673342	0.067936	0.132150
H115	H	0.602951	0.097235	0.172521
H116	H	0.480049	0.065958	-0.124621
H117	H	0.829271	-0.082389	0.124410
H118	H	0.823578	-0.465562	0.193003
H119	H	0.737234	0.124138	0.186414
H120	H	0.818863	-0.788899	-0.124666
N121	N	0.470398	0.065545	0.142541
H122	H	0.418770	0.064909	0.132122
H123	H	0.489321	0.035615	0.172174
H124	H	0.820217	-0.697430	-0.124667
N125	N	0.177804	0.062855	-0.142791
H126	H	0.159146	0.092686	-0.172801
H127	H	0.229446	0.063363	-0.132312
N128	N	0.829416	-0.075686	-0.142750
H129	H	0.829072	-0.099301	-0.186224
H130	H	0.786428	-0.050750	-0.145736
H131	H	0.822286	-0.556964	-0.193275
N132	N	0.823743	-0.458832	-0.211414
H133	H	0.823400	-0.482450	-0.254884
H134	H	0.780753	-0.433898	-0.214403
H135	H	0.910890	0.004574	0.669574
N136	N	0.818735	-0.795596	0.142496
H137	H	0.819076	-0.771980	0.185968
H138	H	0.775127	-0.812500	0.145493
H139	H	0.827943	-0.173808	-0.124629
N140	N	0.825983	-0.307591	-0.211402
H141	H	0.825638	-0.331209	-0.254873
H142	H	0.782991	-0.282658	-0.214388
N143	N	0.824471	-0.412364	-0.211419
H144	H	0.781321	-0.399573	-0.241443
H145	H	0.867948	-0.407571	-0.241325
N146	N	0.820271	-0.690810	0.142505
H147	H	0.776842	-0.695577	0.172516
H148	H	0.863468	-0.703621	0.172435
N149	N	0.824348	-0.412429	0.211156
H150	H	0.824686	-0.388809	0.254625
H151	H	0.780738	-0.429330	0.214151
H152	H	0.827917	-0.173859	0.124409
N153	N	0.825892	-0.307640	0.211155
H154	H	0.782458	-0.312403	0.241160
H155	H	0.869084	-0.320449	0.241094
N156	N	0.822125	-0.563682	0.211134
H157	H	0.822467	-0.540065	0.254607
H158	H	0.778513	-0.580581	0.214128
