data_functionalizedCrystal
_audit_creation_method	'MofGen! by Chris Wilmer'
_symmetry_space_group_name_H-M	'P1'
_symmetry_Int_Tables_number	1
_symmetry_cell_setting	triclinic
loop_
_symmetry_equiv_pos_as_xyz
  x,y,z
_cell_length_a	14.044191
_cell_length_b	12.503572
_cell_length_c	11.026607
_cell_angle_alpha	85.701682
_cell_angle_beta	100.888897
_cell_angle_gamma	93.837835
loop_
_atom_site_label
_atom_site_type_symbol
_atom_site_fract_x
_atom_site_fract_y
_atom_site_fract_z
O1	O	1.312921	0.089261	0.291566
O2	O	1.812921	0.589261	0.791566
O3	O	1.035116	0.089275	0.280800
O4	O	1.535116	0.589275	0.780800
O5	O	1.150994	0.089265	0.107037
O6	O	1.650994	0.589265	0.607037
O7	O	1.197043	0.089270	0.465329
O8	O	1.697043	0.589270	0.965329
O9	O	1.142283	-0.089376	0.120129
O10	O	1.642283	0.410624	0.620129
O11	O	1.026405	-0.089367	0.293891
O12	O	1.526405	0.410633	0.793891
O13	O	1.304211	-0.089381	0.304657
O14	O	1.804211	0.410619	0.804657
Cu15	Cu	1.164512	-0.105685	0.300470
Cu16	Cu	1.664512	0.394315	0.800470
Cu17	Cu	1.174814	0.105579	0.284987
Cu18	Cu	1.674814	0.605579	0.784987
O19	O	1.188332	-0.089371	0.478420
O20	O	1.688332	0.410629	0.978420
C21	C	0.994642	-0.000044	0.282636
C22	C	1.494642	0.499956	0.782636
C23	C	0.887020	-0.000039	0.268588
C24	C	1.387020	0.499961	0.768588
C25	C	0.649350	-0.000048	0.342535
C26	C	1.149350	0.499952	0.842535
C27	C	0.689983	-0.000048	0.242927
C28	C	1.189983	0.499952	0.742927
C29	C	0.799625	-0.000043	0.257209
C30	C	1.299625	0.499957	0.757209
C31	C	0.539699	-0.000054	0.328255
C32	C	1.039699	0.499946	0.828255
N33	N	1.157274	-0.254277	0.311359
N34	N	1.657274	0.245723	0.811359
C35	C	1.146627	-0.473391	0.327389
C36	C	1.646627	0.026609	0.827389
C37	C	1.192702	-0.526722	0.258063
C38	C	1.692702	-0.026722	0.758063
C39	C	1.186779	-0.648645	0.266982
C40	C	1.686779	-0.148645	0.766982
C41	C	1.152550	-0.351457	0.318471
C42	C	1.652550	0.148543	0.818471
C43	C	1.344684	-0.000059	0.302821
C44	C	1.844684	0.499941	0.802821
C45	C	1.452307	-0.000058	0.316868
C46	C	1.952307	0.499942	0.816868
C47	C	1.138144	-0.000054	0.067452
C48	C	1.638144	0.499946	0.567452
C49	C	1.112819	-0.000049	-0.070005
C50	C	1.612819	0.499951	0.429995
N51	N	1.182058	0.254171	0.274089
N52	N	1.682058	0.754171	0.774089
C53	C	1.182744	-0.000051	-0.136239
C54	C	1.682744	0.499949	0.363761
C55	C	1.156572	-0.000046	-0.278307
C56	C	1.656572	0.499954	0.221693
C57	C	1.201183	-0.000050	0.518005
C58	C	1.701183	0.499950	1.018005
C59	C	1.226507	-0.000048	0.655461
C60	C	1.726507	0.499952	1.155461
H61	H	0.696904	-0.000044	0.438529
H62	H	1.196904	0.499956	0.938529
N63	N	1.250862	-0.465926	0.170584
N64	N	1.750862	0.034074	0.670584
H65	H	1.223731	-0.485426	0.083052
H66	H	1.723731	0.014574	0.583052
H67	H	1.246894	-0.386203	0.176636
H68	H	1.746894	0.113797	0.676636
H69	H	1.102736	-0.519295	0.393434
H70	H	1.602736	-0.019295	0.893434
N71	N	1.287711	-0.000069	-0.072048
N72	N	1.787711	0.499931	0.427952
H73	H	1.291528	-0.000077	0.020343
H74	H	1.791528	0.499923	0.520343
H75	H	1.317663	-0.066301	-0.091993
H76	H	1.817663	0.433699	0.408007
N77	N	1.051600	-0.000030	-0.342493
N78	N	1.551600	0.499970	0.157507
H79	H	1.047783	-0.000026	-0.434883
H80	H	1.547783	0.499974	0.065117
H81	H	1.015175	-0.066253	-0.312857
H82	H	1.515175	0.433747	0.187143
N83	N	1.331481	-0.000045	-0.280357
N84	N	1.831481	0.499955	0.219643
H85	H	1.335301	-0.000046	-0.187967
H86	H	1.835301	0.499954	0.312033
H87	H	1.361447	-0.066270	-0.300296
H88	H	1.861447	0.433730	0.199704
N89	N	1.007853	-0.000033	-0.134195
N90	N	1.507853	0.499967	0.365805
H91	H	1.004035	-0.000029	-0.226586
H92	H	1.504035	0.499971	0.273414
H93	H	0.971427	-0.066257	-0.104560
H94	H	1.471427	0.433743	0.395440
H95	H	0.642430	0.000026	0.146920
H96	H	1.142430	0.500026	0.646920
