data_functionalizedCrystal
_audit_creation_method	'MofGen! by Chris Wilmer'
_symmetry_space_group_name_H-M	'P1'
_symmetry_Int_Tables_number	1
_symmetry_cell_setting	triclinic
loop_
_symmetry_equiv_pos_as_xyz
  x,y,z
_cell_length_a	14.971491
_cell_length_b	17.699083
_cell_length_c	14.048226
_cell_angle_alpha	90.003140
_cell_angle_beta	90.009985
_cell_angle_gamma	83.449625
loop_
_atom_site_label
_atom_site_type_symbol
_atom_site_fract_x
_atom_site_fract_y
_atom_site_fract_z
O1	O	1.186608	0.098647	0.079203
O2	O	1.686608	0.598647	0.579203
O3	O	0.926168	0.110454	0.079196
O4	O	1.426168	0.610454	0.579196
O5	O	1.063746	-0.005620	0.079192
O6	O	1.563746	0.494380	0.579192
O7	O	1.049030	0.214722	0.079208
O8	O	1.549030	0.714722	0.579208
O9	O	1.063724	-0.005617	-0.079130
O10	O	1.563724	0.494383	0.420870
O11	O	0.926146	0.110457	-0.079125
O12	O	1.426146	0.610457	0.420875
O13	O	1.186586	0.098650	-0.079118
O14	O	1.686586	0.598650	0.420882
Zn15	Zn	1.056362	0.104554	-0.104258
Zn16	Zn	1.556362	0.604554	0.395742
Zn17	Zn	1.056391	0.104550	0.104337
Zn18	Zn	1.556391	0.604550	0.604337
O19	O	1.049008	0.214724	-0.079113
O20	O	1.549008	0.714724	0.420887
C21	C	0.892834	0.109927	0.000035
C22	C	1.392834	0.609927	0.500035
C23	C	0.793543	0.108343	0.000032
C24	C	1.293543	0.608343	0.500032
C25	C	0.365873	0.101504	0.086355
C26	C	0.865873	0.601504	0.586355
C27	C	0.459168	0.102990	0.086351
C28	C	0.959168	0.602990	0.586351
C29	C	0.505799	0.103740	0.000047
C30	C	1.005799	0.603740	0.500047
C31	C	0.459131	0.102995	-0.086260
C32	C	0.959131	0.602995	0.413740
C33	C	0.365839	0.101504	-0.086255
C34	C	0.865839	0.601504	0.413745
C35	C	0.653582	0.106107	-0.086263
C36	C	1.153582	0.606107	0.413737
C37	C	0.746881	0.107600	-0.086268
C38	C	1.246881	0.607600	0.413732
C39	C	0.746911	0.107594	0.086343
C40	C	1.246911	0.607594	0.586343
C41	C	0.653619	0.106102	0.086348
C42	C	1.153619	0.606102	0.586348
C43	C	0.606957	0.105359	0.000041
C44	C	1.106957	0.605359	0.500041
C45	C	1.063208	-0.033817	0.000031
C46	C	1.563208	0.466183	0.500031
C47	C	1.061626	-0.117839	0.000030
C48	C	1.561626	0.382161	0.500030
C49	C	1.142381	-0.166260	0.000031
C50	C	1.642381	0.333740	0.500031
C51	C	1.140889	-0.245207	0.000040
C52	C	1.640889	0.254793	0.500040
C53	C	1.058641	-0.275732	0.000040
C54	C	1.558641	0.224268	0.500040
C55	C	0.977880	-0.227305	0.000042
C56	C	1.477880	0.272695	0.500042
C57	C	0.979372	-0.148359	0.000041
C58	C	1.479372	0.351641	0.500041
C59	C	0.971858	-0.545683	0.000050
C60	C	1.471858	-0.045683	0.500050
C61	C	0.970372	-0.624634	0.000049
C62	C	1.470372	-0.124634	0.500049
C63	C	1.133375	-0.642531	0.000049
C64	C	1.633375	-0.142531	0.500049
C65	C	1.134868	-0.563585	0.000047
C66	C	1.634868	-0.063585	0.500047
C67	C	1.054107	-0.515165	0.000054
C68	C	1.554107	-0.015165	0.500054
C69	C	1.055725	-0.429562	0.000047
C70	C	1.555725	0.070438	0.500047
C71	C	1.057022	-0.361333	0.000041
C72	C	1.557022	0.138667	0.500041
C73	C	1.219920	0.099177	0.000046
C74	C	1.719920	0.599177	0.500046
C75	C	1.319211	0.100762	0.000055
C76	C	1.819211	0.600762	0.500055
C77	C	1.049546	0.242921	0.000050
C78	C	1.549546	0.742921	0.500050
C79	C	1.051128	0.326943	0.000056
C80	C	1.551128	0.826943	0.500056
N81	N	1.056349	0.104556	-0.246619
N82	N	1.556349	0.604556	0.253381
C83	C	1.117340	0.053165	-0.703461
C84	C	1.617340	0.553165	-0.203461
C85	C	1.117332	0.053170	-0.603803
C86	C	1.617332	0.553170	-0.103803
C87	C	1.056391	0.104549	-0.553989
C88	C	1.556391	0.604549	-0.053989
C89	C	0.995460	0.155932	-0.603838
C90	C	1.495460	0.655932	-0.103838
C91	C	0.995473	0.155930	-0.703494
C92	C	1.495473	0.655930	-0.203494
C93	C	0.995435	0.155931	-0.396124
C94	C	1.495435	0.655931	0.103876
C95	C	0.995421	0.155933	-0.296461
C96	C	1.495421	0.655933	0.203539
C97	C	1.117294	0.053172	-0.296433
C98	C	1.617294	0.553172	0.203567
C99	C	1.117307	0.053170	-0.396089
C100	C	1.617307	0.553170	0.103911
C101	C	1.056375	0.104552	-0.445931
C102	C	1.556375	0.604552	0.054069
N103	N	1.056412	0.104542	0.246697
N104	N	1.556412	0.604542	0.746697
H105	H	0.327911	0.100899	0.156634
H106	H	0.827911	0.600899	0.656634
F107	F	0.796571	0.108392	0.178198
F108	F	1.296571	0.608392	0.678198
H109	H	0.327847	0.100907	-0.156529
H110	H	0.827847	0.600907	0.343471
F111	F	0.930586	0.210621	-0.449165
F112	F	1.430586	0.710621	0.050835
H113	H	1.201843	-0.538737	0.000042
H114	H	1.701843	-0.038737	0.500042
H115	H	0.913613	-0.108935	0.000040
H116	H	1.413613	0.391065	0.500040
F117	F	1.182141	-0.001512	-0.243384
F118	F	1.682141	0.498488	0.256616
H119	H	0.497156	0.103590	0.156625
H120	H	0.997156	0.603590	0.656625
F121	F	0.603991	0.105310	0.178202
F122	F	1.103991	0.605310	0.678202
F123	F	0.882827	-0.657118	0.000051
F124	F	1.382827	-0.157118	0.500051
F125	F	0.930560	0.210619	-0.243452
F126	F	1.430560	0.710619	0.256548
H127	H	0.945843	0.197769	-0.563274
H128	H	1.445843	0.697769	-0.063274
F129	F	1.229922	-0.133781	0.000021
F130	F	1.729922	0.366219	0.500021
H131	H	0.784845	0.108215	-0.156544
H132	H	1.284845	0.608215	0.343456
H133	H	1.206649	-0.284629	0.000038
H134	H	1.706649	0.215371	0.500038
H135	H	1.199135	-0.681964	0.000048
H136	H	1.699135	-0.181964	0.500048
H137	H	0.615592	0.105511	-0.156543
H138	H	1.115592	0.605511	0.343457
F139	F	0.508762	0.103791	-0.178111
F140	F	1.008762	0.603791	0.321889
F141	F	1.182179	-0.001509	-0.550757
F142	F	1.682179	0.498491	-0.050757
H143	H	0.906097	-0.506268	0.000056
H144	H	1.406097	-0.006268	0.500056
H145	H	0.910912	-0.252164	0.000049
H146	H	1.410912	0.247836	0.500049
F147	F	1.182161	-0.001517	-0.449105
F148	F	1.682161	0.498483	0.050895
H149	H	1.166961	0.011323	-0.744013
H150	H	1.666961	0.511323	-0.244013
F151	F	0.930627	0.210614	-0.756538
F152	F	1.430627	0.710614	-0.256538
