data_functionalizedCrystal
_audit_creation_method	'MofGen! by Chris Wilmer'
_symmetry_space_group_name_H-M	'P1'
_symmetry_Int_Tables_number	1
_symmetry_cell_setting	triclinic
loop_
_symmetry_equiv_pos_as_xyz
  x,y,z
_cell_length_a	23.532407
_cell_length_b	15.995350
_cell_length_c	15.072220
_cell_angle_alpha	90.005547
_cell_angle_beta	90.000413
_cell_angle_gamma	96.829474
loop_
_atom_site_label
_atom_site_type_symbol
_atom_site_fract_x
_atom_site_fract_y
_atom_site_fract_z
O1	O	0.755652	-0.101631	0.073668
O2	O	0.589846	-0.116338	0.073693
O3	O	0.677282	0.012941	0.073679
O4	O	0.668217	-0.230910	0.073682
O5	O	0.677270	0.012925	-0.073886
O6	O	0.589834	-0.116354	-0.073872
O7	O	0.755641	-0.101647	-0.073897
Zn8	Zn	0.672736	-0.109003	-0.097314
Zn9	Zn	0.672751	-0.108982	0.097110
O10	O	0.668205	-0.230926	-0.073883
C11	C	0.568623	-0.115971	-0.000086
C12	C	0.505401	-0.114846	-0.000076
C13	C	0.676901	0.044124	-0.000102
C14	C	0.675778	0.137065	-0.000097
N15	N	0.672730	-0.109017	-0.230003
C16	C	0.106565	-0.184288	-0.000116
C17	C	0.047161	-0.183242	-0.000121
O18	O	0.010664	-0.247615	-0.000152
N19	N	0.024239	-0.106386	-0.000120
C20	C	0.060725	-0.030570	-0.000124
O21	O	0.035773	0.034898	-0.000124
C22	C	0.120128	-0.031617	-0.000124
C23	C	0.143047	-0.108478	-0.000116
C24	C	0.129484	-0.261143	-0.000108
C25	C	0.188885	-0.262188	-0.000101
C26	C	0.225366	-0.186379	-0.000101
C27	C	0.202447	-0.109524	-0.000109
C28	C	0.156613	0.044197	-0.000134
C29	C	0.216019	0.043143	-0.000135
C30	C	0.238938	-0.033718	-0.000127
C31	C	0.298328	-0.034760	-0.000102
N32	N	0.321250	-0.111617	-0.000103
C33	C	0.284769	-0.187426	-0.000102
C34	C	-0.064026	-0.028378	-0.000123
C35	C	-0.123428	-0.027330	-0.000116
C36	C	-0.136988	-0.180002	-0.000115
C37	C	-0.077585	-0.181049	-0.000116
C38	C	-0.041104	-0.105234	-0.000124
C39	C	0.409514	-0.189616	-0.000087
C40	C	0.468920	-0.190655	-0.000076
C41	C	0.482475	-0.037984	-0.000081
C42	C	0.423074	-0.036944	-0.000087
C43	C	0.386594	-0.112767	-0.000093
O44	O	0.334860	0.029579	-0.000074
O45	O	0.309729	-0.252883	-0.000113
C46	C	0.776864	-0.102014	-0.000116
C47	C	0.840086	-0.103140	-0.000120
C48	C	0.668586	-0.262110	-0.000100
C49	C	0.669709	-0.355051	-0.000100
C50	C	0.671743	0.474779	-0.000099
C51	C	0.609473	0.426827	0.000241
C52	C	0.610596	0.330146	-0.000091
C53	C	0.673744	0.307235	-0.000097
C54	C	0.704452	0.348559	-0.084367
C55	C	0.702887	0.445182	-0.084438
C56	C	0.704186	0.445569	0.083371
C57	C	0.704172	0.348624	0.084485
C58	C	0.674879	0.212547	-0.000099
C59	C	0.670610	0.569468	-0.000103
C60	C	0.672741	-0.108998	-0.411000
C61	C	0.625948	-0.178147	-0.448661
C62	C	0.625788	-0.177961	-0.551487
C63	C	0.672751	-0.108980	-0.589204
C64	C	0.660015	-0.021616	-0.551860
C65	C	0.659673	-0.022032	-0.449003
C66	C	0.732413	-0.126423	-0.448897
C67	C	0.732019	-0.128401	-0.551762
C68	C	0.672758	-0.108965	-0.689918
C69	C	0.672732	-0.109008	-0.310287
N70	N	0.672761	-0.108961	0.229798
H71	H	0.379819	-0.251358	-0.000094
O72	O	0.576646	0.452492	-0.079357
H73	H	0.538357	0.480854	-0.056652
H74	H	0.512188	0.023738	-0.000078
H75	H	0.693204	0.031079	-0.576288
H76	H	0.748605	0.477810	-0.088265
O77	O	0.780290	-0.065989	-0.585760
H78	H	0.811047	-0.099933	-0.623287
O79	O	0.744831	-0.213531	-0.584094
H80	H	0.786782	-0.226789	-0.557341
O81	O	-0.148144	0.055570	-0.000113
H82	H	-0.174885	0.059692	-0.060258
H83	H	0.692471	0.030963	-0.424087
H84	H	0.680486	0.463290	-0.147426
H85	H	0.633338	-0.242907	-0.576737
O86	O	0.567613	-0.163624	-0.414456
H87	H	0.567420	-0.166874	-0.340894
H88	H	0.617008	-0.005847	-0.577636
H89	H	0.750844	0.334819	-0.087506
O90	O	0.765173	0.328790	0.091219
H91	H	0.785373	0.358931	0.151597
O92	O	-0.024679	0.053398	-0.000118
H93	H	-0.050603	0.107011	-0.000111
O94	O	0.676195	0.310726	-0.167437
H95	H	0.640285	0.262505	-0.148916
H96	H	0.683832	0.465947	0.147242
O97	O	0.748699	-0.209006	-0.414561
H98	H	0.714439	-0.238554	-0.370096
O99	O	-0.176343	-0.261770	-0.000132
H100	H	-0.203738	-0.264938	0.060005
H101	H	0.681721	0.321195	0.146826
O102	O	0.090145	-0.342919	-0.000104
H103	H	0.062757	-0.346118	-0.060252
O104	O	0.131902	0.127097	-0.000161
H105	H	0.167258	0.179627	-0.000179
H106	H	0.207539	-0.324776	-0.000094
O107	O	0.765000	0.488148	0.084130
H108	H	0.772112	0.529917	0.025381
O109	O	0.635791	-0.264474	-0.415932
H110	H	0.633759	-0.265769	-0.342365
H111	H	0.245720	0.104882	-0.000142
O112	O	0.602043	-0.001640	-0.417233
H113	H	0.601230	-0.001722	-0.343602
O114	O	0.778540	-0.059634	-0.416631
H115	H	0.759098	-0.014242	-0.373810
O116	O	0.567151	-0.163133	-0.584108
H117	H	0.538798	-0.156069	-0.526416
H118	H	0.487576	-0.253247	-0.000068
H119	H	0.586286	0.302073	-0.060595
O120	O	0.398348	0.045952	-0.000094
H121	H	0.433699	0.098491	-0.000097
O122	O	0.578611	0.292237	0.079915
H123	H	0.599375	0.319432	0.141251
O124	O	-0.052870	-0.263950	-0.000125
H125	H	-0.067526	-0.300351	0.060016
O126	O	0.576498	0.451119	0.080275
H127	H	0.604136	0.497633	0.120666
