data_functionalizedCrystal
_audit_creation_method	'MofGen! by Chris Wilmer'
_symmetry_space_group_name_H-M	'P1'
_symmetry_Int_Tables_number	1
_symmetry_cell_setting	triclinic
loop_
_symmetry_equiv_pos_as_xyz
  x,y,z
_cell_length_a	16.625546
_cell_length_b	10.686220
_cell_length_c	10.685971
_cell_angle_alpha	98.374195
_cell_angle_beta	85.642545
_cell_angle_gamma	85.595560
loop_
_atom_site_label
_atom_site_type_symbol
_atom_site_fract_x
_atom_site_fract_y
_atom_site_fract_z
Zn1	Zn	-0.256454	-1.885250	0.568998
Zn2	Zn	0.243546	-1.385250	1.068998
Zn3	Zn	-0.380061	-1.901441	0.356748
Zn4	Zn	0.119939	-1.401441	0.856748
Zn5	Zn	-0.256458	-1.689327	0.373028
Zn6	Zn	0.243542	-1.189327	0.873028
Zn7	Zn	-0.402465	-1.672945	0.585189
Zn8	Zn	0.097535	-1.172945	1.085189
O9	O	-0.323859	-1.787241	0.470991
O10	O	0.176141	-1.287241	0.970991
O11	O	-0.263472	-2.065019	0.527253
O12	O	0.236528	-1.565019	1.027253
O13	O	-0.354290	-1.886935	0.181290
O14	O	0.145710	-1.386935	0.681290
O15	O	-0.143623	-1.715396	0.399061
O16	O	0.356377	-1.215396	0.899061
O17	O	-0.354286	-2.076915	0.371314
O18	O	0.145714	-1.576915	0.871314
O19	O	-0.143620	-1.859340	0.543039
O20	O	0.356380	-1.359340	1.043039
O21	O	-0.263480	-1.731096	0.193251
O22	O	0.236520	-1.231096	0.693251
O23	O	-0.285205	-1.509532	0.414761
O24	O	0.214795	-1.009532	0.914761
O25	O	-0.392471	-1.687476	0.760659
O26	O	0.107529	-1.187476	1.260659
O27	O	-0.392476	-1.497496	0.570635
O28	O	0.107524	-0.997496	1.070635
O29	O	-0.285197	-1.843456	0.748763
O30	O	0.214803	-1.343456	1.248763
O31	O	-0.495867	-1.871051	0.387014
O32	O	0.004133	-1.371051	0.887014
O33	O	-0.512328	-1.703175	0.554849
O34	O	-0.012328	-1.203175	1.054849
C35	C	-0.341273	-1.457459	0.496222
C36	C	0.158727	-0.957459	0.996222
C37	C	-0.348743	-1.316375	0.507047
C38	C	0.151257	-0.816375	1.007047
C39	C	-0.533354	-1.787125	0.470947
C40	C	-0.033354	-1.287125	0.970947
C41	C	-0.622973	-1.787188	0.470962
C42	C	-0.122973	-1.287188	0.970962
C43	C	-0.341333	-1.761832	0.802053
C44	C	0.158667	-1.261832	1.302053
C45	C	-0.348779	-1.751005	0.943132
C46	C	0.151221	-1.251005	1.443132
C47	C	-0.951143	-1.787399	0.471077
C48	C	-0.451143	-1.287399	0.971077
C49	C	-0.859837	-1.787336	0.471049
C50	C	-0.359837	-1.287336	0.971049
C51	C	-0.787061	-1.787292	0.471019
C52	C	-0.287061	-1.287292	0.971019
C53	C	-0.695748	-1.787231	0.470992
C54	C	-0.195748	-1.287231	0.970992
C55	C	-0.113547	-1.787390	0.471060
C56	C	0.386453	-1.287390	0.971060
C57	C	-0.023924	-1.787453	0.471089
C58	C	0.476076	-1.287453	0.971089
C59	C	-0.306379	-2.118310	0.445661
C60	C	0.193621	-1.618310	0.945661
C61	C	-0.298930	-2.259392	0.434867
C62	C	0.201070	-1.759392	0.934867
C63	C	-0.306472	-1.812538	1.141217
C64	C	0.193528	-1.312538	1.641217
C65	C	-0.299022	-1.823359	1.000139
C66	C	0.200978	-1.323359	1.500139
H67	H	-0.250568	-1.318540	0.364789
H68	H	0.249432	-0.818540	0.864789
H69	H	-0.250719	-1.893576	0.941016
H70	H	0.249281	-1.393576	1.441016
H71	H	-0.397076	-1.680769	1.002262
H72	H	0.102924	-1.180769	1.502262
H73	H	-0.397113	-1.257220	0.577121
H74	H	0.102887	-0.757220	1.077121
