data_functionalizedCrystal
_audit_creation_method	'MofGen! by Chris Wilmer'
_symmetry_space_group_name_H-M	'P1'
_symmetry_Int_Tables_number	1
_symmetry_cell_setting	triclinic
loop_
_symmetry_equiv_pos_as_xyz
  x,y,z
_cell_length_a	10.654550
_cell_length_b	15.995350
_cell_length_c	9.730223
_cell_angle_alpha	89.997832
_cell_angle_beta	89.999957
_cell_angle_gamma	83.988653
loop_
_atom_site_label
_atom_site_type_symbol
_atom_site_fract_x
_atom_site_fract_y
_atom_site_fract_z
O1	O	1.666303	0.117602	-0.114180
O2	O	1.300678	0.128807	-0.114204
O3	O	1.493485	0.001375	-0.114190
O4	O	1.473496	0.245034	-0.114194
O5	O	1.493473	0.001371	0.114390
O6	O	1.300666	0.128803	0.114375
O7	O	1.666290	0.117599	0.114400
Zn8	Zn	1.483476	0.123201	0.150680
Zn9	Zn	1.483492	0.123205	-0.150484
O10	O	1.473483	0.245031	0.114386
C11	C	1.253884	0.127982	0.000082
C12	C	1.114473	0.125521	0.000073
C13	C	1.492652	-0.029826	0.000097
C14	C	1.490175	-0.122791	0.000089
C15	C	1.034008	0.200551	0.000075
C16	C	0.903017	0.198233	0.000099
C17	C	0.932971	0.045849	0.000112
C18	C	1.063959	0.048168	0.000098
C19	C	1.481277	-0.460590	0.000093
C20	C	1.343964	-0.413954	-0.000429
C21	C	1.346442	-0.317249	0.000087
C22	C	1.485691	-0.293004	0.000090
C23	C	1.553412	-0.333690	0.130623
C24	C	1.549962	-0.430346	0.130732
C25	C	1.552813	-0.430684	-0.129206
C26	C	1.552780	-0.333739	-0.130931
C27	C	1.488192	-0.198292	0.000093
C28	C	1.478780	-0.555303	0.000099
C29	C	1.713084	0.118423	0.000110
C30	C	1.852495	0.120885	0.000111
C31	C	1.474316	0.276232	0.000095
C32	C	1.476793	0.369197	0.000094
N33	N	1.483474	0.123197	0.356216
N34	N	1.483504	0.123202	-0.356021
C35	C	1.568878	0.066794	0.428148
C36	C	1.568890	0.066794	0.572031
C37	C	1.398091	0.179608	0.572037
C38	C	1.398074	0.179603	0.428157
H39	H	0.837506	0.259330	0.000104
H40	H	1.129478	-0.012934	0.000100
H41	H	1.293208	-0.289135	-0.093484
C42	C	1.596045	-0.047030	0.266435
C43	C	1.662706	0.004748	0.349103
H44	H	1.653964	-0.085344	0.217644
H45	H	1.543760	-0.077427	0.322604
H46	H	1.545218	-0.013431	0.202974
H47	H	1.713527	-0.028850	0.412571
H48	H	1.715014	0.035148	0.292929
C49	C	1.479299	-0.542665	0.264236
C50	C	1.483268	-0.455448	0.262437
H51	H	1.438126	-0.558157	0.345549
H52	H	1.434222	-0.559015	0.186183
H53	H	1.562861	-0.569973	0.262218
H54	H	1.399704	-0.428141	0.264444
H55	H	1.528343	-0.439091	0.340510
H56	H	1.289320	-0.433866	0.092650
C57	C	1.048781	0.331153	-0.117436
C58	C	1.089530	0.285578	0.000062
H59	H	1.083050	0.383648	-0.117434
H60	H	1.076403	0.300231	-0.197134
H61	H	0.959252	0.340500	-0.117410
H62	H	1.179060	0.276225	0.000031
H63	H	1.061915	0.316506	0.079781
C64	C	0.918174	-0.084750	0.117628
C65	C	0.877441	-0.039175	0.000124
H66	H	0.883887	-0.137239	0.117633
H67	H	1.007690	-0.094104	0.117613
H68	H	0.890547	-0.053817	0.197331
H69	H	0.905075	-0.070105	-0.079579
H70	H	0.787905	-0.029823	0.000127
H71	H	1.328522	0.225533	0.369586
H72	H	1.638432	0.020865	0.630595
H73	H	1.328562	0.225533	0.630626
H74	H	1.292840	-0.289697	0.093810
C75	C	1.346683	-0.497334	-0.205789
C76	C	1.269864	-0.439405	-0.126783
H77	H	1.300930	-0.513054	-0.283790
H78	H	1.419274	-0.472480	-0.235136
H79	H	1.371925	-0.545762	-0.152022
H80	H	1.244629	-0.390974	-0.180546
H81	H	1.197250	-0.464257	-0.097436
H82	H	1.650775	-0.462009	0.136657
C83	C	1.717545	-0.264630	0.023723
C84	C	1.691514	-0.313817	0.137198
H85	H	1.802801	-0.252357	0.027789
H86	H	1.704410	-0.294507	-0.058505
H87	H	1.663086	-0.213661	0.024944
H88	H	1.745967	-0.364789	0.135971
H89	H	1.704661	-0.283940	0.219448
C90	C	1.578327	-0.257308	0.339582
C91	C	1.489901	-0.295757	0.261758
H92	H	1.539108	-0.233887	0.420531
H93	H	1.646097	-0.297941	0.364049
H94	H	1.609730	-0.214010	0.286947
H95	H	1.458505	-0.339059	0.314389
H96	H	1.422109	-0.255119	0.237292
H97	H	1.503268	-0.306776	-0.227495
C98	C	1.710311	-0.520438	-0.250491
C99	C	1.689483	-0.472765	-0.130405
H100	H	1.794684	-0.546415	-0.251225
H101	H	1.653590	-0.562430	-0.253345
H102	H	1.696803	-0.484795	-0.328346
H103	H	1.702982	-0.508409	-0.052550
H104	H	1.746221	-0.430768	-0.127538
H105	H	1.507924	-0.451483	-0.228142
H106	H	1.654327	-0.317787	-0.138810
