data_functionalizedCrystal
_audit_creation_method	'MofGen! by Chris Wilmer'
_symmetry_space_group_name_H-M	'P1'
_symmetry_Int_Tables_number	1
_symmetry_cell_setting	triclinic
loop_
_symmetry_equiv_pos_as_xyz
  x,y,z
_cell_length_a	14.395555
_cell_length_b	14.395555
_cell_length_c	18.426585
_cell_angle_alpha	90.001699
_cell_angle_beta	59.998367
_cell_angle_gamma	60.003201
loop_
_atom_site_label
_atom_site_type_symbol
_atom_site_fract_x
_atom_site_fract_y
_atom_site_fract_z
Zr1	Zr	1.016837	0.894898	-0.095268
O2	O	1.210633	0.746572	-0.211149
O3	O	0.823042	0.940364	-0.059743
O4	O	1.016846	0.940360	-0.211150
O5	O	1.016822	0.746585	0.059690
O6	O	1.016853	1.093227	-0.211153
O7	O	1.016829	0.746577	-0.059741
O8	O	0.670173	1.093234	0.059687
O9	O	1.363502	0.746577	-0.211150
O10	O	0.902758	1.073842	-0.044595
O11	O	0.902748	0.959765	0.044537
O12	O	1.130927	0.959760	-0.133726
O13	O	1.130917	0.845683	-0.044594
Zr14	Zr	1.016838	1.138716	0.095206
Zr15	Zr	1.016849	1.138704	-0.095272
Zr16	Zr	1.016827	0.894911	0.095211
Zr17	Zr	1.260647	0.894905	-0.095271
Zr18	Zr	0.773029	1.138709	0.095209
O19	O	1.210634	1.093250	0.059681
O20	O	1.210649	1.093233	-0.211155
O21	O	1.210618	0.746590	0.059687
O22	O	0.823043	1.287042	0.211087
O23	O	0.823057	1.287024	-0.059749
O24	O	0.823027	0.940382	0.211093
O25	O	1.016853	1.287030	-0.059751
O26	O	1.016830	1.093255	0.211088
O27	O	1.016823	0.940388	0.211091
O28	O	1.016847	1.287038	0.059680
O29	O	1.363511	0.940370	-0.211154
O30	O	0.670165	1.093244	0.211092
O31	O	0.670173	1.287037	0.211089
O32	O	0.670181	1.287027	0.059684
O33	O	1.363494	0.746587	-0.059745
O34	O	1.363503	0.940380	-0.059749
O35	O	0.902748	1.073854	0.133665
O36	O	0.902758	1.187931	0.044532
O37	O	1.130928	1.073849	-0.044598
O38	O	1.130918	0.959772	0.044534
C39	C	0.711870	1.016798	-0.000027
C40	C	0.608366	1.016795	-0.000026
C41	C	1.016824	0.711844	-0.000025
C42	C	1.016819	0.608342	-0.000023
C43	C	0.547768	0.954599	0.048576
C44	C	0.562027	0.909513	-0.035234
C45	C	0.409711	1.061853	0.083759
C46	C	0.624051	0.971646	-0.083885
C47	C	0.471673	1.124047	0.035168
C48	C	0.485978	1.078987	-0.048692
C49	C	0.892411	0.609955	0.048573
C50	C	0.954600	0.516944	0.083796
C51	C	0.954636	0.516925	-0.035221
C52	C	1.079009	0.516693	0.035249
C53	C	1.079027	0.516688	-0.083815
C54	C	1.141306	0.423659	-0.048613
C55	C	1.321806	1.016816	-0.000034
C56	C	1.425309	1.016819	-0.000036
C57	C	1.016851	1.016791	-0.238290
C58	C	1.016855	1.016786	-0.319154
C59	C	1.016852	1.321771	-0.000036
C60	C	1.016856	1.425273	-0.000038
C61	C	1.016816	1.016829	-0.615237
C62	C	1.016821	1.016819	-0.532856
C63	C	1.016835	1.016807	-0.467198
C64	C	1.016841	1.016799	-0.384811
C65	C	1.016825	1.016823	0.238229
C66	C	1.016821	1.016828	0.319092
C67	C	0.711883	1.321762	-0.000033
C68	C	0.608385	1.425260	-0.000033
C69	C	0.711857	1.016814	0.238233
C70	C	0.608349	1.016816	0.319097
C71	C	0.711871	1.321777	0.238227
C72	C	0.608367	1.425281	0.319089
C73	C	1.321805	0.711837	-0.238288
C74	C	1.425308	0.608333	-0.319151
C75	C	1.321792	0.711853	-0.000029
C76	C	1.425291	0.608354	-0.000028
C77	C	1.321819	1.016800	-0.238294
C78	C	1.425327	1.016798	-0.319158
C79	C	0.559741	1.076370	0.403603
C80	C	0.462498	1.076368	0.479591
C81	C	0.413858	1.016818	0.471071
C82	C	0.462476	0.957256	0.386555
C83	C	0.559724	0.957252	0.310569
C84	C	0.559766	1.533445	0.310537
C85	C	0.462528	1.630708	0.386509
C86	C	0.413885	1.619804	0.471032
C87	C	0.462496	1.511628	0.479582
C88	C	0.559739	1.414368	0.403611
C89	C	1.473921	0.500169	-0.310599
C90	C	1.571190	0.402906	-0.386570
C91	C	1.619838	0.413810	-0.471093
C92	C	1.571221	0.521986	-0.479644
C93	C	1.473960	0.619246	-0.403673
C94	C	1.473936	1.076360	-0.310609
C95	C	1.571179	1.076380	-0.386583
C96	C	1.619819	1.016831	-0.471104
C97	C	1.571200	0.957267	-0.479652
C98	C	1.473952	0.957254	-0.403679
C99	C	0.547831	1.548051	0.048536
C100	C	0.409723	1.578909	0.083735
C101	C	0.562134	1.578812	-0.035283
C102	C	0.471576	1.454755	0.035215
C103	C	0.624061	1.454661	-0.083850
C104	C	0.485962	1.485446	-0.048672
H105	H	0.574990	0.901930	0.089615
H106	H	1.610757	0.314835	-0.379591
Br107	Br	1.751836	0.281802	-0.574189
Br108	Br	0.776849	1.365422	-0.201904
H109	H	0.422859	0.908771	0.379631
Br110	Br	0.625675	0.876425	0.195884
H111	H	0.599332	1.124864	0.410558
Br112	Br	1.166595	0.518301	-0.201889
Br113	Br	0.396574	1.777502	0.374884
H114	H	0.422877	1.502767	0.548411
Br115	Br	0.592959	1.590455	0.117135
H116	H	0.599210	0.818820	-0.065010
Br117	Br	0.441067	1.166653	-0.117293
H118	H	0.599357	1.542345	0.241721
Br119	Br	1.408005	0.876401	-0.415298
H120	H	1.434348	1.124852	-0.241794
H121	H	0.422925	1.124874	0.548400
Br122	Br	0.257020	1.125352	0.201861
H123	H	0.334703	1.699008	0.532885
Br124	Br	1.407917	0.485339	-0.195898
H125	H	0.902018	0.516020	0.154652
Br126	Br	0.776663	0.907976	-0.202047
H127	H	0.334673	1.016830	0.532951
H128	H	0.599298	1.326300	0.410587
H129	H	1.610754	1.124883	-0.379606
Br130	Br	1.637254	0.536765	-0.594360
Br131	Br	1.316784	0.290938	-0.117107
H132	H	1.434381	0.707315	-0.410647
H133	H	0.318082	1.632448	0.154580
H134	H	0.599379	1.632283	-0.065062
H135	H	1.699005	1.016850	-0.532959
Br136	Br	0.409194	1.365868	0.084976
H137	H	1.610818	0.908784	-0.548479
Br138	Br	0.440936	1.442683	-0.117184
Br139	Br	0.866968	0.515396	-0.084827
H140	H	0.787213	0.689711	0.089724
H141	H	0.434509	1.214718	0.064965
H142	H	1.131548	0.517523	0.065092
