data_functionalizedCrystal
_audit_creation_method	'MofGen! by Chris Wilmer'
_symmetry_space_group_name_H-M	'P1'
_symmetry_Int_Tables_number	1
_symmetry_cell_setting	triclinic
loop_
_symmetry_equiv_pos_as_xyz
  x,y,z
_cell_length_a	14.519709
_cell_length_b	12.811438
_cell_length_c	11.892095
_cell_angle_alpha	80.666371
_cell_angle_beta	86.097450
_cell_angle_gamma	96.136921
loop_
_atom_site_label
_atom_site_type_symbol
_atom_site_fract_x
_atom_site_fract_y
_atom_site_fract_z
O1	O	-0.109326	1.409911	-0.238515
O2	O	-0.124803	1.102103	-0.206963
O3	O	0.017207	1.264169	-0.223586
O4	O	-0.251337	1.247845	-0.221892
O5	O	0.005385	1.250656	-0.034192
O6	O	-0.136625	1.088590	-0.017569
O7	O	-0.121149	1.396399	-0.049121
Zn8	Zn	-0.130764	1.240349	-0.003275
Zn9	Zn	-0.115188	1.258153	-0.252809
O10	O	-0.263159	1.234332	-0.032498
C11	C	-0.130209	1.055953	-0.108228
C12	C	-0.128694	0.938573	-0.096197
C13	C	-0.133002	0.765766	0.023993
C14	C	-0.134427	0.876055	0.012694
C15	C	-0.121538	0.890795	-0.193794
C16	C	-0.120113	0.780507	-0.182495
C17	C	-0.125844	0.717996	-0.073598
C18	C	-0.124413	0.607707	-0.062299
C19	C	-0.111531	0.622448	-0.268786
C20	C	-0.112956	0.732737	-0.280086
C21	C	-0.291605	1.241849	-0.127270
C22	C	-0.393977	1.244128	-0.127496
C23	C	-0.768836	1.252523	-0.128402
C24	C	-0.664539	1.250192	-0.128150
C25	C	-0.581410	1.248326	-0.127948
C26	C	-0.477106	1.245994	-0.127698
C27	C	0.045653	1.256652	-0.128816
C28	C	0.148026	1.254374	-0.128598
C29	C	-0.115742	1.442549	-0.147858
C30	C	-0.117257	1.559929	-0.159897
N31	N	-0.141394	1.228206	0.167025
N32	N	-0.104550	1.270304	-0.423109
C33	C	-0.030529	1.354799	0.390688
C34	C	-0.037966	1.346319	0.509900
C35	C	-0.163700	1.202761	0.524662
C36	C	-0.156263	1.211242	0.405451
C37	C	-0.089676	1.287264	0.338467
C38	C	-0.082244	1.295748	0.219253
C39	C	-0.207973	1.152186	0.234018
C40	C	-0.215410	1.143706	0.353230
H41	H	-0.129085	0.556811	0.026370
O42	O	-0.279992	1.069720	0.418269
C43	C	-0.263424	0.967102	0.399869
H44	H	-0.187544	0.968776	0.367152
H45	H	-0.279032	0.908482	0.483718
H46	H	-0.310295	0.941067	0.333862
O47	O	-0.104411	0.576116	-0.363629
C48	C	-0.020998	0.619398	-0.430427
H49	H	0.030647	0.653673	-0.373975
H50	H	0.009672	0.554182	-0.470233
H51	H	-0.035861	0.685335	-0.501088
H52	H	-0.256137	1.097198	0.191487
O53	O	-0.228350	1.129006	0.589906
C54	C	-0.222206	1.135986	0.706324
H55	H	-0.188572	1.218824	0.713967
H56	H	-0.294896	1.121131	0.752843
H57	H	-0.178186	1.073649	0.746300
O58	O	-0.017483	1.369431	0.154100
C59	C	0.043598	1.317560	0.091028
H60	H	0.007769	1.236190	0.081637
H61	H	0.063573	1.367625	0.002677
H62	H	0.108844	1.306921	0.137767
H63	H	0.023682	1.416706	0.336148
H64	H	0.010198	1.401311	0.552414
H65	H	-0.140258	0.914944	0.092162
O66	O	-0.138611	0.705188	0.129854
C67	C	-0.145203	0.771007	0.213570
H68	H	-0.173523	0.847463	0.175701
H69	H	-0.194055	0.727356	0.289730
H70	H	-0.073364	0.791425	0.242974
O71	O	-0.116147	0.951462	-0.299587
C72	C	-0.191723	0.917149	-0.358415
H73	H	-0.250902	0.874235	-0.294043
H74	H	-0.216557	0.989053	-0.412248
H75	H	-0.168823	0.860416	-0.416525
O76	O	-0.107553	0.793397	-0.385883
C77	C	-0.183121	0.759087	-0.444724
H78	H	-0.242311	0.716186	-0.380360
H79	H	-0.207941	0.830991	-0.498574
H80	H	-0.160219	0.702342	-0.502818
