data_functionalizedCrystal
_audit_creation_method	'MofGen! by Chris Wilmer'
_symmetry_space_group_name_H-M	'P1'
_symmetry_Int_Tables_number	1
_symmetry_cell_setting	triclinic
loop_
_symmetry_equiv_pos_as_xyz
  x,y,z
_cell_length_a	14.560438
_cell_length_b	14.560438
_cell_length_c	14.560438
_cell_angle_alpha	60.000095
_cell_angle_beta	90.000283
_cell_angle_gamma	59.996870
loop_
_atom_site_label
_atom_site_type_symbol
_atom_site_fract_x
_atom_site_fract_y
_atom_site_fract_z
Zr1	Zr	0.884696	1.005327	-0.120555
O2	O	0.738033	1.196940	-0.267206
O3	O	0.929664	0.813716	-0.075596
O4	O	0.929648	1.005329	-0.267204
O5	O	0.738054	1.005324	0.075543
O6	O	1.080787	1.005329	-0.267206
O7	O	0.738050	1.005326	-0.075598
O8	O	1.080817	0.662568	0.075545
O9	O	0.738024	1.348085	-0.267208
O10	O	1.061627	0.892527	-0.056426
O11	O	0.948836	0.892526	0.056370
O12	O	0.948816	1.118126	-0.169224
O13	O	0.836025	1.118124	-0.056428
Zr14	Zr	1.125752	1.005323	0.120494
Zr15	Zr	1.125746	1.005327	-0.120558
Zr16	Zr	0.884702	1.005323	0.120497
Zr17	Zr	0.884681	1.246386	-0.120560
Zr18	Zr	1.125767	0.764263	0.120499
O19	O	1.080784	1.196934	0.075535
O20	O	1.080776	1.196939	-0.267210
O21	O	0.738042	1.196934	0.075540
O22	O	1.272415	0.813710	0.267145
O23	O	1.272406	0.813716	-0.075601
O24	O	0.929673	0.813710	0.267149
O25	O	1.272395	1.005326	-0.075604
O26	O	1.080801	1.005320	0.267143
O27	O	0.929661	1.005320	0.267145
O28	O	1.272399	1.005323	0.075537
O29	O	0.929627	1.348085	-0.267211
O30	O	1.080822	0.662564	0.267150
O31	O	1.272424	0.662564	0.267147
O32	O	1.272420	0.662567	0.075543
O33	O	0.738029	1.348082	-0.075604
O34	O	0.929632	1.348082	-0.075606
O35	O	1.061632	0.892524	0.169163
O36	O	1.174423	0.892525	0.056367
O37	O	1.061613	1.118124	-0.056431
O38	O	0.948822	1.118122	0.056365
C39	C	1.005243	0.703796	-0.000025
C40	C	1.005249	0.601460	-0.000023
C41	C	1.088484	0.373966	0.083233
C42	C	1.088512	0.470102	0.083239
C43	C	0.921959	0.636683	-0.083303
C44	C	0.921938	0.540548	-0.083312
C45	C	0.703707	1.005325	-0.000027
C46	C	0.601375	1.005325	-0.000026
C47	C	0.398259	1.123086	-0.058915
C48	C	0.494410	1.123087	-0.058908
C49	C	0.612187	0.887554	0.058862
C50	C	0.516037	0.887555	0.058860
C51	C	0.291295	1.240855	-0.117811
C52	C	0.280476	1.358626	-0.176697
C53	C	0.376627	1.358627	-0.176689
C54	C	0.483598	1.240857	-0.117795
C55	C	1.306741	1.005325	-0.000034
C56	C	1.409073	1.005324	-0.000035
C57	C	1.005217	1.005330	-0.301550
C58	C	1.005214	1.005331	-0.403883
C59	C	1.005206	1.306854	-0.000036
C60	C	1.005200	1.409190	-0.000038
C61	C	0.946329	1.123089	-0.510838
C62	C	0.946342	1.123083	-0.606987
C63	C	1.064126	0.887551	-0.489211
C64	C	1.064119	0.887558	-0.393065
C65	C	1.005232	1.005320	0.301489
C66	C	1.005234	1.005318	0.403822
C67	C	1.306760	0.703796	-0.000028
C68	C	1.409098	0.601459	-0.000028
C69	C	1.005250	0.703791	0.301495
C70	C	1.005259	0.601453	0.403829
C71	C	1.306767	0.703791	0.301491
C72	C	1.409108	0.601453	0.403825
C73	C	0.703681	1.306859	-0.301552
C74	C	0.601340	1.409197	-0.403886
C75	C	0.703689	1.306854	-0.000033
C76	C	0.601351	1.409190	-0.000033
C77	C	1.005198	1.306859	-0.301556
C78	C	1.005189	1.409197	-0.403890
C79	C	1.398301	0.553380	-0.058902
C80	C	1.494463	0.457232	-0.058905
C81	C	1.612215	0.457248	0.058849
C82	C	1.516054	0.553400	0.058845
C83	C	1.064141	0.553371	0.510783
C84	C	1.064136	0.457223	0.606934
C85	C	0.946367	0.457242	0.489163
C86	C	0.946365	0.553396	0.393015
C87	C	1.516064	0.553373	0.393026
C88	C	1.612220	0.457224	0.489183
C89	C	1.494451	0.457239	0.606935
C90	C	1.398298	0.553393	0.510778
H91	H	1.156332	0.441410	0.151046
O92	O	0.526335	0.773280	0.116032
C93	C	0.418532	0.798538	0.103379
H94	H	0.354795	0.899747	0.081694
H95	H	0.394037	0.792960	0.032884
C96	C	0.498246	0.572640	0.240709
C97	C	0.419964	0.696943	0.214085
H98	H	0.499129	0.509969	0.308996
H99	H	0.570875	0.555621	0.249232
H100	H	0.477823	0.568011	0.181955
H101	H	0.440395	0.701576	0.272832
H102	H	0.347338	0.713960	0.205575
O103	O	1.716195	0.410370	0.116025
C104	C	1.798756	0.315213	0.103386
H105	H	1.761294	0.273155	0.081706
H106	H	1.828830	0.361212	0.032893
C107	C	1.944934	0.257601	0.240716
C108	C	1.898925	0.205936	0.214098
H109	H	2.006725	0.190196	0.309006
H110	H	1.889312	0.321713	0.249229
H111	H	1.969986	0.295933	0.181964
H112	H	1.873861	0.167621	0.272843
H113	H	1.954545	0.141815	0.205598
H114	H	1.112082	0.418081	0.694018
H115	H	1.112076	0.791660	-0.305971
H116	H	0.367813	1.454522	-0.224626
H117	H	0.898365	1.218988	-0.519653
O118	O	1.294490	0.599970	-0.116193
C119	C	1.305586	0.536888	-0.168134
H120	H	1.391390	0.497273	-0.179791
H121	H	1.297721	0.453370	-0.112951
C122	C	1.107041	0.682971	-0.269350
C123	C	1.212422	0.634325	-0.283676
H124	H	1.049571	0.743071	-0.340619
H125	H	1.099563	0.725468	-0.234353
H126	H	1.100503	0.613362	-0.223360
H127	H	1.218964	0.703931	-0.329653
H128	H	1.219899	0.591842	-0.318683
O129	O	0.889185	0.600287	0.289025
C130	C	0.901835	0.695438	0.206484
H131	H	0.923519	0.737481	0.243963
H132	H	0.972331	0.649438	0.176411
C133	C	0.764500	0.753086	0.060286
C134	C	0.791123	0.804731	0.106315
H135	H	0.696211	0.820500	-0.001506
H136	H	0.755980	0.688978	0.115894
H137	H	0.823256	0.714753	0.035233
H138	H	0.732375	0.843048	0.131379
H139	H	0.799631	0.868849	0.050709
H140	H	0.898394	1.218974	-0.694072
O141	O	0.176488	1.472905	-0.233881
C142	C	0.093940	1.447657	-0.221242
H143	H	0.131418	1.346450	-0.199559
H144	H	0.063858	1.453239	-0.150752
C145	C	-0.052254	1.673559	-0.358579
C146	C	-0.006225	1.549257	-0.331957
H147	H	-0.114043	1.736233	-0.426871
H148	H	0.003359	1.690571	-0.367092
H149	H	-0.077313	1.678192	-0.299829
H150	H	0.018846	1.544621	-0.390699
H151	H	-0.061837	1.532247	-0.323456
H152	H	0.854115	0.569240	-0.151128
H153	H	0.561886	1.240867	-0.117782
H154	H	1.485662	0.418092	-0.106848
H155	H	0.854169	0.743644	-0.151100
O156	O	1.121238	0.773266	-0.478905
C157	C	1.108576	0.798500	-0.586697
H158	H	1.029022	0.899692	-0.650415
H159	H	1.184618	0.792952	-0.611253
C160	C	1.197201	0.572582	-0.506940
C161	C	1.099485	0.696863	-0.585198
H162	H	1.191598	0.509885	-0.506016
H163	H	1.205735	0.555579	-0.434318
H164	H	1.260559	0.567977	-0.527413
H165	H	1.036131	0.701471	-0.564717
H166	H	1.090940	0.713864	-0.657818
O167	O	1.526740	0.599927	0.116138
C168	C	1.641760	0.536908	0.168087
H169	H	1.693055	0.439440	0.179755
H170	H	1.670081	0.599972	0.112903
C171	C	1.596854	0.634253	0.269282
C172	C	1.659854	0.514536	0.283623
H173	H	1.608016	0.620457	0.340548
H174	H	1.519363	0.676714	0.234281
H175	H	1.620462	0.686794	0.223292
H176	H	1.636237	0.462004	0.329600
H177	H	1.737343	0.472065	0.318634
H178	H	0.212997	1.240868	-0.117827
H179	H	1.156283	0.267011	0.151039
H180	H	0.699288	0.791672	0.106809
O181	O	1.716201	0.410437	0.478893
C182	C	1.798755	0.315256	0.586694
H183	H	1.761271	0.331037	0.650424
H184	H	1.828871	0.214672	0.611196
C185	C	1.944929	0.306457	0.506988
C186	C	1.898892	0.325846	0.585261
H187	H	2.006700	0.312984	0.506104
H188	H	1.889311	0.370579	0.434359
H189	H	1.970015	0.222638	0.527416
H190	H	1.873793	0.409670	0.564824
H191	H	1.954508	0.261738	0.657886
H192	H	1.112091	0.592501	0.519596
H193	H	0.898419	0.418101	0.480371
H194	H	1.524872	0.592503	0.305943
H195	H	1.485663	0.418096	0.694026
H196	H	1.311203	0.592544	0.519580
