data_functionalizedCrystal
_audit_creation_method	'MofGen! by Chris Wilmer'
_symmetry_space_group_name_H-M	'P1'
_symmetry_Int_Tables_number	1
_symmetry_cell_setting	triclinic
loop_
_symmetry_equiv_pos_as_xyz
  x,y,z
_cell_length_a	15.944551
_cell_length_b	27.732048
_cell_length_c	14.421503
_cell_angle_alpha	90.013741
_cell_angle_beta	90.000740
_cell_angle_gamma	83.070697
loop_
_atom_site_label
_atom_site_type_symbol
_atom_site_fract_x
_atom_site_fract_y
_atom_site_fract_z
O1	O	1.113709	0.062343	0.077025
O2	O	0.869059	0.070029	0.077050
O3	O	0.998982	-0.004178	0.077019
O4	O	0.983786	0.136550	0.077056
O5	O	0.998971	-0.004186	-0.077204
O6	O	0.869047	0.070021	-0.077174
O7	O	1.113697	0.062335	-0.077198
Cu8	Cu	0.991371	0.066177	-0.091268
Cu9	Cu	0.991385	0.066187	0.091119
O10	O	0.983774	0.136542	-0.077168
C11	C	0.837763	0.069706	-0.000059
C12	C	0.744530	0.068749	-0.000051
C13	C	0.998658	-0.022190	-0.000095
C14	C	0.997697	-0.075849	-0.000103
C15	C	0.530305	0.020466	-0.000081
C16	C	0.468997	0.042891	0.075965
C17	C	0.573827	0.067019	-0.000062
C18	C	0.469008	0.042894	-0.076087
C19	C	0.408936	0.065344	-0.000077
C20	C	0.513747	0.089457	0.076047
C21	C	0.513764	0.089453	-0.076074
C22	C	0.452474	0.111912	-0.000009
C23	C	0.668816	0.067983	-0.000053
C24	C	0.313947	0.064384	-0.000080
C25	C	1.068426	-0.414358	-0.000062
C26	C	1.064862	-0.616033	-0.000049
O27	O	1.129539	-0.647008	-0.000015
N28	N	0.987823	-0.635490	-0.000042
C29	C	0.911669	-0.604525	-0.000032
O30	O	0.846061	-0.625703	-0.000017
C31	C	0.915234	-0.402851	-0.000039
C32	C	0.992278	-0.383397	-0.000055
C33	C	1.145464	-0.394903	-0.000077
C34	C	1.146354	-0.344487	-0.000086
C35	C	1.070206	-0.313526	-0.000079
C36	C	0.993168	-0.332981	-0.000064
C37	C	0.839081	-0.371887	-0.000023
C38	C	0.839979	-0.321466	-0.000022
C39	C	0.917024	-0.302012	-0.000038
C40	C	0.917911	-0.251604	-0.000065
N41	N	0.994950	-0.232147	-0.000072
C42	C	1.071098	-0.263108	-0.000079
C43	C	0.909803	-0.710408	-0.000031
C44	C	0.908912	-0.760826	-0.000031
C45	C	1.062105	-0.772330	-0.000045
C46	C	1.062995	-0.721911	-0.000052
C47	C	0.986842	-0.690950	-0.000038
C48	C	1.072961	-0.157231	-0.000097
C49	C	1.073845	-0.106810	-0.000109
C50	C	0.920652	-0.095310	-0.000090
C51	C	0.919768	-0.145727	-0.000083
C52	C	0.995930	-0.176686	-0.000083
O53	O	0.853269	-0.220600	-0.000089
O54	O	1.136697	-0.241921	-0.000074
C55	C	1.067536	-0.464774	-0.000054
C56	C	0.990498	-0.484228	-0.000039
C57	C	0.914350	-0.453268	-0.000032
C58	C	0.989607	-0.534647	-0.000039
C59	C	1.065754	-0.565608	-0.000045
C60	C	1.142794	-0.546150	-0.000052
C61	C	1.143684	-0.495734	-0.000061
C62	C	0.837311	-0.472725	-0.000025
C63	C	0.836427	-0.523141	-0.000018
C64	C	0.912575	-0.554102	-0.000024
C65	C	1.144993	0.062658	-0.000087
C66	C	1.238227	0.063615	-0.000090
C67	C	0.984099	0.154554	-0.000051
C68	C	0.985059	0.208213	-0.000038
N69	N	0.991368	0.066171	-0.219549
C70	C	1.051000	0.031584	-0.530992
C71	C	1.067418	0.075129	-0.469146
C72	C	0.991386	0.066184	-0.591438
C73	C	0.974999	0.022634	-0.469190
C74	C	0.991380	0.066175	-0.408717
C75	C	1.007842	0.109751	-0.530953
C76	C	0.915390	0.057227	-0.531002
C77	C	0.931775	0.100804	-0.469184
C78	C	0.991393	0.066189	-0.696699
C79	C	0.991373	0.066176	-0.303458
N80	N	0.991395	0.066190	0.219401
H81	H	0.564143	-0.018169	0.000003
H82	H	1.101450	0.002361	-0.558129
O83	O	1.024330	0.153728	-0.563139
C84	C	0.961789	0.190159	-0.530900
H85	H	0.902049	0.173272	-0.513190
H86	H	0.947031	0.218801	-0.587152
H87	H	0.985715	0.207863	-0.466292
H88	H	0.846175	-0.776661	-0.000034
O89	O	1.216787	-0.576211	-0.000220
C90	C	1.263615	-0.567401	-0.080085
H91	H	1.219047	-0.550181	-0.135914
H92	H	1.297762	-0.603175	-0.106890
H93	H	1.311900	-0.541725	-0.062033
O94	O	0.445368	0.019330	0.152582
C95	C	0.485418	-0.028861	0.152314
H96	H	0.503810	-0.040083	0.078314
H97	H	0.440299	-0.054078	0.181029
H98	H	0.544529	-0.031392	0.197382
O99	O	1.147020	-0.187231	-0.000142
C100	C	1.215198	-0.159239	-0.000135
H101	H	1.193363	-0.121618	-0.029332
H102	H	1.268510	-0.177832	-0.044918
H103	H	1.238852	-0.155633	0.073849
O104	O	0.537500	0.112991	-0.152664
C105	C	0.576350	0.153797	-0.125396
H106	H	0.554459	0.165367	-0.052605
H107	H	0.558110	0.184936	-0.175859
H108	H	0.647895	0.144087	-0.125673
H109	H	0.776344	-0.387718	-0.000004
O110	O	1.221218	-0.325617	0.000072
C111	C	1.267603	-0.341443	0.079933
H112	H	1.222537	-0.351923	0.135762
H113	H	1.302945	-0.310897	0.106742
H114	H	1.314833	-0.374303	0.061873
O115	O	1.144082	0.084100	-0.436612
C116	C	1.179080	0.044736	-0.381513
H117	H	1.126351	0.024195	-0.354426
H118	H	1.214424	0.058938	-0.320527
H119	H	1.224763	0.019244	-0.425028
O120	O	0.761506	-0.541955	0.000038
C121	C	0.694493	-0.503811	0.000021
H122	H	0.717596	-0.469555	0.029203
H123	H	0.640671	-0.514342	0.044813
H124	H	0.671025	-0.496693	-0.073964
O125	O	0.765925	-0.291461	-0.000050
C126	C	0.697741	-0.319448	-0.000009
H127	H	0.719561	-0.357079	-0.029208
H128	H	0.644419	-0.300866	-0.044775
H129	H	0.674107	-0.323032	0.073985
H130	H	0.418809	0.150587	0.000044
H131	H	0.881356	0.130092	-0.442218
H132	H	0.449174	0.023193	-0.140376
O133	O	0.537432	0.112899	0.152806
C134	C	0.625722	0.113509	0.151894
H135	H	0.656322	0.082478	0.106821
H136	H	0.651234	0.108943	0.225620
H137	H	0.641002	0.149598	0.122505
H138	H	0.851144	0.049638	-0.558193
O139	O	1.219385	-0.425024	-0.000209
C140	C	1.223462	-0.454532	-0.080096
H141	H	1.156825	-0.457100	-0.106714
H142	H	1.255268	-0.492416	-0.062140
H143	H	1.261590	-0.437941	-0.136033
O144	O	1.148637	-0.087856	0.000003
C145	C	1.153752	-0.059034	0.079884
H146	H	1.087386	-0.046478	0.106517
H147	H	1.186800	-0.026019	0.061912
H148	H	1.191208	-0.081296	0.135814
O149	O	1.137909	-0.703095	-0.000017
C150	C	1.204922	-0.741239	-0.000049
H151	H	1.181826	-0.775488	0.029145
H152	H	1.258755	-0.730696	0.044724
H153	H	1.228374	-0.748378	-0.074041
H154	H	1.124107	-0.797547	-0.000051
O155	O	0.844855	-0.164547	-0.000029
C156	C	0.777837	-0.126406	-0.000052
H157	H	0.800934	-0.092147	0.029126
H158	H	0.724016	-0.136939	0.044740
H159	H	0.754369	-0.119291	-0.074038
O160	O	0.835746	-0.680405	-0.000066
C161	C	0.767568	-0.708396	-0.000040
H162	H	0.789398	-0.746026	-0.029236
H163	H	0.714250	-0.689816	-0.044815
H164	H	0.743923	-0.711982	0.073949
O165	O	0.846762	-0.065161	-0.000041
C166	C	0.864079	-0.016491	-0.000070
H167	H	0.930034	-0.014551	0.029112
H168	H	0.815512	0.006354	0.044715
H169	H	0.860692	-0.001920	-0.074059
H170	H	1.206421	-0.479900	-0.000073
H171	H	0.775301	-0.447521	-0.000017
O172	O	0.958562	-0.021339	-0.436932
C173	C	1.021588	-0.057699	-0.468406
H174	H	1.052416	-0.044517	-0.533483
H175	H	0.991863	-0.092064	-0.485088
H176	H	1.071447	-0.065918	-0.412099
