data_functionalizedCrystal
_audit_creation_method	'MofGen! by Chris Wilmer'
_symmetry_space_group_name_H-M	'P1'
_symmetry_Int_Tables_number	1
_symmetry_cell_setting	triclinic
loop_
_symmetry_equiv_pos_as_xyz
  x,y,z
_cell_length_a	10.540539
_cell_length_b	14.519709
_cell_length_c	12.996460
_cell_angle_alpha	90.007090
_cell_angle_beta	89.996491
_cell_angle_gamma	95.897182
loop_
_atom_site_label
_atom_site_type_symbol
_atom_site_fract_x
_atom_site_fract_y
_atom_site_fract_z
O1	O	1.684562	-0.129969	-0.085521
O2	O	1.315024	-0.142215	-0.085534
O3	O	1.509591	-0.001906	-0.085518
O4	O	1.489995	-0.270278	-0.085537
O5	O	1.509571	-0.001899	0.085616
O6	O	1.315004	-0.142207	0.085600
O7	O	1.684542	-0.129961	0.085613
Cu8	Cu	1.499771	-0.136083	0.101232
Cu9	Cu	1.499795	-0.136093	-0.101153
O10	O	1.489975	-0.270270	0.085597
C11	C	1.267720	-0.141293	0.000032
C12	C	1.126800	-0.138545	0.000027
C13	C	0.944448	-0.033266	0.000434
C14	C	1.091038	-0.036051	0.000037
C15	C	1.064636	-0.187874	-0.097699
C16	C	0.918127	-0.184376	-0.097770
C17	C	0.917594	-0.186452	0.096841
C18	C	1.064567	-0.187396	0.098122
C19	C	1.508668	0.032462	0.000049
C20	C	1.505931	0.134858	0.000050
C21	C	1.731846	-0.130884	0.000045
C22	C	1.872766	-0.133631	0.000043
C23	C	1.490899	-0.304639	0.000028
C24	C	1.493635	-0.407035	0.000020
N25	N	1.499763	-0.136076	0.243579
C26	C	1.495856	0.509808	0.000023
C27	C	1.498654	0.405485	0.000031
C28	C	1.500893	0.322337	0.000037
C29	C	1.503692	0.218007	0.000043
N30	N	1.499813	-0.136093	-0.243500
C31	C	1.499793	-0.136094	0.663394
C32	C	1.499781	-0.136092	0.546589
C33	C	1.499779	-0.136086	0.453490
C34	C	1.499766	-0.136083	0.336678
H35	H	1.133191	0.003030	-0.070132
O36	O	0.859845	-0.272260	-0.103213
C37	C	0.784044	-0.281968	-0.192704
H38	H	0.758463	-0.211048	-0.218148
H39	H	0.692995	-0.328884	-0.175694
H40	H	0.839375	-0.313823	-0.256635
O41	O	1.115992	-0.147140	-0.184490
C42	C	1.173964	-0.213033	-0.243052
H43	H	1.199016	-0.271524	-0.190735
H44	H	1.264563	-0.178542	-0.280362
H45	H	1.105194	-0.242313	-0.305412
O46	O	0.885053	-0.140979	-0.185009
C47	C	0.921442	-0.190490	-0.271639
H48	H	1.001578	-0.233680	-0.249353
H49	H	0.956043	-0.139749	-0.335037
H50	H	0.836132	-0.238073	-0.300578
O51	O	1.092615	-0.276540	0.104977
C52	C	1.169550	-0.296771	0.020857
H53	H	1.154766	-0.247277	-0.045139
H54	H	1.142047	-0.371058	-0.005403
H55	H	1.274048	-0.288339	0.045088
O56	O	0.860230	-0.274736	0.097483
C57	C	0.780008	-0.288779	0.010885
H58	H	0.752156	-0.219267	-0.017250
H59	H	0.690456	-0.335397	0.032880
H60	H	0.832540	-0.323029	-0.053001
H61	H	0.914661	0.007051	-0.069255
H62	H	1.134040	0.002763	0.070092
O63	O	0.880705	-0.146723	0.185231
C64	C	0.934856	-0.053879	0.189434
H65	H	1.023453	-0.044907	0.138653
H66	H	0.962413	-0.035096	0.272204
H67	H	0.862494	-0.006559	0.160844
O68	O	0.910610	0.015061	0.083962
C69	C	0.778085	0.021545	0.081888
H70	H	0.741798	0.012486	-0.000492
H71	H	0.757704	0.092317	0.111914
H72	H	0.727590	-0.034922	0.132565
H73	H	1.086221	-0.263143	-0.101340
O74	O	1.114025	-0.144326	0.184274
C75	C	1.204454	-0.070306	0.156031
H76	H	1.242101	-0.083165	0.075621
H77	H	1.286883	-0.064911	0.213224
H78	H	1.157504	-0.002988	0.156411
