data_functionalizedCrystal
_audit_creation_method	'MofGen! by Chris Wilmer'
_symmetry_space_group_name_H-M	'P1'
_symmetry_Int_Tables_number	1
_symmetry_cell_setting	triclinic
loop_
_symmetry_equiv_pos_as_xyz
  x,y,z
_cell_length_a	10.654541
_cell_length_b	12.376457
_cell_length_c	13.261948
_cell_angle_alpha	85.799387
_cell_angle_beta	95.543332
_cell_angle_gamma	101.402327
loop_
_atom_site_label
_atom_site_type_symbol
_atom_site_fract_x
_atom_site_fract_y
_atom_site_fract_z
O1	O	1.700433	0.130773	-0.119679
O2	O	1.335918	0.134838	-0.132866
O3	O	1.516127	0.088706	0.017108
O4	O	1.520224	0.176905	-0.269652
O5	O	1.471087	-0.087789	-0.020334
O6	O	1.290878	-0.041657	-0.170308
O7	O	1.655394	-0.045722	-0.157121
Zn8	Zn	1.465985	-0.071712	-0.169659
Zn9	Zn	1.525327	0.160828	-0.120328
O10	O	1.475185	0.000410	-0.307094
C11	C	1.266530	0.046294	-0.150619
C12	C	1.126876	0.045407	-0.147722
N13	N	1.425495	-0.230414	-0.203326
C14	C	1.111981	0.100578	-0.327055
C15	C	1.038927	0.127749	-0.415355
C16	C	0.907710	0.126911	-0.412628
C17	C	0.849545	0.098897	-0.321591
C18	C	0.922600	0.071727	-0.233290
C19	C	1.053819	0.072570	-0.236027
C20	C	0.937493	0.016548	-0.053962
C21	C	1.068711	0.017393	-0.056685
C22	C	0.879328	-0.011466	0.037075
C23	C	0.952384	-0.038629	0.125380
C24	C	1.083609	-0.037789	0.122649
C25	C	1.141766	-0.009777	0.031615
C26	C	1.659814	-0.645333	-0.008482
C27	C	1.688146	-0.534242	0.015082
C28	C	1.622485	-0.458280	-0.039518
C29	C	1.528489	-0.493419	-0.117686
C30	C	1.500161	-0.604520	-0.141257
C31	C	1.462832	-0.417467	-0.172293
C32	C	1.368836	-0.452607	-0.250461
C33	C	1.340513	-0.563697	-0.274028
C34	C	1.406173	-0.639659	-0.219428
C35	C	1.491160	-0.306366	-0.148722
C36	C	1.331507	-0.265553	-0.281497
C37	C	1.303175	-0.376645	-0.305061
C38	C	1.724783	0.042824	-0.139367
C39	C	1.864438	0.043719	-0.142263
C40	C	1.489697	-0.010832	0.035106
C41	C	1.478032	-0.044477	0.144516
N42	N	1.565826	0.319528	-0.086653
C43	C	1.501615	0.099951	-0.325092
C44	C	1.513283	0.133602	-0.434501
C45	C	1.447984	-0.156490	0.175527
C46	C	1.437014	-0.188083	0.278326
C47	C	1.456080	-0.107664	0.350124
C48	C	1.486119	0.004352	0.319113
C49	C	1.497100	0.035947	0.216305
C50	C	1.505196	0.084773	0.390902
C51	C	1.535234	0.196790	0.359892
C52	C	1.546213	0.228379	0.257093
C53	C	1.527147	0.147961	0.185295
C54	C	1.494214	0.053178	0.493710
C55	C	1.543330	0.245616	0.534489
C56	C	1.554300	0.277208	0.431690
H57	H	1.218830	0.101287	-0.329279
O58	O	1.404615	-0.308892	0.311766
H59	H	1.400196	-0.317353	0.395314
O60	O	1.162403	-0.067102	0.217886
H61	H	1.159150	-0.008558	0.276676
O62	O	1.538965	0.182023	0.074410
H63	H	1.467598	0.234406	0.047903
H64	H	1.570687	0.319590	0.231850
H65	H	1.764678	-0.505634	0.078724
H66	H	1.086299	0.150555	-0.489477
O67	O	1.461815	-0.067629	0.527161
H68	H	1.367293	-0.105173	0.489450
O69	O	1.283288	-0.008883	0.028661
H70	H	1.324321	-0.032481	0.105354
O71	O	1.375626	-0.759485	-0.244840
H72	H	1.272967	-0.793852	-0.234602
H73	H	1.263985	-0.592305	-0.337684
O74	O	1.563877	0.332373	0.611907
H75	H	1.644889	0.320060	0.667942
H76	H	1.713273	-0.707185	0.035961
H77	H	0.848227	0.149028	-0.484532
H78	H	1.578758	0.368414	0.406426
O79	O	0.889655	-0.068846	0.223561
H80	H	0.786138	-0.064866	0.210622
H81	H	1.447145	-0.133394	0.433826
O82	O	1.201807	-0.414545	-0.389378
H83	H	1.193154	-0.504555	-0.396596
O84	O	0.708014	0.097973	-0.318648
H85	H	0.688544	0.181593	-0.341364
O86	O	1.653032	-0.338459	-0.014103
H87	H	1.565303	-0.314245	0.008553
H88	H	1.432474	-0.221955	0.117062
O89	O	1.260667	-0.183632	-0.340378
H90	H	1.330483	-0.118147	-0.377908
O91	O	0.737801	-0.012375	0.040025
H92	H	0.696773	0.011233	-0.036667
H93	H	1.567692	-0.277765	-0.085078
