data_functionalizedCrystal
_audit_creation_method	'MofGen! by Chris Wilmer'
_symmetry_space_group_name_H-M	'P1'
_symmetry_Int_Tables_number	1
_symmetry_cell_setting	triclinic
loop_
_symmetry_equiv_pos_as_xyz
  x,y,z
_cell_length_a	18.215407
_cell_length_b	18.215405
_cell_length_c	18.215399
_cell_angle_alpha	89.969449
_cell_angle_beta	89.981439
_cell_angle_gamma	90.016621
loop_
_atom_site_label
_atom_site_type_symbol
_atom_site_fract_x
_atom_site_fract_y
_atom_site_fract_z
Zn1	Zn	-1.125072	0.293154	0.416077
Zn2	Zn	-0.791739	0.626487	0.749411
Zn3	Zn	-0.458405	0.959821	1.082744
Zn4	Zn	-1.124980	0.416225	0.293006
Zn5	Zn	-0.791647	0.749559	0.626339
Zn6	Zn	-0.458314	1.082892	0.959672
Zn7	Zn	-1.002004	0.293159	0.293028
Zn8	Zn	-0.668671	0.626493	0.626361
Zn9	Zn	-0.335338	0.959826	0.959694
Zn10	Zn	-1.001970	0.416166	0.416033
Zn11	Zn	-0.668637	0.749499	0.749367
Zn12	Zn	-0.335304	1.082832	1.082700
O13	O	-1.063507	0.354676	0.354536
O14	O	-0.730173	0.688009	0.687869
O15	O	-0.396840	1.021343	1.021203
O16	O	-1.228044	0.309503	0.399761
O17	O	-0.894711	0.642836	0.733094
O18	O	-0.561377	0.976169	1.066428
O19	O	-1.108643	0.399928	0.190024
O20	O	-0.775310	0.733261	0.523358
O21	O	-0.441977	1.066594	0.856691
O22	O	-1.018382	0.190174	0.309378
O23	O	-0.685049	0.523508	0.642711
O24	O	-0.351716	0.856841	0.976045
O25	O	-1.227977	0.399922	0.309341
O26	O	-0.894643	0.733256	0.642674
O27	O	-0.561310	1.066589	0.976007
O28	O	-1.108799	0.190171	0.399782
O29	O	-0.775466	0.523504	0.733116
O30	O	-0.442133	0.856837	1.066449
O31	O	-1.018293	0.309512	0.190040
O32	O	-0.684960	0.642845	0.523374
O33	O	-0.351627	0.976178	0.856707
O34	O	-0.899016	0.309454	0.309335
O35	O	-0.565682	0.642787	0.642669
O36	O	-0.232349	0.976120	0.976002
O37	O	-1.018324	0.399821	0.519023
O38	O	-0.684991	0.733154	0.852357
O39	O	-0.351657	1.066487	1.185690
O40	O	-0.898991	0.399826	0.399707
O41	O	-0.565657	0.733159	0.733040
O42	O	-0.232324	1.066493	1.066374
O43	O	-1.108766	0.309445	0.519056
O44	O	-0.775433	0.642778	0.852389
O45	O	-0.442100	0.976111	1.185723
O46	O	-1.108610	0.519202	0.309298
O47	O	-0.775277	0.852535	0.642631
O48	O	-0.441943	1.185868	0.975964
O49	O	-1.018235	0.519158	0.399686
O50	O	-0.684902	0.852491	0.733019
O51	O	-0.351569	1.185825	1.066352
C52	C	-0.872300	0.354634	0.354519
C53	C	-0.538967	0.687968	0.687852
C54	C	-0.205634	1.021301	1.021186
C55	C	-0.790502	0.354634	0.354529
C56	C	-0.457168	0.687968	0.687863
C57	C	-0.123835	1.021301	1.021196
C58	C	-1.063429	0.545882	0.354501
C59	C	-0.730096	0.879216	0.687834
C60	C	-0.396762	1.212549	1.021167
C61	C	-1.063463	0.627681	0.354510
C62	C	-0.730130	0.961015	0.687843
C63	C	-0.396796	1.294348	1.021177
C64	C	-1.063552	0.354625	0.546489
C65	C	-0.730218	0.687959	0.879822
C66	C	-0.396885	1.021292	1.213156
C67	C	-1.063571	0.354604	0.628288
C68	C	-0.730237	0.687937	0.961621
C69	C	-0.396904	1.021270	1.294955
C70	C	-0.525473	0.307659	0.401686
C71	C	-0.192140	0.640992	0.735019
C72	C	0.141193	0.974326	1.068353
C73	C	-0.602332	0.307651	0.401685
C74	C	-0.268999	0.640984	0.735018
C75	C	0.064334	0.974318	1.068351
C76	C	-0.602281	0.401669	0.307389
C77	C	-0.268948	0.735002	0.640722
C78	C	0.064385	1.068335	0.974056
C79	C	-0.525424	0.401680	0.307395
C80	C	-0.192091	0.735013	0.640728
C81	C	0.141243	1.068347	0.974061
C82	C	-0.487022	0.354671	0.354542
C83	C	-0.153689	0.688004	0.687875
C84	C	0.179645	1.021338	1.021209
C85	C	-0.640738	0.354651	0.354535
C86	C	-0.307405	0.687985	0.687868
C87	C	0.025929	1.021318	1.021202
C88	C	-0.724072	0.354643	0.354533
C89	C	-0.390738	0.687976	0.687867
C90	C	-0.057405	1.021310	1.021200
C91	C	-0.403683	0.354680	0.354545
C92	C	-0.070350	0.688014	0.687878
C93	C	0.262984	1.021347	1.021212
C94	C	-0.255460	0.354706	0.354550
C95	C	0.077874	0.688040	0.687883
C96	C	0.411207	1.021373	1.021217
C97	C	-0.337259	0.354688	0.354548
C98	C	-0.003925	0.688021	0.687881
C99	C	0.329408	1.021355	1.021214
C100	C	-1.063605	0.162723	0.354588
C101	C	-0.730271	0.496057	0.687921
C102	C	-0.396938	0.829390	1.021254
C103	C	-1.063647	0.080924	0.354610
C104	C	-0.730313	0.414258	0.687943
C105	C	-0.396980	0.747591	1.021276
C106	C	-1.110632	0.815874	0.307532
C107	C	-0.777298	1.149207	0.640865
C108	C	-0.443965	1.482540	0.974198
C109	C	-1.110665	0.892732	0.307550
C110	C	-0.777331	1.226066	0.640883
C111	C	-0.443998	1.559399	0.974216
C112	C	-1.016476	0.892727	0.401593
C113	C	-0.683142	1.226060	0.734927
C114	C	-0.349809	1.559393	1.068260
C115	C	-1.016447	0.815869	0.401579
C116	C	-0.683114	1.149203	0.734912
C117	C	-0.349781	1.482536	1.068245
C118	C	-1.063524	0.777445	0.354544
C119	C	-0.730191	1.110778	0.687877
C120	C	-0.396857	1.444111	1.021210
C121	C	-1.063586	0.931161	0.354576
C122	C	-0.730252	1.264494	0.687909
C123	C	-0.396919	1.597828	1.021243
C124	C	-1.063621	1.014494	0.354596
C125	C	-0.730288	1.347828	0.687929
C126	C	-0.396954	1.681161	1.021262
C127	C	-1.063490	0.694106	0.354525
C128	C	-0.730157	1.027439	0.687858
C129	C	-0.396823	1.360773	1.021191
C130	C	-1.063504	0.354674	0.163330
C131	C	-0.730171	0.688007	0.496663
C132	C	-0.396838	1.021340	0.829996
C133	C	-1.063628	0.354488	0.081531
C134	C	-0.730295	0.687821	0.414865
C135	C	-0.396961	1.021155	0.748198
C136	C	-1.110681	0.307501	0.816500
C137	C	-0.777348	0.640834	1.149833
C138	C	-0.444014	0.974168	1.483167
C139	C	-1.110690	0.307480	0.893359
C140	C	-0.777356	0.640813	1.226692
C141	C	-0.444023	0.974146	1.560026
C142	C	-1.016513	0.401593	0.893314
C143	C	-0.683179	0.734926	1.226647
C144	C	-0.349846	1.068260	1.559980
C145	C	-1.016501	0.401610	0.816456
C146	C	-0.683167	0.734943	1.149790
C147	C	-0.349834	1.068277	1.483123
C148	C	-1.063589	0.354565	0.778052
C149	C	-0.730256	0.687899	1.111385
C150	C	-0.396922	1.021232	1.444718
C151	C	-1.063610	0.354527	0.931768
C152	C	-0.730276	0.687860	1.265101
C153	C	-0.396943	1.021193	1.598434
C154	C	-1.063619	0.354504	1.015101
C155	C	-0.730286	0.687837	1.348435
C156	C	-0.396952	1.021170	1.681768
C157	C	-1.063579	0.354587	0.694713
C158	C	-0.730246	0.687920	1.028046
C159	C	-0.396912	1.021254	1.361379
H160	H	-0.494209	0.269381	0.440076
H161	H	-0.160875	0.602715	0.773409
H162	H	0.172458	0.936048	1.106743
H163	H	-0.633636	0.269370	0.440075
H164	H	-0.300303	0.602703	0.773408
H165	H	0.033031	0.936036	1.106741
H166	H	-0.633558	0.439940	0.269002
H167	H	-0.300224	0.773274	0.602335
H168	H	0.033109	1.106607	0.935669
H169	H	-0.978086	0.784578	0.439865
H170	H	-0.644753	1.117912	0.773198
H171	H	-0.311420	1.451245	1.106531
C172	C	-1.162484	0.935001	0.255830
C173	C	-0.829151	1.268334	0.589163
C174	C	-0.495817	1.601667	0.922496
N175	N	-1.201516	0.966837	0.216871
N176	N	-0.868183	1.300170	0.550204
N177	N	-0.534849	1.633503	0.883538
H178	H	-0.978146	0.924021	0.439886
H179	H	-0.644813	1.257355	0.773220
H180	H	-0.311480	1.590688	1.106553
H181	H	-0.494116	0.439967	0.269004
H182	H	-0.160783	0.773300	0.602337
H183	H	0.172551	1.106634	0.935671
C184	C	-1.162473	0.255744	0.774257
C185	C	-0.829139	0.589077	1.107591
C186	C	-0.495806	0.922411	1.440924
N187	N	-1.201482	0.216756	0.742442
N188	N	-0.868148	0.550090	1.075776
N189	N	-0.534815	0.883423	1.409109
C190	C	-0.964691	0.453385	0.774160
C191	C	-0.631358	0.786718	1.107494
C192	C	-0.298024	1.120051	1.440827
N193	N	-0.925667	0.492378	0.742303
N194	N	-0.592334	0.825711	1.075636
N195	N	-0.259001	1.159045	1.408970
H196	H	-1.148966	0.784590	0.269234
H197	H	-0.815632	1.117924	0.602567
H198	H	-0.482299	1.451257	0.935901
H199	H	-1.149035	0.269154	0.924660
H200	H	-0.815702	0.602487	1.257994
H201	H	-0.482369	0.935821	1.591327
C202	C	-0.964717	0.453338	0.935566
C203	C	-0.631383	0.786671	1.268900
C204	C	-0.298050	1.120005	1.602233
N205	N	-0.925703	0.492313	0.967390
N206	N	-0.592370	0.825647	1.300723
N207	N	-0.259036	1.158980	1.634057
