data_functionalizedCrystal
_audit_creation_method	'MofGen! by Chris Wilmer'
_symmetry_space_group_name_H-M	'P1'
_symmetry_Int_Tables_number	1
_symmetry_cell_setting	triclinic
loop_
_symmetry_equiv_pos_as_xyz
  x,y,z
_cell_length_a	10.654550
_cell_length_b	19.188930
_cell_length_c	9.730223
_cell_angle_alpha	89.990488
_cell_angle_beta	89.999957
_cell_angle_gamma	83.814856
loop_
_atom_site_label
_atom_site_type_symbol
_atom_site_fract_x
_atom_site_fract_y
_atom_site_fract_z
O1	O	1.665764	0.098062	-0.114205
O2	O	2.165764	0.598062	0.385795
O3	O	1.300088	0.107404	-0.114232
O4	O	1.800088	0.607404	0.385768
O5	O	1.493479	0.001147	-0.114191
O6	O	1.993479	0.501147	0.385809
O7	O	1.472373	0.204320	-0.114246
O8	O	1.972373	0.704320	0.385754
O9	O	1.493466	0.001144	0.114389
O10	O	1.993466	0.501144	0.614389
O11	O	1.300076	0.107402	0.114348
O12	O	1.800076	0.607402	0.614348
O13	O	1.665752	0.098059	0.114375
O14	O	2.165752	0.598059	0.614375
Zn15	Zn	1.482912	0.102730	0.150654
Zn16	Zn	1.982912	0.602730	0.650654
Zn17	Zn	1.482928	0.102734	-0.150510
Zn18	Zn	1.982928	0.602734	0.349490
O19	O	1.472361	0.204317	0.114334
O20	O	1.972361	0.704317	0.614334
C21	C	1.253298	0.106717	0.000055
C22	C	1.753298	0.606717	0.500055
C23	C	1.113898	0.104665	0.000046
C24	C	1.613898	0.604665	0.500046
C25	C	1.492789	-0.024870	0.000103
C26	C	1.992789	0.475130	0.500103
C27	C	1.490737	-0.102388	0.000115
C28	C	1.990737	0.397612	0.500115
C29	C	1.033089	0.167228	0.000033
C30	C	1.533089	0.667228	0.500033
C31	C	0.902109	0.165295	0.000058
C32	C	1.402109	0.665295	0.500058
C33	C	0.932761	0.038231	0.000103
C34	C	1.432761	0.538231	0.500103
C35	C	1.063738	0.040164	0.000088
C36	C	1.563738	0.540164	0.500088
C37	C	1.604213	-0.146570	0.000130
C38	C	2.104213	0.353430	0.500130
C39	C	1.602285	-0.219407	0.000108
C40	C	2.102285	0.280593	0.500108
C41	C	1.486876	-0.248058	0.000098
C42	C	1.986876	0.251942	0.500098
C43	C	1.373386	-0.203866	0.000076
C44	C	1.873386	0.296134	0.500076
C45	C	1.375316	-0.131032	0.000084
C46	C	1.875316	0.368968	0.500084
N47	N	1.398655	-0.356641	0.077882
N48	N	1.898655	0.143359	0.577882
N49	N	1.396829	-0.425831	0.077877
N50	N	1.896829	0.074169	0.577877
C51	C	1.481052	-0.467505	0.000070
C52	C	1.981052	0.032495	0.500070
N53	N	1.567189	-0.437375	-0.077714
N54	N	2.067189	0.062625	0.422286
N55	N	1.569019	-0.368178	-0.077703
N56	N	2.069019	0.131822	0.422297
C57	C	1.484770	-0.327034	0.000088
C58	C	1.984770	0.172966	0.500088
C59	C	1.592445	-0.590665	0.000059
C60	C	2.092445	-0.090665	0.500059
C61	C	1.590513	-0.663502	0.000028
C62	C	2.090513	-0.163502	0.500028
C63	C	1.361610	-0.647960	0.000010
C64	C	1.861610	-0.147960	0.500010
C65	C	1.363545	-0.575124	0.000027
C66	C	1.863545	-0.075124	0.500027
C67	C	1.478966	-0.546481	0.000058
C68	C	1.978966	-0.046481	0.500058
C69	C	1.712541	0.098746	0.000085
C70	C	2.212541	0.598746	0.500085
C71	C	1.851941	0.100799	0.000085
C72	C	2.351941	0.600799	0.500085
C73	C	1.473051	0.230334	0.000037
C74	C	1.973051	0.730334	0.500037
C75	C	1.475102	0.307852	0.000017
C76	C	1.975102	0.807852	0.500017
N77	N	1.482910	0.102727	0.356190
N78	N	1.982910	0.602727	0.856190
N79	N	1.482940	0.102731	-0.356047
N80	N	1.982940	0.602731	0.143953
C81	C	1.568572	0.055696	0.428134
C82	C	2.068572	0.555696	0.928134
C83	C	1.568584	0.055696	0.572017
C84	C	2.068584	0.555696	1.072017
C85	C	1.397269	0.149764	0.571999
C86	C	1.897269	0.649764	1.071999
C87	C	1.397251	0.149760	0.428119
C88	C	1.897251	0.649760	0.928119
H89	H	0.836318	0.216240	0.000050
H90	H	1.336318	0.716240	0.500050
H91	H	1.698197	-0.123254	0.000150
H92	H	2.198197	0.376746	0.500150
N93	N	0.881520	-0.027651	0.000160
N94	N	1.381520	0.472349	0.500160
N95	N	0.811862	-0.042905	0.096526
N96	N	1.311862	0.457095	0.596526
H97	H	0.775674	-0.089436	0.096565
H98	H	1.275674	0.410564	0.596565
N99	N	1.146275	-0.023753	0.000115
N100	N	1.646275	0.476247	0.500115
N101	N	1.101477	-0.081337	0.000145
N102	N	1.601477	0.418663	0.500145
H103	H	1.159767	-0.126477	0.000171
H104	H	1.659767	0.373523	0.500171
H105	H	1.327489	0.188059	0.369538
H106	H	1.827489	0.688059	0.869538
H107	H	1.694693	-0.255386	0.000114
H108	H	2.194693	0.244614	0.500114
N109	N	1.084307	0.233116	-0.000008
N110	N	1.584307	0.733116	0.499992
N111	N	1.012135	0.288971	-0.000016
N112	N	1.512135	0.788971	0.499984
H113	H	1.048303	0.335507	-0.000042
H114	H	1.548303	0.835507	0.499958
N115	N	1.255508	-0.233141	0.000054
N116	N	1.755508	0.266859	0.500054
N117	N	1.253799	-0.298172	0.000047
N118	N	1.753799	0.201828	0.500047
H119	H	1.170545	-0.318848	0.000025
H120	H	1.670545	0.181152	0.500025
N121	N	1.656056	0.007638	0.354684
N122	N	2.156056	0.507638	0.854684
N123	N	1.733905	0.030156	0.274374
N124	N	2.233905	0.530156	0.774374
H125	H	1.795691	-0.003795	0.222518
H126	H	2.295691	0.496205	0.722518
H127	H	1.638337	0.017398	0.630590
H128	H	2.138337	0.517398	1.130590
H129	H	1.327529	0.188059	0.630578
H130	H	1.827529	0.688059	1.130578
H131	H	1.282908	-0.095058	0.000072
H132	H	1.782908	0.404942	0.500072
H133	H	1.682922	-0.699475	0.000033
H134	H	2.182922	-0.199475	0.500033
N135	N	1.710336	-0.561398	0.000106
N136	N	2.210336	-0.061398	0.500106
N137	N	1.786743	-0.574747	0.096467
N138	N	2.286743	-0.074747	0.596467
H139	H	1.870004	-0.554079	0.096503
H140	H	2.370004	-0.054079	0.596503
N141	N	1.243731	-0.677229	0.000013
N142	N	1.743731	-0.177229	0.500013
N143	N	1.217114	-0.716150	0.096356
N144	N	1.717114	-0.216150	0.596356
H145	H	1.133859	-0.736825	0.096355
H146	H	1.633859	-0.236825	0.596355
H147	H	1.271141	-0.539150	0.000022
H148	H	1.771141	-0.039150	0.500022
