data_functionalizedCrystal
_audit_creation_method	'MofGen! by Chris Wilmer'
_symmetry_space_group_name_H-M	'P1'
_symmetry_Int_Tables_number	1
_symmetry_cell_setting	triclinic
loop_
_symmetry_equiv_pos_as_xyz
  x,y,z
_cell_length_a	14.044191
_cell_length_b	12.503572
_cell_length_c	12.837942
_cell_angle_alpha	93.896304
_cell_angle_beta	85.989642
_cell_angle_gamma	93.837835
loop_
_atom_site_label
_atom_site_type_symbol
_atom_site_fract_x
_atom_site_fract_y
_atom_site_fract_z
O1	O	1.285438	0.089266	-0.246522
O2	O	1.785438	0.589266	0.253478
O3	O	1.008647	0.089280	-0.237420
O4	O	1.508647	0.589280	0.262580
O5	O	1.140905	0.089267	-0.090501
O6	O	1.640905	0.589267	0.409499
O7	O	1.153180	0.089280	-0.393441
O8	O	1.653180	0.589280	0.106559
O9	O	1.130960	-0.089374	-0.101570
O10	O	1.630960	0.410626	0.398430
O11	O	0.998702	-0.089361	-0.248489
O12	O	1.498702	0.410639	0.251511
O13	O	1.275493	-0.089375	-0.257592
O14	O	1.775493	0.410625	0.242408
Cu15	Cu	1.136190	-0.105679	-0.254051
Cu16	Cu	1.636190	0.394321	0.245949
Cu17	Cu	1.147951	0.105585	-0.240960
Cu18	Cu	1.647951	0.605585	0.259040
O19	O	1.143236	-0.089361	-0.404510
O20	O	1.643236	0.410639	0.095490
C21	C	0.968001	-0.000039	-0.238972
C22	C	1.468001	0.499961	0.261028
C23	C	0.861702	-0.000034	-0.227095
C24	C	1.361702	0.499966	0.272905
C25	C	0.617062	-0.000042	-0.289617
C26	C	1.117062	0.499958	0.210383
C27	C	0.667084	-0.000043	-0.205398
C28	C	1.167084	0.499957	0.294602
C29	C	0.775380	-0.000038	-0.217473
C30	C	1.275380	0.499962	0.282527
C31	C	0.508757	-0.000047	-0.277544
C32	C	1.008757	0.499953	0.222456
N33	N	1.127925	-0.254270	-0.263258
N34	N	1.627925	0.245730	0.236742
C35	C	1.115767	-0.473385	-0.276811
C36	C	1.615767	0.026615	0.223189
C37	C	1.168377	-0.526717	-0.218196
C38	C	1.668377	-0.026717	0.281804
C39	C	1.161612	-0.648639	-0.225737
C40	C	1.661612	-0.148639	0.274263
C41	C	1.122531	-0.351451	-0.269271
C42	C	1.622531	0.148549	0.230729
C43	C	1.316140	-0.000053	-0.256039
C44	C	1.816140	0.499947	0.243961
C45	C	1.422439	-0.000051	-0.267916
C46	C	1.922439	0.499949	0.232084
C47	C	1.131786	-0.000053	-0.057031
C48	C	1.631786	0.499947	0.442969
C49	C	1.119418	-0.000050	0.059190
C50	C	1.619418	0.499950	0.559190
N51	N	1.156222	0.254176	-0.231746
N52	N	1.656222	0.754176	0.268254
C53	C	1.152355	-0.000039	-0.437980
C54	C	1.652355	0.499961	0.062020
C55	C	1.164723	-0.000035	-0.554201
C56	C	1.664723	0.499965	-0.054201
C57	C	1.268099	-0.000035	0.286397
C58	C	1.768099	0.499965	0.786397
C59	C	1.256483	-0.000033	0.395597
C60	C	1.756483	0.499967	0.895597
C61	C	1.084572	-0.000036	0.386793
C62	C	1.584572	0.499964	0.886793
C63	C	1.096188	-0.000038	0.277593
C64	C	1.596188	0.499962	0.777593
C65	C	1.187954	-0.000039	0.227399
C66	C	1.687954	0.499961	0.727399
C67	C	1.199569	-0.000049	0.118196
C68	C	1.699569	0.499951	0.618196
C69	C	1.027659	-0.000044	0.109395
C70	C	1.527659	0.499956	0.609395
C71	C	1.016043	-0.000042	0.218595
C72	C	1.516043	0.499958	0.718595
H73	H	1.218499	-0.480809	-0.162351
H74	H	1.718499	0.019191	0.337649
H75	H	1.065650	-0.519287	-0.332654
H76	H	1.565650	-0.019287	0.167346
H77	H	1.274289	-0.000055	0.077329
H78	H	1.774289	0.499945	0.577329
O79	O	0.663048	0.000163	-0.386414
O80	O	1.163048	0.500163	0.113586
C81	C	0.725824	0.092675	-0.392646
C82	C	1.225824	0.592675	0.107354
H83	H	0.700816	0.157330	-0.331873
H84	H	1.200816	0.657330	0.168127
H85	H	0.726347	0.123744	-0.474151
H86	H	1.226347	0.623744	0.025849
H87	H	0.801071	0.071760	-0.376953
H88	H	1.301071	0.571760	0.123047
O89	O	1.357305	0.000010	0.237800
O90	O	1.857305	0.500010	0.737800
C91	C	1.425552	-0.000019	0.313290
C92	C	1.925552	0.499981	0.813290
H93	H	1.393958	0.033801	0.391937
H94	H	1.893958	0.533801	0.891937
H95	H	1.491909	0.051845	0.288027
H96	H	1.991909	0.551845	0.788027
H97	H	1.445978	-0.085723	0.320947
H98	H	1.945978	0.414277	0.820947
O99	O	0.621123	0.000152	-0.108568
O100	O	1.121123	0.500152	0.391432
C101	C	0.568635	0.092661	-0.090867
C102	C	1.068635	0.592661	0.409133
H103	H	0.600828	0.157320	-0.143633
H104	H	1.100828	0.657320	0.356367
H105	H	0.571578	0.123726	-0.005514
H106	H	1.071578	0.623726	0.494486
H107	H	0.491059	0.071742	-0.109139
H108	H	0.991059	0.571742	0.390861
H109	H	1.321746	-0.000026	0.443630
H110	H	1.821746	0.499974	0.943630
O111	O	0.995503	-0.000079	0.435725
O112	O	1.495503	0.499921	0.935725
C113	C	1.002445	-0.000042	0.544761
C114	C	1.502445	0.499958	1.044761
H115	H	1.072849	-0.033860	0.561360
H116	H	1.572849	0.466140	1.061360
H117	H	0.940254	-0.051903	0.580250
H118	H	1.440254	0.448097	1.080250
H119	H	0.999844	0.085664	0.580842
H120	H	1.499844	0.585664	1.080842
H121	H	0.941330	-0.000037	0.259479
H122	H	1.441330	0.499963	0.759479
H123	H	0.962399	-0.000056	0.061346
H124	H	1.462399	0.499944	0.561346
