data_functionalizedCrystal
_audit_creation_method	'MofGen! by Chris Wilmer'
_symmetry_space_group_name_H-M	'P1'
_symmetry_Int_Tables_number	1
_symmetry_cell_setting	triclinic
loop_
_symmetry_equiv_pos_as_xyz
  x,y,z
_cell_length_a	14.044220
_cell_length_b	23.532357
_cell_length_c	12.503572
_cell_angle_alpha	93.494896
_cell_angle_beta	86.164750
_cell_angle_gamma	88.008585
loop_
_atom_site_label
_atom_site_type_symbol
_atom_site_fract_x
_atom_site_fract_y
_atom_site_fract_z
O1	O	1.261863	0.134223	-0.089231
O2	O	0.985944	0.129270	-0.089257
O3	O	1.132247	0.049266	-0.089221
O4	O	1.115560	0.214227	-0.089267
O5	O	1.121244	0.055293	0.089418
O6	O	0.974941	0.135297	0.089382
O7	O	1.250860	0.140250	0.089409
Cu8	Cu	1.111896	0.138324	0.105707
Cu9	Cu	1.124908	0.131196	-0.105555
O10	O	1.104557	0.220254	0.089373
C11	C	0.945149	0.130116	0.000060
C12	C	0.839987	0.123649	0.000051
C13	C	0.647439	0.111829	0.000075
C14	C	0.589361	0.157688	0.000067
C15	C	0.482220	0.151111	0.000081
C16	C	0.754589	0.118405	0.000062
C17	C	1.126328	0.031040	0.000102
C18	C	1.125072	-0.032246	0.000112
C19	C	1.123194	-0.427972	-0.097323
C20	C	1.122001	-0.487436	-0.097329
O21	O	1.126453	-0.520982	-0.180144
N22	N	1.115412	-0.513894	0.000046
C23	C	1.110005	-0.480884	0.097433
O24	O	1.104290	-0.508848	0.180257
C25	C	1.111191	-0.421420	0.097438
C26	C	1.117791	-0.394966	0.000057
C27	C	1.129792	-0.401518	-0.194696
C28	C	1.130986	-0.342057	-0.194690
C29	C	1.125583	-0.309052	-0.097310
C30	C	1.118985	-0.335506	0.000064
C31	C	1.105778	-0.388411	0.194825
C32	C	1.106964	-0.328944	0.194821
C33	C	1.113563	-0.302490	0.097440
C34	C	1.114776	-0.243040	0.097450
N35	N	1.121366	-0.216582	0.000075
C36	C	1.126769	-0.249588	-0.097305
C37	C	1.107513	-0.605761	0.097415
C38	C	1.106334	-0.665223	0.097411
C39	C	1.118328	-0.671772	-0.097352
C40	C	1.119514	-0.612309	-0.097347
C41	C	1.114103	-0.579303	0.000040
C42	C	1.129278	-0.124717	-0.097283
C43	C	1.130476	-0.065252	-0.097268
C44	C	1.118476	-0.058708	0.097494
C45	C	1.117283	-0.118169	0.097479
C46	C	1.122681	-0.151172	0.000082
O47	O	1.110324	-0.209458	0.180223
O48	O	1.132471	-0.221616	-0.180115
C49	C	1.291655	0.139404	0.000090
C50	C	1.396818	0.145870	0.000092
C51	C	1.110476	0.238480	0.000047
C52	C	1.111732	0.301766	0.000030
N53	N	1.102751	0.143338	0.254297
N54	N	1.134061	0.126178	-0.254145
C55	C	1.089298	0.150718	0.473409
C56	C	1.147511	0.118799	0.526750
C57	C	1.140026	0.122906	0.648671
C58	C	1.096782	0.146612	0.351476
H59	H	1.133669	-0.151582	-0.176593
H60	H	1.033842	0.181127	0.519302
H61	H	0.620103	0.201889	0.000050
C62	C	0.605916	0.052119	0.000086
C63	C	0.497204	0.045541	0.000091
C64	C	0.455668	-0.014169	0.000096
C65	C	0.522844	-0.067301	0.000096
C66	C	0.631562	-0.060725	0.000092
C67	C	0.673098	-0.001015	0.000087
H68	H	0.447471	0.084874	0.000091
H69	H	0.375188	-0.019036	0.000099
H70	H	0.492096	-0.111502	0.000100
H71	H	0.681295	-0.100058	0.000092
H72	H	0.753578	0.003852	0.000083
H73	H	1.135852	-0.043716	-0.176571
H74	H	1.136356	-0.320524	-0.273988
H75	H	1.134189	-0.428385	-0.273999
C76	C	1.126765	-0.583212	-0.204466
C77	C	1.213829	-0.596384	-0.284795
C78	C	1.221077	-0.567290	-0.391919
C79	C	1.141263	-0.525025	-0.418716
C80	C	1.054193	-0.511850	-0.338385
C81	C	1.046944	-0.540944	-0.231261
H82	H	1.272918	-0.627673	-0.264960
H83	H	1.285533	-0.577043	-0.451385
H84	H	1.146628	-0.503488	-0.498016
H85	H	0.995103	-0.480561	-0.358219
H86	H	0.982489	-0.531191	-0.171795
C87	C	1.101578	-0.569458	0.204550
C88	C	1.014193	-0.572647	0.284884
C89	C	1.008257	-0.536349	0.392017
C90	C	1.089705	-0.496861	0.418817
C91	C	1.177096	-0.493671	0.338481
C92	C	1.183032	-0.529969	0.231347
H93	H	0.953895	-0.601880	0.265047
H94	H	0.943564	-0.538710	0.451487
H95	H	1.085311	-0.469991	0.498123
H96	H	1.237394	-0.464438	0.358317
H97	H	1.247725	-0.527607	0.171877
C98	C	1.124266	-0.708084	-0.204475
C99	C	1.207374	-0.752159	-0.231247
C100	C	1.213314	-0.788473	-0.338364
C101	C	1.136146	-0.780711	-0.418710
C102	C	1.053033	-0.736634	-0.391940
C103	C	1.047093	-0.700321	-0.284823
H104	H	1.264503	-0.757907	-0.171769
H105	H	1.274840	-0.821101	-0.358180
H106	H	1.140543	-0.807592	-0.498004
H107	H	0.995903	-0.730887	-0.451418
H108	H	0.985566	-0.667692	-0.265007
C109	C	1.099094	-0.694317	0.204535
C110	C	1.012036	-0.681140	0.284869
C111	C	1.004793	-0.710230	0.391998
C112	C	1.084607	-0.752496	0.418792
C113	C	1.171672	-0.765675	0.338456
C114	C	1.178915	-0.736585	0.231327
H115	H	0.952946	-0.649851	0.265036
H116	H	0.940341	-0.700474	0.451468
H117	H	1.079245	-0.774030	0.498096
H118	H	1.230761	-0.796964	0.358289
H119	H	1.243366	-0.746341	0.171857
C120	C	1.101013	-0.292638	0.301951
C121	C	1.013619	-0.295822	0.382273
C122	C	1.007671	-0.259518	0.489401
C123	C	1.089117	-0.220030	0.516206
C124	C	1.176517	-0.216845	0.435882
C125	C	1.182465	-0.253149	0.328754
H126	H	0.953323	-0.325055	0.362432
H127	H	0.942971	-0.261876	0.548862
H128	H	1.084713	-0.193155	0.595508
H129	H	1.236814	-0.187612	0.455723
H130	H	1.247165	-0.250791	0.269293
C131	C	1.112528	-0.022393	0.204607
C132	C	1.029413	0.021679	0.231360
C133	C	1.023456	0.057997	0.338472
C134	C	1.100614	0.050243	0.418831
C135	C	1.183735	0.006169	0.392081
C136	C	1.189692	-0.030149	0.284968
H137	H	0.972291	0.027420	0.171871
H138	H	0.961924	0.090623	0.358274
H139	H	1.096204	0.077127	0.498123
H140	H	1.240858	0.000427	0.451569
H141	H	1.251225	-0.062775	0.265166
H142	H	1.100406	-0.409939	0.274123
H143	H	1.111919	-0.139709	0.176775
C144	C	1.222442	0.077720	0.464750
C145	C	1.229876	0.073588	0.341065
C146	C	1.304806	0.032513	0.279060
C147	C	1.372303	-0.004430	0.340739
C148	C	1.364871	-0.000299	0.464431
C149	C	1.289940	0.040776	0.526436
H150	H	1.179909	0.100937	0.295401
H151	H	1.310308	0.029455	0.187494
H152	H	1.427771	-0.034836	0.294839
H153	H	1.414838	-0.027648	0.510096
H154	H	1.284439	0.043834	0.618002
