data_functionalizedCrystal
_audit_creation_method	'MofGen! by Chris Wilmer'
_symmetry_space_group_name_H-M	'P1'
_symmetry_Int_Tables_number	1
_symmetry_cell_setting	triclinic
loop_
_symmetry_equiv_pos_as_xyz
  x,y,z
_cell_length_a	19.121112
_cell_length_b	19.120786
_cell_length_c	21.395355
_cell_angle_alpha	87.540705
_cell_angle_beta	87.537879
_cell_angle_gamma	89.915581
loop_
_atom_site_label
_atom_site_type_symbol
_atom_site_fract_x
_atom_site_fract_y
_atom_site_fract_z
Zn1	Zn	1.059895	-0.325008	-0.382160
Zn2	Zn	1.054796	-0.442229	-0.272726
Zn3	Zn	0.942648	-0.319998	-0.273133
Zn4	Zn	0.937624	-0.437203	-0.373205
O5	O	0.998741	-0.381110	-0.325306
O6	O	1.157324	-0.344759	-0.371221
O7	O	1.039887	-0.426021	-0.185100
O8	O	0.962438	-0.222554	-0.291513
O9	O	1.153578	-0.430880	-0.290820
O10	O	1.048579	-0.226235	-0.371616
O11	O	0.957493	-0.336218	-0.185399
O12	O	0.843876	-0.331345	-0.282830
O13	O	0.953875	-0.422314	-0.462072
O14	O	0.840185	-0.417455	-0.356353
O15	O	1.043707	-0.339885	-0.468652
O16	O	1.035016	-0.539671	-0.282136
O17	O	0.948930	-0.535979	-0.355958
C18	C	0.816593	-0.373311	-0.318664
C19	C	0.738668	-0.369992	-0.315837
C20	C	0.990893	-0.563264	-0.318046
C21	C	0.987600	-0.641193	-0.314963
C22	C	0.298040	-0.348934	-0.297931
C23	C	0.371258	-0.352057	-0.300591
C24	C	0.405958	-0.398525	-0.340132
C25	C	0.367436	-0.441868	-0.377021
C26	C	0.294220	-0.438741	-0.374364
C27	C	0.626930	-0.410209	-0.350069
C28	C	0.700152	-0.413334	-0.352721
C29	C	0.703968	-0.323521	-0.276292
C30	C	0.630750	-0.320401	-0.273636
C31	C	0.592235	-0.363742	-0.310527
C32	C	0.480799	-0.401719	-0.342850
C33	C	0.517396	-0.360543	-0.307812
C34	C	1.030869	-0.679660	-0.355251
C35	C	1.027772	-0.752882	-0.352355
C36	C	0.981410	-0.787637	-0.309169
C37	C	0.938136	-0.749166	-0.268879
C38	C	0.941230	-0.675944	-0.271778
C39	C	0.969823	-1.008626	-0.298330
C40	C	0.966734	-1.081853	-0.295433
C41	C	1.056369	-1.085564	-0.378911
C42	C	1.059462	-1.012341	-0.381803
C43	C	1.016186	-0.973876	-0.341516
C44	C	0.978245	-0.862483	-0.306206
C45	C	1.019348	-0.899032	-0.344481
C46	C	1.181600	-0.388939	-0.331974
C47	C	1.259523	-0.392275	-0.334816
C48	C	0.998799	-0.381098	-0.488732
C49	C	0.998824	-0.381093	-0.558374
C50	C	1.006637	-0.198245	-0.332609
C51	C	1.010003	-0.120319	-0.335721
C52	C	1.045598	-0.338170	-0.594514
C53	C	1.045599	-0.338140	-0.659951
C54	C	0.998832	-0.381046	-0.689245
C55	C	0.952049	-0.423971	-0.653096
C56	C	0.952045	-0.423995	-0.587661
C57	C	0.990577	-0.443936	-0.790202
C58	C	0.990585	-0.443914	-0.855636
C59	C	0.998839	-0.380972	-0.891069
C60	C	1.007100	-0.318051	-0.861060
C61	C	1.007096	-0.318075	-0.795624
C62	C	0.998830	-0.381024	-0.760198
C63	C	1.045616	-0.338012	-0.998163
C64	C	1.045612	-0.337981	-1.063601
C65	C	0.952066	-0.423818	-1.056745
C66	C	0.952067	-0.423843	-0.991308
C67	C	0.998846	-0.380942	-0.962021
C68	C	0.998724	-0.381073	-0.162519
C69	C	0.998844	-0.380886	-0.092890
H70	H	0.402615	-0.316766	-0.270553
H71	H	1.083700	-0.303024	-1.093025
H72	H	1.091601	-1.116890	-0.411711
C73	C	0.916319	-1.119459	-0.248523
C74	C	0.879067	-1.070101	-0.213873
C75	C	0.832617	-1.104718	-0.170662
H76	H	0.941867	-1.149157	-0.221031
H77	H	0.884520	-1.146716	-0.270212
H78	H	0.910862	-1.042855	-0.192185
H79	H	0.853505	-1.040400	-0.241348
H80	H	0.800817	-1.131975	-0.192351
H81	H	0.858170	-1.134415	-0.143174
H82	H	0.807331	-1.071234	-0.147150
H83	H	1.083686	-0.303183	-0.689382
C84	C	0.593191	-0.269993	-0.230588
C85	C	0.610354	-0.285924	-0.168627
C86	C	0.575787	-0.239500	-0.128945
H87	H	0.544056	-0.274278	-0.234185
H88	H	0.607247	-0.223404	-0.242100
H89	H	0.596294	-0.332501	-0.157119
H90	H	0.659483	-0.281634	-0.165011
H91	H	0.589843	-0.192911	-0.140457
H92	H	0.526654	-0.243788	-0.132547
H93	H	0.587432	-0.250299	-0.086901
C94	C	0.405077	-0.492231	-0.420059
C95	C	0.387973	-0.476300	-0.482036
C96	C	0.422639	-0.522675	-0.521700
H97	H	0.391072	-0.538835	-0.408590
H98	H	0.454205	-0.487882	-0.416401
H99	H	0.338855	-0.480655	-0.485692
H100	H	0.401978	-0.429703	-0.493524
H101	H	0.471768	-0.518325	-0.518042
H102	H	0.408632	-0.569276	-0.510226
H103	H	0.411044	-0.511868	-0.563756
H104	H	0.934587	-0.977313	-0.265525
C105	C	0.260459	-0.298525	-0.254898
C106	C	0.277598	-0.314434	-0.192926
C107	C	0.243003	-0.268004	-0.153268
H108	H	0.211328	-0.302823	-0.258510
H109	H	0.274509	-0.251937	-0.266416
H110	H	0.263544	-0.361010	-0.181412
H111	H	0.326723	-0.310132	-0.189294
H112	H	0.257053	-0.221416	-0.164786
H113	H	0.193873	-0.272305	-0.156885
H114	H	0.254632	-0.278787	-0.111217
H115	H	1.068625	-0.651367	-0.390416
H116	H	0.913980	-0.458745	-1.080595
C117	C	0.745699	-0.276347	-0.236280
C118	C	0.730869	-0.206244	-0.252134
C119	C	0.769289	-0.162764	-0.215281
H120	H	0.794289	-0.284766	-0.243486
H121	H	0.733220	-0.285981	-0.193316
H122	H	0.743353	-0.196613	-0.295088
H123	H	0.682286	-0.197803	-0.244925
H124	H	0.756810	-0.172398	-0.172317
H125	H	0.817877	-0.171189	-0.222491
H126	H	0.759228	-0.115195	-0.226029
H127	H	0.905995	-0.644626	-0.238972
H128	H	0.509060	-0.439556	-0.375043
H129	H	0.262861	-0.474033	-0.404401
C130	C	0.887871	-0.787027	-0.222010
C131	C	0.894436	-0.859386	-0.228080
C132	C	0.848151	-0.894284	-0.184907
H133	H	0.841234	-0.773135	-0.229856
H134	H	0.898667	-0.775517	-0.180755
H135	H	0.883635	-0.870891	-0.269325
H136	H	0.941063	-0.873298	-0.220229
H137	H	0.858947	-0.882774	-0.143652
H138	H	0.801517	-0.880387	-0.192756
H139	H	0.852603	-0.943383	-0.189015
H140	H	1.083703	-0.303075	-0.974316
H141	H	1.013822	-0.266797	-0.889908
H142	H	1.057094	-0.870732	-0.379647
H143	H	1.063012	-0.784199	-0.385158
H144	H	0.913982	-0.458800	-0.961882
H145	H	0.595579	-0.445503	-0.380106
H146	H	1.097214	-0.984045	-0.416970
H147	H	0.489140	-0.322706	-0.275620
C148	C	1.096410	-0.291510	-0.562835
C149	C	1.137360	-0.253900	-0.608496
C150	C	1.184167	-0.210902	-0.579335
H151	H	1.125862	-0.319569	-0.537367
H152	H	1.070926	-0.259785	-0.537554
H153	H	1.162842	-0.285621	-0.633766
H154	H	1.107927	-0.225827	-0.633967
H155	H	1.158683	-0.179177	-0.554055
H156	H	1.213614	-0.238966	-0.553868
H157	H	1.211953	-0.185373	-0.610312
C158	C	0.737700	-0.463805	-0.395722
C159	C	0.688301	-0.501077	-0.427475
C160	C	0.722866	-0.547567	-0.467096
H161	H	0.764934	-0.495594	-0.371597
H162	H	0.767417	-0.438262	-0.425194
H163	H	0.658597	-0.526618	-0.398007
H164	H	0.661066	-0.469306	-0.451612
H165	H	0.752582	-0.522024	-0.496568
H166	H	0.750098	-0.579352	-0.442967
H167	H	0.689354	-0.572858	-0.488650
C168	C	1.016029	-0.249688	-0.763157
C169	C	1.023242	-0.194554	-0.808186
C170	C	1.031460	-0.131544	-0.778300
H171	H	1.056627	-0.252247	-0.739087
H172	H	0.976102	-0.241780	-0.736416
H173	H	1.063165	-0.202460	-0.834916
H174	H	0.982651	-0.191973	-0.832259
H175	H	0.991533	-0.123636	-0.751559
H176	H	1.072058	-0.134111	-0.754230
H177	H	1.036349	-0.094128	-0.808846
H178	H	0.983864	-0.495148	-0.880065
H179	H	0.983668	-0.495170	-0.761352
C180	C	0.901310	-0.470672	-0.684814
C181	C	0.913566	-0.540696	-0.666687
C182	C	0.866828	-0.583736	-0.695885
H183	H	0.907963	-0.464607	-0.728966
H184	H	0.854634	-0.458439	-0.672754
H185	H	0.960230	-0.552926	-0.678752
H186	H	0.906908	-0.546784	-0.622541
H187	H	0.820153	-0.571502	-0.683825
H188	H	0.873485	-0.577664	-0.740036
H189	H	0.875133	-0.631251	-0.683586
C190	C	0.901293	-0.470529	-0.548310
C191	C	0.911291	-0.461356	-0.484736
C192	C	0.864546	-0.504206	-0.448466
H193	H	0.909473	-0.518096	-0.557463
H194	H	0.854617	-0.458239	-0.557673
H195	H	0.957957	-0.473650	-0.475377
H196	H	0.903106	-0.413798	-0.475564
H197	H	0.817870	-0.491916	-0.457829
H198	H	0.872729	-0.551771	-0.457625
H199	H	0.871319	-0.497984	-0.405328
H200	H	0.940498	-0.890789	-0.271042
