data_functionalizedCrystal
_audit_creation_method	'MofGen! by Chris Wilmer'
_symmetry_space_group_name_H-M	'P1'
_symmetry_Int_Tables_number	1
_symmetry_cell_setting	triclinic
loop_
_symmetry_equiv_pos_as_xyz
  x,y,z
_cell_length_a	27.732048
_cell_length_b	16.109301
_cell_length_c	15.186229
_cell_angle_alpha	89.994833
_cell_angle_beta	90.002148
_cell_angle_gamma	83.052068
loop_
_atom_site_label
_atom_site_type_symbol
_atom_site_fract_x
_atom_site_fract_y
_atom_site_fract_z
O1	O	0.641340	0.098925	-0.073118
O2	O	0.500610	0.113967	-0.073145
O3	O	0.574841	-0.014633	-0.073122
O4	O	0.567109	0.227525	-0.073141
O5	O	0.574836	-0.014634	0.073335
O6	O	0.500605	0.113965	0.073312
O7	O	0.641335	0.098924	0.073339
Zn8	Zn	0.570969	0.106444	0.096579
Zn9	Zn	0.570976	0.106446	-0.096385
O10	O	0.567104	0.227523	0.073316
C11	C	0.574526	-0.045605	0.000107
C12	C	0.573586	-0.137888	0.000108
C13	C	0.482599	0.113650	0.000080
C14	C	0.428940	0.112700	0.000070
C15	C	0.615450	-0.360679	0.000102
C16	C	0.614564	-0.447388	0.000095
C17	C	0.526492	-0.426424	0.000082
C18	C	0.527378	-0.339716	0.000083
C19	C	0.571859	-0.306846	0.000098
C20	C	0.570086	-0.480263	0.000089
C21	C	0.569125	-0.574277	0.000081
C22	C	0.572820	-0.212826	0.000104
C23	C	0.090418	0.182708	0.000103
C24	C	-0.111256	0.179181	0.000111
O25	O	-0.142244	0.243198	0.000144
N26	N	-0.130699	0.102926	0.000115
C27	C	-0.099720	0.027548	0.000124
O28	O	-0.120885	-0.037392	0.000137
C29	C	0.101954	0.031077	0.000122
C30	C	0.121393	0.107336	0.000108
C31	C	0.109859	0.258961	0.000090
C32	C	0.160274	0.259842	0.000083
C33	C	0.191250	0.184470	0.000089
C34	C	0.171809	0.108217	0.000102
C35	C	0.132932	-0.044300	0.000137
C36	C	0.183353	-0.043411	0.000138
C37	C	0.202793	0.032848	0.000125
C38	C	0.253200	0.033726	0.000100
N39	N	0.272643	0.109981	0.000096
C40	C	0.241668	0.185353	0.000090
C41	C	-0.205602	0.025701	0.000123
C42	C	-0.256020	0.024819	0.000122
C43	C	-0.267553	0.176451	0.000111
C44	C	-0.217134	0.177333	0.000106
C45	C	-0.186159	0.101956	0.000118
C46	C	0.347545	0.187197	0.000075
C47	C	0.397965	0.188072	0.000065
C48	C	0.409494	0.036440	0.000080
C49	C	0.359077	0.035565	0.000086
C50	C	0.328104	0.110950	0.000087
O51	O	0.284216	-0.030257	0.000077
O52	O	0.262842	0.250283	0.000097
C53	C	0.040003	0.181827	0.000110
C54	C	0.020562	0.105574	0.000122
C55	C	0.051537	0.030202	0.000128
C56	C	-0.029856	0.104692	0.000121
C57	C	-0.060831	0.180064	0.000115
C58	C	-0.041388	0.256318	0.000111
C59	C	0.009027	0.257199	0.000104
C60	C	0.032095	-0.046052	0.000132
C61	C	-0.018322	-0.046927	0.000138
C62	C	-0.049297	0.028445	0.000133
C63	C	0.659346	0.099240	0.000112
C64	C	0.713005	0.100191	0.000116
C65	C	0.567420	0.258495	0.000085
C66	C	0.568359	0.350779	0.000078
N67	N	0.570969	0.106442	0.228272
N68	N	0.570981	0.106442	-0.228077
C69	C	0.603849	0.049517	0.454005
C70	C	0.603851	0.049515	0.546194
C71	C	0.538096	0.163370	0.546183
C72	C	0.538093	0.163367	0.453995
C73	C	0.570972	0.106442	0.407908
C74	C	0.570977	0.106442	0.592286
C75	C	0.570979	0.106441	0.692242
C76	C	0.570970	0.106442	0.307946
H77	H	0.651670	-0.333920	0.000113
N78	N	-0.276982	-0.057433	0.000136
H79	H	-0.313623	-0.046564	0.000136
H80	H	-0.265651	-0.090388	-0.054152
N81	N	0.502636	0.224766	0.595891
H82	H	0.507627	0.216132	0.661287
H83	H	0.508208	0.283680	0.579767
H84	H	0.434723	-0.024926	0.000082
H85	H	0.630621	0.003164	0.416483
N86	N	0.216757	-0.124717	0.000149
H87	H	0.237931	-0.127737	-0.054144
H88	H	0.237904	-0.127684	0.054476
H89	H	0.630622	0.003161	0.583724
H90	H	0.650061	-0.491216	0.000097
H91	H	0.413790	0.250174	0.000053
N92	N	0.478518	-0.461876	0.000069
H93	H	0.484570	-0.524974	0.000072
H94	H	0.459443	-0.442146	0.054361
H95	H	-0.292781	0.237822	0.000106
N96	N	0.480360	-0.281645	0.000071
H97	H	0.452047	-0.315623	0.000068
H98	H	0.478809	-0.245216	0.054363
N99	N	0.502626	0.224766	0.404276
H100	H	0.508181	0.283711	0.420307
H101	H	0.507628	0.216052	0.338898
N102	N	-0.196165	0.259580	0.000103
H103	H	-0.175504	0.263330	-0.054188
H104	H	-0.223468	0.307144	0.000131
N105	N	-0.039286	-0.129184	0.000147
H106	H	-0.012008	-0.176793	0.000152
H107	H	-0.059948	-0.132851	0.054446
N108	N	0.314142	0.268504	0.000096
H109	H	0.334114	0.316937	0.000093
H110	H	0.292964	0.271458	-0.054189
H111	H	-0.180386	-0.035684	0.000134
H112	H	0.176097	0.321940	0.000072
N113	N	0.076454	0.340262	0.000134
H114	H	0.096428	0.388694	0.000143
H115	H	0.055271	0.343235	-0.054146
H116	H	0.117113	-0.106398	0.000148
H117	H	0.343249	-0.026532	0.000084
H118	H	0.024850	0.319297	0.000094
H119	H	-0.066617	0.317688	0.000103
H120	H	0.057310	-0.107431	0.000139
