data_functionalizedCrystal
_audit_creation_method	'MofGen! by Chris Wilmer'
_symmetry_space_group_name_H-M	'P1'
_symmetry_Int_Tables_number	1
_symmetry_cell_setting	triclinic
loop_
_symmetry_equiv_pos_as_xyz
  x,y,z
_cell_length_a	10.654562
_cell_length_b	10.654551
_cell_length_c	9.730223
_cell_angle_alpha	90.001469
_cell_angle_beta	89.996961
_cell_angle_gamma	84.487733
loop_
_atom_site_label
_atom_site_type_symbol
_atom_site_fract_x
_atom_site_fract_y
_atom_site_fract_z
O1	O	1.667825	0.176469	-0.114371
O2	O	1.302349	0.193259	-0.114353
O3	O	1.493489	0.002125	-0.114363
O4	O	1.476685	0.367603	-0.114361
O5	O	1.493487	0.002130	0.114217
O6	O	1.302347	0.193263	0.114227
O7	O	1.667823	0.176474	0.114209
Zn8	Zn	1.485085	0.184869	0.150510
Zn9	Zn	1.485088	0.184863	-0.150654
O10	O	1.476683	0.367607	0.114219
C11	C	1.255550	0.192025	-0.000061
C12	C	1.116108	0.188327	-0.000054
C13	C	1.050576	0.186604	0.124534
C14	C	0.919554	0.183139	0.124511
C15	C	0.919606	0.183125	-0.124700
C16	C	1.050627	0.186581	-0.124675
C17	C	1.116057	0.188350	0.249155
C18	C	1.050524	0.186629	0.373753
C19	C	0.919502	0.183165	0.373730
C20	C	0.854012	0.181421	0.249109
C21	C	1.492254	-0.044670	-0.000076
C22	C	1.488562	-0.184114	-0.000085
C23	C	1.486831	-0.249629	-0.124682
C24	C	1.483351	-0.380649	-0.124675
C25	C	1.483338	-0.380629	0.124535
C26	C	1.486809	-0.249610	0.124527
C27	C	1.488584	-0.184132	-0.249294
C28	C	1.486854	-0.249647	-0.373901
C29	C	1.483374	-0.380668	-0.373894
C30	C	1.481623	-0.446173	-0.249281
C31	C	1.714622	0.177708	-0.000086
C32	C	1.854064	0.181406	-0.000102
C33	C	1.477918	0.414403	-0.000071
C34	C	1.481610	0.553846	-0.000071
N35	N	1.485092	0.184873	0.356046
N36	N	1.485090	0.184850	-0.356190
C37	C	1.569751	0.100268	0.427968
C38	C	1.569747	0.100253	0.571851
C39	C	1.400422	0.269459	0.571878
C40	C	1.400420	0.269467	0.427998
C41	C	1.654422	0.015674	0.356017
C42	C	1.739089	-0.068937	0.427938
C43	C	1.739086	-0.068952	0.571821
C44	C	1.654415	0.015644	0.643783
H45	H	1.103984	0.187989	-0.226126
H46	H	1.481913	-0.433974	0.225989
C47	C	1.290599	0.301061	0.181332
C48	C	1.260079	0.192146	0.249176
H49	H	1.379512	0.303403	0.181350
H50	H	1.260978	0.300260	0.089298
H51	H	1.252020	0.373386	0.227354
H52	H	1.298650	0.119820	0.203148
H53	H	1.289714	0.192936	0.341227
C54	C	1.562246	0.107827	0.149925
C55	C	1.654433	0.015697	0.197860
H56	H	1.562262	0.107849	0.052286
H57	H	1.481843	0.089867	0.182459
H58	H	1.580128	0.188251	0.182505
H59	H	1.636546	-0.064728	0.165288
H60	H	1.734854	0.033649	0.165311
H61	H	1.808016	-0.137853	0.630379
H62	H	1.103856	0.188040	0.475215
H63	H	1.654411	0.015616	0.760942
C64	C	1.584382	-0.647058	-0.181457
C65	C	1.477780	-0.590192	-0.249290
H66	H	1.582002	-0.735967	-0.181464
H67	H	1.658267	-0.626369	-0.227481
H68	H	1.585158	-0.617419	-0.089413
H69	H	1.477008	-0.619825	-0.341337
H70	H	1.403875	-0.610892	-0.203268
C71	C	1.229756	0.295102	0.733714
C72	C	1.307368	0.362448	0.650980
H73	H	1.172316	0.352515	0.782553
H74	H	1.184127	0.242418	0.677583
H75	H	1.280193	0.244714	0.797132
H76	H	1.256931	0.412829	0.587555
H77	H	1.353000	0.415153	0.707116
H78	H	0.866150	0.181753	0.475184
C79	C	1.382923	-0.089074	0.269059
C80	C	1.488706	-0.177574	0.261477
H81	H	1.384086	-0.044604	0.353610
H82	H	1.384467	-0.031334	0.194844
H83	H	1.308473	-0.131270	0.263887
H84	H	1.563157	-0.135376	0.266639
H85	H	1.487172	-0.235322	0.335712
H86	H	1.331482	0.338359	0.369439
H87	H	1.491421	-0.077449	-0.249313
C88	C	0.718778	0.177836	-0.235386
C89	C	0.847619	0.181225	-0.261676
H90	H	0.674339	0.176675	-0.319953
H91	H	0.706229	0.104166	-0.184206
H92	H	0.688384	0.250384	-0.184187
H93	H	0.878016	0.108672	-0.312866
H94	H	0.860176	0.254903	-0.312878
H95	H	0.747325	0.178596	0.249100
H96	H	1.488267	-0.196303	-0.475356
H97	H	1.481953	-0.434005	-0.475355
C98	C	1.814209	-0.144118	0.207366
C99	C	1.832101	-0.161975	0.348844
H100	H	1.871623	-0.201569	0.158542
H101	H	1.730267	-0.158492	0.183825
H102	H	1.828627	-0.060183	0.183782
H103	H	1.817674	-0.245907	0.372430
H104	H	1.916063	-0.147610	0.372395
