data_functionalizedCrystal
_audit_creation_method	'MofGen! by Chris Wilmer'
_symmetry_space_group_name_H-M	'P1'
_symmetry_Int_Tables_number	1
_symmetry_cell_setting	triclinic
loop_
_symmetry_equiv_pos_as_xyz
  x,y,z
_cell_length_a	17.699083
_cell_length_b	17.699083
_cell_length_c	16.176319
_cell_angle_alpha	90.001389
_cell_angle_beta	90.007696
_cell_angle_gamma	83.283015
loop_
_atom_site_label
_atom_site_type_symbol
_atom_site_fract_x
_atom_site_fract_y
_atom_site_fract_z
O1	O	-0.095713	-1.004079	-0.068632
O2	O	-0.108166	-0.783700	-0.068660
O3	O	0.008250	-0.900116	-0.068638
O4	O	-0.212129	-0.887663	-0.068654
O5	O	0.008257	-0.900100	0.068855
O6	O	-0.108158	-0.783684	0.068834
O7	O	-0.095706	-1.004063	0.068861
Cu8	Cu	-0.101931	-0.893872	0.081401
Cu9	Cu	-0.101940	-0.893891	-0.081200
O10	O	-0.212121	-0.887647	0.068839
C11	C	-0.107716	-0.755495	0.000084
C12	C	-0.106377	-0.671477	0.000073
C13	C	0.036451	-0.899662	0.000109
C14	C	0.120469	-0.898323	0.000109
C15	C	-0.096156	-1.032268	0.000116
C16	C	-0.097494	-1.116286	0.000121
C17	C	-0.240322	-0.888102	0.000091
C18	C	-0.324340	-0.889440	0.000085
C19	C	0.169090	-0.966656	0.000119
C20	C	0.248033	-0.965394	0.000111
C21	C	0.278354	-0.895798	0.000100
C22	C	0.229727	-0.827459	0.000088
C23	C	0.150785	-0.828722	0.000089
C24	C	0.548090	-0.822364	0.000080
C25	C	0.627038	-0.821106	0.000081
C26	C	0.645338	-0.959036	0.000102
C27	C	0.566396	-0.960299	0.000104
C28	C	0.517776	-0.891961	0.000087
C29	C	0.432177	-0.893330	0.000094
C30	C	0.363951	-0.894427	0.000099
N31	N	-0.101925	-0.893864	0.195767
C32	C	-0.174710	-0.622856	0.000069
C33	C	-0.173448	-0.543913	0.000079
C34	C	-0.103852	-0.513592	0.000089
C35	C	-0.035513	-0.562219	0.000096
C36	C	-0.036776	-0.641161	0.000091
C37	C	-0.030418	-0.243856	0.000117
C38	C	-0.029160	-0.164908	0.000120
C39	C	-0.167090	-0.146608	0.000105
C40	C	-0.168353	-0.225550	0.000100
C41	C	-0.100015	-0.274170	0.000112
C42	C	-0.101384	-0.359769	0.000102
C43	C	-0.102481	-0.427995	0.000093
N44	N	-0.101941	-0.893905	-0.195565
C45	C	-0.050397	-0.945429	0.239040
C46	C	-0.050396	-0.945432	0.325588
C47	C	-0.101927	-0.893875	0.368859
C48	C	-0.153457	-0.842305	0.325579
C49	C	-0.153454	-0.842299	0.239034
C50	C	-0.153472	-0.842331	0.674608
C51	C	-0.153473	-0.842344	0.761159
C52	C	-0.050414	-0.945465	0.761161
C53	C	-0.050410	-0.945458	0.674616
C54	C	-0.101937	-0.893886	0.631344
C55	C	-0.101937	-0.893882	0.537499
C56	C	-0.101932	-0.893883	0.462702
H57	H	0.144409	-1.023330	0.000133
H58	H	0.684934	-1.014680	0.000111
H59	H	0.651721	-0.764429	0.000074
Br60	Br	0.482115	-0.729619	0.000053
Br61	Br	0.019519	-1.015457	0.819892
H62	H	-0.229092	-0.504328	0.000075
Br63	Br	-0.223413	-0.772369	0.819886
H64	H	0.287618	-1.021038	0.000121
Br65	Br	0.019537	-1.015409	0.180324
Br66	Br	0.525250	-1.054754	0.000118
H67	H	0.254420	-0.770792	0.000073
H68	H	0.025228	-0.283434	0.000127
H69	H	0.111198	-0.773078	0.000081
H70	H	-0.195428	-0.800341	0.639382
H71	H	-0.195413	-0.800323	0.360816
H72	H	-0.008438	-0.987419	0.360821
Br73	Br	0.019522	-1.015435	0.615892
Br74	Br	-0.223383	-0.772310	0.180305
H75	H	0.027517	-0.140225	0.000128
H76	H	-0.225025	-0.250232	0.000089
H77	H	-0.231384	-0.647537	0.000060
Br78	Br	-0.259837	-0.080619	0.000090
H79	H	0.018868	-0.680748	0.000095
Br80	Br	0.058941	-0.521071	0.000118
