data_functionalizedCrystal
_audit_creation_method	'MofGen! by Chris Wilmer'
_symmetry_space_group_name_H-M	'P1'
_symmetry_Int_Tables_number	1
_symmetry_cell_setting	triclinic
loop_
_symmetry_equiv_pos_as_xyz
  x,y,z
_cell_length_a	18.215405
_cell_length_b	18.215407
_cell_length_c	18.215399
_cell_angle_alpha	90.019833
_cell_angle_beta	90.027541
_cell_angle_gamma	90.023180
loop_
_atom_site_label
_atom_site_type_symbol
_atom_site_fract_x
_atom_site_fract_y
_atom_site_fract_z
Zn1	Zn	-0.292983	1.125083	0.416118
Zn2	Zn	0.207017	1.625083	0.916118
Zn3	Zn	-0.416054	1.124996	0.293053
Zn4	Zn	0.083946	1.624996	0.793053
Zn5	Zn	-0.293007	1.002016	0.293065
Zn6	Zn	0.206993	1.502016	0.793065
Zn7	Zn	-0.416013	1.001986	0.416077
Zn8	Zn	0.083987	1.501986	0.916077
O9	O	-0.354514	1.063520	0.354578
O10	O	0.145486	1.563520	0.854578
O11	O	-0.309316	1.228056	0.399805
O12	O	0.190684	1.728056	0.899805
O13	O	-0.399759	1.108658	0.190070
O14	O	0.100241	1.608658	0.690070
O15	O	-0.190020	1.018389	0.309411
O16	O	0.309980	1.518389	0.809411
O17	O	-0.399736	1.227992	0.309389
O18	O	0.100264	1.727992	0.809389
O19	O	-0.190002	1.108807	0.399817
O20	O	0.309998	1.608807	0.899817
O21	O	-0.309357	1.018305	0.190079
O22	O	0.190643	1.518305	0.690079
O23	O	-0.309317	0.899027	0.309372
O24	O	0.190683	1.399027	0.809372
O25	O	-0.399666	1.018339	0.519067
O26	O	0.100334	1.518339	1.019067
O27	O	-0.399689	0.899006	0.399748
O28	O	0.100311	1.399006	0.899748
O29	O	-0.309276	1.108778	0.519097
O30	O	0.190724	1.608778	1.019097
O31	O	-0.519033	1.108630	0.309350
O32	O	-0.019033	1.608630	0.809350
O33	O	-0.519003	1.018255	0.399736
O34	O	-0.019003	1.518255	0.899736
C35	C	-0.354502	0.872314	0.354557
C36	C	0.145498	1.372314	0.854557
C37	C	-0.354514	0.790515	0.354566
C38	C	0.145486	1.290515	0.854566
C39	C	-0.401645	0.602329	0.401566
C40	C	0.098355	1.102329	0.901566
C41	C	-0.401647	0.525470	0.401575
C42	C	0.098353	1.025470	0.901575
C43	C	-0.307397	0.525463	0.307607
C44	C	0.192603	1.025463	0.807607
C45	C	-0.307392	0.602321	0.307602
C46	C	0.192608	1.102321	0.807602
C47	C	-0.354520	0.640751	0.354580
C48	C	0.145480	1.140751	0.854580
C49	C	-0.354528	0.487035	0.354594
C50	C	0.145472	0.987035	0.854594
C51	C	-0.354530	0.403702	0.354604
C52	C	0.145470	0.903702	0.854604
C53	C	-0.354517	0.724090	0.354572
C54	C	0.145483	1.224090	0.854572
C55	C	-0.545721	1.063450	0.354553
C56	C	-0.045721	1.563450	0.854553
C57	C	-0.627520	1.063487	0.354567
C58	C	-0.127520	1.563487	0.854567
C59	C	-0.815643	1.110589	0.401705
C60	C	-0.315643	1.610589	0.901705
C61	C	-0.892502	1.110616	0.401719
C62	C	-0.392502	1.610616	0.901719
C63	C	-0.892634	1.016542	0.307497
C64	C	-0.392634	1.516542	0.807497
C65	C	-0.815776	1.016512	0.307488
C66	C	-0.315776	1.516512	0.807488
C67	C	-0.777283	1.063540	0.354590
C68	C	-0.277283	1.563540	0.854590
C69	C	-0.930999	1.063597	0.354614
C70	C	-0.430999	1.563597	0.854614
C71	C	-1.014333	1.063625	0.354628
C72	C	-0.514333	1.563625	0.854628
C73	C	-0.693944	1.063511	0.354577
C74	C	-0.193944	1.563511	0.854577
C75	C	-0.162561	1.063611	0.354620
C76	C	0.337439	1.563611	0.854620
C77	C	-0.080763	1.063650	0.354638
C78	C	0.419237	1.563650	0.854638
C79	C	-0.354464	1.063565	0.546531
C80	C	0.145536	1.563565	1.046531
C81	C	-0.354442	1.063584	0.628330
C82	C	0.145558	1.563584	1.128330
C83	C	-0.354528	1.255473	0.354600
C84	C	0.145472	1.755473	0.854600
C85	C	-0.354533	1.337272	0.354609
C86	C	0.145467	1.837272	0.854609
C87	C	-0.354512	1.063518	0.163372
C88	C	0.145488	1.563518	0.663372
C89	C	-0.354326	1.063641	0.081574
C90	C	0.145674	1.563641	0.581574
C91	C	-0.307332	1.110692	0.816541
C92	C	0.192668	1.610692	1.316541
C93	C	-0.307311	1.110701	0.893400
C94	C	0.192689	1.610701	1.393400
C95	C	-0.401438	1.016528	0.893358
C96	C	0.098562	1.516528	1.393358
C97	C	-0.401455	1.016516	0.816500
C98	C	0.098545	1.516516	1.316500
C99	C	-0.354403	1.063602	0.778094
C100	C	0.145597	1.563602	1.278094
C101	C	-0.354365	1.063623	0.931810
C102	C	0.145635	1.563623	1.431810
C103	C	-0.354342	1.063632	1.015144
C104	C	0.145658	1.563632	1.515144
C105	C	-0.354425	1.063592	0.694755
C106	C	0.145575	1.563592	1.194755
H107	H	-0.269028	0.494163	0.269358
H108	H	0.230972	0.994163	0.769358
C109	C	-0.255553	0.644588	0.255915
C110	C	0.244447	1.144588	0.755915
H111	H	-0.227493	0.610694	0.227930
H112	H	0.272507	1.110694	0.727930
H113	H	-0.223522	0.674593	0.284121
H114	H	0.276478	1.174593	0.784121
H115	H	-0.283668	0.674547	0.223797
H116	H	0.216332	1.174547	0.723797
H117	H	-0.923731	1.148927	0.440086
H118	H	-0.423731	1.648927	0.940086
C119	C	-0.453241	0.964719	0.774205
C120	C	0.046759	1.464719	1.274205
H121	H	-0.481270	0.936686	0.808085
H122	H	0.018730	1.436686	1.308085
H123	H	-0.425098	0.932661	0.744222
H124	H	0.074902	1.432661	1.244222
H125	H	-0.485315	0.992861	0.744223
H126	H	0.014685	1.492861	1.244223
C127	C	-0.453198	0.964743	0.935607
C128	C	0.046802	1.464743	1.435607
H129	H	-0.446452	0.971500	0.986887
H130	H	0.053548	1.471500	1.486887
H131	H	-0.442431	0.915299	0.923006
H132	H	0.057569	1.415299	1.423006
H133	H	-0.502649	0.975497	0.922998
H134	H	-0.002649	1.475497	1.422998
C135	C	-0.453483	0.483209	0.453260
C136	C	0.046517	0.983209	0.953260
H137	H	-0.481550	0.517107	0.481233
H138	H	0.018450	1.017107	0.981233
H139	H	-0.425372	0.453252	0.485377
H140	H	0.074628	0.953252	0.985377
H141	H	-0.485518	0.453202	0.425054
H142	H	0.014482	0.953202	0.925054
H143	H	-0.784304	1.148881	0.440060
H144	H	-0.284304	1.648881	0.940060
H145	H	-0.269017	1.149031	0.785273
H146	H	0.230983	1.649031	1.285273
C147	C	-0.934978	0.964823	0.255681
C148	C	-0.434978	1.464823	0.755681
H149	H	-0.986246	0.971584	0.262428
H150	H	-0.486246	1.471584	0.762428
H151	H	-0.922418	0.915364	0.266398
H152	H	-0.422418	1.415364	0.766398
H153	H	-0.922401	0.975627	0.206242
H154	H	-0.422401	1.475627	0.706242
C155	C	-0.773577	0.964757	0.255658
C156	C	-0.273577	1.464757	0.755658
H157	H	-0.807509	0.936760	0.227599
H158	H	-0.307509	1.436760	0.727599
H159	H	-0.743603	0.932664	0.283775
H160	H	-0.243603	1.432664	0.783775
H161	H	-0.743593	0.992923	0.223614
H162	H	-0.243593	1.492923	0.723614
H163	H	-0.440018	0.633617	0.439820
H164	H	0.059982	1.133617	0.939820
C165	C	-0.255536	1.162504	0.935689
C166	C	0.244464	1.662504	1.435689
H167	H	-0.227522	1.190547	0.901805
H168	H	0.272478	1.690547	1.401805
H169	H	-0.223460	1.134374	0.965673
H170	H	0.276540	1.634374	1.465673
H171	H	-0.283688	1.194563	0.965669
H172	H	0.216312	1.694563	1.465669
