data_functionalizedCrystal
_audit_creation_method	'MofGen! by Chris Wilmer'
_symmetry_space_group_name_H-M	'P1'
_symmetry_Int_Tables_number	1
_symmetry_cell_setting	triclinic
loop_
_symmetry_equiv_pos_as_xyz
  x,y,z
_cell_length_a	6.817900
_cell_length_b	11.353964
_cell_length_c	16.306216
_cell_angle_alpha	105.299571
_cell_angle_beta	103.467292
_cell_angle_gamma	107.526751
loop_
_atom_site_label
_atom_site_type_symbol
_atom_site_fract_x
_atom_site_fract_y
_atom_site_fract_z
V1	V	-4.066986	-0.182031	-0.289764
O2	O	-4.012224	0.007694	-0.256889
O3	O	-4.058151	-0.359925	-0.314095
O4	O	-4.017915	-0.179693	-0.404135
O5	O	-4.052738	-0.173785	-0.166225
V6	V	-4.545575	-0.159283	-0.271791
O7	O	-4.339070	-0.231931	-0.329188
O8	O	-4.723689	-0.109384	-0.232367
O9	O	-4.331203	0.018610	-0.247460
O10	O	-4.717734	-0.349009	-0.304666
O11	O	-4.677219	-0.167530	-0.395329
O12	O	-4.371439	-0.161621	-0.157420
C13	C	-3.912799	-0.403277	-0.316313
C14	C	-3.986857	-0.548710	-0.336969
C15	C	-4.054235	-0.745815	-0.291448
C16	C	-3.977695	-0.595503	-0.270101
C17	C	-3.861472	-0.173372	-0.431167
C18	C	-3.902897	-0.172638	-0.524839
C19	C	-4.053267	-0.170002	-0.865204
C20	C	-4.259619	-0.178681	-0.836031
C21	C	-4.216407	-0.178942	-0.738478
C22	C	-3.978668	-0.171310	-0.696345
C23	C	-3.814054	-0.041552	-0.697492
C24	C	-3.858501	-0.040745	-0.794972
C25	C	-3.993550	-0.290620	-0.856804
C26	C	-3.955555	-0.293181	-0.759863
C27	C	-3.936494	-0.172045	-0.600912
C28	C	-4.095429	-0.169258	-0.960635
C29	C	-4.139899	0.061955	-0.245240
C30	C	-4.045079	0.207387	-0.224590
C31	C	-4.191225	-0.167947	-0.130384
C32	C	-4.129038	-0.168674	-0.036710
H33	H	-3.913201	-0.524292	-0.197053
C34	C	-3.727995	-0.295888	-0.723234
N35	N	-3.556585	-0.297917	-0.695642
C36	C	-3.787193	-0.283660	-0.881918
N37	N	-3.631772	-0.278410	-0.900837
C38	C	-3.832378	0.080743	-0.636249
N39	N	-3.846189	0.172852	-0.590121
H40	H	-3.980586	-0.721399	-0.151546
H41	H	-4.051361	-0.619919	-0.410019
H42	H	-4.342513	-0.272211	-0.739310
H43	H	-4.118750	-0.817030	-0.364493
H44	H	-4.307111	-0.092042	-0.840856
C45	C	-4.459163	-0.304262	-0.901172
N46	N	-4.609467	-0.398851	-0.950245
C47	C	-4.251978	-0.061563	-0.680208
N48	N	-4.278759	0.026858	-0.636317
C49	C	-3.907088	0.082515	-0.797350
N50	N	-3.943690	0.175355	-0.799136
C51	C	-4.175913	-0.422349	-0.924569
N52	N	-4.313288	-0.521561	-0.975609
C53	C	-3.648402	-0.024939	-0.818625
N54	N	-3.490151	-0.013023	-0.836434
C55	C	-4.120306	-0.422780	-0.762791
N56	N	-4.244398	-0.520392	-0.764990
H57	H	-3.638030	-0.031247	-0.668489
