data_functionalizedCrystal
_audit_creation_method	'MofGen! by Chris Wilmer'
_symmetry_space_group_name_H-M	'P1'
_symmetry_Int_Tables_number	1
_symmetry_cell_setting	triclinic
loop_
_symmetry_equiv_pos_as_xyz
  x,y,z
_cell_length_a	19.121215
_cell_length_b	14.908977
_cell_length_c	14.908308
_cell_angle_alpha	89.840289
_cell_angle_beta	90.693299
_cell_angle_gamma	90.982182
loop_
_atom_site_label
_atom_site_type_symbol
_atom_site_fract_x
_atom_site_fract_y
_atom_site_fract_z
Zn1	Zn	1.064014	0.332669	-0.549363
Zn2	Zn	1.077377	0.473680	-0.391110
Zn3	Zn	0.953472	0.329703	-0.392620
Zn4	Zn	0.954212	0.488617	-0.534290
O5	O	1.012268	0.406167	-0.466846
O6	O	1.163593	0.346365	-0.534047
O7	O	1.066223	0.447088	-0.265791
O8	O	0.962233	0.204577	-0.420353
O9	O	1.173411	0.449964	-0.417779
O10	O	1.043448	0.206756	-0.535511
O11	O	0.975191	0.341309	-0.266901
O12	O	0.855763	0.355793	-0.405736
O13	O	0.963495	0.475422	-0.661808
O14	O	0.856307	0.472546	-0.509821
O15	O	1.044165	0.360848	-0.672883
O16	O	1.066941	0.601180	-0.403163
O17	O	0.976452	0.612154	-0.508357
C18	C	0.830675	0.415469	-0.456307
C19	C	0.752988	0.419472	-0.451819
C20	C	1.023245	0.639213	-0.453981
C21	C	1.028004	0.738910	-0.448511
C22	C	0.313863	0.444811	-0.423422
C23	C	0.386858	0.441045	-0.427633
C24	C	0.418246	0.385322	-0.490361
C25	C	0.376636	0.333356	-0.548876
C26	C	0.303642	0.337117	-0.544661
C27	C	0.638384	0.371267	-0.506118
C28	C	0.711383	0.367511	-0.510331
C29	C	0.721600	0.475199	-0.389086
C30	C	0.648605	0.478960	-0.384880
C31	C	0.607001	0.426990	-0.443392
C32	C	0.492859	0.381474	-0.494669
C33	C	0.532390	0.430834	-0.439080
C34	C	0.942638	0.937741	-0.547666
C35	C	0.947107	1.031415	-0.542529
C36	C	1.041406	1.019934	-0.433097
C37	C	1.036937	0.926260	-0.438233
C38	C	0.987552	0.885167	-0.495521
C39	C	0.983087	0.791491	-0.500662
C40	C	1.077383	0.780012	-0.391225
C41	C	1.081852	0.873686	-0.386088
C42	C	1.194571	0.396829	-0.477426
C43	C	1.272258	0.392850	-0.481935
C44	C	1.002422	0.420132	-0.700801
C45	C	0.998226	0.426083	-0.800499
C46	C	1.001245	1.172212	-0.479770
C47	C	0.996490	1.072515	-0.485248
C48	C	1.074341	0.317940	-0.999377
C49	C	1.070401	0.323528	-1.093052
C50	C	0.986402	0.442844	-1.081527
C51	C	0.990342	0.437255	-0.987852
C52	C	1.034314	0.374802	-0.946780
C53	C	1.038258	0.369219	-0.853103
C54	C	0.954255	0.488529	-0.841580
C55	C	0.950315	0.494118	-0.935255
C56	C	1.022114	0.392189	-0.233806
C57	C	1.026433	0.385979	-0.134131
H58	H	0.288313	0.490191	-0.372346
H59	H	0.910534	1.074218	-0.584994
H60	H	1.102993	0.277222	-1.135873
O61	O	0.907546	0.554807	-0.975012
C62	C	0.824687	0.672608	-0.953692
C63	C	0.873079	0.603900	-0.908555
H64	H	0.796818	0.712331	-0.899982
H65	H	0.784311	0.635967	-0.997673
H66	H	0.857150	0.720438	-0.996846
H67	H	0.840674	0.556052	-0.865356
H68	H	0.913457	0.640600	-0.864627
O69	O	1.089292	1.060004	-0.377439
C70	C	1.137786	1.199228	-0.320784
C71	C	1.083574	1.153967	-0.383925
H72	H	1.133171	1.275204	-0.325992
H73	H	1.192646	1.178926	-0.340764
H74	H	1.127641	1.177051	-0.248795
H75	H	1.093653	1.176121	-0.455934
H76	H	1.028731	1.174269	-0.363869
O77	O	0.943786	0.503586	-1.121479
C78	C	0.935610	0.631417	-1.220081
C79	C	0.983956	0.562702	-1.174872
H80	H	0.968066	0.679219	-1.263274
H81	H	0.907683	0.671172	-1.166443
H82	H	0.895274	0.594685	-1.264045
H83	H	1.024331	0.599363	-1.130913
H84	H	1.011831	0.522950	-1.228555
O85	O	0.894638	0.897716	-0.603196
C86	C	0.794695	0.797652	-0.615485
C87	C	0.849023	0.842900	-0.552496
H88	H	0.757792	0.753338	-0.574517
H89	H	0.822645	0.754841	-0.666675
H90	H	0.763397	0.851340	-0.651897
H91	H	0.880336	0.789272	-0.516023
H92	H	0.821030	0.885730	-0.501363
H93	H	0.420730	0.483355	-0.379984
O94	O	1.129794	0.913752	-0.330507
C95	C	1.178422	1.052972	-0.274024
C96	C	1.124110	1.007717	-0.337029
H97	H	1.173836	1.128950	-0.279262
H98	H	1.233246	1.032617	-0.294108
H99	H	1.168360	1.030843	-0.202000
H100	H	1.134107	1.029824	-0.409071
H101	H	1.069305	1.028072	-0.316868
O102	O	1.120941	0.728807	-0.340598
C103	C	1.155883	0.579410	-0.300056
C104	C	1.106500	0.637291	-0.357419
H105	H	1.144234	0.505409	-0.313649
H106	H	1.147580	0.594110	-0.225977
H107	H	1.212435	0.595872	-0.318121
H108	H	1.049929	0.620863	-0.339432
H109	H	1.114863	0.622583	-0.431483
O110	O	0.915394	0.543676	-0.790354
C111	C	0.884276	0.587995	-0.640934
C112	C	0.928306	0.525471	-0.698840
H113	H	0.894711	0.573311	-0.566934
H114	H	0.826388	0.576231	-0.656882
H115	H	0.899171	0.660782	-0.656127
H116	H	0.913472	0.452661	-0.683680
H117	H	0.986183	0.537312	-0.682883
O118	O	0.741988	0.313451	-0.571238
C119	C	0.849913	0.259897	-0.631422
C120	C	0.815344	0.321167	-0.562421
H121	H	0.909226	0.266100	-0.624304
H122	H	0.833332	0.280810	-0.702043
H123	H	0.832764	0.187364	-0.618958
H124	H	0.832475	0.393717	-0.574802
H125	H	0.831924	0.300178	-0.491823
O126	O	0.618229	0.533101	-0.323860
C127	C	0.636069	0.639549	-0.204075
C128	C	0.670560	0.578255	-0.273121
H129	H	0.678362	0.676086	-0.163047
H130	H	0.601935	0.597294	-0.157488
H131	H	0.602367	0.690693	-0.240625
H132	H	0.704296	0.527100	-0.236647
H133	H	0.704652	0.620568	-0.319705
O134	O	0.501870	0.485068	-0.378269
C135	C	0.425643	0.609622	-0.354573
C136	C	0.460182	0.548277	-0.423533
H137	H	0.391919	0.660730	-0.391141
H138	H	0.467886	0.646190	-0.313484
H139	H	0.391515	0.567311	-0.308030
H140	H	0.494306	0.590522	-0.470134
H141	H	0.417905	0.511704	-0.464557
H142	H	0.755482	0.517510	-0.341449
H143	H	0.604518	0.328953	-0.553767
H144	H	0.269768	0.294802	-0.592305
O145	O	0.407237	0.279303	-0.609783
C146	C	0.515157	0.225744	-0.669980
C147	C	0.480594	0.287011	-0.600971
H148	H	0.574471	0.231941	-0.662867
H149	H	0.498574	0.246666	-0.740599
H150	H	0.498004	0.153212	-0.657522
H151	H	0.497729	0.359561	-0.613346
H152	H	0.497176	0.266014	-0.530377
O153	O	1.080981	0.308476	-0.813348
C154	C	1.163907	0.190752	-0.834670
C155	C	1.115540	0.259492	-0.879805
H156	H	1.191872	0.151143	-0.888380
H157	H	1.131484	0.142822	-0.791574
H158	H	1.204210	0.227453	-0.790632
H159	H	1.075229	0.222866	-0.923888
H160	H	1.148009	0.307419	-0.922847
H161	H	0.518423	0.336107	-0.545744
H162	H	1.110148	0.267092	-0.965936
H163	H	0.942877	0.758034	-0.547310
