data_functionalizedCrystal
_audit_creation_method	'MofGen! by Chris Wilmer'
_symmetry_space_group_name_H-M	'P1'
_symmetry_Int_Tables_number	1
_symmetry_cell_setting	triclinic
loop_
_symmetry_equiv_pos_as_xyz
  x,y,z
_cell_length_a	10.654562
_cell_length_b	13.101018
_cell_length_c	10.654554
_cell_angle_alpha	86.607974
_cell_angle_beta	84.488424
_cell_angle_gamma	93.397898
loop_
_atom_site_label
_atom_site_type_symbol
_atom_site_fract_x
_atom_site_fract_y
_atom_site_fract_z
O1	O	1.674697	0.085281	0.169603
O2	O	1.309219	0.085268	0.186394
O3	O	1.500358	0.085270	-0.004740
O4	O	1.483558	0.085280	0.360737
O5	O	1.486628	-0.085161	0.008986
O6	O	1.295490	-0.085162	0.200119
O7	O	1.660967	-0.085149	0.183329
Zn8	Zn	1.476048	-0.112215	0.193903
Zn9	Zn	1.494138	0.112334	0.175819
O10	O	1.469829	-0.085151	0.374462
C11	C	1.255557	0.000052	0.192021
C12	C	1.116114	0.000047	0.188323
N13	N	1.463712	-0.265464	0.206244
C14	C	1.043100	-0.092847	0.194079
C15	C	0.912079	-0.092830	0.190613
C16	C	0.927098	0.092983	0.175639
C17	C	1.058117	0.092964	0.179096
C18	C	1.101096	-0.185765	0.203305
C19	C	1.028081	-0.278666	0.209064
C20	C	0.897060	-0.278649	0.205597
C21	C	0.839054	-0.185731	0.196373
C22	C	1.523262	-0.525373	0.146673
C23	C	1.446938	-0.474501	0.223036
C24	C	1.456274	-0.358182	0.213691
C25	C	1.513928	-0.641703	0.156016
C26	C	1.714630	0.000070	0.177702
C27	C	1.854073	0.000082	0.181399
C28	C	1.492258	0.000055	-0.044675
C29	C	1.488564	0.000058	-0.184118
N30	N	1.506484	0.265583	0.163468
C31	C	1.597638	0.000074	-0.394623
C32	C	1.601109	0.000064	-0.263601
C33	C	1.372540	0.000051	-0.235663
C34	C	1.369069	0.000054	-0.366683
C35	C	1.710191	0.000091	-0.474100
C36	C	1.826216	0.000096	-0.422565
C37	C	1.829687	0.000086	-0.291542
C38	C	1.717133	0.000071	-0.212056
C39	C	1.477928	0.000066	0.414397
C40	C	1.481623	0.000071	0.553840
H41	H	1.075319	-0.354317	0.216564
C42	C	1.349204	-0.533666	0.320850
H43	H	1.302542	-0.486449	0.367532
H44	H	1.391575	-0.575512	0.376822
H45	H	1.293185	-0.575531	0.278532
C46	C	1.950013	0.000112	-0.509992
H47	H	1.931334	0.000128	-0.595406
H48	H	1.992756	-0.059318	-0.489485
H49	H	2.002320	0.059555	-0.499034
C50	C	1.621009	-0.466204	0.048889
H51	H	1.614546	-0.394655	0.055370
H52	H	1.605222	-0.483721	-0.033666
H53	H	1.703576	-0.483713	0.064661
C54	C	1.138436	0.195145	0.172775
H55	H	1.085130	0.250486	0.166805
H56	H	1.198789	0.198998	0.100707
H57	H	1.180926	0.198997	0.246933
H58	H	1.707378	0.000102	-0.580787
C59	C	1.957301	0.000081	-0.234847
H60	H	1.943252	0.000064	-0.145433
H61	H	2.008478	0.059516	-0.266836
H62	H	1.998896	-0.059357	-0.257283
H63	H	1.719968	0.000051	-0.105369
H64	H	1.280905	0.000039	-0.170936
H65	H	1.207778	-0.185789	0.206133
C66	C	1.241457	0.000063	-0.423380
H67	H	1.174923	0.000070	-0.357284
H68	H	1.230560	-0.059366	-0.469133
H69	H	1.240152	0.059507	-0.478688
H70	H	0.879858	0.168632	0.168132
H71	H	0.837616	-0.354294	0.210276
H72	H	0.732368	-0.185725	0.193548
