data_functionalizedCrystal
_audit_creation_method	'MofGen! by Chris Wilmer'
_symmetry_space_group_name_H-M	'P1'
_symmetry_Int_Tables_number	1
_symmetry_cell_setting	triclinic
loop_
_symmetry_equiv_pos_as_xyz
  x,y,z
_cell_length_a	11.169417
_cell_length_b	12.759399
_cell_length_c	12.759393
_cell_angle_alpha	89.969094
_cell_angle_beta	89.980914
_cell_angle_gamma	90.016365
loop_
_atom_site_label
_atom_site_type_symbol
_atom_site_fract_x
_atom_site_fract_y
_atom_site_fract_z
Zn1	Zn	1.834917	-0.418180	-0.593965
Zn2	Zn	2.334917	0.081820	-0.093965
Zn3	Zn	1.834792	-0.593896	-0.418284
Zn4	Zn	2.334792	-0.093896	0.081716
Zn5	Zn	1.634205	-0.418236	-0.418306
Zn6	Zn	2.134205	0.081764	0.081694
Zn7	Zn	1.634194	-0.593822	-0.593927
Zn8	Zn	2.134194	-0.093822	-0.093927
O9	O	1.734527	-0.506033	-0.506121
O10	O	2.234527	-0.006033	-0.006121
O11	O	2.002850	-0.441498	-0.570668
O12	O	2.502850	0.058502	-0.070668
O13	O	1.808135	-0.570648	-0.271266
O14	O	2.308135	-0.070648	0.228734
O15	O	1.660887	-0.271207	-0.441633
O16	O	2.160887	0.228793	0.058367
O17	O	2.002758	-0.570595	-0.441595
O18	O	2.502758	-0.070595	0.058405
O19	O	1.808350	-0.271167	-0.570689
O20	O	2.308350	0.228833	-0.070689
O21	O	1.660765	-0.441591	-0.271282
O22	O	2.160765	0.058409	0.228718
O23	O	1.466254	-0.441519	-0.441596
O24	O	1.966254	0.058481	0.058404
O25	O	1.660869	-0.570468	-0.740953
O26	O	2.160869	-0.070468	-0.240953
O27	O	1.466246	-0.570522	-0.570624
O28	O	1.966246	-0.070522	-0.070624
O29	O	1.808339	-0.441426	-0.740981
O30	O	2.308339	0.058574	-0.240981
O31	O	1.808125	-0.740907	-0.441558
O32	O	2.308125	-0.240907	0.058442
O33	O	1.660747	-0.740853	-0.570602
O34	O	2.160747	-0.240853	-0.070602
C35	C	1.734453	-0.779001	-0.506097
C36	C	2.234453	-0.279001	-0.006097
C37	C	1.734532	-0.895777	-0.506122
C38	C	2.234532	-0.395777	-0.006122
C39	C	1.422702	-0.506019	-0.506109
C40	C	1.922702	-0.006019	-0.006109
C41	C	1.289302	-0.506039	-0.506128
C42	C	1.789302	-0.006039	-0.006128
C43	C	1.811359	-0.950633	-0.439005
C44	C	2.311359	-0.450633	0.060995
C45	C	1.811436	-1.060357	-0.439040
C46	C	2.311436	-0.560357	0.060960
C47	C	1.657848	-1.060360	-0.573312
C48	C	2.157848	-0.560360	-0.073312
C49	C	1.657778	-0.950638	-0.573281
C50	C	2.157778	-0.450638	-0.073281
C51	C	2.047569	-0.506048	-0.506133
C52	C	2.547569	-0.006048	-0.006133
C53	C	2.180969	-0.506055	-0.506139
C54	C	2.680969	-0.006055	-0.006139
C55	C	1.734617	-0.505933	-0.780154
C56	C	2.234617	-0.005933	-0.280154
C57	C	1.734655	-0.505890	-0.896931
C58	C	2.234655	-0.005890	-0.396931
C59	C	1.734634	-0.232000	-0.506168
C60	C	2.234634	0.268000	-0.006168
C61	C	1.734679	-0.115223	-0.506188
C62	C	2.234679	0.384777	-0.006188
C63	C	1.811449	-0.438686	-0.951809
C64	C	2.311449	0.061314	-0.451809
C65	C	1.811469	-0.438641	-1.061533
C66	C	2.311469	0.061359	-0.561533
C67	C	1.657899	-0.573011	-1.061491
C68	C	2.157899	-0.073011	-0.561491
C69	C	1.657873	-0.573051	-0.951769
C70	C	2.157873	-0.073051	-0.451769
C71	C	1.734507	-0.506058	-0.233153
C72	C	2.234507	-0.006058	0.266847
C73	C	1.734701	-0.505805	-0.116377
C74	C	2.234701	-0.005805	0.383623
H75	H	1.873998	-1.105015	-0.384388
H76	H	2.373998	-0.605015	0.115612
H77	H	1.873858	-0.905968	-0.384321
H78	H	2.373858	-0.405968	0.115679
H79	H	1.595356	-1.105041	-0.627989
H80	H	2.095356	-0.605041	-0.127989
N81	N	1.574899	-0.891467	-0.645668
N82	N	2.074899	-0.391467	-0.145668
H83	H	1.586506	-0.813635	-0.635458
H84	H	2.086506	-0.313635	-0.135458
H85	H	1.593545	-0.910568	-0.720723
H86	H	2.093545	-0.410568	-0.220723
H87	H	1.873966	-0.383996	-0.907163
H88	H	2.373966	0.116004	-0.407163
N89	N	1.575106	-0.645460	-1.120642
N90	N	2.075106	-0.145460	-0.620642
H91	H	1.526453	-0.688039	-1.069224
H92	H	2.026453	-0.188039	-0.569224
H93	H	1.519593	-0.602678	-1.166172
H94	H	2.019593	-0.102678	-0.666172
H95	H	1.595330	-0.627775	-0.907086
H96	H	2.095330	-0.127775	-0.407086
H97	H	1.874000	-0.383915	-1.106210
H98	H	2.374000	0.116085	-0.606210
