data_functionalizedCrystal
_audit_creation_method	'MofGen! by Chris Wilmer'
_symmetry_space_group_name_H-M	'P1'
_symmetry_Int_Tables_number	1
_symmetry_cell_setting	triclinic
loop_
_symmetry_equiv_pos_as_xyz
  x,y,z
_cell_length_a	12.827893
_cell_length_b	19.120786
_cell_length_c	12.827885
_cell_angle_alpha	92.476068
_cell_angle_beta	90.019272
_cell_angle_gamma	92.465365
loop_
_atom_site_label
_atom_site_type_symbol
_atom_site_fract_x
_atom_site_fract_y
_atom_site_fract_z
Zn1	Zn	1.579850	-0.279595	0.573054
Zn2	Zn	2.079850	0.220405	1.073054
Zn3	Zn	1.572257	-0.397069	0.390838
Zn4	Zn	2.072257	0.102931	0.890838
Zn5	Zn	1.405089	-0.279629	0.398326
Zn6	Zn	1.905089	0.220371	0.898326
Zn7	Zn	1.397592	-0.397017	0.565541
Zn8	Zn	1.897592	0.102983	1.065541
O9	O	1.488697	-0.338327	0.481940
O10	O	1.988697	0.161673	0.981940
O11	O	1.725078	-0.295185	0.548894
O12	O	2.225078	0.204815	1.048894
O13	O	1.550041	-0.381527	0.245593
O14	O	2.050041	0.118473	0.745593
O15	O	1.434586	-0.181334	0.427782
O16	O	1.934586	0.318666	0.927782
O17	O	1.719499	-0.381493	0.415020
O18	O	2.219499	0.118507	0.915020
O19	O	1.562982	-0.181308	0.556154
O20	O	2.062982	0.318692	1.056154
O21	O	1.427224	-0.295244	0.251094
O22	O	1.927224	0.204756	0.751094
O23	O	1.257859	-0.295194	0.420497
O24	O	1.757859	0.204806	0.920497
O25	O	1.421810	-0.381405	0.712776
O26	O	1.921810	0.118595	1.212776
O27	O	1.252351	-0.381438	0.543349
O28	O	1.752351	0.118562	1.043349
O29	O	1.555713	-0.295135	0.718296
O30	O	2.055713	0.204865	1.218296
O31	O	1.542772	-0.495353	0.407735
O32	O	2.042772	0.004647	0.907735
O33	O	1.414447	-0.495315	0.536089
O34	O	1.914447	0.004685	1.036089
C35	C	1.217188	-0.338314	0.481921
C36	C	1.717188	0.161686	0.981921
C37	C	1.101034	-0.338326	0.481936
C38	C	1.601034	0.161674	0.981936
C39	C	1.052005	-0.295694	0.548275
C40	C	1.552005	0.204306	1.048275
C41	C	0.931954	-0.295704	0.548293
C42	C	1.431954	0.204296	1.048293
C43	C	1.477000	-0.520820	0.470307
C44	C	1.977000	-0.020820	0.970307
C45	C	1.472092	-0.598890	0.465365
C46	C	1.972092	-0.098890	0.965365
C47	C	1.536585	-0.635495	0.529935
C48	C	2.036585	-0.135495	1.029935
C49	C	1.531969	-0.708851	0.525293
C50	C	2.031969	-0.208851	1.025293
C51	C	1.462865	-0.745601	0.456077
C52	C	1.962865	-0.245601	0.956077
C53	C	1.398365	-0.708991	0.391505
C54	C	1.898365	-0.208991	0.891505
C55	C	1.402976	-0.635637	0.396152
C56	C	1.902976	-0.135637	0.896152
C57	C	1.445595	-0.967088	0.438703
C58	C	1.945595	-0.467088	0.938703
C59	C	1.440990	-1.040448	0.434058
C60	C	1.940990	-0.540448	0.934058
C61	C	1.574594	-1.040302	0.567849
C62	C	2.074594	-0.540302	1.067849
C63	C	1.579204	-0.966946	0.572485
C64	C	2.079204	-0.466946	1.072485
C65	C	1.514700	-0.930343	0.507918
C66	C	2.014700	-0.430343	1.007918
C67	C	1.458147	-0.820582	0.451328
C68	C	1.958147	-0.320582	0.951328
C69	C	1.519413	-0.855362	0.512672
C70	C	2.019413	-0.355362	1.012672
C71	C	1.761266	-0.338341	0.481960
C72	C	2.261266	0.161659	0.981960
C73	C	1.877419	-0.338347	0.481968
C74	C	2.377419	0.161653	0.981968
C75	C	1.488772	-0.338260	0.754514
C76	C	1.988772	0.161740	1.254514
C77	C	1.488804	-0.338231	0.870670
C78	C	1.988804	0.161769	1.370670
C79	C	1.500468	-0.155123	0.493641
C80	C	2.000468	0.344877	0.993641
C81	C	1.505483	-0.077052	0.498627
C82	C	2.005483	0.422948	0.998627
C83	C	1.488685	-0.338344	0.210429
C84	C	1.988685	0.161656	0.710429
C85	C	1.488868	-0.338175	0.094287
C86	C	1.988868	0.161825	0.594287
C87	C	1.555072	-0.295534	0.925186
C88	C	2.055072	0.204466	1.425186
C89	C	1.555106	-0.295503	1.045239
C90	C	2.055106	0.204497	1.545239
H91	H	1.592862	-0.605577	0.586294
H92	H	2.092862	-0.105577	1.086294
C93	C	1.595428	-0.814935	0.588806
C94	C	2.095428	-0.314935	1.088806
N95	N	1.652687	-0.784478	0.646146
N96	N	2.152687	-0.284478	1.146146
H97	H	0.919586	-0.374851	0.425175
H98	H	1.419586	0.125149	0.925175
C99	C	1.115362	-0.246370	0.624985
C100	C	1.615362	0.253630	1.124985
N101	N	1.163081	-0.209218	0.682765
N102	N	1.663081	0.290782	1.182765
C103	C	1.655244	-0.926526	0.648610
C104	C	2.155244	-0.426526	1.148610
N105	N	1.712527	-0.896081	0.705939
N106	N	2.212527	-0.396081	1.205939
C107	C	1.332029	-0.595373	0.325120
C108	C	1.832029	-0.095373	0.825120
N109	N	1.278587	-0.565047	0.271618
N110	N	1.778587	-0.065047	0.771618
H111	H	1.432135	-0.374734	1.047421
H112	H	1.932135	0.125266	1.547421
H113	H	1.432090	-0.374759	0.912874
H114	H	1.932090	0.125241	1.412874
H115	H	1.611843	-0.258951	1.092111
H116	H	2.111843	0.241049	1.592111
H117	H	0.889779	-0.259208	0.605091
H118	H	1.389779	0.240792	1.105091
C119	C	1.374614	-0.926834	0.367699
C120	C	1.874614	-0.426834	0.867699
N121	N	1.321138	-0.896513	0.314225
N122	N	1.821138	-0.396513	0.814225
H123	H	1.054133	-0.374831	0.425152
H124	H	1.554133	0.125169	0.925152
H125	H	1.342094	-0.738919	0.335151
H126	H	1.842094	-0.238919	0.835151
H127	H	1.627109	-1.070112	0.620417
H128	H	2.127109	-0.570112	1.120417
C129	C	1.364962	-1.080871	0.357915
C130	C	1.864962	-0.580871	0.857915
N131	N	1.307701	-1.111319	0.300567
N132	N	1.807701	-0.611319	0.800567
H133	H	1.584495	-0.738650	0.577864
H134	H	2.084495	-0.238650	1.077864
H135	H	1.401885	-0.850513	0.394969
H136	H	1.901885	-0.350513	0.894969
C137	C	1.631682	-0.246177	0.868175
C138	C	2.131682	0.253823	1.368175
N139	N	1.689387	-0.208999	0.825236
N140	N	2.189387	0.291001	1.325236
