data_functionalizedCrystal
_audit_creation_method	'MofGen! by Chris Wilmer'
_symmetry_space_group_name_H-M	'P1'
_symmetry_Int_Tables_number	1
_symmetry_cell_setting	triclinic
loop_
_symmetry_equiv_pos_as_xyz
  x,y,z
_cell_length_a	10.654550
_cell_length_b	14.519709
_cell_length_c	9.130313
_cell_angle_alpha	89.997798
_cell_angle_beta	89.996220
_cell_angle_gamma	84.082524
loop_
_atom_site_label
_atom_site_type_symbol
_atom_site_fract_x
_atom_site_fract_y
_atom_site_fract_z
O1	O	1.666589	0.129528	-0.121923
O2	O	1.300991	0.141869	-0.121900
O3	O	1.493483	0.001510	-0.121899
O4	O	1.474097	0.269887	-0.121924
O5	O	1.493481	0.001514	0.121700
O6	O	1.300989	0.141873	0.121699
O7	O	1.666586	0.129532	0.121676
Cu8	Cu	1.483787	0.135703	0.143930
Cu9	Cu	1.483790	0.135698	-0.144154
O10	O	1.474094	0.269891	0.121675
C11	C	1.254201	0.140965	-0.000098
C12	C	1.114784	0.138254	-0.000088
C13	C	1.034504	0.220895	-0.000117
C14	C	0.903507	0.218342	-0.000143
C15	C	0.933085	0.050500	-0.000116
C16	C	1.064078	0.053054	-0.000080
C17	C	1.017426	0.317797	-0.000139
C18	C	0.886430	0.315244	-0.000164
C19	C	1.492579	-0.032852	-0.000099
C20	C	1.489871	-0.135247	-0.000098
C21	C	1.479904	-0.510195	-0.000136
C22	C	1.482672	-0.405873	-0.000125
C23	C	1.484887	-0.322725	-0.000116
C24	C	1.487656	-0.218396	-0.000108
C25	C	1.713377	0.130436	-0.000130
C26	C	1.852794	0.133147	-0.000149
C27	C	1.474999	0.304253	-0.000128
C28	C	1.477707	0.406648	-0.000139
N29	N	1.483795	0.135705	0.346552
N30	N	1.483793	0.135688	-0.346777
C31	C	1.569052	0.073576	0.423205
C32	C	1.569048	0.073565	0.576542
C33	C	1.398527	0.197821	0.576560
C34	C	1.398525	0.197827	0.423226
C35	C	1.667505	0.001840	0.423195
C36	C	1.667502	0.001829	0.576532
H37	H	0.844347	0.351754	-0.102121
O38	O	1.315581	0.258197	0.650817
C39	C	1.146493	0.381477	0.634650
C40	C	1.240344	0.313135	0.550377
H41	H	1.085658	0.425925	0.553481
H42	H	1.083588	0.341269	0.706392
H43	H	1.200826	0.427877	0.706482
H44	H	1.186114	0.266719	0.478465
H45	H	1.303248	0.353401	0.478727
H46	H	0.840476	0.344531	0.105001
O47	O	1.642661	-0.082760	0.373786
C48	C	1.597564	-0.236951	0.437814
C49	C	1.625658	-0.141182	0.493969
H50	H	1.583835	-0.284217	0.534952
H51	H	1.508095	-0.229194	0.368510
H52	H	1.680060	-0.268358	0.368388
H53	H	1.543239	-0.109721	0.563455
H54	H	1.715170	-0.148998	0.563192
O55	O	1.782499	0.020516	0.626261
C56	C	1.966305	-0.032843	0.768377
C57	C	1.836114	-0.054132	0.712127
H58	H	2.009680	-0.093174	0.837836
H59	H	2.030638	-0.022342	0.671327
H60	H	1.954936	0.032791	0.837696
H61	H	1.847363	-0.119774	0.642832
H62	H	1.771828	-0.064575	0.809242
O63	O	1.142117	-0.027197	0.000218
C64	C	1.307201	-0.121683	0.126439
C65	C	1.218872	-0.030772	0.126301
H66	H	1.369297	-0.124594	0.228351
H67	H	1.248521	-0.183050	0.126529
H68	H	1.369237	-0.124679	0.024464
H69	H	1.156817	-0.027686	0.228259
H70	H	1.277627	0.030553	0.126135
O71	O	0.883617	-0.032180	-0.000181
C72	C	0.694924	-0.110502	-0.000125
C73	C	0.750773	-0.016802	-0.000083
H74	H	0.587512	-0.098101	-0.000015
H75	H	0.727903	-0.151401	-0.102084
H76	H	0.728025	-0.151378	0.101808
H77	H	0.717697	0.024150	-0.101947
H78	H	0.717799	0.024027	0.101943
O79	O	1.051785	0.362996	0.121587
C80	C	0.982760	0.442893	0.343246
C81	C	0.943678	0.391710	0.205474
H82	H	0.895375	0.466140	0.411091
H83	H	1.050690	0.394479	0.411345
H84	H	1.031154	0.506014	0.309235
H85	H	0.895232	0.328591	0.239355
H86	H	0.875805	0.440187	0.137409
O87	O	1.776127	0.028612	0.366677
C88	C	1.980168	0.079046	0.417549
C89	C	1.857233	0.048720	0.481752
H90	H	2.045765	0.095330	0.510555
H91	H	2.028420	0.020859	0.347319
H92	H	1.957286	0.143468	0.347223
H93	H	1.880006	-0.015682	0.552143
H94	H	1.809015	0.106962	0.551898
H95	H	1.052786	0.348651	-0.105314
H96	H	1.637633	-0.065157	0.624088
H97	H	1.329091	0.248409	0.360817
