data_functionalizedCrystal
_audit_creation_method	'MofGen! by Chris Wilmer'
_symmetry_space_group_name_H-M	'P1'
_symmetry_Int_Tables_number	1
_symmetry_cell_setting	triclinic
loop_
_symmetry_equiv_pos_as_xyz
  x,y,z
_cell_length_a	14.044220
_cell_length_b	17.038272
_cell_length_c	13.101039
_cell_angle_alpha	93.604737
_cell_angle_beta	86.340132
_cell_angle_gamma	92.150217
loop_
_atom_site_label
_atom_site_type_symbol
_atom_site_fract_x
_atom_site_fract_y
_atom_site_fract_z
O1	O	1.277881	0.185592	-0.085106
O2	O	1.001361	0.178751	-0.085132
O3	O	1.137977	0.068241	-0.085111
O4	O	1.141265	0.296101	-0.085127
O5	O	1.128176	0.076185	0.085317
O6	O	0.991560	0.186694	0.085296
O7	O	1.268080	0.193535	0.085322
Zn8	Zn	1.128264	0.191376	0.112368
Zn9	Zn	1.141177	0.180910	-0.112178
O10	O	1.131464	0.304045	0.085301
C11	C	0.960905	0.179728	0.000079
C12	C	0.854960	0.170796	0.000069
C13	C	0.660980	0.154468	0.000091
C14	C	0.608455	0.217813	0.000090
C15	C	0.500518	0.208729	0.000102
C16	C	0.768927	0.163552	0.000079
C17	C	1.130087	0.042876	0.000103
C18	C	1.121168	-0.044541	0.000101
C19	C	1.203056	-0.088926	0.000110
C20	C	1.194670	-0.171064	0.000100
C21	C	1.104396	-0.208815	0.000088
C22	C	1.022502	-0.164424	0.000076
C23	C	1.030889	-0.082288	0.000079
C24	C	1.074767	-0.456646	0.000071
C25	C	1.066386	-0.538788	0.000071
C26	C	1.238555	-0.545423	0.000093
C27	C	1.246934	-0.463285	0.000102
C28	C	1.165040	-0.418901	0.000085
C29	C	1.095822	-0.292773	0.000080
C30	C	1.173615	-0.334945	0.000085
C31	C	1.308536	0.192558	0.000109
C32	C	1.414482	0.201490	0.000112
C33	C	1.139354	0.329410	0.000085
C34	C	1.148273	0.416827	0.000080
N35	N	1.119458	0.198518	0.265616
N36	N	1.149990	0.173762	-0.265426
C37	C	1.107478	0.208243	0.474656
C38	C	1.161967	0.164040	0.525540
C39	C	1.155301	0.169451	0.641858
C40	C	1.114143	0.202833	0.358328
H41	H	0.624887	0.093419	0.000100
C42	C	1.044574	0.259301	0.639223
C43	C	1.037756	0.264822	0.533768
H44	H	1.001537	0.294235	0.675723
H45	H	1.028886	0.206924	0.656742
H46	H	1.107923	0.273012	0.656725
H47	H	0.974408	0.251105	0.516266
H48	H	1.053438	0.317210	0.516243
C49	C	0.624812	0.345233	0.087668
C50	C	0.657184	0.300233	0.000065
H51	H	0.654907	0.396110	0.087648
H52	H	0.557626	0.349866	0.087670
H53	H	0.639965	0.320246	0.147099
H54	H	0.642025	0.325217	-0.059367
H55	H	0.724386	0.295603	0.000053
H56	H	1.276567	-0.058196	0.000126
H57	H	1.261352	-0.207199	0.000109
H58	H	1.320445	-0.432554	0.000112
C59	C	1.302150	-0.674277	0.000087
C60	C	1.328569	-0.594211	0.000097
H61	H	1.357726	-0.704396	0.000080
H62	H	1.261999	-0.683605	0.059513
H63	H	1.268821	-0.689132	-0.059351
H64	H	1.361892	-0.579355	0.059540
H65	H	1.368736	-0.584879	-0.059336
H66	H	0.992869	-0.569521	0.000078
H67	H	1.008083	-0.420519	0.000057
C68	C	0.933197	-0.287384	0.000074
C69	C	0.923269	-0.205918	0.000067
H70	H	0.871932	-0.312997	0.000077
H71	H	0.970603	-0.304973	-0.059352
H72	H	0.963778	-0.299432	0.059513
H73	H	0.892695	-0.193869	-0.059377
H74	H	0.885849	-0.188323	0.059498
C75	C	0.859866	-0.083975	0.000065
C76	C	0.940875	-0.033497	0.000072
H77	H	0.804295	-0.053852	0.000063
H78	H	0.863595	-0.118915	-0.059363
H79	H	0.856761	-0.113382	0.059502
H80	H	0.943983	-0.004093	-0.059369
H81	H	0.937145	0.001457	0.059506
H82	H	1.213624	0.122133	0.481746
C83	C	1.287957	-0.250502	-0.087507
C84	C	1.272842	-0.293449	0.000099
H85	H	1.349213	-0.224875	-0.087490
H86	H	1.284539	-0.285174	-0.146930
H87	H	1.240375	-0.212320	-0.087505
H88	H	1.320421	-0.331635	0.000093
H89	H	1.276268	-0.258774	0.059537
H90	H	1.022320	-0.323518	0.000073
