data_functionalizedCrystal
_audit_creation_method	'MofGen! by Chris Wilmer'
_symmetry_space_group_name_H-M	'P1'
_symmetry_Int_Tables_number	1
_symmetry_cell_setting	triclinic
loop_
_symmetry_equiv_pos_as_xyz
  x,y,z
_cell_length_a	14.560438
_cell_length_b	14.560432
_cell_length_c	14.560438
_cell_angle_alpha	60.000826
_cell_angle_beta	90.000335
_cell_angle_gamma	60.000070
loop_
_atom_site_label
_atom_site_type_symbol
_atom_site_fract_x
_atom_site_fract_y
_atom_site_fract_z
Zr1	Zr	0.884748	1.005293	-0.120511
O2	O	0.738099	1.196894	-0.267154
O3	O	0.929704	0.813693	-0.075561
O4	O	0.929700	1.005297	-0.267160
O5	O	0.738105	1.005287	0.075587
O6	O	1.080839	1.005299	-0.267162
O7	O	0.738102	1.005290	-0.075554
O8	O	1.080845	0.662555	0.075575
O9	O	0.738099	1.348032	-0.267150
O10	O	1.061669	0.892503	-0.056387
O11	O	0.948879	0.892499	0.056409
O12	O	0.948874	1.118088	-0.169175
O13	O	0.836083	1.118084	-0.056379
Zr14	Zr	1.125800	1.005293	0.120539
Zr15	Zr	1.125796	1.005298	-0.120514
Zr16	Zr	0.884752	1.005289	0.120541
Zr17	Zr	0.884747	1.246341	-0.120506
Zr18	Zr	1.125800	0.764246	0.120533
O19	O	1.080844	1.196894	0.075588
O20	O	1.080838	1.196900	-0.267157
O21	O	0.738104	1.196888	0.075591
O22	O	1.272448	0.813693	0.267181
O23	O	1.272443	0.813699	-0.075564
O24	O	0.929709	0.813686	0.267185
O25	O	1.272443	1.005299	-0.075559
O26	O	1.080847	1.005290	0.267188
O27	O	0.929709	1.005287	0.267189
O28	O	1.272445	1.005297	0.075582
O29	O	0.929700	1.348035	-0.267152
O30	O	1.080848	0.662551	0.267180
O31	O	1.272449	0.662555	0.267178
O32	O	1.272446	0.662558	0.075573
O33	O	0.738102	1.348028	-0.075546
O34	O	0.929703	1.348032	-0.075548
O35	O	1.061673	0.892499	0.169203
O36	O	1.174464	0.892503	0.056407
O37	O	1.061669	1.118088	-0.056382
O38	O	0.948878	1.118084	0.056414
C39	C	1.005274	0.703779	0.000007
C40	C	1.005275	0.601448	0.000004
C41	C	0.703760	1.005288	0.000017
C42	C	0.601428	1.005286	0.000018
C43	C	1.123018	0.601446	-0.117767
C44	C	1.181885	0.553374	-0.176654
C45	C	1.181882	0.457225	-0.176652
C46	C	1.123009	0.409143	-0.117753
C47	C	1.064142	0.457215	-0.058866
C48	C	1.064149	0.553369	-0.058878
C49	C	0.946406	0.457210	0.058910
C50	C	0.946402	0.553366	0.058903
C51	C	0.887533	0.409129	0.117809
C52	C	0.828659	0.457207	0.176691
C53	C	0.828663	0.553364	0.176685
C54	C	0.887535	0.601439	0.117790
C55	C	0.516066	0.887543	0.058887
C56	C	0.612222	0.887535	0.058888
C57	C	0.494470	1.123053	-0.058867
C58	C	0.398317	1.123060	-0.058874
C59	C	1.306788	1.005299	0.000011
C60	C	1.409119	1.005301	0.000010
C61	C	1.005269	1.005299	-0.301506
C62	C	1.005267	1.005301	-0.403839
C63	C	1.005273	1.306807	0.000021
C64	C	1.005273	1.409138	0.000023
C65	C	0.946399	1.123044	-0.606944
C66	C	0.946389	1.123052	-0.510796
C67	C	1.064150	0.887533	-0.393031
C68	C	1.064153	0.887527	-0.489178
C69	C	1.005278	1.005288	0.301533
C70	C	1.005280	1.005286	0.403866
C71	C	1.306789	0.703785	0.000004
C72	C	1.409120	0.601456	0.000000
C73	C	1.005279	0.703774	0.301526
C74	C	1.005281	0.601441	0.403857
C75	C	1.306793	0.703779	0.301523
C76	C	1.409126	0.601448	0.403853
C77	C	0.703754	1.306807	-0.301496
C78	C	0.601421	1.409138	-0.403825
C79	C	0.703759	1.306802	0.000024
C80	C	0.601427	1.409131	0.000027
C81	C	1.005268	1.306813	-0.301499
C82	C	1.005266	1.409145	-0.403829
C83	C	1.398321	0.553379	-0.058876
C84	C	1.494476	0.457237	-0.058883
C85	C	1.612226	0.457255	0.058871
C86	C	1.516072	0.553401	0.058871
C87	C	1.064158	0.553363	0.510809
C88	C	1.064147	0.457219	0.606956
C89	C	0.946380	0.457237	0.489184
C90	C	0.946385	0.553385	0.393040
C91	C	1.516078	0.553373	0.393052
C92	C	1.612227	0.457230	0.489206
C93	C	1.494458	0.457244	0.606957
C94	C	1.398312	0.553391	0.510805
H95	H	1.229822	0.592528	-0.224606
H96	H	0.524868	0.791655	0.106832
H97	H	0.699300	0.791644	0.106832
H98	H	1.699316	0.418115	0.106803
N99	N	0.482822	1.250059	-0.122375
H100	H	0.559962	1.232189	-0.113436
H101	H	0.440302	1.301484	-0.091461
H102	H	1.112101	0.791628	-0.480367
H103	H	1.699310	0.418092	0.480404
N104	N	1.527742	0.605224	0.277700
H105	H	1.450606	0.673427	0.218424
H106	H	1.570264	0.531790	0.268796
N107	N	0.282956	1.250076	-0.122384
H108	H	0.290701	1.324675	-0.159678
H109	H	0.240496	1.255203	-0.068323
N110	N	0.882914	1.250049	-0.722302
H111	H	0.845614	1.324648	-0.714556
H112	H	0.823723	1.255186	-0.764770
H113	H	0.780735	0.418046	0.224646
H114	H	0.898431	0.418096	0.480391
N115	N	1.527714	0.605271	0.122369
H116	H	1.610056	0.560235	0.159669
H117	H	1.490384	0.588540	0.181559
N118	N	0.882803	0.605325	0.277673
H119	H	0.845474	0.560311	0.285408
H120	H	0.936806	0.588647	0.235150
N121	N	1.127679	0.605196	0.522470
H122	H	1.164975	0.560147	0.604817
H123	H	1.073624	0.701716	0.485145
H124	H	0.898440	1.218942	-0.519608
N125	N	1.127649	0.405364	0.722312
H126	H	1.164957	0.450400	0.714570
H127	H	1.186834	0.308843	0.764768
N128	N	1.123004	0.705167	-0.117786
H129	H	1.169226	0.728335	-0.164034
H130	H	1.156495	0.671635	-0.038018
N131	N	1.482797	0.405407	0.722310
H132	H	1.559934	0.337200	0.781585
H133	H	1.440276	0.365590	0.731211
N134	N	1.123015	0.305436	-0.117753
H135	H	1.043272	0.338896	-0.151254
H136	H	1.156580	0.225687	-0.037987
N137	N	1.282942	0.605247	0.522442
H138	H	1.240427	0.701764	0.485171
H139	H	1.290768	0.560117	0.604803
N140	N	1.127663	0.760530	-0.277672
H141	H	1.164964	0.685929	-0.285416
H142	H	1.073606	0.755396	-0.235209
N143	N	1.282967	0.605217	-0.122376
H144	H	1.240455	0.588474	-0.068373
H145	H	1.290818	0.560144	-0.159671
H146	H	0.780728	0.592497	0.224639
H147	H	0.887541	0.330833	0.117813
H148	H	0.887539	0.679735	0.117774
N149	N	1.245359	0.405385	-0.240178
H150	H	1.236416	0.337183	-0.231238
H151	H	1.327701	0.365562	-0.209279
N152	N	1.482830	0.405390	-0.122394
H153	H	1.400486	0.450427	-0.159687
H154	H	1.520166	0.308869	-0.068337
