data_functionalizedCrystal
_audit_creation_method	'MofGen! by Chris Wilmer'
_symmetry_space_group_name_H-M	'P1'
_symmetry_Int_Tables_number	1
_symmetry_cell_setting	triclinic
loop_
_symmetry_equiv_pos_as_xyz
  x,y,z
_cell_length_a	10.654545
_cell_length_b	16.992695
_cell_length_c	9.730223
_cell_angle_alpha	89.995280
_cell_angle_beta	89.997167
_cell_angle_gamma	87.575651
loop_
_atom_site_label
_atom_site_type_symbol
_atom_site_fract_x
_atom_site_fract_y
_atom_site_fract_z
O1	O	1.677363	0.110173	-0.114278
O2	O	1.312791	0.120675	-0.114284
O3	O	1.493616	0.001273	-0.114270
O4	O	1.496539	0.229574	-0.114292
O5	O	1.493603	0.001270	0.114310
O6	O	1.312779	0.120671	0.114296
O7	O	1.677350	0.110170	0.114302
Zn8	Zn	1.495063	0.115420	0.150591
Zn9	Zn	1.495079	0.115424	-0.150573
O10	O	1.496526	0.229571	0.114288
C11	C	1.265921	0.119903	0.000006
C12	C	1.126278	0.117598	0.000004
C13	C	1.060673	0.116511	0.124603
C14	C	0.929465	0.114333	0.124604
C15	C	0.929479	0.114331	-0.124607
C16	C	1.060685	0.116504	-0.124606
C17	C	1.489849	-0.027961	0.000020
C18	C	1.478630	-0.115066	0.000019
C19	C	1.586881	-0.164719	0.000022
C20	C	1.576332	-0.246563	0.000009
C21	C	1.457530	-0.278753	0.000003
C22	C	1.349272	-0.229093	-0.000005
C23	C	1.359822	-0.147251	-0.000001
C24	C	1.413803	-0.522588	-0.000017
C25	C	1.403261	-0.604436	-0.000016
C26	C	1.630323	-0.621901	-0.000005
C27	C	1.640862	-0.540056	0.000007
C28	C	1.532603	-0.490404	-0.000008
N29	N	1.446745	-0.362410	-0.000006
N30	N	1.543390	-0.406748	-0.000008
C31	C	1.724221	0.110942	0.000010
C32	C	1.863864	0.113246	0.000003
C33	C	1.500293	0.258806	-0.000005
C34	C	1.511512	0.345911	-0.000013
N35	N	1.495060	0.115417	0.356127
N36	N	1.495091	0.115422	-0.356109
C37	C	1.575160	0.062568	0.428060
C38	C	1.575173	0.062568	0.571942
C39	C	1.414982	0.168273	0.571949
C40	C	1.414964	0.168268	0.428068
H41	H	0.876057	0.113441	-0.226059
O42	O	1.693097	-0.300111	0.000022
H43	H	1.693747	-0.337804	-0.093153
H44	H	0.876055	0.113448	0.226065
H45	H	1.349731	0.211304	0.369497
H46	H	1.325651	-0.482170	-0.000028
O47	O	1.661517	0.005556	0.350449
H48	H	1.760480	0.016106	0.378035
O49	O	1.661571	0.005566	0.649520
H50	H	1.648121	0.014439	0.761657
H51	H	1.114075	0.117402	0.226068
H52	H	1.114102	0.117387	-0.226076
O53	O	1.715017	-0.130001	0.000017
H54	H	1.788517	-0.178282	-0.000001
O55	O	1.768998	-0.505337	-0.000020
H56	H	1.842502	-0.553614	-0.000040
O57	O	1.328609	0.225284	0.649540
H58	H	1.342088	0.216417	0.761674
O59	O	1.747085	-0.675451	0.000002
H60	H	1.719796	-0.737770	-0.000011
O61	O	1.221136	-0.263813	-0.000015
H62	H	1.147635	-0.215533	-0.000030
O63	O	1.275120	-0.639160	-0.000039
H64	H	1.201612	-0.590885	-0.000064
O65	O	1.243068	-0.093691	0.000010
H66	H	1.158684	-0.129822	0.000021
