data_functionalizedCrystal
_audit_creation_method	'MofGen! by Chris Wilmer'
_symmetry_space_group_name_H-M	'P1'
_symmetry_Int_Tables_number	1
_symmetry_cell_setting	triclinic
loop_
_symmetry_equiv_pos_as_xyz
  x,y,z
_cell_length_a	17.077404
_cell_length_b	19.120786
_cell_length_c	17.077396
_cell_angle_alpha	92.471235
_cell_angle_beta	90.019501
_cell_angle_gamma	92.465349
loop_
_atom_site_label
_atom_site_type_symbol
_atom_site_fract_x
_atom_site_fract_y
_atom_site_fract_z
Zn1	Zn	1.186709	-0.279626	0.430494
Zn2	Zn	1.520042	0.053707	0.763827
Zn3	Zn	1.853375	0.387040	1.097161
Zn4	Zn	1.181010	-0.397090	0.293620
Zn5	Zn	1.514343	-0.063757	0.626954
Zn6	Zn	1.847676	0.269576	0.960287
Zn7	Zn	1.055439	-0.279651	0.299241
Zn8	Zn	1.388773	0.053682	0.632574
Zn9	Zn	1.722106	0.387016	0.965907
Zn10	Zn	1.049804	-0.397049	0.424846
Zn11	Zn	1.383138	-0.063715	0.758179
Zn12	Zn	1.716471	0.269618	1.091513
O13	O	1.118240	-0.338354	0.362050
O14	O	1.451574	-0.005021	0.695384
O15	O	1.784907	0.328313	1.028717
O16	O	1.295799	-0.295215	0.412349
O17	O	1.629133	0.038118	0.745682
O18	O	1.962466	0.371451	1.079016
O19	O	1.164326	-0.381539	0.184518
O20	O	1.497659	-0.048206	0.517851
O21	O	1.830992	0.285127	0.851184
O22	O	1.077596	-0.181357	0.321368
O23	O	1.410929	0.151976	0.654701
O24	O	1.744263	0.485309	0.988034
O25	O	1.291612	-0.381516	0.311789
O26	O	1.624945	-0.048182	0.645122
O27	O	1.958279	0.285151	0.978455
O28	O	1.174039	-0.181339	0.417799
O29	O	1.507372	0.151994	0.751132
O30	O	1.840706	0.485328	1.084465
O31	O	1.072070	-0.295257	0.188647
O32	O	1.405403	0.038076	0.521980
O33	O	1.738736	0.371409	0.855314
O34	O	0.944845	-0.295217	0.315891
O35	O	1.278179	0.038116	0.649224
O36	O	1.611512	0.371450	0.982558
O37	O	1.067992	-0.381445	0.535444
O38	O	1.401325	-0.048111	0.868777
O39	O	1.734658	0.285222	1.202110
O40	O	0.940705	-0.381468	0.408173
O41	O	1.274039	-0.048135	0.741506
O42	O	1.607372	0.285198	1.074839
O43	O	1.168575	-0.295175	0.539593
O44	O	1.501908	0.038158	0.872926
O45	O	1.835242	0.371492	1.206260
O46	O	1.158861	-0.495375	0.306312
O47	O	1.492195	-0.162042	0.639645
O48	O	1.825528	0.171291	0.972979
O49	O	1.062465	-0.495345	0.402723
O50	O	1.395799	-0.162011	0.736056
O51	O	1.729132	0.171322	1.069390
C52	C	0.914293	-0.338341	0.362029
C53	C	1.247627	-0.005008	0.695363
C54	C	1.580960	0.328325	1.028696
C55	C	0.827043	-0.338353	0.362038
C56	C	1.160376	-0.005019	0.695371
C57	C	1.493710	0.328314	1.028705
C58	C	1.109455	-0.520845	0.353312
C59	C	1.442788	-0.187512	0.686645
C60	C	1.776121	0.145821	1.019979
C61	C	1.105768	-0.598916	0.349600
C62	C	1.439101	-0.265583	0.682933
C63	C	1.772435	0.067751	1.016266
C64	C	0.783914	-0.383332	0.410005
C65	C	1.117248	-0.049998	0.743339
C66	C	1.450581	0.283335	1.076672
C67	C	0.701934	-0.383333	0.410018
C68	C	1.035267	-0.050000	0.743351
C69	C	1.368600	0.283333	1.076685
C70	C	0.663083	-0.338359	0.362058
C71	C	0.996417	-0.005026	0.695392
C72	C	1.329750	0.328308	1.028725
C73	C	0.706218	-0.293375	0.314089
C74	C	1.039551	0.039958	0.647422
C75	C	1.372884	0.373292	0.980756
C76	C	0.788197	-0.293370	0.314081
C77	C	1.121530	0.039963	0.647415
C78	C	1.454864	0.373296	0.980748
C79	C	0.535347	-0.293389	0.314107
C80	C	0.868680	0.039945	0.647441
C81	C	1.202014	0.373278	0.980774
C82	C	0.453362	-0.293394	0.314114
C83	C	0.786696	0.039939	0.647447
C84	C	1.120029	0.373273	0.980780
C85	C	0.449084	-0.383352	0.410044
C86	C	0.782417	-0.050018	0.743377
C87	C	1.115751	0.283315	1.076711
C88	C	0.531063	-0.383347	0.410036
C89	C	0.864396	-0.050014	0.743369
C90	C	1.197730	0.283320	1.076703
C91	C	0.574192	-0.338364	0.362066
C92	C	0.907525	-0.005031	0.695399
C93	C	1.240859	0.328303	1.028732
C94	C	1.154211	-0.635524	0.398103
C95	C	1.487545	-0.302191	0.731437
C96	C	1.820878	0.031143	1.064770
C97	C	1.150744	-0.708880	0.394617
C98	C	1.484077	-0.375546	0.727950
C99	C	1.817411	-0.042213	1.061283
C100	C	1.098837	-0.745626	0.342622
C101	C	1.432170	-0.412293	0.675956
C102	C	1.765504	-0.078959	1.009289
C103	C	1.050388	-0.709013	0.294117
C104	C	1.383722	-0.375680	0.627450
C105	C	1.717055	-0.042346	0.960784
C106	C	1.053852	-0.635659	0.297608
C107	C	1.387186	-0.302325	0.630941
C108	C	1.720519	0.031008	0.964275
C109	C	1.085865	-0.967112	0.329571
C110	C	1.419198	-0.633779	0.662905
C111	C	1.752531	-0.300445	0.996238
C112	C	1.082406	-1.040471	0.326082
C113	C	1.415740	-0.707138	0.659416
C114	C	1.749073	-0.373805	0.992749
C115	C	1.182761	-1.040333	0.426584
C116	C	1.516095	-0.707000	0.759917
C117	C	1.849428	-0.373666	1.093250
C118	C	1.186224	-0.966977	0.430067
C119	C	1.519557	-0.633644	0.763400
C120	C	1.852890	-0.300311	1.096733
C121	C	1.137772	-0.930371	0.381564
C122	C	1.471106	-0.597037	0.714898
C123	C	1.804439	-0.263704	1.048231
C124	C	1.095293	-0.820607	0.339055
C125	C	1.428627	-0.487274	0.672389
C126	C	1.761960	-0.153941	1.005722
C127	C	1.141313	-0.855391	0.385136
C128	C	1.474646	-0.522057	0.718469
C129	C	1.807979	-0.188724	1.051802
C130	C	1.322984	-0.338367	0.362072
C131	C	1.656317	-0.005034	0.695405
C132	C	1.989651	0.328299	1.028739
C133	C	1.410234	-0.338373	0.362081
C134	C	1.743567	-0.005040	0.695414
C135	C	2.076900	0.328294	1.028748
C136	C	1.118290	-0.338302	0.566797
C137	C	1.451624	-0.004969	0.900130
C138	C	1.784957	0.328364	1.233464
C139	C	1.118312	-0.338280	0.654048
C140	C	1.451645	-0.004947	0.987381
C141	C	1.784978	0.328386	1.320715
C142	C	1.127082	-0.155150	0.370840
C143	C	1.460415	0.178183	0.704173
C144	C	1.793748	0.511517	1.037507
C145	C	1.130849	-0.077079	0.374586
C146	C	1.464183	0.256254	0.707919
C147	C	1.797516	0.589587	1.041252
C148	C	1.118238	-0.338355	0.158102
C149	C	1.451572	-0.005022	0.491436
C150	C	1.784905	0.328312	0.824769
C151	C	1.118379	-0.338179	0.070861
C152	C	1.451712	-0.004846	0.404195
C153	C	1.785045	0.328488	0.737528
C154	C	1.170687	-0.293356	0.697200
C155	C	1.504021	0.039977	1.030534
C156	C	1.837354	0.373311	1.363867
C157	C	1.170698	-0.293333	0.779182
C158	C	1.504031	0.040001	1.112515
C159	C	1.837365	0.373334	1.445849
C160	C	1.118336	-0.338238	0.818010
C161	C	1.451669	-0.004904	1.151343
C162	C	1.785003	0.328429	1.484676
C163	C	1.065955	-0.383164	0.774852
C164	C	1.399288	-0.049831	1.108185
C165	C	1.732621	0.283503	1.441518
C166	C	1.065941	-0.383183	0.692872
C167	C	1.399274	-0.049850	1.026205
C168	C	1.732608	0.283483	1.359538
C169	C	1.065988	-0.383122	0.945724
C170	C	1.399322	-0.049788	1.279057
C171	C	1.732655	0.283545	1.612390
C172	C	1.066003	-0.383103	1.027709
C173	C	1.399336	-0.049770	1.361043
C174	C	1.732670	0.283563	1.694376
C175	C	1.170745	-0.293271	1.032034
C176	C	1.504079	0.040062	1.365367
C177	C	1.837412	0.373396	1.698701
C178	C	1.170732	-0.293290	0.950054
C179	C	1.504065	0.040043	1.283387
C180	C	1.837398	0.373376	1.616721
C181	C	1.118351	-0.338218	0.906902
C182	C	1.451684	-0.004884	1.240235
C183	C	1.785018	0.328449	1.573568
H184	H	0.815540	-0.419958	0.449057
H185	H	1.148874	-0.086624	0.782390
H186	H	1.482207	0.246709	1.115724
F187	F	1.034292	-0.928162	0.277956
F188	F	1.367625	-0.594829	0.611289
F189	F	1.700959	-0.261495	0.944623
H190	H	1.213349	-0.256752	0.814313
H191	H	1.546683	0.076581	1.147646
H192	H	1.880016	0.409914	1.480980
H193	H	1.023323	-0.419695	0.910592
H194	H	1.356656	-0.086362	1.243925
H195	H	1.689990	0.246971	1.577258
F196	F	0.995138	-0.748123	0.238787
F197	F	1.328471	-0.414790	0.572121
F198	F	1.661804	-0.081457	0.905454
H199	H	1.023364	-0.419668	1.059320
H200	H	1.356697	-0.086334	1.392654
H201	H	1.690030	0.246999	1.725987
H202	H	1.196483	-0.605610	0.440439
H203	H	1.529816	-0.272277	0.773772
H204	H	1.863150	0.061057	1.107106
F205	F	1.002291	-0.596698	0.245985
F206	F	1.335625	-0.263365	0.579318
F207	F	1.668958	0.069968	0.912651
H208	H	1.023284	-0.419758	0.657738
H209	H	1.356617	-0.086425	0.991072
H210	H	1.689950	0.246909	1.324405
F211	F	0.656037	-0.431206	0.461072
F212	F	0.989370	-0.097873	0.794405
F213	F	1.322703	0.235461	1.127738
H214	H	0.570461	-0.256752	0.275052
H215	H	0.903794	0.076581	0.608385
H216	H	1.237127	0.409914	0.941718
F217	F	0.572409	-0.431218	0.461075
F218	F	0.905742	-0.097885	0.794408
F219	F	1.239076	0.235448	1.127741
H220	H	1.183572	-0.825470	0.427472
H221	H	1.516906	-0.492136	0.760806
H222	H	1.850239	-0.158803	1.094139
F223	F	0.664868	-0.245505	0.263052
F224	F	0.998201	0.087828	0.596385
F225	F	1.331535	0.421162	0.929718
H226	H	1.213373	-0.256729	0.918443
H227	H	1.546707	0.076605	1.251776
H228	H	1.880040	0.409938	1.585109
H229	H	1.053033	-0.850534	0.296719
H230	H	1.386366	-0.517201	0.630053
H231	H	1.719699	-0.183868	0.963386
F232	F	0.403183	-0.431219	0.461107
F233	F	0.736516	-0.097885	0.794441
F234	F	1.069849	0.235448	1.127774
F235	F	1.226494	-0.245456	1.077961
F236	F	1.559827	0.087877	1.411294
F237	F	1.893160	0.421211	1.744627
F238	F	0.412016	-0.245530	0.263067
F239	F	0.745349	0.087803	0.596400
F240	F	1.078683	0.421137	0.929733
F241	F	0.834097	-0.245496	0.263029
F242	F	1.167431	0.087837	0.596363
F243	F	1.500764	0.421170	0.929696
F244	F	1.202296	-0.747837	0.446249
F245	F	1.535629	-0.414504	0.779583
F246	F	1.868963	-0.081171	1.112916
H247	H	1.213329	-0.256791	0.665593
H248	H	1.546662	0.076542	0.998926
H249	H	1.879996	0.409876	1.332259
H250	H	1.228491	-0.937060	0.472405
H251	H	1.561824	-0.603727	0.805738
H252	H	1.895157	-0.270393	1.139071
F253	F	1.234321	-1.079298	0.478202
F254	F	1.567654	-0.745964	0.811535
F255	F	1.900988	-0.412631	1.144868
F256	F	1.010224	-0.430953	0.816177
F257	F	1.343557	-0.097619	1.149510
F258	F	1.676891	0.235714	1.482844
H259	H	1.040133	-1.070388	0.283742
H260	H	1.373467	-0.737055	0.617075
H261	H	1.706800	-0.403722	0.950408
