data_functionalizedCrystal
_audit_creation_method	'MofGen! by Chris Wilmer'
_symmetry_space_group_name_H-M	'P1'
_symmetry_Int_Tables_number	1
_symmetry_cell_setting	triclinic
loop_
_symmetry_equiv_pos_as_xyz
  x,y,z
_cell_length_a	17.640112
_cell_length_b	17.638891
_cell_length_c	17.639477
_cell_angle_alpha	92.140781
_cell_angle_beta	114.276174
_cell_angle_gamma	87.850096
loop_
_atom_site_label
_atom_site_type_symbol
_atom_site_fract_x
_atom_site_fract_y
_atom_site_fract_z
Zn1	Zn	1.171229	-0.033696	-0.217343
Zn2	Zn	1.671229	0.466304	0.282657
Zn3	Zn	1.223369	-0.178265	-0.103882
Zn4	Zn	1.723369	0.321735	0.396118
Zn5	Zn	1.068313	-0.075369	-0.114379
Zn6	Zn	1.568313	0.424631	0.385621
Zn7	Zn	1.057789	-0.178251	-0.269440
Zn8	Zn	1.557789	0.321749	0.230560
O9	O	1.130175	-0.116395	-0.176261
O10	O	1.630175	0.383605	0.323739
O11	O	1.290511	-0.035439	-0.176096
O12	O	1.790511	0.464561	0.323904
O13	O	1.229026	-0.182062	0.007103
O14	O	1.729026	0.317938	0.507103
O15	O	1.064549	0.033719	-0.110627
O16	O	1.564549	0.533719	0.389373
O17	O	1.328819	-0.141653	-0.092737
O18	O	1.828819	0.358347	0.407263
O19	O	1.140160	0.064336	-0.186275
O20	O	1.640160	0.564336	0.313725
O21	O	1.115107	-0.106464	-0.000609
O22	O	1.615107	0.393536	0.499391
O23	O	0.954551	-0.106451	-0.161144
O24	O	1.454551	0.393549	0.338856
O25	O	1.046612	-0.141629	-0.374907
O26	O	1.546612	0.358371	0.125093
O27	O	0.946819	-0.182038	-0.275067
O28	O	1.446819	0.317962	0.224933
O29	O	1.129955	-0.035425	-0.336631
O30	O	1.629955	0.464575	0.163369
O31	O	1.218821	-0.281823	-0.143253
O32	O	1.718821	0.218177	0.356747
O33	O	1.097170	-0.281812	-0.264889
O34	O	1.597170	0.218188	0.235111
C35	C	0.921550	-0.148765	-0.224898
C36	C	1.421550	0.351235	0.275102
C37	C	0.832297	-0.162628	-0.245728
C38	C	1.332297	0.337372	0.254272
C39	C	0.558625	-0.011066	-0.018027
C40	C	1.058625	0.488934	0.481973
C41	C	0.474759	-0.024106	-0.037613
C42	C	0.974759	0.475894	0.462387
C43	C	0.466826	-0.102972	-0.156086
C44	C	0.966826	0.397028	0.343914
C45	C	0.550692	-0.089936	-0.136512
C46	C	1.050692	0.410064	0.363488
C47	C	0.596585	-0.043983	-0.067481
C48	C	1.096585	0.456017	0.432519
C49	C	0.588652	-0.122854	-0.185967
C50	C	1.088652	0.377146	0.314033
C51	C	0.672511	-0.109822	-0.166392
C52	C	1.172511	0.390178	0.333608
C53	C	0.718411	-0.063873	-0.097363
C54	C	1.218411	0.436127	0.402637
C55	C	0.680445	-0.030951	-0.047907
C56	C	1.180445	0.469049	0.452093
C57	C	0.542758	-0.168811	-0.254994
C58	C	1.042758	0.331189	0.245006
C59	C	0.580718	-0.201728	-0.304448
C60	C	1.080718	0.298272	0.195552
C61	C	0.664578	-0.188692	-0.284877
C62	C	1.164578	0.311308	0.215123
C63	C	0.710478	-0.142743	-0.215848
C64	C	1.210478	0.357257	0.284152
C65	C	0.702544	-0.221613	-0.334333
C66	C	1.202544	0.278387	0.165667
C67	C	0.786404	-0.208581	-0.314759
C68	C	1.286404	0.291419	0.185241
C69	C	0.794338	-0.129711	-0.196273
C70	C	1.294338	0.370289	0.303727
C71	C	1.162529	-0.308663	-0.208598
C72	C	1.662529	0.191337	0.291402
C73	C	1.176438	-0.390901	-0.222441
C74	C	1.676438	0.109099	0.277559
C75	C	1.097712	0.076630	-0.143810
C76	C	1.597712	0.576630	0.356190
C77	C	1.083879	0.158886	-0.129982
C78	C	1.583879	0.658886	0.370018
C79	C	1.339615	-0.083899	-0.127434
C80	C	1.839615	0.416101	0.372566
C81	C	1.428866	-0.070051	-0.106627
C82	C	1.928866	0.429949	0.393373
C83	C	1.081294	-0.083877	-0.385722
C84	C	1.581294	0.416123	0.114278
C85	C	1.060463	-0.070019	-0.474982
C86	C	1.560463	0.429981	0.025018
C87	C	1.235278	0.509114	-0.281349
C88	C	1.735278	1.009114	0.218651
C89	C	1.222286	0.586401	-0.268327
C90	C	1.722286	1.086401	0.231673
C91	C	1.143559	0.554512	-0.189563
C92	C	1.643559	1.054512	0.310437
C93	C	1.156540	0.477220	-0.202581
C94	C	1.656540	0.977220	0.297419
C95	C	1.202401	0.454528	-0.248475
C96	C	1.702401	0.954528	0.251525
C97	C	1.123663	0.422634	-0.169707
C98	C	1.623663	0.922634	0.330293
C99	C	1.136648	0.345349	-0.182721
C100	C	1.636648	0.845349	0.317279
C101	C	1.182509	0.322650	-0.228610
C102	C	1.682509	0.822650	0.271390
C103	C	1.215385	0.377243	-0.261489
C104	C	1.715385	0.877243	0.238511
C105	C	1.077808	0.445328	-0.123809
C106	C	1.577808	0.945328	0.376191
C107	C	1.044931	0.390742	-0.090934
C108	C	1.544931	0.890742	0.409066
C109	C	1.057910	0.313456	-0.103953
C110	C	1.557910	0.813456	0.396047
C111	C	1.103771	0.290757	-0.149842
C112	C	1.603771	0.790757	0.350158
C113	C	1.025033	0.258863	-0.071074
C114	C	1.525033	0.758863	0.428926
C115	C	1.038018	0.181578	-0.084089
C116	C	1.538018	0.681578	0.415911
C117	C	1.116755	0.213472	-0.162857
C118	C	1.616755	0.713472	0.337143
C119	C	1.288524	-0.221242	-0.748444
C120	C	1.788524	0.278758	-0.248444
C121	C	1.268939	-0.208215	-0.832319
C122	C	1.768939	0.291785	-0.332319
C123	C	1.150324	-0.129500	-0.840348
C124	C	1.650324	0.370500	-0.340348
C125	C	1.169896	-0.142524	-0.756473
C126	C	1.669896	0.357476	-0.256473
C127	C	1.238998	-0.188395	-0.710528
C128	C	1.738998	0.311605	-0.210528
C129	C	1.120370	-0.109677	-0.718557
C130	C	1.620370	0.390323	-0.218557
C131	C	1.139944	-0.122697	-0.634689
C132	C	1.639944	0.377303	-0.134689
C133	C	1.209044	-0.168565	-0.588737
C134	C	1.709044	0.331435	-0.088737
C135	C	1.258572	-0.201416	-0.626660
C136	C	1.758572	0.298584	-0.126660
C137	C	1.051272	-0.063802	-0.764503
C138	C	1.551272	0.436198	-0.264503
C139	C	1.001746	-0.030955	-0.726586
C140	C	1.501746	0.469045	-0.226586
C141	C	1.021316	-0.043979	-0.642718
C142	C	1.521316	0.456021	-0.142718
C143	C	1.090416	-0.089846	-0.596767
C144	C	1.590416	0.410154	-0.096767
C145	C	0.971788	-0.011128	-0.604796
C146	C	1.471788	0.488872	-0.104796
C147	C	0.991362	-0.024148	-0.520928
C148	C	1.491362	0.475852	-0.020928
C149	C	1.109990	-0.102866	-0.512899
C150	C	1.609990	0.397134	-0.012899
C151	C	1.178903	-0.148726	0.032405
C152	C	1.678903	0.351274	0.532405
C153	C	1.199854	-0.162351	0.121736
C154	C	1.699854	0.337649	0.621736
H155	H	0.786696	-0.053265	-0.081425
H156	H	1.286696	0.446735	0.418575
F157	F	1.284085	0.484959	-0.330198
F158	F	1.784085	0.984959	0.169802
H159	H	1.106221	0.572998	-0.152193
H160	H	1.606221	1.072998	0.347807
F161	F	0.826807	-0.243617	-0.367392
F162	F	1.326807	0.256383	0.132608
F163	F	0.938652	0.010813	-0.480571
F164	F	1.438652	0.510813	0.019429
H165	H	1.154080	0.194995	-0.200247
H166	H	1.654080	0.694995	0.299753
F167	F	1.362063	-0.270074	-0.699544
F168	F	1.862063	0.229926	-0.199544
H169	H	1.193082	0.259719	-0.239203
H170	H	1.693082	0.759719	0.260797
F171	F	1.321662	-0.243173	-0.872667
F172	F	1.821662	0.256827	-0.372667
F173	F	0.531869	-0.250642	-0.377906
F174	F	1.031869	0.249358	0.122094
H175	H	1.094063	-0.092150	-0.877767
H176	H	1.594063	0.407850	-0.377767
H177	H	0.831702	-0.092278	-0.140072
H178	H	1.331702	0.407722	0.359928
F179	F	1.030445	-0.049941	-0.853762
F180	F	1.530445	0.450059	-0.353762
F181	F	1.063931	0.527583	-0.110017
F182	F	1.563931	1.027583	0.389983
F183	F	0.417977	-0.151886	-0.229544
F184	F	0.917977	0.348114	0.270456
F185	F	1.257285	0.644495	-0.303318
F186	F	1.757285	1.144495	0.196682
H187	H	0.717810	0.006481	0.008295
H188	H	1.217810	0.506481	0.508295
F189	F	0.607472	0.037848	0.055439
F190	F	1.107472	0.537848	0.555439
F191	F	0.928207	0.017865	-0.775492
F192	F	1.428207	0.517865	-0.275492
H193	H	0.987700	0.277350	-0.033701
H194	H	1.487700	0.777350	0.466299
H195	H	1.314848	-0.238761	-0.589245
H196	H	1.814848	0.261239	-0.089245
H197	H	0.915530	0.026226	-0.642215
H198	H	1.415530	0.526226	-0.142215
F199	F	0.453509	-0.182689	-0.275818
F200	F	0.953509	0.317311	0.224182
F201	F	0.996126	0.414902	-0.042090
F202	F	1.496126	0.914902	0.457910
F203	F	1.229879	-0.182419	-0.499475
F204	F	1.729879	0.317581	0.000525
H205	H	1.011245	0.137132	-0.057320
H206	H	1.511245	0.637132	0.442680
F207	F	0.653695	-0.270531	-0.407787
F208	F	1.153695	0.229469	0.092213
F209	F	1.264193	0.353088	-0.310338
F210	F	1.764193	0.853088	0.189662
F211	F	0.434365	0.010928	0.015033
F212	F	0.934365	0.510928	0.515033
F213	F	1.183528	-0.151698	-0.463999
F214	F	1.683528	0.348302	0.036001
