data_functionalizedCrystal
_audit_creation_method	'MofGen! by Chris Wilmer'
_symmetry_space_group_name_H-M	'P1'
_symmetry_Int_Tables_number	1
_symmetry_cell_setting	triclinic
loop_
_symmetry_equiv_pos_as_xyz
  x,y,z
_cell_length_a	10.686220
_cell_length_b	10.686285
_cell_length_c	21.395355
_cell_angle_alpha	94.380557
_cell_angle_beta	85.654729
_cell_angle_gamma	90.345594
loop_
_atom_site_label
_atom_site_type_symbol
_atom_site_fract_x
_atom_site_fract_y
_atom_site_fract_z
Zn1	Zn	1.956210	-0.352184	0.266468
Zn2	Zn	1.972189	-0.561930	0.153118
Zn3	Zn	1.746424	-0.368303	0.169073
Zn4	Zn	1.762535	-0.578006	0.265223
O5	O	1.859339	-0.465106	0.213470
O6	O	2.133866	-0.366534	0.245275
O7	O	1.942186	-0.536263	0.067558
O8	O	1.760823	-0.190624	0.189191
O9	O	2.145606	-0.520633	0.161997
O10	O	1.914951	-0.178782	0.260746
O11	O	1.776318	-0.394006	0.079280
O12	O	1.573025	-0.409594	0.187984
O13	O	1.788281	-0.548032	0.353065
O14	O	1.584861	-0.563662	0.258625
O15	O	1.930573	-0.382122	0.353979
O16	O	1.957808	-0.739603	0.160790
O17	O	1.803776	-0.751414	0.243154
C18	C	1.533428	-0.490122	0.224902
C19	C	1.394004	-0.500855	0.229805
C20	C	1.884308	-0.791022	0.200118
C21	C	1.895104	-0.930441	0.194423
C22	C	2.186524	-0.439992	0.201995
C23	C	2.325950	-0.429291	0.197105
C24	C	1.859442	-0.465072	0.376891
C25	C	1.859485	-0.465058	0.446531
C26	C	1.834308	-0.137914	0.226887
C27	C	1.823641	0.001515	0.232605
C28	C	1.859303	-0.465043	0.050687
C29	C	1.859475	-0.464685	-0.018947
C30	C	1.933573	-0.378666	0.479722
C31	C	1.933567	-0.378612	0.545159
C32	C	1.859488	-0.464972	0.577403
C33	C	1.785385	-0.551371	0.544205
C34	C	1.785384	-0.551414	0.478769
C35	C	1.858237	-0.578682	0.676798
C36	C	1.858247	-0.578640	0.742232
C37	C	1.859486	-0.464839	0.779229
C38	C	1.860740	-0.351074	0.750782
C39	C	1.860739	-0.351117	0.685347
C40	C	1.859481	-0.464934	0.648357
C41	C	1.933571	-0.378381	0.883374
C42	C	1.933556	-0.378326	0.948814
C43	C	1.785382	-0.551096	0.947857
C44	C	1.785389	-0.551140	0.882420
C45	C	1.859491	-0.464784	0.850182
H46	H	1.345604	-0.570336	0.261553
Br47	Br	1.862432	-0.196617	0.800983
H48	H	1.993885	-0.307967	0.975837
Br49	Br	2.010836	-1.011120	0.132662
Br50	Br	1.707893	-0.917812	0.294353
H51	H	1.993910	-0.308346	0.453478
H52	H	1.993895	-0.308254	0.572189
H53	H	1.374356	-0.359813	0.165351
H54	H	1.861756	-0.258486	0.662188
Br55	Br	2.034130	-0.261183	0.839620
H56	H	1.725052	-0.621400	0.974110
Br57	Br	1.684838	-0.668396	0.837372
H58	H	1.857234	-0.671274	0.765388
Br59	Br	1.856593	-0.733141	0.626593
H60	H	1.725066	-0.621683	0.570462
Br61	Br	1.684826	-0.668669	0.433722
