data_functionalizedCrystal
_audit_creation_method	'MofGen! by Chris Wilmer'
_symmetry_space_group_name_H-M	'P1'
_symmetry_Int_Tables_number	1
_symmetry_cell_setting	triclinic
loop_
_symmetry_equiv_pos_as_xyz
  x,y,z
_cell_length_a	12.594517
_cell_length_b	13.032721
_cell_length_c	13.032268
_cell_angle_alpha	76.710373
_cell_angle_beta	97.162024
_cell_angle_gamma	82.795614
loop_
_atom_site_label
_atom_site_type_symbol
_atom_site_fract_x
_atom_site_fract_y
_atom_site_fract_z
Zn1	Zn	1.477991	0.499091	-0.654228
Zn2	Zn	1.977991	0.999091	-0.154228
Zn3	Zn	1.477874	0.654176	-0.499176
Zn4	Zn	1.977874	1.154176	0.000824
Zn5	Zn	1.325891	0.476585	-0.476645
Zn6	Zn	1.825891	0.976585	0.023355
Zn7	Zn	1.274083	0.676648	-0.676714
Zn8	Zn	1.774083	1.176648	-0.176714
O9	O	1.388960	0.576625	-0.576691
O10	O	1.888960	1.076625	-0.076691
O11	O	1.626917	0.519678	-0.633679
O12	O	2.126917	1.019678	-0.133679
O13	O	1.479347	0.611794	-0.347567
O14	O	1.979347	1.111794	0.152433
O15	O	1.367798	0.330940	-0.481362
O16	O	1.867798	0.830940	0.018638
O17	O	1.626831	0.633617	-0.519762
O18	O	2.126831	1.133617	-0.019762
O19	O	1.479545	0.347475	-0.611831
O20	O	1.979545	0.847475	-0.111831
O21	O	1.367685	0.481319	-0.331014
O22	O	1.867685	0.981319	0.168986
O23	O	1.170077	0.503110	-0.503166
O24	O	1.670077	1.003110	-0.003166
O25	O	1.279498	0.671918	-0.822351
O26	O	1.779498	1.171918	-0.322351
O27	O	1.132014	0.650095	-0.650156
O28	O	1.632014	1.150095	-0.150156
O29	O	1.429308	0.541468	-0.805830
O30	O	1.929308	1.041468	-0.305830
O31	O	1.429110	0.805787	-0.541566
O32	O	1.929110	1.305787	-0.041566
O33	O	1.279386	0.822297	-0.672003
O34	O	1.779386	1.322297	-0.172003
C35	C	1.112426	0.576600	-0.576657
C36	C	1.612426	1.076600	-0.076657
C37	C	0.994117	0.576618	-0.576671
C38	C	1.494117	1.076618	-0.076671
C39	C	1.348639	0.852583	-0.611693
C40	C	1.848639	1.352583	-0.111693
C41	C	1.331482	0.970644	-0.626702
C42	C	1.831482	1.470644	-0.126702
C43	C	1.429463	0.299592	-0.541575
C44	C	1.929463	0.799592	-0.041575
C45	C	1.446724	0.181537	-0.526611
C46	C	1.946724	0.681537	-0.026611
C47	C	0.945530	0.496593	-0.496846
C48	C	1.445530	0.996593	0.003154
C49	C	0.864397	0.590160	-0.483018
C50	C	1.364397	1.090160	0.016982
C51	C	0.864441	0.483100	-0.590523
C52	C	1.364441	0.983100	-0.090523
C53	C	0.914542	0.670230	-0.562798
C54	C	1.414542	1.170230	-0.062798
C55	C	0.914596	0.563110	-0.670340
C56	C	1.414596	1.063110	-0.170340
C57	C	0.833480	0.656749	-0.656557
C58	C	1.333480	1.156749	-0.156557
C59	C	1.666573	0.576651	-0.576726
C60	C	2.166573	1.076651	-0.076726
C61	C	1.784875	0.576662	-0.576740
C62	C	2.284875	1.076662	-0.076740
C63	C	1.348637	0.611711	-0.853703
C64	C	1.848637	1.111711	-0.353703
C65	C	1.331454	0.626662	-0.971750
C66	C	1.831454	1.126662	-0.471750
C67	C	1.397964	1.015082	-0.568905
C68	C	1.897964	1.515082	-0.068905
C69	C	1.380233	1.137103	-0.584417
C70	C	1.880233	1.637103	-0.084417
C71	C	1.397917	0.568784	-1.016204
C72	C	1.897917	1.068784	-0.516204
C73	C	1.380159	0.584235	-1.138211
C74	C	1.880159	1.084235	-0.638211
C75	C	1.429198	0.541599	-0.300746
C76	C	1.929198	1.041599	0.199254
C77	C	1.446630	0.526349	-0.182662
C78	C	1.946630	1.026349	0.317338
H79	H	0.994050	0.428967	-0.429274
H80	H	1.494050	0.928967	0.070726
Br81	Br	0.827071	0.609254	-0.351043
Br82	Br	1.327071	1.109254	0.148957
H83	H	1.310187	1.189392	-0.645391
H84	H	1.810187	1.689392	-0.145391
Br85	Br	0.951576	0.802099	-0.543165
Br86	Br	1.451576	1.302099	-0.043165
H87	H	0.937022	0.551624	-0.749495
H88	H	1.437022	1.051624	-0.249495
Br89	Br	0.827186	0.351257	-0.610002
Br90	Br	1.327186	0.851257	-0.110002
Br91	Br	1.563487	1.094399	-0.424995
Br92	Br	2.063487	1.594399	0.075005
Br93	Br	1.214739	1.057790	-0.728330
Br94	Br	1.714739	1.557790	-0.228330
Br95	Br	1.514645	0.467091	-0.929098
Br96	Br	2.014645	0.967091	-0.429098
H97	H	1.310101	0.645223	-1.190473
H98	H	1.810101	1.145223	-0.690473
H99	H	1.516678	0.465347	-1.130401
H100	H	2.016678	0.965347	-0.630401
Br101	Br	1.514723	0.927938	-0.467296
Br102	Br	2.014723	1.427938	0.032704
Br103	Br	0.752908	0.769685	-0.769138
Br104	Br	1.252908	1.269685	-0.269138
H105	H	1.261401	0.687646	-1.024015
H106	H	1.761401	1.187646	-0.524015
