data_functionalizedCrystal
_audit_creation_method	'MofGen! by Chris Wilmer'
_symmetry_space_group_name_H-M	'P1'
_symmetry_Int_Tables_number	1
_symmetry_cell_setting	triclinic
loop_
_symmetry_equiv_pos_as_xyz
  x,y,z
_cell_length_a	10.654550
_cell_length_b	10.654550
_cell_length_c	9.130313
_cell_angle_alpha	89.996647
_cell_angle_beta	89.999724
_cell_angle_gamma	84.484917
loop_
_atom_site_label
_atom_site_type_symbol
_atom_site_fract_x
_atom_site_fract_y
_atom_site_fract_z
O1	O	1.667839	0.176399	-0.121686
O2	O	1.302361	0.193205	-0.121712
O3	O	1.493503	0.002063	-0.121693
O4	O	1.476697	0.367541	-0.121705
O5	O	1.493490	0.002057	0.121906
O6	O	1.302348	0.193199	0.121886
O7	O	1.667826	0.176393	0.121913
Cu8	Cu	1.485086	0.184796	0.144142
Cu9	Cu	1.485101	0.184802	-0.143942
O10	O	1.476684	0.367535	0.121894
C11	C	1.255556	0.191968	0.000084
C12	C	1.116113	0.188276	0.000073
C13	C	1.036627	0.300818	0.000074
C14	C	0.905607	0.297341	0.000100
C15	C	0.933570	0.068772	0.000118
C16	C	1.064588	0.072250	0.000103
C17	C	1.492263	-0.044738	0.000104
C18	C	1.488571	-0.184181	0.000099
C19	C	1.601112	-0.263667	0.000112
C20	C	1.597636	-0.394688	0.000101
C21	C	1.369066	-0.366725	0.000072
C22	C	1.372544	-0.235706	0.000072
C23	C	1.733075	-0.279813	0.000135
C24	C	1.729599	-0.410834	0.000125
C25	C	1.714631	0.177630	0.000114
C26	C	1.854074	0.181322	0.000114
C27	C	1.477924	0.414336	0.000093
C28	C	1.481616	0.553779	0.000089
N29	N	1.485084	0.184790	0.346765
N30	N	1.485113	0.184798	-0.346564
C31	C	1.569751	0.100188	0.423425
C32	C	1.569763	0.100189	0.576762
C33	C	1.400437	0.269404	0.576765
C34	C	1.400420	0.269396	0.423431
H35	H	1.078574	0.395294	0.000061
H36	H	1.274601	-0.408693	0.000048
H37	H	0.840894	0.388984	0.000103
Br38	Br	0.863635	-0.088685	0.000153
H39	H	1.638704	0.031297	0.639175
Br40	Br	1.819113	-0.230864	-0.169755
Br41	Br	1.285543	0.384225	0.680816
Br42	Br	1.684648	-0.014636	0.319384
H43	H	1.331468	0.338290	0.361009
H44	H	1.129309	-0.019401	0.000107
Br45	Br	1.219803	-0.127834	0.000009
Br46	Br	1.803076	-0.220419	0.175459
Br47	Br	1.796072	-0.486917	-0.175170
Br48	Br	1.812458	-0.480452	0.170035
