data_functionalizedCrystal
_audit_creation_method	'MofGen! by Chris Wilmer'
_symmetry_space_group_name_H-M	'P1'
_symmetry_Int_Tables_number	1
_symmetry_cell_setting	triclinic
loop_
_symmetry_equiv_pos_as_xyz
  x,y,z
_cell_length_a	17.699083
_cell_length_b	14.519709
_cell_length_c	16.776229
_cell_angle_alpha	89.992406
_cell_angle_beta	89.998886
_cell_angle_gamma	83.481580
loop_
_atom_site_label
_atom_site_type_symbol
_atom_site_fract_x
_atom_site_fract_y
_atom_site_fract_z
O1	O	1.004412	0.116624	-0.066178
O2	O	1.504412	0.616624	0.433822
O3	O	0.784077	0.131797	-0.066204
O4	O	1.284077	0.631797	0.433796
O5	O	0.900087	-0.010052	-0.066183
O6	O	1.400087	0.489948	0.433817
O7	O	0.888403	0.258474	-0.066199
O8	O	1.388403	0.758474	0.433801
O9	O	0.900071	-0.010061	0.066393
O10	O	1.400071	0.489939	0.566393
O11	O	0.784062	0.131789	0.066372
O12	O	1.284062	0.631789	0.566372
O13	O	1.004397	0.116616	0.066398
O14	O	1.504397	0.616616	0.566398
Zn15	Zn	0.894227	0.124201	0.087435
Zn16	Zn	1.394227	0.624201	0.587435
Zn17	Zn	0.894247	0.124212	-0.087241
Zn18	Zn	1.394247	0.624212	0.412759
O19	O	0.888388	0.258465	0.066377
O20	O	1.388388	0.758465	0.566377
C21	C	0.755871	0.131249	0.000080
C22	C	1.255871	0.631249	0.500080
C23	C	0.671848	0.129618	0.000071
C24	C	1.171848	0.629618	0.500071
C25	C	0.899534	-0.044414	0.000105
C26	C	1.399534	0.455586	0.500105
C27	C	0.897903	-0.146789	0.000105
C28	C	1.397903	0.353211	0.500105
C29	C	0.623466	0.212881	0.000066
C30	C	1.123466	0.712881	0.500066
C31	C	0.544518	0.211343	0.000076
C32	C	1.044518	0.711343	0.500076
C33	C	0.513954	0.126541	0.000086
C34	C	1.013954	0.626541	0.500086
C35	C	0.562343	0.043272	0.000093
C36	C	1.062343	0.543272	0.500093
C37	C	0.641289	0.044811	0.000088
C38	C	1.141289	0.544811	0.500088
C39	C	0.243962	0.037064	0.000113
C40	C	0.743962	0.537064	0.500113
C41	C	0.165010	0.035531	0.000115
C42	C	0.665010	0.535531	0.500115
C43	C	0.147191	0.203596	0.000101
C44	C	0.647191	0.703596	0.500101
C45	C	0.226137	0.205135	0.000097
C46	C	0.726137	0.705135	0.500097
C47	C	0.274519	0.121866	0.000108
C48	C	0.774519	0.621866	0.500108
C49	C	0.360123	0.123535	0.000098
C50	C	0.860123	0.623535	0.500098
C51	C	0.428352	0.124872	0.000090
C52	C	0.928352	0.624872	0.500090
C53	C	0.891896	-0.521659	0.000084
C54	C	1.391896	-0.021659	0.500084
C55	C	0.893564	-0.417358	0.000090
C56	C	1.393564	0.082642	0.500090
C57	C	0.894899	-0.334227	0.000095
C58	C	1.394899	0.165773	0.500095
C59	C	0.896568	-0.229920	0.000100
C60	C	1.396568	0.270080	0.500100
C61	C	1.032603	0.117164	0.000112
C62	C	1.532603	0.617164	0.500112
C63	C	1.116626	0.118795	0.000116
C64	C	1.616626	0.618795	0.500116
C65	C	0.888940	0.292827	0.000087
C66	C	1.388940	0.792827	0.500087
C67	C	0.890572	0.395202	0.000082
C68	C	1.390572	0.895202	0.500082
N69	N	0.894219	0.124192	0.206646
N70	N	1.394219	0.624192	0.706646
N71	N	0.894262	0.124213	-0.206452
N72	N	1.394262	0.624213	0.293548
C73	C	0.945603	0.061407	0.248372
C74	C	1.445603	0.561407	0.748372
C75	C	0.945607	0.061406	0.331824
C76	C	1.445607	0.561406	0.831824
C77	C	0.894230	0.124196	0.373549
C78	C	1.394230	0.624196	0.873549
C79	C	0.842840	0.186984	0.331816
C80	C	1.342840	0.686984	0.831816
C81	C	0.842833	0.186980	0.248366
C82	C	1.342833	0.686980	0.748366
C83	C	0.842867	0.187002	0.668364
C84	C	1.342867	0.687002	1.168364
C85	C	0.842880	0.187004	0.751820
C86	C	1.342880	0.687004	1.251820
C87	C	0.945642	0.061429	0.751822
C88	C	1.445642	0.561429	1.251822
C89	C	0.945635	0.061424	0.668372
C90	C	1.445635	0.561424	1.168372
C91	C	0.894242	0.124209	0.626647
C92	C	1.394242	0.624209	1.126647
C93	C	0.894238	0.124208	0.536158
C94	C	1.394238	0.624208	1.036158
C95	C	0.894238	0.124202	0.464036
C96	C	1.394238	0.624202	0.964036
H97	H	0.648344	0.281937	0.000058
H98	H	1.148344	0.781937	0.500058
H99	H	0.251017	0.274189	0.000085
H100	H	0.751017	0.774189	0.500085
N101	N	0.097758	0.288647	0.000092
N102	N	0.597758	0.788647	0.500092
N103	N	0.027272	0.287268	0.000098
N104	N	0.527272	0.787268	0.500098
H105	H	-0.007640	0.347333	0.000089
H106	H	0.492360	0.847333	0.500089
N107	N	0.790347	0.251129	0.205753
N108	N	1.290347	0.751129	0.705753
N109	N	0.791495	0.336371	0.215060
N110	N	1.291495	0.836371	0.715060
H111	H	0.754424	0.381678	0.184966
H112	H	1.254424	0.881678	0.684966
N113	N	0.495108	0.296403	0.000076
N114	N	0.995108	0.796403	0.500076
N115	N	0.522406	0.372112	0.000064
N116	N	1.022406	0.872112	0.500064
H117	H	0.487510	0.432191	0.000065
H118	H	0.987510	0.932191	0.500065
N119	N	0.998098	-0.002738	0.374434
N120	N	1.498098	0.497262	0.874434
N121	N	1.043969	-0.058792	0.337171
N122	N	1.543969	0.441208	0.837171
H123	H	1.081042	-0.104099	0.367263
H124	H	1.581042	0.395901	0.867263
N125	N	0.531126	-0.043352	0.000119
N126	N	1.031126	0.456648	0.500119
N127	N	0.489064	-0.062963	0.056008
N128	N	0.989064	0.437037	0.556008
H129	H	0.467018	-0.124143	0.056027
H130	H	0.967018	0.375857	0.556027
H131	H	0.140129	-0.033529	0.000124
H132	H	0.640129	0.466471	0.500124
H133	H	0.987444	0.010280	0.214406
H134	H	1.487444	0.510280	0.714406
H135	H	0.283346	-0.030739	0.000123
H136	H	0.783346	0.469261	0.500123
N137	N	0.690703	-0.040249	0.000102
N138	N	1.190703	0.459751	0.500102
N139	N	0.663407	-0.115959	0.000114
N140	N	1.163407	0.384041	0.500114
H141	H	0.698304	-0.176037	0.000128
H142	H	1.198304	0.323963	0.500128
N143	N	0.998131	-0.002708	0.625765
N144	N	1.498131	0.497292	1.125765
N145	N	1.044010	-0.058759	0.663031
N146	N	1.544010	0.441241	1.163031
H147	H	1.081088	-0.104054	0.632942
H148	H	1.581088	0.395946	1.132942
N149	N	0.998132	-0.002705	0.794457
N150	N	1.498132	0.497295	1.294457
N151	N	0.998132	-0.002700	0.868966
N152	N	1.498132	0.497300	1.368966
H153	H	1.035203	-0.047992	0.899076
H154	H	1.535203	0.452008	1.399076
H155	H	0.801040	0.238137	0.785791
H156	H	1.301040	0.738137	1.285791
H157	H	0.801023	0.238126	0.634398
H158	H	1.301023	0.738126	1.134398
H159	H	0.801004	0.238106	0.365793
H160	H	1.301004	0.738106	0.865793
