data_functionalizedCrystal
_audit_creation_method	'MofGen! by Chris Wilmer'
_symmetry_space_group_name_H-M	'P1'
_symmetry_Int_Tables_number	1
_symmetry_cell_setting	triclinic
loop_
_symmetry_equiv_pos_as_xyz
  x,y,z
_cell_length_a	16.109302
_cell_length_b	16.109304
_cell_length_c	15.186229
_cell_angle_alpha	89.999066
_cell_angle_beta	90.005299
_cell_angle_gamma	96.537791
loop_
_atom_site_label
_atom_site_type_symbol
_atom_site_fract_x
_atom_site_fract_y
_atom_site_fract_z
O1	O	-1.103131	0.106869	-0.073263
O2	O	-0.861070	0.120167	-0.073255
O3	O	-0.988749	-0.007513	-0.073259
O4	O	-0.975452	0.234549	-0.073258
O5	O	-0.988740	-0.007514	0.073198
O6	O	-0.861061	0.120166	0.073202
O7	O	-1.103123	0.106867	0.073195
Zn8	Zn	-0.982091	0.113516	0.096452
Zn9	Zn	-0.982102	0.113518	-0.096512
O10	O	-0.975444	0.234547	0.073199
C11	C	-0.830090	0.119628	-0.000025
C12	C	-0.737795	0.118012	-0.000023
C13	C	-0.988206	-0.038488	-0.000033
C14	C	-0.986590	-0.130784	-0.000039
C15	C	-1.134102	0.107407	-0.000037
C16	C	-1.226397	0.109022	-0.000045
C17	C	-0.525450	0.114276	0.079802
C18	C	-0.438729	0.112750	0.079799
C19	C	-0.438749	0.112756	-0.079876
C20	C	-0.525468	0.114277	-0.079872
C21	C	-0.568816	0.115041	-0.000030
C22	C	-0.395377	0.111994	-0.000038
C23	C	-0.301351	0.110338	-0.000041
C24	C	-0.662848	0.116695	-0.000026
C25	C	-0.982861	-0.343120	-0.079869
C26	C	-0.981334	-0.429840	-0.079868
C27	C	-0.981329	-0.429839	0.079807
C28	C	-0.982849	-0.343120	0.079806
C29	C	-0.983619	-0.299763	-0.000035
C30	C	-0.980573	-0.473202	-0.000033
C31	C	-0.978918	-0.567228	-0.000031
C32	C	-0.985272	-0.205731	-0.000037
N33	N	-0.982089	0.113514	0.228144
C34	C	-0.975987	0.265523	-0.000029
C35	C	-0.977603	0.357818	-0.000029
N36	N	-0.982110	0.113514	-0.228205
C37	C	-1.038645	0.056996	0.453865
C38	C	-1.038647	0.056994	0.546055
C39	C	-0.925548	0.170034	0.546068
C40	C	-0.925542	0.170032	0.453880
C41	C	-0.982095	0.113514	0.407781
C42	C	-0.982104	0.113514	0.592159
C43	C	-0.982106	0.113513	0.692115
C44	C	-0.982092	0.113514	0.307819
H45	H	-0.560740	0.114899	0.144815
C46	C	-1.055982	-0.254952	0.172432
C47	C	-0.983683	-0.295453	0.167565
H48	H	-1.056489	-0.225520	0.226606
H49	H	-1.103835	-0.295134	0.169119
H50	H	-1.056644	-0.216723	0.124877
H51	H	-0.983024	-0.333687	0.215116
H52	H	-0.935818	-0.255266	0.170887
C53	C	-1.087474	-0.086929	0.425531
C54	C	-1.100798	-0.005154	0.403214
H55	H	-1.125842	-0.125305	0.394264
H56	H	-1.095558	-0.094989	0.487027
H57	H	-1.031988	-0.095955	0.410420
H58	H	-1.156283	0.003874	0.418331
H59	H	-1.092720	0.002910	0.341704
H60	H	-0.560779	0.114897	-0.144886
H61	H	-0.980704	-0.465151	0.144811
H62	H	-1.084694	0.010972	0.583574
C63	C	-0.875345	0.220238	0.687392
C64	C	-0.863396	0.232165	0.596743
H65	H	-0.836978	0.258602	0.718674
H66	H	-0.866328	0.164756	0.702503
H67	H	-0.930833	0.229283	0.702479
H68	H	-0.807910	0.223114	0.581656
H69	H	-0.872406	0.287661	0.581627
C70	C	-0.813751	0.281779	0.463145
C71	C	-0.863380	0.232163	0.403217
H72	H	-0.775380	0.320135	0.431866
H73	H	-0.783858	0.247165	0.499108
H74	H	-0.848359	0.311696	0.499096
H75	H	-0.828773	0.202241	0.367271
H76	H	-0.893276	0.266781	0.367240
H77	H	-0.403424	0.112127	0.144807
H78	H	-0.983485	-0.307821	-0.144881
H79	H	-0.403445	0.112134	-0.144881
H80	H	-0.980715	-0.465137	-0.144877
