data_functionalizedCrystal
_audit_creation_method	'MofGen! by Chris Wilmer'
_symmetry_space_group_name_H-M	'P1'
_symmetry_Int_Tables_number	1
_symmetry_cell_setting	triclinic
loop_
_symmetry_equiv_pos_as_xyz
  x,y,z
_cell_length_a	28.938199
_cell_length_b	28.937346
_cell_length_c	28.934044
_cell_angle_alpha	60.005004
_cell_angle_beta	60.009897
_cell_angle_gamma	59.994060
loop_
_atom_site_label
_atom_site_type_symbol
_atom_site_fract_x
_atom_site_fract_y
_atom_site_fract_z
O1	O	0.064043	-0.675186	0.564597
O2	O	0.564043	-0.175186	1.064597
O3	O	0.024124	-0.525682	0.454913
O4	O	0.524124	-0.025682	0.954913
O5	O	0.118795	-0.620275	0.454833
O6	O	0.618795	-0.120275	0.954833
O7	O	-0.030629	-0.580593	0.564678
O8	O	0.469371	-0.080593	1.064678
O9	O	0.150204	-0.588870	0.486157
O10	O	0.650204	-0.088870	0.986157
O11	O	0.055533	-0.494276	0.486238
O12	O	0.555533	0.005724	0.986238
O13	O	0.095452	-0.643780	0.595921
O14	O	0.595452	-0.143780	1.095921
Cu15	Cu	0.078360	-0.566161	0.543940
Cu16	Cu	0.578360	-0.066161	1.043940
Cu17	Cu	0.041215	-0.603301	0.506895
Cu18	Cu	0.541215	-0.103301	1.006895
O19	O	0.000780	-0.549187	0.596002
O20	O	0.500780	-0.049187	1.096002
N21	N	0.104487	-0.540042	0.569998
N22	N	0.604487	-0.040042	1.069998
N23	N	0.015094	-0.629425	0.480837
N24	N	0.515094	-0.129425	0.980837
C25	C	0.165467	-0.323909	0.630915
C26	C	0.665467	0.176091	1.130915
C27	C	0.165587	-0.479117	0.786068
C28	C	0.665587	0.020883	1.286068
C29	C	0.165481	-0.479095	0.630906
C30	C	0.665481	0.020905	1.130906
C31	C	0.320696	-0.479083	0.630835
C32	C	0.820696	0.020917	1.130835
C33	C	0.182557	-0.375118	0.647971
C34	C	0.682557	0.124882	1.147971
C35	C	0.182626	-0.462038	0.734858
C36	C	0.682626	0.037962	1.234858
C37	C	0.269485	-0.462018	0.647928
C38	C	0.769485	0.037982	1.147928
C39	C	0.182566	-0.462025	0.647966
C40	C	0.682566	0.037975	1.147966
C41	C	0.143714	-0.258726	0.609206
C42	C	0.643714	0.241274	1.109206
C43	C	0.143738	-0.500820	0.609192
C44	C	0.643738	-0.000820	1.109192
C45	C	0.204309	-0.440300	0.669680
C46	C	0.704309	0.059700	1.169680
C47	C	0.415481	-0.462740	0.580919
C48	C	0.915481	0.037260	1.080919
C49	C	0.474732	-0.482485	0.561145
C50	C	0.974732	0.017515	1.061145
C51	C	0.474757	-0.578356	0.597704
C52	C	0.974757	-0.078356	1.097704
C53	C	0.415508	-0.558609	0.617479
C54	C	0.915508	-0.058609	1.117479
C55	C	0.157989	-0.229089	0.550957
C56	C	0.657989	0.270911	1.050957
C57	C	0.138212	-0.169834	0.531225
C58	C	0.638212	0.330166	1.031225
C59	C	0.089890	-0.169857	0.627992
C60	C	0.589890	0.330143	1.127992
C61	C	0.109667	-0.229112	0.647725
C62	C	0.609667	0.270888	1.147725
C63	C	0.085482	-0.486515	0.623535
C64	C	0.585482	0.013485	1.123535
C65	C	0.065722	-0.506265	0.603789
C66	C	0.565722	-0.006265	1.103789
C67	C	0.162467	-0.554625	0.555370
C68	C	0.662467	-0.054625	1.055370
C69	C	0.182230	-0.534875	0.575110
C70	C	0.682230	-0.034875	1.075110
C71	C	0.085661	-0.486557	0.880902
C72	C	0.585661	0.013443	1.380902
C73	C	0.065952	-0.506323	0.940155
C74	C	0.565952	-0.006323	1.440155
C75	C	0.162734	-0.554693	0.940102
C76	C	0.662734	-0.054693	1.440102
C77	C	0.182441	-0.534928	0.880847
C78	C	0.682441	-0.034928	1.380847
C79	C	0.143904	-0.500859	0.851249
C80	C	0.643904	-0.000859	1.351249
C81	C	0.385871	-0.500801	0.609083
C82	C	0.885871	-0.000801	1.109083
C83	C	-0.110907	-0.668480	0.441278
C84	C	0.389093	-0.168480	0.941278
C85	C	-0.024049	-0.668588	0.441475
C86	C	0.475951	-0.168588	0.941475
C87	C	-0.045729	-0.690282	0.419668
C88	C	0.454271	-0.190282	0.919668
C89	C	-0.062146	-0.785032	0.469507
C90	C	0.437854	-0.285032	0.969507
C91	C	-0.042446	-0.844287	0.489286
C92	C	0.457554	-0.344287	0.989286
C93	C	0.053426	-0.844399	0.452899
C94	C	0.553426	-0.344399	0.952899
C95	C	0.033725	-0.785144	0.433120
C96	C	0.533725	-0.285144	0.933120
C97	C	-0.140617	-0.682751	0.499509
C98	C	0.359383	-0.182751	0.999509
C99	C	-0.199867	-0.662928	0.519152
C100	C	0.300133	-0.162928	1.019152
C101	C	-0.199694	-0.614571	0.422330
C102	C	0.300306	-0.114571	0.922330
C103	C	-0.140443	-0.634393	0.402687
C104	C	0.359557	-0.134393	0.902687
C105	C	-0.038320	-0.610337	0.427144
C106	C	0.461680	-0.110337	0.927144
C107	C	-0.018610	-0.590621	0.446974
C108	C	0.481390	-0.090621	0.946974
C109	C	0.029642	-0.687402	0.495454
C110	C	0.529642	-0.187402	0.995454
C111	C	0.009933	-0.707121	0.475630
C112	C	0.509933	-0.207121	0.975630
C113	C	-0.038148	-0.610347	0.324832
C114	C	0.461852	-0.110347	0.824832
C115	C	-0.018301	-0.590634	0.265579
C116	C	0.481699	-0.090634	0.765579
C117	C	0.030035	-0.687421	0.265643
C118	C	0.530035	-0.187421	0.765643
C119	C	0.010190	-0.707133	0.324897
C120	C	0.510190	-0.207133	0.824897
C121	C	-0.023903	-0.668595	0.354491
C122	C	0.476097	-0.168595	0.854491
C123	C	-0.024062	-0.755463	0.441426
C124	C	0.475938	-0.255463	0.941426
N125	N	0.503527	-0.540005	0.569810
N126	N	1.003527	-0.040005	1.069810
O127	O	0.684453	-0.545211	0.434650
O128	O	1.184453	-0.045211	0.934650
O129	O	0.684643	-0.655237	0.584005
O130	O	1.184643	-0.155237	1.084005
O131	O	0.684567	-0.654986	0.489282
O132	O	1.184567	-0.154986	0.989282
O133	O	0.684529	-0.545462	0.529373
O134	O	1.184529	-0.045462	1.029373
O135	O	0.590438	-0.623674	0.520735
O136	O	1.090438	-0.123674	1.020735
O137	O	0.590513	-0.623924	0.615457
O138	O	1.090513	-0.123924	1.115457
O139	O	0.590323	-0.513899	0.466102
O140	O	1.090323	-0.013899	0.966102
Cu141	Cu	0.581823	-0.566053	0.543652
Cu142	Cu	1.081823	-0.066053	1.043652
Cu143	Cu	0.693143	-0.603083	0.506456
Cu144	Cu	1.193143	-0.103083	1.006456
O145	O	0.590399	-0.514149	0.560825
O146	O	1.090399	-0.014149	1.060825
N147	N	0.771439	-0.629131	0.480292
N148	N	1.271439	-0.129131	0.980292
N149	N	0.104456	-0.141061	0.570015
N150	N	0.604456	0.358939	1.070015
O151	O	-0.030629	0.039964	0.564688
O152	O	0.469371	0.539964	1.064688
O153	O	0.118732	0.039984	0.454661
O154	O	0.618732	0.539984	0.954661
O155	O	0.023980	0.039958	0.454946
O156	O	0.523980	0.539958	0.954946
O157	O	0.064123	0.039990	0.564403
O158	O	0.564123	0.539990	1.064403
O159	O	0.055392	-0.054179	0.486321
O160	O	0.555392	0.445821	0.986321
O161	O	0.150144	-0.054153	0.486036
O162	O	0.650144	0.445847	0.986036
O163	O	0.000784	-0.054173	0.596063
O164	O	0.500784	0.445827	1.096063
Cu165	Cu	0.078332	-0.062759	0.543914
Cu166	Cu	0.578332	0.437241	1.043914
Cu167	Cu	0.041183	0.048570	0.506810
Cu168	Cu	0.541183	0.548570	1.006810
O169	O	0.095535	-0.054147	0.595778
O170	O	0.595535	0.445853	1.095778
N171	N	0.015053	0.126872	0.480710
N172	N	0.515053	0.626872	0.980710
N173	N	0.104760	-0.540096	0.968910
N174	N	0.604760	-0.040096	1.468910
O175	O	0.099447	-0.675167	1.149923
O176	O	0.599447	-0.175167	1.649923
O177	O	-0.010552	-0.525757	1.149951
O178	O	0.489448	-0.025757	1.649951
O179	O	-0.010297	-0.620493	1.149918
O180	O	0.489703	-0.120493	1.649918
O181	O	0.099192	-0.580431	1.149956
O182	O	0.599192	-0.080431	1.649956
O183	O	0.021064	-0.589100	1.055785
O184	O	0.521064	-0.089100	1.555785
O185	O	0.020809	-0.494365	1.055818
O186	O	0.520809	0.005635	1.555818
O187	O	0.130808	-0.643774	1.055790
O188	O	0.630808	-0.143774	1.555790
Cu189	Cu	0.078672	-0.566203	1.047209
Cu190	Cu	0.578672	-0.066203	1.547209
Cu191	Cu	0.041584	-0.603328	1.158532
Cu192	Cu	0.541584	-0.103328	1.658532
O193	O	0.130553	-0.549038	1.055823
O194	O	0.630553	-0.049038	1.555823
N195	N	0.015495	-0.629442	1.236831
N196	N	0.515495	-0.129442	1.736831
C197	C	0.036087	-0.491140	0.455465
C198	C	0.536087	0.008860	0.955465
C199	C	0.153325	-0.608283	0.455364
C200	C	0.653325	-0.108283	0.955364
C201	C	0.083488	-0.678322	0.595370
C202	C	0.583488	-0.178322	1.095370
C203	C	-0.033750	-0.561180	0.595470
C204	C	0.466250	-0.061180	1.095470
C205	C	0.637601	-0.654732	0.618548
C206	C	1.137601	-0.154732	1.118548
C207	C	0.637509	-0.654422	0.501245
C208	C	1.137509	-0.154422	1.001245
C209	C	0.637362	-0.514403	0.431560
C210	C	1.137362	-0.014403	0.931560
C211	C	0.637458	-0.514713	0.548862
C212	C	1.137458	-0.014713	1.048862
C213	C	0.153215	-0.006966	0.455158
C214	C	0.653215	0.493034	0.955158
C215	C	0.035916	-0.007114	0.455550
C216	C	0.535916	0.492886	0.955550
C217	C	-0.033739	-0.007106	0.595527
C218	C	0.466261	0.492894	1.095527
C219	C	0.083600	-0.007076	0.595174
C220	C	0.583600	0.492924	1.095174
C221	C	-0.010020	-0.491238	1.102888
C222	C	0.489980	0.008762	1.602888
C223	C	-0.009698	-0.608550	1.102828
C224	C	0.490302	-0.108550	1.602828
C225	C	0.130276	-0.678293	1.102853
C226	C	0.630276	-0.178293	1.602853
C227	C	0.129961	-0.560974	1.102892
C228	C	0.629961	-0.060974	1.602892
H229	H	0.054276	-0.458811	0.856808
H230	H	0.554276	0.041189	1.356808
O231	O	0.093741	-0.729596	0.636398
O232	O	0.593741	-0.229596	1.136398
C233	C	0.160915	-0.822764	0.662443
C234	C	0.660915	-0.322764	1.162443
C235	C	0.149375	-0.764727	0.615924
C236	C	0.649375	-0.264727	1.115924
H237	H	0.205898	-0.851180	0.645911
H238	H	0.705898	-0.351180	1.145911
H239	H	0.129588	-0.843202	0.674823
H240	H	0.629588	-0.343202	1.174823
H241	H	0.155811	-0.816861	0.701053
H242	H	0.655811	-0.316861	1.201053
H243	H	0.154486	-0.770581	0.577284
H244	H	0.654486	-0.270581	1.077284
H245	H	0.180700	-0.744310	0.603592
H246	H	0.680700	-0.244310	1.103592
H247	H	0.637525	-0.688829	0.492664
H248	H	1.137525	-0.188829	0.992664
O249	O	0.637191	-0.473138	0.380434
O250	O	1.137191	0.026862	0.880434
C251	C	0.588334	-0.378738	0.329957
C252	C	1.088334	0.121262	0.829957
C253	C	0.588451	-0.425426	0.387892
C254	C	1.088451	0.074574	0.887892
H255	H	0.548938	-0.340147	0.335968
H256	H	1.048938	0.159853	0.835968
H257	H	0.588284	-0.395099	0.301404
H258	H	1.088284	0.104901	0.801404
H259	H	0.627723	-0.366390	0.309611
H260	H	1.127723	0.133610	0.809611
H261	H	0.549069	-0.437794	0.408287
H262	H	1.049069	0.062206	0.908287
H263	H	0.588531	-0.409039	0.416405
H264	H	1.088531	0.090961	0.916405
H265	H	-0.044554	-0.448327	1.102896
H266	H	0.455446	0.051673	1.602896
H267	H	0.637649	-0.689271	0.661445
H268	H	1.137649	-0.189271	1.161445
O269	O	0.170985	-0.550813	1.102997
O270	O	0.670985	-0.050813	1.602997
C271	C	0.232767	-0.578067	1.151746
C272	C	0.732767	-0.078067	1.651746
C273	C	0.186300	-0.589627	1.151706
C274	C	0.686300	-0.089627	1.651706
H275	H	0.245171	-0.609449	1.191117
H276	H	0.745171	-0.109449	1.691117
H277	H	0.216189	-0.533107	1.151793
H278	H	0.716189	-0.033107	1.651793
H279	H	0.271372	-0.583110	1.112330
H280	H	0.771372	-0.083110	1.612330
H281	H	0.147680	-0.584616	1.191115
H282	H	0.647680	-0.084616	1.691115
H283	H	0.202923	-0.634583	1.151630
H284	H	0.702923	-0.134583	1.651630
H285	H	0.637450	-0.480310	0.557440
H286	H	1.137450	0.019690	1.057440
H287	H	0.196022	-0.006699	0.420530
H288	H	0.696022	0.493301	0.920530
O289	O	0.023868	-0.763725	0.489578
O290	O	0.523868	-0.263725	0.989578
C291	C	0.073783	-0.857642	0.539781
C292	C	0.573783	-0.357642	1.039781
C293	C	0.058052	-0.793556	0.524020
C294	C	0.558052	-0.293556	1.024020
H295	H	0.101412	-0.881779	0.567639
H296	H	0.601412	-0.381779	1.067639
H297	H	0.097995	-0.869363	0.499602
H298	H	0.597995	-0.369363	0.999602
H299	H	0.033546	-0.869228	0.563803
H300	H	0.533546	-0.369228	1.063803
H301	H	0.098259	-0.781924	0.500012
H302	H	0.598259	-0.281924	1.000012
H303	H	0.033817	-0.781869	0.564219
H304	H	0.533817	-0.281869	1.064219
O305	O	0.025586	-0.007165	0.414600
O306	O	0.525586	0.492835	0.914600
C307	C	-0.041680	-0.007191	0.388745
C308	C	0.458320	0.492809	0.888745
C309	C	-0.030057	-0.007135	0.435171
C310	C	0.469943	0.492865	0.935171
H311	H	-0.086670	-0.007154	0.405355
H312	H	0.413330	0.492846	0.905355
H313	H	-0.010375	-0.046604	0.376391
H314	H	0.489625	0.453396	0.876391
H315	H	-0.036606	0.032189	0.350099
H316	H	0.463394	0.532189	0.850099
H317	H	-0.035137	-0.046488	0.473847
H318	H	0.464863	0.453512	0.973847
H319	H	-0.061359	0.032304	0.447476
H320	H	0.438641	0.532304	0.947476
O321	O	-0.050647	-0.618839	1.102741
O322	O	0.449353	-0.118839	1.602741
C323	C	-0.076517	-0.686064	1.102675
C324	C	0.423483	-0.186064	1.602675
C325	C	-0.030088	-0.674484	1.102760
C326	C	0.469912	-0.174484	1.602760
H327	H	-0.059916	-0.731056	1.102702
H328	H	0.440084	-0.231056	1.602702
H329	H	-0.088861	-0.654749	1.063258
H330	H	0.411139	-0.154749	1.563258
H331	H	-0.115165	-0.680969	1.142047
H332	H	0.384835	-0.180969	1.642047
H333	H	0.008591	-0.679586	1.063415
H334	H	0.508591	-0.179586	1.563415
H335	H	-0.017791	-0.705797	1.142203
H336	H	0.482209	-0.205797	1.642203
O337	O	-0.084953	-0.007077	0.636664
O338	O	0.415047	0.492923	1.136664
C339	C	-0.178189	-0.007110	0.663008
C340	C	0.321811	0.492890	1.163008
C341	C	-0.120218	-0.007136	0.616369
C342	C	0.379782	0.492864	1.116369
H343	H	-0.206713	-0.007170	0.646620
H344	H	0.293287	0.492830	1.146620
H345	H	-0.198544	0.032303	0.675334
H346	H	0.301456	0.532303	1.175334
H347	H	-0.172211	-0.046490	0.701617
H348	H	0.327789	0.453510	1.201617
H349	H	-0.126146	0.032217	0.577729
H350	H	0.373854	0.532217	1.077729
H351	H	-0.099882	-0.046575	0.604091
H352	H	0.400118	0.453425	1.104091
O353	O	0.093955	-0.007101	0.636150
O354	O	0.593955	0.492899	1.136150
C355	C	0.161217	-0.007065	0.662002
C356	C	0.661217	0.492935	1.162002
C357	C	0.149569	-0.007044	0.615550
C358	C	0.649569	0.492956	1.115550
H359	H	0.206176	-0.007007	0.645360
H360	H	0.706176	0.492993	1.145360
H361	H	0.156217	-0.046476	0.700631
H362	H	0.656217	0.453524	1.200631
H363	H	0.129861	0.032317	0.674393
H364	H	0.629861	0.532317	1.174393
H365	H	0.180915	-0.046400	0.603111
H366	H	0.680915	0.453600	1.103111
H367	H	0.154550	0.032392	0.576951
H368	H	0.654550	0.532392	1.076951
O369	O	-0.084971	-0.550992	0.636570
O370	O	0.415029	-0.050992	1.136570
C371	C	-0.178187	-0.483941	0.662733
C372	C	0.321813	0.016059	1.162733
C373	C	-0.120202	-0.495399	0.616141
C374	C	0.379798	0.004601	1.116141
H375	H	-0.206691	-0.438999	0.646229
H376	H	0.293309	0.061001	1.146229
H377	H	-0.172287	-0.489005	0.701329
H378	H	0.327713	0.010995	1.201329
H379	H	-0.198522	-0.515358	0.675122
H380	H	0.301478	-0.015358	1.175122
H381	H	-0.099834	-0.463993	0.603703
H382	H	0.400166	0.036007	1.103703
H383	H	-0.126138	-0.490354	0.577575
H384	H	0.373862	0.009646	1.077575
O385	O	0.171460	-0.729480	1.102766
O386	O	0.671460	-0.229480	1.602766
C387	C	0.231326	-0.797629	1.053955
C388	C	0.731326	-0.297629	1.553955
C389	C	0.184674	-0.739657	1.053991
C390	C	0.684674	-0.239657	1.553991
H391	H	0.242031	-0.805870	1.014519
H392	H	0.742031	-0.305870	1.514519
H393	H	0.215778	-0.832219	1.093313
H394	H	0.715778	-0.332219	1.593313
H395	H	0.270737	-0.797697	1.053991
H396	H	0.770737	-0.297697	1.553991
H397	H	0.145247	-0.739534	1.053935
H398	H	0.645247	-0.239534	1.553935
H399	H	0.200267	-0.705092	1.014636
H400	H	0.700267	-0.205092	1.514636
O401	O	0.009359	-0.492443	0.968893
O402	O	0.509359	0.007557	1.468893
C403	C	-0.079385	-0.496984	0.987085
C404	C	0.420615	0.003016	1.487085
C405	C	-0.015304	-0.512724	0.954495
C406	C	0.484696	-0.012724	1.454495
H407	H	-0.099343	-0.513384	0.975464
H408	H	0.400657	-0.013384	1.475464
H409	H	-0.099403	-0.449005	0.975438
H410	H	0.400597	0.050995	1.475438
H411	H	-0.086843	-0.516945	1.034516
H412	H	0.413157	-0.016945	1.534516
H413	H	-0.007796	-0.492801	0.907056
H414	H	0.492204	0.007199	1.407056
H415	H	0.004681	-0.560708	0.966189
H416	H	0.504681	-0.060708	1.466189
O417	O	0.200246	-0.587800	0.968766
O418	O	0.700246	-0.087800	1.468766
C419	C	0.298320	-0.633669	0.962459
C420	C	0.798320	-0.133669	1.462459
C421	C	0.255901	-0.596175	0.929926
C422	C	0.755901	-0.096175	1.429926
H423	H	0.343326	-0.640442	0.931071
H424	H	0.843326	-0.140442	1.431071
H425	H	0.291555	-0.676318	0.990175
H426	H	0.791555	-0.176318	1.490175
H427	H	0.291477	-0.611970	0.990220
H428	H	0.791477	-0.111970	1.490220
H429	H	0.262718	-0.617824	0.902134
H430	H	0.762718	-0.117824	1.402134
H431	H	0.262676	-0.553528	0.902246
H432	H	0.762676	-0.053528	1.402246
H433	H	0.229870	-0.546579	0.856706
H434	H	0.729870	-0.046579	1.356706
H435	H	0.196241	-0.616742	0.420869
H436	H	0.696241	-0.116742	0.920869
H437	H	0.018285	-0.494604	0.615454
H438	H	0.518285	0.005396	1.115454
O439	O	0.048014	-0.453417	0.656611
O440	O	0.548014	0.046583	1.156611
C441	C	-0.050033	-0.407555	0.702574
C442	C	0.449967	0.092445	1.202574
C443	C	-0.007662	-0.445033	0.665099
C444	C	0.492338	0.054967	1.165099
H445	H	-0.095056	-0.400775	0.709459
H446	H	0.404944	0.099225	1.209459
H447	H	-0.043263	-0.364908	0.680874
H448	H	0.456737	0.135092	1.180874
H449	H	-0.043143	-0.429272	0.745171
H450	H	0.456857	0.070728	1.245171
H451	H	-0.014526	-0.423366	0.622496
H452	H	0.485474	0.076634	1.122496
H453	H	-0.014442	-0.487678	0.686844
H454	H	0.485558	0.012322	1.186844
H455	H	0.193817	-0.582360	0.527624
H456	H	0.693817	-0.082360	1.027624
H457	H	0.229667	-0.546519	0.563426
H458	H	0.729667	-0.046519	1.063426
H459	H	0.498884	-0.625426	0.604536
H460	H	0.998884	-0.125426	1.104536
O461	O	0.386777	-0.595597	0.644744
O462	O	0.886777	-0.095597	1.144744
C463	C	0.368689	-0.665284	0.639476
C464	C	0.868689	-0.165284	1.139476
C465	C	0.401248	-0.623403	0.608530
C466	C	0.901248	-0.123403	1.108530
H467	H	0.380386	-0.687785	0.610214
H468	H	0.880386	-0.187785	1.110214
H469	H	0.321241	-0.641275	0.652154
H470	H	0.821241	-0.141275	1.152154
H471	H	0.380365	-0.697827	0.678991
H472	H	0.880365	-0.197827	1.178991
H473	H	0.389619	-0.590850	0.568994
H474	H	0.889619	-0.090850	1.068994
H475	H	0.448687	-0.647450	0.595894
H476	H	0.948687	-0.147450	1.095894
O477	O	0.503411	-0.445433	0.533772
O478	O	1.003411	0.054567	1.033772
C479	C	0.497140	-0.348263	0.499617
C480	C	0.997140	0.151737	0.999617
C481	C	0.464589	-0.390159	0.530619
C482	C	0.964589	0.109841	1.030619
H483	H	0.465767	-0.303567	0.497068
H484	H	0.965767	0.196433	0.997068
H485	H	0.524838	-0.350030	0.455048
H486	H	1.024838	0.149970	0.955048
H487	H	0.524920	-0.360186	0.523823
H488	H	1.024920	0.139814	1.023823
H489	H	0.436779	-0.378265	0.506460
H490	H	0.936779	0.121735	1.006460
H491	H	0.436927	-0.388386	0.575191
H492	H	0.936927	0.111614	1.075191
H493	H	0.391352	-0.415667	0.574082
H494	H	0.891352	0.084333	1.074082
H495	H	0.185713	-0.253197	0.519589
H496	H	0.685713	0.246803	1.019589
O497	O	0.026020	-0.439931	0.414310
O498	O	0.526020	0.060069	0.914310
C499	C	0.063126	-0.381749	0.318896
C500	C	0.563126	0.118251	0.818896
C501	C	0.074607	-0.439763	0.365457
C502	C	0.574607	0.060237	0.865457
H503	H	0.102396	-0.381597	0.279383
H504	H	0.602396	0.118403	0.779383
H505	H	0.052400	-0.347201	0.334484
H506	H	0.552400	0.152799	0.834484
H507	H	0.026060	-0.373510	0.308338
H508	H	0.526060	0.126490	0.808338
H509	H	0.111680	-0.448055	0.376035
H510	H	0.611680	0.051945	0.876035
H511	H	0.085300	-0.474278	0.349845
H512	H	0.585300	0.025722	0.849845
O513	O	0.152051	-0.141101	0.474627
O514	O	0.652051	0.358899	0.974627
C515	C	0.147440	-0.122928	0.385906
C516	C	0.647440	0.377072	0.885906
C517	C	0.131746	-0.155511	0.449993
C518	C	0.631746	0.344489	0.949993
H519	H	0.131020	-0.134557	0.365973
H520	H	0.631020	0.365443	0.865973
H521	H	0.195412	-0.134575	0.365875
H522	H	0.695412	0.365425	0.865875
H523	H	0.127471	-0.075493	0.378435
H524	H	0.627471	0.424507	0.878435
H525	H	0.151677	-0.202953	0.457516
H526	H	0.651677	0.297047	0.957516
H527	H	0.083769	-0.143817	0.469993
H528	H	0.583769	0.356183	0.969993
O529	O	0.056888	-0.141151	0.665465
O530	O	0.556888	0.358849	1.165465
C531	C	0.049390	-0.123012	0.742088
C532	C	0.549390	0.376988	1.242088
C533	C	0.086819	-0.155562	0.699689
C534	C	0.586819	0.344438	1.199689
H535	H	0.073579	-0.134642	0.769762
H536	H	0.573579	0.365358	1.269762
H537	H	0.009202	-0.134687	0.769890
H538	H	0.509202	0.365313	1.269890
H539	H	0.037688	-0.075572	0.717970
H540	H	0.537688	0.424428	1.217970
H541	H	0.098564	-0.203010	0.723762
H542	H	0.598564	0.296990	1.223762
H543	H	0.126980	-0.143840	0.671888
H544	H	0.626980	0.356160	1.171888
O545	O	0.095916	-0.257947	0.704298
O546	O	0.595916	0.242053	1.204298
C547	C	0.130059	-0.324778	0.782711
C548	C	0.630059	0.175222	1.282711
C549	C	0.145704	-0.292177	0.718628
C550	C	0.645704	0.207823	1.218628
H551	H	0.170303	-0.352451	0.794318
H552	H	0.670303	0.147549	1.294318
H553	H	0.105967	-0.352578	0.794448
H554	H	0.605967	0.147422	1.294448
H555	H	0.102317	-0.293402	0.806816
H556	H	0.602317	0.206598	1.306816
H557	H	0.173464	-0.323511	0.694479
H558	H	0.673464	0.176489	1.194479
H559	H	0.169767	-0.264368	0.706934
H560	H	0.669767	0.235632	1.206934
H561	H	0.021795	-0.754566	0.349042
H562	H	0.521795	-0.254566	0.849042
H563	H	-0.065911	-0.578960	0.348925
H564	H	0.434089	-0.078960	0.848925
O565	O	-0.032247	-0.534042	0.236801
O566	O	0.467753	-0.034042	0.736801
C567	C	-0.107299	-0.445243	0.218564
C568	C	0.392701	0.054757	0.718564
C569	C	-0.091584	-0.509325	0.251181
C570	C	0.408416	-0.009325	0.751181
H571	H	-0.155273	-0.425237	0.230187
H572	H	0.344727	0.074763	0.730187
H573	H	-0.087306	-0.437734	0.171124
H574	H	0.412694	0.062266	0.671124
H575	H	-0.090948	-0.425309	0.230265
H576	H	0.409052	0.074691	0.730265
H577	H	-0.107932	-0.529301	0.239527
H578	H	0.392068	-0.029301	0.739527
H579	H	-0.111569	-0.516793	0.298613
H580	H	0.388431	-0.016793	0.798613
O581	O	0.063078	-0.724914	0.236963
O582	O	0.563078	-0.224914	0.736963
C583	C	0.070639	-0.801535	0.218782
C584	C	0.570639	-0.301535	0.718782
C585	C	0.033163	-0.759112	0.251306
C586	C	0.533163	-0.259112	0.751306
H587	H	0.046463	-0.829187	0.230357
H588	H	0.546463	-0.329187	0.730357
H589	H	0.110795	-0.829359	0.230534
H590	H	0.610795	-0.329359	0.730534
H591	H	0.082394	-0.777434	0.171340
H592	H	0.582394	-0.277434	0.671340
H593	H	0.021365	-0.783167	0.298755
H594	H	0.521365	-0.283167	0.798755
H595	H	-0.006966	-0.731289	0.239507
H596	H	0.493034	-0.231289	0.739507
O597	O	-0.071346	-0.572830	0.393995
O598	O	0.428654	-0.072830	0.893995
C599	C	-0.117101	-0.474752	0.347976
C600	C	0.382899	0.025248	0.847976
C601	C	-0.079707	-0.517167	0.385534
C602	C	0.420293	-0.017167	0.885534
H603	H	-0.123863	-0.429740	0.341114
H604	H	0.376137	0.070260	0.841114
H605	H	-0.159758	-0.481482	0.369597
H606	H	0.340242	0.018518	0.869597
H607	H	-0.095330	-0.481639	0.305376
H608	H	0.404670	0.018361	0.805376
H609	H	-0.101428	-0.510306	0.428141
H610	H	0.398572	-0.010306	0.928141
H611	H	-0.037052	-0.510426	0.363869
H612	H	0.462948	-0.010426	0.863869
H613	H	-0.223743	-0.586821	0.390905
H614	H	0.276257	-0.086821	0.890905
H615	H	-0.030233	-0.543188	0.435308
H616	H	0.469767	-0.043188	0.935308
H617	H	0.057315	-0.718782	0.523258
H618	H	0.557315	-0.218782	1.023258
H619	H	0.064741	-0.761071	0.410254
H620	H	0.564741	-0.261071	0.910254
O621	O	0.109579	-0.873211	0.444734
O622	O	0.609579	-0.373211	0.944734
C623	C	0.203855	-0.891427	0.377094
C624	C	0.703855	-0.391427	0.877094
C625	C	0.140280	-0.858772	0.386262
C626	C	0.640280	-0.358772	0.886262
H627	H	0.228697	-0.879756	0.329821
H628	H	0.728697	-0.379756	0.829821
H629	H	0.211430	-0.938863	0.396013
H630	H	0.711430	-0.438863	0.896013
H631	H	0.218508	-0.879806	0.398667
H632	H	0.718508	-0.379806	0.898667
H633	H	0.125584	-0.870345	0.364688
H634	H	0.625584	-0.370345	0.864688
H635	H	0.132742	-0.811343	0.367357
H636	H	0.632742	-0.311343	0.867357
O637	O	-0.079517	-0.872922	0.516537
O638	O	0.420483	-0.372922	1.016537
C639	C	-0.149208	-0.890955	0.511217
C640	C	0.350792	-0.390955	1.011217
C641	C	-0.107236	-0.858497	0.480263
C642	C	0.392764	-0.358497	0.980263
H643	H	-0.171623	-0.879314	0.481899
H644	H	0.328377	-0.379314	0.981899
H645	H	-0.181810	-0.879207	0.550678
H646	H	0.318190	-0.379207	1.050678
H647	H	-0.125231	-0.938409	0.523983
H648	H	0.374769	-0.438409	1.023983
H649	H	-0.131165	-0.811036	0.467459
H650	H	0.368835	-0.311036	0.967459
H651	H	-0.074636	-0.870292	0.440827
H652	H	0.425364	-0.370292	0.940827
O653	O	-0.118254	-0.756132	0.477467
O654	O	0.381746	-0.256132	0.977467
C655	C	-0.189821	-0.689193	0.433638
C656	C	0.310179	-0.189193	0.933638
C657	C	-0.126262	-0.721883	0.424549
C658	C	0.373738	-0.221883	0.924549
H659	H	-0.196316	-0.661505	0.390861
H660	H	0.303684	-0.161505	0.890861
H661	H	-0.206550	-0.661400	0.459658
H662	H	0.293450	-0.161400	0.959658
H663	H	-0.213655	-0.720511	0.457129
H664	H	0.286345	-0.220511	0.957129
H665	H	-0.102381	-0.690607	0.401042
H666	H	0.397619	-0.190607	0.901042
H667	H	-0.109576	-0.749686	0.398551
H668	H	0.390424	-0.249686	0.898551
H669	H	-0.116569	-0.710512	0.530934
H670	H	0.383431	-0.210512	1.030934
H671	H	-0.224058	-0.674545	0.566571
H672	H	0.275942	-0.174545	1.066571
H673	H	-0.116252	-0.622767	0.355267
H674	H	0.383748	-0.122767	0.855267
