data_functionalizedCrystal
_audit_creation_method	'MofGen! by Chris Wilmer'
_symmetry_space_group_name_H-M	'P1'
_symmetry_Int_Tables_number	1
_symmetry_cell_setting	triclinic
loop_
_symmetry_equiv_pos_as_xyz
  x,y,z
_cell_length_a	19.188930
_cell_length_b	18.266242
_cell_length_c	11.792254
_cell_angle_alpha	90.006490
_cell_angle_beta	83.671689
_cell_angle_gamma	90.022918
loop_
_atom_site_label
_atom_site_type_symbol
_atom_site_fract_x
_atom_site_fract_y
_atom_site_fract_z
O1	O	0.926956	0.061117	0.141695
O2	O	1.426956	0.561117	0.641695
O3	O	0.723753	0.061067	0.160769
O4	O	1.223753	0.561067	0.660769
O5	O	0.830281	0.061088	-0.014012
O6	O	1.330281	0.561088	0.485988
O7	O	0.820428	0.061096	0.316475
O8	O	1.320428	0.561096	0.816475
O9	O	0.830263	-0.060674	-0.014021
O10	O	1.330263	0.439326	0.485979
O11	O	0.723735	-0.060695	0.160760
O12	O	1.223735	0.439305	0.660760
O13	O	0.926938	-0.060645	0.141686
O14	O	1.426938	0.439355	0.641686
Zn15	Zn	0.825333	-0.080003	0.151221
Zn16	Zn	1.325333	0.419997	0.651221
Zn17	Zn	0.825357	0.080424	0.151233
Zn18	Zn	1.325357	0.580424	0.651233
O19	O	0.820410	-0.060666	0.316466
O20	O	1.320410	0.439334	0.816466
C21	C	0.697729	0.000179	0.160147
C22	C	1.197729	0.500179	0.660147
C23	C	0.620214	0.000160	0.158292
C24	C	1.120214	0.500160	0.658292
N25	N	0.825322	-0.189490	0.151213
N26	N	1.325322	0.310510	0.651213
C27	C	0.575874	0.000174	0.260848
C28	C	1.075874	0.500174	0.760848
C29	C	0.503041	0.000182	0.259106
C30	C	1.003041	0.500182	0.759106
C31	C	0.474550	0.000191	0.154803
C32	C	0.974550	0.500191	0.654803
C33	C	0.518900	0.000173	0.052234
C34	C	1.018900	0.500173	0.552234
C35	C	0.591732	0.000157	0.053979
C36	C	1.091732	0.500157	0.553979
N37	N	0.366122	0.041659	0.075079
N38	N	0.866122	0.541659	0.575079
N39	N	0.296934	0.041675	0.073428
N40	N	0.796934	0.541675	0.573428
C41	C	0.255112	0.000235	0.149539
C42	C	0.755112	0.500235	0.649539
N43	N	0.285089	-0.041212	0.227380
N44	N	0.785089	0.458788	0.727380
N45	N	0.354283	-0.041225	0.229034
N46	N	0.854283	0.458775	0.729034
C47	C	0.395577	0.000207	0.152899
C48	C	0.895577	0.500207	0.652899
C49	C	0.131796	0.000257	0.250213
C50	C	0.631796	0.500257	0.750213
C51	C	0.058962	0.000260	0.248466
C52	C	0.558962	0.500260	0.748466
C53	C	0.074823	0.000258	0.041591
C54	C	0.574823	0.500258	0.541591
C55	C	0.147656	0.000248	0.043340
C56	C	0.647656	0.500248	0.543340
C57	C	0.176138	0.000250	0.147654
C58	C	0.676138	0.500250	0.647654
C59	C	0.872508	-0.227789	0.073858
C60	C	1.372508	0.272211	0.573858
C61	C	0.872513	-0.304434	0.073852
C62	C	1.372513	0.195566	0.573852
C63	C	0.825338	-0.342776	0.151222
C64	C	1.325338	0.157224	0.651222
C65	C	0.778142	-0.304468	0.228582
C66	C	1.278142	0.195532	0.728582
C67	C	0.778135	-0.227824	0.228578
C68	C	1.278135	0.272176	0.728578
N69	N	0.816834	-0.463108	0.251691
N70	N	1.316834	0.036892	0.751691
N71	N	0.816846	-0.535916	0.251692
N72	N	1.316846	-0.035916	0.751692
C73	C	0.825357	-0.573699	0.151238
C74	C	1.325357	-0.073699	0.651238
N75	N	0.833871	-0.535923	0.050780
N76	N	1.333871	-0.035923	0.550780
N77	N	0.833863	-0.463108	0.050781
N78	N	1.333863	0.036892	0.550781
C79	C	0.825341	-0.425883	0.151235
C80	C	1.325341	0.074117	0.651235
C81	C	0.872551	-0.695105	0.073871
C82	C	1.372551	-0.195105	0.573871
C83	C	0.872551	-0.771752	0.073864
C84	C	1.372551	-0.271752	0.573864
C85	C	0.778184	-0.771784	0.228604
C86	C	1.278184	-0.271784	0.728604
C87	C	0.778181	-0.695139	0.228601
C88	C	1.278181	-0.195139	0.728601
C89	C	0.825368	-0.656804	0.151236
C90	C	1.325368	-0.156804	0.651236
C91	C	0.952961	0.000244	0.142308
C92	C	1.452961	0.500244	0.642308
C93	C	1.030476	0.000268	0.144162
C94	C	1.530476	0.500268	0.644162
C95	C	0.829651	0.000207	-0.056298
C96	C	1.329651	0.500207	0.443702
C97	C	0.827793	0.000207	-0.182283
C98	C	1.327793	0.500207	0.317717
N99	N	0.825374	0.189911	0.151233
N100	N	1.325374	0.689911	0.651233
C101	C	0.826284	0.000209	-0.284597
C102	C	1.326284	0.500209	0.215403
C103	C	0.824397	0.000216	-0.412955
C104	C	1.324397	0.500216	0.087045
C105	C	0.821039	0.000216	0.358752
C106	C	1.321039	0.500216	0.858752
C107	C	0.822897	0.000221	0.484737
C108	C	1.322897	0.500221	0.984737
H109	H	0.599059	0.000178	0.345788
H110	H	1.099059	0.500178	0.845788
F111	F	0.011771	0.000271	0.357626
F112	F	0.511771	0.500271	0.857626
F113	F	0.922726	-0.186992	-0.008484
F114	F	1.422726	0.313008	0.491516
H115	H	0.739731	-0.335690	0.291576
H116	H	1.239731	0.164310	0.791576
H117	H	0.627835	0.000146	-0.029537
H118	H	1.127835	0.500146	0.470463
F119	F	0.727972	-0.812587	0.310939
F120	F	1.227972	-0.312587	0.810939
F121	F	0.044506	0.000261	-0.069417
F122	F	0.544506	0.500261	0.430583
F123	F	0.922771	-0.812515	-0.008477
F124	F	1.422771	-0.312515	0.491523
H125	H	0.466932	0.000191	0.342621
H126	H	0.966932	0.500191	0.842621
H127	H	0.739760	-0.663954	0.291595
H128	H	1.239760	-0.163954	0.791595
F129	F	0.922738	-0.345202	-0.008484
F130	F	1.422738	0.154798	0.491516
F131	F	0.488578	0.000178	-0.058773
F132	F	0.988578	0.500178	0.441227
F133	F	0.162112	0.000254	0.361231
F134	F	0.662112	0.500254	0.861231
H135	H	0.183759	0.000240	-0.040172
H136	H	0.683759	0.500240	0.459828
H137	H	0.739709	-0.196640	0.291571
H138	H	1.239709	0.303360	0.791571
F139	F	0.922769	-0.654306	-0.008473
F140	F	1.422769	-0.154306	0.491527
