data_functionalizedCrystal
_audit_creation_method	'MofGen! by Chris Wilmer'
_symmetry_space_group_name_H-M	'P1'
_symmetry_Int_Tables_number	1
_symmetry_cell_setting	triclinic
loop_
_symmetry_equiv_pos_as_xyz
  x,y,z
_cell_length_a	10.723024
_cell_length_b	10.540539
_cell_length_c	9.798715
_cell_angle_alpha	89.998989
_cell_angle_beta	89.996609
_cell_angle_gamma	84.496680
loop_
_atom_site_label
_atom_site_type_symbol
_atom_site_fract_x
_atom_site_fract_y
_atom_site_fract_z
O1	O	1.657276	0.178046	-0.113475
O2	O	1.294132	0.195088	-0.113479
O3	O	1.483989	0.001856	-0.113475
O4	O	1.467419	0.371278	-0.113479
O5	O	1.483974	0.001856	0.113507
O6	O	1.294118	0.195088	0.113503
O7	O	1.657262	0.178045	0.113507
Zn8	Zn	1.475687	0.186567	0.149543
Zn9	Zn	1.475706	0.186567	-0.149515
O10	O	1.467405	0.371277	0.113503
C11	C	1.247624	0.193848	0.000011
C12	C	1.109068	0.190137	0.000010
C13	C	1.482739	-0.045446	0.000013
C14	C	1.479021	-0.186392	0.000006
C15	C	1.034139	0.298260	0.000008
C16	C	0.890934	0.294427	0.000006
C17	C	1.336563	-0.369746	-0.000505
C18	C	1.340332	-0.223130	0.000006
C19	C	1.545757	-0.248085	0.129625
C20	C	1.541023	-0.394627	0.129734
C21	C	1.543860	-0.395146	-0.128387
C22	C	1.545138	-0.248165	-0.130101
C23	C	1.703769	0.179286	0.000013
C24	C	1.842325	0.182997	0.000006
C25	C	1.468654	0.418580	0.000012
C26	C	1.472372	0.559526	0.000010
N27	N	1.475684	0.186565	0.353643
N28	N	1.475720	0.186559	-0.353615
C29	C	1.555399	0.105075	0.421421
C30	C	1.555419	0.105071	0.578584
H31	H	1.076009	0.393665	0.000015
F32	F	0.806780	0.415416	-0.000006
F33	F	1.271196	-0.168510	0.121652
F34	F	1.386514	0.277762	0.570212
F35	F	1.671391	-0.457396	0.137436
F36	F	1.485150	-0.192377	0.255704
F37	F	1.264958	-0.407087	-0.122001
F38	F	0.926471	0.062002	-0.000002
H39	H	1.623672	0.035308	0.636871
H40	H	1.498979	-0.426675	-0.226630
H41	H	1.067199	0.094732	-0.000024
F42	F	1.481814	-0.194132	-0.255453
H43	H	1.647606	-0.225783	0.134445
F44	F	1.386489	0.277749	0.429870
F45	F	1.674794	-0.456942	-0.129529
H46	H	1.287821	-0.180499	-0.092910
F47	F	1.265051	-0.409621	0.119976
H48	H	1.491691	-0.422801	0.226625
F49	F	1.644363	0.013660	0.345195
F50	F	1.677302	-0.216568	-0.140339
