data_functionalizedCrystal
_audit_creation_method	'MofGen! by Chris Wilmer'
_symmetry_space_group_name_H-M	'P1'
_symmetry_Int_Tables_number	1
_symmetry_cell_setting	triclinic
loop_
_symmetry_equiv_pos_as_xyz
  x,y,z
_cell_length_a	17.077404
_cell_length_b	16.959453
_cell_length_c	16.959447
_cell_angle_alpha	89.968936
_cell_angle_beta	89.984649
_cell_angle_gamma	90.020213
loop_
_atom_site_label
_atom_site_type_symbol
_atom_site_fract_x
_atom_site_fract_y
_atom_site_fract_z
Zn1	Zn	1.200038	-0.314661	-0.446926
Zn2	Zn	1.533372	0.018672	-0.113593
Zn3	Zn	1.866705	0.352005	0.219740
Zn4	Zn	1.199962	-0.446854	-0.314746
Zn5	Zn	1.533295	-0.113520	0.018587
Zn6	Zn	1.866628	0.219813	0.351921
Zn7	Zn	1.068780	-0.314694	-0.314761
Zn8	Zn	1.402113	0.018640	0.018572
Zn9	Zn	1.735446	0.351973	0.351905
Zn10	Zn	1.068745	-0.446802	-0.446882
Zn11	Zn	1.402078	-0.113469	-0.113549
Zn12	Zn	1.735411	0.219865	0.219784
O13	O	1.134381	-0.380753	-0.380829
O14	O	1.467714	-0.047419	-0.047496
O15	O	1.801048	0.285914	0.285838
O16	O	1.309875	-0.332205	-0.429404
O17	O	1.643208	0.001128	-0.096071
O18	O	1.976542	0.334462	0.237262
O19	O	1.182542	-0.429357	-0.204137
O20	O	1.515876	-0.096024	0.129196
O21	O	1.849209	0.237309	0.462529
O22	O	1.086238	-0.204078	-0.332318
O23	O	1.419571	0.129255	0.001015
O24	O	1.752905	0.462588	0.334348
O25	O	1.309819	-0.429326	-0.332292
O26	O	1.643152	-0.095993	0.001041
O27	O	1.976485	0.237341	0.334375
O28	O	1.182673	-0.204055	-0.429419
O29	O	1.516007	0.129279	-0.096086
O30	O	1.849340	0.462612	0.237247
O31	O	1.086164	-0.332260	-0.204148
O32	O	1.419497	0.001073	0.129185
O33	O	1.752830	0.334407	0.462518
O34	O	0.958928	-0.332210	-0.332276
O35	O	1.292261	0.001123	0.001058
O36	O	1.625595	0.334457	0.334391
O37	O	1.086179	-0.429238	-0.557499
O38	O	1.419512	-0.095905	-0.224166
O39	O	1.752845	0.237428	0.109168
O40	O	0.958902	-0.429270	-0.429344
O41	O	1.292236	-0.095936	-0.096011
O42	O	1.625569	0.237397	0.237322
O43	O	1.182639	-0.332155	-0.557531
O44	O	1.515973	0.001178	-0.224198
O45	O	1.849306	0.334512	0.109135
O46	O	1.182509	-0.557458	-0.332249
O47	O	1.515842	-0.224124	0.001084
O48	O	1.849175	0.109209	0.334417
O49	O	1.086104	-0.557420	-0.429329
O50	O	1.419438	-0.224087	-0.095996
O51	O	1.752771	0.109247	0.237337
C52	C	0.930433	-0.380738	-0.380807
C53	C	1.263767	-0.047405	-0.047474
C54	C	1.597100	0.285928	0.285859
C55	C	0.843183	-0.380751	-0.380817
C56	C	1.176517	-0.047418	-0.047483
C57	C	1.509850	0.285915	0.285850
C58	C	0.802200	-0.431366	-0.431279
C59	C	1.135534	-0.098033	-0.097946
C60	C	1.468867	0.235300	0.235387
C61	C	0.720220	-0.431368	-0.431292
C62	C	1.053553	-0.098035	-0.097958
C63	C	1.386887	0.235299	0.235375
C64	C	0.679224	-0.380758	-0.380837
C65	C	1.012557	-0.047425	-0.047504
C66	C	1.345891	0.285909	0.285829
C67	C	0.720213	-0.330137	-0.330373
C68	C	1.053546	0.003196	0.002961
C69	C	1.386879	0.336529	0.336294
C70	C	0.802192	-0.330132	-0.330365
C71	C	1.135525	0.003201	0.002969
C72	C	1.468858	0.336534	0.336302
C73	C	0.549343	-0.330153	-0.330392
C74	C	0.882676	0.003180	0.002942
C75	C	1.216009	0.336514	0.336275
C76	C	0.467358	-0.330159	-0.330398
C77	C	0.800691	0.003175	0.002935
C78	C	1.134025	0.336508	0.336268
C79	C	0.467371	-0.431389	-0.431319
C80	C	0.800704	-0.098055	-0.097986
C81	C	1.134038	0.235278	0.235348
C82	C	0.549350	-0.431384	-0.431311
C83	C	0.882683	-0.098050	-0.097978
C84	C	1.216017	0.235283	0.235356
C85	C	0.590333	-0.380764	-0.380845
C86	C	0.923666	-0.047430	-0.047511
C87	C	1.257000	0.285903	0.285822
C88	C	1.134316	-0.586119	-0.380800
C89	C	1.467649	-0.252786	-0.047467
C90	C	1.800982	0.080548	0.285867
C91	C	1.134359	-0.673976	-0.380814
C92	C	1.467693	-0.340642	-0.047481
C93	C	1.801026	-0.007309	0.285853
C94	C	1.184659	-1.045380	-0.431485
C95	C	1.517992	-0.712047	-0.098152
C96	C	1.851326	-0.378713	0.235182
C97	C	1.084322	-1.045522	-0.330291
C98	C	1.417656	-0.712189	0.003043
C99	C	1.750989	-0.378855	0.336376
C100	C	1.084293	-0.962976	-0.330272
C101	C	1.417626	-0.629643	0.003061
C102	C	1.750960	-0.296309	0.336394
C103	C	1.134447	-0.921628	-0.380862
C104	C	1.467780	-0.588295	-0.047529
C105	C	1.801114	-0.254962	0.285805
C106	C	1.184630	-0.962827	-0.431470
C107	C	1.517963	-0.629493	-0.098137
C108	C	1.851297	-0.296160	0.235197
C109	C	1.034105	-0.921772	-0.279671
C110	C	1.367439	-0.588438	0.053662
C111	C	1.700772	-0.255105	0.386996
C112	C	1.034074	-0.839221	-0.279652
C113	C	1.367407	-0.505887	0.053682
C114	C	1.700740	-0.172554	0.387015
C115	C	1.084232	-0.797872	-0.330238
C116	C	1.417565	-0.464538	0.003095
C117	C	1.750899	-0.131205	0.336429
C118	C	1.134418	-0.839075	-0.380847
C119	C	1.467751	-0.505742	-0.047514
C120	C	1.801084	-0.172408	0.285819
C121	C	1.184572	-0.797727	-0.431437
C122	C	1.517905	-0.464394	-0.098104
C123	C	1.851238	-0.131061	0.235230
C124	C	1.234762	-0.838929	-0.482043
C125	C	1.568095	-0.505596	-0.148710
C126	C	1.901428	-0.172262	0.184624
C127	C	1.234788	-0.921478	-0.482056
C128	C	1.568122	-0.588144	-0.148723
C129	C	1.901455	-0.254811	0.184610
C130	C	1.084206	-0.715323	-0.330224
C131	C	1.417539	-0.381990	0.003109
C132	C	1.750872	-0.048656	0.336442
C133	C	1.184542	-0.715174	-0.431422
C134	C	1.517876	-0.381840	-0.098089
C135	C	1.851209	-0.048507	0.235245
C136	C	1.339125	-0.380768	-0.380851
C137	C	1.672459	-0.047434	-0.047518
C138	C	2.005792	0.285899	0.285815
C139	C	1.426375	-0.380774	-0.380861
C140	C	1.759708	-0.047441	-0.047528
C141	C	2.093042	0.285893	0.285806
C142	C	1.134414	-0.380687	-0.586997
C143	C	1.467747	-0.047354	-0.253664
C144	C	1.801080	0.285979	0.079669
C145	C	1.134428	-0.380659	-0.674854
C146	C	1.467761	-0.047326	-0.341521
C147	C	1.801094	0.286007	-0.008187
C148	C	1.134468	-0.174584	-0.380875
C149	C	1.467801	0.158749	-0.047542
C150	C	1.801135	0.492082	0.285791
C151	C	1.134505	-0.086728	-0.380895
C152	C	1.467839	0.246606	-0.047562
C153	C	1.801172	0.579939	0.285771
C154	C	1.084299	-0.431123	-1.046315
C155	C	1.417632	-0.097789	-0.712982
C156	C	1.750965	0.235544	-0.379649
C157	C	1.184744	-0.330029	-1.046344
C158	C	1.518078	0.003304	-0.713011
C159	C	1.851411	0.336637	-0.379678
C160	C	1.184723	-0.330046	-0.963798
C161	C	1.518057	0.003287	-0.630465
C162	C	1.851390	0.336621	-0.297132
C163	C	1.134490	-0.380603	-0.922507
C164	C	1.467823	-0.047269	-0.589174
C165	C	1.801157	0.286064	-0.255840
C166	C	1.084278	-0.431143	-0.963762
C167	C	1.417611	-0.097809	-0.630429
C168	C	1.750945	0.235524	-0.297095
C169	C	1.234940	-0.279512	-0.922537
C170	C	1.568274	0.053821	-0.589204
C171	C	1.901607	0.387154	-0.255871
C172	C	1.234922	-0.279528	-0.839986
C173	C	1.568255	0.053806	-0.506653
C174	C	1.901589	0.387139	-0.173320
C175	C	1.184684	-0.330081	-0.798694
C176	C	1.518018	0.003252	-0.465360
C177	C	1.851351	0.336585	-0.132027
C178	C	1.134469	-0.380623	-0.839954
C179	C	1.467803	-0.047289	-0.506620
C180	C	1.801136	0.286044	-0.173287
C181	C	1.084236	-0.431179	-0.798662
C182	C	1.417569	-0.097846	-0.465329
C183	C	1.750903	0.235487	-0.131996
C184	C	1.034017	-0.481718	-0.839921
C185	C	1.367350	-0.148384	-0.506587
C186	C	1.700683	0.184949	-0.173254
C187	C	1.034040	-0.481696	-0.922469
C188	C	1.367373	-0.148363	-0.589136
C189	C	1.700707	0.184971	-0.255803
C190	C	1.184661	-0.330103	-0.716145
C191	C	1.517994	0.003231	-0.382812
C192	C	1.851327	0.336564	-0.049479
C193	C	1.084215	-0.431199	-0.716109
C194	C	1.417549	-0.097866	-0.382775
C195	C	1.750882	0.235467	-0.049442
C196	C	1.134394	-0.380761	-0.175463
C197	C	1.467727	-0.047427	0.157871
C198	C	1.801060	0.285906	0.491204
C199	C	1.134532	-0.380566	-0.087607
C200	C	1.467865	-0.047233	0.245727
C201	C	1.801198	0.286101	0.579060
H202	H	0.582708	-0.288926	-0.289304
H203	H	0.916042	0.044408	0.044030
H204	H	1.249375	0.377741	0.377363
H205	H	0.993271	-0.955443	-0.238486
H206	H	1.326604	-0.622110	0.094847
H207	H	1.659937	-0.288776	0.428181
Cl208	Cl	0.668675	-0.266507	-0.266949
Cl209	Cl	1.002008	0.066826	0.066385
Cl210	Cl	1.335341	0.400159	0.399718
Cl211	Cl	0.415850	-0.495014	-0.494773
Cl212	Cl	0.749183	-0.161681	-0.161440
Cl213	Cl	1.082517	0.171653	0.171894
H214	H	1.225387	-0.681513	-0.472616
H215	H	1.558720	-0.348180	-0.139282
H216	H	1.892054	-0.014847	0.194051
H217	H	0.433981	-0.288938	-0.289323
H218	H	0.767315	0.044395	0.044010
H219	H	1.100648	0.377728	0.377343
H220	H	0.582727	-0.472599	-0.472391
H221	H	0.916060	-0.139266	-0.139058
H222	H	1.249393	0.194067	0.194276
H223	H	1.275842	-0.238357	-0.956163
H224	H	1.609176	0.094977	-0.622829
H225	H	1.942509	0.428310	-0.289496
Cl226	Cl	1.247754	-1.097174	-0.495098
Cl227	Cl	1.581088	-0.763840	-0.161765
Cl228	Cl	1.914421	-0.430507	0.171569
Cl229	Cl	1.298051	-0.215993	-0.788126
Cl230	Cl	1.631384	0.117341	-0.454793
Cl231	Cl	1.964717	0.450674	-0.121460
H232	H	1.225551	-0.288957	-0.682556
H233	H	1.558884	0.044376	-0.349223
H234	H	1.892217	0.377709	-0.015890
H235	H	0.993207	-0.805679	-0.238445
H236	H	1.326541	-0.472346	0.094888
H237	H	1.659874	-0.139013	0.428222
H238	H	1.275650	-0.955031	-0.523258
H239	H	1.608983	-0.621698	-0.189924
H240	H	1.942316	-0.288365	0.143409
H241	H	0.835574	-0.472582	-0.472363
H242	H	1.168907	-0.139248	-0.139029
H243	H	1.502240	0.194085	0.194304
H244	H	0.686855	-0.472585	-0.472383
H245	H	1.020189	-0.139252	-0.139049
H246	H	1.353522	0.194082	0.194284
Cl247	Cl	0.970873	-0.545276	-0.788002
Cl248	Cl	1.304207	-0.211943	-0.454669
Cl249	Cl	1.637540	0.121390	-0.121335
Cl250	Cl	0.853713	-0.266497	-0.266925
Cl251	Cl	1.187047	0.066836	0.066408
Cl252	Cl	1.520380	0.400170	0.399742
H253	H	1.225646	-0.288873	-1.079968
H254	H	1.558979	0.044461	-0.746635
H255	H	1.892313	0.377794	-0.413302
Cl256	Cl	1.297802	-0.786940	-0.545646
Cl257	Cl	1.631136	-0.453606	-0.212313
Cl258	Cl	1.964469	-0.120273	0.121021
H259	H	1.043486	-1.079192	-0.289106
H260	H	1.376819	-0.745859	0.044227
H261	H	1.710153	-0.412525	0.377561
H262	H	1.043409	-0.472267	-1.079912
H263	H	1.376742	-0.138934	-0.746578
H264	H	1.710076	0.194399	-0.413245
H265	H	1.043338	-0.681780	-0.289025
H266	H	1.376671	-0.348447	0.044308
H267	H	1.710004	-0.015114	0.377641
H268	H	1.043302	-0.472362	-0.682495
H269	H	1.376635	-0.139029	-0.349162
H270	H	1.709968	0.194304	-0.015829
H271	H	0.993157	-0.522844	-0.956069
H272	H	1.326490	-0.189511	-0.622736
H273	H	1.659823	0.143823	-0.289402
