data_functionalizedCrystal
_audit_creation_method	'MofGen! by Chris Wilmer'
_symmetry_space_group_name_H-M	'P1'
_symmetry_Int_Tables_number	1
_symmetry_cell_setting	triclinic
loop_
_symmetry_equiv_pos_as_xyz
  x,y,z
_cell_length_a	21.606444
_cell_length_b	23.196402
_cell_length_c	23.196401
_cell_angle_alpha	120.001336
_cell_angle_beta	89.994517
_cell_angle_gamma	60.001587
loop_
_atom_site_label
_atom_site_type_symbol
_atom_site_fract_x
_atom_site_fract_y
_atom_site_fract_z
Zr1	Zr	0.596223	0.631037	0.075655
O2	O	0.497383	0.751317	0.167706
O3	O	0.626520	0.510767	0.047439
O4	O	0.626496	0.631057	0.167716
O5	O	0.497428	0.631008	-0.047450
O6	O	0.728346	0.631061	0.167719
O7	O	0.497406	0.631027	0.047430
O8	O	0.728388	0.415885	-0.047433
O9	O	0.497385	0.846184	0.167702
O10	O	0.715454	0.560235	0.035404
O11	O	0.639460	0.560218	-0.035406
O12	O	0.639432	0.701843	0.106204
O13	O	0.563439	0.701826	0.035393
Zr14	Zr	0.758695	0.631013	-0.075663
Zr15	Zr	0.758661	0.631043	0.075660
Zr16	Zr	0.596257	0.631006	-0.075668
Zr17	Zr	0.596227	0.782339	0.075648
Zr18	Zr	0.758691	0.479711	-0.075656
O19	O	0.728398	0.751283	-0.047448
O20	O	0.728349	0.751326	0.167714
O21	O	0.497431	0.751273	-0.047456
O22	O	0.857535	0.510733	-0.167715
O23	O	0.857487	0.510776	0.047447
O24	O	0.626569	0.510724	-0.167722
O25	O	0.857490	0.631042	0.047442
O26	O	0.728422	0.630993	-0.167724
O27	O	0.626572	0.630989	-0.167728
O28	O	0.857512	0.631023	-0.047438
O29	O	0.626502	0.846189	0.167707
O30	O	0.728416	0.415861	-0.167715
O31	O	0.857533	0.415866	-0.167711
O32	O	0.857505	0.415890	-0.047429
O33	O	0.497413	0.846160	0.047421
O34	O	0.626530	0.846165	0.047425
O35	O	0.715486	0.560207	-0.106212
O36	O	0.791479	0.560224	-0.035401
O37	O	0.715458	0.701832	0.035398
O38	O	0.639464	0.701815	-0.035413
C39	C	0.677453	0.441769	0.000004
C40	C	0.677452	0.377537	0.000007
C41	C	0.474273	0.631017	-0.000011
C42	C	0.405314	0.631014	-0.000013
C43	C	0.717114	0.347375	0.036972
C44	C	0.717121	0.287014	0.036966
C45	C	0.677451	0.256829	0.000005
C46	C	0.637787	0.286994	-0.036968
C47	C	0.637787	0.347348	-0.036967
C48	C	0.610992	0.194798	0.005277
C49	C	0.610990	0.134448	0.005282
C50	C	0.677452	0.070674	-0.000002
C51	C	0.743917	0.067264	-0.005276
C52	C	0.743917	0.127618	-0.005275
C53	C	0.677447	0.191384	-0.000001
C54	C	0.717126	-0.024939	0.036958
C55	C	0.717136	-0.085304	0.036947
C56	C	0.637794	-0.085318	-0.036982
C57	C	0.637792	-0.024959	-0.036976
C58	C	0.677456	0.005230	-0.000002
C59	C	0.412597	0.557097	-0.036967
C60	C	0.347799	0.557099	-0.036968
C61	C	0.275720	0.631019	-0.000010
C62	C	0.268438	0.704942	0.036945
C63	C	0.333235	0.704939	0.036941
C64	C	0.007120	0.704957	0.036961
C65	C	-0.057678	0.704954	0.036964
C66	C	0.021685	0.557116	-0.036948
C67	C	0.086481	0.557113	-0.036952
C68	C	0.079194	0.631036	-0.000000
C69	C	0.149455	0.631032	-0.000001
C70	C	0.205459	0.631024	-0.000005
C71	C	0.880645	0.631033	0.000003
C72	C	0.949604	0.631036	0.000005
C73	C	0.677416	0.631063	0.189278
C74	C	0.677402	0.631076	0.253518
C75	C	0.677465	0.820281	-0.000012
C76	C	0.677466	0.884513	-0.000015
C77	C	0.733512	0.631081	0.283684
C78	C	0.733528	0.631066	0.344031
C79	C	0.677420	0.631063	0.374219
C80	C	0.621304	0.631054	0.344044
C81	C	0.621295	0.631060	0.283694
C82	C	0.608943	0.678559	0.493598
C83	C	0.608952	0.678557	0.553950
C84	C	0.677448	0.631040	0.560358
C85	C	0.745940	0.583534	0.506412
C86	C	0.745931	0.583540	0.446062
C87	C	0.677424	0.631056	0.439659
C88	C	0.733580	0.631027	0.655959
C89	C	0.733596	0.631008	0.716305
C90	C	0.621366	0.631004	0.716321
C91	C	0.621357	0.631015	0.655972
C92	C	0.677463	0.631031	0.625796
C93	C	0.677495	0.630994	0.810717
C94	C	0.677488	0.631003	0.746488
C95	C	0.880639	0.441777	0.000011
C96	C	0.949597	0.377548	0.000016
C97	C	0.677496	0.441731	-0.189278
C98	C	0.677509	0.377486	-0.253516
C99	C	0.880682	0.441739	-0.189271
C100	C	0.949654	0.377497	-0.253507
C101	C	0.474236	0.820311	0.189263
C102	C	0.405264	0.884553	0.253498
C103	C	0.474279	0.820273	-0.000019
C104	C	0.405321	0.884502	-0.000024
C105	C	0.677422	0.820319	0.189270
C106	C	0.677409	0.884564	0.253507
C107	C	0.942296	0.347391	0.036984
C108	C	1.007082	0.287049	0.037003
C109	C	1.079170	0.256861	0.000049
C110	C	1.086469	0.287024	-0.036920
C111	C	1.021683	0.347369	-0.036935
C112	C	0.717199	0.347310	-0.320649
C113	C	0.717208	0.286954	-0.381013
C114	C	0.677531	0.256770	-0.374242
C115	C	0.637836	0.286952	-0.307103
C116	C	0.637823	0.347311	-0.246740
C117	C	1.021719	0.347337	-0.246710
C118	C	1.086532	0.286983	-0.307060
C119	C	1.079278	0.256786	-0.374207
C120	C	1.007206	0.286952	-0.381002
C121	C	0.942395	0.347308	-0.320652
C122	C	0.333199	0.914720	0.246702
C123	C	0.268386	0.975093	0.307052
C124	C	0.275640	1.005293	0.374198
C125	C	0.347712	0.975124	0.380994
C126	C	0.412523	0.914756	0.320644
C127	C	0.412622	0.914665	-0.036986
C128	C	0.347836	0.975024	-0.036989
C129	C	0.275748	1.005214	-0.000032
C130	C	0.268449	0.975048	0.036934
C131	C	0.333235	0.914695	0.036940
C132	C	0.717094	0.914728	0.246714
C133	C	0.717097	0.975085	0.307067
C134	C	0.677410	1.005281	0.374212
C135	C	0.637724	0.975110	0.381003
C136	C	0.637726	0.914751	0.320652
H137	H	0.749413	0.371951	0.067076
C138	C	0.760766	0.008263	0.077622
N139	N	0.793638	0.033267	0.108248
H140	H	1.145171	0.262436	-0.067007
H141	H	0.605492	-0.000399	-0.067074
C142	C	1.029728	0.380527	-0.077614
N143	N	1.035792	0.405497	-0.108256
C144	C	0.795336	0.630992	0.749477
N145	N	0.841844	0.630975	0.774459
C146	C	0.594167	0.380489	-0.172895
N147	N	0.561284	0.405475	-0.117276
C148	C	0.760887	0.253757	-0.454860
N149	N	0.793788	0.228753	-0.510480
C150	C	0.760846	0.380505	-0.328113
N151	N	0.793718	0.405508	-0.333742
H152	H	0.027612	0.496925	-0.067038
C153	C	0.491793	0.881569	0.328132
N154	N	0.551498	0.856575	0.333778
C155	C	0.325190	0.881513	0.077595
N156	N	0.319126	0.856522	0.108217
C157	C	1.165804	0.253805	-0.299570
N158	N	1.225510	0.228814	-0.293925
C159	C	0.594198	0.253737	-0.299667
N160	N	0.561334	0.228713	-0.294069
C161	C	1.150580	0.190385	-0.440587
N162	N	1.204288	0.140369	-0.490582
H163	H	0.327300	0.765131	0.067024
H164	H	1.131916	0.207724	0.000066
H165	H	0.883604	0.371969	0.067085
H166	H	0.677548	0.207622	-0.423399
C167	C	0.760760	-0.118473	0.077623
N168	N	0.793614	-0.143451	0.108266
C169	C	0.999035	0.253874	0.077667
N170	N	0.992972	0.228886	0.108293
H171	H	0.605494	-0.109895	-0.067077
C172	C	0.537880	0.138201	0.011075
N173	N	0.482813	0.141026	0.015434
C174	C	0.537873	0.264948	0.011089
N175	N	0.482802	0.317782	0.015465
C176	C	0.999240	0.253719	-0.454870
N177	N	0.993242	0.228682	-0.510509
C178	C	0.189114	1.008267	0.299561
N179	N	0.129408	1.033252	0.293917
C180	C	0.204338	1.071693	0.440578
N181	N	0.150630	1.121702	0.490573
H182	H	1.027639	0.371915	-0.192041
C183	C	0.594102	1.008305	0.454869
N184	N	0.561255	1.033302	0.510507
C185	C	0.491913	0.881471	-0.077640
N186	N	0.551633	0.856478	-0.108259
C187	C	0.355817	0.475784	-0.077608
N188	N	0.361858	0.414534	-0.108216
C189	C	0.355678	1.008345	0.454861
N190	N	0.361676	1.033365	0.510501
H191	H	0.749412	0.890153	0.192047
H192	H	0.883719	0.371857	-0.326196
H193	H	0.353794	0.999574	-0.067094
H194	H	0.605406	0.890197	0.326192
H195	H	0.779267	0.631036	0.631387
C196	C	0.204489	1.071600	-0.000050
N197	N	0.150819	1.121601	-0.000068
C198	C	0.677414	1.071680	0.440594
N199	N	0.677418	1.121693	0.490591
C200	C	0.189145	1.008255	0.077572
N201	N	0.129412	1.033261	0.108173
H202	H	0.801717	0.544840	0.511626
C203	C	0.760753	1.008265	0.299580
N204	N	0.793633	1.033255	0.293939
H205	H	0.145169	0.496919	-0.067045
H206	H	0.209745	0.765130	0.067033
H207	H	-0.116370	0.765153	0.067060
H208	H	0.001177	0.765149	0.067062
H209	H	0.749421	0.262452	0.067068
H210	H	0.779221	0.631069	0.368597
C211	C	0.817028	0.123860	-0.011085
N212	N	0.872098	0.121026	-0.015464
C213	C	0.817033	-0.002889	-0.011092
N214	N	0.872102	-0.055729	-0.015473
H215	H	0.327279	0.890134	0.192033
H216	H	0.605488	0.262412	-0.067063
H217	H	0.605487	0.371906	-0.067069
H218	H	0.471284	0.496902	-0.067066
C219	C	0.795238	0.631086	0.250489
N220	N	0.841732	0.631086	0.225483
H221	H	0.801699	0.544858	0.402140
H222	H	0.575685	0.630997	0.740897
C223	C	0.559538	0.631107	0.250536
N224	N	0.513012	0.631161	0.225571
H225	H	0.575664	0.631016	0.631412
C226	C	0.533609	0.730808	0.613282
N227	N	0.476858	0.770161	0.657969
H228	H	0.575622	0.631050	0.368625
C229	C	0.533587	0.730836	0.486559
N230	N	0.476830	0.770209	0.481258
