data_functionalizedCrystal
_audit_creation_method	'MofGen! by Chris Wilmer'
_symmetry_space_group_name_H-M	'P1'
_symmetry_Int_Tables_number	1
_symmetry_cell_setting	triclinic
loop_
_symmetry_equiv_pos_as_xyz
  x,y,z
_cell_length_a	15.995350
_cell_length_b	15.995350
_cell_length_c	15.072220
_cell_angle_alpha	90.001101
_cell_angle_beta	89.991149
_cell_angle_gamma	83.492375
loop_
_atom_site_label
_atom_site_type_symbol
_atom_site_fract_x
_atom_site_fract_y
_atom_site_fract_z
O1	O	1.110996	0.107921	-0.073703
O2	O	0.867221	0.121249	-0.073721
O3	O	0.995772	-0.007303	-0.073710
O4	O	0.982444	0.236472	-0.073713
O5	O	0.995740	-0.007296	0.073855
O6	O	0.867189	0.121256	0.073844
O7	O	1.110964	0.107928	0.073862
Zn8	Zn	0.989071	0.114593	0.097283
Zn9	Zn	0.989113	0.114584	-0.097141
O10	O	0.982413	0.236480	0.073852
C11	C	0.836010	0.120701	0.000060
C12	C	0.743060	0.119049	0.000053
C13	C	0.405312	0.113117	0.000071
C14	C	0.452746	0.021565	0.000401
C15	C	0.549436	0.023217	0.000063
C16	C	0.572873	0.116060	0.000063
C17	C	0.531804	0.161212	-0.084201
C18	C	0.435168	0.158912	-0.084266
C19	C	0.434793	0.160812	0.083543
C20	C	0.531738	0.160790	0.084651
C21	C	0.667570	0.117727	0.000055
C22	C	0.310614	0.111452	0.000073
C23	C	0.995205	-0.038494	0.000070
C24	C	0.993553	-0.131444	0.000065
C25	C	0.987621	-0.469192	0.000068
C26	C	0.896069	-0.421758	-0.000270
C27	C	0.897721	-0.325068	0.000063
C28	C	0.990564	-0.301631	0.000066
C29	C	1.035702	-0.342705	0.084335
C30	C	1.033402	-0.439341	0.084405
C31	C	1.035330	-0.439707	-0.083404
C32	C	1.035308	-0.342761	-0.084518
C33	C	0.992231	-0.206934	0.000068
C34	C	0.985956	-0.563890	0.000072
C35	C	1.142175	0.108476	0.000080
C36	C	1.235125	0.110127	0.000081
C37	C	0.982980	0.267671	0.000069
C38	C	0.984631	0.360621	0.000069
N39	N	0.989049	0.114599	0.229971
N40	N	0.989142	0.114571	-0.229830
C41	C	0.989112	0.114580	0.589173
C42	C	0.920095	0.183135	0.551560
C43	C	0.920254	0.183385	0.448735
C44	C	0.989080	0.114590	0.410969
C45	C	1.076445	0.133671	0.448266
C46	C	1.076058	0.134159	0.551124
C47	C	0.971542	0.026741	0.551272
C48	C	0.969537	0.027327	0.448409
C49	C	0.989067	0.114593	0.310255
C50	C	0.989130	0.114579	0.689886
H51	H	0.414244	0.130885	0.147414
H52	H	1.016540	-0.026078	0.422704
H53	H	0.854945	0.171953	0.576317
H54	H	1.091540	0.198219	0.575106
H55	H	0.416873	0.125979	-0.147255
C56	C	0.935069	0.270694	0.586460
C57	C	0.866817	0.322396	0.641994
C58	C	0.881808	0.409950	0.676895
C59	C	0.965051	0.445802	0.656261
C60	C	1.033308	0.394099	0.600724
C61	C	1.018317	0.306545	0.565823
H62	H	0.805191	0.295857	0.657271
H63	H	0.831280	0.448224	0.718007
H64	H	0.976148	0.510614	0.682097
H65	H	1.094934	0.420638	0.585447
H66	H	1.068845	0.268271	0.524711
H67	H	1.002306	-0.315516	-0.146857
C68	C	0.587829	-0.024745	0.081655
C69	C	0.560877	0.004813	0.175682
C70	C	0.599264	-0.043159	0.257274
C71	C	0.664601	-0.120688	0.244839
C72	C	0.691556	-0.150250	0.150808
C73	C	0.653169	-0.102278	0.069216
H74	H	0.512508	0.062209	0.184891
H75	H	0.579310	-0.021275	0.326882
H76	H	0.693017	-0.156200	0.305238
H77	H	0.739925	-0.207646	0.141600
H78	H	0.673123	-0.124162	-0.000392
H79	H	0.402920	0.226128	-0.088090
C80	C	0.552482	0.252259	0.091523
C81	C	0.644718	0.270646	0.098107
C82	C	0.665459	0.362120	0.104967
C83	C	0.593965	0.435205	0.105245
C84	C	0.501723	0.416820	0.098661
C85	C	0.480982	0.325347	0.091800
H86	H	0.697648	0.216542	0.097902
H87	H	0.733743	0.375729	0.109841
H88	H	0.609319	0.502919	0.110323
H89	H	0.448794	0.470924	0.098866
H90	H	0.412698	0.311737	0.086926
C91	C	1.097864	0.219228	0.413464
C92	C	1.177896	0.224053	0.357770
C93	C	1.199309	0.309612	0.322969
C94	C	1.140692	0.390347	0.343862
C95	C	1.060655	0.385525	0.399559
C96	C	1.039241	0.299966	0.434359
H97	H	1.221293	0.164285	0.342301
H98	H	1.258558	0.313180	0.281739
H99	H	1.156543	0.453683	0.318101
H100	H	1.017258	0.445293	0.415027
H101	H	0.979992	0.296397	0.475590
H102	H	1.129029	0.085068	0.423801
H103	H	0.855314	0.172016	0.423519
H104	H	0.909219	0.008392	0.577258
C105	C	0.935415	0.271443	0.415477
C106	C	1.012461	0.282288	0.357092
C107	C	1.027628	0.370350	0.323837
C108	C	0.965747	0.447566	0.348967
C109	C	0.888696	0.436723	0.407355
C110	C	0.873529	0.348662	0.440610
H111	H	1.058274	0.225126	0.338486
H112	H	1.084667	0.378376	0.280614
H113	H	0.976974	0.512754	0.324349
H114	H	0.842883	0.493885	0.425961
H115	H	0.816490	0.340635	0.483833
C116	C	0.550886	0.253357	-0.088443
C117	C	0.642646	0.273591	-0.093031
C118	C	0.661729	0.365736	-0.097269
C119	C	0.589053	0.437648	-0.096920
C120	C	0.497287	0.417417	-0.092332
C121	C	0.478204	0.325271	-0.088094
H122	H	0.696450	0.220355	-0.093289
H123	H	0.729661	0.380712	-0.100666
H124	H	0.603180	0.505859	-0.100058
H125	H	0.443482	0.470652	-0.092073
H126	H	0.410272	0.310295	-0.084697
H127	H	0.859490	-0.440293	-0.060701
C128	C	0.568610	0.116260	0.168871
C129	C	0.635754	0.039641	0.160912
C130	C	0.672632	-0.004890	0.245130
C131	C	0.642367	0.027197	0.337306
C132	C	0.575219	0.103820	0.345269
C133	C	0.538341	0.148351	0.261051
H134	H	0.658161	0.015885	0.092674
H135	H	0.722339	-0.061611	0.239235
H136	H	0.669666	-0.005768	0.399649
H137	H	0.552812	0.127576	0.413507
H138	H	0.488634	0.205072	0.266946
H139	H	0.862238	-0.296649	-0.060344
H140	H	1.129019	0.086195	0.576003
H141	H	1.100617	-0.471588	0.088231
C142	C	0.427694	-0.027878	0.082027
C143	C	0.363857	0.014268	0.149385
C144	C	0.338794	-0.035178	0.231010
C145	C	0.377567	-0.126771	0.245278
C146	C	0.441407	-0.168923	0.177919
C147	C	0.466470	-0.119476	0.096294
H148	H	0.335152	0.082076	0.138824
H149	H	0.291535	-0.003974	0.280874
H150	H	0.359014	-0.163374	0.305702
H151	H	0.470112	-0.236730	0.188479
H152	H	0.513729	-0.150681	0.046430
C153	C	0.426295	-0.027658	-0.080778
C154	C	0.361870	0.014912	-0.147274
C155	C	0.335418	-0.034308	-0.228454
C156	C	0.373392	-0.126098	-0.243139
C157	C	0.437822	-0.168673	-0.176641
C158	C	0.464273	-0.119453	-0.095460
H159	H	0.333756	0.082866	-0.136405
H160	H	0.287723	-0.002790	-0.277680
H161	H	0.353811	-0.162533	-0.303234
H162	H	0.465936	-0.236626	-0.187510
H163	H	0.511968	-0.150970	-0.046234
C164	C	0.570143	0.118838	-0.168924
C165	C	0.539964	0.151969	-0.260745
C166	C	0.578302	0.109590	-0.345465
C167	C	0.646819	0.034080	-0.338365
C168	C	0.677002	0.000945	-0.246541
C169	C	0.638664	0.043324	-0.161821
H170	H	0.489239	0.207870	-0.266003
H171	H	0.555957	0.134119	-0.413439
H172	H	0.675199	0.002708	-0.401080
H173	H	0.727727	-0.054956	-0.241282
H174	H	0.661008	0.018795	-0.093847
H175	H	0.577307	-0.012521	-0.060446
C176	C	0.846831	-0.448217	0.080906
C177	C	0.889389	-0.512648	0.147406
C178	C	0.840154	-0.539110	0.228582
C179	C	0.748360	-0.501139	0.243257
C180	C	0.705797	-0.436703	0.176755
C181	C	0.755033	-0.410242	0.095579
H182	H	0.957345	-0.540760	0.136544
H183	H	0.871662	-0.586809	0.277811
H184	H	0.711913	-0.520727	0.303348
H185	H	0.637841	-0.408592	0.187617
H186	H	0.723524	-0.362542	0.046350
C187	C	0.391886	0.252000	0.084321
C188	C	0.330402	0.283073	0.009621
C189	C	0.287492	0.374257	0.010390
C190	C	0.306065	0.434368	0.085857
C191	C	0.367552	0.403297	0.160562
C192	C	0.410463	0.312113	0.159794
H193	H	0.316651	0.238574	-0.046249
H194	H	0.241975	0.397258	-0.044912
H195	H	0.274301	0.501868	0.086426
H196	H	0.381304	0.447796	0.216433
H197	H	0.455979	0.289112	0.215096
C198	C	1.127846	-0.323622	0.088583
C199	C	1.163261	-0.270394	0.015406
C200	C	1.255405	-0.251309	0.019652
C201	C	1.312134	-0.285452	0.097075
C202	C	1.276720	-0.338683	0.170257
C203	C	1.184576	-0.357768	0.166011
H204	H	1.121266	-0.245116	-0.041912
H205	H	1.281620	-0.211904	-0.034522
H206	H	1.380344	-0.271324	0.100218
H207	H	1.318715	-0.363960	0.227575
H208	H	1.158361	-0.397173	0.220186
C209	C	1.039525	-0.042185	0.584135
C210	C	1.051477	-0.058381	0.684291
C211	C	1.119460	-0.127300	0.717159
C212	C	1.175492	-0.180023	0.649871
C213	C	1.163542	-0.163828	0.549708
C214	C	1.095558	-0.094909	0.516839
H215	H	1.009997	-0.019352	0.734108
H216	H	1.128306	-0.139288	0.791307
H217	H	1.225817	-0.231040	0.674202
H218	H	1.205021	-0.202858	0.499891
H219	H	1.086712	-0.082921	0.442692
H220	H	0.861974	-0.297200	0.060568
H221	H	1.000460	-0.457639	0.147395
C222	C	0.882720	0.007761	0.415470
C223	C	0.865775	0.001177	0.315283
C224	C	0.778958	-0.018383	0.282333
C225	C	0.709087	-0.031360	0.349570
C226	C	0.726031	-0.024776	0.449764
C227	C	0.812847	-0.005215	0.482714
H228	H	0.917499	0.010783	0.265504
H229	H	0.766416	-0.023257	0.208162
H230	H	0.644821	-0.045839	0.325178
H231	H	0.674306	-0.034382	0.499542
H232	H	0.825390	-0.000342	0.556884
C233	C	0.993313	-0.304371	0.169053
C234	C	0.917804	-0.235854	0.161946
C235	C	0.875409	-0.197521	0.246662
C236	C	0.908524	-0.227707	0.338485
C237	C	0.984038	-0.296227	0.345597
C238	C	1.026433	-0.334560	0.260881
H239	H	0.893286	-0.213505	0.093969
H240	H	0.819509	-0.146798	0.241397
H241	H	0.877141	-0.199331	0.401197
H242	H	1.008556	-0.318576	0.413573
H243	H	1.082333	-0.385283	0.266146
H244	H	1.103014	-0.327400	-0.089603
H245	H	1.005411	-0.460250	-0.147274
H246	H	1.102831	-0.471468	-0.083968
