data_functionalizedCrystal
_audit_creation_method	'MofGen! by Chris Wilmer'
_symmetry_space_group_name_H-M	'P1'
_symmetry_Int_Tables_number	1
_symmetry_cell_setting	triclinic
loop_
_symmetry_equiv_pos_as_xyz
  x,y,z
_cell_length_a	11.169417
_cell_length_b	13.897441
_cell_length_c	11.169416
_cell_angle_alpha	89.974103
_cell_angle_beta	90.011589
_cell_angle_gamma	89.981769
loop_
_atom_site_label
_atom_site_type_symbol
_atom_site_fract_x
_atom_site_fract_y
_atom_site_fract_z
Zn1	Zn	1.834947	-0.545348	-0.477729
Zn2	Zn	2.168280	-0.212015	-0.144396
Zn3	Zn	2.501614	0.121318	0.188938
Zn4	Zn	1.834841	-0.384063	-0.678452
Zn5	Zn	2.168174	-0.050730	-0.345119
Zn6	Zn	2.501508	0.282604	-0.011785
Zn7	Zn	1.634237	-0.384074	-0.477786
Zn8	Zn	1.967571	-0.050740	-0.144453
Zn9	Zn	2.300904	0.282593	0.188881
Zn10	Zn	1.634240	-0.545323	-0.678373
Zn11	Zn	1.967574	-0.211989	-0.345040
Zn12	Zn	2.300907	0.121344	-0.011706
O13	O	1.734567	-0.464702	-0.578085
O14	O	2.067900	-0.131369	-0.244752
O15	O	2.401233	0.201965	0.088582
O16	O	2.002883	-0.523960	-0.504364
O17	O	2.336216	-0.190626	-0.171031
O18	O	2.669549	0.142707	0.162302
O19	O	1.808185	-0.249083	-0.651890
O20	O	2.141518	0.084251	-0.318557
O21	O	2.474851	0.417584	0.014777
O22	O	1.660905	-0.405482	-0.309829
O23	O	1.994239	-0.072149	0.023505
O24	O	2.327572	0.261184	0.356838
O25	O	2.002805	-0.405464	-0.651835
O26	O	2.336138	-0.072131	-0.318501
O27	O	2.669471	0.261203	0.014832
O28	O	1.808366	-0.523970	-0.309787
O29	O	2.141699	-0.190637	0.023547
O30	O	2.475032	0.142697	0.356880
O31	O	1.660802	-0.249091	-0.504462
O32	O	1.994136	0.084243	-0.171128
O33	O	2.327469	0.417576	0.162205
O34	O	1.466288	-0.405457	-0.504385
O35	O	1.799622	-0.072124	-0.171052
O36	O	2.132955	0.261209	0.162282
O37	O	1.660910	-0.680308	-0.651700
O38	O	1.994244	-0.346974	-0.318367
O39	O	2.327577	-0.013641	0.014966
O40	O	1.466290	-0.523926	-0.651756
O41	O	1.799624	-0.190593	-0.318422
O42	O	2.132957	0.142740	0.014911
O43	O	1.808369	-0.680327	-0.504288
O44	O	2.141702	-0.346993	-0.170955
O45	O	2.475035	-0.013660	0.162379
O46	O	1.808188	-0.405439	-0.846391
O47	O	2.141521	-0.072106	-0.513058
O48	O	2.474854	0.261228	-0.179725
O49	O	1.660807	-0.523916	-0.846333
O50	O	1.994141	-0.190583	-0.513000
O51	O	2.327474	0.142751	-0.179667
C52	C	1.422742	-0.464691	-0.578069
C53	C	1.756075	-0.131358	-0.244735
C54	C	2.089408	0.201976	0.088598
C55	C	1.289342	-0.464709	-0.578091
C56	C	1.622675	-0.131376	-0.244757
C57	C	1.956009	0.201958	0.088576
C58	C	1.734652	-0.716295	-0.577979
C59	C	2.067985	-0.382962	-0.244646
C60	C	2.401318	-0.049628	0.088688
C61	C	1.734688	-0.823509	-0.577934
C62	C	2.068021	-0.490176	-0.244600
C63	C	2.401355	-0.156842	0.088733
C64	C	1.734720	-1.019804	-0.577853
C65	C	2.068054	-0.686471	-0.244519
C66	C	2.401387	-0.353138	0.088814
C67	C	1.734699	-0.910572	-0.577901
C68	C	2.068032	-0.577238	-0.244568
C69	C	2.401365	-0.243905	0.088766
C70	C	2.047609	-0.464714	-0.578102
C71	C	2.380942	-0.131380	-0.244769
C72	C	2.714275	0.201953	0.088565
C73	C	2.181009	-0.464718	-0.578109
C74	C	2.514342	-0.131385	-0.244776
C75	C	2.847675	0.201948	0.088557
C76	C	1.734519	-0.464695	-0.889910
C77	C	2.067852	-0.131361	-0.556576
C78	C	2.401186	0.201972	-0.223243
C79	C	1.734608	-0.464724	-1.023310
C80	C	2.067942	-0.131390	-0.689976
C81	C	2.401275	0.201943	-0.356643
C82	C	1.734551	-0.214088	-0.578104
C83	C	2.067884	0.119246	-0.244771
C84	C	2.401217	0.452579	0.088563
C85	C	1.734747	-0.106874	-0.577811
C86	C	2.068080	0.226459	-0.244478
C87	C	2.401414	0.559793	0.088856
C88	C	1.734647	-0.464730	-0.265043
C89	C	2.067980	-0.131397	0.068291
C90	C	2.401314	0.201936	0.401624
C91	C	1.734681	-0.464742	-0.131643
C92	C	2.068015	-0.131409	0.201691
C93	C	2.401348	0.201924	0.535024
