data_functionalizedCrystal
_audit_creation_method	'MofGen! by Chris Wilmer'
_symmetry_space_group_name_H-M	'P1'
_symmetry_Int_Tables_number	1
_symmetry_cell_setting	triclinic
loop_
_symmetry_equiv_pos_as_xyz
  x,y,z
_cell_length_a	10.723024
_cell_length_b	10.723023
_cell_length_c	9.798715
_cell_angle_alpha	89.996998
_cell_angle_beta	89.996846
_cell_angle_gamma	84.467709
loop_
_atom_site_label
_atom_site_type_symbol
_atom_site_fract_x
_atom_site_fract_y
_atom_site_fract_z
O1	O	-1.657186	-0.175025	0.113481
O2	O	-1.294034	-0.191778	0.113486
O3	O	-1.483987	-0.001825	0.113475
O4	O	-1.467233	-0.364978	0.113491
O5	O	-1.483974	-0.001824	-0.113507
O6	O	-1.294021	-0.191777	-0.113497
O7	O	-1.657173	-0.175024	-0.113501
Zn8	Zn	-1.475595	-0.183400	-0.149537
Zn9	Zn	-1.475612	-0.183402	0.149522
O10	O	-1.467220	-0.364976	-0.113491
C11	C	-1.247528	-0.190558	-0.000005
C12	C	-1.108973	-0.186911	-0.000003
C13	C	-1.482762	0.044675	-0.000015
C14	C	-1.479114	0.183229	-0.000012
C15	C	-1.703679	-0.176243	-0.000008
C16	C	-1.842234	-0.179891	-0.000000
C17	C	-1.033991	-0.293198	0.000002
C18	C	-0.890787	-0.289431	0.000004
C19	C	-1.477495	0.244994	0.117573
C20	C	-1.473726	0.388197	0.117578
N21	N	-1.475592	-0.183398	-0.353637
C22	C	-1.468445	0.588523	-0.000001
C23	C	-1.472093	0.449969	-0.000004
C24	C	-1.555546	-0.103469	-0.578573
C25	C	-1.555529	-0.103471	-0.421410
N26	N	-1.475625	-0.183394	0.353621
H27	H	-1.075812	-0.386984	-0.000002
C28	C	-1.648002	-0.011022	-0.657328
N29	N	-1.717641	0.058614	-0.716645
C30	C	-1.383144	-0.275842	-0.432400
N31	N	-1.313512	-0.345472	-0.491734
C32	C	-1.473971	0.378222	-0.136013
N33	N	-1.475383	0.324173	-0.238456
C34	C	-1.479400	0.173214	0.253571
N35	N	-1.480840	0.119151	0.356009
H36	H	-0.826354	-0.380421	0.000014
H37	H	-1.407193	-0.251827	-0.588079
H38	H	-1.067152	-0.093125	0.000028
C39	C	-1.647961	-0.011018	-0.342638
N40	N	-1.717582	0.058622	-0.283304
C41	C	-0.929269	-0.056957	-0.000010
N42	N	-0.994833	0.035637	-0.000021
C43	C	-1.471844	0.459951	0.253583
N44	N	-1.470425	0.514000	0.356025
H45	H	-1.477702	0.236366	-0.100676
